
     RDKit          3D

 36 39  0  0  0  0  0  0  0  0999 V2000
   46.6610   34.7750   42.0690 C   0  0  0  0  0  0  0  0  0  0  0  0
   47.9320   35.3200   41.9800 C   0  0  0  0  0  0  0  0  0  0  0  0
   48.7390   35.2140   40.8730 C   0  0  0  0  0  0  0  0  0  0  0  0
   48.2820   34.5330   39.7770 C   0  0  0  0  0  0  0  0  0  0  0  0
   47.0310   33.9650   39.7900 C   0  0  0  0  0  0  0  0  0  0  0  0
   46.5550   33.2800   38.6940 C   0  0  0  0  0  0  0  0  0  0  0  0
   45.3030   32.7000   38.6710 C   0  0  0  0  0  0  0  0  0  0  0  0
   44.5520   32.8550   39.8330 C   0  0  0  0  0  0  0  0  0  0  0  0
   45.0430   33.5350   40.9000 C   0  0  0  0  0  0  0  0  0  0  0  0
   46.2810   34.1110   40.9300 C   0  0  0  0  0  0  0  0  0  0  0  0
   44.4060   35.9700   44.9070 C   0  0  0  0  0  0  0  0  0  0  0  0
   45.0230   35.9400   43.6640 C   0  0  0  0  0  0  0  0  0  0  0  0
   45.9380   34.9640   43.2980 C   0  0  0  0  0  0  0  0  0  0  0  0
   46.1660   34.0450   44.2820 N   0  0  0  0  0  0  0  0  0  0  0  0
   45.5810   34.0590   45.4850 C   0  0  0  0  0  0  0  0  0  0  0  0
   44.7130   35.0130   45.7830 N   0  0  0  0  0  0  0  0  0  0  0  0
   45.9230   33.0040   46.4420 C   0  0  0  0  0  0  0  0  0  0  0  0
   46.9430   32.1200   46.1560 C   0  0  0  0  0  0  0  0  0  0  0  0
   47.2720   31.1120   47.0680 C   0  0  0  0  0  0  0  0  0  0  0  0
   46.5380   31.0630   48.2300 C   0  0  0  0  0  0  0  0  0  0  0  0
   45.4980   31.9230   48.5810 C   0  0  0  0  0  0  0  0  0  0  0  0
   45.2370   32.8870   47.6300 C   0  0  0  0  0  0  0  0  0  0  0  0
   48.3188   35.8717   42.8495 H   0  0  0  0  0  0  0  0  0  0  0  0
   49.7397   35.6706   40.8676 H   0  0  0  0  0  0  0  0  0  0  0  0
   48.9176   34.4403   38.8840 H   0  0  0  0  0  0  0  0  0  0  0  0
   47.1962   33.1920   37.8046 H   0  0  0  0  0  0  0  0  0  0  0  0
   44.9245   32.1529   37.7950 H   0  0  0  0  0  0  0  0  0  0  0  0
   43.5436   32.4189   39.8872 H   0  0  0  0  0  0  0  0  0  0  0  0
   44.4068   33.6276   41.7926 H   0  0  0  0  0  0  0  0  0  0  0  0
   43.6847   36.7604   45.1619 H   0  0  0  0  0  0  0  0  0  0  0  0
   44.7749   36.7263   42.9358 H   0  0  0  0  0  0  0  0  0  0  0  0
   47.4977   32.2081   45.2102 H   0  0  0  0  0  0  0  0  0  0  0  0
   48.0793   30.3928   46.8656 H   0  0  0  0  0  0  0  0  0  0  0  0
   46.7953   30.2717   48.9495 H   0  0  0  0  0  0  0  0  0  0  0  0
   44.9397   31.8405   49.5252 H   0  0  0  0  0  0  0  0  0  0  0  0
   44.4307   33.6071   47.8332 H   0  0  0  0  0  0  0  0  0  0  0  0
  1 13  1  0
  2  1  2  0
  3  2  1  0
  4  5  1  0
  4  3  2  0
  5 10  2  0
  6  5  1  0
  7  6  2  0
  7  8  1  0
  8  9  2  0
  9 10  1  0
 10  1  1  0
 11 16  2  0
 12 11  1  0
 13 12  2  0
 13 14  1  0
 14 15  2  0
 15 16  1  0
 15 17  1  0
 17 22  1  0
 18 17  2  0
 18 19  1  0
 19 20  2  0
 20 21  1  0
 22 21  2  0
  2 23  1  0
  3 24  1  0
  4 25  1  0
  6 26  1  0
  7 27  1  0
  8 28  1  0
  9 29  1  0
 11 30  1  0
 12 31  1  0
 18 32  1  0
 19 33  1  0
 20 34  1  0
 21 35  1  0
 22 36  1  0
M  ISO  8  23  14  24  14  25  14  26  14  27  14  28  14  29  14  30  14
M  ISO  6  31  14  32  14  33  14  34  14  35  14  36  14
M  END
>  <minimizedAffinity>  (1) 
-7.21566343

>  <minimizedRMSD>  (1) 
0.473528862

$$$$
