
     RDKit          3D

 37 38  0  0  1  0  0  0  0  0999 V2000
   43.7580   35.6340   41.5740 C   0  0  0  0  0  0  0  0  0  0  0  0
   42.7110   34.8740   40.9850 N   0  0  0  0  0  0  0  0  0  0  0  0
   42.7340   34.6830   39.5800 C   0  0  0  0  0  0  0  0  0  0  0  0
   41.3910   34.3260   38.9910 C   0  0  0  0  0  0  0  0  0  0  0  0
   40.4370   35.4490   39.2550 C   0  0  0  0  0  0  0  0  0  0  0  0
   40.5340   35.9430   40.6660 C   0  0  0  0  0  0  0  0  0  0  0  0
   41.4170   35.0550   41.5180 C   0  0  2  0  0  0  0  0  0  0  0  0
   41.4500   35.7240   42.8340 N   0  0  0  0  0  0  0  0  0  0  0  0
   44.7160   34.6680   42.3010 C   0  0  1  0  0  0  0  0  0  0  0  0
   45.9990   34.5710   41.5740 C   0  0  0  0  0  0  0  0  0  0  0  0
   47.0920   35.1850   42.2130 C   0  0  0  0  0  0  0  0  0  0  0  0
   48.3550   35.1610   41.5990 C   0  0  0  0  0  0  0  0  0  0  0  0
   48.4230   34.5110   40.3690 N   0  0  0  0  0  0  0  0  0  0  0  0
   47.3330   33.9370   39.8010 C   0  0  0  0  0  0  0  0  0  0  0  0
   46.1530   33.9690   40.3950 N   0  0  0  0  0  0  0  0  0  0  0  0
   44.8230   34.9820   43.7340 C   0  0  0  0  0  0  0  0  0  0  0  0
   44.1530   36.1130   44.1150 O   0  0  0  0  0  0  0  0  0  0  0  0
   43.3363   36.3503   42.2945 H   0  0  0  0  0  0  0  0  0  0  0  0
   44.3025   36.1904   40.7969 H   0  0  0  0  0  0  0  0  0  0  0  0
   43.0826   35.6141   39.1092 H   0  0  0  0  0  0  0  0  0  0  0  0
   43.4056   33.8343   39.3833 H   0  0  0  0  0  0  0  0  0  0  0  0
   41.0153   33.4037   39.4582 H   0  0  0  0  0  0  0  0  0  0  0  0
   41.4883   34.1639   37.9074 H   0  0  0  0  0  0  0  0  0  0  0  0
   40.6665   36.2792   38.5708 H   0  0  0  0  0  0  0  0  0  0  0  0
   39.4155   35.0741   39.0941 H   0  0  0  0  0  0  0  0  0  0  0  0
   40.9543   36.9595   40.6584 H   0  0  0  0  0  0  0  0  0  0  0  0
   39.5231   35.9339   41.0997 H   0  0  0  0  0  0  0  0  0  0  0  0
   41.0168   34.0319   41.5730 H   0  0  0  0  0  0  0  0  0  0  0  0
   41.4150   35.0152   43.5805 H   0  0  0  0  0  0  0  0  0  0  0  0
   42.3190   36.2703   42.9197 H   0  0  0  0  0  0  0  0  0  0  0  0
   44.2960   33.6515   42.2865 H   0  0  0  0  0  0  0  0  0  0  0  0
   46.9583   35.6801   43.1861 H   0  0  0  0  0  0  0  0  0  0  0  0
   49.2373   35.6274   42.0616 H   0  0  0  0  0  0  0  0  0  0  0  0
   47.4333   33.4353   38.8272 H   0  0  0  0  0  0  0  0  0  0  0  0
   44.4173   34.1330   44.3038 H   0  0  0  0  0  0  0  0  0  0  0  0
   45.8886   35.1639   43.9376 H   0  0  0  0  0  0  0  0  0  0  0  0
   44.1239   36.1621   45.1034 H   0  0  0  0  0  0  0  0  0  0  0  0
  1  9  1  0
  2  7  1  0
  2  1  1  0
  3  2  1  0
  4  5  1  0
  4  3  1  0
  5  6  1  0
  6  7  1  0
  7  8  1  0
  9 16  1  0
 10 11  2  0
 10  9  1  0
 12 11  1  0
 13 12  2  0
 14 13  1  0
 14 15  2  0
 15 10  1  0
 16 17  1  0
  1 18  1  0
  1 19  1  0
  3 20  1  0
  3 21  1  0
  4 22  1  0
  4 23  1  0
  5 24  1  0
  5 25  1  0
  6 26  1  0
  6 27  1  0
  7 28  1  1
  8 29  1  0
  8 30  1  0
  9 31  1  1
 11 32  1  0
 12 33  1  0
 14 34  1  0
 16 35  1  0
 16 36  1  0
 17 37  1  0
M  ISO  8  18   8  19   8  20  13  21  13  22  13  23  13  24  13  25  13
M  ISO  8  26  13  27  13  28  13  29   5  30   5  31   8  32  14  33  14
M  ISO  4  34  14  35   8  36   8  37   3
M  END
>  <minimizedAffinity>  (1) 
-5.30899096

>  <minimizedRMSD>  (1) 
0.277583092

$$$$
