
     RDKit          3D

 37 38  0  0  1  0  0  0  0  0999 V2000
   43.8270   35.3780   41.7720 C   0  0  0  0  0  0  0  0  0  0  0  0
   42.7590   34.7510   41.0730 N   0  0  0  0  0  0  0  0  0  0  0  0
   42.8700   34.6100   39.6700 C   0  0  0  0  0  0  0  0  0  0  0  0
   41.5400   34.4000   38.9820 C   0  0  0  0  0  0  0  0  0  0  0  0
   40.7070   35.6420   39.2030 C   0  0  0  0  0  0  0  0  0  0  0  0
   40.7560   36.0850   40.6250 C   0  0  0  0  0  0  0  0  0  0  0  0
   41.4600   35.1000   41.5170 C   0  0  2  0  0  0  0  0  0  0  0  0
   41.4690   35.7110   42.8610 N   0  0  0  0  0  0  0  0  0  0  0  0
   44.8270   34.3250   42.2290 C   0  0  1  0  0  0  0  0  0  0  0  0
   46.0880   34.4060   41.4700 C   0  0  0  0  0  0  0  0  0  0  0  0
   47.1130   35.1140   42.1140 C   0  0  0  0  0  0  0  0  0  0  0  0
   48.3570   35.2610   41.4710 C   0  0  0  0  0  0  0  0  0  0  0  0
   48.4700   34.6710   40.2090 N   0  0  0  0  0  0  0  0  0  0  0  0
   47.4410   34.0000   39.6440 C   0  0  0  0  0  0  0  0  0  0  0  0
   46.2800   33.8730   40.2620 N   0  0  0  0  0  0  0  0  0  0  0  0
   44.9550   34.2740   43.6920 C   0  0  0  0  0  0  0  0  0  0  0  0
   44.5960   35.8620   44.4350 S   0  0  0  0  0  0  0  0  0  0  0  0
   43.4285   35.9092   42.6489 H   0  0  0  0  0  0  0  0  0  0  0  0
   44.3297   36.0935   41.1047 H   0  0  0  0  0  0  0  0  0  0  0  0
   43.3333   35.5210   39.2633 H   0  0  0  0  0  0  0  0  0  0  0  0
   43.4796   33.7142   39.4802 H   0  0  0  0  0  0  0  0  0  0  0  0
   41.0298   33.5254   39.4118 H   0  0  0  0  0  0  0  0  0  0  0  0
   41.6866   34.2208   37.9066 H   0  0  0  0  0  0  0  0  0  0  0  0
   41.0923   36.4496   38.5633 H   0  0  0  0  0  0  0  0  0  0  0  0
   39.6626   35.4073   38.9498 H   0  0  0  0  0  0  0  0  0  0  0  0
   41.2868   37.0471   40.6755 H   0  0  0  0  0  0  0  0  0  0  0  0
   39.7189   36.1727   40.9811 H   0  0  0  0  0  0  0  0  0  0  0  0
   40.9275   34.1375   41.5127 H   0  0  0  0  0  0  0  0  0  0  0  0
   41.4581   34.9692   43.5755 H   0  0  0  0  0  0  0  0  0  0  0  0
   42.3185   36.2827   42.9726 H   0  0  0  0  0  0  0  0  0  0  0  0
   44.4282   33.3313   41.9771 H   0  0  0  0  0  0  0  0  0  0  0  0
   46.9470   35.5496   43.1103 H   0  0  0  0  0  0  0  0  0  0  0  0
   49.1910   35.8081   41.9347 H   0  0  0  0  0  0  0  0  0  0  0  0
   47.5732   33.5503   38.6488 H   0  0  0  0  0  0  0  0  0  0  0  0
   44.2510   33.5268   44.0870 H   0  0  0  0  0  0  0  0  0  0  0  0
   45.9919   34.0027   43.9394 H   0  0  0  0  0  0  0  0  0  0  0  0
   44.6226   35.7442   45.7997 H   0  0  0  0  0  0  0  0  0  0  0  0
  1  9  1  0
  2  7  1  0
  2  1  1  0
  3  2  1  0
  4  5  1  0
  4  3  1  0
  5  6  1  0
  6  7  1  0
  7  8  1  0
  9 16  1  0
 10 11  2  0
 10  9  1  0
 12 11  1  0
 13 12  2  0
 14 13  1  0
 14 15  2  0
 15 10  1  0
 16 17  1  0
  1 18  1  0
  1 19  1  0
  3 20  1  0
  3 21  1  0
  4 22  1  0
  4 23  1  0
  5 24  1  0
  5 25  1  0
  6 26  1  0
  6 27  1  0
  7 28  1  1
  8 29  1  0
  8 30  1  0
  9 31  1  6
 11 32  1  0
 12 33  1  0
 14 34  1  0
 16 35  1  0
 16 36  1  0
 17 37  1  0
M  ISO  8  18   8  19   8  20  13  21  13  22  13  23  13  24  13  25  13
M  ISO  8  26  13  27  13  28  13  29   5  30   5  31   8  32  14  33  14
M  ISO  4  34  14  35   8  36   8  37  11
M  END
>  <minimizedAffinity>  (1) 
-5.07623148

>  <minimizedRMSD>  (1) 
0.355586559

$$$$
