
     RDKit          3D

 40 43  0  0  1  0  0  0  0  0999 V2000
   44.5620   35.7270   44.7750 C   0  0  0  0  0  0  0  0  0  0  0  0
   44.9760   35.3600   43.4670 C   0  0  0  0  0  0  0  0  0  0  0  0
   45.6550   34.1320   43.3170 C   0  0  0  0  0  0  0  0  0  0  0  0
   45.8710   33.3830   44.4240 N   0  0  0  0  0  0  0  0  0  0  0  0
   45.4540   33.7790   45.6480 C   0  0  0  0  0  0  0  0  0  0  0  0
   44.8030   34.9450   45.8250 N   0  0  0  0  0  0  0  0  0  0  0  0
   45.7230   32.9070   46.7120 N   0  0  0  0  0  0  0  0  0  0  0  0
   44.9470   32.8300   47.9430 C   0  0  0  0  0  0  0  0  0  0  0  0
   46.0340   32.4650   48.9250 C   0  0  0  0  0  0  0  0  0  0  0  0
   46.6910   31.3500   48.1680 C   0  0  0  0  0  0  0  0  0  0  0  0
   46.8200   31.9290   46.7540 C   0  0  1  0  0  0  0  0  0  0  0  0
   46.5900   30.8350   45.7820 C   0  0  0  0  0  0  0  0  0  0  0  0
   47.7640   30.6570   45.2040 O   0  0  0  0  0  0  0  0  0  0  0  0
   45.5660   29.9260   45.2890 C   0  0  0  0  0  0  0  0  0  0  0  0
   44.8430   29.9210   44.1120 C   0  0  0  0  0  0  0  0  0  0  0  0
   43.9430   28.9310   44.0580 N   0  0  0  0  0  0  0  0  0  0  0  0
   44.1200   28.3100   45.2340 C   0  0  0  0  0  0  0  0  0  0  0  0
   43.4460   27.2050   45.7110 C   0  0  0  0  0  0  0  0  0  0  0  0
   43.7060   26.6400   46.9400 C   0  0  0  0  0  0  0  0  0  0  0  0
   44.6740   27.1720   47.7640 C   0  0  0  0  0  0  0  0  0  0  0  0
   45.3280   28.2710   47.2640 C   0  0  0  0  0  0  0  0  0  0  0  0
   45.1070   28.8740   46.0410 C   0  0  0  0  0  0  0  0  0  0  0  0
   44.0304   36.6785   44.9238 H   0  0  0  0  0  0  0  0  0  0  0  0
   44.7747   36.0093   42.6022 H   0  0  0  0  0  0  0  0  0  0  0  0
   45.9990   33.7930   42.3287 H   0  0  0  0  0  0  0  0  0  0  0  0
   44.4813   33.7951   48.1915 H   0  0  0  0  0  0  0  0  0  0  0  0
   44.1010   32.1277   47.9107 H   0  0  0  0  0  0  0  0  0  0  0  0
   46.7245   33.3027   49.1022 H   0  0  0  0  0  0  0  0  0  0  0  0
   45.6831   32.2016   49.9337 H   0  0  0  0  0  0  0  0  0  0  0  0
   47.6785   31.1123   48.5904 H   0  0  0  0  0  0  0  0  0  0  0  0
   46.1250   30.4075   48.2026 H   0  0  0  0  0  0  0  0  0  0  0  0
   47.7971   32.3761   46.5186 H   0  0  0  0  0  0  0  0  0  0  0  0
   46.8566   30.0954   46.5513 H   0  0  0  0  0  0  0  0  0  0  0  0
   48.4613   30.5513   45.8988 H   0  0  0  0  0  0  0  0  0  0  0  0
   44.9910   30.6530   43.3044 H   0  0  0  0  0  0  0  0  0  0  0  0
   43.2807   28.7033   43.3028 H   0  0  0  0  0  0  0  0  0  0  0  0
   42.6650   26.7543   45.0809 H   0  0  0  0  0  0  0  0  0  0  0  0
   43.1365   25.7573   47.2663 H   0  0  0  0  0  0  0  0  0  0  0  0
   44.9061   26.7467   48.7515 H   0  0  0  0  0  0  0  0  0  0  0  0
   46.1062   28.7160   47.9015 H   0  0  0  0  0  0  0  0  0  0  0  0
  1  6  2  0
  2  1  1  0
  3  2  2  0
  3  4  1  0
  4  5  2  0
  5  6  1  0
  5  7  1  0
  7 11  1  0
  7  8  1  0
  8  9  1  0
 10  9  1  0
 11 10  1  0
 12 13  1  0
 12 11  1  0
 14 12  1  0
 14 22  1  0
 15 14  2  0
 16 15  1  0
 16 17  1  0
 17 18  2  0
 17 22  1  0
 18 19  1  0
 19 20  2  0
 21 20  1  0
 22 21  2  0
  1 23  1  0
  2 24  1  0
  3 25  1  0
  8 26  1  0
  8 27  1  0
  9 28  1  0
  9 29  1  0
 10 30  1  0
 10 31  1  0
 11 32  1  1
 12 33  1  0
 13 34  1  0
 15 35  1  0
 16 36  1  0
 18 37  1  0
 19 38  1  0
 20 39  1  0
 21 40  1  0
M  ISO  8  23  14  24  14  25  14  26  13  27  13  28  13  29  13  30  13
M  ISO  8  31  13  32  13  33   8  34   3  35  14  36   9  37  14  38  14
M  ISO  2  39  14  40  14
M  END
>  <minimizedAffinity>  (1) 
-5.37010765

>  <minimizedRMSD>  (1) 
1.71402156

$$$$
