
     RDKit          3D

 31 32  0  0  1  0  0  0  0  0999 V2000
   44.5430   35.7700   44.8550 C   0  0  0  0  0  0  0  0  0  0  0  0
   45.1030   35.6020   43.5710 C   0  0  0  0  0  0  0  0  0  0  0  0
   45.9460   34.4820   43.3560 C   0  0  0  0  0  0  0  0  0  0  0  0
   46.1560   33.6490   44.4030 N   0  0  0  0  0  0  0  0  0  0  0  0
   45.5970   33.8490   45.6170 C   0  0  0  0  0  0  0  0  0  0  0  0
   44.7950   34.9090   45.8340 N   0  0  0  0  0  0  0  0  0  0  0  0
   45.8820   32.9020   46.5990 N   0  0  0  0  0  0  0  0  0  0  0  0
   45.1020   32.6590   47.7830 C   0  0  0  0  0  0  0  0  0  0  0  0
   46.1490   32.2840   48.7880 C   0  0  0  0  0  0  0  0  0  0  0  0
   46.9450   31.2870   47.9620 C   0  0  0  0  0  0  0  0  0  0  0  0
   47.0030   31.9780   46.6200 C   0  0  1  0  0  0  0  0  0  0  0  0
   46.9440   31.0070   45.5090 C   0  0  0  0  0  0  0  0  0  0  0  0
   47.9140   31.2360   44.6940 O   0  0  0  0  0  0  0  0  0  0  0  0
   46.1110   29.9260   45.1500 N   0  0  0  0  0  0  0  0  0  0  0  0
   45.0270   29.5740   45.9840 C   0  0  0  0  0  0  0  0  0  0  0  0
   44.5740   30.0210   47.0660 N   0  0  0  0  0  0  0  0  0  0  0  0
   44.2490   28.4690   45.5310 N   0  0  0  0  0  0  0  0  0  0  0  0
   44.8770   30.7830   47.6530 H   0  0  0  0  0  0  0  0  0  0  0  0
   43.8854   36.6302   45.0487 H   0  0  0  0  0  0  0  0  0  0  0  0
   44.8924   36.3172   42.7622 H   0  0  0  0  0  0  0  0  0  0  0  0
   46.4114   34.2970   42.3766 H   0  0  0  0  0  0  0  0  0  0  0  0
   44.5582   33.5633   48.0937 H   0  0  0  0  0  0  0  0  0  0  0  0
   44.3272   31.8899   47.6482 H   0  0  0  0  0  0  0  0  0  0  0  0
   46.7593   33.1490   49.0868 H   0  0  0  0  0  0  0  0  0  0  0  0
   45.7637   31.8982   49.7433 H   0  0  0  0  0  0  0  0  0  0  0  0
   47.9517   31.1346   48.3783 H   0  0  0  0  0  0  0  0  0  0  0  0
   46.5014   30.2810   47.9274 H   0  0  0  0  0  0  0  0  0  0  0  0
   47.9539   32.5139   46.4839 H   0  0  0  0  0  0  0  0  0  0  0  0
   46.2924   29.3970   44.2851 H   0  0  0  0  0  0  0  0  0  0  0  0
   43.4400   28.1484   46.0820 H   0  0  0  0  0  0  0  0  0  0  0  0
   44.4958   27.9911   44.6526 H   0  0  0  0  0  0  0  0  0  0  0  0
  1  6  2  0
  2  1  1  0
  3  2  2  0
  3  4  1  0
  4  5  2  0
  5  6  1  0
  5  7  1  0
  7 11  1  0
  7  8  1  0
  8  9  1  0
 10  9  1  0
 11 10  1  0
 12 11  1  0
 13 12  2  0
 14 12  1  0
 14 15  1  0
 15 16  2  0
 16 18  1  0
 17 15  1  0
  1 19  1  0
  2 20  1  0
  3 21  1  0
  8 22  1  0
  8 23  1  0
  9 24  1  0
  9 25  1  0
 10 26  1  0
 10 27  1  0
 11 28  1  1
 14 29  1  0
 17 30  1  0
 17 31  1  0
M  ISO  8  19  14  20  14  21  14  22  13  23  13  24  13  25  13  26  13
M  ISO  2  27  13  28  13
M  END
>  <minimizedAffinity>  (1) 
-5.17821312

>  <minimizedRMSD>  (1) 
1.34139037

$$$$
