
     RDKit          3D

 32 34  0  0  1  0  0  0  0  0999 V2000
   44.4910   35.8670   44.8680 C   0  0  0  0  0  0  0  0  0  0  0  0
   45.1380   35.7600   43.6030 C   0  0  0  0  0  0  0  0  0  0  0  0
   46.0270   34.6820   43.4180 C   0  0  0  0  0  0  0  0  0  0  0  0
   46.1840   33.8430   44.4680 N   0  0  0  0  0  0  0  0  0  0  0  0
   45.5630   33.9680   45.6440 C   0  0  0  0  0  0  0  0  0  0  0  0
   44.7150   34.9850   45.8390 N   0  0  0  0  0  0  0  0  0  0  0  0
   45.8280   33.0110   46.6210 N   0  0  0  0  0  0  0  0  0  0  0  0
   44.9910   32.6780   47.7290 C   0  0  0  0  0  0  0  0  0  0  0  0
   46.0280   32.3950   48.8050 C   0  0  0  0  0  0  0  0  0  0  0  0
   46.9470   31.4690   48.0290 C   0  0  0  0  0  0  0  0  0  0  0  0
   47.0020   32.1720   46.7180 C   0  0  1  0  0  0  0  0  0  0  0  0
   47.3130   31.3640   45.5550 C   0  0  0  0  0  0  0  0  0  0  0  0
   47.8970   30.3280   45.6590 O   0  0  0  0  0  0  0  0  0  0  0  0
   47.2850   31.1340   44.1010 C   0  0  0  0  0  0  0  0  0  0  0  0
   48.3760   31.4560   43.2630 C   0  0  0  0  0  0  0  0  0  0  0  0
   48.4260   31.3730   41.9080 C   0  0  0  0  0  0  0  0  0  0  0  0
   47.2960   30.9350   41.3760 N   0  0  0  0  0  0  0  0  0  0  0  0
   46.1980   30.5950   42.0380 C   0  0  0  0  0  0  0  0  0  0  0  0
   46.2500   30.7110   43.3560 N   0  0  0  0  0  0  0  0  0  0  0  0
   43.7911   36.6968   45.0458 H   0  0  0  0  0  0  0  0  0  0  0  0
   44.9510   36.4903   42.8020 H   0  0  0  0  0  0  0  0  0  0  0  0
   46.5647   34.5307   42.4703 H   0  0  0  0  0  0  0  0  0  0  0  0
   44.3384   33.5182   48.0086 H   0  0  0  0  0  0  0  0  0  0  0  0
   44.2981   31.8452   47.5383 H   0  0  0  0  0  0  0  0  0  0  0  0
   46.5451   33.3107   49.1276 H   0  0  0  0  0  0  0  0  0  0  0  0
   45.6290   31.9810   49.7428 H   0  0  0  0  0  0  0  0  0  0  0  0
   47.9413   31.4008   48.4946 H   0  0  0  0  0  0  0  0  0  0  0  0
   46.6039   30.4253   47.9740 H   0  0  0  0  0  0  0  0  0  0  0  0
   47.8994   32.8079   46.7018 H   0  0  0  0  0  0  0  0  0  0  0  0
   49.2874   31.8142   43.7641 H   0  0  0  0  0  0  0  0  0  0  0  0
   49.3127   31.6417   41.3151 H   0  0  0  0  0  0  0  0  0  0  0  0
   45.2953   30.2369   41.5213 H   0  0  0  0  0  0  0  0  0  0  0  0
  1  6  2  0
  2  1  1  0
  3  2  2  0
  3  4  1  0
  4  5  2  0
  5  6  1  0
  5  7  1  0
  7 11  1  0
  7  8  1  0
  8  9  1  0
 10  9  1  0
 11 10  1  0
 12 13  2  0
 12 11  1  0
 14 12  1  0
 15 14  2  0
 16 15  1  0
 17 16  2  0
 17 18  1  0
 18 19  2  0
 19 14  1  0
  1 20  1  0
  2 21  1  0
  3 22  1  0
  8 23  1  0
  8 24  1  0
  9 25  1  0
  9 26  1  0
 10 27  1  0
 10 28  1  0
 11 29  1  1
 15 30  1  0
 16 31  1  0
 18 32  1  0
M  ISO  8  20  14  21  14  22  14  23  13  24  13  25  13  26  13  27  13
M  ISO  5  28  13  29  13  30  14  31  14  32  14
M  END
>  <minimizedAffinity>  (1) 
-4.75361013

>  <minimizedRMSD>  (1) 
0.495164365

$$$$
