
     RDKit          3D

 36 38  0  0  1  0  0  0  0  0999 V2000
   44.5580   35.6730   44.8450 C   0  0  0  0  0  0  0  0  0  0  0  0
   44.7260   35.3120   43.4860 C   0  0  0  0  0  0  0  0  0  0  0  0
   45.2920   34.0500   43.2090 C   0  0  0  0  0  0  0  0  0  0  0  0
   45.6430   33.2600   44.2620 N   0  0  0  0  0  0  0  0  0  0  0  0
   45.4580   33.6580   45.5280 C   0  0  0  0  0  0  0  0  0  0  0  0
   44.9190   34.8580   45.8190 N   0  0  0  0  0  0  0  0  0  0  0  0
   45.8420   32.7470   46.5250 N   0  0  0  0  0  0  0  0  0  0  0  0
   45.2950   32.6910   47.8780 C   0  0  0  0  0  0  0  0  0  0  0  0
   46.5530   32.2890   48.6400 C   0  0  0  0  0  0  0  0  0  0  0  0
   46.9640   31.1170   47.7800 C   0  0  0  0  0  0  0  0  0  0  0  0
   46.8510   31.6930   46.3690 C   0  0  1  0  0  0  0  0  0  0  0  0
   46.3760   30.6330   45.4550 C   0  0  0  0  0  0  0  0  0  0  0  0
   47.4300   30.3130   44.7350 O   0  0  0  0  0  0  0  0  0  0  0  0
   45.2170   29.8270   45.0790 C   0  0  0  0  0  0  0  0  0  0  0  0
   44.6460   29.0960   46.0960 C   0  0  0  0  0  0  0  0  0  0  0  0
   43.5070   28.3410   45.7810 C   0  0  0  0  0  0  0  0  0  0  0  0
   42.9970   28.3410   44.5060 C   0  0  0  0  0  0  0  0  0  0  0  0
   43.5330   29.0520   43.4680 C   0  0  0  0  0  0  0  0  0  0  0  0
   44.6430   29.7730   43.8250 C   0  0  0  0  0  0  0  0  0  0  0  0
   44.1187   36.6503   45.0937 H   0  0  0  0  0  0  0  0  0  0  0  0
   44.4257   35.9918   42.6750 H   0  0  0  0  0  0  0  0  0  0  0  0
   45.4455   33.7135   42.1730 H   0  0  0  0  0  0  0  0  0  0  0  0
   44.9107   33.6680   48.2063 H   0  0  0  0  0  0  0  0  0  0  0  0
   44.4336   32.0194   48.0079 H   0  0  0  0  0  0  0  0  0  0  0  0
   47.3097   33.0874   48.6432 H   0  0  0  0  0  0  0  0  0  0  0  0
   46.4176   32.0745   49.7104 H   0  0  0  0  0  0  0  0  0  0  0  0
   47.9949   30.8031   48.0007 H   0  0  0  0  0  0  0  0  0  0  0  0
   46.3510   30.2176   47.9390 H   0  0  0  0  0  0  0  0  0  0  0  0
   47.7960   32.0728   45.9534 H   0  0  0  0  0  0  0  0  0  0  0  0
   46.6513   29.8695   46.1974 H   0  0  0  0  0  0  0  0  0  0  0  0
   48.1830   30.0844   45.3357 H   0  0  0  0  0  0  0  0  0  0  0  0
   45.0654   29.1037   47.1129 H   0  0  0  0  0  0  0  0  0  0  0  0
   43.0171   27.7426   46.5633 H   0  0  0  0  0  0  0  0  0  0  0  0
   42.1028   27.7319   44.3075 H   0  0  0  0  0  0  0  0  0  0  0  0
   43.1159   29.0460   42.4502 H   0  0  0  0  0  0  0  0  0  0  0  0
   45.1237   30.3672   43.0339 H   0  0  0  0  0  0  0  0  0  0  0  0
  1  6  2  0
  2  1  1  0
  3  2  2  0
  3  4  1  0
  4  5  2  0
  5  6  1  0
  5  7  1  0
  7  8  1  0
  8  9  1  0
 10  9  1  0
 11  7  1  0
 11 10  1  0
 12 13  1  0
 12 11  1  0
 14 12  1  0
 14 15  2  0
 16 15  1  0
 17 16  2  0
 18 19  2  0
 18 17  1  0
 19 14  1  0
  1 20  1  0
  2 21  1  0
  3 22  1  0
  8 23  1  0
  8 24  1  0
  9 25  1  0
  9 26  1  0
 10 27  1  0
 10 28  1  0
 11 29  1  6
 12 30  1  0
 13 31  1  0
 15 32  1  0
 16 33  1  0
 17 34  1  0
 18 35  1  0
 19 36  1  0
M  ISO  8  20  14  21  14  22  14  23  13  24  13  25  13  26  13  27  13
M  ISO  8  28  13  29  13  30   8  31   3  32  14  33  14  34  14  35  14
M  ISO  1  36  14
M  END
>  <minimizedAffinity>  (1) 
-4.68945789

>  <minimizedRMSD>  (1) 
1.28034961

$$$$
