
     RDKit          3D

 31 33  0  0  1  0  0  0  0  0999 V2000
   44.4800   35.8350   44.8400 C   0  0  0  0  0  0  0  0  0  0  0  0
   45.1490   35.7840   43.5960 C   0  0  0  0  0  0  0  0  0  0  0  0
   46.1040   34.7440   43.3940 C   0  0  0  0  0  0  0  0  0  0  0  0
   46.2860   33.8850   44.4270 N   0  0  0  0  0  0  0  0  0  0  0  0
   45.6250   33.9750   45.5890 C   0  0  0  0  0  0  0  0  0  0  0  0
   44.7240   34.9480   45.7980 N   0  0  0  0  0  0  0  0  0  0  0  0
   45.8930   32.9970   46.5630 N   0  0  0  0  0  0  0  0  0  0  0  0
   45.1260   32.6900   47.7140 C   0  0  0  0  0  0  0  0  0  0  0  0
   46.1500   32.3770   48.7550 C   0  0  0  0  0  0  0  0  0  0  0  0
   47.1690   31.5550   47.9720 C   0  0  0  0  0  0  0  0  0  0  0  0
   47.0190   32.0930   46.5870 C   0  0  1  0  0  0  0  0  0  0  0  0
   47.1680   31.2400   45.4480 C   0  0  0  0  0  0  0  0  0  0  0  0
   46.2670   30.4430   45.3430 O   0  0  0  0  0  0  0  0  0  0  0  0
   47.7250   30.5780   44.1790 C   0  0  0  0  0  0  0  0  0  0  0  0
   48.4340   31.3420   43.2770 C   0  0  0  0  0  0  0  0  0  0  0  0
   48.8360   30.7260   42.1440 C   0  0  0  0  0  0  0  0  0  0  0  0
   48.5440   29.4010   41.9160 C   0  0  0  0  0  0  0  0  0  0  0  0
   47.5810   29.0630   43.5560 S   0  0  0  0  0  0  0  0  0  0  0  0
   43.7394   36.6284   45.0191 H   0  0  0  0  0  0  0  0  0  0  0  0
   44.9398   36.5230   42.8085 H   0  0  0  0  0  0  0  0  0  0  0  0
   46.6624   34.6443   42.4515 H   0  0  0  0  0  0  0  0  0  0  0  0
   44.5115   33.5510   48.0159 H   0  0  0  0  0  0  0  0  0  0  0  0
   44.4236   31.8601   47.5468 H   0  0  0  0  0  0  0  0  0  0  0  0
   46.6031   33.2953   49.1568 H   0  0  0  0  0  0  0  0  0  0  0  0
   45.7412   31.8527   49.6314 H   0  0  0  0  0  0  0  0  0  0  0  0
   48.1880   31.7165   48.3534 H   0  0  0  0  0  0  0  0  0  0  0  0
   47.0050   30.4695   48.0420 H   0  0  0  0  0  0  0  0  0  0  0  0
   47.9588   32.6330   46.3995 H   0  0  0  0  0  0  0  0  0  0  0  0
   48.6612   32.4008   43.4702 H   0  0  0  0  0  0  0  0  0  0  0  0
   49.4054   31.2923   41.3923 H   0  0  0  0  0  0  0  0  0  0  0  0
   48.7833   28.7424   41.0680 H   0  0  0  0  0  0  0  0  0  0  0  0
  1  6  2  0
  2  1  1  0
  3  2  2  0
  3  4  1  0
  4  5  2  0
  5  6  1  0
  5  7  1  0
  7 11  1  0
  7  8  1  0
  8  9  1  0
 10  9  1  0
 11 10  1  0
 12 11  1  0
 13 12  2  0
 14 12  1  0
 15 14  2  0
 16 15  1  0
 17 16  2  0
 17 18  1  0
 18 14  1  0
  1 19  1  0
  2 20  1  0
  3 21  1  0
  8 22  1  0
  8 23  1  0
  9 24  1  0
  9 25  1  0
 10 26  1  0
 10 27  1  0
 11 28  1  6
 15 29  1  0
 16 30  1  0
 17 31  1  0
M  ISO  8  19  14  20  14  21  14  22  13  23  13  24  13  25  13  26  13
M  ISO  5  27  13  28  13  29  14  30  14  31  14
M  END
>  <minimizedAffinity>  (1) 
-4.66947842

>  <minimizedRMSD>  (1) 
0.861660242

$$$$
