
     RDKit          3D

 36 38  0  0  1  0  0  0  0  0999 V2000
   44.5630   35.6890   44.8330 C   0  0  0  0  0  0  0  0  0  0  0  0
   44.8040   35.3270   43.4680 C   0  0  0  0  0  0  0  0  0  0  0  0
   45.4060   34.0730   43.2170 C   0  0  0  0  0  0  0  0  0  0  0  0
   45.7090   33.3120   44.2900 N   0  0  0  0  0  0  0  0  0  0  0  0
   45.4680   33.6860   45.5570 C   0  0  0  0  0  0  0  0  0  0  0  0
   44.8970   34.8720   45.8240 N   0  0  0  0  0  0  0  0  0  0  0  0
   45.8050   32.7740   46.5630 N   0  0  0  0  0  0  0  0  0  0  0  0
   45.2550   32.7600   47.9030 C   0  0  0  0  0  0  0  0  0  0  0  0
   46.4360   32.2720   48.6930 C   0  0  0  0  0  0  0  0  0  0  0  0
   46.8550   31.1110   47.8380 C   0  0  0  0  0  0  0  0  0  0  0  0
   46.7690   31.6730   46.4250 C   0  0  1  0  0  0  0  0  0  0  0  0
   46.3240   30.6440   45.4820 C   0  0  0  0  0  0  0  0  0  0  0  0
   47.3970   30.3320   44.7820 O   0  0  0  0  0  0  0  0  0  0  0  0
   45.2010   29.8360   45.0270 C   0  0  0  0  0  0  0  0  0  0  0  0
   44.5780   29.0480   45.9700 C   0  0  0  0  0  0  0  0  0  0  0  0
   43.4660   28.2900   45.5790 C   0  0  0  0  0  0  0  0  0  0  0  0
   43.0260   28.3420   44.2980 C   0  0  0  0  0  0  0  0  0  0  0  0
   43.5910   29.0970   43.3170 C   0  0  0  0  0  0  0  0  0  0  0  0
   44.6720   29.8170   43.7520 C   0  0  0  0  0  0  0  0  0  0  0  0
   44.0947   36.6574   45.0628 H   0  0  0  0  0  0  0  0  0  0  0  0
   44.5300   36.0017   42.6436 H   0  0  0  0  0  0  0  0  0  0  0  0
   45.6182   33.7324   42.1928 H   0  0  0  0  0  0  0  0  0  0  0  0
   44.9432   33.7655   48.2221 H   0  0  0  0  0  0  0  0  0  0  0  0
   44.3496   32.1455   48.0149 H   0  0  0  0  0  0  0  0  0  0  0  0
   47.2254   33.0350   48.7618 H   0  0  0  0  0  0  0  0  0  0  0  0
   46.2220   32.0227   49.7428 H   0  0  0  0  0  0  0  0  0  0  0  0
   47.8817   30.7959   48.0757 H   0  0  0  0  0  0  0  0  0  0  0  0
   46.2308   30.2175   47.9864 H   0  0  0  0  0  0  0  0  0  0  0  0
   47.7328   32.0170   46.0217 H   0  0  0  0  0  0  0  0  0  0  0  0
   46.5753   29.8634   46.2152 H   0  0  0  0  0  0  0  0  0  0  0  0
   48.1413   30.1156   45.3978 H   0  0  0  0  0  0  0  0  0  0  0  0
   44.9452   29.0146   47.0064 H   0  0  0  0  0  0  0  0  0  0  0  0
   42.9500   27.6525   46.3120 H   0  0  0  0  0  0  0  0  0  0  0  0
   42.1506   27.7309   44.0328 H   0  0  0  0  0  0  0  0  0  0  0  0
   43.2184   29.1261   42.2824 H   0  0  0  0  0  0  0  0  0  0  0  0
   45.1732   30.4489   43.0040 H   0  0  0  0  0  0  0  0  0  0  0  0
  1  6  2  0
  2  1  1  0
  3  2  2  0
  3  4  1  0
  4  5  2  0
  5  6  1  0
  5  7  1  0
  7  8  1  0
  8  9  1  0
 10  9  1  0
 11  7  1  0
 11 10  1  0
 12 13  1  0
 12 11  1  0
 14 12  1  0
 14 15  2  0
 16 15  1  0
 17 16  2  0
 18 19  2  0
 18 17  1  0
 19 14  1  0
  1 20  1  0
  2 21  1  0
  3 22  1  0
  8 23  1  0
  8 24  1  0
  9 25  1  0
  9 26  1  0
 10 27  1  0
 10 28  1  0
 11 29  1  6
 12 30  1  0
 13 31  1  0
 15 32  1  0
 16 33  1  0
 17 34  1  0
 18 35  1  0
 19 36  1  0
M  ISO  8  20  14  21  14  22  14  23  13  24  13  25  13  26  13  27  13
M  ISO  8  28  13  29  13  30   8  31   3  32  14  33  14  34  14  35  14
M  ISO  1  36  14
M  END
>  <minimizedAffinity>  (1) 
-4.63874292

>  <minimizedRMSD>  (1) 
1.65508044

$$$$
