
     RDKit          3D

 34 37  0  0  0  0  0  0  0  0999 V2000
   46.6390   34.6700   42.0890 C   0  0  0  0  0  0  0  0  0  0  0  0
   47.8280   35.3330   41.9220 C   0  0  0  0  0  0  0  0  0  0  0  0
   48.5530   35.2130   40.7320 C   0  0  0  0  0  0  0  0  0  0  0  0
   48.0650   34.4100   39.7010 C   0  0  0  0  0  0  0  0  0  0  0  0
   46.8620   33.7400   39.8740 C   0  0  0  0  0  0  0  0  0  0  0  0
   46.1550   33.8730   41.0640 C   0  0  0  0  0  0  0  0  0  0  0  0
   44.8840   33.2220   41.3650 C   0  0  0  0  0  0  0  0  0  0  0  0
   45.0080   32.0450   42.0110 N   0  0  0  0  0  0  0  0  0  0  0  0
   43.9290   31.3210   42.3610 C   0  0  0  0  0  0  0  0  0  0  0  0
   42.6880   31.7480   42.0780 N   0  0  0  0  0  0  0  0  0  0  0  0
   42.5140   32.9180   41.4330 C   0  0  0  0  0  0  0  0  0  0  0  0
   41.2590   33.4180   41.1100 C   0  0  0  0  0  0  0  0  0  0  0  0
   41.1550   34.6270   40.4480 C   0  0  0  0  0  0  0  0  0  0  0  0
   42.2900   35.3530   40.1000 C   0  0  0  0  0  0  0  0  0  0  0  0
   43.5640   34.8830   40.4070 C   0  0  0  0  0  0  0  0  0  0  0  0
   43.6120   33.6710   41.0700 C   0  0  0  0  0  0  0  0  0  0  0  0
   44.4440   35.9370   44.8730 C   0  0  0  0  0  0  0  0  0  0  0  0
   45.0510   35.8830   43.6160 C   0  0  0  0  0  0  0  0  0  0  0  0
   45.9340   34.8450   43.3640 C   0  0  0  0  0  0  0  0  0  0  0  0
   46.1840   33.9190   44.3240 N   0  0  0  0  0  0  0  0  0  0  0  0
   45.5620   34.0120   45.5470 C   0  0  0  0  0  0  0  0  0  0  0  0
   44.7150   34.9990   45.8070 N   0  0  0  0  0  0  0  0  0  0  0  0
   48.2159   35.9664   42.7334 H   0  0  0  0  0  0  0  0  0  0  0  0
   49.5051   35.7502   40.6095 H   0  0  0  0  0  0  0  0  0  0  0  0
   48.6276   34.3089   38.7611 H   0  0  0  0  0  0  0  0  0  0  0  0
   46.4673   33.1030   39.0688 H   0  0  0  0  0  0  0  0  0  0  0  0
   44.0659   30.3647   42.8870 H   0  0  0  0  0  0  0  0  0  0  0  0
   40.3531   32.8551   41.3794 H   0  0  0  0  0  0  0  0  0  0  0  0
   40.1603   35.0210   40.1925 H   0  0  0  0  0  0  0  0  0  0  0  0
   42.1789   36.3129   39.5743 H   0  0  0  0  0  0  0  0  0  0  0  0
   44.4738   35.4402   40.1392 H   0  0  0  0  0  0  0  0  0  0  0  0
   43.7397   36.7497   45.1043 H   0  0  0  0  0  0  0  0  0  0  0  0
   44.8346   36.6415   42.8493 H   0  0  0  0  0  0  0  0  0  0  0  0
   45.7698   33.2576   46.3201 H   0  0  0  0  0  0  0  0  0  0  0  0
  1 19  1  0
  2  1  2  0
  3  2  1  0
  4  5  1  0
  4  3  2  0
  5  6  2  0
  6  7  1  0
  6  1  1  0
  7  8  2  0
  8  9  1  0
 10  9  2  0
 11 10  1  0
 12 11  2  0
 13 12  1  0
 14 15  1  0
 14 13  2  0
 15 16  2  0
 16  7  1  0
 16 11  1  0
 17 22  2  0
 18 17  1  0
 19 18  2  0
 19 20  1  0
 20 21  2  0
 21 22  1  0
  2 23  1  0
  3 24  1  0
  4 25  1  0
  5 26  1  0
  9 27  1  0
 12 28  1  0
 13 29  1  0
 14 30  1  0
 15 31  1  0
 17 32  1  0
 18 33  1  0
 21 34  1  0
M  ISO  8  23  14  24  14  25  14  26  14  27  14  28  14  29  14  30  14
M  ISO  4  31  14  32  14  33  14  34  14
M  END
>  <minimizedAffinity>  (1) 
-6.71155262

>  <minimizedRMSD>  (1) 
0.3182064

$$$$
