
     RDKit          3D

 33 35  0  0  0  0  0  0  0  0999 V2000
   46.4550   34.6810   42.1640 C   0  0  0  0  0  0  0  0  0  0  0  0
   47.7860   35.0400   42.0610 C   0  0  0  0  0  0  0  0  0  0  0  0
   48.4780   34.8330   40.8530 C   0  0  0  0  0  0  0  0  0  0  0  0
   47.8330   34.2690   39.7580 C   0  0  0  0  0  0  0  0  0  0  0  0
   46.4990   33.9110   39.8660 C   0  0  0  0  0  0  0  0  0  0  0  0
   45.8390   34.1260   41.0680 C   0  0  0  0  0  0  0  0  0  0  0  0
   44.4670   33.7550   41.1690 N   0  0  0  0  0  0  0  0  0  0  0  0
   43.6260   34.6930   40.6580 C   0  0  0  0  0  0  0  0  0  0  0  0
   42.2650   34.5100   40.6690 C   0  0  0  0  0  0  0  0  0  0  0  0
   41.2830   35.4930   40.1260 C   0  0  0  0  0  0  0  0  0  0  0  0
   41.7690   33.3260   41.2210 C   0  0  0  0  0  0  0  0  0  0  0  0
   40.5440   33.1210   41.2500 O   0  0  0  0  0  0  0  0  0  0  0  0
   42.6340   32.4230   41.7170 N   0  0  0  0  0  0  0  0  0  0  0  0
   43.9640   32.6230   41.6970 C   0  0  0  0  0  0  0  0  0  0  0  0
   44.8040   31.8220   42.1410 O   0  0  0  0  0  0  0  0  0  0  0  0
   44.4330   36.1630   44.9620 C   0  0  0  0  0  0  0  0  0  0  0  0
   45.0170   36.0540   43.6850 C   0  0  0  0  0  0  0  0  0  0  0  0
   45.7950   34.9210   43.4370 C   0  0  0  0  0  0  0  0  0  0  0  0
   45.9510   34.0000   44.4090 N   0  0  0  0  0  0  0  0  0  0  0  0
   45.3790   34.1300   45.6310 C   0  0  0  0  0  0  0  0  0  0  0  0
   44.6220   35.2110   45.9010 N   0  0  0  0  0  0  0  0  0  0  0  0
   48.3038   35.4871   42.9224 H   0  0  0  0  0  0  0  0  0  0  0  0
   49.5371   35.1196   40.7746 H   0  0  0  0  0  0  0  0  0  0  0  0
   48.3765   34.1086   38.8152 H   0  0  0  0  0  0  0  0  0  0  0  0
   45.9706   33.4629   39.0116 H   0  0  0  0  0  0  0  0  0  0  0  0
   44.0433   35.6154   40.2279 H   0  0  0  0  0  0  0  0  0  0  0  0
   40.7748   36.0017   40.9585 H   0  0  0  0  0  0  0  0  0  0  0  0
   41.8104   36.2358   39.5096 H   0  0  0  0  0  0  0  0  0  0  0  0
   40.5396   34.9663   39.5096 H   0  0  0  0  0  0  0  0  0  0  0  0
   42.2665   31.5515   42.1247 H   0  0  0  0  0  0  0  0  0  0  0  0
   43.8118   37.0394   45.1988 H   0  0  0  0  0  0  0  0  0  0  0  0
   44.8670   36.8271   42.9170 H   0  0  0  0  0  0  0  0  0  0  0  0
   45.5322   33.3567   46.3982 H   0  0  0  0  0  0  0  0  0  0  0  0
  1 18  1  0
  2  1  2  0
  3  2  1  0
  4  5  1  0
  4  3  2  0
  5  6  2  0
  6  7  1  0
  6  1  1  0
  7 14  1  0
  8  9  2  0
  8  7  1  0
  9 11  1  0
 10  9  1  0
 11 12  2  0
 11 13  1  0
 14 13  1  0
 14 15  2  0
 16 21  2  0
 17 16  1  0
 18 17  2  0
 18 19  1  0
 19 20  2  0
 20 21  1  0
  2 22  1  0
  3 23  1  0
  4 24  1  0
  5 25  1  0
  8 26  1  0
 10 27  1  0
 10 28  1  0
 10 29  1  0
 13 30  1  0
 16 31  1  0
 17 32  1  0
 20 33  1  0
M  ISO  8  22  14  23  14  24  14  25  14  26  14  27   8  28   8  29   8
M  ISO  4  30   9  31  14  32  14  33  14
M  END
>  <minimizedAffinity>  (1) 
-6.35629225

>  <minimizedRMSD>  (1) 
1.47871101

$$$$
