
     RDKit          3D

 31 34  0  0  0  0  0  0  0  0999 V2000
   46.6160   34.6810   42.1260 C   0  0  0  0  0  0  0  0  0  0  0  0
   47.8040   35.3350   41.9450 C   0  0  0  0  0  0  0  0  0  0  0  0
   48.5340   35.2120   40.7680 C   0  0  0  0  0  0  0  0  0  0  0  0
   48.0330   34.3920   39.7360 C   0  0  0  0  0  0  0  0  0  0  0  0
   46.8170   33.7190   39.9130 C   0  0  0  0  0  0  0  0  0  0  0  0
   46.1350   33.8770   41.1020 C   0  0  0  0  0  0  0  0  0  0  0  0
   44.8900   33.2020   41.3130 N   0  0  0  0  0  0  0  0  0  0  0  0
   44.6170   31.9920   41.8390 C   0  0  0  0  0  0  0  0  0  0  0  0
   43.2680   31.8020   41.8240 N   0  0  0  0  0  0  0  0  0  0  0  0
   42.7120   32.9080   41.2810 C   0  0  0  0  0  0  0  0  0  0  0  0
   41.4330   33.3020   41.0070 C   0  0  0  0  0  0  0  0  0  0  0  0
   41.1620   34.4960   40.4460 N   0  0  0  0  0  0  0  0  0  0  0  0
   42.1530   35.3770   40.1220 C   0  0  0  0  0  0  0  0  0  0  0  0
   43.4110   34.9840   40.3950 N   0  0  0  0  0  0  0  0  0  0  0  0
   43.7320   33.8030   40.9530 C   0  0  0  0  0  0  0  0  0  0  0  0
   44.4540   35.9580   44.9120 C   0  0  0  0  0  0  0  0  0  0  0  0
   45.0510   35.9170   43.6460 C   0  0  0  0  0  0  0  0  0  0  0  0
   45.9180   34.8650   43.3940 C   0  0  0  0  0  0  0  0  0  0  0  0
   46.1520   33.9310   44.3650 N   0  0  0  0  0  0  0  0  0  0  0  0
   45.5430   34.0200   45.5840 C   0  0  0  0  0  0  0  0  0  0  0  0
   44.7050   35.0250   45.8450 N   0  0  0  0  0  0  0  0  0  0  0  0
   48.1917   35.9747   42.7515 H   0  0  0  0  0  0  0  0  0  0  0  0
   49.4876   35.7461   40.6438 H   0  0  0  0  0  0  0  0  0  0  0  0
   48.5942   34.2813   38.7965 H   0  0  0  0  0  0  0  0  0  0  0  0
   46.4129   33.0756   39.1176 H   0  0  0  0  0  0  0  0  0  0  0  0
   45.3607   31.2756   42.2181 H   0  0  0  0  0  0  0  0  0  0  0  0
   40.6011   32.6251   41.2514 H   0  0  0  0  0  0  0  0  0  0  0  0
   41.9357   36.3531   39.6637 H   0  0  0  0  0  0  0  0  0  0  0  0
   43.7597   36.7776   45.1491 H   0  0  0  0  0  0  0  0  0  0  0  0
   44.8416   36.6844   42.8862 H   0  0  0  0  0  0  0  0  0  0  0  0
   45.7440   33.2603   46.3537 H   0  0  0  0  0  0  0  0  0  0  0  0
  1 18  1  0
  2  1  2  0
  3  2  1  0
  4  5  1  0
  4  3  2  0
  5  6  2  0
  6  7  1  0
  6  1  1  0
  7  8  1  0
  9  8  2  0
 10  9  1  0
 11 10  2  0
 12 11  1  0
 13 14  1  0
 13 12  2  0
 14 15  2  0
 15 10  1  0
 15  7  1  0
 16 21  2  0
 17 16  1  0
 18 17  2  0
 18 19  1  0
 19 20  2  0
 20 21  1  0
  2 22  1  0
  3 23  1  0
  4 24  1  0
  5 25  1  0
  8 26  1  0
 11 27  1  0
 13 28  1  0
 16 29  1  0
 17 30  1  0
 20 31  1  0
M  ISO  8  22  14  23  14  24  14  25  14  26  14  27  14  28  14  29  14
M  ISO  2  30  14  31  14
M  END
>  <minimizedAffinity>  (1) 
-6.32328558

>  <minimizedRMSD>  (1) 
1.44927943

$$$$
