
     RDKit          3D

 30 32  0  0  0  0  0  0  0  0999 V2000
   46.6430   34.7860   42.0900 C   0  0  0  0  0  0  0  0  0  0  0  0
   47.9250   35.2630   42.0220 C   0  0  0  0  0  0  0  0  0  0  0  0
   48.7100   35.1530   40.8770 C   0  0  0  0  0  0  0  0  0  0  0  0
   48.1680   34.5300   39.7510 C   0  0  0  0  0  0  0  0  0  0  0  0
   46.8570   34.0370   39.8100 C   0  0  0  0  0  0  0  0  0  0  0  0
   46.1190   34.1770   40.9840 C   0  0  0  0  0  0  0  0  0  0  0  0
   44.4500   36.0760   44.8580 C   0  0  0  0  0  0  0  0  0  0  0  0
   45.0840   36.0190   43.6150 C   0  0  0  0  0  0  0  0  0  0  0  0
   45.9270   34.9580   43.3380 C   0  0  0  0  0  0  0  0  0  0  0  0
   46.0980   34.0100   44.3010 N   0  0  0  0  0  0  0  0  0  0  0  0
   45.4680   34.0880   45.5080 C   0  0  0  0  0  0  0  0  0  0  0  0
   44.6560   35.1070   45.7780 N   0  0  0  0  0  0  0  0  0  0  0  0
   44.7570   33.6560   41.0110 C   0  0  0  0  0  0  0  0  0  0  0  0
   43.7060   34.4380   40.5280 C   0  0  0  0  0  0  0  0  0  0  0  0
   42.3700   34.1210   40.4750 C   0  0  0  0  0  0  0  0  0  0  0  0
   42.0490   32.8680   40.9680 C   0  0  0  0  0  0  0  0  0  0  0  0
   43.0390   32.0290   41.4690 C   0  0  0  0  0  0  0  0  0  0  0  0
   44.3620   32.4110   41.4910 C   0  0  0  0  0  0  0  0  0  0  0  0
   48.3525   35.7535   42.9089 H   0  0  0  0  0  0  0  0  0  0  0  0
   49.7362   35.5488   40.8600 H   0  0  0  0  0  0  0  0  0  0  0  0
   48.7614   34.4275   38.8305 H   0  0  0  0  0  0  0  0  0  0  0  0
   46.4128   33.5420   38.9338 H   0  0  0  0  0  0  0  0  0  0  0  0
   43.7781   36.9154   45.0902 H   0  0  0  0  0  0  0  0  0  0  0  0
   44.9153   36.8071   42.8664 H   0  0  0  0  0  0  0  0  0  0  0  0
   45.6320   33.3044   46.2624 H   0  0  0  0  0  0  0  0  0  0  0  0
   43.9815   35.4306   40.1422 H   0  0  0  0  0  0  0  0  0  0  0  0
   41.6135   34.8102   40.0717 H   0  0  0  0  0  0  0  0  0  0  0  0
   41.0014   32.5326   40.9636 H   0  0  0  0  0  0  0  0  0  0  0  0
   42.7589   31.0383   41.8563 H   0  0  0  0  0  0  0  0  0  0  0  0
   45.1181   31.7213   41.8942 H   0  0  0  0  0  0  0  0  0  0  0  0
  1  9  1  0
  2  1  2  0
  3  2  1  0
  4  5  1  0
  4  3  2  0
  5  6  2  0
  6 13  1  0
  6  1  1  0
  7 12  2  0
  8  7  1  0
  9  8  2  0
  9 10  1  0
 10 11  2  0
 11 12  1  0
 13 18  1  0
 14 13  2  0
 15 14  1  0
 15 16  2  0
 16 17  1  0
 17 18  2  0
  2 19  1  0
  3 20  1  0
  4 21  1  0
  5 22  1  0
  7 23  1  0
  8 24  1  0
 11 25  1  0
 14 26  1  0
 15 27  1  0
 16 28  1  0
 17 29  1  0
 18 30  1  0
M  ISO  8  19  14  20  14  21  14  22  14  23  14  24  14  25  14  26  14
M  ISO  4  27  14  28  14  29  14  30  14
M  END
>  <minimizedAffinity>  (1) 
-5.77930737

>  <minimizedRMSD>  (1) 
0.893801332

$$$$
