
     RDKit          3D

 35 37  0  0  0  0  0  0  0  0999 V2000
   46.6750   34.8000   42.0410 C   0  0  0  0  0  0  0  0  0  0  0  0
   47.9790   35.2460   41.9980 C   0  0  0  0  0  0  0  0  0  0  0  0
   48.7580   35.1020   40.8410 C   0  0  0  0  0  0  0  0  0  0  0  0
   48.1940   34.4890   39.7060 C   0  0  0  0  0  0  0  0  0  0  0  0
   46.8870   34.0420   39.7520 C   0  0  0  0  0  0  0  0  0  0  0  0
   46.1590   34.2070   40.9150 C   0  0  0  0  0  0  0  0  0  0  0  0
   44.4420   36.1290   44.7500 C   0  0  0  0  0  0  0  0  0  0  0  0
   45.0930   36.0810   43.5050 C   0  0  0  0  0  0  0  0  0  0  0  0
   45.9390   34.9870   43.2720 C   0  0  0  0  0  0  0  0  0  0  0  0
   46.0750   34.0590   44.2410 N   0  0  0  0  0  0  0  0  0  0  0  0
   45.4330   34.1340   45.4320 C   0  0  0  0  0  0  0  0  0  0  0  0
   44.6190   35.1730   45.6760 N   0  0  0  0  0  0  0  0  0  0  0  0
   44.8160   33.7380   40.9340 N   0  0  0  0  0  0  0  0  0  0  0  0
   43.6880   34.5210   40.4070 C   0  0  0  0  0  0  0  0  0  0  0  0
   42.4910   34.3770   41.3540 C   0  0  0  0  0  0  0  0  0  0  0  0
   41.9980   32.9330   41.3480 C   0  0  0  0  0  0  0  0  0  0  0  0
   43.1290   32.0400   40.8620 C   0  0  0  0  0  0  0  0  0  0  0  0
   44.4320   32.4470   41.4740 C   0  0  0  0  0  0  0  0  0  0  0  0
   48.4161   35.7234   42.8874 H   0  0  0  0  0  0  0  0  0  0  0  0
   49.7967   35.4634   40.8204 H   0  0  0  0  0  0  0  0  0  0  0  0
   48.7893   34.3667   38.7891 H   0  0  0  0  0  0  0  0  0  0  0  0
   46.4319   33.5608   38.8737 H   0  0  0  0  0  0  0  0  0  0  0  0
   43.7703   36.9715   44.9713 H   0  0  0  0  0  0  0  0  0  0  0  0
   44.9456   36.8656   42.7482 H   0  0  0  0  0  0  0  0  0  0  0  0
   45.5775   33.3513   46.1912 H   0  0  0  0  0  0  0  0  0  0  0  0
   43.9762   35.5802   40.3361 H   0  0  0  0  0  0  0  0  0  0  0  0
   43.4158   34.1518   39.4072 H   0  0  0  0  0  0  0  0  0  0  0  0
   42.7966   34.6543   42.3737 H   0  0  0  0  0  0  0  0  0  0  0  0
   41.6797   35.0392   41.0172 H   0  0  0  0  0  0  0  0  0  0  0  0
   41.7026   32.6373   42.3655 H   0  0  0  0  0  0  0  0  0  0  0  0
   41.1272   32.8344   40.6832 H   0  0  0  0  0  0  0  0  0  0  0  0
   42.9103   30.9985   41.1402 H   0  0  0  0  0  0  0  0  0  0  0  0
   43.2086   32.1375   39.7692 H   0  0  0  0  0  0  0  0  0  0  0  0
   45.2033   31.7007   41.2331 H   0  0  0  0  0  0  0  0  0  0  0  0
   44.3283   32.5135   42.5671 H   0  0  0  0  0  0  0  0  0  0  0  0
  1  9  1  0
  2  1  2  0
  3  2  1  0
  4  5  1  0
  4  3  2  0
  5  6  2  0
  6 13  1  0
  6  1  1  0
  7 12  2  0
  8  7  1  0
  9  8  2  0
  9 10  1  0
 10 11  2  0
 11 12  1  0
 13 18  1  0
 14 13  1  0
 14 15  1  0
 16 15  1  0
 17 16  1  0
 17 18  1  0
  2 19  1  0
  3 20  1  0
  4 21  1  0
  5 22  1  0
  7 23  1  0
  8 24  1  0
 11 25  1  0
 14 26  1  0
 14 27  1  0
 15 28  1  0
 15 29  1  0
 16 30  1  0
 16 31  1  0
 17 32  1  0
 17 33  1  0
 18 34  1  0
 18 35  1  0
M  ISO  8  19  14  20  14  21  14  22  14  23  14  24  14  25  14  26  13
M  ISO  8  27  13  28  13  29  13  30  13  31  13  32  13  33  13  34  13
M  ISO  1  35  13
M  END
>  <minimizedAffinity>  (1) 
-5.58595467

>  <minimizedRMSD>  (1) 
0.576444983

$$$$
