
     RDKit          3D

 26 28  0  0  0  0  0  0  0  0999 V2000
   46.6750   34.7920   42.0490 C   0  0  0  0  0  0  0  0  0  0  0  0
   47.9620   35.2890   41.9970 C   0  0  0  0  0  0  0  0  0  0  0  0
   48.7340   35.1650   40.8290 C   0  0  0  0  0  0  0  0  0  0  0  0
   48.1910   34.5320   39.7080 C   0  0  0  0  0  0  0  0  0  0  0  0
   46.8990   34.0360   39.7710 C   0  0  0  0  0  0  0  0  0  0  0  0
   46.1670   34.1760   40.9380 C   0  0  0  0  0  0  0  0  0  0  0  0
   44.4510   36.1200   44.7810 C   0  0  0  0  0  0  0  0  0  0  0  0
   45.1050   36.0500   43.5470 C   0  0  0  0  0  0  0  0  0  0  0  0
   45.9480   34.9630   43.2910 C   0  0  0  0  0  0  0  0  0  0  0  0
   46.0910   34.0290   44.2500 N   0  0  0  0  0  0  0  0  0  0  0  0
   45.4380   34.1270   45.4470 C   0  0  0  0  0  0  0  0  0  0  0  0
   44.6370   35.1560   45.6960 N   0  0  0  0  0  0  0  0  0  0  0  0
   44.7940   33.6340   40.9700 C   0  0  0  0  0  0  0  0  0  0  0  0
   44.4800   32.3590   41.3780 C   0  0  0  0  0  0  0  0  0  0  0  0
   42.6500   32.2990   41.1930 S   0  0  0  0  0  0  0  0  0  0  0  0
   42.6540   34.1130   40.5630 C   0  0  0  0  0  0  0  0  0  0  0  0
   43.7650   34.3730   40.5980 N   0  0  0  0  0  0  0  0  0  0  0  0
   48.3882   35.7878   42.8799 H   0  0  0  0  0  0  0  0  0  0  0  0
   49.7588   35.5636   40.7977 H   0  0  0  0  0  0  0  0  0  0  0  0
   48.7824   34.4287   38.7863 H   0  0  0  0  0  0  0  0  0  0  0  0
   46.4568   33.5334   38.8982 H   0  0  0  0  0  0  0  0  0  0  0  0
   43.7835   36.9659   45.0019 H   0  0  0  0  0  0  0  0  0  0  0  0
   44.9593   36.8356   42.7909 H   0  0  0  0  0  0  0  0  0  0  0  0
   45.5774   33.3470   46.2100 H   0  0  0  0  0  0  0  0  0  0  0  0
   45.1579   31.5673   41.7296 H   0  0  0  0  0  0  0  0  0  0  0  0
   41.8057   34.7392   40.2496 H   0  0  0  0  0  0  0  0  0  0  0  0
  1  9  1  0
  2  1  2  0
  3  2  1  0
  4  5  1  0
  4  3  2  0
  5  6  2  0
  6 13  1  0
  6  1  1  0
  7 12  2  0
  8  7  1  0
  9  8  2  0
  9 10  1  0
 10 11  2  0
 11 12  1  0
 13 14  2  0
 15 14  1  0
 16 17  2  0
 16 15  1  0
 17 13  1  0
  2 18  1  0
  3 19  1  0
  4 20  1  0
  5 21  1  0
  7 22  1  0
  8 23  1  0
 11 24  1  0
 14 25  1  0
 16 26  1  0
M  ISO  8  18  14  19  14  20  14  21  14  22  14  23  14  24  14  25  14
M  ISO  1  26  14
M  END
>  <minimizedAffinity>  (1) 
-5.48059225

>  <minimizedRMSD>  (1) 
0.814833462

$$$$
