
     RDKit          3D

 32 33  0  0  0  0  0  0  0  0999 V2000
   46.6600   34.8140   42.0590 C   0  0  0  0  0  0  0  0  0  0  0  0
   47.9440   35.2760   42.0050 C   0  0  0  0  0  0  0  0  0  0  0  0
   48.7530   35.1560   40.8730 C   0  0  0  0  0  0  0  0  0  0  0  0
   48.2310   34.5400   39.7460 C   0  0  0  0  0  0  0  0  0  0  0  0
   46.9380   34.0680   39.7840 C   0  0  0  0  0  0  0  0  0  0  0  0
   46.1380   34.1960   40.9320 C   0  0  0  0  0  0  0  0  0  0  0  0
   44.4470   36.1140   44.7910 C   0  0  0  0  0  0  0  0  0  0  0  0
   45.0960   36.0790   43.5400 C   0  0  0  0  0  0  0  0  0  0  0  0
   45.9340   35.0020   43.2930 C   0  0  0  0  0  0  0  0  0  0  0  0
   46.0790   34.0640   44.2500 N   0  0  0  0  0  0  0  0  0  0  0  0
   45.4480   34.1110   45.4470 C   0  0  0  0  0  0  0  0  0  0  0  0
   44.6390   35.1290   45.7130 N   0  0  0  0  0  0  0  0  0  0  0  0
   44.7420   33.6780   40.9430 C   0  0  0  0  0  0  0  0  0  0  0  0
   44.3170   32.9450   39.7250 C   0  0  0  0  0  0  0  0  0  0  0  0
   44.4670   32.8150   42.1400 C   0  0  0  0  0  0  0  0  0  0  0  0
   43.8120   34.8970   41.0780 C   0  0  0  0  0  0  0  0  0  0  0  0
   48.3614   35.7666   42.8967 H   0  0  0  0  0  0  0  0  0  0  0  0
   49.7830   35.5422   40.8755 H   0  0  0  0  0  0  0  0  0  0  0  0
   48.8397   34.4301   38.8364 H   0  0  0  0  0  0  0  0  0  0  0  0
   46.5204   33.5778   38.8922 H   0  0  0  0  0  0  0  0  0  0  0  0
   43.7737   36.9512   45.0271 H   0  0  0  0  0  0  0  0  0  0  0  0
   44.9443   36.8715   42.7923 H   0  0  0  0  0  0  0  0  0  0  0  0
   45.6040   33.3151   46.1901 H   0  0  0  0  0  0  0  0  0  0  0  0
   43.7849   32.0273   40.0162 H   0  0  0  0  0  0  0  0  0  0  0  0
   43.6485   33.5826   39.1279 H   0  0  0  0  0  0  0  0  0  0  0  0
   45.2025   32.6816   39.1279 H   0  0  0  0  0  0  0  0  0  0  0  0
   44.6509   33.3922   43.0582 H   0  0  0  0  0  0  0  0  0  0  0  0
   43.4185   32.4829   42.1195 H   0  0  0  0  0  0  0  0  0  0  0  0
   45.1300   31.9375   42.1195 H   0  0  0  0  0  0  0  0  0  0  0  0
   43.6456   35.1151   42.1433 H   0  0  0  0  0  0  0  0  0  0  0  0
   44.2769   35.7683   40.5936 H   0  0  0  0  0  0  0  0  0  0  0  0
   42.8488   34.6788   40.5936 H   0  0  0  0  0  0  0  0  0  0  0  0
  1  9  1  0
  2  1  2  0
  3  2  1  0
  4  5  1  0
  4  3  2  0
  5  6  2  0
  6 13  1  0
  6  1  1  0
  7 12  2  0
  8  7  1  0
  9  8  2  0
  9 10  1  0
 10 11  2  0
 11 12  1  0
 13 16  1  0
 13 15  1  0
 14 13  1  0
  2 17  1  0
  3 18  1  0
  4 19  1  0
  5 20  1  0
  7 21  1  0
  8 22  1  0
 11 23  1  0
 14 24  1  0
 14 25  1  0
 14 26  1  0
 15 27  1  0
 15 28  1  0
 15 29  1  0
 16 30  1  0
 16 31  1  0
 16 32  1  0
M  ISO  8  17  14  18  14  19  14  20  14  21  14  22  14  23  14  24   8
M  ISO  8  25   8  26   8  27   8  28   8  29   8  30   8  31   8  32   8
M  END
>  <minimizedAffinity>  (1) 
-5.44633198

>  <minimizedRMSD>  (1) 
0.530274034

$$$$
