
     RDKit          3D

 27 29  0  0  0  0  0  0  0  0999 V2000
   46.6600   34.7840   42.0490 C   0  0  0  0  0  0  0  0  0  0  0  0
   47.9290   35.2990   41.9700 C   0  0  0  0  0  0  0  0  0  0  0  0
   48.6960   35.1770   40.8090 C   0  0  0  0  0  0  0  0  0  0  0  0
   48.1620   34.5150   39.6950 C   0  0  0  0  0  0  0  0  0  0  0  0
   46.8820   33.9990   39.7820 C   0  0  0  0  0  0  0  0  0  0  0  0
   46.1370   34.1350   40.9550 C   0  0  0  0  0  0  0  0  0  0  0  0
   44.4630   36.0630   44.8230 C   0  0  0  0  0  0  0  0  0  0  0  0
   45.0980   36.0290   43.5660 C   0  0  0  0  0  0  0  0  0  0  0  0
   45.9330   34.9590   43.3030 C   0  0  0  0  0  0  0  0  0  0  0  0
   46.0950   34.0130   44.2560 N   0  0  0  0  0  0  0  0  0  0  0  0
   45.4720   34.0680   45.4600 C   0  0  0  0  0  0  0  0  0  0  0  0
   44.6620   35.0900   45.7330 N   0  0  0  0  0  0  0  0  0  0  0  0
   44.7650   33.5730   41.0300 C   0  0  0  0  0  0  0  0  0  0  0  0
   43.6980   34.5160   40.4700 C   0  0  0  0  0  0  0  0  0  0  0  0
   43.9930   33.2060   39.8400 C   0  0  0  0  0  0  0  0  0  0  0  0
   48.3524   35.8202   42.8413 H   0  0  0  0  0  0  0  0  0  0  0  0
   49.7117   35.5974   40.7693 H   0  0  0  0  0  0  0  0  0  0  0  0
   48.7489   34.4081   38.7708 H   0  0  0  0  0  0  0  0  0  0  0  0
   46.4462   33.4759   38.9180 H   0  0  0  0  0  0  0  0  0  0  0  0
   43.7919   36.9000   45.0660 H   0  0  0  0  0  0  0  0  0  0  0  0
   44.9357   36.8232   42.8224 H   0  0  0  0  0  0  0  0  0  0  0  0
   45.6344   33.2751   46.2049 H   0  0  0  0  0  0  0  0  0  0  0  0
   44.9899   33.0151   41.9509 H   0  0  0  0  0  0  0  0  0  0  0  0
   42.7539   34.6707   41.0129 H   0  0  0  0  0  0  0  0  0  0  0  0
   43.6688   35.5633   40.1349 H   0  0  0  0  0  0  0  0  0  0  0  0
   43.2527   32.3948   39.9020 H   0  0  0  0  0  0  0  0  0  0  0  0
   44.2649   32.8938   38.8209 H   0  0  0  0  0  0  0  0  0  0  0  0
  1  9  1  0
  2  1  2  0
  3  2  1  0
  4  5  1  0
  4  3  2  0
  5  6  2  0
  6 13  1  0
  6  1  1  0
  7 12  2  0
  8  7  1  0
  9  8  2  0
  9 10  1  0
 10 11  2  0
 11 12  1  0
 14 13  1  0
 15 14  1  0
 15 13  1  0
  2 16  1  0
  3 17  1  0
  4 18  1  0
  5 19  1  0
  7 20  1  0
  8 21  1  0
 11 22  1  0
 13 23  1  0
 14 24  1  0
 14 25  1  0
 15 26  1  0
 15 27  1  0
M  ISO  8  16  14  17  14  18  14  19  14  20  14  21  14  22  14  23  13
M  ISO  4  24  13  25  13  26  13  27  13
M  END
>  <minimizedAffinity>  (1) 
-5.30152035

>  <minimizedRMSD>  (1) 
0.371946752

$$$$
