
     RDKit          3D

 23 24  0  0  0  0  0  0  0  0999 V2000
   46.6840   34.7420   42.0060 C   0  0  0  0  0  0  0  0  0  0  0  0
   47.9200   35.3340   41.8910 C   0  0  0  0  0  0  0  0  0  0  0  0
   48.6630   35.2020   40.7060 C   0  0  0  0  0  0  0  0  0  0  0  0
   48.1460   34.4670   39.6370 C   0  0  0  0  0  0  0  0  0  0  0  0
   46.9030   33.8750   39.7600 C   0  0  0  0  0  0  0  0  0  0  0  0
   46.1900   34.0180   40.9370 C   0  0  0  0  0  0  0  0  0  0  0  0
   44.4710   36.0130   44.7710 C   0  0  0  0  0  0  0  0  0  0  0  0
   45.1040   35.9640   43.5220 C   0  0  0  0  0  0  0  0  0  0  0  0
   45.9620   34.9130   43.2610 C   0  0  0  0  0  0  0  0  0  0  0  0
   46.1630   33.9630   44.2230 N   0  0  0  0  0  0  0  0  0  0  0  0
   45.5300   34.0410   45.4300 C   0  0  0  0  0  0  0  0  0  0  0  0
   44.6920   35.0610   45.6920 N   0  0  0  0  0  0  0  0  0  0  0  0
   44.8480   33.3820   41.0770 C   0  0  0  0  0  0  0  0  0  0  0  0
   48.3291   35.9140   42.7314 H   0  0  0  0  0  0  0  0  0  0  0  0
   49.6513   35.6773   40.6202 H   0  0  0  0  0  0  0  0  0  0  0  0
   48.7223   34.3602   38.7062 H   0  0  0  0  0  0  0  0  0  0  0  0
   46.4829   33.2932   38.9264 H   0  0  0  0  0  0  0  0  0  0  0  0
   43.7846   36.8415   45.0000 H   0  0  0  0  0  0  0  0  0  0  0  0
   44.9222   36.7435   42.7674 H   0  0  0  0  0  0  0  0  0  0  0  0
   45.7056   33.2670   46.1916 H   0  0  0  0  0  0  0  0  0  0  0  0
   44.6061   33.2674   42.1439 H   0  0  0  0  0  0  0  0  0  0  0  0
   44.0895   34.0164   40.5952 H   0  0  0  0  0  0  0  0  0  0  0  0
   44.8588   32.3932   40.5952 H   0  0  0  0  0  0  0  0  0  0  0  0
  1  9  1  0
  2  1  2  0
  3  2  1  0
  4  5  1  0
  4  3  2  0
  5  6  2  0
  6 13  1  0
  6  1  1  0
  7 12  2  0
  8  7  1  0
  9  8  2  0
  9 10  1  0
 10 11  2  0
 11 12  1  0
  2 14  1  0
  3 15  1  0
  4 16  1  0
  5 17  1  0
  7 18  1  0
  8 19  1  0
 11 20  1  0
 13 21  1  0
 13 22  1  0
 13 23  1  0
M  ISO  8  14  14  15  14  16  14  17  14  18  14  19  14  20  14  21   8
M  ISO  2  22   8  23   8
M  END
>  <minimizedAffinity>  (1) 
-5.1166935

>  <minimizedRMSD>  (1) 
0.0352803729

$$$$
