
     RDKit          3D

 22 23  0  0  0  0  0  0  0  0999 V2000
   46.6690   34.7510   42.0250 C   0  0  0  0  0  0  0  0  0  0  0  0
   47.9140   35.3110   41.9110 C   0  0  0  0  0  0  0  0  0  0  0  0
   48.6870   35.2070   40.7570 C   0  0  0  0  0  0  0  0  0  0  0  0
   48.1660   34.4960   39.6630 C   0  0  0  0  0  0  0  0  0  0  0  0
   46.8930   33.9170   39.7660 C   0  0  0  0  0  0  0  0  0  0  0  0
   46.1870   34.0620   40.9400 C   0  0  0  0  0  0  0  0  0  0  0  0
   44.4620   36.0460   44.7780 C   0  0  0  0  0  0  0  0  0  0  0  0
   45.0980   35.9920   43.5290 C   0  0  0  0  0  0  0  0  0  0  0  0
   45.9500   34.9220   43.2770 C   0  0  0  0  0  0  0  0  0  0  0  0
   46.1360   33.9790   44.2310 N   0  0  0  0  0  0  0  0  0  0  0  0
   45.4970   34.0660   45.4360 C   0  0  0  0  0  0  0  0  0  0  0  0
   44.6780   35.0790   45.7020 N   0  0  0  0  0  0  0  0  0  0  0  0
   44.8660   33.4570   41.0350 C   0  0  0  0  0  0  0  0  0  0  0  0
   43.8370   34.0320   40.5500 O   0  0  0  0  0  0  0  0  0  0  0  0
   48.3210   35.8671   42.7683 H   0  0  0  0  0  0  0  0  0  0  0  0
   49.6829   35.6711   40.7034 H   0  0  0  0  0  0  0  0  0  0  0  0
   48.7499   34.3947   38.7363 H   0  0  0  0  0  0  0  0  0  0  0  0
   46.4648   33.3557   38.9224 H   0  0  0  0  0  0  0  0  0  0  0  0
   43.7827   36.8798   45.0090 H   0  0  0  0  0  0  0  0  0  0  0  0
   44.9281   36.7719   42.7721 H   0  0  0  0  0  0  0  0  0  0  0  0
   45.6625   33.2878   46.1956 H   0  0  0  0  0  0  0  0  0  0  0  0
   44.7538   32.4839   41.5355 H   0  0  0  0  0  0  0  0  0  0  0  0
  1  9  1  0
  2  1  2  0
  3  2  1  0
  4  5  1  0
  4  3  2  0
  5  6  2  0
  6 13  1  0
  6  1  1  0
  7 12  2  0
  8  7  1  0
  9  8  2  0
  9 10  1  0
 10 11  2  0
 11 12  1  0
 14 13  2  0
  2 15  1  0
  3 16  1  0
  4 17  1  0
  5 18  1  0
  7 19  1  0
  8 20  1  0
 11 21  1  0
 13 22  1  0
M  ISO  8  15  14  16  14  17  14  18  14  19  14  20  14  21  14  22   6
M  END
>  <minimizedAffinity>  (1) 
-5.02528143

>  <minimizedRMSD>  (1) 
0.442160368

$$$$
