
     RDKit          3D

 36 38  0  0  0  0  0  0  0  0999 V2000
   46.5950   34.7340   42.1290 C   0  0  0  0  0  0  0  0  0  0  0  0
   47.9540   34.9750   42.1010 C   0  0  0  0  0  0  0  0  0  0  0  0
   48.7350   34.7840   40.9640 C   0  0  0  0  0  0  0  0  0  0  0  0
   48.1130   34.3280   39.7970 C   0  0  0  0  0  0  0  0  0  0  0  0
   46.7430   34.0760   39.7950 C   0  0  0  0  0  0  0  0  0  0  0  0
   46.0260   34.2860   40.9590 C   0  0  0  0  0  0  0  0  0  0  0  0
   44.4530   36.2040   44.8310 C   0  0  0  0  0  0  0  0  0  0  0  0
   45.1010   36.0930   43.5930 C   0  0  0  0  0  0  0  0  0  0  0  0
   45.8780   34.9650   43.3640 C   0  0  0  0  0  0  0  0  0  0  0  0
   45.9740   34.0350   44.3290 N   0  0  0  0  0  0  0  0  0  0  0  0
   45.3350   34.1680   45.5240 C   0  0  0  0  0  0  0  0  0  0  0  0
   44.5870   35.2360   45.7650 N   0  0  0  0  0  0  0  0  0  0  0  0
   44.5860   34.0270   40.9780 C   0  0  0  0  0  0  0  0  0  0  0  0
   44.1500   32.8880   41.2790 O   0  0  0  0  0  0  0  0  0  0  0  0
   43.6350   34.9790   40.6780 O   0  0  0  0  0  0  0  0  0  0  0  0
   42.2820   34.7970   40.4550 C   0  0  0  0  0  0  0  0  0  0  0  0
   41.3870   35.5170   41.4250 C   0  0  0  0  0  0  0  0  0  0  0  0
   40.1770   35.9980   40.6130 C   0  0  0  0  0  0  0  0  0  0  0  0
   40.2570   35.0940   39.3750 C   0  0  0  0  0  0  0  0  0  0  0  0
   41.7670   35.2160   39.1250 C   0  0  0  0  0  0  0  0  0  0  0  0
   48.4423   35.3344   43.0188 H   0  0  0  0  0  0  0  0  0  0  0  0
   49.8159   34.9870   40.9831 H   0  0  0  0  0  0  0  0  0  0  0  0
   48.7042   34.1688   38.8832 H   0  0  0  0  0  0  0  0  0  0  0  0
   46.2408   33.7167   38.8847 H   0  0  0  0  0  0  0  0  0  0  0  0
   43.8306   37.0856   45.0441 H   0  0  0  0  0  0  0  0  0  0  0  0
   44.9973   36.8752   42.8266 H   0  0  0  0  0  0  0  0  0  0  0  0
   45.4396   33.3872   46.2917 H   0  0  0  0  0  0  0  0  0  0  0  0
   42.2374   33.7032   40.5633 H   0  0  0  0  0  0  0  0  0  0  0  0
   41.0631   34.8342   42.2243 H   0  0  0  0  0  0  0  0  0  0  0  0
   41.9090   36.3584   41.9042 H   0  0  0  0  0  0  0  0  0  0  0  0
   39.2371   35.8430   41.1631 H   0  0  0  0  0  0  0  0  0  0  0  0
   40.1912   37.0737   40.3833 H   0  0  0  0  0  0  0  0  0  0  0  0
   39.9521   34.0598   39.5929 H   0  0  0  0  0  0  0  0  0  0  0  0
   39.6029   35.3658   38.5334 H   0  0  0  0  0  0  0  0  0  0  0  0
   42.1045   34.5406   38.3250 H   0  0  0  0  0  0  0  0  0  0  0  0
   42.1029   36.2081   38.7890 H   0  0  0  0  0  0  0  0  0  0  0  0
  1  9  1  0
  2  1  2  0
  3  2  1  0
  4  3  2  0
  5  4  1  0
  5  6  2  0
  6 13  1  0
  6  1  1  0
  7 12  2  0
  8  7  1  0
  9  8  2  0
  9 10  1  0
 10 11  2  0
 11 12  1  0
 13 14  2  0
 15 13  1  0
 16 15  1  0
 16 17  1  0
 18 17  1  0
 19 18  1  0
 20 19  1  0
 20 16  1  0
  2 21  1  0
  3 22  1  0
  4 23  1  0
  5 24  1  0
  7 25  1  0
  8 26  1  0
 11 27  1  0
 16 28  1  0
 17 29  1  0
 17 30  1  0
 18 31  1  0
 18 32  1  0
 19 33  1  0
 19 34  1  0
 20 35  1  0
 20 36  1  0
M  ISO  8  21  14  22  14  23  14  24  14  25  14  26  14  27  14  28  13
M  ISO  8  29  13  30  13  31  13  32  13  33  13  34  13  35  13  36  13
M  END
>  <minimizedAffinity>  (1) 
-6.29489326

>  <minimizedRMSD>  (1) 
0.947107732

$$$$
