
     RDKit          3D

 31 33  0  0  0  0  0  0  0  0999 V2000
   46.7490   34.8060   41.9670 C   0  0  0  0  0  0  0  0  0  0  0  0
   48.0180   35.3530   41.9160 C   0  0  0  0  0  0  0  0  0  0  0  0
   48.8310   35.2570   40.7910 C   0  0  0  0  0  0  0  0  0  0  0  0
   48.3340   34.5700   39.6550 C   0  0  0  0  0  0  0  0  0  0  0  0
   47.0610   34.0220   39.7070 C   0  0  0  0  0  0  0  0  0  0  0  0
   46.3080   34.1520   40.8490 C   0  0  0  0  0  0  0  0  0  0  0  0
   44.4310   36.0700   44.6200 C   0  0  0  0  0  0  0  0  0  0  0  0
   45.1010   36.0110   43.4030 C   0  0  0  0  0  0  0  0  0  0  0  0
   45.9980   34.9680   43.1880 C   0  0  0  0  0  0  0  0  0  0  0  0
   46.1790   34.0590   44.1670 N   0  0  0  0  0  0  0  0  0  0  0  0
   45.5030   34.1440   45.3570 C   0  0  0  0  0  0  0  0  0  0  0  0
   44.6400   35.1450   45.5690 N   0  0  0  0  0  0  0  0  0  0  0  0
   44.9790   33.5800   40.9090 C   0  0  0  0  0  0  0  0  0  0  0  0
   44.6900   32.6930   41.7660 O   0  0  0  0  0  0  0  0  0  0  0  0
   43.9240   33.9380   40.0570 O   0  0  0  0  0  0  0  0  0  0  0  0
   42.6580   34.0830   40.6370 C   0  0  0  0  0  0  0  0  0  0  0  0
   42.3130   35.3130   41.2070 C   0  0  0  0  0  0  0  0  0  0  0  0
   41.0710   35.4700   41.7820 C   0  0  0  0  0  0  0  0  0  0  0  0
   40.1780   34.4410   41.7990 N   0  0  0  0  0  0  0  0  0  0  0  0
   40.5320   33.2670   41.2450 C   0  0  0  0  0  0  0  0  0  0  0  0
   41.7450   33.0760   40.6710 N   0  0  0  0  0  0  0  0  0  0  0  0
   48.3998   35.8851   42.7998 H   0  0  0  0  0  0  0  0  0  0  0  0
   49.8361   35.7038   40.7833 H   0  0  0  0  0  0  0  0  0  0  0  0
   48.9478   34.4731   38.7473 H   0  0  0  0  0  0  0  0  0  0  0  0
   46.6555   33.4850   38.8368 H   0  0  0  0  0  0  0  0  0  0  0  0
   43.7190   36.8873   44.8074 H   0  0  0  0  0  0  0  0  0  0  0  0
   44.9263   36.7713   42.6275 H   0  0  0  0  0  0  0  0  0  0  0  0
   45.6702   33.3883   46.1387 H   0  0  0  0  0  0  0  0  0  0  0  0
   43.0282   36.1487   41.1962 H   0  0  0  0  0  0  0  0  0  0  0  0
   40.7975   36.4358   42.2319 H   0  0  0  0  0  0  0  0  0  0  0  0
   39.8131   32.4345   41.2584 H   0  0  0  0  0  0  0  0  0  0  0  0
  1  9  1  0
  2  1  2  0
  3  2  1  0
  4  5  1  0
  4  3  2  0
  5  6  2  0
  6 13  1  0
  6  1  1  0
  7 12  2  0
  8  7  1  0
  9  8  2  0
  9 10  1  0
 10 11  2  0
 11 12  1  0
 13 14  2  0
 15 16  1  0
 15 13  1  0
 16 21  1  0
 16 17  2  0
 17 18  1  0
 18 19  2  0
 20 19  1  0
 21 20  2  0
  2 22  1  0
  3 23  1  0
  4 24  1  0
  5 25  1  0
  7 26  1  0
  8 27  1  0
 11 28  1  0
 17 29  1  0
 18 30  1  0
 20 31  1  0
M  ISO  8  22  14  23  14  24  14  25  14  26  14  27  14  28  14  29  14
M  ISO  2  30  14  31  14
M  END
>  <minimizedAffinity>  (1) 
-6.12014008

>  <minimizedRMSD>  (1) 
0.893495381

$$$$
