
     RDKit          3D

 30 32  0  0  0  0  0  0  0  0999 V2000
   46.7760   34.8150   42.0010 C   0  0  0  0  0  0  0  0  0  0  0  0
   48.0140   35.3990   41.9320 C   0  0  0  0  0  0  0  0  0  0  0  0
   48.8310   35.3230   40.8010 C   0  0  0  0  0  0  0  0  0  0  0  0
   48.3610   34.6150   39.6850 C   0  0  0  0  0  0  0  0  0  0  0  0
   47.0990   34.0120   39.7370 C   0  0  0  0  0  0  0  0  0  0  0  0
   46.3490   34.1290   40.8880 C   0  0  0  0  0  0  0  0  0  0  0  0
   44.4300   36.0010   44.6640 C   0  0  0  0  0  0  0  0  0  0  0  0
   45.1000   35.9790   43.4370 C   0  0  0  0  0  0  0  0  0  0  0  0
   46.0120   34.9570   43.2270 C   0  0  0  0  0  0  0  0  0  0  0  0
   46.2280   34.0270   44.1930 N   0  0  0  0  0  0  0  0  0  0  0  0
   45.5520   34.0910   45.3710 C   0  0  0  0  0  0  0  0  0  0  0  0
   44.6650   35.0600   45.6090 N   0  0  0  0  0  0  0  0  0  0  0  0
   45.0420   33.5050   40.9470 C   0  0  0  0  0  0  0  0  0  0  0  0
   44.8170   32.5400   41.7100 O   0  0  0  0  0  0  0  0  0  0  0  0
   43.9500   33.9080   40.1840 O   0  0  0  0  0  0  0  0  0  0  0  0
   42.7170   34.0600   40.8400 C   0  0  0  0  0  0  0  0  0  0  0  0
   42.4260   35.4100   41.0630 C   0  0  0  0  0  0  0  0  0  0  0  0
   41.1970   35.4760   41.7130 C   0  0  0  0  0  0  0  0  0  0  0  0
   40.8110   34.1820   41.8480 N   0  0  0  0  0  0  0  0  0  0  0  0
   41.7100   33.3550   41.3320 N   0  0  0  0  0  0  0  0  0  0  0  0
   48.3816   35.9535   42.8080 H   0  0  0  0  0  0  0  0  0  0  0  0
   49.8188   35.8067   40.7862 H   0  0  0  0  0  0  0  0  0  0  0  0
   48.9781   34.5345   38.7780 H   0  0  0  0  0  0  0  0  0  0  0  0
   46.7113   33.4531   38.8725 H   0  0  0  0  0  0  0  0  0  0  0  0
   43.6985   36.7974   44.8654 H   0  0  0  0  0  0  0  0  0  0  0  0
   44.9106   36.7429   42.6685 H   0  0  0  0  0  0  0  0  0  0  0  0
   45.7395   33.3298   46.1427 H   0  0  0  0  0  0  0  0  0  0  0  0
   43.0552   36.2655   40.7762 H   0  0  0  0  0  0  0  0  0  0  0  0
   40.6586   36.3764   42.0436 H   0  0  0  0  0  0  0  0  0  0  0  0
   39.9327   33.8810   42.2939 H   0  0  0  0  0  0  0  0  0  0  0  0
  1  9  1  0
  2  1  2  0
  3  2  1  0
  4  5  1  0
  4  3  2  0
  5  6  2  0
  6 13  1  0
  6  1  1  0
  7 12  2  0
  8  7  1  0
  9  8  2  0
  9 10  1  0
 10 11  2  0
 11 12  1  0
 13 14  2  0
 15 16  1  0
 15 13  1  0
 16 17  1  0
 16 20  2  0
 17 18  2  0
 18 19  1  0
 20 19  1  0
  2 21  1  0
  3 22  1  0
  4 23  1  0
  5 24  1  0
  7 25  1  0
  8 26  1  0
 11 27  1  0
 17 28  1  0
 18 29  1  0
 19 30  1  0
M  ISO  8  21  14  22  14  23  14  24  14  25  14  26  14  27  14  28  14
M  ISO  2  29  14  30   9
M  END
>  <minimizedAffinity>  (1) 
-6.02819347

>  <minimizedRMSD>  (1) 
0.766420066

$$$$
