
     RDKit          3D

 26 27  0  0  0  0  0  0  0  0999 V2000
   46.5920   34.7860   42.0890 C   0  0  0  0  0  0  0  0  0  0  0  0
   47.9140   35.1620   42.0350 C   0  0  0  0  0  0  0  0  0  0  0  0
   48.6880   34.9970   40.8870 C   0  0  0  0  0  0  0  0  0  0  0  0
   48.0960   34.4290   39.7560 C   0  0  0  0  0  0  0  0  0  0  0  0
   46.7600   34.0450   39.7970 C   0  0  0  0  0  0  0  0  0  0  0  0
   46.0510   34.2370   40.9690 C   0  0  0  0  0  0  0  0  0  0  0  0
   44.4750   36.2210   44.8420 C   0  0  0  0  0  0  0  0  0  0  0  0
   45.1100   36.1260   43.6090 C   0  0  0  0  0  0  0  0  0  0  0  0
   45.8820   35.0030   43.3330 C   0  0  0  0  0  0  0  0  0  0  0  0
   45.9850   34.0410   44.2870 N   0  0  0  0  0  0  0  0  0  0  0  0
   45.3510   34.1590   45.4870 C   0  0  0  0  0  0  0  0  0  0  0  0
   44.6060   35.2410   45.7560 N   0  0  0  0  0  0  0  0  0  0  0  0
   44.6400   33.8370   41.0310 C   0  0  0  0  0  0  0  0  0  0  0  0
   44.3200   32.7170   41.4810 O   0  0  0  0  0  0  0  0  0  0  0  0
   43.5920   34.6400   40.6140 O   0  0  0  0  0  0  0  0  0  0  0  0
   42.3530   34.5750   41.2380 C   0  0  0  0  0  0  0  0  0  0  0  0
   41.4400   33.8030   40.7900 O   0  0  0  0  0  0  0  0  0  0  0  0
   42.1140   35.3690   42.3670 O   0  0  0  0  0  0  0  0  0  0  0  0
   48.3764   35.6081   42.9279 H   0  0  0  0  0  0  0  0  0  0  0  0
   49.7431   35.3077   40.8721 H   0  0  0  0  0  0  0  0  0  0  0  0
   48.6840   34.2862   38.8374 H   0  0  0  0  0  0  0  0  0  0  0  0
   46.2771   33.5978   38.9156 H   0  0  0  0  0  0  0  0  0  0  0  0
   43.8606   37.1038   45.0728 H   0  0  0  0  0  0  0  0  0  0  0  0
   45.0033   36.9272   42.8629 H   0  0  0  0  0  0  0  0  0  0  0  0
   45.4507   33.3626   46.2392 H   0  0  0  0  0  0  0  0  0  0  0  0
   41.2351   35.3320   42.8211 H   0  0  0  0  0  0  0  0  0  0  0  0
  1  9  1  0
  2  1  2  0
  3  2  1  0
  4  5  1  0
  4  3  2  0
  5  6  2  0
  6 13  1  0
  6  1  1  0
  7 12  2  0
  8  7  1  0
  9  8  2  0
  9 10  1  0
 10 11  2  0
 11 12  1  0
 13 14  2  0
 15 13  1  0
 15 16  1  0
 16 18  1  0
 17 16  2  0
  2 19  1  0
  3 20  1  0
  4 21  1  0
  5 22  1  0
  7 23  1  0
  8 24  1  0
 11 25  1  0
 18 26  1  0
M  ISO  8  19  14  20  14  21  14  22  14  23  14  24  14  25  14  26   3
M  END
>  <minimizedAffinity>  (1) 
-5.5013876

>  <minimizedRMSD>  (1) 
0.675348639

$$$$
