
     RDKit          3D

 42 45  0  0  1  0  0  0  0  0999 V2000
   44.9580   33.6610   40.8260 C   0  0  0  0  0  0  0  0  0  0  0  0
   44.6470   32.7170   41.6370 O   0  0  0  0  0  0  0  0  0  0  0  0
   46.7400   34.7990   41.9170 C   0  0  0  0  0  0  0  0  0  0  0  0
   48.0230   35.3000   41.8730 C   0  0  0  0  0  0  0  0  0  0  0  0
   48.8380   35.1790   40.7450 C   0  0  0  0  0  0  0  0  0  0  0  0
   48.3360   34.5270   39.6210 C   0  0  0  0  0  0  0  0  0  0  0  0
   47.0310   34.0110   39.6470 C   0  0  0  0  0  0  0  0  0  0  0  0
   46.3050   34.1800   40.8030 C   0  0  0  0  0  0  0  0  0  0  0  0
   44.3930   36.0890   44.5340 C   0  0  0  0  0  0  0  0  0  0  0  0
   45.0750   36.0300   43.2960 C   0  0  0  0  0  0  0  0  0  0  0  0
   45.9750   34.9710   43.1420 C   0  0  0  0  0  0  0  0  0  0  0  0
   46.1660   34.0580   44.1430 N   0  0  0  0  0  0  0  0  0  0  0  0
   45.4640   34.1870   45.3120 C   0  0  0  0  0  0  0  0  0  0  0  0
   44.5910   35.1930   45.4970 N   0  0  0  0  0  0  0  0  0  0  0  0
   43.8430   33.8450   40.2410 O   0  0  0  0  0  0  0  0  0  0  0  0
   42.1390   34.3250   41.9370 N   0  0  0  0  0  0  0  0  0  0  0  0
   41.4500   35.6090   41.9260 C   0  0  0  0  0  0  0  0  0  0  0  0
   40.7750   35.5360   40.5490 C   0  0  0  0  0  0  0  0  0  0  0  0
   42.0220   35.1890   39.7590 C   0  0  0  0  0  0  0  0  0  0  0  0
   42.5300   34.0110   40.6370 C   0  0  1  0  0  0  0  0  0  0  0  0
   41.6100   32.9750   39.9380 C   0  0  0  0  0  0  0  0  0  0  0  0
   40.9670   32.0130   40.7420 C   0  0  0  0  0  0  0  0  0  0  0  0
   40.1830   31.1820   39.9760 C   0  0  0  0  0  0  0  0  0  0  0  0
   40.3550   31.6410   38.7250 N   0  0  0  0  0  0  0  0  0  0  0  0
   41.1750   32.6710   38.7080 N   0  0  0  0  0  0  0  0  0  0  0  0
   48.4205   35.8149   42.7601 H   0  0  0  0  0  0  0  0  0  0  0  0
   49.8579   35.5912   40.7443 H   0  0  0  0  0  0  0  0  0  0  0  0
   48.9575   34.4174   38.7201 H   0  0  0  0  0  0  0  0  0  0  0  0
   46.6051   33.4913   38.7761 H   0  0  0  0  0  0  0  0  0  0  0  0
   43.6743   36.9038   44.7062 H   0  0  0  0  0  0  0  0  0  0  0  0
   44.9073   36.7727   42.5021 H   0  0  0  0  0  0  0  0  0  0  0  0
   45.6175   33.4524   46.1163 H   0  0  0  0  0  0  0  0  0  0  0  0
   42.9697   34.3836   42.5432 H   0  0  0  0  0  0  0  0  0  0  0  0
   40.7127   35.6839   42.7389 H   0  0  0  0  0  0  0  0  0  0  0  0
   42.0982   36.4845   42.0790 H   0  0  0  0  0  0  0  0  0  0  0  0
   40.0088   34.7485   40.4957 H   0  0  0  0  0  0  0  0  0  0  0  0
   40.2146   36.4252   40.2244 H   0  0  0  0  0  0  0  0  0  0  0  0
   41.7872   34.8699   38.7328 H   0  0  0  0  0  0  0  0  0  0  0  0
   42.7349   36.0125   39.6053 H   0  0  0  0  0  0  0  0  0  0  0  0
   41.0770   31.9369   41.8338 H   0  0  0  0  0  0  0  0  0  0  0  0
   39.5606   30.3386   40.3097 H   0  0  0  0  0  0  0  0  0  0  0  0
   39.9049   31.2401   37.8898 H   0  0  0  0  0  0  0  0  0  0  0  0
  1  2  2  0
  3 11  1  0
  4  3  2  0
  5  4  1  0
  6  7  1  0
  6  5  2  0
  7  8  2  0
  8  1  1  0
  8  3  1  0
  9 14  2  0
 10  9  1  0
 11 10  2  0
 11 12  1  0
 12 13  2  0
 13 14  1  0
 15  1  1  0
 17 16  1  0
 18 17  1  0
 19 18  1  0
 19 20  1  0
 20 15  1  1
 20 16  1  0
 21 20  1  0
 21 22  1  0
 23 22  2  0
 24 23  1  0
 25 24  1  0
 25 21  2  0
  4 26  1  0
  5 27  1  0
  6 28  1  0
  7 29  1  0
  9 30  1  0
 10 31  1  0
 13 32  1  0
 16 33  1  0
 17 34  1  0
 17 35  1  0
 18 36  1  0
 18 37  1  0
 19 38  1  0
 19 39  1  0
 22 40  1  0
 23 41  1  0
 24 42  1  0
M  ISO  8  26  14  27  14  28  14  29  14  30  14  31  14  32  14  33   5
M  ISO  8  34  13  35  13  36  13  37  13  38  13  39  13  40  14  41  14
M  ISO  1  42   9
M  END
>  <minimizedAffinity>  (1) 
-6.40222168

>  <minimizedRMSD>  (1) 
2.23891234

$$$$
