
     RDKit          3D

 38 40  0  0  1  0  0  0  0  0999 V2000
   46.6220   34.7440   42.1260 C   0  0  0  0  0  0  0  0  0  0  0  0
   47.9600   35.0580   42.0870 C   0  0  0  0  0  0  0  0  0  0  0  0
   48.7350   34.9010   40.9430 C   0  0  0  0  0  0  0  0  0  0  0  0
   48.1190   34.4020   39.7870 C   0  0  0  0  0  0  0  0  0  0  0  0
   46.7550   34.0760   39.8090 C   0  0  0  0  0  0  0  0  0  0  0  0
   46.0490   34.2550   40.9690 C   0  0  0  0  0  0  0  0  0  0  0  0
   44.4640   36.1450   44.8710 C   0  0  0  0  0  0  0  0  0  0  0  0
   45.1130   36.0550   43.6480 C   0  0  0  0  0  0  0  0  0  0  0  0
   45.9130   34.9550   43.3740 C   0  0  0  0  0  0  0  0  0  0  0  0
   46.0280   34.0050   44.3200 N   0  0  0  0  0  0  0  0  0  0  0  0
   45.3750   34.1270   45.5120 C   0  0  0  0  0  0  0  0  0  0  0  0
   44.6100   35.1800   45.7750 N   0  0  0  0  0  0  0  0  0  0  0  0
   44.6160   33.9020   41.0300 C   0  0  0  0  0  0  0  0  0  0  0  0
   44.2740   32.7210   41.1330 O   0  0  0  0  0  0  0  0  0  0  0  0
   43.6400   34.9350   40.9820 O   0  0  0  0  0  0  0  0  0  0  0  0
   41.5830   35.4480   41.8280 N   0  0  0  0  0  0  0  0  0  0  0  0
   40.5850   36.1730   41.0600 C   0  0  0  0  0  0  0  0  0  0  0  0
   40.2520   35.1810   39.9580 C   0  0  0  0  0  0  0  0  0  0  0  0
   41.6910   34.8490   39.5220 C   0  0  0  0  0  0  0  0  0  0  0  0
   42.2980   34.5420   40.8260 C   0  0  1  0  0  0  0  0  0  0  0  0
   41.8330   33.2350   41.3180 C   0  0  0  0  0  0  0  0  0  0  0  0
   48.4369   35.4493   42.9977 H   0  0  0  0  0  0  0  0  0  0  0  0
   49.8037   35.1616   40.9452 H   0  0  0  0  0  0  0  0  0  0  0  0
   48.7037   34.2665   38.8652 H   0  0  0  0  0  0  0  0  0  0  0  0
   46.2600   33.6828   38.9088 H   0  0  0  0  0  0  0  0  0  0  0  0
   43.8284   37.0148   45.0933 H   0  0  0  0  0  0  0  0  0  0  0  0
   44.9939   36.8519   42.8992 H   0  0  0  0  0  0  0  0  0  0  0  0
   45.4845   33.3374   46.2700 H   0  0  0  0  0  0  0  0  0  0  0  0
   42.2503   36.1035   42.2592 H   0  0  0  0  0  0  0  0  0  0  0  0
   39.7000   36.4032   41.6713 H   0  0  0  0  0  0  0  0  0  0  0  0
   40.9335   37.1479   40.6885 H   0  0  0  0  0  0  0  0  0  0  0  0
   39.7188   34.2980   40.3401 H   0  0  0  0  0  0  0  0  0  0  0  0
   39.5815   35.5474   39.1667 H   0  0  0  0  0  0  0  0  0  0  0  0
   41.7212   33.9824   38.8452 H   0  0  0  0  0  0  0  0  0  0  0  0
   42.1955   35.6460   38.9561 H   0  0  0  0  0  0  0  0  0  0  0  0
   41.8334   33.2360   42.4180 H   0  0  0  0  0  0  0  0  0  0  0  0
   40.8129   33.0472   40.9518 H   0  0  0  0  0  0  0  0  0  0  0  0
   42.5053   32.4451   40.9518 H   0  0  0  0  0  0  0  0  0  0  0  0
  1  9  1  0
  2  1  2  0
  3  2  1  0
  4  5  1  0
  4  3  2  0
  5  6  2  0
  6 13  1  0
  6  1  1  0
  7 12  2  0
  8  7  1  0
  9  8  2  0
  9 10  1  0
 10 11  2  0
 11 12  1  0
 13 14  2  0
 15 13  1  0
 17 16  1  0
 18 17  1  0
 19 18  1  0
 19 20  1  0
 20 15  1  6
 20 21  1  0
 20 16  1  0
  2 22  1  0
  3 23  1  0
  4 24  1  0
  5 25  1  0
  7 26  1  0
  8 27  1  0
 11 28  1  0
 16 29  1  0
 17 30  1  0
 17 31  1  0
 18 32  1  0
 18 33  1  0
 19 34  1  0
 19 35  1  0
 21 36  1  0
 21 37  1  0
 21 38  1  0
M  ISO  8  22  14  23  14  24  14  25  14  26  14  27  14  28  14  29   5
M  ISO  8  30  13  31  13  32  13  33  13  34  13  35  13  36   8  37   8
M  ISO  1  38   8
M  END
>  <minimizedAffinity>  (1) 
-6.34521627

>  <minimizedRMSD>  (1) 
0.714874208

$$$$
