
     RDKit          3D

 36 38  0  0  1  0  0  0  0  0999 V2000
   46.7720   34.8300   41.9070 C   0  0  0  0  0  0  0  0  0  0  0  0
   48.0660   35.3030   41.8850 C   0  0  0  0  0  0  0  0  0  0  0  0
   48.8810   35.1880   40.7590 C   0  0  0  0  0  0  0  0  0  0  0  0
   48.3640   34.5710   39.6170 C   0  0  0  0  0  0  0  0  0  0  0  0
   47.0520   34.0850   39.6240 C   0  0  0  0  0  0  0  0  0  0  0  0
   46.2990   34.2270   40.7610 C   0  0  0  0  0  0  0  0  0  0  0  0
   44.5100   36.1780   44.5930 C   0  0  0  0  0  0  0  0  0  0  0  0
   45.2040   36.1080   43.3940 C   0  0  0  0  0  0  0  0  0  0  0  0
   46.0030   35.0110   43.1280 C   0  0  0  0  0  0  0  0  0  0  0  0
   46.0790   34.0390   44.0530 N   0  0  0  0  0  0  0  0  0  0  0  0
   45.3840   34.1390   45.2230 C   0  0  0  0  0  0  0  0  0  0  0  0
   44.6150   35.1930   45.4810 N   0  0  0  0  0  0  0  0  0  0  0  0
   44.9120   33.7110   40.8020 C   0  0  0  0  0  0  0  0  0  0  0  0
   44.7000   32.5440   41.1440 O   0  0  0  0  0  0  0  0  0  0  0  0
   43.8360   34.5840   40.4510 O   0  0  0  0  0  0  0  0  0  0  0  0
   42.1940   35.7620   41.5590 N   0  0  0  0  0  0  0  0  0  0  0  0
   40.8840   35.9630   40.9580 C   0  0  0  0  0  0  0  0  0  0  0  0
   40.3050   34.5600   40.9840 C   0  0  0  0  0  0  0  0  0  0  0  0
   41.4900   33.8060   40.3610 C   0  0  0  0  0  0  0  0  0  0  0  0
   42.6120   34.3550   41.1280 C   0  0  1  0  0  0  0  0  0  0  0  0
   42.7220   33.8440   42.4130 O   0  0  0  0  0  0  0  0  0  0  0  0
   48.4699   35.7877   42.7860 H   0  0  0  0  0  0  0  0  0  0  0  0
   49.9105   35.5754   40.7698 H   0  0  0  0  0  0  0  0  0  0  0  0
   48.9862   34.4677   38.7157 H   0  0  0  0  0  0  0  0  0  0  0  0
   46.6316   33.5971   38.7322 H   0  0  0  0  0  0  0  0  0  0  0  0
   43.8728   37.0481   44.8096 H   0  0  0  0  0  0  0  0  0  0  0  0
   45.1192   36.9213   42.6582 H   0  0  0  0  0  0  0  0  0  0  0  0
   45.4612   33.3325   45.9670 H   0  0  0  0  0  0  0  0  0  0  0  0
   42.8642   36.4621   41.2102 H   0  0  0  0  0  0  0  0  0  0  0  0
   40.9705   36.3405   39.9284 H   0  0  0  0  0  0  0  0  0  0  0  0
   40.2658   36.7072   41.4815 H   0  0  0  0  0  0  0  0  0  0  0  0
   40.0909   34.2200   42.0080 H   0  0  0  0  0  0  0  0  0  0  0  0
   39.3396   34.4346   40.4718 H   0  0  0  0  0  0  0  0  0  0  0  0
   41.3968   32.7194   40.5047 H   0  0  0  0  0  0  0  0  0  0  0  0
   41.5830   33.9319   39.2722 H   0  0  0  0  0  0  0  0  0  0  0  0
   42.5662   34.5677   43.0704 H   0  0  0  0  0  0  0  0  0  0  0  0
  1  9  1  0
  2  1  2  0
  3  2  1  0
  4  5  1  0
  4  3  2  0
  5  6  2  0
  6 13  1  0
  6  1  1  0
  7 12  2  0
  8  7  1  0
  9  8  2  0
  9 10  1  0
 10 11  2  0
 11 12  1  0
 13 14  2  0
 15 13  1  0
 17 18  1  0
 17 16  1  0
 19 18  1  0
 19 20  1  0
 20 15  1  6
 20 16  1  0
 20 21  1  0
  2 22  1  0
  3 23  1  0
  4 24  1  0
  5 25  1  0
  7 26  1  0
  8 27  1  0
 11 28  1  0
 16 29  1  0
 17 30  1  0
 17 31  1  0
 18 32  1  0
 18 33  1  0
 19 34  1  0
 19 35  1  0
 21 36  1  0
M  ISO  8  22  14  23  14  24  14  25  14  26  14  27  14  28  14  29   5
M  ISO  7  30  13  31  13  32  13  33  13  34  13  35  13  36   3
M  END
>  <minimizedAffinity>  (1) 
-6.14247274

>  <minimizedRMSD>  (1) 
0.235436633

$$$$
