
     RDKit          3D

 37 39  0  0  1  0  0  0  0  0999 V2000
   46.8510   34.9010   41.9780 C   0  0  0  0  0  0  0  0  0  0  0  0
   48.1320   35.4000   41.9980 C   0  0  0  0  0  0  0  0  0  0  0  0
   48.9810   35.3250   40.8950 C   0  0  0  0  0  0  0  0  0  0  0  0
   48.5080   34.7210   39.7340 C   0  0  0  0  0  0  0  0  0  0  0  0
   47.2040   34.2040   39.6910 C   0  0  0  0  0  0  0  0  0  0  0  0
   46.4220   34.3100   40.8090 C   0  0  0  0  0  0  0  0  0  0  0  0
   44.4910   36.1360   44.6330 C   0  0  0  0  0  0  0  0  0  0  0  0
   45.2140   36.1120   43.4470 C   0  0  0  0  0  0  0  0  0  0  0  0
   46.0460   35.0370   43.1840 C   0  0  0  0  0  0  0  0  0  0  0  0
   46.1260   34.0470   44.0940 N   0  0  0  0  0  0  0  0  0  0  0  0
   45.4000   34.1070   45.2470 C   0  0  0  0  0  0  0  0  0  0  0  0
   44.6000   35.1340   45.5060 N   0  0  0  0  0  0  0  0  0  0  0  0
   45.0430   33.7650   40.8030 C   0  0  0  0  0  0  0  0  0  0  0  0
   44.8550   32.5770   41.0740 O   0  0  0  0  0  0  0  0  0  0  0  0
   43.9530   34.6310   40.4910 O   0  0  0  0  0  0  0  0  0  0  0  0
   42.2460   35.6380   41.6680 N   0  0  0  0  0  0  0  0  0  0  0  0
   40.9490   35.8860   41.0670 C   0  0  0  0  0  0  0  0  0  0  0  0
   40.4060   34.4790   40.8920 C   0  0  0  0  0  0  0  0  0  0  0  0
   41.6300   33.8300   40.2250 C   0  0  0  0  0  0  0  0  0  0  0  0
   42.7130   34.3040   41.0940 C   0  0  1  0  0  0  0  0  0  0  0  0
   42.8130   33.5740   42.3370 N   0  0  0  0  0  0  0  0  0  0  0  0
   48.5006   35.8761   42.9186 H   0  0  0  0  0  0  0  0  0  0  0  0
   50.0012   35.7338   40.9412 H   0  0  0  0  0  0  0  0  0  0  0  0
   49.1570   34.6487   38.8488 H   0  0  0  0  0  0  0  0  0  0  0  0
   46.8191   33.7243   38.7790 H   0  0  0  0  0  0  0  0  0  0  0  0
   43.8263   36.9845   44.8527 H   0  0  0  0  0  0  0  0  0  0  0  0
   45.1265   36.9375   42.7252 H   0  0  0  0  0  0  0  0  0  0  0  0
   45.4790   33.2879   45.9769 H   0  0  0  0  0  0  0  0  0  0  0  0
   42.9071   36.3879   41.4197 H   0  0  0  0  0  0  0  0  0  0  0  0
   40.3075   36.4817   41.7331 H   0  0  0  0  0  0  0  0  0  0  0  0
   40.9975   36.4616   40.1309 H   0  0  0  0  0  0  0  0  0  0  0  0
   40.1632   34.0077   41.8558 H   0  0  0  0  0  0  0  0  0  0  0  0
   39.4641   34.4021   40.3290 H   0  0  0  0  0  0  0  0  0  0  0  0
   41.5584   32.7324   40.2324 H   0  0  0  0  0  0  0  0  0  0  0  0
   41.7564   34.0897   39.1636 H   0  0  0  0  0  0  0  0  0  0  0  0
   42.7234   34.2282   43.1275 H   0  0  0  0  0  0  0  0  0  0  0  0
   42.0602   32.8726   42.3848 H   0  0  0  0  0  0  0  0  0  0  0  0
  1  2  2  0
  1  9  1  0
  3  2  1  0
  4  3  2  0
  5  4  1  0
  5  6  2  0
  6  1  1  0
  7 12  2  0
  8  7  1  0
  9  8  2  0
  9 10  1  0
 10 11  2  0
 11 12  1  0
 13  6  1  0
 13 14  2  0
 15 13  1  0
 17 16  1  0
 18 17  1  0
 19 18  1  0
 19 20  1  0
 20 15  1  6
 20 16  1  0
 20 21  1  0
  2 22  1  0
  3 23  1  0
  4 24  1  0
  5 25  1  0
  7 26  1  0
  8 27  1  0
 11 28  1  0
 16 29  1  0
 17 30  1  0
 17 31  1  0
 18 32  1  0
 18 33  1  0
 19 34  1  0
 19 35  1  0
 21 36  1  0
 21 37  1  0
M  ISO  8  22  14  23  14  24  14  25  14  26  14  27  14  28  14  29   5
M  ISO  8  30  13  31  13  32  13  33  13  34  13  35  13  36   5  37   5
M  END
>  <minimizedAffinity>  (1) 
-6.08321476

>  <minimizedRMSD>  (1) 
0.320907921

$$$$
