
     RDKit          3D

 28 29  0  0  0  0  0  0  0  0999 V2000
   46.1310   32.2020   43.4340 C   0  0  0  0  0  0  0  0  0  0  0  0
   46.0670   33.5450   43.8640 C   0  0  0  0  0  0  0  0  0  0  0  0
   47.1760   34.3180   43.5450 C   0  0  0  0  0  0  0  0  0  0  0  0
   48.2230   33.7840   42.8670 N   0  0  0  0  0  0  0  0  0  0  0  0
   48.2250   32.4790   42.4790 C   0  0  0  0  0  0  0  0  0  0  0  0
   47.1750   31.7210   42.7740 N   0  0  0  0  0  0  0  0  0  0  0  0
   49.4280   32.1540   41.7860 N   0  0  0  0  0  0  0  0  0  0  0  0
   50.5840   32.3910   42.4130 C   0  0  0  0  0  0  0  0  0  0  0  0
   51.7440   32.0820   41.7550 C   0  0  0  0  0  0  0  0  0  0  0  0
   51.6180   31.5450   40.4910 C   0  0  0  0  0  0  0  0  0  0  0  0
   52.7410   31.1800   39.7010 N   0  0  0  0  0  0  0  0  0  0  0  0
   50.4100   31.3230   39.8980 N   0  0  0  0  0  0  0  0  0  0  0  0
   49.2780   31.6340   40.5570 C   0  0  0  0  0  0  0  0  0  0  0  0
   48.1430   31.4460   40.0500 O   0  0  0  0  0  0  0  0  0  0  0  0
   44.9560   34.0860   44.5770 N   0  0  0  0  0  0  0  0  0  0  0  0
   44.9390   34.3110   45.9770 C   0  0  0  0  0  0  0  0  0  0  0  0
   45.5350   33.3910   46.7100 N   0  0  0  0  0  0  0  0  0  0  0  0
   44.2780   35.5100   46.4240 N   0  0  0  0  0  0  0  0  0  0  0  0
   45.6030   33.4850   47.7350 H   0  0  0  0  0  0  0  0  0  0  0  0
   45.2864   31.5324   43.6539 H   0  0  0  0  0  0  0  0  0  0  0  0
   47.2058   35.3757   43.8456 H   0  0  0  0  0  0  0  0  0  0  0  0
   50.6029   32.8206   43.4255 H   0  0  0  0  0  0  0  0  0  0  0  0
   52.7294   32.2538   42.2126 H   0  0  0  0  0  0  0  0  0  0  0  0
   52.6021   30.7819   38.7613 H   0  0  0  0  0  0  0  0  0  0  0  0
   53.6941   31.3135   40.0680 H   0  0  0  0  0  0  0  0  0  0  0  0
   44.1113   34.3290   44.0400 H   0  0  0  0  0  0  0  0  0  0  0  0
   44.2326   35.7287   47.4295 H   0  0  0  0  0  0  0  0  0  0  0  0
   43.8507   36.1487   45.7382 H   0  0  0  0  0  0  0  0  0  0  0  0
  1  2  2  0
  2 15  1  0
  3  2  1  0
  4  3  2  0
  5  6  2  0
  5  4  1  0
  6  1  1  0
  7  8  1  0
  7  5  1  0
  9  8  2  0
 10  9  1  0
 11 10  1  0
 12 10  2  0
 12 13  1  0
 13  7  1  0
 14 13  2  0
 15 16  1  0
 16 18  1  0
 16 17  2  0
 17 19  1  0
  1 20  1  0
  3 21  1  0
  8 22  1  0
  9 23  1  0
 11 24  1  0
 11 25  1  0
 15 26  1  0
 18 27  1  0
 18 28  1  0
M  ISO  4  20  14  21  14  22  14  23  14
M  END
>  <minimizedAffinity>  (1) 
-4.67091656

>  <minimizedRMSD>  (1) 
7.99972963

$$$$
