
     RDKit          3D

 23 23  0  0  0  0  0  0  0  0999 V2000
   45.5800   33.0370   46.8310 C   0  0  0  0  0  0  0  0  0  0  0  0
   45.6870   33.1770   45.4300 C   0  0  0  0  0  0  0  0  0  0  0  0
   46.6230   32.3380   44.8190 C   0  0  0  0  0  0  0  0  0  0  0  0
   47.3620   31.4610   45.5580 N   0  0  0  0  0  0  0  0  0  0  0  0
   47.2110   31.3770   46.8920 C   0  0  0  0  0  0  0  0  0  0  0  0
   46.3290   32.1600   47.5020 N   0  0  0  0  0  0  0  0  0  0  0  0
   44.9140   34.0930   44.6780 N   0  0  0  0  0  0  0  0  0  0  0  0
   44.6130   35.4200   45.0700 C   0  0  0  0  0  0  0  0  0  0  0  0
   44.3750   35.5790   46.3590 N   0  0  0  0  0  0  0  0  0  0  0  0
   44.6100   36.4020   44.0110 N   0  0  0  0  0  0  0  0  0  0  0  0
   44.1880   36.5300   46.7420 H   0  0  0  0  0  0  0  0  0  0  0  0
   48.0110   30.4200   47.7240 C   0  0  0  0  0  0  0  0  0  0  0  0
   48.2260   30.9740   49.1220 C   0  0  0  0  0  0  0  0  0  0  0  0
   44.8635   33.6646   47.3812 H   0  0  0  0  0  0  0  0  0  0  0  0
   46.7656   32.3853   43.7293 H   0  0  0  0  0  0  0  0  0  0  0  0
   44.5409   33.7690   43.7743 H   0  0  0  0  0  0  0  0  0  0  0  0
   44.3993   37.3876   44.2232 H   0  0  0  0  0  0  0  0  0  0  0  0
   44.8186   36.1167   43.0435 H   0  0  0  0  0  0  0  0  0  0  0  0
   47.4717   29.4638   47.7935 H   0  0  0  0  0  0  0  0  0  0  0  0
   48.9914   30.2714   47.2478 H   0  0  0  0  0  0  0  0  0  0  0  0
   47.9326   30.2179   49.8652 H   0  0  0  0  0  0  0  0  0  0  0  0
   49.2879   31.2277   49.2566 H   0  0  0  0  0  0  0  0  0  0  0  0
   47.6133   31.8776   49.2566 H   0  0  0  0  0  0  0  0  0  0  0  0
  1  6  2  0
  2  1  1  0
  3  2  2  0
  3  4  1  0
  4  5  2  0
  5  6  1  0
  5 12  1  0
  7  8  1  0
  7  2  1  0
  8  9  2  0
  9 11  1  0
 10  8  1  0
 12 13  1  0
  1 14  1  0
  3 15  1  0
  7 16  1  0
 10 17  1  0
 10 18  1  0
 12 19  1  0
 12 20  1  0
 13 21  1  0
 13 22  1  0
 13 23  1  0
M  ISO  7  14  14  15  14  19   8  20   8  21   8  22   8  23   8
M  END
>  <minimizedAffinity>  (1) 
-4.49966478

>  <minimizedRMSD>  (1) 
2.0017817

$$$$
