
     RDKit          3D

 20 20  0  0  0  0  0  0  0  0999 V2000
   45.2100   33.0190   47.4360 C   0  0  0  0  0  0  0  0  0  0  0  0
   45.6610   33.2050   46.1110 C   0  0  0  0  0  0  0  0  0  0  0  0
   46.8900   32.6010   45.8260 C   0  0  0  0  0  0  0  0  0  0  0  0
   47.5460   31.9080   46.7810 N   0  0  0  0  0  0  0  0  0  0  0  0
   47.0660   31.7650   48.0280 C   0  0  0  0  0  0  0  0  0  0  0  0
   45.9000   32.3250   48.3380 N   0  0  0  0  0  0  0  0  0  0  0  0
   44.9190   33.9490   45.1520 N   0  0  0  0  0  0  0  0  0  0  0  0
   44.6260   35.3330   45.2770 C   0  0  0  0  0  0  0  0  0  0  0  0
   44.3140   35.7430   46.4930 N   0  0  0  0  0  0  0  0  0  0  0  0
   44.7070   36.1050   44.0590 N   0  0  0  0  0  0  0  0  0  0  0  0
   44.0620   36.7260   46.6660 H   0  0  0  0  0  0  0  0  0  0  0  0
   47.7980   30.9990   49.0720 C   0  0  0  0  0  0  0  0  0  0  0  0
   44.2501   33.4655   47.7347 H   0  0  0  0  0  0  0  0  0  0  0  0
   47.3240   32.6911   44.8192 H   0  0  0  0  0  0  0  0  0  0  0  0
   44.5736   33.4544   44.3171 H   0  0  0  0  0  0  0  0  0  0  0  0
   44.5073   37.1153   44.0754 H   0  0  0  0  0  0  0  0  0  0  0  0
   44.9644   35.6452   43.1740 H   0  0  0  0  0  0  0  0  0  0  0  0
   47.4755   31.3364   50.0681 H   0  0  0  0  0  0  0  0  0  0  0  0
   47.5806   29.9265   48.9600 H   0  0  0  0  0  0  0  0  0  0  0  0
   48.8792   31.1676   48.9600 H   0  0  0  0  0  0  0  0  0  0  0  0
  1  6  2  0
  2  1  1  0
  3  2  2  0
  3  4  1  0
  4  5  2  0
  5  6  1  0
  5 12  1  0
  7  8  1  0
  7  2  1  0
  8  9  2  0
  9 11  1  0
 10  8  1  0
  1 13  1  0
  3 14  1  0
  7 15  1  0
 10 16  1  0
 10 17  1  0
 12 18  1  0
 12 19  1  0
 12 20  1  0
M  ISO  5  13  14  14  14  18   8  19   8  20   8
M  END
>  <minimizedAffinity>  (1) 
-4.30414438

>  <minimizedRMSD>  (1) 
1.08832633

$$$$
