
     RDKit          3D

 28 30  0  0  0  0  0  0  0  0999 V2000
   47.8620   30.9550   47.2180 C   0  0  0  0  0  0  0  0  0  0  0  0
   47.2900   31.3820   48.4350 C   0  0  0  0  0  0  0  0  0  0  0  0
   46.1480   32.1720   48.3120 C   0  0  0  0  0  0  0  0  0  0  0  0
   45.6510   32.4850   47.0820 N   0  0  0  0  0  0  0  0  0  0  0  0
   46.2410   32.0470   45.9450 C   0  0  0  0  0  0  0  0  0  0  0  0
   47.3420   31.2870   46.0480 N   0  0  0  0  0  0  0  0  0  0  0  0
   45.6830   32.4040   44.6800 N   0  0  0  0  0  0  0  0  0  0  0  0
   45.5180   31.5620   43.6440 C   0  0  0  0  0  0  0  0  0  0  0  0
   44.9660   32.3020   42.6650 N   0  0  0  0  0  0  0  0  0  0  0  0
   44.7950   33.5770   43.0960 C   0  0  0  0  0  0  0  0  0  0  0  0
   44.2630   34.6890   42.4330 C   0  0  0  0  0  0  0  0  0  0  0  0
   44.2360   35.8250   43.1550 N   0  0  0  0  0  0  0  0  0  0  0  0
   44.6910   35.8690   44.4190 C   0  0  0  0  0  0  0  0  0  0  0  0
   45.2120   34.7980   45.0800 N   0  0  0  0  0  0  0  0  0  0  0  0
   45.2570   33.6470   44.3960 C   0  0  0  0  0  0  0  0  0  0  0  0
   47.8340   31.0350   49.6980 N   0  0  0  0  0  0  0  0  0  0  0  0
   49.0260   30.2750   49.8740 C   0  0  0  0  0  0  0  0  0  0  0  0
   49.1930   29.2800   49.0240 N   0  0  0  0  0  0  0  0  0  0  0  0
   49.8880   30.6960   50.9580 N   0  0  0  0  0  0  0  0  0  0  0  0
   50.0320   28.6810   49.0730 H   0  0  0  0  0  0  0  0  0  0  0  0
   48.7658   30.3284   47.2429 H   0  0  0  0  0  0  0  0  0  0  0  0
   45.6437   32.5459   49.2152 H   0  0  0  0  0  0  0  0  0  0  0  0
   45.7791   30.4941   43.6053 H   0  0  0  0  0  0  0  0  0  0  0  0
   43.8940   34.6384   41.3980 H   0  0  0  0  0  0  0  0  0  0  0  0
   44.6394   36.8295   44.9527 H   0  0  0  0  0  0  0  0  0  0  0  0
   47.3356   31.3527   50.5415 H   0  0  0  0  0  0  0  0  0  0  0  0
   50.7668   30.1915   51.1428 H   0  0  0  0  0  0  0  0  0  0  0  0
   49.6226   31.5000   51.5445 H   0  0  0  0  0  0  0  0  0  0  0  0
  1  2  2  0
  2 16  1  0
  3  2  1  0
  4  3  2  0
  5  6  2  0
  5  4  1  0
  6  1  1  0
  7  5  1  0
  8  7  1  0
  9 10  1  0
  9  8  2  0
 10 15  2  0
 11 10  1  0
 11 12  2  0
 12 13  1  0
 13 14  2  0
 15  7  1  0
 15 14  1  0
 16 17  1  0
 17 19  1  0
 18 20  1  0
 18 17  2  0
  1 21  1  0
  3 22  1  0
  8 23  1  0
 11 24  1  0
 13 25  1  0
 16 26  1  0
 19 27  1  0
 19 28  1  0
M  ISO  5  21  14  22  14  23  14  24  14  25  14
M  END
>  <minimizedAffinity>  (1) 
-5.67949009

>  <minimizedRMSD>  (1) 
7.56916714

$$$$
