
     RDKit          3D

 29 31  0  0  0  0  0  0  0  0999 V2000
   47.8120   30.9540   47.1750 C   0  0  0  0  0  0  0  0  0  0  0  0
   47.2460   31.3990   48.3720 C   0  0  0  0  0  0  0  0  0  0  0  0
   46.1040   32.1780   48.2170 C   0  0  0  0  0  0  0  0  0  0  0  0
   45.6030   32.4660   46.9820 N   0  0  0  0  0  0  0  0  0  0  0  0
   46.2000   32.0030   45.8620 C   0  0  0  0  0  0  0  0  0  0  0  0
   47.3130   31.2420   45.9750 N   0  0  0  0  0  0  0  0  0  0  0  0
   45.6400   32.3280   44.5840 N   0  0  0  0  0  0  0  0  0  0  0  0
   45.4530   31.4480   43.5820 C   0  0  0  0  0  0  0  0  0  0  0  0
   44.9120   32.1780   42.5810 N   0  0  0  0  0  0  0  0  0  0  0  0
   44.7750   33.4710   42.9700 C   0  0  0  0  0  0  0  0  0  0  0  0
   44.2710   34.5720   42.2750 C   0  0  0  0  0  0  0  0  0  0  0  0
   44.2760   35.7290   42.9590 N   0  0  0  0  0  0  0  0  0  0  0  0
   44.7400   35.7960   44.2160 C   0  0  0  0  0  0  0  0  0  0  0  0
   45.2350   34.7460   44.9160 N   0  0  0  0  0  0  0  0  0  0  0  0
   45.2440   33.5660   44.2610 C   0  0  0  0  0  0  0  0  0  0  0  0
   47.8170   31.0720   49.6150 N   0  0  0  0  0  0  0  0  0  0  0  0
   48.9780   30.2950   49.8200 C   0  0  0  0  0  0  0  0  0  0  0  0
   49.1110   29.2630   49.0020 N   0  0  0  0  0  0  0  0  0  0  0  0
   49.8360   30.7590   50.9030 N   0  0  0  0  0  0  0  0  0  0  0  0
   49.9910   28.7020   49.0530 H   0  0  0  0  0  0  0  0  0  0  0  0
   44.7490   37.0060   44.9380 O   0  0  0  0  0  0  0  0  0  0  0  0
   48.7182   30.3326   47.2268 H   0  0  0  0  0  0  0  0  0  0  0  0
   45.5944   32.5699   49.1096 H   0  0  0  0  0  0  0  0  0  0  0  0
   45.6883   30.3735   43.5787 H   0  0  0  0  0  0  0  0  0  0  0  0
   43.8972   34.4980   41.2431 H   0  0  0  0  0  0  0  0  0  0  0  0
   47.3435   31.4335   50.4552 H   0  0  0  0  0  0  0  0  0  0  0  0
   50.7053   30.2528   51.1243 H   0  0  0  0  0  0  0  0  0  0  0  0
   49.5730   31.5931   51.4471 H   0  0  0  0  0  0  0  0  0  0  0  0
   45.0972   37.0270   45.8645 H   0  0  0  0  0  0  0  0  0  0  0  0
  1  2  2  0
  2 16  1  0
  3  2  1  0
  4  3  2  0
  5  6  2  0
  5  4  1  0
  6  1  1  0
  7  5  1  0
  8  7  1  0
  9 10  1  0
  9  8  2  0
 10 15  2  0
 11 12  2  0
 11 10  1  0
 12 13  1  0
 13 14  2  0
 13 21  1  0
 15  7  1  0
 15 14  1  0
 16 17  1  0
 17 19  1  0
 18 20  1  0
 18 17  2  0
  1 22  1  0
  3 23  1  0
  8 24  1  0
 11 25  1  0
 16 26  1  0
 19 27  1  0
 19 28  1  0
 21 29  1  0
M  ISO  5  22  14  23  14  24  14  25  14  29   3
M  END
>  <minimizedAffinity>  (1) 
-6.16168404

>  <minimizedRMSD>  (1) 
0.145420849

$$$$
