
     RDKit          3D

 30 32  0  0  0  0  0  0  0  0999 V2000
   47.8360   31.0200   47.1610 C   0  0  0  0  0  0  0  0  0  0  0  0
   47.2980   31.5350   48.3440 C   0  0  0  0  0  0  0  0  0  0  0  0
   46.1550   32.3140   48.1690 C   0  0  0  0  0  0  0  0  0  0  0  0
   45.6300   32.5390   46.9310 N   0  0  0  0  0  0  0  0  0  0  0  0
   46.2090   32.0020   45.8200 C   0  0  0  0  0  0  0  0  0  0  0  0
   47.3200   31.2410   45.9500 N   0  0  0  0  0  0  0  0  0  0  0  0
   45.6200   32.2650   44.5430 N   0  0  0  0  0  0  0  0  0  0  0  0
   45.3970   31.3280   43.5970 C   0  0  0  0  0  0  0  0  0  0  0  0
   44.8320   31.9930   42.5720 N   0  0  0  0  0  0  0  0  0  0  0  0
   44.7130   33.3150   42.8910 C   0  0  0  0  0  0  0  0  0  0  0  0
   44.1940   34.3900   42.1570 C   0  0  0  0  0  0  0  0  0  0  0  0
   44.2280   35.5770   42.7710 N   0  0  0  0  0  0  0  0  0  0  0  0
   44.7300   35.7140   44.0070 C   0  0  0  0  0  0  0  0  0  0  0  0
   45.2380   34.6940   44.7410 N   0  0  0  0  0  0  0  0  0  0  0  0
   45.2210   33.4800   44.1590 C   0  0  0  0  0  0  0  0  0  0  0  0
   44.7720   36.9860   44.6720 N   0  0  0  0  0  0  0  0  0  0  0  0
   47.8880   31.2780   49.5910 N   0  0  0  0  0  0  0  0  0  0  0  0
   49.0000   30.4450   49.8330 C   0  0  0  0  0  0  0  0  0  0  0  0
   49.0330   29.3350   49.0990 N   0  0  0  0  0  0  0  0  0  0  0  0
   49.9270   30.9330   50.8450 N   0  0  0  0  0  0  0  0  0  0  0  0
   49.8840   28.7310   49.1610 H   0  0  0  0  0  0  0  0  0  0  0  0
   48.7386   30.3953   47.2324 H   0  0  0  0  0  0  0  0  0  0  0  0
   45.6660   32.7569   49.0492 H   0  0  0  0  0  0  0  0  0  0  0  0
   45.6272   30.2537   43.6519 H   0  0  0  0  0  0  0  0  0  0  0  0
   43.7858   34.2654   41.1432 H   0  0  0  0  0  0  0  0  0  0  0  0
   45.1641   37.0579   45.6217 H   0  0  0  0  0  0  0  0  0  0  0  0
   44.4100   37.8265   44.1993 H   0  0  0  0  0  0  0  0  0  0  0  0
   47.4683   31.7427   50.4088 H   0  0  0  0  0  0  0  0  0  0  0  0
   50.7659   30.3845   51.0823 H   0  0  0  0  0  0  0  0  0  0  0  0
   49.7436   31.8266   51.3233 H   0  0  0  0  0  0  0  0  0  0  0  0
  1  2  2  0
  2 17  1  0
  3  2  1  0
  4  3  2  0
  5  6  2  0
  5  4  1  0
  6  1  1  0
  7  5  1  0
  8  7  1  0
  9 10  1  0
  9  8  2  0
 10 15  2  0
 11 12  2  0
 11 10  1  0
 12 13  1  0
 13 16  1  0
 13 14  2  0
 15  7  1  0
 15 14  1  0
 17 18  1  0
 18 20  1  0
 19 21  1  0
 19 18  2  0
  1 22  1  0
  3 23  1  0
  8 24  1  0
 11 25  1  0
 16 26  1  0
 16 27  1  0
 17 28  1  0
 20 29  1  0
 20 30  1  0
M  ISO  4  22  14  23  14  24  14  25  14
M  END
>  <minimizedAffinity>  (1) 
-6.06749392

>  <minimizedRMSD>  (1) 
0.295601636

$$$$
