
     RDKit          3D

 35 38  0  0  0  0  0  0  0  0999 V2000
   47.1720   29.5840   47.7500 C   0  0  0  0  0  0  0  0  0  0  0  0
   47.4280   30.7860   48.4120 C   0  0  0  0  0  0  0  0  0  0  0  0
   47.0280   31.9170   47.7200 C   0  0  0  0  0  0  0  0  0  0  0  0
   46.4360   31.8360   46.4950 N   0  0  0  0  0  0  0  0  0  0  0  0
   46.2130   30.6290   45.9000 C   0  0  0  0  0  0  0  0  0  0  0  0
   46.5940   29.5080   46.5520 N   0  0  0  0  0  0  0  0  0  0  0  0
   45.5900   30.5940   44.6210 N   0  0  0  0  0  0  0  0  0  0  0  0
   44.5910   29.7670   44.2790 C   0  0  0  0  0  0  0  0  0  0  0  0
   44.2970   30.0510   43.0040 N   0  0  0  0  0  0  0  0  0  0  0  0
   45.1150   31.0540   42.5660 C   0  0  0  0  0  0  0  0  0  0  0  0
   45.1940   31.6900   41.3220 C   0  0  0  0  0  0  0  0  0  0  0  0
   46.1260   32.6480   41.2240 N   0  0  0  0  0  0  0  0  0  0  0  0
   46.9190   32.9620   42.2550 C   0  0  0  0  0  0  0  0  0  0  0  0
   46.8640   32.3610   43.4710 N   0  0  0  0  0  0  0  0  0  0  0  0
   45.9530   31.4030   43.6160 C   0  0  0  0  0  0  0  0  0  0  0  0
   48.0430   30.8000   49.6750 N   0  0  0  0  0  0  0  0  0  0  0  0
   49.3030   30.2630   50.0020 C   0  0  0  0  0  0  0  0  0  0  0  0
   49.6300   29.1530   49.3890 N   0  0  0  0  0  0  0  0  0  0  0  0
   50.0360   31.0520   50.9840 N   0  0  0  0  0  0  0  0  0  0  0  0
   50.5980   28.7760   49.5020 H   0  0  0  0  0  0  0  0  0  0  0  0
   47.9320   34.0170   42.1150 C   0  0  0  0  0  0  0  0  0  0  0  0
   49.1540   34.0760   42.7910 C   0  0  0  0  0  0  0  0  0  0  0  0
   49.8390   35.2100   42.4040 C   0  0  0  0  0  0  0  0  0  0  0  0
   48.9820   35.8080   41.4880 C   0  0  0  0  0  0  0  0  0  0  0  0
   47.8840   35.0870   41.3460 O   0  0  0  0  0  0  0  0  0  0  0  0
   47.4640   28.6464   48.2455 H   0  0  0  0  0  0  0  0  0  0  0  0
   47.1924   32.9068   48.1709 H   0  0  0  0  0  0  0  0  0  0  0  0
   44.1110   29.0097   44.9162 H   0  0  0  0  0  0  0  0  0  0  0  0
   44.5362   31.4220   40.4821 H   0  0  0  0  0  0  0  0  0  0  0  0
   47.5189   31.2488   50.4397 H   0  0  0  0  0  0  0  0  0  0  0  0
   50.9701   30.7489   51.2947 H   0  0  0  0  0  0  0  0  0  0  0  0
   49.6200   31.9127   51.3673 H   0  0  0  0  0  0  0  0  0  0  0  0
   49.5139   33.3337   43.5186 H   0  0  0  0  0  0  0  0  0  0  0  0
   50.8271   35.5574   42.7402 H   0  0  0  0  0  0  0  0  0  0  0  0
   49.1886   36.7486   40.9564 H   0  0  0  0  0  0  0  0  0  0  0  0
  1  2  2  0
  2 16  1  0
  3  2  1  0
  4  3  2  0
  5  4  1  0
  5  6  2  0
  6  1  1  0
  7  5  1  0
  8  7  1  0
  9  8  2  0
 10  9  1  0
 10 15  2  0
 11 10  1  0
 12 11  2  0
 12 13  1  0
 13 14  2  0
 14 15  1  0
 15  7  1  0
 16 17  1  0
 17 19  1  0
 18 20  1  0
 18 17  2  0
 21 13  1  0
 21 22  2  0
 23 22  1  0
 24 23  2  0
 25 24  1  0
 25 21  1  0
  1 26  1  0
  3 27  1  0
  8 28  1  0
 11 29  1  0
 16 30  1  0
 19 31  1  0
 19 32  1  0
 22 33  1  0
 23 34  1  0
 24 35  1  0
M  ISO  7  26  14  27  14  28  14  29  14  33  14  34  14  35  14
M  END
>  <minimizedAffinity>  (1) 
-5.8660841

>  <minimizedRMSD>  (1) 
3.57493877

$$$$
