
     RDKit          3D

 38 41  0  0  0  0  0  0  0  0999 V2000
   49.5690   30.0450   48.2920 C   0  0  0  0  0  0  0  0  0  0  0  0
   49.0610   30.9920   49.1870 C   0  0  0  0  0  0  0  0  0  0  0  0
   47.7870   31.4570   48.8770 C   0  0  0  0  0  0  0  0  0  0  0  0
   47.1110   31.0060   47.7790 N   0  0  0  0  0  0  0  0  0  0  0  0
   47.6650   30.0800   46.9460 C   0  0  0  0  0  0  0  0  0  0  0  0
   48.9020   29.6090   47.2220 N   0  0  0  0  0  0  0  0  0  0  0  0
   46.9280   29.6340   45.8080 N   0  0  0  0  0  0  0  0  0  0  0  0
   46.7950   28.3640   45.4220 C   0  0  0  0  0  0  0  0  0  0  0  0
   46.0260   28.4000   44.3190 N   0  0  0  0  0  0  0  0  0  0  0  0
   45.6940   29.6940   44.0350 C   0  0  0  0  0  0  0  0  0  0  0  0
   44.9190   30.2230   42.9940 C   0  0  0  0  0  0  0  0  0  0  0  0
   44.7870   31.5640   43.0080 N   0  0  0  0  0  0  0  0  0  0  0  0
   45.3620   32.3140   43.9500 C   0  0  0  0  0  0  0  0  0  0  0  0
   46.1160   31.8140   44.9660 N   0  0  0  0  0  0  0  0  0  0  0  0
   46.2760   30.4940   44.9960 C   0  0  0  0  0  0  0  0  0  0  0  0
   45.1910   33.7720   43.9250 C   0  0  0  0  0  0  0  0  0  0  0  0
   45.2940   34.4600   42.7200 C   0  0  0  0  0  0  0  0  0  0  0  0
   45.1400   35.8480   42.6470 C   0  0  0  0  0  0  0  0  0  0  0  0
   44.8790   36.5410   43.8100 C   0  0  0  0  0  0  0  0  0  0  0  0
   44.7710   35.8790   45.0220 C   0  0  0  0  0  0  0  0  0  0  0  0
   44.9280   34.5190   45.0560 C   0  0  0  0  0  0  0  0  0  0  0  0
   49.8130   31.4190   50.2930 N   0  0  0  0  0  0  0  0  0  0  0  0
   50.5170   30.5920   51.1950 C   0  0  0  0  0  0  0  0  0  0  0  0
   49.9130   29.4480   51.4960 N   0  0  0  0  0  0  0  0  0  0  0  0
   51.7930   31.1410   51.6420 N   0  0  0  0  0  0  0  0  0  0  0  0
   50.4420   28.7570   52.0760 H   0  0  0  0  0  0  0  0  0  0  0  0
   50.5732   29.6375   48.4805 H   0  0  0  0  0  0  0  0  0  0  0  0
   47.3135   32.2044   49.5306 H   0  0  0  0  0  0  0  0  0  0  0  0
   47.2243   27.4737   45.9047 H   0  0  0  0  0  0  0  0  0  0  0  0
   44.4534   29.5910   42.2234 H   0  0  0  0  0  0  0  0  0  0  0  0
   45.5025   33.8962   41.7988 H   0  0  0  0  0  0  0  0  0  0  0  0
   45.2251   36.3743   41.6848 H   0  0  0  0  0  0  0  0  0  0  0  0
   44.7550   37.6334   43.7750 H   0  0  0  0  0  0  0  0  0  0  0  0
   44.5618   36.4387   45.9456 H   0  0  0  0  0  0  0  0  0  0  0  0
   44.8411   34.0012   46.0226 H   0  0  0  0  0  0  0  0  0  0  0  0
   49.8552   32.4340   50.4628 H   0  0  0  0  0  0  0  0  0  0  0  0
   52.3793   30.6100   52.3017 H   0  0  0  0  0  0  0  0  0  0  0  0
   52.1073   32.0595   51.2978 H   0  0  0  0  0  0  0  0  0  0  0  0
  1  2  2  0
  2 22  1  0
  3  2  1  0
  4  3  2  0
  5  6  2  0
  5  4  1  0
  6  1  1  0
  7  5  1  0
  8  7  1  0
  9  8  2  0
 10  9  1  0
 10 15  2  0
 11 12  2  0
 11 10  1  0
 12 13  1  0
 13 14  2  0
 14 15  1  0
 15  7  1  0
 16 13  1  0
 16 21  1  0
 17 16  2  0
 18 17  1  0
 18 19  2  0
 19 20  1  0
 20 21  2  0
 22 23  1  0
 23 24  2  0
 23 25  1  0
 24 26  1  0
  1 27  1  0
  3 28  1  0
  8 29  1  0
 11 30  1  0
 17 31  1  0
 18 32  1  0
 19 33  1  0
 20 34  1  0
 21 35  1  0
 22 36  1  0
 25 37  1  0
 25 38  1  0
M  ISO  8  27  14  28  14  29  14  30  14  31  14  32  14  33  14  34  14
M  ISO  1  35  14
M  END
>  <minimizedAffinity>  (1) 
-5.62845755

>  <minimizedRMSD>  (1) 
3.32952356

$$$$
