
     RDKit          3D

 41 44  0  0  0  0  0  0  0  0999 V2000
   48.8510   29.8970   47.6160 C   0  0  0  0  0  0  0  0  0  0  0  0
   48.0440   30.5230   48.5730 C   0  0  0  0  0  0  0  0  0  0  0  0
   46.7900   30.9120   48.1090 C   0  0  0  0  0  0  0  0  0  0  0  0
   46.4110   30.6850   46.8210 N   0  0  0  0  0  0  0  0  0  0  0  0
   47.2350   30.0760   45.9460 C   0  0  0  0  0  0  0  0  0  0  0  0
   48.4610   29.6850   46.3600 N   0  0  0  0  0  0  0  0  0  0  0  0
   46.8090   29.8590   44.5960 N   0  0  0  0  0  0  0  0  0  0  0  0
   46.9540   28.7290   43.9010 C   0  0  0  0  0  0  0  0  0  0  0  0
   46.4190   28.9780   42.6920 N   0  0  0  0  0  0  0  0  0  0  0  0
   45.9500   30.2450   42.6440 C   0  0  0  0  0  0  0  0  0  0  0  0
   45.3200   30.9470   41.6120 C   0  0  0  0  0  0  0  0  0  0  0  0
   44.9770   32.2120   41.9000 N   0  0  0  0  0  0  0  0  0  0  0  0
   45.2260   32.7610   43.1060 C   0  0  0  0  0  0  0  0  0  0  0  0
   45.8370   32.1000   44.1250 N   0  0  0  0  0  0  0  0  0  0  0  0
   46.1970   30.8270   43.8740 C   0  0  0  0  0  0  0  0  0  0  0  0
   48.5060   30.7300   49.8840 N   0  0  0  0  0  0  0  0  0  0  0  0
   49.6620   30.1630   50.4680 C   0  0  0  0  0  0  0  0  0  0  0  0
   49.9080   28.9060   50.1100 N   0  0  0  0  0  0  0  0  0  0  0  0
   50.3830   31.0520   51.3580 N   0  0  0  0  0  0  0  0  0  0  0  0
   50.8010   28.4740   50.4390 H   0  0  0  0  0  0  0  0  0  0  0  0
   44.8060   34.1660   43.3230 C   0  0  0  0  0  0  0  0  0  0  0  0
   45.7090   35.1440   42.5800 C   0  0  0  0  0  0  0  0  0  0  0  0
   45.1140   36.4600   43.0960 C   0  0  0  0  0  0  0  0  0  0  0  0
   44.7450   36.1550   44.5530 C   0  0  0  0  0  0  0  0  0  0  0  0
   44.9350   34.6570   44.7220 C   0  0  0  0  0  0  0  0  0  0  0  0
   49.8557   29.5640   47.9154 H   0  0  0  0  0  0  0  0  0  0  0  0
   46.0920   31.4124   48.7963 H   0  0  0  0  0  0  0  0  0  0  0  0
   47.4143   27.7909   44.2446 H   0  0  0  0  0  0  0  0  0  0  0  0
   45.1191   30.4931   40.6304 H   0  0  0  0  0  0  0  0  0  0  0  0
   47.9464   31.3576   50.4789 H   0  0  0  0  0  0  0  0  0  0  0  0
   51.2385   30.7258   51.8297 H   0  0  0  0  0  0  0  0  0  0  0  0
   50.0396   32.0097   51.5185 H   0  0  0  0  0  0  0  0  0  0  0  0
   43.7581   34.1402   42.9895 H   0  0  0  0  0  0  0  0  0  0  0  0
   45.6118   35.0474   41.4886 H   0  0  0  0  0  0  0  0  0  0  0  0
   46.7880   35.0141   42.7500 H   0  0  0  0  0  0  0  0  0  0  0  0
   45.8546   37.2716   43.0420 H   0  0  0  0  0  0  0  0  0  0  0  0
   44.2509   36.7957   42.5023 H   0  0  0  0  0  0  0  0  0  0  0  0
   45.4061   36.7050   45.2390 H   0  0  0  0  0  0  0  0  0  0  0  0
   43.7137   36.4612   44.7826 H   0  0  0  0  0  0  0  0  0  0  0  0
   44.1569   34.2265   45.3695 H   0  0  0  0  0  0  0  0  0  0  0  0
   45.8866   34.3830   45.2010 H   0  0  0  0  0  0  0  0  0  0  0  0
  1  2  2  0
  2 16  1  0
  3  2  1  0
  4  3  2  0
  5  6  2  0
  5  4  1  0
  6  1  1  0
  7  5  1  0
  8  7  1  0
  9  8  2  0
 10  9  1  0
 10 15  2  0
 11 12  2  0
 11 10  1  0
 12 13  1  0
 13 21  1  0
 13 14  2  0
 15 14  1  0
 15  7  1  0
 16 17  1  0
 17 19  1  0
 18 20  1  0
 18 17  2  0
 21 25  1  0
 22 23  1  0
 22 21  1  0
 23 24  1  0
 24 25  1  0
  1 26  1  0
  3 27  1  0
  8 28  1  0
 11 29  1  0
 16 30  1  0
 19 31  1  0
 19 32  1  0
 21 33  1  0
 22 34  1  0
 22 35  1  0
 23 36  1  0
 23 37  1  0
 24 38  1  0
 24 39  1  0
 25 40  1  0
 25 41  1  0
M  ISO  8  26  14  27  14  28  14  29  14  33  13  34  13  35  13  36  13
M  ISO  5  37  13  38  13  39  13  40  13  41  13
M  END
>  <minimizedAffinity>  (1) 
-5.62347651

>  <minimizedRMSD>  (1) 
2.79314923

$$$$
