
     RDKit          3D

 30 32  0  0  0  0  0  0  0  0999 V2000
   47.9370   30.4890   47.3260 C   0  0  0  0  0  0  0  0  0  0  0  0
   47.4120   31.1480   48.4470 C   0  0  0  0  0  0  0  0  0  0  0  0
   46.2820   31.9200   48.2100 C   0  0  0  0  0  0  0  0  0  0  0  0
   45.7430   32.0140   46.9650 N   0  0  0  0  0  0  0  0  0  0  0  0
   46.2890   31.3590   45.9110 C   0  0  0  0  0  0  0  0  0  0  0  0
   47.3890   30.5980   46.1130 N   0  0  0  0  0  0  0  0  0  0  0  0
   45.7110   31.4820   44.6080 N   0  0  0  0  0  0  0  0  0  0  0  0
   45.5030   30.4860   43.7450 C   0  0  0  0  0  0  0  0  0  0  0  0
   44.9530   31.0600   42.6580 N   0  0  0  0  0  0  0  0  0  0  0  0
   44.8250   32.3910   42.8510 C   0  0  0  0  0  0  0  0  0  0  0  0
   44.3140   33.3880   42.0120 C   0  0  0  0  0  0  0  0  0  0  0  0
   44.3370   34.6250   42.5250 N   0  0  0  0  0  0  0  0  0  0  0  0
   44.8130   34.8870   43.7460 C   0  0  0  0  0  0  0  0  0  0  0  0
   45.3170   33.9410   44.5900 N   0  0  0  0  0  0  0  0  0  0  0  0
   45.3140   32.6790   44.1150 C   0  0  0  0  0  0  0  0  0  0  0  0
   48.0170   31.0230   49.7130 N   0  0  0  0  0  0  0  0  0  0  0  0
   49.2150   30.3320   50.0000 C   0  0  0  0  0  0  0  0  0  0  0  0
   49.3800   29.2040   49.3160 N   0  0  0  0  0  0  0  0  0  0  0  0
   50.0570   30.9790   50.9920 N   0  0  0  0  0  0  0  0  0  0  0  0
   50.2910   28.7030   49.4280 H   0  0  0  0  0  0  0  0  0  0  0  0
   44.7880   36.2730   44.2030 C   0  0  0  0  0  0  0  0  0  0  0  0
   45.1950   37.1760   43.4120 O   0  0  0  0  0  0  0  0  0  0  0  0
   48.8312   29.8605   47.4501 H   0  0  0  0  0  0  0  0  0  0  0  0
   45.8150   32.4648   49.0437 H   0  0  0  0  0  0  0  0  0  0  0  0
   45.7325   29.4201   43.8907 H   0  0  0  0  0  0  0  0  0  0  0  0
   43.9229   33.1719   41.0068 H   0  0  0  0  0  0  0  0  0  0  0  0
   47.5406   31.4787   50.5044 H   0  0  0  0  0  0  0  0  0  0  0  0
   50.9519   30.5495   51.2669 H   0  0  0  0  0  0  0  0  0  0  0  0
   49.7589   31.8671   51.4202 H   0  0  0  0  0  0  0  0  0  0  0  0
   44.4247   36.5278   45.2095 H   0  0  0  0  0  0  0  0  0  0  0  0
  1  2  2  0
  2 16  1  0
  3  2  1  0
  4  3  2  0
  5  6  2  0
  5  4  1  0
  6  1  1  0
  7  5  1  0
  8  7  1  0
  9 10  1  0
  9  8  2  0
 10 15  2  0
 11 12  2  0
 11 10  1  0
 12 13  1  0
 13 21  1  0
 13 14  2  0
 15 14  1  0
 15  7  1  0
 16 17  1  0
 17 19  1  0
 18 20  1  0
 18 17  2  0
 22 21  2  0
  1 23  1  0
  3 24  1  0
  8 25  1  0
 11 26  1  0
 16 27  1  0
 19 28  1  0
 19 29  1  0
 21 30  1  0
M  ISO  5  23  14  24  14  25  14  26  14  30   6
M  END
>  <minimizedAffinity>  (1) 
-5.55891132

>  <minimizedRMSD>  (1) 
0.998292029

$$$$
