
     RDKit          3D

 31 33  0  0  0  0  0  0  0  0999 V2000
   47.9000   30.8170   47.2150 C   0  0  0  0  0  0  0  0  0  0  0  0
   47.3770   31.4270   48.3600 C   0  0  0  0  0  0  0  0  0  0  0  0
   46.2500   32.1990   48.1330 C   0  0  0  0  0  0  0  0  0  0  0  0
   45.7130   32.3360   46.8860 N   0  0  0  0  0  0  0  0  0  0  0  0
   46.2770   31.7100   45.8110 C   0  0  0  0  0  0  0  0  0  0  0  0
   47.3790   30.9460   45.9900 N   0  0  0  0  0  0  0  0  0  0  0  0
   45.6730   31.8890   44.5300 N   0  0  0  0  0  0  0  0  0  0  0  0
   45.4250   30.8780   43.6620 C   0  0  0  0  0  0  0  0  0  0  0  0
   44.8410   31.4780   42.6010 N   0  0  0  0  0  0  0  0  0  0  0  0
   44.7420   32.8160   42.8260 C   0  0  0  0  0  0  0  0  0  0  0  0
   44.2160   33.8330   42.0170 C   0  0  0  0  0  0  0  0  0  0  0  0
   44.2730   35.0640   42.5320 N   0  0  0  0  0  0  0  0  0  0  0  0
   44.8020   35.2940   43.7450 C   0  0  0  0  0  0  0  0  0  0  0  0
   45.3160   34.3270   44.5460 N   0  0  0  0  0  0  0  0  0  0  0  0
   45.2780   33.0780   44.0670 C   0  0  0  0  0  0  0  0  0  0  0  0
   47.9770   31.2570   49.6170 N   0  0  0  0  0  0  0  0  0  0  0  0
   49.1090   30.4610   49.9020 C   0  0  0  0  0  0  0  0  0  0  0  0
   49.1660   29.3180   49.2440 N   0  0  0  0  0  0  0  0  0  0  0  0
   50.0290   31.0300   50.8780 N   0  0  0  0  0  0  0  0  0  0  0  0
   50.0210   28.7240   49.3430 H   0  0  0  0  0  0  0  0  0  0  0  0
   44.8290   36.7020   44.2490 C   0  0  0  0  0  0  0  0  0  0  0  0
   48.7973   30.1911   47.3295 H   0  0  0  0  0  0  0  0  0  0  0  0
   45.7751   32.7154   48.9802 H   0  0  0  0  0  0  0  0  0  0  0  0
   45.6488   29.8089   43.7919 H   0  0  0  0  0  0  0  0  0  0  0  0
   43.7855   33.6308   41.0252 H   0  0  0  0  0  0  0  0  0  0  0  0
   47.5513   31.7610   50.4080 H   0  0  0  0  0  0  0  0  0  0  0  0
   50.8807   30.5154   51.1440 H   0  0  0  0  0  0  0  0  0  0  0  0
   49.8277   31.9469   51.3020 H   0  0  0  0  0  0  0  0  0  0  0  0
   44.8289   36.6978   45.3490 H   0  0  0  0  0  0  0  0  0  0  0  0
   45.7369   37.2046   43.8843 H   0  0  0  0  0  0  0  0  0  0  0  0
   43.9410   37.2391   43.8843 H   0  0  0  0  0  0  0  0  0  0  0  0
  1  2  2  0
  2 16  1  0
  3  2  1  0
  4  3  2  0
  5  6  2  0
  5  4  1  0
  6  1  1  0
  7  5  1  0
  8  7  1  0
  9 10  1  0
  9  8  2  0
 10 15  2  0
 11 12  2  0
 11 10  1  0
 12 13  1  0
 13 21  1  0
 13 14  2  0
 15  7  1  0
 15 14  1  0
 16 17  1  0
 17 19  1  0
 18 20  1  0
 18 17  2  0
  1 22  1  0
  3 23  1  0
  8 24  1  0
 11 25  1  0
 16 26  1  0
 19 27  1  0
 19 28  1  0
 21 29  1  0
 21 30  1  0
 21 31  1  0
M  ISO  7  22  14  23  14  24  14  25  14  29   8  30   8  31   8
M  END
>  <minimizedAffinity>  (1) 
-5.53859663

>  <minimizedRMSD>  (1) 
0.611534953

$$$$
