
     RDKit          3D

 41 44  0  0  0  0  0  0  0  0999 V2000
   48.9320   29.8860   47.7290 C   0  0  0  0  0  0  0  0  0  0  0  0
   48.1280   30.5190   48.6820 C   0  0  0  0  0  0  0  0  0  0  0  0
   46.8680   30.8770   48.2350 C   0  0  0  0  0  0  0  0  0  0  0  0
   46.4670   30.6200   46.9500 N   0  0  0  0  0  0  0  0  0  0  0  0
   47.2920   30.0030   46.0730 C   0  0  0  0  0  0  0  0  0  0  0  0
   48.5300   29.6410   46.4800 N   0  0  0  0  0  0  0  0  0  0  0  0
   46.8420   29.7490   44.7390 N   0  0  0  0  0  0  0  0  0  0  0  0
   46.9890   28.5970   44.0760 C   0  0  0  0  0  0  0  0  0  0  0  0
   46.4210   28.8190   42.8690 N   0  0  0  0  0  0  0  0  0  0  0  0
   45.9380   30.0850   42.8040 C   0  0  0  0  0  0  0  0  0  0  0  0
   45.2840   30.7520   41.7630 C   0  0  0  0  0  0  0  0  0  0  0  0
   44.9400   32.0170   42.0240 N   0  0  0  0  0  0  0  0  0  0  0  0
   45.2130   32.5910   43.2090 C   0  0  0  0  0  0  0  0  0  0  0  0
   45.8450   31.9680   44.2310 N   0  0  0  0  0  0  0  0  0  0  0  0
   46.2070   30.6990   44.0140 C   0  0  0  0  0  0  0  0  0  0  0  0
   44.8200   33.9600   43.4370 N   0  0  0  0  0  0  0  0  0  0  0  0
   44.4300   34.8450   42.3400 C   0  0  0  0  0  0  0  0  0  0  0  0
   44.9770   36.2270   42.4910 C   0  0  0  0  0  0  0  0  0  0  0  0
   45.3220   36.5430   43.8020 O   0  0  0  0  0  0  0  0  0  0  0  0
   44.4750   35.9580   44.7190 C   0  0  0  0  0  0  0  0  0  0  0  0
   44.8080   34.4860   44.8010 C   0  0  0  0  0  0  0  0  0  0  0  0
   48.6020   30.7570   49.9850 N   0  0  0  0  0  0  0  0  0  0  0  0
   49.7510   30.1890   50.5760 C   0  0  0  0  0  0  0  0  0  0  0  0
   49.9830   28.9200   50.2520 N   0  0  0  0  0  0  0  0  0  0  0  0
   50.4850   31.0990   51.4410 N   0  0  0  0  0  0  0  0  0  0  0  0
   50.8810   28.4950   50.5810 H   0  0  0  0  0  0  0  0  0  0  0  0
   49.9453   29.5747   48.0230 H   0  0  0  0  0  0  0  0  0  0  0  0
   46.1739   31.3783   48.9256 H   0  0  0  0  0  0  0  0  0  0  0  0
   47.4665   27.6728   44.4335 H   0  0  0  0  0  0  0  0  0  0  0  0
   45.0681   30.2699   40.7982 H   0  0  0  0  0  0  0  0  0  0  0  0
   43.3320   34.9028   42.3080 H   0  0  0  0  0  0  0  0  0  0  0  0
   44.8428   34.4242   41.4112 H   0  0  0  0  0  0  0  0  0  0  0  0
   45.8750   36.3176   41.8623 H   0  0  0  0  0  0  0  0  0  0  0  0
   44.1845   36.9260   42.1854 H   0  0  0  0  0  0  0  0  0  0  0  0
   44.6135   36.4261   45.7047 H   0  0  0  0  0  0  0  0  0  0  0  0
   43.4285   36.0931   44.4083 H   0  0  0  0  0  0  0  0  0  0  0  0
   44.0476   33.9619   45.3987 H   0  0  0  0  0  0  0  0  0  0  0  0
   45.7861   34.3369   45.2817 H   0  0  0  0  0  0  0  0  0  0  0  0
   48.0566   31.4104   50.5651 H   0  0  0  0  0  0  0  0  0  0  0  0
   51.3391   30.7785   51.9193 H   0  0  0  0  0  0  0  0  0  0  0  0
   50.1508   32.0640   51.5753 H   0  0  0  0  0  0  0  0  0  0  0  0
  1  2  2  0
  2 22  1  0
  3  2  1  0
  4  3  2  0
  5  6  2  0
  5  4  1  0
  6  1  1  0
  7  5  1  0
  8  7  1  0
  9  8  2  0
 10  9  1  0
 10 15  2  0
 11 12  2  0
 11 10  1  0
 12 13  1  0
 13 16  1  0
 13 14  2  0
 15 14  1  0
 15  7  1  0
 16 21  1  0
 17 18  1  0
 17 16  1  0
 18 19  1  0
 19 20  1  0
 20 21  1  0
 22 23  1  0
 23 25  1  0
 24 23  2  0
 24 26  1  0
  1 27  1  0
  3 28  1  0
  8 29  1  0
 11 30  1  0
 17 31  1  0
 17 32  1  0
 18 33  1  0
 18 34  1  0
 20 35  1  0
 20 36  1  0
 21 37  1  0
 21 38  1  0
 22 39  1  0
 25 40  1  0
 25 41  1  0
M  ISO  8  27  14  28  14  29  14  30  14  31  13  32  13  33  13  34  13
M  ISO  4  35  13  36  13  37  13  38  13
M  END
>  <minimizedAffinity>  (1) 
-5.39009714

>  <minimizedRMSD>  (1) 
2.96379328

$$$$
