
     RDKit          3D

 33 36  0  0  0  0  0  0  0  0999 V2000
   46.8590   34.7620   41.9700 C   0  0  0  0  0  0  0  0  0  0  0  0
   48.1090   35.3200   41.8920 C   0  0  0  0  0  0  0  0  0  0  0  0
   48.7330   35.1590   40.6790 C   0  0  0  0  0  0  0  0  0  0  0  0
   48.1720   34.4910   39.6000 C   0  0  0  0  0  0  0  0  0  0  0  0
   46.9070   33.9570   39.7570 C   0  0  0  0  0  0  0  0  0  0  0  0
   46.2830   34.1120   40.9540 N   0  0  0  0  0  0  0  0  0  0  0  0
   46.1720   33.2380   38.7620 N   0  0  0  0  0  0  0  0  0  0  0  0
   44.9160   32.8110   38.9850 C   0  0  0  0  0  0  0  0  0  0  0  0
   44.5200   32.1730   37.8460 N   0  0  0  0  0  0  0  0  0  0  0  0
   45.5270   32.2250   36.9680 C   0  0  0  0  0  0  0  0  0  0  0  0
   45.7330   31.7720   35.6750 C   0  0  0  0  0  0  0  0  0  0  0  0
   44.7540   31.1490   35.1500 O   0  0  0  0  0  0  0  0  0  0  0  0
   46.8690   31.9610   34.9980 N   0  0  0  0  0  0  0  0  0  0  0  0
   47.8950   32.6270   35.5780 C   0  0  0  0  0  0  0  0  0  0  0  0
   49.0780   32.7950   34.8050 N   0  0  0  0  0  0  0  0  0  0  0  0
   47.7480   33.0950   36.8520 N   0  0  0  0  0  0  0  0  0  0  0  0
   46.5990   32.9030   37.5300 C   0  0  0  0  0  0  0  0  0  0  0  0
   44.4940   36.0130   44.5790 C   0  0  0  0  0  0  0  0  0  0  0  0
   45.2140   35.9260   43.3710 C   0  0  0  0  0  0  0  0  0  0  0  0
   46.1000   34.8720   43.2160 C   0  0  0  0  0  0  0  0  0  0  0  0
   46.2430   33.9620   44.2270 N   0  0  0  0  0  0  0  0  0  0  0  0
   45.5300   34.0840   45.3700 C   0  0  0  0  0  0  0  0  0  0  0  0
   44.6680   35.0910   45.5500 N   0  0  0  0  0  0  0  0  0  0  0  0
   48.5748   35.8538   42.7334 H   0  0  0  0  0  0  0  0  0  0  0  0
   49.7392   35.5858   40.5554 H   0  0  0  0  0  0  0  0  0  0  0  0
   48.7168   34.3897   38.6498 H   0  0  0  0  0  0  0  0  0  0  0  0
   44.3258   32.9488   39.9030 H   0  0  0  0  0  0  0  0  0  0  0  0
   46.9640   31.6011   34.0376 H   0  0  0  0  0  0  0  0  0  0  0  0
   49.8862   33.2948   35.2024 H   0  0  0  0  0  0  0  0  0  0  0  0
   49.1260   32.4167   33.8482 H   0  0  0  0  0  0  0  0  0  0  0  0
   43.7841   36.8391   44.7324 H   0  0  0  0  0  0  0  0  0  0  0  0
   45.0768   36.6725   42.5748 H   0  0  0  0  0  0  0  0  0  0  0  0
   45.6618   33.3392   46.1686 H   0  0  0  0  0  0  0  0  0  0  0  0
  1 20  1  0
  2  1  2  0
  3  2  1  0
  4  5  1  0
  4  3  2  0
  5  6  2  0
  6  1  1  0
  7  8  1  0
  7  5  1  0
  9  8  2  0
 10 17  2  0
 10  9  1  0
 11 10  1  0
 12 11  2  0
 13 14  1  0
 13 11  1  0
 14 16  2  0
 15 14  1  0
 16 17  1  0
 17  7  1  0
 18 23  2  0
 19 18  1  0
 20 19  2  0
 20 21  1  0
 21 22  2  0
 22 23  1  0
  2 24  1  0
  3 25  1  0
  4 26  1  0
  8 27  1  0
 13 28  1  0
 15 29  1  0
 15 30  1  0
 18 31  1  0
 19 32  1  0
 22 33  1  0
M  ISO  8  24  14  25  14  26  14  27  14  28   9  31  14  32  14  33  14
M  END
>  <minimizedAffinity>  (1) 
-6.88097429

>  <minimizedRMSD>  (1) 
0.286125034

$$$$
