
     RDKit          3D

 31 33  0  0  0  0  0  0  0  0999 V2000
   46.8620   34.7380   42.0260 C   0  0  0  0  0  0  0  0  0  0  0  0
   48.0930   35.3430   41.9370 C   0  0  0  0  0  0  0  0  0  0  0  0
   48.6960   35.2030   40.6990 C   0  0  0  0  0  0  0  0  0  0  0  0
   48.1240   34.5170   39.6350 C   0  0  0  0  0  0  0  0  0  0  0  0
   46.8760   33.9360   39.8130 C   0  0  0  0  0  0  0  0  0  0  0  0
   46.2870   34.0720   41.0210 N   0  0  0  0  0  0  0  0  0  0  0  0
   46.2550   33.2260   38.7480 N   0  0  0  0  0  0  0  0  0  0  0  0
   45.1250   32.3390   38.9440 C   0  0  0  0  0  0  0  0  0  0  0  0
   44.8580   31.8130   37.5530 C   0  0  0  0  0  0  0  0  0  0  0  0
   45.5550   32.7010   36.5720 C   0  0  0  0  0  0  0  0  0  0  0  0
   46.6790   33.3070   37.3610 C   0  0  0  0  0  0  0  0  0  0  0  0
   44.5010   35.9350   44.6680 C   0  0  0  0  0  0  0  0  0  0  0  0
   45.2150   35.8550   43.4650 C   0  0  0  0  0  0  0  0  0  0  0  0
   46.1270   34.8130   43.2730 C   0  0  0  0  0  0  0  0  0  0  0  0
   46.2700   33.9260   44.2790 N   0  0  0  0  0  0  0  0  0  0  0  0
   45.5820   34.0060   45.4350 C   0  0  0  0  0  0  0  0  0  0  0  0
   44.6980   35.0080   45.6300 N   0  0  0  0  0  0  0  0  0  0  0  0
   48.5562   35.8882   42.7726 H   0  0  0  0  0  0  0  0  0  0  0  0
   49.6847   35.6612   40.5491 H   0  0  0  0  0  0  0  0  0  0  0  0
   48.6490   34.4359   38.6718 H   0  0  0  0  0  0  0  0  0  0  0  0
   45.3800   31.5208   39.6335 H   0  0  0  0  0  0  0  0  0  0  0  0
   44.2541   32.8401   39.3917 H   0  0  0  0  0  0  0  0  0  0  0  0
   45.2426   30.7863   37.4636 H   0  0  0  0  0  0  0  0  0  0  0  0
   43.7764   31.8037   37.3531 H   0  0  0  0  0  0  0  0  0  0  0  0
   44.8747   33.4809   36.1993 H   0  0  0  0  0  0  0  0  0  0  0  0
   45.9083   32.1548   35.6850 H   0  0  0  0  0  0  0  0  0  0  0  0
   47.6085   32.7391   37.2076 H   0  0  0  0  0  0  0  0  0  0  0  0
   46.8867   34.3425   37.0535 H   0  0  0  0  0  0  0  0  0  0  0  0
   43.7814   36.7513   44.8285 H   0  0  0  0  0  0  0  0  0  0  0  0
   45.0590   36.6068   42.6773 H   0  0  0  0  0  0  0  0  0  0  0  0
   45.7409   33.2535   46.2214 H   0  0  0  0  0  0  0  0  0  0  0  0
  1 14  1  0
  2  1  2  0
  3  2  1  0
  4  5  1  0
  4  3  2  0
  5  6  2  0
  6  1  1  0
  7  8  1  0
  7  5  1  0
  9  8  1  0
 10 11  1  0
 10  9  1  0
 11  7  1  0
 12 17  2  0
 13 12  1  0
 14 13  2  0
 14 15  1  0
 15 16  2  0
 16 17  1  0
  2 18  1  0
  3 19  1  0
  4 20  1  0
  8 21  1  0
  8 22  1  0
  9 23  1  0
  9 24  1  0
 10 25  1  0
 10 26  1  0
 11 27  1  0
 11 28  1  0
 12 29  1  0
 13 30  1  0
 16 31  1  0
M  ISO  8  18  14  19  14  20  14  21  13  22  13  23  13  24  13  25  13
M  ISO  6  26  13  27  13  28  13  29  14  30  14  31  14
M  END
>  <minimizedAffinity>  (1) 
-5.61696291

>  <minimizedRMSD>  (1) 
0.177924767

$$$$
