
     RDKit          3D

 27 29  0  0  0  0  0  0  0  0999 V2000
   46.8940   34.7590   41.9400 C   0  0  0  0  0  0  0  0  0  0  0  0
   48.1120   35.3820   41.8520 C   0  0  0  0  0  0  0  0  0  0  0  0
   48.7270   35.2170   40.6220 C   0  0  0  0  0  0  0  0  0  0  0  0
   48.1730   34.4870   39.5630 C   0  0  0  0  0  0  0  0  0  0  0  0
   46.9370   33.8930   39.7430 C   0  0  0  0  0  0  0  0  0  0  0  0
   46.3570   34.0670   40.9460 N   0  0  0  0  0  0  0  0  0  0  0  0
   44.5160   36.0030   44.5530 C   0  0  0  0  0  0  0  0  0  0  0  0
   45.2410   35.9140   43.3500 C   0  0  0  0  0  0  0  0  0  0  0  0
   46.1390   34.8570   43.1840 C   0  0  0  0  0  0  0  0  0  0  0  0
   46.2730   33.9640   44.1880 N   0  0  0  0  0  0  0  0  0  0  0  0
   45.5690   34.0630   45.3390 C   0  0  0  0  0  0  0  0  0  0  0  0
   44.7010   35.0670   45.5240 N   0  0  0  0  0  0  0  0  0  0  0  0
   46.2310   33.1030   38.7360 C   0  0  0  0  0  0  0  0  0  0  0  0
   46.4320   33.2550   37.3960 C   0  0  0  0  0  0  0  0  0  0  0  0
   45.7780   32.5210   36.4260 C   0  0  0  0  0  0  0  0  0  0  0  0
   44.8890   31.6010   36.8610 N   0  0  0  0  0  0  0  0  0  0  0  0
   44.6770   31.4360   38.1910 C   0  0  0  0  0  0  0  0  0  0  0  0
   45.3330   32.1690   39.0850 N   0  0  0  0  0  0  0  0  0  0  0  0
   48.5573   35.9567   42.6775 H   0  0  0  0  0  0  0  0  0  0  0  0
   49.7093   35.6875   40.4677 H   0  0  0  0  0  0  0  0  0  0  0  0
   48.7097   34.3881   38.6079 H   0  0  0  0  0  0  0  0  0  0  0  0
   43.8026   36.8258   44.7080 H   0  0  0  0  0  0  0  0  0  0  0  0
   45.1031   36.6624   42.5557 H   0  0  0  0  0  0  0  0  0  0  0  0
   45.7104   33.3123   46.1305 H   0  0  0  0  0  0  0  0  0  0  0  0
   47.1611   34.0099   37.0667 H   0  0  0  0  0  0  0  0  0  0  0  0
   45.9709   32.6773   35.3544 H   0  0  0  0  0  0  0  0  0  0  0  0
   43.9512   30.6842   38.5346 H   0  0  0  0  0  0  0  0  0  0  0  0
  1  9  1  0
  2  1  2  0
  3  2  1  0
  4  5  1  0
  4  3  2  0
  5  6  2  0
  6  1  1  0
  7 12  2  0
  8  7  1  0
  9  8  2  0
  9 10  1  0
 10 11  2  0
 11 12  1  0
 13 18  1  0
 13  5  1  0
 14 13  2  0
 15 16  2  0
 15 14  1  0
 16 17  1  0
 17 18  2  0
  2 19  1  0
  3 20  1  0
  4 21  1  0
  7 22  1  0
  8 23  1  0
 11 24  1  0
 14 25  1  0
 15 26  1  0
 17 27  1  0
M  ISO  8  19  14  20  14  21  14  22  14  23  14  24  14  25  14  26  14
M  ISO  1  27  14
M  END
>  <minimizedAffinity>  (1) 
-5.38844633

>  <minimizedRMSD>  (1) 
0.279569387

$$$$
