
     RDKit          3D

 26 28  0  0  0  0  0  0  0  0999 V2000
   46.8760   34.7470   42.0330 C   0  0  0  0  0  0  0  0  0  0  0  0
   48.0910   35.3790   41.9380 C   0  0  0  0  0  0  0  0  0  0  0  0
   48.7100   35.2450   40.7160 C   0  0  0  0  0  0  0  0  0  0  0  0
   48.1540   34.5260   39.6520 C   0  0  0  0  0  0  0  0  0  0  0  0
   46.9240   33.9210   39.8360 C   0  0  0  0  0  0  0  0  0  0  0  0
   46.3110   34.0480   41.0340 N   0  0  0  0  0  0  0  0  0  0  0  0
   44.5030   35.9210   44.6820 C   0  0  0  0  0  0  0  0  0  0  0  0
   45.2140   35.8640   43.4680 C   0  0  0  0  0  0  0  0  0  0  0  0
   46.1300   34.8220   43.2820 C   0  0  0  0  0  0  0  0  0  0  0  0
   46.2820   33.9180   44.2870 N   0  0  0  0  0  0  0  0  0  0  0  0
   45.5880   34.0000   45.4330 C   0  0  0  0  0  0  0  0  0  0  0  0
   44.7020   34.9910   45.6370 N   0  0  0  0  0  0  0  0  0  0  0  0
   46.3420   33.1720   38.7300 C   0  0  0  0  0  0  0  0  0  0  0  0
   46.6570   33.2700   37.3900 C   0  0  0  0  0  0  0  0  0  0  0  0
   45.8230   32.3480   36.7590 C   0  0  0  0  0  0  0  0  0  0  0  0
   45.0600   31.7450   37.7170 N   0  0  0  0  0  0  0  0  0  0  0  0
   45.3790   32.2500   38.9150 N   0  0  0  0  0  0  0  0  0  0  0  0
   48.5335   35.9460   42.7703 H   0  0  0  0  0  0  0  0  0  0  0  0
   49.6883   35.7260   40.5688 H   0  0  0  0  0  0  0  0  0  0  0  0
   48.6832   34.4439   38.6912 H   0  0  0  0  0  0  0  0  0  0  0  0
   43.7790   36.7314   44.8524 H   0  0  0  0  0  0  0  0  0  0  0  0
   45.0536   36.6197   42.6850 H   0  0  0  0  0  0  0  0  0  0  0  0
   45.7464   33.2451   46.2173 H   0  0  0  0  0  0  0  0  0  0  0  0
   47.4022   33.9304   36.9225 H   0  0  0  0  0  0  0  0  0  0  0  0
   45.7863   32.1426   35.6790 H   0  0  0  0  0  0  0  0  0  0  0  0
   44.3516   31.0173   37.5454 H   0  0  0  0  0  0  0  0  0  0  0  0
  1  9  1  0
  2  1  2  0
  3  2  1  0
  4  5  1  0
  4  3  2  0
  5  6  2  0
  6  1  1  0
  7 12  2  0
  8  7  1  0
  9  8  2  0
  9 10  1  0
 10 11  2  0
 11 12  1  0
 13 17  2  0
 13  5  1  0
 14 13  1  0
 15 14  2  0
 15 16  1  0
 16 17  1  0
  2 18  1  0
  3 19  1  0
  4 20  1  0
  7 21  1  0
  8 22  1  0
 11 23  1  0
 14 24  1  0
 15 25  1  0
 16 26  1  0
M  ISO  8  18  14  19  14  20  14  21  14  22  14  23  14  24  14  25  14
M  ISO  1  26   9
M  END
>  <minimizedAffinity>  (1) 
-5.28388405

>  <minimizedRMSD>  (1) 
0.343545854

$$$$
