
     RDKit          3D

 35 38  0  0  0  0  0  0  0  0999 V2000
   46.8080   34.7400   42.0470 C   0  0  0  0  0  0  0  0  0  0  0  0
   48.0450   35.3070   41.9330 C   0  0  0  0  0  0  0  0  0  0  0  0
   48.6540   35.1400   40.7150 C   0  0  0  0  0  0  0  0  0  0  0  0
   48.0540   34.4380   39.6550 C   0  0  0  0  0  0  0  0  0  0  0  0
   46.8070   33.8930   39.8390 C   0  0  0  0  0  0  0  0  0  0  0  0
   46.2240   34.0690   41.0480 N   0  0  0  0  0  0  0  0  0  0  0  0
   46.1530   33.1660   38.7680 C   0  0  0  0  0  0  0  0  0  0  0  0
   46.8970   32.6670   37.7260 C   0  0  0  0  0  0  0  0  0  0  0  0
   46.2630   31.9800   36.7030 C   0  0  0  0  0  0  0  0  0  0  0  0
   44.8910   31.8620   36.8430 C   0  0  0  0  0  0  0  0  0  0  0  0
   44.1200   32.3440   37.8670 C   0  0  0  0  0  0  0  0  0  0  0  0
   44.8120   33.0050   38.8280 N   0  0  0  0  0  0  0  0  0  0  0  0
   42.7110   32.1610   37.9050 N   0  0  0  0  0  0  0  0  0  0  0  0
   41.8360   31.2050   37.5520 C   0  0  0  0  0  0  0  0  0  0  0  0
   40.5630   31.6070   37.8400 C   0  0  0  0  0  0  0  0  0  0  0  0
   40.6480   32.8440   38.3850 N   0  0  0  0  0  0  0  0  0  0  0  0
   41.9580   33.1720   38.4200 C   0  0  0  0  0  0  0  0  0  0  0  0
   44.4960   35.9470   44.7190 C   0  0  0  0  0  0  0  0  0  0  0  0
   45.1880   35.8810   43.4950 C   0  0  0  0  0  0  0  0  0  0  0  0
   46.0700   34.8520   43.2930 C   0  0  0  0  0  0  0  0  0  0  0  0
   46.2360   33.9290   44.3050 N   0  0  0  0  0  0  0  0  0  0  0  0
   45.5540   34.0250   45.4690 C   0  0  0  0  0  0  0  0  0  0  0  0
   44.6860   35.0340   45.6740 N   0  0  0  0  0  0  0  0  0  0  0  0
   48.5192   35.8581   42.7585 H   0  0  0  0  0  0  0  0  0  0  0  0
   49.6533   35.5734   40.5615 H   0  0  0  0  0  0  0  0  0  0  0  0
   48.5755   34.3270   38.6928 H   0  0  0  0  0  0  0  0  0  0  0  0
   47.9872   32.8117   37.7041 H   0  0  0  0  0  0  0  0  0  0  0  0
   46.8086   31.5604   35.8450 H   0  0  0  0  0  0  0  0  0  0  0  0
   44.3619   31.3218   36.0441 H   0  0  0  0  0  0  0  0  0  0  0  0
   42.1052   30.2401   37.0977 H   0  0  0  0  0  0  0  0  0  0  0  0
   39.6412   31.0335   37.6626 H   0  0  0  0  0  0  0  0  0  0  0  0
   42.3589   34.1197   38.8087 H   0  0  0  0  0  0  0  0  0  0  0  0
   43.7842   36.7676   44.8920 H   0  0  0  0  0  0  0  0  0  0  0  0
   45.0240   36.6403   42.7162 H   0  0  0  0  0  0  0  0  0  0  0  0
   45.7098   33.2719   46.2555 H   0  0  0  0  0  0  0  0  0  0  0  0
  1 20  1  0
  2  1  2  0
  3  2  1  0
  4  5  1  0
  4  3  2  0
  5  6  2  0
  6  1  1  0
  7 12  1  0
  7  5  1  0
  8  7  2  0
  9 10  2  0
  9  8  1  0
 10 11  1  0
 11 13  1  0
 11 12  2  0
 13 17  1  0
 14 15  2  0
 14 13  1  0
 15 16  1  0
 16 17  2  0
 18 23  2  0
 19 18  1  0
 20 19  2  0
 20 21  1  0
 21 22  2  0
 22 23  1  0
  2 24  1  0
  3 25  1  0
  4 26  1  0
  8 27  1  0
  9 28  1  0
 10 29  1  0
 14 30  1  0
 15 31  1  0
 17 32  1  0
 18 33  1  0
 19 34  1  0
 22 35  1  0
M  ISO  8  24  14  25  14  26  14  27  14  28  14  29  14  30  14  31  14
M  ISO  4  32  14  33  14  34  14  35  14
M  END
>  <minimizedAffinity>  (1) 
-6.25736856

>  <minimizedRMSD>  (1) 
1.20826495

$$$$
