
     RDKit          3D

 44 47  0  0  0  0  0  0  0  0999 V2000
   46.6060   34.6430   42.1510 C   0  0  0  0  0  0  0  0  0  0  0  0
   47.8820   35.1360   41.9970 C   0  0  0  0  0  0  0  0  0  0  0  0
   48.4250   34.9200   40.7570 C   0  0  0  0  0  0  0  0  0  0  0  0
   47.7450   34.2540   39.7310 C   0  0  0  0  0  0  0  0  0  0  0  0
   46.4690   33.7900   39.9660 C   0  0  0  0  0  0  0  0  0  0  0  0
   45.9490   34.0070   41.1830 N   0  0  0  0  0  0  0  0  0  0  0  0
   44.4680   35.9890   44.8880 C   0  0  0  0  0  0  0  0  0  0  0  0
   45.0940   35.8840   43.6320 C   0  0  0  0  0  0  0  0  0  0  0  0
   45.9240   34.8110   43.4330 C   0  0  0  0  0  0  0  0  0  0  0  0
   46.0960   33.9070   44.4620 N   0  0  0  0  0  0  0  0  0  0  0  0
   45.4760   34.0470   45.6510 C   0  0  0  0  0  0  0  0  0  0  0  0
   44.6560   35.0960   45.8610 N   0  0  0  0  0  0  0  0  0  0  0  0
   45.7380   33.0930   38.9300 C   0  0  0  0  0  0  0  0  0  0  0  0
   46.4220   32.4160   37.9570 C   0  0  0  0  0  0  0  0  0  0  0  0
   45.7440   31.7310   36.9560 C   0  0  0  0  0  0  0  0  0  0  0  0
   44.3660   31.8080   37.0480 C   0  0  0  0  0  0  0  0  0  0  0  0
   43.6420   32.4800   38.0090 C   0  0  0  0  0  0  0  0  0  0  0  0
   44.3830   33.1320   38.9650 N   0  0  0  0  0  0  0  0  0  0  0  0
   42.1740   32.4910   38.0030 C   0  0  0  0  0  0  0  0  0  0  0  0
   41.7810   33.9260   38.3840 C   0  0  0  0  0  0  0  0  0  0  0  0
   40.2880   34.1240   38.2380 C   0  0  0  0  0  0  0  0  0  0  0  0
   39.5110   32.9870   38.8670 C   0  0  0  0  0  0  0  0  0  0  0  0
   40.4860   32.2660   39.7770 C   0  0  0  0  0  0  0  0  0  0  0  0
   41.4660   31.5400   38.8530 C   0  0  0  0  0  0  0  0  0  0  0  0
   48.4204   35.6591   42.8010 H   0  0  0  0  0  0  0  0  0  0  0  0
   49.4428   35.2873   40.5591 H   0  0  0  0  0  0  0  0  0  0  0  0
   48.2221   34.1032   38.7514 H   0  0  0  0  0  0  0  0  0  0  0  0
   43.7974   36.8408   45.0747 H   0  0  0  0  0  0  0  0  0  0  0  0
   44.9245   36.6315   42.8430 H   0  0  0  0  0  0  0  0  0  0  0  0
   45.6390   33.3067   46.4481 H   0  0  0  0  0  0  0  0  0  0  0  0
   47.5219   32.4141   37.9675 H   0  0  0  0  0  0  0  0  0  0  0  0
   46.2590   31.1751   36.1587 H   0  0  0  0  0  0  0  0  0  0  0  0
   43.7891   31.2788   36.2752 H   0  0  0  0  0  0  0  0  0  0  0  0
   41.8633   32.1609   37.0007 H   0  0  0  0  0  0  0  0  0  0  0  0
   42.0707   34.1154   39.4281 H   0  0  0  0  0  0  0  0  0  0  0  0
   42.2997   34.6266   37.7130 H   0  0  0  0  0  0  0  0  0  0  0  0
   40.0031   35.0660   38.7294 H   0  0  0  0  0  0  0  0  0  0  0  0
   40.0480   34.1526   37.1649 H   0  0  0  0  0  0  0  0  0  0  0  0
   38.6639   33.3792   39.4489 H   0  0  0  0  0  0  0  0  0  0  0  0
   39.0980   32.3112   38.1037 H   0  0  0  0  0  0  0  0  0  0  0  0
   41.0217   32.9873   40.4116 H   0  0  0  0  0  0  0  0  0  0  0  0
   39.9683   31.5640   40.4473 H   0  0  0  0  0  0  0  0  0  0  0  0
   40.9093   30.8341   38.2192 H   0  0  0  0  0  0  0  0  0  0  0  0
   42.2007   31.0016   39.4696 H   0  0  0  0  0  0  0  0  0  0  0  0
  1  9  1  0
  2  1  2  0
  3  2  1  0
  4  5  1  0
  4  3  2  0
  5  6  2  0
  6  1  1  0
  7 12  2  0
  8  7  1  0
  9  8  2  0
  9 10  1  0
 10 11  2  0
 11 12  1  0
 13 18  1  0
 13  5  1  0
 14 13  2  0
 15 16  2  0
 15 14  1  0
 16 17  1  0
 17 18  2  0
 19 17  1  0
 19 20  1  0
 19 24  1  0
 21 20  1  0
 21 22  1  0
 22 23  1  0
 24 23  1  0
  2 25  1  0
  3 26  1  0
  4 27  1  0
  7 28  1  0
  8 29  1  0
 11 30  1  0
 14 31  1  0
 15 32  1  0
 16 33  1  0
 19 34  1  0
 20 35  1  0
 20 36  1  0
 21 37  1  0
 21 38  1  0
 22 39  1  0
 22 40  1  0
 23 41  1  0
 23 42  1  0
 24 43  1  0
 24 44  1  0
M  ISO  8  25  14  26  14  27  14  28  14  29  14  30  14  31  14  32  14
M  ISO  8  33  14  34  13  35  13  36  13  37  13  38  13  39  13  40  13
M  ISO  4  41  13  42  13  43  13  44  13
M  END
>  <minimizedAffinity>  (1) 
-6.24774837

>  <minimizedRMSD>  (1) 
1.65360868

$$$$
