
     RDKit          3D

 40 43  0  0  0  0  0  0  0  0999 V2000
   46.7880   34.7300   42.0640 C   0  0  0  0  0  0  0  0  0  0  0  0
   48.0320   35.2690   41.9560 C   0  0  0  0  0  0  0  0  0  0  0  0
   48.6260   35.0950   40.7270 C   0  0  0  0  0  0  0  0  0  0  0  0
   48.0020   34.4180   39.6680 C   0  0  0  0  0  0  0  0  0  0  0  0
   46.7440   33.9010   39.8540 C   0  0  0  0  0  0  0  0  0  0  0  0
   46.1710   34.0770   41.0650 N   0  0  0  0  0  0  0  0  0  0  0  0
   46.0660   33.1950   38.7880 C   0  0  0  0  0  0  0  0  0  0  0  0
   46.7590   32.8270   37.6670 C   0  0  0  0  0  0  0  0  0  0  0  0
   46.1290   32.1480   36.6320 C   0  0  0  0  0  0  0  0  0  0  0  0
   44.7700   31.8970   36.8550 C   0  0  0  0  0  0  0  0  0  0  0  0
   44.0540   32.2550   37.9650 C   0  0  0  0  0  0  0  0  0  0  0  0
   44.7470   32.9190   38.9370 N   0  0  0  0  0  0  0  0  0  0  0  0
   42.6950   31.9660   38.1140 N   0  0  0  0  0  0  0  0  0  0  0  0
   41.9350   31.0320   37.3270 C   0  0  0  0  0  0  0  0  0  0  0  0
   40.4860   31.4340   37.5510 C   0  0  0  0  0  0  0  0  0  0  0  0
   40.5760   32.8110   38.2220 C   0  0  0  0  0  0  0  0  0  0  0  0
   41.8070   32.5740   39.1050 C   0  0  0  0  0  0  0  0  0  0  0  0
   44.5010   35.9570   44.7560 C   0  0  0  0  0  0  0  0  0  0  0  0
   45.1830   35.8870   43.5180 C   0  0  0  0  0  0  0  0  0  0  0  0
   46.0580   34.8500   43.3220 C   0  0  0  0  0  0  0  0  0  0  0  0
   46.2200   33.9380   44.3430 N   0  0  0  0  0  0  0  0  0  0  0  0
   45.5570   34.0330   45.5070 C   0  0  0  0  0  0  0  0  0  0  0  0
   44.6990   35.0370   45.7170 N   0  0  0  0  0  0  0  0  0  0  0  0
   48.5235   35.8009   42.7840 H   0  0  0  0  0  0  0  0  0  0  0  0
   49.6344   35.5046   40.5677 H   0  0  0  0  0  0  0  0  0  0  0  0
   48.5143   34.3031   38.7014 H   0  0  0  0  0  0  0  0  0  0  0  0
   47.8282   33.0719   37.5845 H   0  0  0  0  0  0  0  0  0  0  0  0
   46.6524   31.8347   35.7167 H   0  0  0  0  0  0  0  0  0  0  0  0
   44.2261   31.3613   36.0630 H   0  0  0  0  0  0  0  0  0  0  0  0
   42.1100   30.0017   37.6704 H   0  0  0  0  0  0  0  0  0  0  0  0
   42.2157   31.0562   36.2637 H   0  0  0  0  0  0  0  0  0  0  0  0
   39.9474   31.5009   36.5942 H   0  0  0  0  0  0  0  0  0  0  0  0
   39.9359   30.7031   38.1619 H   0  0  0  0  0  0  0  0  0  0  0  0
   40.7430   33.6152   37.4903 H   0  0  0  0  0  0  0  0  0  0  0  0
   39.6699   33.1355   38.7546 H   0  0  0  0  0  0  0  0  0  0  0  0
   41.5899   31.8890   39.9379 H   0  0  0  0  0  0  0  0  0  0  0  0
   42.2048   33.4683   39.6070 H   0  0  0  0  0  0  0  0  0  0  0  0
   43.7945   36.7807   44.9361 H   0  0  0  0  0  0  0  0  0  0  0  0
   45.0160   36.6424   42.7360 H   0  0  0  0  0  0  0  0  0  0  0  0
   45.7207   33.2804   46.2924 H   0  0  0  0  0  0  0  0  0  0  0  0
  1 20  1  0
  2  1  2  0
  3  2  1  0
  4  5  1  0
  4  3  2  0
  5  6  2  0
  6  1  1  0
  7 12  1  0
  7  5  1  0
  8  7  2  0
  9 10  2  0
  9  8  1  0
 10 11  1  0
 11 13  1  0
 11 12  2  0
 13 17  1  0
 14 15  1  0
 14 13  1  0
 15 16  1  0
 16 17  1  0
 18 23  2  0
 19 18  1  0
 20 19  2  0
 20 21  1  0
 21 22  2  0
 22 23  1  0
  2 24  1  0
  3 25  1  0
  4 26  1  0
  8 27  1  0
  9 28  1  0
 10 29  1  0
 14 30  1  0
 14 31  1  0
 15 32  1  0
 15 33  1  0
 16 34  1  0
 16 35  1  0
 17 36  1  0
 17 37  1  0
 18 38  1  0
 19 39  1  0
 22 40  1  0
M  ISO  8  24  14  25  14  26  14  27  14  28  14  29  14  30  13  31  13
M  ISO  8  32  13  33  13  34  13  35  13  36  13  37  13  38  14  39  14
M  ISO  1  40  14
M  END
>  <minimizedAffinity>  (1) 
-6.24651718

>  <minimizedRMSD>  (1) 
1.04116976

$$$$
