
     RDKit          3D

 35 38  0  0  0  0  0  0  0  0999 V2000
   46.7730   34.7160   42.0600 C   0  0  0  0  0  0  0  0  0  0  0  0
   48.0050   35.2800   41.9310 C   0  0  0  0  0  0  0  0  0  0  0  0
   48.5980   35.0920   40.7010 C   0  0  0  0  0  0  0  0  0  0  0  0
   47.9840   34.3800   39.6660 C   0  0  0  0  0  0  0  0  0  0  0  0
   46.7390   33.8400   39.8710 C   0  0  0  0  0  0  0  0  0  0  0  0
   46.1680   34.0280   41.0720 N   0  0  0  0  0  0  0  0  0  0  0  0
   44.4960   35.9640   44.7400 C   0  0  0  0  0  0  0  0  0  0  0  0
   45.1720   35.8890   43.5050 C   0  0  0  0  0  0  0  0  0  0  0  0
   46.0440   34.8450   43.3160 C   0  0  0  0  0  0  0  0  0  0  0  0
   46.2030   33.9410   44.3370 N   0  0  0  0  0  0  0  0  0  0  0  0
   45.5380   34.0410   45.5070 C   0  0  0  0  0  0  0  0  0  0  0  0
   44.6890   35.0490   45.7050 N   0  0  0  0  0  0  0  0  0  0  0  0
   46.0700   33.0920   38.8200 C   0  0  0  0  0  0  0  0  0  0  0  0
   46.8140   32.4950   37.8270 C   0  0  0  0  0  0  0  0  0  0  0  0
   46.1820   31.7770   36.8210 C   0  0  0  0  0  0  0  0  0  0  0  0
   44.8020   31.7280   36.9150 C   0  0  0  0  0  0  0  0  0  0  0  0
   44.0520   32.3160   37.8940 C   0  0  0  0  0  0  0  0  0  0  0  0
   44.7290   33.0040   38.8490 N   0  0  0  0  0  0  0  0  0  0  0  0
   42.6340   32.2450   37.9610 C   0  0  0  0  0  0  0  0  0  0  0  0
   41.7120   33.1220   38.4050 C   0  0  0  0  0  0  0  0  0  0  0  0
   40.3860   32.8720   38.3860 C   0  0  0  0  0  0  0  0  0  0  0  0
   40.0550   31.5250   37.8260 C   0  0  0  0  0  0  0  0  0  0  0  0
   41.6770   30.8260   37.4120 S   0  0  0  0  0  0  0  0  0  0  0  0
   48.4890   35.8413   42.7438 H   0  0  0  0  0  0  0  0  0  0  0  0
   49.5961   35.5200   40.5263 H   0  0  0  0  0  0  0  0  0  0  0  0
   48.4928   34.2542   38.6989 H   0  0  0  0  0  0  0  0  0  0  0  0
   43.7936   36.7916   44.9179 H   0  0  0  0  0  0  0  0  0  0  0  0
   45.0066   36.6411   42.7195 H   0  0  0  0  0  0  0  0  0  0  0  0
   45.6965   33.2914   46.2963 H   0  0  0  0  0  0  0  0  0  0  0  0
   47.9101   32.5871   37.8309 H   0  0  0  0  0  0  0  0  0  0  0  0
   46.7368   31.2836   36.0094 H   0  0  0  0  0  0  0  0  0  0  0  0
   44.2637   31.1685   36.1358 H   0  0  0  0  0  0  0  0  0  0  0  0
   42.0569   34.0881   38.8020 H   0  0  0  0  0  0  0  0  0  0  0  0
   39.6281   33.5840   38.7447 H   0  0  0  0  0  0  0  0  0  0  0  0
   39.0634   31.0670   37.6961 H   0  0  0  0  0  0  0  0  0  0  0  0
  1  9  1  0
  2  1  2  0
  3  2  1  0
  4  5  1  0
  4  3  2  0
  5  6  2  0
  6  1  1  0
  7 12  2  0
  8  7  1  0
  9  8  2  0
  9 10  1  0
 10 11  2  0
 11 12  1  0
 13 18  1  0
 13  5  1  0
 14 13  2  0
 15 16  2  0
 15 14  1  0
 16 17  1  0
 17 19  1  0
 17 18  2  0
 19 20  2  0
 21 20  1  0
 22 21  2  0
 23 22  1  0
 23 19  1  0
  2 24  1  0
  3 25  1  0
  4 26  1  0
  7 27  1  0
  8 28  1  0
 11 29  1  0
 14 30  1  0
 15 31  1  0
 16 32  1  0
 20 33  1  0
 21 34  1  0
 22 35  1  0
M  ISO  8  24  14  25  14  26  14  27  14  28  14  29  14  30  14  31  14
M  ISO  4  32  14  33  14  34  14  35  14
M  END
>  <minimizedAffinity>  (1) 
-6.01357698

>  <minimizedRMSD>  (1) 
1.3990041

$$$$
