
     RDKit          3D

 37 39  0  0  0  0  0  0  0  0999 V2000
   46.8040   34.7420   42.0310 C   0  0  0  0  0  0  0  0  0  0  0  0
   48.0650   35.2940   41.9430 C   0  0  0  0  0  0  0  0  0  0  0  0
   48.6700   35.1390   40.7250 C   0  0  0  0  0  0  0  0  0  0  0  0
   48.0680   34.4750   39.6480 C   0  0  0  0  0  0  0  0  0  0  0  0
   46.8010   33.9480   39.8180 C   0  0  0  0  0  0  0  0  0  0  0  0
   46.2110   34.1030   41.0150 N   0  0  0  0  0  0  0  0  0  0  0  0
   44.5010   35.9380   44.7010 C   0  0  0  0  0  0  0  0  0  0  0  0
   45.1890   35.8790   43.4730 C   0  0  0  0  0  0  0  0  0  0  0  0
   46.0700   34.8470   43.2790 C   0  0  0  0  0  0  0  0  0  0  0  0
   46.2320   33.9280   44.2950 N   0  0  0  0  0  0  0  0  0  0  0  0
   45.5540   34.0170   45.4580 C   0  0  0  0  0  0  0  0  0  0  0  0
   44.6940   35.0130   45.6660 N   0  0  0  0  0  0  0  0  0  0  0  0
   46.1430   33.2510   38.7340 C   0  0  0  0  0  0  0  0  0  0  0  0
   46.8220   33.0220   37.5680 C   0  0  0  0  0  0  0  0  0  0  0  0
   46.2200   32.3500   36.5150 C   0  0  0  0  0  0  0  0  0  0  0  0
   44.9170   31.9550   36.7620 C   0  0  0  0  0  0  0  0  0  0  0  0
   44.1980   32.1710   37.9350 C   0  0  0  0  0  0  0  0  0  0  0  0
   44.8660   32.8370   38.9130 N   0  0  0  0  0  0  0  0  0  0  0  0
   42.8130   31.7060   38.0910 C   0  0  0  0  0  0  0  0  0  0  0  0
   41.8940   32.8570   38.3630 C   0  0  0  0  0  0  0  0  0  0  0  0
   42.4360   30.8970   36.8730 C   0  0  0  0  0  0  0  0  0  0  0  0
   48.5454   35.8164   42.7834 H   0  0  0  0  0  0  0  0  0  0  0  0
   49.6781   35.5561   40.5848 H   0  0  0  0  0  0  0  0  0  0  0  0
   48.5928   34.3750   38.6865 H   0  0  0  0  0  0  0  0  0  0  0  0
   43.7891   36.7576   44.8782 H   0  0  0  0  0  0  0  0  0  0  0  0
   45.0242   36.6378   42.6938 H   0  0  0  0  0  0  0  0  0  0  0  0
   45.7126   33.2609   46.2410 H   0  0  0  0  0  0  0  0  0  0  0  0
   47.8585   33.3755   37.4648 H   0  0  0  0  0  0  0  0  0  0  0  0
   46.7346   32.1480   35.5640 H   0  0  0  0  0  0  0  0  0  0  0  0
   44.3989   31.4184   35.9535 H   0  0  0  0  0  0  0  0  0  0  0  0
   42.7179   31.0479   38.9672 H   0  0  0  0  0  0  0  0  0  0  0  0
   41.7865   32.9916   39.4494 H   0  0  0  0  0  0  0  0  0  0  0  0
   42.3121   33.7728   37.9197 H   0  0  0  0  0  0  0  0  0  0  0  0
   40.9084   32.6520   37.9197 H   0  0  0  0  0  0  0  0  0  0  0  0
   41.9911   29.9423   37.1902 H   0  0  0  0  0  0  0  0  0  0  0  0
   41.7070   31.4590   36.2707 H   0  0  0  0  0  0  0  0  0  0  0  0
   43.3352   30.7003   36.2707 H   0  0  0  0  0  0  0  0  0  0  0  0
  1  9  1  0
  2  1  2  0
  3  2  1  0
  4  5  1  0
  4  3  2  0
  5  6  2  0
  6  1  1  0
  7 12  2  0
  8  7  1  0
  9  8  2  0
  9 10  1  0
 10 11  2  0
 11 12  1  0
 13 18  1  0
 13  5  1  0
 14 13  2  0
 15 16  2  0
 15 14  1  0
 16 17  1  0
 17 19  1  0
 17 18  2  0
 19 20  1  0
 21 19  1  0
  2 22  1  0
  3 23  1  0
  4 24  1  0
  7 25  1  0
  8 26  1  0
 11 27  1  0
 14 28  1  0
 15 29  1  0
 16 30  1  0
 19 31  1  0
 20 32  1  0
 20 33  1  0
 20 34  1  0
 21 35  1  0
 21 36  1  0
 21 37  1  0
M  ISO  8  22  14  23  14  24  14  25  14  26  14  27  14  28  14  29  14
M  ISO  8  30  14  31   8  32   8  33   8  34   8  35   8  36   8  37   8
M  END
>  <minimizedAffinity>  (1) 
-5.66908455

>  <minimizedRMSD>  (1) 
0.71400857

$$$$
