
     RDKit          3D

 45 49  0  0  0  0  0  0  0  0999 V2000
   46.2580   33.2200   38.8170 C   0  0  0  0  0  0  0  0  0  0  0  0
   47.0090   32.7880   37.7570 C   0  0  0  0  0  0  0  0  0  0  0  0
   46.4240   32.1030   36.7120 C   0  0  0  0  0  0  0  0  0  0  0  0
   45.0450   31.9090   36.8490 C   0  0  0  0  0  0  0  0  0  0  0  0
   44.2650   32.3330   37.9070 C   0  0  0  0  0  0  0  0  0  0  0  0
   44.9180   33.0030   38.8980 N   0  0  0  0  0  0  0  0  0  0  0  0
   46.8400   34.7670   42.1050 C   0  0  0  0  0  0  0  0  0  0  0  0
   48.0920   35.3430   42.0300 C   0  0  0  0  0  0  0  0  0  0  0  0
   48.7180   35.1790   40.8160 C   0  0  0  0  0  0  0  0  0  0  0  0
   48.1380   34.4870   39.7480 C   0  0  0  0  0  0  0  0  0  0  0  0
   46.8840   33.9380   39.8990 C   0  0  0  0  0  0  0  0  0  0  0  0
   46.2760   34.1030   41.0920 N   0  0  0  0  0  0  0  0  0  0  0  0
   44.5020   35.9310   44.7480 C   0  0  0  0  0  0  0  0  0  0  0  0
   45.1970   35.8950   43.5270 C   0  0  0  0  0  0  0  0  0  0  0  0
   46.0800   34.8750   43.3460 C   0  0  0  0  0  0  0  0  0  0  0  0
   46.2320   33.9560   44.3590 N   0  0  0  0  0  0  0  0  0  0  0  0
   45.5530   34.0150   45.5170 C   0  0  0  0  0  0  0  0  0  0  0  0
   44.6770   35.0130   45.7150 N   0  0  0  0  0  0  0  0  0  0  0  0
   42.8390   32.0410   37.9220 C   0  0  0  0  0  0  0  0  0  0  0  0
   42.0070   33.1780   38.3910 C   0  0  0  0  0  0  0  0  0  0  0  0
   42.3840   34.5240   38.4140 C   0  0  0  0  0  0  0  0  0  0  0  0
   41.3850   35.2870   38.8980 N   0  0  0  0  0  0  0  0  0  0  0  0
   40.3390   34.4980   39.2070 C   0  0  0  0  0  0  0  0  0  0  0  0
   39.0660   34.7230   39.7310 C   0  0  0  0  0  0  0  0  0  0  0  0
   38.2170   33.6500   39.9270 C   0  0  0  0  0  0  0  0  0  0  0  0
   38.5650   32.3360   39.6260 C   0  0  0  0  0  0  0  0  0  0  0  0
   39.8490   32.1580   39.1030 C   0  0  0  0  0  0  0  0  0  0  0  0
   40.7100   33.1930   38.8980 C   0  0  0  0  0  0  0  0  0  0  0  0
   48.0903   32.9892   37.7383 H   0  0  0  0  0  0  0  0  0  0  0  0
   46.9938   31.7398   35.8440 H   0  0  0  0  0  0  0  0  0  0  0  0
   44.5345   31.3683   36.0384 H   0  0  0  0  0  0  0  0  0  0  0  0
   48.5502   35.8868   42.8693 H   0  0  0  0  0  0  0  0  0  0  0  0
   49.7200   35.6117   40.6791 H   0  0  0  0  0  0  0  0  0  0  0  0
   48.6786   34.3821   38.7958 H   0  0  0  0  0  0  0  0  0  0  0  0
   43.7834   36.7458   44.9202 H   0  0  0  0  0  0  0  0  0  0  0  0
   45.0345   36.6579   42.7514 H   0  0  0  0  0  0  0  0  0  0  0  0
   45.7132   33.2536   46.2946 H   0  0  0  0  0  0  0  0  0  0  0  0
   42.5264   31.7788   36.9005 H   0  0  0  0  0  0  0  0  0  0  0  0
   42.6854   31.2135   38.6303 H   0  0  0  0  0  0  0  0  0  0  0  0
   43.3606   34.9068   38.0829 H   0  0  0  0  0  0  0  0  0  0  0  0
   41.4164   36.3101   39.0132 H   0  0  0  0  0  0  0  0  0  0  0  0
   38.7415   35.7428   39.9854 H   0  0  0  0  0  0  0  0  0  0  0  0
   37.2167   33.8439   40.3414 H   0  0  0  0  0  0  0  0  0  0  0  0
   37.8757   31.4943   39.7888 H   0  0  0  0  0  0  0  0  0  0  0  0
   40.1775   31.1400   38.8465 H   0  0  0  0  0  0  0  0  0  0  0  0
  1  6  1  0
  1 11  1  0
  2  1  2  0
  3  4  2  0
  3  2  1  0
  4  5  1  0
  5 19  1  0
  5  6  2  0
  7 15  1  0
  8  7  2  0
  9  8  1  0
 10 11  1  0
 10  9  2  0
 11 12  2  0
 12  7  1  0
 13 18  2  0
 14 13  1  0
 15 14  2  0
 15 16  1  0
 16 17  2  0
 17 18  1  0
 19 20  1  0
 20 21  2  0
 20 28  1  0
 21 22  1  0
 22 23  1  0
 23 24  2  0
 24 25  1  0
 26 25  2  0
 27 26  1  0
 28 27  2  0
 28 23  1  0
  2 29  1  0
  3 30  1  0
  4 31  1  0
  8 32  1  0
  9 33  1  0
 10 34  1  0
 13 35  1  0
 14 36  1  0
 17 37  1  0
 19 38  1  0
 19 39  1  0
 21 40  1  0
 22 41  1  0
 24 42  1  0
 25 43  1  0
 26 44  1  0
 27 45  1  0
M  ISO  8  29  14  30  14  31  14  32  14  33  14  34  14  35  14  36  14
M  ISO  8  37  14  38   8  39   8  40  14  41   9  42  14  43  14  44  14
M  ISO  1  45  14
M  END
>  <minimizedAffinity>  (1) 
-7.4958086

>  <minimizedRMSD>  (1) 
1.39076638

$$$$
