
     RDKit          3D

 42 46  0  0  0  0  0  0  0  0999 V2000
   46.0870   33.1740   38.7820 C   0  0  0  0  0  0  0  0  0  0  0  0
   46.8090   32.7140   37.7270 C   0  0  0  0  0  0  0  0  0  0  0  0
   46.1830   32.0160   36.6940 C   0  0  0  0  0  0  0  0  0  0  0  0
   44.8230   31.8500   36.8500 C   0  0  0  0  0  0  0  0  0  0  0  0
   44.0570   32.3120   37.9240 C   0  0  0  0  0  0  0  0  0  0  0  0
   44.7460   32.9820   38.8850 N   0  0  0  0  0  0  0  0  0  0  0  0
   46.7520   34.7330   42.0490 C   0  0  0  0  0  0  0  0  0  0  0  0
   48.0200   35.2830   41.9420 C   0  0  0  0  0  0  0  0  0  0  0  0
   48.6260   35.0980   40.7150 C   0  0  0  0  0  0  0  0  0  0  0  0
   48.0020   34.4100   39.6730 C   0  0  0  0  0  0  0  0  0  0  0  0
   46.7450   33.8890   39.8440 C   0  0  0  0  0  0  0  0  0  0  0  0
   46.1630   34.0790   41.0560 N   0  0  0  0  0  0  0  0  0  0  0  0
   44.4990   35.9910   44.7200 C   0  0  0  0  0  0  0  0  0  0  0  0
   45.1770   35.9130   43.4850 C   0  0  0  0  0  0  0  0  0  0  0  0
   46.0270   34.8670   43.2930 C   0  0  0  0  0  0  0  0  0  0  0  0
   46.1610   33.9600   44.3200 N   0  0  0  0  0  0  0  0  0  0  0  0
   45.5030   34.0600   45.4830 C   0  0  0  0  0  0  0  0  0  0  0  0
   44.6650   35.0870   45.6800 N   0  0  0  0  0  0  0  0  0  0  0  0
   42.6230   32.0530   37.9520 C   0  0  0  0  0  0  0  0  0  0  0  0
   41.8210   33.0130   38.6190 N   0  0  0  0  0  0  0  0  0  0  0  0
   41.4490   34.2620   38.2950 C   0  0  0  0  0  0  0  0  0  0  0  0
   40.6610   34.8170   39.2570 N   0  0  0  0  0  0  0  0  0  0  0  0
   40.5250   33.8910   40.2320 C   0  0  0  0  0  0  0  0  0  0  0  0
   39.8410   33.8990   41.4390 C   0  0  0  0  0  0  0  0  0  0  0  0
   39.8910   32.7920   42.2250 N   0  0  0  0  0  0  0  0  0  0  0  0
   40.5990   31.7030   41.8270 C   0  0  0  0  0  0  0  0  0  0  0  0
   41.2460   31.7370   40.6500 N   0  0  0  0  0  0  0  0  0  0  0  0
   41.2350   32.8010   39.8290 C   0  0  0  0  0  0  0  0  0  0  0  0
   47.8936   32.8930   37.6871 H   0  0  0  0  0  0  0  0  0  0  0  0
   46.7315   31.6283   35.8229 H   0  0  0  0  0  0  0  0  0  0  0  0
   44.2922   31.3038   36.0563 H   0  0  0  0  0  0  0  0  0  0  0  0
   48.5047   35.8235   42.7684 H   0  0  0  0  0  0  0  0  0  0  0  0
   49.6344   35.5066   40.5533 H   0  0  0  0  0  0  0  0  0  0  0  0
   48.5205   34.2852   38.7109 H   0  0  0  0  0  0  0  0  0  0  0  0
   43.8087   36.8295   44.8944 H   0  0  0  0  0  0  0  0  0  0  0  0
   45.0239   36.6719   42.7036 H   0  0  0  0  0  0  0  0  0  0  0  0
   45.6495   33.3052   46.2696 H   0  0  0  0  0  0  0  0  0  0  0  0
   42.2739   31.9910   36.9107 H   0  0  0  0  0  0  0  0  0  0  0  0
   42.5056   31.1236   38.5286 H   0  0  0  0  0  0  0  0  0  0  0  0
   41.7443   34.7736   37.3671 H   0  0  0  0  0  0  0  0  0  0  0  0
   39.2692   34.7845   41.7535 H   0  0  0  0  0  0  0  0  0  0  0  0
   40.6420   30.8047   42.4604 H   0  0  0  0  0  0  0  0  0  0  0  0
  1  6  1  0
  1 11  1  0
  2  1  2  0
  3  4  2  0
  3  2  1  0
  4  5  1  0
  5 19  1  0
  5  6  2  0
  7 15  1  0
  8  7  2  0
  9  8  1  0
 10 11  1  0
 10  9  2  0
 11 12  2  0
 12  7  1  0
 13 18  2  0
 14 13  1  0
 15 14  2  0
 15 16  1  0
 16 17  2  0
 17 18  1  0
 19 20  1  0
 20 28  1  0
 21 20  1  0
 21 22  2  0
 22 23  1  0
 23 24  2  0
 24 25  1  0
 26 25  2  0
 27 26  1  0
 28 23  1  0
 28 27  2  0
  2 29  1  0
  3 30  1  0
  4 31  1  0
  8 32  1  0
  9 33  1  0
 10 34  1  0
 13 35  1  0
 14 36  1  0
 17 37  1  0
 19 38  1  0
 19 39  1  0
 21 40  1  0
 24 41  1  0
 26 42  1  0
M  ISO  8  29  14  30  14  31  14  32  14  33  14  34  14  35  14  36  14
M  ISO  6  37  14  38   8  39   8  40  14  41  14  42  14
M  END
>  <minimizedAffinity>  (1) 
-6.90911484

>  <minimizedRMSD>  (1) 
1.1362462

$$$$
