
     RDKit          3D

 47 50  0  0  0  0  0  0  0  0999 V2000
   46.6480   34.6740   42.1550 C   0  0  0  0  0  0  0  0  0  0  0  0
   47.9320   35.1800   42.0240 C   0  0  0  0  0  0  0  0  0  0  0  0
   48.4950   34.9860   40.7840 C   0  0  0  0  0  0  0  0  0  0  0  0
   47.8240   34.3330   39.7460 C   0  0  0  0  0  0  0  0  0  0  0  0
   46.5480   33.8580   39.9520 C   0  0  0  0  0  0  0  0  0  0  0  0
   46.0050   34.0530   41.1720 N   0  0  0  0  0  0  0  0  0  0  0  0
   44.4700   35.9710   44.8710 C   0  0  0  0  0  0  0  0  0  0  0  0
   45.1150   35.8770   43.6200 C   0  0  0  0  0  0  0  0  0  0  0  0
   45.9520   34.8220   43.4270 C   0  0  0  0  0  0  0  0  0  0  0  0
   46.1100   33.9290   44.4510 N   0  0  0  0  0  0  0  0  0  0  0  0
   45.4810   34.0440   45.6360 C   0  0  0  0  0  0  0  0  0  0  0  0
   44.6570   35.0720   45.8430 N   0  0  0  0  0  0  0  0  0  0  0  0
   45.8440   33.1810   38.9000 C   0  0  0  0  0  0  0  0  0  0  0  0
   46.5230   32.6540   37.8480 C   0  0  0  0  0  0  0  0  0  0  0  0
   45.8610   31.9790   36.8250 C   0  0  0  0  0  0  0  0  0  0  0  0
   44.4890   31.9020   36.9890 C   0  0  0  0  0  0  0  0  0  0  0  0
   43.7690   32.4240   38.0420 C   0  0  0  0  0  0  0  0  0  0  0  0
   44.4860   33.0760   39.0120 N   0  0  0  0  0  0  0  0  0  0  0  0
   42.3070   32.2740   38.1140 C   0  0  0  0  0  0  0  0  0  0  0  0
   41.6330   33.4350   38.8310 C   0  0  0  0  0  0  0  0  0  0  0  0
   41.1300   32.8690   40.1450 C   0  0  0  0  0  0  0  0  0  0  0  0
   40.5890   33.9700   41.0220 C   0  0  0  0  0  0  0  0  0  0  0  0
   40.0400   35.1230   40.2280 C   0  0  0  0  0  0  0  0  0  0  0  0
   39.5240   34.7300   38.8810 C   0  0  0  0  0  0  0  0  0  0  0  0
   40.4420   33.9000   38.0530 C   0  0  0  0  0  0  0  0  0  0  0  0
   48.4567   35.6936   42.8431 H   0  0  0  0  0  0  0  0  0  0  0  0
   49.5135   35.3595   40.6020 H   0  0  0  0  0  0  0  0  0  0  0  0
   48.3128   34.1993   38.7697 H   0  0  0  0  0  0  0  0  0  0  0  0
   43.7883   36.8147   45.0536 H   0  0  0  0  0  0  0  0  0  0  0  0
   44.9480   36.6265   42.8323 H   0  0  0  0  0  0  0  0  0  0  0  0
   45.6453   33.2967   46.4263 H   0  0  0  0  0  0  0  0  0  0  0  0
   47.6167   32.7624   37.8031 H   0  0  0  0  0  0  0  0  0  0  0  0
   46.3842   31.5443   35.9605 H   0  0  0  0  0  0  0  0  0  0  0  0
   43.9211   31.3760   36.2074 H   0  0  0  0  0  0  0  0  0  0  0  0
   41.9085   32.2132   37.0905 H   0  0  0  0  0  0  0  0  0  0  0  0
   42.0942   31.3600   38.6879 H   0  0  0  0  0  0  0  0  0  0  0  0
   42.3306   34.2760   38.9579 H   0  0  0  0  0  0  0  0  0  0  0  0
   40.3303   32.1411   39.9431 H   0  0  0  0  0  0  0  0  0  0  0  0
   41.9666   32.3790   40.6647 H   0  0  0  0  0  0  0  0  0  0  0  0
   39.7840   33.5583   41.6484 H   0  0  0  0  0  0  0  0  0  0  0  0
   41.4218   34.3509   41.6313 H   0  0  0  0  0  0  0  0  0  0  0  0
   39.2154   35.5762   40.7977 H   0  0  0  0  0  0  0  0  0  0  0  0
   40.8702   35.8256   40.0631 H   0  0  0  0  0  0  0  0  0  0  0  0
   38.5945   34.1605   39.0285 H   0  0  0  0  0  0  0  0  0  0  0  0
   39.3889   35.6703   38.3265 H   0  0  0  0  0  0  0  0  0  0  0  0
   40.7883   34.4990   37.1978 H   0  0  0  0  0  0  0  0  0  0  0  0
   39.8871   33.0113   37.7178 H   0  0  0  0  0  0  0  0  0  0  0  0
  1  9  1  0
  2  1  2  0
  3  2  1  0
  4  5  1  0
  4  3  2  0
  5  6  2  0
  6  1  1  0
  7 12  2  0
  8  7  1  0
  9  8  2  0
  9 10  1  0
 10 11  2  0
 11 12  1  0
 13 18  1  0
 13  5  1  0
 14 13  2  0
 15 16  2  0
 15 14  1  0
 16 17  1  0
 17 19  1  0
 17 18  2  0
 19 20  1  0
 20 21  1  0
 21 22  1  0
 23 22  1  0
 24 23  1  0
 25 20  1  0
 25 24  1  0
  2 26  1  0
  3 27  1  0
  4 28  1  0
  7 29  1  0
  8 30  1  0
 11 31  1  0
 14 32  1  0
 15 33  1  0
 16 34  1  0
 19 35  1  0
 19 36  1  0
 20 37  1  0
 21 38  1  0
 21 39  1  0
 22 40  1  0
 22 41  1  0
 23 42  1  0
 23 43  1  0
 24 44  1  0
 24 45  1  0
 25 46  1  0
 25 47  1  0
M  ISO  8  26  14  27  14  28  14  29  14  30  14  31  14  32  14  33  14
M  ISO  8  34  14  35   8  36   8  37  13  38  13  39  13  40  13  41  13
M  ISO  6  42  13  43  13  44  13  45  13  46  13  47  13
M  END
>  <minimizedAffinity>  (1) 
-6.7357893

>  <minimizedRMSD>  (1) 
3.59359074

$$$$
