
     RDKit          3D

 40 43  0  0  0  0  0  0  0  0999 V2000
   46.0290   33.2650   38.7750 C   0  0  0  0  0  0  0  0  0  0  0  0
   46.6200   33.1690   37.5500 C   0  0  0  0  0  0  0  0  0  0  0  0
   45.9680   32.5320   36.4990 C   0  0  0  0  0  0  0  0  0  0  0  0
   44.7250   32.0380   36.8270 C   0  0  0  0  0  0  0  0  0  0  0  0
   44.0850   32.1090   38.0440 C   0  0  0  0  0  0  0  0  0  0  0  0
   44.7990   32.7550   39.0270 N   0  0  0  0  0  0  0  0  0  0  0  0
   46.7570   34.7240   42.0760 C   0  0  0  0  0  0  0  0  0  0  0  0
   48.0360   35.2350   41.9810 C   0  0  0  0  0  0  0  0  0  0  0  0
   48.6270   35.0610   40.7580 C   0  0  0  0  0  0  0  0  0  0  0  0
   47.9890   34.4170   39.6890 C   0  0  0  0  0  0  0  0  0  0  0  0
   46.7170   33.9350   39.8590 C   0  0  0  0  0  0  0  0  0  0  0  0
   46.1410   34.1110   41.0670 N   0  0  0  0  0  0  0  0  0  0  0  0
   44.4980   35.9830   44.7600 C   0  0  0  0  0  0  0  0  0  0  0  0
   45.1810   35.8900   43.5350 C   0  0  0  0  0  0  0  0  0  0  0  0
   46.0370   34.8520   43.3250 C   0  0  0  0  0  0  0  0  0  0  0  0
   46.1630   33.9670   44.3450 N   0  0  0  0  0  0  0  0  0  0  0  0
   45.5140   34.0540   45.5110 C   0  0  0  0  0  0  0  0  0  0  0  0
   44.6750   35.0740   45.7140 N   0  0  0  0  0  0  0  0  0  0  0  0
   42.7550   31.5460   38.2630 C   0  0  0  0  0  0  0  0  0  0  0  0
   41.7700   32.6580   38.2150 C   0  0  0  0  0  0  0  0  0  0  0  0
   40.4370   32.2860   38.0230 C   0  0  0  0  0  0  0  0  0  0  0  0
   39.4510   33.2550   37.9640 C   0  0  0  0  0  0  0  0  0  0  0  0
   39.8310   34.5840   38.1030 C   0  0  0  0  0  0  0  0  0  0  0  0
   41.1470   34.9360   38.2910 C   0  0  0  0  0  0  0  0  0  0  0  0
   42.0660   33.9770   38.3420 N   0  0  0  0  0  0  0  0  0  0  0  0
   47.6202   33.5986   37.3915 H   0  0  0  0  0  0  0  0  0  0  0  0
   46.4064   32.4318   35.4951 H   0  0  0  0  0  0  0  0  0  0  0  0
   44.1787   31.5260   36.0211 H   0  0  0  0  0  0  0  0  0  0  0  0
   48.5389   35.7403   42.8187 H   0  0  0  0  0  0  0  0  0  0  0  0
   49.6474   35.4435   40.6080 H   0  0  0  0  0  0  0  0  0  0  0  0
   48.5035   34.2996   38.7239 H   0  0  0  0  0  0  0  0  0  0  0  0
   43.8063   36.8208   44.9320 H   0  0  0  0  0  0  0  0  0  0  0  0
   45.0255   36.6484   42.7535 H   0  0  0  0  0  0  0  0  0  0  0  0
   45.6688   33.2958   46.2928 H   0  0  0  0  0  0  0  0  0  0  0  0
   42.5268   30.8114   37.4767 H   0  0  0  0  0  0  0  0  0  0  0  0
   42.7111   31.0395   39.2385 H   0  0  0  0  0  0  0  0  0  0  0  0
   40.1716   31.2236   37.9188 H   0  0  0  0  0  0  0  0  0  0  0  0
   38.3967   32.9809   37.8114 H   0  0  0  0  0  0  0  0  0  0  0  0
   39.0635   35.3709   38.0618 H   0  0  0  0  0  0  0  0  0  0  0  0
   41.4341   35.9925   38.3973 H   0  0  0  0  0  0  0  0  0  0  0  0
  1  6  1  0
  1 11  1  0
  2  1  2  0
  3  4  2  0
  3  2  1  0
  4  5  1  0
  5 19  1  0
  5  6  2  0
  7 15  1  0
  8  7  2  0
  9  8  1  0
 10 11  1  0
 10  9  2  0
 11 12  2  0
 12  7  1  0
 13 18  2  0
 14 13  1  0
 15 14  2  0
 15 16  1  0
 16 17  2  0
 17 18  1  0
 20 19  1  0
 20 25  1  0
 21 20  2  0
 22 21  1  0
 22 23  2  0
 23 24  1  0
 24 25  2  0
  2 26  1  0
  3 27  1  0
  4 28  1  0
  8 29  1  0
  9 30  1  0
 10 31  1  0
 13 32  1  0
 14 33  1  0
 17 34  1  0
 19 35  1  0
 19 36  1  0
 21 37  1  0
 22 38  1  0
 23 39  1  0
 24 40  1  0
M  ISO  8  26  14  27  14  28  14  29  14  30  14  31  14  32  14  33  14
M  ISO  7  34  14  35   8  36   8  37  14  38  14  39  14  40  14
M  END
>  <minimizedAffinity>  (1) 
-6.57263279

>  <minimizedRMSD>  (1) 
0.641673505

$$$$
