
     RDKit          3D

 39 42  0  0  0  0  0  0  0  0999 V2000
   45.8940   33.1840   38.8880 C   0  0  0  0  0  0  0  0  0  0  0  0
   46.5800   32.6840   37.8280 C   0  0  0  0  0  0  0  0  0  0  0  0
   45.9310   32.0190   36.7960 C   0  0  0  0  0  0  0  0  0  0  0  0
   44.5470   31.9240   36.9620 C   0  0  0  0  0  0  0  0  0  0  0  0
   43.8220   32.4220   38.0260 C   0  0  0  0  0  0  0  0  0  0  0  0
   44.5380   33.0640   39.0000 N   0  0  0  0  0  0  0  0  0  0  0  0
   46.6580   34.6900   42.1570 C   0  0  0  0  0  0  0  0  0  0  0  0
   47.9420   35.1960   42.0320 C   0  0  0  0  0  0  0  0  0  0  0  0
   48.5170   35.0000   40.7990 C   0  0  0  0  0  0  0  0  0  0  0  0
   47.8610   34.3440   39.7570 C   0  0  0  0  0  0  0  0  0  0  0  0
   46.5830   33.8650   39.9490 C   0  0  0  0  0  0  0  0  0  0  0  0
   46.0300   34.0640   41.1630 N   0  0  0  0  0  0  0  0  0  0  0  0
   44.4710   35.9690   44.8740 C   0  0  0  0  0  0  0  0  0  0  0  0
   45.1180   35.8900   43.6210 C   0  0  0  0  0  0  0  0  0  0  0  0
   45.9600   34.8410   43.4140 C   0  0  0  0  0  0  0  0  0  0  0  0
   46.1160   33.9380   44.4410 N   0  0  0  0  0  0  0  0  0  0  0  0
   45.4900   34.0370   45.6210 C   0  0  0  0  0  0  0  0  0  0  0  0
   44.6620   35.0590   45.8410 N   0  0  0  0  0  0  0  0  0  0  0  0
   42.3590   32.2590   38.0870 C   0  0  0  0  0  0  0  0  0  0  0  0
   41.6950   33.3610   38.8260 C   0  0  0  0  0  0  0  0  0  0  0  0
   41.4540   34.6180   38.3160 C   0  0  0  0  0  0  0  0  0  0  0  0
   40.8340   35.6200   39.0330 C   0  0  0  0  0  0  0  0  0  0  0  0
   40.4710   35.2830   40.2890 N   0  0  0  0  0  0  0  0  0  0  0  0
   40.6900   34.0710   40.8140 C   0  0  0  0  0  0  0  0  0  0  0  0
   41.2910   33.1340   40.0920 N   0  0  0  0  0  0  0  0  0  0  0  0
   47.6721   32.8083   37.7860 H   0  0  0  0  0  0  0  0  0  0  0  0
   46.4596   31.6039   35.9252 H   0  0  0  0  0  0  0  0  0  0  0  0
   43.9835   31.4049   36.1727 H   0  0  0  0  0  0  0  0  0  0  0  0
   48.4595   35.7130   42.8535 H   0  0  0  0  0  0  0  0  0  0  0  0
   49.5363   35.3758   40.6267 H   0  0  0  0  0  0  0  0  0  0  0  0
   48.3615   34.2097   38.7867 H   0  0  0  0  0  0  0  0  0  0  0  0
   43.7851   36.8077   45.0640 H   0  0  0  0  0  0  0  0  0  0  0  0
   44.9478   36.6477   42.8419 H   0  0  0  0  0  0  0  0  0  0  0  0
   45.6576   33.2812   46.4025 H   0  0  0  0  0  0  0  0  0  0  0  0
   41.9637   32.2340   37.0608 H   0  0  0  0  0  0  0  0  0  0  0  0
   42.1491   31.3223   38.6241 H   0  0  0  0  0  0  0  0  0  0  0  0
   41.7720   34.8333   37.2852 H   0  0  0  0  0  0  0  0  0  0  0  0
   40.6490   36.6196   38.6127 H   0  0  0  0  0  0  0  0  0  0  0  0
   40.3717   33.8520   41.8439 H   0  0  0  0  0  0  0  0  0  0  0  0
  1  6  1  0
  1 11  1  0
  2  1  2  0
  3  4  2  0
  3  2  1  0
  4  5  1  0
  5 19  1  0
  5  6  2  0
  7 15  1  0
  8  7  2  0
  9  8  1  0
 10 11  1  0
 10  9  2  0
 11 12  2  0
 12  7  1  0
 13 18  2  0
 14 13  1  0
 15 14  2  0
 15 16  1  0
 16 17  2  0
 17 18  1  0
 19 20  1  0
 20 25  1  0
 21 20  2  0
 21 22  1  0
 22 23  2  0
 23 24  1  0
 25 24  2  0
  2 26  1  0
  3 27  1  0
  4 28  1  0
  8 29  1  0
  9 30  1  0
 10 31  1  0
 13 32  1  0
 14 33  1  0
 17 34  1  0
 19 35  1  0
 19 36  1  0
 21 37  1  0
 22 38  1  0
 24 39  1  0
M  ISO  8  26  14  27  14  28  14  29  14  30  14  31  14  32  14  33  14
M  ISO  6  34  14  35   8  36   8  37  14  38  14  39  14
M  END
>  <minimizedAffinity>  (1) 
-6.38355398

>  <minimizedRMSD>  (1) 
3.56787395

$$$$
