
     RDKit          3D

 38 41  0  0  0  0  0  0  0  0999 V2000
   46.6420   34.6780   42.1640 C   0  0  0  0  0  0  0  0  0  0  0  0
   47.9260   35.1790   42.0330 C   0  0  0  0  0  0  0  0  0  0  0  0
   48.4990   34.9820   40.7930 C   0  0  0  0  0  0  0  0  0  0  0  0
   47.8240   34.3250   39.7610 C   0  0  0  0  0  0  0  0  0  0  0  0
   46.5530   33.8530   39.9580 C   0  0  0  0  0  0  0  0  0  0  0  0
   46.0050   34.0550   41.1830 N   0  0  0  0  0  0  0  0  0  0  0  0
   44.4710   35.9760   44.8850 C   0  0  0  0  0  0  0  0  0  0  0  0
   45.1130   35.8860   43.6330 C   0  0  0  0  0  0  0  0  0  0  0  0
   45.9490   34.8310   43.4280 C   0  0  0  0  0  0  0  0  0  0  0  0
   46.1010   33.9360   44.4630 N   0  0  0  0  0  0  0  0  0  0  0  0
   45.4820   34.0430   45.6390 C   0  0  0  0  0  0  0  0  0  0  0  0
   44.6590   35.0690   45.8570 N   0  0  0  0  0  0  0  0  0  0  0  0
   45.8470   33.1740   38.9070 C   0  0  0  0  0  0  0  0  0  0  0  0
   46.5250   32.6280   37.8630 C   0  0  0  0  0  0  0  0  0  0  0  0
   45.8650   31.9610   36.8370 C   0  0  0  0  0  0  0  0  0  0  0  0
   44.4760   31.9150   36.9900 C   0  0  0  0  0  0  0  0  0  0  0  0
   43.7580   32.4590   38.0380 C   0  0  0  0  0  0  0  0  0  0  0  0
   44.4870   33.0980   39.0040 N   0  0  0  0  0  0  0  0  0  0  0  0
   42.3000   32.3370   38.0760 C   0  0  0  0  0  0  0  0  0  0  0  0
   41.6560   33.4040   38.7970 N   0  0  0  0  0  0  0  0  0  0  0  0
   41.2150   33.5290   40.0620 C   0  0  0  0  0  0  0  0  0  0  0  0
   40.6610   34.8010   40.2280 C   0  0  0  0  0  0  0  0  0  0  0  0
   40.7680   35.4610   39.0380 N   0  0  0  0  0  0  0  0  0  0  0  0
   41.3690   34.5830   38.2160 C   0  0  0  0  0  0  0  0  0  0  0  0
   48.4484   35.6937   42.8529 H   0  0  0  0  0  0  0  0  0  0  0  0
   49.5183   35.3536   40.6116 H   0  0  0  0  0  0  0  0  0  0  0  0
   48.3150   34.1862   38.7865 H   0  0  0  0  0  0  0  0  0  0  0  0
   43.7912   36.8202   45.0724 H   0  0  0  0  0  0  0  0  0  0  0  0
   44.9447   36.6405   42.8504 H   0  0  0  0  0  0  0  0  0  0  0  0
   45.6491   33.2903   46.4236 H   0  0  0  0  0  0  0  0  0  0  0  0
   47.6210   32.7159   37.8291 H   0  0  0  0  0  0  0  0  0  0  0  0
   46.3888   31.5098   35.9814 H   0  0  0  0  0  0  0  0  0  0  0  0
   43.9030   31.3992   36.2054 H   0  0  0  0  0  0  0  0  0  0  0  0
   41.9229   32.3371   37.0426 H   0  0  0  0  0  0  0  0  0  0  0  0
   42.0659   31.4006   38.6037 H   0  0  0  0  0  0  0  0  0  0  0  0
   41.2801   32.7544   40.8403 H   0  0  0  0  0  0  0  0  0  0  0  0
   40.2178   35.1994   41.1526 H   0  0  0  0  0  0  0  0  0  0  0  0
   41.6043   34.8079   37.1653 H   0  0  0  0  0  0  0  0  0  0  0  0
  1  9  1  0
  2  1  2  0
  3  2  1  0
  4  5  1  0
  4  3  2  0
  5  6  2  0
  6  1  1  0
  7 12  2  0
  8  7  1  0
  9  8  2  0
  9 10  1  0
 10 11  2  0
 11 12  1  0
 13 18  1  0
 13  5  1  0
 14 13  2  0
 15 16  2  0
 15 14  1  0
 16 17  1  0
 17 19  1  0
 17 18  2  0
 19 20  1  0
 20 21  1  0
 21 22  2  0
 23 22  1  0
 24 20  1  0
 24 23  2  0
  2 25  1  0
  3 26  1  0
  4 27  1  0
  7 28  1  0
  8 29  1  0
 11 30  1  0
 14 31  1  0
 15 32  1  0
 16 33  1  0
 19 34  1  0
 19 35  1  0
 21 36  1  0
 22 37  1  0
 24 38  1  0
M  ISO  8  25  14  26  14  27  14  28  14  29  14  30  14  31  14  32  14
M  ISO  6  33  14  34   8  35   8  36  14  37  14  38  14
M  END
>  <minimizedAffinity>  (1) 
-6.02271843

>  <minimizedRMSD>  (1) 
3.16402388

$$$$
