
     RDKit          3D

 32 34  0  0  0  0  0  0  0  0999 V2000
   46.8050   34.7550   42.0230 C   0  0  0  0  0  0  0  0  0  0  0  0
   48.0730   35.3030   41.9340 C   0  0  0  0  0  0  0  0  0  0  0  0
   48.6810   35.1370   40.7150 C   0  0  0  0  0  0  0  0  0  0  0  0
   48.0640   34.4700   39.6550 C   0  0  0  0  0  0  0  0  0  0  0  0
   46.8060   33.9510   39.8070 C   0  0  0  0  0  0  0  0  0  0  0  0
   46.2200   34.1220   41.0150 N   0  0  0  0  0  0  0  0  0  0  0  0
   44.5060   35.9300   44.7000 C   0  0  0  0  0  0  0  0  0  0  0  0
   45.1890   35.8910   43.4620 C   0  0  0  0  0  0  0  0  0  0  0  0
   46.0630   34.8670   43.2680 C   0  0  0  0  0  0  0  0  0  0  0  0
   46.2110   33.9540   44.2870 N   0  0  0  0  0  0  0  0  0  0  0  0
   45.5510   34.0160   45.4490 C   0  0  0  0  0  0  0  0  0  0  0  0
   44.6890   35.0170   45.6530 N   0  0  0  0  0  0  0  0  0  0  0  0
   46.1590   33.2600   38.7280 C   0  0  0  0  0  0  0  0  0  0  0  0
   46.8370   33.0000   37.5810 C   0  0  0  0  0  0  0  0  0  0  0  0
   46.2330   32.3230   36.5220 C   0  0  0  0  0  0  0  0  0  0  0  0
   44.9190   31.9600   36.7570 C   0  0  0  0  0  0  0  0  0  0  0  0
   44.1920   32.2090   37.9190 C   0  0  0  0  0  0  0  0  0  0  0  0
   44.8590   32.8770   38.9060 N   0  0  0  0  0  0  0  0  0  0  0  0
   42.8010   31.7730   38.0460 C   0  0  0  0  0  0  0  0  0  0  0  0
   41.8280   33.2280   38.5700 S   0  0  0  0  0  0  0  0  0  0  0  0
   48.5540   35.8287   42.7720 H   0  0  0  0  0  0  0  0  0  0  0  0
   49.6920   35.5446   40.5676 H   0  0  0  0  0  0  0  0  0  0  0  0
   48.5899   34.3611   38.6950 H   0  0  0  0  0  0  0  0  0  0  0  0
   43.7941   36.7482   44.8837 H   0  0  0  0  0  0  0  0  0  0  0  0
   45.0206   36.6558   42.6895 H   0  0  0  0  0  0  0  0  0  0  0  0
   45.7153   33.2542   46.2253 H   0  0  0  0  0  0  0  0  0  0  0  0
   47.8821   33.3294   37.4852 H   0  0  0  0  0  0  0  0  0  0  0  0
   46.7562   32.0972   35.5811 H   0  0  0  0  0  0  0  0  0  0  0  0
   44.3987   31.4238   35.9497 H   0  0  0  0  0  0  0  0  0  0  0  0
   42.4323   31.4009   37.0787 H   0  0  0  0  0  0  0  0  0  0  0  0
   42.7115   30.9575   38.7788 H   0  0  0  0  0  0  0  0  0  0  0  0
   41.7907   33.2837   39.9384 H   0  0  0  0  0  0  0  0  0  0  0  0
  1  9  1  0
  2  1  2  0
  3  2  1  0
  4  5  1  0
  4  3  2  0
  5  6  2  0
  6  1  1  0
  7 12  2  0
  8  7  1  0
  9  8  2  0
  9 10  1  0
 10 11  2  0
 11 12  1  0
 13 18  1  0
 13  5  1  0
 14 13  2  0
 15 16  2  0
 15 14  1  0
 16 17  1  0
 17 19  1  0
 17 18  2  0
 19 20  1  0
  2 21  1  0
  3 22  1  0
  4 23  1  0
  7 24  1  0
  8 25  1  0
 11 26  1  0
 14 27  1  0
 15 28  1  0
 16 29  1  0
 19 30  1  0
 19 31  1  0
 20 32  1  0
M  ISO  8  21  14  22  14  23  14  24  14  25  14  26  14  27  14  28  14
M  ISO  4  29  14  30   8  31   8  32  11
M  END
>  <minimizedAffinity>  (1) 
-5.46136761

>  <minimizedRMSD>  (1) 
0.427662432

$$$$
