
     RDKit          3D

 23 24  0  0  0  0  0  0  0  0999 V2000
   46.6030   34.4020   41.5340 N   0  0  0  0  0  0  0  0  0  0  0  0
   46.0250   33.7830   40.4890 C   0  0  0  0  0  0  0  0  0  0  0  0
   46.6630   33.6260   39.2750 C   0  0  0  0  0  0  0  0  0  0  0  0
   46.0060   32.9440   38.1450 C   0  0  0  0  0  0  0  0  0  0  0  0
   47.9410   34.1520   39.2140 C   0  0  0  0  0  0  0  0  0  0  0  0
   48.5790   34.0390   38.1230 O   0  0  0  0  0  0  0  0  0  0  0  0
   48.5440   34.7800   40.2560 N   0  0  0  0  0  0  0  0  0  0  0  0
   47.8550   34.8990   41.4210 C   0  0  0  0  0  0  0  0  0  0  0  0
   48.4740   35.4880   42.3340 O   0  0  0  0  0  0  0  0  0  0  0  0
   44.6780   36.0150   44.2360 C   0  0  0  0  0  0  0  0  0  0  0  0
   45.2570   35.7760   42.9610 C   0  0  0  0  0  0  0  0  0  0  0  0
   46.0400   34.6140   42.8100 C   0  0  0  0  0  0  0  0  0  0  0  0
   46.1970   33.7910   43.8890 N   0  0  0  0  0  0  0  0  0  0  0  0
   45.6300   34.0570   45.0790 C   0  0  0  0  0  0  0  0  0  0  0  0
   44.8730   35.1600   45.2590 N   0  0  0  0  0  0  0  0  0  0  0  0
   45.0055   33.3870   40.6062 H   0  0  0  0  0  0  0  0  0  0  0  0
   45.2911   32.2019   38.5301 H   0  0  0  0  0  0  0  0  0  0  0  0
   45.4715   33.6837   37.5309 H   0  0  0  0  0  0  0  0  0  0  0  0
   46.7652   32.4375   37.5309 H   0  0  0  0  0  0  0  0  0  0  0  0
   49.4986   35.1562   40.1656 H   0  0  0  0  0  0  0  0  0  0  0  0
   44.0607   36.9122   44.3906 H   0  0  0  0  0  0  0  0  0  0  0  0
   45.1001   36.4715   42.1234 H   0  0  0  0  0  0  0  0  0  0  0  0
   45.7856   33.3645   45.9194 H   0  0  0  0  0  0  0  0  0  0  0  0
  1 12  1  0
  2  1  1  0
  3  2  2  0
  4  3  1  0
  5  3  1  0
  5  7  1  0
  6  5  2  0
  7  8  1  0
  8  1  1  0
  8  9  2  0
 10 15  2  0
 11 10  1  0
 12 11  2  0
 12 13  1  0
 13 14  2  0
 14 15  1  0
  2 16  1  0
  4 17  1  0
  4 18  1  0
  4 19  1  0
  7 20  1  0
 10 21  1  0
 11 22  1  0
 14 23  1  0
M  ISO  8  16  14  17   8  18   8  19   8  20   9  21  14  22  14  23  14
M  END
>  <minimizedAffinity>  (1) 
-4.74218893

>  <minimizedRMSD>  (1) 
0.882442236

$$$$
