
     RDKit          3D

 31 33  0  0  0  0  0  0  0  0999 V2000
   44.6610   35.9750   44.2360 C   0  0  0  0  0  0  0  0  0  0  0  0
   45.2450   35.7270   42.9670 C   0  0  0  0  0  0  0  0  0  0  0  0
   46.0700   34.6020   42.8210 C   0  0  0  0  0  0  0  0  0  0  0  0
   46.2690   33.8010   43.9030 N   0  0  0  0  0  0  0  0  0  0  0  0
   45.6960   34.0700   45.0930 C   0  0  0  0  0  0  0  0  0  0  0  0
   44.9030   35.1370   45.2720 N   0  0  0  0  0  0  0  0  0  0  0  0
   46.6290   34.3990   41.5380 N   0  0  0  0  0  0  0  0  0  0  0  0
   46.0440   33.7810   40.4950 C   0  0  0  0  0  0  0  0  0  0  0  0
   46.6670   33.6270   39.2730 C   0  0  0  0  0  0  0  0  0  0  0  0
   47.9330   34.1590   39.2100 C   0  0  0  0  0  0  0  0  0  0  0  0
   48.5630   34.0510   38.1100 O   0  0  0  0  0  0  0  0  0  0  0  0
   48.5410   34.7830   40.2400 N   0  0  0  0  0  0  0  0  0  0  0  0
   47.8730   34.9040   41.4230 C   0  0  0  0  0  0  0  0  0  0  0  0
   48.4890   35.4900   42.3350 O   0  0  0  0  0  0  0  0  0  0  0  0
   46.0050   32.9460   38.1470 C   0  0  0  0  0  0  0  0  0  0  0  0
   45.9410   33.1800   46.2230 C   0  0  0  0  0  0  0  0  0  0  0  0
   46.9780   32.2700   46.2150 C   0  0  0  0  0  0  0  0  0  0  0  0
   47.2280   31.4120   47.2850 C   0  0  0  0  0  0  0  0  0  0  0  0
   46.4300   31.4590   48.3880 N   0  0  0  0  0  0  0  0  0  0  0  0
   45.4300   32.3500   48.3730 C   0  0  0  0  0  0  0  0  0  0  0  0
   45.1740   33.1960   47.3330 N   0  0  0  0  0  0  0  0  0  0  0  0
   44.0100   36.8501   44.3788 H   0  0  0  0  0  0  0  0  0  0  0  0
   45.0554   36.4006   42.1183 H   0  0  0  0  0  0  0  0  0  0  0  0
   45.0268   33.3820   40.6219 H   0  0  0  0  0  0  0  0  0  0  0  0
   49.4932   35.1615   40.1349 H   0  0  0  0  0  0  0  0  0  0  0  0
   45.2876   32.2081   38.5354 H   0  0  0  0  0  0  0  0  0  0  0  0
   45.4725   33.6867   37.5324 H   0  0  0  0  0  0  0  0  0  0  0  0
   46.7605   32.4347   37.5324 H   0  0  0  0  0  0  0  0  0  0  0  0
   47.6317   32.2196   45.3317 H   0  0  0  0  0  0  0  0  0  0  0  0
   48.0656   30.7005   47.2388 H   0  0  0  0  0  0  0  0  0  0  0  0
   44.7738   32.4032   49.2543 H   0  0  0  0  0  0  0  0  0  0  0  0
  1  6  2  0
  2  1  1  0
  3  2  2  0
  3  4  1  0
  4  5  2  0
  5  6  1  0
  5 16  1  0
  7  3  1  0
  8  7  1  0
  9  8  2  0
 10  9  1  0
 10 12  1  0
 11 10  2  0
 12 13  1  0
 13  7  1  0
 13 14  2  0
 15  9  1  0
 16 21  1  0
 17 16  2  0
 17 18  1  0
 18 19  2  0
 20 19  1  0
 21 20  2  0
  1 22  1  0
  2 23  1  0
  8 24  1  0
 12 25  1  0
 15 26  1  0
 15 27  1  0
 15 28  1  0
 17 29  1  0
 18 30  1  0
 20 31  1  0
M  ISO  8  22  14  23  14  24  14  25   9  26   8  27   8  28   8  29  14
M  ISO  2  30  14  31  14
M  END
>  <minimizedAffinity>  (1) 
-6.18305588

>  <minimizedRMSD>  (1) 
0.420559227

$$$$
