
     RDKit          3D

 30 32  0  0  0  0  0  0  0  0999 V2000
   46.5800   34.4060   41.5610 N   0  0  0  0  0  0  0  0  0  0  0  0
   46.0060   33.7860   40.5230 C   0  0  0  0  0  0  0  0  0  0  0  0
   46.6660   33.6240   39.3130 C   0  0  0  0  0  0  0  0  0  0  0  0
   47.9380   34.1410   39.2530 C   0  0  0  0  0  0  0  0  0  0  0  0
   48.5520   34.0020   38.1560 O   0  0  0  0  0  0  0  0  0  0  0  0
   48.5380   34.7710   40.2860 N   0  0  0  0  0  0  0  0  0  0  0  0
   47.8420   34.8990   41.4480 C   0  0  0  0  0  0  0  0  0  0  0  0
   48.4700   35.4960   42.3560 O   0  0  0  0  0  0  0  0  0  0  0  0
   44.6320   36.0410   44.2190 C   0  0  0  0  0  0  0  0  0  0  0  0
   45.2000   35.7870   42.9420 C   0  0  0  0  0  0  0  0  0  0  0  0
   46.0270   34.6390   42.8310 C   0  0  0  0  0  0  0  0  0  0  0  0
   46.2110   33.8780   43.9370 N   0  0  0  0  0  0  0  0  0  0  0  0
   45.6530   34.1580   45.1230 C   0  0  0  0  0  0  0  0  0  0  0  0
   44.8620   35.2370   45.2730 N   0  0  0  0  0  0  0  0  0  0  0  0
   45.8810   33.3220   46.2530 N   0  0  0  0  0  0  0  0  0  0  0  0
   45.0870   33.2790   47.3340 C   0  0  0  0  0  0  0  0  0  0  0  0
   45.6820   32.3410   48.1740 C   0  0  0  0  0  0  0  0  0  0  0  0
   46.7850   31.8550   47.6000 N   0  0  0  0  0  0  0  0  0  0  0  0
   46.9230   32.4640   46.3900 C   0  0  0  0  0  0  0  0  0  0  0  0
   45.9820   32.9290   38.1930 C   0  0  0  0  0  0  0  0  0  0  0  0
   44.9838   33.3944   40.6319 H   0  0  0  0  0  0  0  0  0  0  0  0
   49.4941   35.1435   40.1968 H   0  0  0  0  0  0  0  0  0  0  0  0
   43.9851   36.9209   44.3500 H   0  0  0  0  0  0  0  0  0  0  0  0
   45.0086   36.4466   42.0828 H   0  0  0  0  0  0  0  0  0  0  0  0
   44.1690   33.8570   47.5163 H   0  0  0  0  0  0  0  0  0  0  0  0
   45.3004   32.0449   49.1623 H   0  0  0  0  0  0  0  0  0  0  0  0
   47.7282   32.2925   45.6605 H   0  0  0  0  0  0  0  0  0  0  0  0
   45.2645   32.1999   38.5975 H   0  0  0  0  0  0  0  0  0  0  0  0
   45.4473   33.6661   37.5760 H   0  0  0  0  0  0  0  0  0  0  0  0
   46.7276   32.4061   37.5760 H   0  0  0  0  0  0  0  0  0  0  0  0
  1 11  1  0
  2  1  1  0
  3  2  2  0
  4  3  1  0
  4  6  1  0
  5  4  2  0
  6  7  1  0
  7  1  1  0
  7  8  2  0
  9 14  2  0
 10  9  1  0
 11 10  2  0
 11 12  1  0
 12 13  2  0
 13 14  1  0
 13 15  1  0
 15 19  1  0
 15 16  1  0
 16 17  2  0
 18 17  1  0
 19 18  2  0
 20  3  1  0
  2 21  1  0
  6 22  1  0
  9 23  1  0
 10 24  1  0
 16 25  1  0
 17 26  1  0
 19 27  1  0
 20 28  1  0
 20 29  1  0
 20 30  1  0
M  ISO  8  21  14  22   9  23  14  24  14  25  14  26  14  27  14  28   8
M  ISO  2  29   8  30   8
M  END
>  <minimizedAffinity>  (1) 
-6.1148181

>  <minimizedRMSD>  (1) 
0.109375492

$$$$
