
     RDKit          3D

 37 40  0  0  0  0  0  0  0  0999 V2000
   46.6890   34.3700   41.4410 N   0  0  0  0  0  0  0  0  0  0  0  0
   46.1140   33.7550   40.3910 C   0  0  0  0  0  0  0  0  0  0  0  0
   46.7040   33.6650   39.1580 C   0  0  0  0  0  0  0  0  0  0  0  0
   47.9420   34.2580   39.0700 C   0  0  0  0  0  0  0  0  0  0  0  0
   48.5410   34.2080   37.9490 O   0  0  0  0  0  0  0  0  0  0  0  0
   48.5480   34.8820   40.1000 N   0  0  0  0  0  0  0  0  0  0  0  0
   47.9010   34.9280   41.2890 C   0  0  0  0  0  0  0  0  0  0  0  0
   48.5200   35.5230   42.2030 O   0  0  0  0  0  0  0  0  0  0  0  0
   44.7190   35.7680   44.2310 C   0  0  0  0  0  0  0  0  0  0  0  0
   45.2680   35.5960   42.9250 C   0  0  0  0  0  0  0  0  0  0  0  0
   46.1670   34.5110   42.7320 C   0  0  0  0  0  0  0  0  0  0  0  0
   46.4320   33.7240   43.8030 N   0  0  0  0  0  0  0  0  0  0  0  0
   45.8980   33.9150   45.0140 C   0  0  0  0  0  0  0  0  0  0  0  0
   45.0410   34.9340   45.2370 N   0  0  0  0  0  0  0  0  0  0  0  0
   46.2380   33.0210   46.1000 C   0  0  0  0  0  0  0  0  0  0  0  0
   45.8220   31.8510   46.1390 O   0  0  0  0  0  0  0  0  0  0  0  0
   47.0370   33.3960   47.1510 O   0  0  0  0  0  0  0  0  0  0  0  0
   46.0290   32.9770   38.0400 C   0  0  0  0  0  0  0  0  0  0  0  0
   44.7980   32.3220   38.4700 N   0  0  0  0  0  0  0  0  0  0  0  0
   44.6630   31.0210   38.8280 C   0  0  0  0  0  0  0  0  0  0  0  0
   43.4210   30.7090   39.1710 N   0  0  0  0  0  0  0  0  0  0  0  0
   42.6850   31.8330   39.0440 C   0  0  0  0  0  0  0  0  0  0  0  0
   41.3660   32.1860   39.2360 C   0  0  0  0  0  0  0  0  0  0  0  0
   40.9460   33.4540   39.0050 N   0  0  0  0  0  0  0  0  0  0  0  0
   41.8020   34.3810   38.5890 C   0  0  0  0  0  0  0  0  0  0  0  0
   43.1090   34.0880   38.3830 N   0  0  0  0  0  0  0  0  0  0  0  0
   43.5500   32.8180   38.6100 C   0  0  0  0  0  0  0  0  0  0  0  0
   45.1212   33.3022   40.5298 H   0  0  0  0  0  0  0  0  0  0  0  0
   49.4771   35.3118   39.9859 H   0  0  0  0  0  0  0  0  0  0  0  0
   44.0204   36.5967   44.4187 H   0  0  0  0  0  0  0  0  0  0  0  0
   45.0063   36.2755   42.1005 H   0  0  0  0  0  0  0  0  0  0  0  0
   47.2425   32.7493   47.8719 H   0  0  0  0  0  0  0  0  0  0  0  0
   46.7097   32.2187   37.6257 H   0  0  0  0  0  0  0  0  0  0  0  0
   45.7683   33.7308   37.2825 H   0  0  0  0  0  0  0  0  0  0  0  0
   45.4950   30.3015   38.8332 H   0  0  0  0  0  0  0  0  0  0  0  0
   40.6458   31.4294   39.5808 H   0  0  0  0  0  0  0  0  0  0  0  0
   41.4433   35.4051   38.4085 H   0  0  0  0  0  0  0  0  0  0  0  0
  1 11  1  0
  2  1  1  0
  3  2  2  0
  4  3  1  0
  4  6  1  0
  5  4  2  0
  6  7  1  0
  7  1  1  0
  7  8  2  0
  9 14  2  0
 10  9  1  0
 11 10  2  0
 11 12  1  0
 12 13  2  0
 13 14  1  0
 13 15  1  0
 15 16  2  0
 15 17  1  0
 18 19  1  0
 18  3  1  0
 19 27  1  0
 19 20  1  0
 20 21  2  0
 22 21  1  0
 22 23  2  0
 24 23  1  0
 25 24  2  0
 26 25  1  0
 26 27  2  0
 27 22  1  0
  2 28  1  0
  6 29  1  0
  9 30  1  0
 10 31  1  0
 17 32  1  0
 18 33  1  0
 18 34  1  0
 20 35  1  0
 23 36  1  0
 25 37  1  0
M  ISO  8  28  14  29   9  30  14  31  14  32   3  33   8  34   8  35  14
M  ISO  2  36  14  37  14
M  END
>  <minimizedAffinity>  (1) 
-6.35357094

>  <minimizedRMSD>  (1) 
3.03651953

$$$$
