
     RDKit          3D

 19 19  0  0  0  0  0  0  0  0999 V2000
   45.4120   35.9210   43.1030 C   0  0  0  0  0  0  0  0  0  0  0  0
   46.2050   34.7510   43.0840 C   0  0  0  0  0  0  0  0  0  0  0  0
   46.1680   33.9200   44.2180 C   0  0  0  0  0  0  0  0  0  0  0  0
   45.3690   34.3020   45.2600 N   0  0  0  0  0  0  0  0  0  0  0  0
   44.6260   35.4200   45.2510 C   0  0  0  0  0  0  0  0  0  0  0  0
   44.6510   36.2310   44.1620 N   0  0  0  0  0  0  0  0  0  0  0  0
   47.0650   34.3400   41.9610 C   0  0  0  0  0  0  0  0  0  0  0  0
   46.2620   34.1740   40.7060 C   0  0  0  0  0  0  0  0  0  0  0  0
   48.1530   35.3850   41.8020 C   0  0  0  0  0  0  0  0  0  0  0  0
   45.4196   36.5910   42.2306 H   0  0  0  0  0  0  0  0  0  0  0  0
   46.7612   32.9948   44.2652 H   0  0  0  0  0  0  0  0  0  0  0  0
   44.0016   35.6773   46.1193 H   0  0  0  0  0  0  0  0  0  0  0  0
   47.5241   33.3616   42.1660 H   0  0  0  0  0  0  0  0  0  0  0  0
   45.2154   33.9576   40.9663 H   0  0  0  0  0  0  0  0  0  0  0  0
   46.3089   35.1008   40.1154 H   0  0  0  0  0  0  0  0  0  0  0  0
   46.6725   33.3417   40.1154 H   0  0  0  0  0  0  0  0  0  0  0  0
   48.4944   35.7129   42.7949 H   0  0  0  0  0  0  0  0  0  0  0  0
   48.9989   34.9522   41.2479 H   0  0  0  0  0  0  0  0  0  0  0  0
   47.7546   36.2477   41.2479 H   0  0  0  0  0  0  0  0  0  0  0  0
  1  6  2  0
  2  1  1  0
  2  3  2  0
  3  4  1  0
  5  4  2  0
  6  5  1  0
  7  2  1  0
  8  7  1  0
  9  7  1  0
  1 10  1  0
  3 11  1  0
  5 12  1  0
  7 13  1  0
  8 14  1  0
  8 15  1  0
  8 16  1  0
  9 17  1  0
  9 18  1  0
  9 19  1  0
M  ISO  8  10  14  11  14  12  14  13   8  14   8  15   8  16   8  17   8
M  ISO  2  18   8  19   8
M  END
>  <minimizedAffinity>  (1) 
-3.57191324

>  <minimizedRMSD>  (1) 
2.2040987

$$$$
