
     RDKit          3D

 37 39  0  0  0  0  0  0  0  0999 V2000
   46.6760   34.3160   41.4610 N   0  0  0  0  0  0  0  0  0  0  0  0
   46.1170   33.6190   40.4390 C   0  0  0  0  0  0  0  0  0  0  0  0
   46.7040   33.5180   39.2070 C   0  0  0  0  0  0  0  0  0  0  0  0
   47.8970   34.1740   39.0830 C   0  0  0  0  0  0  0  0  0  0  0  0
   48.4870   34.1120   37.9540 O   0  0  0  0  0  0  0  0  0  0  0  0
   48.4900   34.8830   40.0880 N   0  0  0  0  0  0  0  0  0  0  0  0
   47.8510   34.9390   41.2750 C   0  0  0  0  0  0  0  0  0  0  0  0
   48.4410   35.6040   42.1610 O   0  0  0  0  0  0  0  0  0  0  0  0
   44.7110   35.7540   44.2390 C   0  0  0  0  0  0  0  0  0  0  0  0
   45.2620   35.5570   42.9410 C   0  0  0  0  0  0  0  0  0  0  0  0
   46.1510   34.4780   42.7580 C   0  0  0  0  0  0  0  0  0  0  0  0
   46.4260   33.6940   43.8330 N   0  0  0  0  0  0  0  0  0  0  0  0
   45.8850   33.9110   45.0450 C   0  0  0  0  0  0  0  0  0  0  0  0
   45.0340   34.9310   45.2490 N   0  0  0  0  0  0  0  0  0  0  0  0
   46.2280   33.0290   46.1440 C   0  0  0  0  0  0  0  0  0  0  0  0
   45.7700   31.8700   46.2320 O   0  0  0  0  0  0  0  0  0  0  0  0
   47.0730   33.4030   47.1570 O   0  0  0  0  0  0  0  0  0  0  0  0
   46.0730   32.7590   38.1190 C   0  0  0  0  0  0  0  0  0  0  0  0
   44.6800   32.5050   38.4250 N   0  0  0  0  0  0  0  0  0  0  0  0
   43.8200   33.5180   38.2680 C   0  0  0  0  0  0  0  0  0  0  0  0
   42.4890   33.2980   38.5530 C   0  0  0  0  0  0  0  0  0  0  0  0
   42.1220   32.0390   38.9880 C   0  0  0  0  0  0  0  0  0  0  0  0
   40.7800   31.7480   39.3000 N   0  0  0  0  0  0  0  0  0  0  0  0
   43.0270   31.0550   39.1300 N   0  0  0  0  0  0  0  0  0  0  0  0
   44.3400   31.2580   38.8510 C   0  0  0  0  0  0  0  0  0  0  0  0
   45.2570   30.3980   38.9530 O   0  0  0  0  0  0  0  0  0  0  0  0
   45.1538   33.1153   40.6079 H   0  0  0  0  0  0  0  0  0  0  0  0
   49.3927   35.3580   39.9451 H   0  0  0  0  0  0  0  0  0  0  0  0
   44.0150   36.5873   44.4155 H   0  0  0  0  0  0  0  0  0  0  0  0
   45.0023   36.2257   42.1071 H   0  0  0  0  0  0  0  0  0  0  0  0
   47.2802   32.7687   47.8884 H   0  0  0  0  0  0  0  0  0  0  0  0
   46.5976   31.8003   37.9936 H   0  0  0  0  0  0  0  0  0  0  0  0
   46.1341   33.3463   37.1909 H   0  0  0  0  0  0  0  0  0  0  0  0
   44.1664   34.5023   37.9200 H   0  0  0  0  0  0  0  0  0  0  0  0
   41.7436   34.0987   38.4378 H   0  0  0  0  0  0  0  0  0  0  0  0
   40.5191   30.8055   39.6233 H   0  0  0  0  0  0  0  0  0  0  0  0
   40.0593   32.4777   39.2049 H   0  0  0  0  0  0  0  0  0  0  0  0
  1 11  1  0
  2  1  1  0
  3  2  2  0
  4  3  1  0
  4  6  1  0
  5  4  2  0
  6  7  1  0
  7  1  1  0
  7  8  2  0
  9 14  2  0
 10  9  1  0
 11 10  2  0
 11 12  1  0
 12 13  2  0
 13 14  1  0
 13 15  1  0
 15 16  2  0
 15 17  1  0
 18 19  1  0
 18  3  1  0
 19 25  1  0
 20 19  1  0
 20 21  2  0
 21 22  1  0
 22 24  2  0
 22 23  1  0
 25 26  2  0
 25 24  1  0
  2 27  1  0
  6 28  1  0
  9 29  1  0
 10 30  1  0
 17 31  1  0
 18 32  1  0
 18 33  1  0
 20 34  1  0
 21 35  1  0
 23 36  1  0
 23 37  1  0
M  ISO  8  27  14  28   9  29  14  30  14  31   3  32   8  33   8  34  14
M  ISO  1  35  14
M  END
>  <minimizedAffinity>  (1) 
-6.06084824

>  <minimizedRMSD>  (1) 
0.868428826

$$$$
