
     RDKit          3D

 28 29  0  0  0  0  0  0  0  0999 V2000
   46.7310   34.3370   41.2660 N   0  0  0  0  0  0  0  0  0  0  0  0
   46.1950   33.6730   40.2240 C   0  0  0  0  0  0  0  0  0  0  0  0
   46.8090   33.5910   38.9980 C   0  0  0  0  0  0  0  0  0  0  0  0
   48.0210   34.2430   38.9140 C   0  0  0  0  0  0  0  0  0  0  0  0
   48.6490   34.2090   37.8010 O   0  0  0  0  0  0  0  0  0  0  0  0
   48.5830   34.9160   39.9370 N   0  0  0  0  0  0  0  0  0  0  0  0
   47.9230   34.9590   41.1240 C   0  0  0  0  0  0  0  0  0  0  0  0
   48.5030   35.6000   42.0310 O   0  0  0  0  0  0  0  0  0  0  0  0
   44.6970   35.7040   44.0200 C   0  0  0  0  0  0  0  0  0  0  0  0
   45.2660   35.5360   42.7240 C   0  0  0  0  0  0  0  0  0  0  0  0
   46.1850   34.4800   42.5550 C   0  0  0  0  0  0  0  0  0  0  0  0
   46.4570   33.7080   43.6280 N   0  0  0  0  0  0  0  0  0  0  0  0
   45.9090   33.8920   44.8260 C   0  0  0  0  0  0  0  0  0  0  0  0
   45.0310   34.8810   45.0340 N   0  0  0  0  0  0  0  0  0  0  0  0
   46.2550   33.0150   45.9320 C   0  0  0  0  0  0  0  0  0  0  0  0
   45.9130   31.8050   45.9480 O   0  0  0  0  0  0  0  0  0  0  0  0
   46.9760   33.4390   47.0320 O   0  0  0  0  0  0  0  0  0  0  0  0
   46.2040   32.8620   37.8810 C   0  0  0  0  0  0  0  0  0  0  0  0
   45.8270   33.7810   36.8360 N   0  0  0  0  0  0  0  0  0  0  0  0
   45.2238   33.1749   40.3606 H   0  0  0  0  0  0  0  0  0  0  0  0
   49.4918   35.3869   39.8220 H   0  0  0  0  0  0  0  0  0  0  0  0
   43.9758   36.5159   44.1950 H   0  0  0  0  0  0  0  0  0  0  0  0
   44.9993   36.2024   41.8904 H   0  0  0  0  0  0  0  0  0  0  0  0
   47.1870   32.8029   47.7607 H   0  0  0  0  0  0  0  0  0  0  0  0
   46.9299   32.1372   37.4838 H   0  0  0  0  0  0  0  0  0  0  0  0
   45.3068   32.3354   38.2384 H   0  0  0  0  0  0  0  0  0  0  0  0
   45.4701   34.6510   37.2562 H   0  0  0  0  0  0  0  0  0  0  0  0
   46.6489   33.9934   36.2526 H   0  0  0  0  0  0  0  0  0  0  0  0
  1 11  1  0
  2  1  1  0
  3  2  2  0
  4  3  1  0
  4  6  1  0
  5  4  2  0
  6  7  1  0
  7  1  1  0
  7  8  2  0
  9 14  2  0
 10  9  1  0
 11 10  2  0
 11 12  1  0
 12 13  2  0
 13 14  1  0
 13 15  1  0
 15 16  2  0
 15 17  1  0
 18  3  1  0
 19 18  1  0
  2 20  1  0
  6 21  1  0
  9 22  1  0
 10 23  1  0
 17 24  1  0
 18 25  1  0
 18 26  1  0
 19 27  1  0
 19 28  1  0
M  ISO  8  20  14  21   9  22  14  23  14  24   3  25   8  26   8  27   5
M  ISO  1  28   5
M  END
>  <minimizedAffinity>  (1) 
-6.01174974

>  <minimizedRMSD>  (1) 
0.559028566

$$$$
