
     RDKit          3D

 42 45  0  0  0  0  0  0  0  0999 V2000
   46.7870   34.2630   41.2440 N   0  0  0  0  0  0  0  0  0  0  0  0
   46.3560   33.4990   40.2370 C   0  0  0  0  0  0  0  0  0  0  0  0
   47.0020   33.4120   39.0110 C   0  0  0  0  0  0  0  0  0  0  0  0
   48.1320   34.1780   38.9110 C   0  0  0  0  0  0  0  0  0  0  0  0
   48.7610   34.1350   37.8130 O   0  0  0  0  0  0  0  0  0  0  0  0
   48.5920   34.9520   39.8980 N   0  0  0  0  0  0  0  0  0  0  0  0
   47.9030   34.9860   41.0680 C   0  0  0  0  0  0  0  0  0  0  0  0
   48.4180   35.7470   41.9410 O   0  0  0  0  0  0  0  0  0  0  0  0
   44.6810   35.6640   43.9150 C   0  0  0  0  0  0  0  0  0  0  0  0
   45.2790   35.4770   42.6370 C   0  0  0  0  0  0  0  0  0  0  0  0
   46.2140   34.4240   42.5090 C   0  0  0  0  0  0  0  0  0  0  0  0
   46.4760   33.6680   43.6050 N   0  0  0  0  0  0  0  0  0  0  0  0
   45.8940   33.8760   44.7850 C   0  0  0  0  0  0  0  0  0  0  0  0
   44.9990   34.8660   44.9510 N   0  0  0  0  0  0  0  0  0  0  0  0
   46.2250   33.0200   45.9170 C   0  0  0  0  0  0  0  0  0  0  0  0
   45.8620   31.8270   45.9710 O   0  0  0  0  0  0  0  0  0  0  0  0
   46.9650   33.4750   47.0040 O   0  0  0  0  0  0  0  0  0  0  0  0
   46.4440   32.5490   37.9450 C   0  0  0  0  0  0  0  0  0  0  0  0
   46.3840   33.2750   36.7150 N   0  0  0  0  0  0  0  0  0  0  0  0
   46.9140   32.6520   35.6440 C   0  0  0  0  0  0  0  0  0  0  0  0
   45.5820   32.2720   35.0410 C   0  0  0  0  0  0  0  0  0  0  0  0
   45.6250   31.5670   33.8440 N   0  0  0  0  0  0  0  0  0  0  0  0
   46.9250   31.3870   33.5010 C   0  0  0  0  0  0  0  0  0  0  0  0
   47.8420   30.8690   32.6290 C   0  0  0  0  0  0  0  0  0  0  0  0
   49.2020   30.9830   32.8190 C   0  0  0  0  0  0  0  0  0  0  0  0
   49.7950   31.6330   33.9130 C   0  0  0  0  0  0  0  0  0  0  0  0
   48.8530   32.1660   34.8020 C   0  0  0  0  0  0  0  0  0  0  0  0
   47.4450   32.0250   34.5670 C   0  0  0  0  0  0  0  0  0  0  0  0
   45.4408   32.9074   40.3867 H   0  0  0  0  0  0  0  0  0  0  0  0
   49.4490   35.5098   39.7746 H   0  0  0  0  0  0  0  0  0  0  0  0
   43.9486   36.4722   44.0579 H   0  0  0  0  0  0  0  0  0  0  0  0
   45.0245   36.1243   41.7848 H   0  0  0  0  0  0  0  0  0  0  0  0
   47.1697   32.8628   47.7546 H   0  0  0  0  0  0  0  0  0  0  0  0
   47.0869   31.6657   37.8165 H   0  0  0  0  0  0  0  0  0  0  0  0
   45.4298   32.2316   38.2288 H   0  0  0  0  0  0  0  0  0  0  0  0
   45.9632   34.2130   36.6515 H   0  0  0  0  0  0  0  0  0  0  0  0
   44.6299   32.5388   35.5231 H   0  0  0  0  0  0  0  0  0  0  0  0
   44.8090   31.2375   33.3087 H   0  0  0  0  0  0  0  0  0  0  0  0
   47.4782   30.3381   31.7369 H   0  0  0  0  0  0  0  0  0  0  0  0
   49.8660   30.5358   32.0647 H   0  0  0  0  0  0  0  0  0  0  0  0
   50.8825   31.7149   34.0566 H   0  0  0  0  0  0  0  0  0  0  0  0
   49.1995   32.7029   35.6974 H   0  0  0  0  0  0  0  0  0  0  0  0
  1 11  1  0
  2  1  1  0
  3  2  2  0
  4  3  1  0
  4  6  1  0
  5  4  2  0
  6  7  1  0
  7  1  1  0
  7  8  2  0
  9 14  2  0
 10  9  1  0
 11 10  2  0
 11 12  1  0
 12 13  2  0
 13 14  1  0
 13 15  1  0
 15 16  2  0
 15 17  1  0
 18  3  1  0
 19 18  1  0
 20 19  1  0
 21 20  2  0
 22 21  1  0
 23 22  1  0
 23 28  2  0
 24 25  2  0
 24 23  1  0
 25 26  1  0
 26 27  2  0
 28 27  1  0
 28 20  1  0
  2 29  1  0
  6 30  1  0
  9 31  1  0
 10 32  1  0
 17 33  1  0
 18 34  1  0
 18 35  1  0
 19 36  1  0
 21 37  1  0
 22 38  1  0
 24 39  1  0
 25 40  1  0
 26 41  1  0
 27 42  1  0
M  ISO  8  29  14  30   9  31  14  32  14  33   3  34   8  35   8  37  14
M  ISO  5  38   9  39  14  40  14  41  14  42  14
M  END
>  <minimizedAffinity>  (1) 
-6.79872084

>  <minimizedRMSD>  (1) 
1.33363307

$$$$
