
     RDKit          3D

 33 35  0  0  0  0  0  0  0  0999 V2000
   46.7330   34.3050   41.3070 N   0  0  0  0  0  0  0  0  0  0  0  0
   46.2320   33.5750   40.2860 C   0  0  0  0  0  0  0  0  0  0  0  0
   46.8480   33.4890   39.0560 C   0  0  0  0  0  0  0  0  0  0  0  0
   48.0100   34.1990   38.9370 C   0  0  0  0  0  0  0  0  0  0  0  0
   48.6230   34.1560   37.8210 O   0  0  0  0  0  0  0  0  0  0  0  0
   48.5400   34.9380   39.9330 N   0  0  0  0  0  0  0  0  0  0  0  0
   47.8840   34.9830   41.1260 C   0  0  0  0  0  0  0  0  0  0  0  0
   48.4430   35.6910   41.9980 O   0  0  0  0  0  0  0  0  0  0  0  0
   44.7240   35.7270   44.0400 C   0  0  0  0  0  0  0  0  0  0  0  0
   45.2880   35.5400   42.7540 C   0  0  0  0  0  0  0  0  0  0  0  0
   46.1910   34.4630   42.5950 C   0  0  0  0  0  0  0  0  0  0  0  0
   46.4570   33.6850   43.6690 N   0  0  0  0  0  0  0  0  0  0  0  0
   45.8960   33.9080   44.8640 C   0  0  0  0  0  0  0  0  0  0  0  0
   45.0410   34.9090   45.0620 N   0  0  0  0  0  0  0  0  0  0  0  0
   46.2350   33.0260   45.9740 C   0  0  0  0  0  0  0  0  0  0  0  0
   45.8510   31.8290   46.0140 O   0  0  0  0  0  0  0  0  0  0  0  0
   46.9980   33.4450   47.0570 O   0  0  0  0  0  0  0  0  0  0  0  0
   46.2700   32.6880   37.9790 C   0  0  0  0  0  0  0  0  0  0  0  0
   46.0340   33.5160   36.8130 N   0  0  0  0  0  0  0  0  0  0  0  0
   45.5150   32.6570   35.7950 C   0  0  0  0  0  0  0  0  0  0  0  0
   44.7800   31.6390   36.3340 N   0  0  0  0  0  0  0  0  0  0  0  0
   44.3280   30.8780   35.3540 O   0  0  0  0  0  0  0  0  0  0  0  0
   44.7350   31.3530   34.1990 C   0  0  0  0  0  0  0  0  0  0  0  0
   45.4810   32.4650   34.4420 N   0  0  0  0  0  0  0  0  0  0  0  0
   45.2920   33.0257   40.4434 H   0  0  0  0  0  0  0  0  0  0  0  0
   49.4196   35.4559   39.7949 H   0  0  0  0  0  0  0  0  0  0  0  0
   44.0165   36.5527   44.2064 H   0  0  0  0  0  0  0  0  0  0  0  0
   45.0344   36.2042   41.9147 H   0  0  0  0  0  0  0  0  0  0  0  0
   47.2054   32.8132   47.7904 H   0  0  0  0  0  0  0  0  0  0  0  0
   46.9655   31.8777   37.7149 H   0  0  0  0  0  0  0  0  0  0  0  0
   45.3134   32.2647   38.3191 H   0  0  0  0  0  0  0  0  0  0  0  0
   46.2069   34.5282   36.7333 H   0  0  0  0  0  0  0  0  0  0  0  0
   44.5121   30.9270   33.2096 H   0  0  0  0  0  0  0  0  0  0  0  0
  1 11  1  0
  2  1  1  0
  3  2  2  0
  4  3  1  0
  4  6  1  0
  5  4  2  0
  6  7  1  0
  7  1  1  0
  7  8  2  0
  9 14  2  0
 10  9  1  0
 11 10  2  0
 11 12  1  0
 12 13  2  0
 13 14  1  0
 13 15  1  0
 15 16  2  0
 15 17  1  0
 18  3  1  0
 19 18  1  0
 20 21  2  0
 20 19  1  0
 22 21  1  0
 23 24  2  0
 23 22  1  0
 24 20  1  0
  2 25  1  0
  6 26  1  0
  9 27  1  0
 10 28  1  0
 17 29  1  0
 18 30  1  0
 18 31  1  0
 19 32  1  0
 23 33  1  0
M  ISO  8  25  14  26   9  27  14  28  14  29   3  30   8  31   8  33  14
M  END
>  <minimizedAffinity>  (1) 
-6.47390652

>  <minimizedRMSD>  (1) 
0.262660623

$$$$
