
     RDKit          3D

 40 42  0  0  1  0  0  0  0  0999 V2000
   46.6750   34.2740   41.6860 N   0  0  0  0  0  0  0  0  0  0  0  0
   46.1780   33.5230   40.6940 C   0  0  0  0  0  0  0  0  0  0  0  0
   46.7670   33.4320   39.4630 C   0  0  0  0  0  0  0  0  0  0  0  0
   47.9240   34.1770   39.3040 C   0  0  0  0  0  0  0  0  0  0  0  0
   48.5270   34.1380   38.1770 O   0  0  0  0  0  0  0  0  0  0  0  0
   48.4500   34.9430   40.2830 N   0  0  0  0  0  0  0  0  0  0  0  0
   47.8160   34.9900   41.4840 C   0  0  0  0  0  0  0  0  0  0  0  0
   48.3590   35.7200   42.3450 O   0  0  0  0  0  0  0  0  0  0  0  0
   44.7010   35.6850   44.4560 C   0  0  0  0  0  0  0  0  0  0  0  0
   45.2510   35.4950   43.1570 C   0  0  0  0  0  0  0  0  0  0  0  0
   46.1500   34.4350   42.9790 C   0  0  0  0  0  0  0  0  0  0  0  0
   46.4300   33.6720   44.0580 N   0  0  0  0  0  0  0  0  0  0  0  0
   45.9080   33.8640   45.2650 C   0  0  0  0  0  0  0  0  0  0  0  0
   45.0450   34.8650   45.4730 N   0  0  0  0  0  0  0  0  0  0  0  0
   46.2650   32.9920   46.3720 C   0  0  0  0  0  0  0  0  0  0  0  0
   45.7380   31.8710   46.5260 O   0  0  0  0  0  0  0  0  0  0  0  0
   47.2080   33.3450   47.3250 O   0  0  0  0  0  0  0  0  0  0  0  0
   46.2060   32.6010   38.3830 C   0  0  0  0  0  0  0  0  0  0  0  0
   45.9600   33.4020   37.2210 N   0  0  0  0  0  0  0  0  0  0  0  0
   45.1320   33.1150   34.9810 N   0  0  0  0  0  0  0  0  0  0  0  0
   45.3650   32.1200   33.9250 C   0  0  0  0  0  0  0  0  0  0  0  0
   46.7580   31.6170   34.1220 C   0  0  0  0  0  0  0  0  0  0  0  0
   47.2120   32.2670   35.4230 C   0  0  0  0  0  0  0  0  0  0  0  0
   45.8730   32.5290   36.0790 C   0  0  1  0  0  0  0  0  0  0  0  0
   45.2547   32.9540   40.8779 H   0  0  0  0  0  0  0  0  0  0  0  0
   49.3139   35.4807   40.1231 H   0  0  0  0  0  0  0  0  0  0  0  0
   43.9904   36.5058   44.6331 H   0  0  0  0  0  0  0  0  0  0  0  0
   44.9797   36.1574   42.3217 H   0  0  0  0  0  0  0  0  0  0  0  0
   47.4225   32.7218   48.0637 H   0  0  0  0  0  0  0  0  0  0  0  0
   46.9197   31.8031   38.1301 H   0  0  0  0  0  0  0  0  0  0  0  0
   45.2571   32.1611   38.7238 H   0  0  0  0  0  0  0  0  0  0  0  0
   45.0750   33.9167   37.3340 H   0  0  0  0  0  0  0  0  0  0  0  0
   44.1303   33.2024   35.2043 H   0  0  0  0  0  0  0  0  0  0  0  0
   45.2651   32.5863   32.9337 H   0  0  0  0  0  0  0  0  0  0  0  0
   44.6329   31.3008   33.9793 H   0  0  0  0  0  0  0  0  0  0  0  0
   46.7677   30.5206   34.2100 H   0  0  0  0  0  0  0  0  0  0  0  0
   47.4174   31.8631   33.2766 H   0  0  0  0  0  0  0  0  0  0  0  0
   47.8324   31.5852   36.0233 H   0  0  0  0  0  0  0  0  0  0  0  0
   47.8434   33.1586   35.2953 H   0  0  0  0  0  0  0  0  0  0  0  0
   45.4074   31.6290   36.5070 H   0  0  0  0  0  0  0  0  0  0  0  0
  1 11  1  0
  2  1  1  0
  3  2  2  0
  4  3  1  0
  4  6  1  0
  5  4  2  0
  6  7  1  0
  7  1  1  0
  7  8  2  0
  9 14  2  0
 10  9  1  0
 11 10  2  0
 11 12  1  0
 12 13  2  0
 13 14  1  0
 13 15  1  0
 15 16  2  0
 15 17  1  0
 18  3  1  0
 19 18  1  0
 20 24  1  0
 21 22  1  0
 21 20  1  0
 22 23  1  0
 23 24  1  0
 24 19  1  0
  2 25  1  0
  6 26  1  0
  9 27  1  0
 10 28  1  0
 17 29  1  0
 18 30  1  0
 18 31  1  0
 19 32  1  0
 20 33  1  0
 21 34  1  0
 21 35  1  0
 22 36  1  0
 22 37  1  0
 23 38  1  0
 23 39  1  0
 24 40  1  1
M  ISO  8  25  14  26   9  27  14  28  14  29   3  30   8  31   8  32   5
M  ISO  8  33   5  34  13  35  13  36  13  37  13  38  13  39  13  40  13
M  END
>  <minimizedAffinity>  (1) 
-6.38161993

>  <minimizedRMSD>  (1) 
0.929981709

$$$$
