
     RDKit          3D

 36 38  0  0  0  0  0  0  0  0999 V2000
   46.7740   34.2280   41.2600 N   0  0  0  0  0  0  0  0  0  0  0  0
   46.3180   33.4240   40.2790 C   0  0  0  0  0  0  0  0  0  0  0  0
   46.9310   33.3120   39.0660 C   0  0  0  0  0  0  0  0  0  0  0  0
   48.0650   34.0910   38.9120 C   0  0  0  0  0  0  0  0  0  0  0  0
   48.7060   34.0500   37.8050 O   0  0  0  0  0  0  0  0  0  0  0  0
   48.5490   34.9080   39.8770 N   0  0  0  0  0  0  0  0  0  0  0  0
   47.8950   34.9740   41.0580 C   0  0  0  0  0  0  0  0  0  0  0  0
   48.3940   35.7470   41.9050 O   0  0  0  0  0  0  0  0  0  0  0  0
   44.7360   35.7010   43.9530 C   0  0  0  0  0  0  0  0  0  0  0  0
   45.3180   35.4840   42.6750 C   0  0  0  0  0  0  0  0  0  0  0  0
   46.2160   34.4140   42.5440 C   0  0  0  0  0  0  0  0  0  0  0  0
   46.4580   33.6740   43.6360 N   0  0  0  0  0  0  0  0  0  0  0  0
   45.8990   33.8970   44.8230 C   0  0  0  0  0  0  0  0  0  0  0  0
   45.0440   34.9010   44.9900 N   0  0  0  0  0  0  0  0  0  0  0  0
   46.2240   33.0370   45.9560 C   0  0  0  0  0  0  0  0  0  0  0  0
   45.8260   31.8470   46.0130 O   0  0  0  0  0  0  0  0  0  0  0  0
   46.9830   33.4680   47.0360 O   0  0  0  0  0  0  0  0  0  0  0  0
   46.4430   32.4460   38.0030 C   0  0  0  0  0  0  0  0  0  0  0  0
   46.3750   33.1720   36.7480 N   0  0  0  0  0  0  0  0  0  0  0  0
   46.4650   32.3880   35.5630 C   0  0  0  0  0  0  0  0  0  0  0  0
   47.6630   32.2230   34.8970 C   0  0  0  0  0  0  0  0  0  0  0  0
   47.7990   31.4670   33.7360 C   0  0  0  0  0  0  0  0  0  0  0  0
   46.7000   30.8580   33.2280 N   0  0  0  0  0  0  0  0  0  0  0  0
   45.5290   31.0320   33.8990 C   0  0  0  0  0  0  0  0  0  0  0  0
   45.4010   31.7630   35.0210 N   0  0  0  0  0  0  0  0  0  0  0  0
   45.4102   32.8313   40.4653 H   0  0  0  0  0  0  0  0  0  0  0  0
   49.3982   35.4678   39.7145 H   0  0  0  0  0  0  0  0  0  0  0  0
   44.0275   36.5302   44.0958 H   0  0  0  0  0  0  0  0  0  0  0  0
   45.0735   36.1311   41.8198 H   0  0  0  0  0  0  0  0  0  0  0  0
   47.1781   32.8480   47.7828 H   0  0  0  0  0  0  0  0  0  0  0  0
   47.1258   31.5910   37.8902 H   0  0  0  0  0  0  0  0  0  0  0  0
   45.4347   32.0934   38.2656 H   0  0  0  0  0  0  0  0  0  0  0  0
   46.2678   34.1959   36.7165 H   0  0  0  0  0  0  0  0  0  0  0  0
   48.5579   32.7152   35.3056 H   0  0  0  0  0  0  0  0  0  0  0  0
   48.7766   31.3662   33.2420 H   0  0  0  0  0  0  0  0  0  0  0  0
   44.6288   30.5433   33.4980 H   0  0  0  0  0  0  0  0  0  0  0  0
  1 11  1  0
  2  1  1  0
  3  2  2  0
  4  3  1  0
  4  6  1  0
  5  4  2  0
  6  7  1  0
  7  1  1  0
  7  8  2  0
  9 14  2  0
 10  9  1  0
 11 10  2  0
 11 12  1  0
 12 13  2  0
 13 14  1  0
 13 15  1  0
 15 16  2  0
 15 17  1  0
 18  3  1  0
 19 18  1  0
 20 19  1  0
 21 20  2  0
 22 21  1  0
 23 22  2  0
 23 24  1  0
 24 25  2  0
 25 20  1  0
  2 26  1  0
  6 27  1  0
  9 28  1  0
 10 29  1  0
 17 30  1  0
 18 31  1  0
 18 32  1  0
 19 33  1  0
 21 34  1  0
 22 35  1  0
 24 36  1  0
M  ISO  8  26  14  27   9  28  14  29  14  30   3  31   8  32   8  34  14
M  ISO  2  35  14  36  14
M  END
>  <minimizedAffinity>  (1) 
-6.04190588

>  <minimizedRMSD>  (1) 
1.28514922

$$$$
