
     RDKit          3D

 30 31  0  0  0  0  0  0  0  0999 V2000
   46.7250   34.3530   41.6040 N   0  0  0  0  0  0  0  0  0  0  0  0
   46.1840   33.7020   40.5680 C   0  0  0  0  0  0  0  0  0  0  0  0
   46.7720   33.6300   39.3350 C   0  0  0  0  0  0  0  0  0  0  0  0
   47.9860   34.2910   39.2380 C   0  0  0  0  0  0  0  0  0  0  0  0
   48.6010   34.2750   38.1260 O   0  0  0  0  0  0  0  0  0  0  0  0
   48.5610   34.9600   40.2680 N   0  0  0  0  0  0  0  0  0  0  0  0
   47.9120   34.9840   41.4630 C   0  0  0  0  0  0  0  0  0  0  0  0
   48.4930   35.6170   42.3760 O   0  0  0  0  0  0  0  0  0  0  0  0
   44.7110   35.6720   44.4020 C   0  0  0  0  0  0  0  0  0  0  0  0
   45.2610   35.5250   43.0980 C   0  0  0  0  0  0  0  0  0  0  0  0
   46.1900   34.4790   42.9090 C   0  0  0  0  0  0  0  0  0  0  0  0
   46.4790   33.7090   43.9690 N   0  0  0  0  0  0  0  0  0  0  0  0
   45.9550   33.8600   45.1800 C   0  0  0  0  0  0  0  0  0  0  0  0
   45.0710   34.8390   45.4030 N   0  0  0  0  0  0  0  0  0  0  0  0
   46.3210   32.9830   46.2760 C   0  0  0  0  0  0  0  0  0  0  0  0
   45.8510   31.8090   46.3490 O   0  0  0  0  0  0  0  0  0  0  0  0
   47.1770   33.3430   47.2850 O   0  0  0  0  0  0  0  0  0  0  0  0
   46.1690   32.9170   38.2160 C   0  0  0  0  0  0  0  0  0  0  0  0
   45.0980   33.6910   37.6530 N   0  0  0  0  0  0  0  0  0  0  0  0
   43.8060   33.2770   38.0850 C   0  0  0  0  0  0  0  0  0  0  0  0
   42.8140   33.9230   38.4740 O   0  0  0  0  0  0  0  0  0  0  0  0
   45.2169   33.1989   40.7152 H   0  0  0  0  0  0  0  0  0  0  0  0
   49.4657   35.4375   40.1484 H   0  0  0  0  0  0  0  0  0  0  0  0
   43.9837   36.4737   44.5976 H   0  0  0  0  0  0  0  0  0  0  0  0
   44.9753   36.1960   42.2745 H   0  0  0  0  0  0  0  0  0  0  0  0
   47.3892   32.6999   48.0072 H   0  0  0  0  0  0  0  0  0  0  0  0
   46.9329   32.7389   37.4448 H   0  0  0  0  0  0  0  0  0  0  0  0
   45.7677   31.9582   38.5761 H   0  0  0  0  0  0  0  0  0  0  0  0
   45.2502   34.4717   36.9986 H   0  0  0  0  0  0  0  0  0  0  0  0
   43.6561   32.1873   38.0732 H   0  0  0  0  0  0  0  0  0  0  0  0
  1 11  1  0
  2  1  1  0
  3  2  2  0
  4  3  1  0
  4  6  1  0
  5  4  2  0
  6  7  1  0
  7  1  1  0
  7  8  2  0
  9 14  2  0
 10  9  1  0
 11 10  2  0
 11 12  1  0
 12 13  2  0
 13 14  1  0
 13 15  1  0
 15 16  2  0
 15 17  1  0
 18  3  1  0
 19 20  1  0
 19 18  1  0
 20 21  2  0
  2 22  1  0
  6 23  1  0
  9 24  1  0
 10 25  1  0
 17 26  1  0
 18 27  1  0
 18 28  1  0
 19 29  1  0
 20 30  1  0
M  ISO  8  22  14  23   9  24  14  25  14  26   3  27   8  28   8  30   6
M  END
>  <minimizedAffinity>  (1) 
-5.83486032

>  <minimizedRMSD>  (1) 
0.921328545

$$$$
