
     RDKit          3D

 26 26  0  0  1  0  0  0  0  0999 V2000
   46.9440   34.2130   42.1750 C   0  0  1  0  0  0  0  0  0  0  0  0
   45.3510   35.8120   43.3140 C   0  0  0  0  0  0  0  0  0  0  0  0
   46.1260   34.6390   43.3080 C   0  0  0  0  0  0  0  0  0  0  0  0
   46.1110   33.8340   44.4550 C   0  0  0  0  0  0  0  0  0  0  0  0
   45.3460   34.2350   45.5130 N   0  0  0  0  0  0  0  0  0  0  0  0
   44.6070   35.3670   45.4990 C   0  0  0  0  0  0  0  0  0  0  0  0
   44.6220   36.1460   44.3890 N   0  0  0  0  0  0  0  0  0  0  0  0
   46.1130   33.9140   40.9670 C   0  0  0  0  0  0  0  0  0  0  0  0
   47.9660   35.2990   41.8790 C   0  0  0  0  0  0  0  0  0  0  0  0
   49.2210   34.8880   42.4740 N   0  0  0  0  0  0  0  0  0  0  0  0
   50.0320   33.8070   41.9830 C   0  0  0  0  0  0  0  0  0  0  0  0
   49.7010   33.4040   40.8120 N   0  0  0  0  0  0  0  0  0  0  0  0
   51.0730   33.3140   42.8160 N   0  0  0  0  0  0  0  0  0  0  0  0
   50.1770   32.6340   40.3030 H   0  0  0  0  0  0  0  0  0  0  0  0
   47.4585   33.2770   42.4379 H   0  0  0  0  0  0  0  0  0  0  0  0
   45.3425   36.4629   42.4273 H   0  0  0  0  0  0  0  0  0  0  0  0
   46.6988   32.9054   44.5019 H   0  0  0  0  0  0  0  0  0  0  0  0
   44.0035   35.6515   46.3735 H   0  0  0  0  0  0  0  0  0  0  0  0
   45.1216   33.5573   41.2831 H   0  0  0  0  0  0  0  0  0  0  0  0
   45.9992   34.8276   40.3650 H   0  0  0  0  0  0  0  0  0  0  0  0
   46.6073   33.1374   40.3650 H   0  0  0  0  0  0  0  0  0  0  0  0
   48.0860   35.4158   40.7918 H   0  0  0  0  0  0  0  0  0  0  0  0
   47.6379   36.2638   42.2932 H   0  0  0  0  0  0  0  0  0  0  0  0
   49.5537   35.4030   43.3017 H   0  0  0  0  0  0  0  0  0  0  0  0
   51.6701   32.5403   42.4908 H   0  0  0  0  0  0  0  0  0  0  0  0
   51.2302   33.7305   43.7448 H   0  0  0  0  0  0  0  0  0  0  0  0
  1  3  1  0
  2  7  2  0
  3  2  1  0
  3  4  2  0
  4  5  1  0
  6  5  2  0
  7  6  1  0
  8  1  1  0
  9  1  1  0
  9 10  1  0
 11 10  1  0
 11 13  1  0
 12 11  2  0
 14 12  1  0
  1 15  1  1
  2 16  1  0
  4 17  1  0
  6 18  1  0
  8 19  1  0
  8 20  1  0
  8 21  1  0
  9 22  1  0
  9 23  1  0
 10 24  1  0
 13 25  1  0
 13 26  1  0
M  ISO  8  15   8  16  14  17  14  18  14  19   8  20   8  21   8  22   8
M  ISO  1  23   8
M  END
>  <minimizedAffinity>  (1) 
-4.42420578

>  <minimizedRMSD>  (1) 
0.957820535

$$$$
