
     RDKit          3D

 40 41  0  0  0  0  0  0  0  0999 V2000
   46.8560   34.1900   41.0430 N   0  0  0  0  0  0  0  0  0  0  0  0
   46.4240   33.3860   40.0570 C   0  0  0  0  0  0  0  0  0  0  0  0
   47.0430   33.2730   38.8470 C   0  0  0  0  0  0  0  0  0  0  0  0
   48.1690   34.0600   38.6990 C   0  0  0  0  0  0  0  0  0  0  0  0
   48.8110   34.0160   37.5960 O   0  0  0  0  0  0  0  0  0  0  0  0
   48.6360   34.8800   39.6630 N   0  0  0  0  0  0  0  0  0  0  0  0
   47.9640   34.9360   40.8410 C   0  0  0  0  0  0  0  0  0  0  0  0
   48.4550   35.7230   41.6980 O   0  0  0  0  0  0  0  0  0  0  0  0
   44.7740   35.6490   43.7090 C   0  0  0  0  0  0  0  0  0  0  0  0
   45.3680   35.4460   42.4290 C   0  0  0  0  0  0  0  0  0  0  0  0
   46.2840   34.3680   42.3160 C   0  0  0  0  0  0  0  0  0  0  0  0
   46.5250   33.6210   43.4130 N   0  0  0  0  0  0  0  0  0  0  0  0
   45.9490   33.8440   44.5930 C   0  0  0  0  0  0  0  0  0  0  0  0
   45.0810   34.8420   44.7550 N   0  0  0  0  0  0  0  0  0  0  0  0
   46.2610   32.9930   45.7270 C   0  0  0  0  0  0  0  0  0  0  0  0
   45.9160   31.7880   45.7640 O   0  0  0  0  0  0  0  0  0  0  0  0
   46.9510   33.4430   46.8330 O   0  0  0  0  0  0  0  0  0  0  0  0
   46.5570   32.3910   37.7820 C   0  0  0  0  0  0  0  0  0  0  0  0
   46.4330   33.1060   36.5530 N   0  0  0  0  0  0  0  0  0  0  0  0
   46.5530   32.2040   35.4340 C   0  0  0  0  0  0  0  0  0  0  0  0
   47.8450   32.3480   34.6720 C   0  0  0  0  0  0  0  0  0  0  0  0
   45.4170   32.3790   34.4490 C   0  0  0  0  0  0  0  0  0  0  0  0
   46.4060   30.7900   36.0010 C   0  0  0  0  0  0  0  0  0  0  0  0
   45.5202   32.7851   40.2358 H   0  0  0  0  0  0  0  0  0  0  0  0
   49.4807   35.4489   39.5091 H   0  0  0  0  0  0  0  0  0  0  0  0
   44.0570   36.4712   43.8502 H   0  0  0  0  0  0  0  0  0  0  0  0
   45.1283   36.0925   41.5719 H   0  0  0  0  0  0  0  0  0  0  0  0
   47.1409   32.8254   47.5831 H   0  0  0  0  0  0  0  0  0  0  0  0
   47.2672   31.5619   37.6474 H   0  0  0  0  0  0  0  0  0  0  0  0
   45.5679   32.0033   38.0673 H   0  0  0  0  0  0  0  0  0  0  0  0
   45.5128   33.5677   36.5200 H   0  0  0  0  0  0  0  0  0  0  0  0
   48.6806   32.4411   35.3813 H   0  0  0  0  0  0  0  0  0  0  0  0
   47.9983   31.4614   34.0392 H   0  0  0  0  0  0  0  0  0  0  0  0
   47.7993   33.2466   34.0392 H   0  0  0  0  0  0  0  0  0  0  0  0
   44.4748   32.5241   34.9979 H   0  0  0  0  0  0  0  0  0  0  0  0
   45.6121   33.2577   33.8167 H   0  0  0  0  0  0  0  0  0  0  0  0
   45.3386   31.4823   33.8167 H   0  0  0  0  0  0  0  0  0  0  0  0
   46.4105   30.8334   37.1001 H   0  0  0  0  0  0  0  0  0  0  0  0
   45.4576   30.3530   35.6552 H   0  0  0  0  0  0  0  0  0  0  0  0
   47.2442   30.1673   35.6552 H   0  0  0  0  0  0  0  0  0  0  0  0
  1 11  1  0
  2  1  1  0
  3  2  2  0
  4  3  1  0
  4  6  1  0
  5  4  2  0
  6  7  1  0
  7  1  1  0
  7  8  2  0
  9 14  2  0
 10  9  1  0
 11 10  2  0
 11 12  1  0
 12 13  2  0
 13 14  1  0
 13 15  1  0
 15 16  2  0
 15 17  1  0
 18  3  1  0
 19 18  1  0
 20 23  1  0
 20 19  1  0
 21 20  1  0
 22 20  1  0
  2 24  1  0
  6 25  1  0
  9 26  1  0
 10 27  1  0
 17 28  1  0
 18 29  1  0
 18 30  1  0
 19 31  1  0
 21 32  1  0
 21 33  1  0
 21 34  1  0
 22 35  1  0
 22 36  1  0
 22 37  1  0
 23 38  1  0
 23 39  1  0
 23 40  1  0
M  ISO  8  24  14  25   9  26  14  27  14  28   3  29   8  30   8  31   5
M  ISO  8  32   8  33   8  34   8  35   8  36   8  37   8  38   8  39   8
M  ISO  1  40   8
M  END
>  <minimizedAffinity>  (1) 
-5.73979378

>  <minimizedRMSD>  (1) 
0.983194292

$$$$
