
     RDKit          3D

 36 38  0  0  0  0  0  0  0  0999 V2000
   46.9160   33.2990   39.5910 N   0  0  0  0  0  0  0  0  0  0  0  0
   46.5420   34.1410   40.5640 C   0  0  0  0  0  0  0  0  0  0  0  0
   47.4160   34.6210   41.5300 C   0  0  0  0  0  0  0  0  0  0  0  0
   48.7020   34.1690   41.4180 C   0  0  0  0  0  0  0  0  0  0  0  0
   49.5480   34.5710   42.2650 O   0  0  0  0  0  0  0  0  0  0  0  0
   49.1010   33.3260   40.4540 N   0  0  0  0  0  0  0  0  0  0  0  0
   48.2020   32.8900   39.5390 C   0  0  0  0  0  0  0  0  0  0  0  0
   48.6620   32.1030   38.6760 O   0  0  0  0  0  0  0  0  0  0  0  0
   44.1520   31.5010   37.9720 C   0  0  0  0  0  0  0  0  0  0  0  0
   44.9820   32.0610   38.9870 C   0  0  0  0  0  0  0  0  0  0  0  0
   46.1220   32.7610   38.5740 C   0  0  0  0  0  0  0  0  0  0  0  0
   46.3540   32.8580   37.2480 N   0  0  0  0  0  0  0  0  0  0  0  0
   45.5610   32.3240   36.3290 C   0  0  0  0  0  0  0  0  0  0  0  0
   44.4710   31.6520   36.6600 N   0  0  0  0  0  0  0  0  0  0  0  0
   45.8850   32.4740   34.9120 C   0  0  0  0  0  0  0  0  0  0  0  0
   47.0240   32.1800   34.4560 O   0  0  0  0  0  0  0  0  0  0  0  0
   44.9750   32.9430   33.9820 O   0  0  0  0  0  0  0  0  0  0  0  0
   46.9320   35.5420   42.5850 C   0  0  0  0  0  0  0  0  0  0  0  0
   45.9560   34.8790   43.3890 N   0  0  0  0  0  0  0  0  0  0  0  0
   46.0890   33.6530   44.0970 C   0  0  0  0  0  0  0  0  0  0  0  0
   46.1530   32.3260   43.9280 N   0  0  0  0  0  0  0  0  0  0  0  0
   46.2860   31.7860   45.0930 O   0  0  0  0  0  0  0  0  0  0  0  0
   46.3130   32.6730   46.0330 C   0  0  0  0  0  0  0  0  0  0  0  0
   46.1910   33.8570   45.4270 N   0  0  0  0  0  0  0  0  0  0  0  0
   44.7260   35.6720   43.3550 C   0  0  0  0  0  0  0  0  0  0  0  0
   45.0150   36.9210   42.9200 F   0  0  0  0  0  0  0  0  0  0  0  0
   43.8210   34.9870   42.5930 F   0  0  0  0  0  0  0  0  0  0  0  0
   44.1620   35.8160   44.6100 F   0  0  0  0  0  0  0  0  0  0  0  0
   45.4922   34.4675   40.5990 H   0  0  0  0  0  0  0  0  0  0  0  0
   50.0813   33.0132   40.4098 H   0  0  0  0  0  0  0  0  0  0  0  0
   43.2469   30.9427   38.2531 H   0  0  0  0  0  0  0  0  0  0  0  0
   44.7362   31.9475   40.0532 H   0  0  0  0  0  0  0  0  0  0  0  0
   45.2382   33.0285   33.0315 H   0  0  0  0  0  0  0  0  0  0  0  0
   47.7776   35.8516   43.2168 H   0  0  0  0  0  0  0  0  0  0  0  0
   46.4785   36.4279   42.1165 H   0  0  0  0  0  0  0  0  0  0  0  0
   46.4156   32.4898   47.1128 H   0  0  0  0  0  0  0  0  0  0  0  0
  1  2  1  0
  2  3  2  0
  3 18  1  0
  4  3  1  0
  4  5  2  0
  6  4  1  0
  7  1  1  0
  7  6  1  0
  8  7  2  0
  9 10  2  0
 11 10  1  0
 11  1  1  0
 12 11  2  0
 13 14  2  0
 13 12  1  0
 14  9  1  0
 15 13  1  0
 16 15  2  0
 17 15  1  0
 18 19  1  0
 19 20  1  0
 20 24  1  0
 21 20  2  0
 21 22  1  0
 22 23  1  0
 24 23  2  0
 25 19  1  0
 25 28  1  0
 26 25  1  0
 27 25  1  0
  2 29  1  0
  6 30  1  0
  9 31  1  0
 10 32  1  0
 17 33  1  0
 18 34  1  0
 18 35  1  0
 23 36  1  0
M  ISO  8  29  14  30   9  31  14  32  14  33   3  34   8  35   8  36  14
M  END
>  <minimizedAffinity>  (1) 
-6.42277431

>  <minimizedRMSD>  (1) 
7.61645222

$$$$
