
     RDKit          3D

 41 43  0  0  0  0  0  0  0  0999 V2000
   46.0530   33.8950   41.8550 N   0  0  0  0  0  0  0  0  0  0  0  0
   45.5200   32.9700   41.0590 C   0  0  0  0  0  0  0  0  0  0  0  0
   46.0210   32.6810   39.7950 C   0  0  0  0  0  0  0  0  0  0  0  0
   47.1120   33.4130   39.4150 C   0  0  0  0  0  0  0  0  0  0  0  0
   47.6130   33.1900   38.2780 O   0  0  0  0  0  0  0  0  0  0  0  0
   47.6690   34.3510   40.1980 N   0  0  0  0  0  0  0  0  0  0  0  0
   47.1420   34.5970   41.4200 C   0  0  0  0  0  0  0  0  0  0  0  0
   47.7260   35.4900   42.0810 O   0  0  0  0  0  0  0  0  0  0  0  0
   44.3600   35.8500   44.4780 C   0  0  0  0  0  0  0  0  0  0  0  0
   44.8030   35.4290   43.1880 C   0  0  0  0  0  0  0  0  0  0  0  0
   45.6370   34.2770   43.1350 C   0  0  0  0  0  0  0  0  0  0  0  0
   45.9380   33.6860   44.2870 N   0  0  0  0  0  0  0  0  0  0  0  0
   45.5090   34.1050   45.4680 C   0  0  0  0  0  0  0  0  0  0  0  0
   44.7310   35.1690   45.5860 N   0  0  0  0  0  0  0  0  0  0  0  0
   45.8980   33.3800   46.6800 C   0  0  0  0  0  0  0  0  0  0  0  0
   45.0420   32.9120   47.4820 O   0  0  0  0  0  0  0  0  0  0  0  0
   47.2170   33.1590   47.0240 O   0  0  0  0  0  0  0  0  0  0  0  0
   45.3490   31.6600   38.9530 C   0  0  0  0  0  0  0  0  0  0  0  0
   44.4170   32.2910   38.0790 N   0  0  0  0  0  0  0  0  0  0  0  0
   43.1920   32.9760   38.2700 C   0  0  0  0  0  0  0  0  0  0  0  0
   43.1730   34.3350   38.5030 C   0  0  0  0  0  0  0  0  0  0  0  0
   42.0250   35.0440   38.6710 C   0  0  0  0  0  0  0  0  0  0  0  0
   40.7980   34.4270   38.6160 C   0  0  0  0  0  0  0  0  0  0  0  0
   40.7520   33.0680   38.3840 C   0  0  0  0  0  0  0  0  0  0  0  0
   41.9590   32.4210   38.2250 C   0  0  0  0  0  0  0  0  0  0  0  0
   44.8930   32.0920   36.7060 C   0  0  0  0  0  0  0  0  0  0  0  0
   45.2570   33.2910   36.1920 F   0  0  0  0  0  0  0  0  0  0  0  0
   45.8890   31.1540   36.7350 F   0  0  0  0  0  0  0  0  0  0  0  0
   43.9210   31.5760   35.8720 F   0  0  0  0  0  0  0  0  0  0  0  0
   44.6441   32.4096   41.4178 H   0  0  0  0  0  0  0  0  0  0  0  0
   48.4907   34.8790   39.8712 H   0  0  0  0  0  0  0  0  0  0  0  0
   43.7125   36.7343   44.5715 H   0  0  0  0  0  0  0  0  0  0  0  0
   44.5128   35.9707   42.2757 H   0  0  0  0  0  0  0  0  0  0  0  0
   47.4361   32.6638   47.8528 H   0  0  0  0  0  0  0  0  0  0  0  0
   46.1029   31.1244   38.3574 H   0  0  0  0  0  0  0  0  0  0  0  0
   44.8149   30.9497   39.6012 H   0  0  0  0  0  0  0  0  0  0  0  0
   44.1322   34.8710   38.5554 H   0  0  0  0  0  0  0  0  0  0  0  0
   42.0790   36.1274   38.8536 H   0  0  0  0  0  0  0  0  0  0  0  0
   39.8722   35.0048   38.7541 H   0  0  0  0  0  0  0  0  0  0  0  0
   39.7966   32.5257   38.3284 H   0  0  0  0  0  0  0  0  0  0  0  0
   41.9148   31.3372   38.0419 H   0  0  0  0  0  0  0  0  0  0  0  0
  1 11  1  0
  2  1  1  0
  3  2  2  0
  4  3  1  0
  4  6  1  0
  5  4  2  0
  6  7  1  0
  7  1  1  0
  7  8  2  0
  9 14  2  0
 10  9  1  0
 11 10  2  0
 11 12  1  0
 12 13  2  0
 13 14  1  0
 13 15  1  0
 15 17  1  0
 15 16  2  0
 18  3  1  0
 19 20  1  0
 19 18  1  0
 20 21  2  0
 21 22  1  0
 23 22  2  0
 24 23  1  0
 25 20  1  0
 25 24  2  0
 26 28  1  0
 26 19  1  0
 27 26  1  0
 29 26  1  0
  2 30  1  0
  6 31  1  0
  9 32  1  0
 10 33  1  0
 17 34  1  0
 18 35  1  0
 18 36  1  0
 21 37  1  0
 22 38  1  0
 23 39  1  0
 24 40  1  0
 25 41  1  0
M  ISO  8  30  14  31   9  32  14  33  14  34   3  35   8  36   8  37  14
M  ISO  4  38  14  39  14  40  14  41  14
M  END
>  <minimizedAffinity>  (1) 
-6.08511877

>  <minimizedRMSD>  (1) 
2.56834412

$$$$
