
     RDKit          3D

 26 27  0  0  1  0  0  0  0  0999 V2000
   45.9960   34.1330   41.8460 C   0  0  1  0  0  0  0  0  0  0  0  0
   44.8790   35.7820   43.4240 C   0  0  0  0  0  0  0  0  0  0  0  0
   45.5310   34.5480   43.1690 C   0  0  0  0  0  0  0  0  0  0  0  0
   45.7180   33.7060   44.2740 C   0  0  0  0  0  0  0  0  0  0  0  0
   45.2750   34.1120   45.4910 N   0  0  0  0  0  0  0  0  0  0  0  0
   44.6560   35.2990   45.6890 C   0  0  0  0  0  0  0  0  0  0  0  0
   44.4610   36.1340   44.6470 N   0  0  0  0  0  0  0  0  0  0  0  0
   44.9400   34.3560   40.8130 C   0  0  0  0  0  0  0  0  0  0  0  0
   47.2670   34.8760   41.5300 C   0  0  0  0  0  0  0  0  0  0  0  0
   47.9450   34.1780   40.4070 C   0  0  0  0  0  0  0  0  0  0  0  0
   48.4630   32.9110   40.5980 C   0  0  0  0  0  0  0  0  0  0  0  0
   49.0330   32.4750   39.4330 C   0  0  0  0  0  0  0  0  0  0  0  0
   48.8570   33.4880   38.5410 N   0  0  0  0  0  0  0  0  0  0  0  0
   48.2150   34.4730   39.1410 N   0  0  0  0  0  0  0  0  0  0  0  0
   46.2066   33.0534   41.8421 H   0  0  0  0  0  0  0  0  0  0  0  0
   44.7106   36.4752   42.5866 H   0  0  0  0  0  0  0  0  0  0  0  0
   46.2157   32.7321   44.1567 H   0  0  0  0  0  0  0  0  0  0  0  0
   44.3132   35.5820   46.6952 H   0  0  0  0  0  0  0  0  0  0  0  0
   43.9792   34.5589   41.3087 H   0  0  0  0  0  0  0  0  0  0  0  0
   45.2172   35.2154   40.1849 H   0  0  0  0  0  0  0  0  0  0  0  0
   44.8461   33.4579   40.1849 H   0  0  0  0  0  0  0  0  0  0  0  0
   47.0312   35.9100   41.2379 H   0  0  0  0  0  0  0  0  0  0  0  0
   47.9223   34.9012   42.4131 H   0  0  0  0  0  0  0  0  0  0  0  0
   48.4233   32.3424   41.5388 H   0  0  0  0  0  0  0  0  0  0  0  0
   49.5289   31.5094   39.2548 H   0  0  0  0  0  0  0  0  0  0  0  0
   49.1724   33.4862   37.5605 H   0  0  0  0  0  0  0  0  0  0  0  0
  1  3  1  0
  2  7  2  0
  3  2  1  0
  3  4  2  0
  4  5  1  0
  5  6  2  0
  7  6  1  0
  8  1  1  0
  9  1  1  0
 10 11  1  0
 10  9  1  0
 12 11  2  0
 13 14  1  0
 13 12  1  0
 14 10  2  0
  1 15  1  1
  2 16  1  0
  4 17  1  0
  6 18  1  0
  8 19  1  0
  8 20  1  0
  8 21  1  0
  9 22  1  0
  9 23  1  0
 11 24  1  0
 12 25  1  0
 13 26  1  0
M  ISO  8  15   8  16  14  17  14  18  14  19   8  20   8  21   8  22   8
M  ISO  4  23   8  24  14  25  14  26   9
M  END
>  <minimizedAffinity>  (1) 
-4.15389109

>  <minimizedRMSD>  (1) 
1.18460488

$$$$
