
     RDKit          3D

 34 35  0  0  0  0  0  0  0  0999 V2000
   46.7940   34.1460   41.4360 N   0  0  0  0  0  0  0  0  0  0  0  0
   46.4050   33.2850   40.4990 C   0  0  0  0  0  0  0  0  0  0  0  0
   46.9980   33.1440   39.2770 C   0  0  0  0  0  0  0  0  0  0  0  0
   48.0820   34.0060   39.0820 C   0  0  0  0  0  0  0  0  0  0  0  0
   48.7320   33.9800   37.9690 O   0  0  0  0  0  0  0  0  0  0  0  0
   48.5080   34.8990   40.0160 N   0  0  0  0  0  0  0  0  0  0  0  0
   47.8490   34.9590   41.2000 C   0  0  0  0  0  0  0  0  0  0  0  0
   48.2970   35.8050   42.0110 O   0  0  0  0  0  0  0  0  0  0  0  0
   44.7330   35.5860   44.1180 C   0  0  0  0  0  0  0  0  0  0  0  0
   45.3140   35.3790   42.8310 C   0  0  0  0  0  0  0  0  0  0  0  0
   46.2340   34.3340   42.7060 C   0  0  0  0  0  0  0  0  0  0  0  0
   46.4900   33.6140   43.8130 N   0  0  0  0  0  0  0  0  0  0  0  0
   45.9360   33.8280   44.9940 C   0  0  0  0  0  0  0  0  0  0  0  0
   45.0590   34.8070   45.1620 N   0  0  0  0  0  0  0  0  0  0  0  0
   46.2830   32.9890   46.1370 C   0  0  0  0  0  0  0  0  0  0  0  0
   45.8400   31.8050   46.2370 O   0  0  0  0  0  0  0  0  0  0  0  0
   47.0950   33.4050   47.1670 O   0  0  0  0  0  0  0  0  0  0  0  0
   46.6290   32.1970   38.2480 C   0  0  0  0  0  0  0  0  0  0  0  0
   45.6830   32.8350   37.3090 N   0  0  0  0  0  0  0  0  0  0  0  0
   46.0180   32.4150   35.9840 C   0  0  0  0  0  0  0  0  0  0  0  0
   47.3270   32.7820   35.6480 F   0  0  0  0  0  0  0  0  0  0  0  0
   45.9970   31.0050   36.0090 F   0  0  0  0  0  0  0  0  0  0  0  0
   45.1940   32.7760   35.0000 F   0  0  0  0  0  0  0  0  0  0  0  0
   44.3540   32.3550   37.6450 C   0  0  0  0  0  0  0  0  0  0  0  0
   43.5210   33.3330   38.1090 F   0  0  0  0  0  0  0  0  0  0  0  0
   44.4790   31.2780   38.5260 F   0  0  0  0  0  0  0  0  0  0  0  0
   43.8220   31.8090   36.4770 F   0  0  0  0  0  0  0  0  0  0  0  0
   45.5432   32.6400   40.7252 H   0  0  0  0  0  0  0  0  0  0  0  0
   49.3120   35.5149   39.8284 H   0  0  0  0  0  0  0  0  0  0  0  0
   44.0048   36.3986   44.2573 H   0  0  0  0  0  0  0  0  0  0  0  0
   45.0490   36.0150   41.9735 H   0  0  0  0  0  0  0  0  0  0  0  0
   47.2962   32.7915   47.9175 H   0  0  0  0  0  0  0  0  0  0  0  0
   47.5295   31.8791   37.7021 H   0  0  0  0  0  0  0  0  0  0  0  0
   46.1522   31.3200   38.7102 H   0  0  0  0  0  0  0  0  0  0  0  0
  1 11  1  0
  2  1  1  0
  3  2  2  0
  4  3  1  0
  4  6  1  0
  5  4  2  0
  6  7  1  0
  7  1  1  0
  7  8  2  0
  9 14  2  0
 10  9  1  0
 11 10  2  0
 11 12  1  0
 12 13  2  0
 13 14  1  0
 13 15  1  0
 15 16  2  0
 15 17  1  0
 18  3  1  0
 19 24  1  0
 19 18  1  0
 20 22  1  0
 20 19  1  0
 21 20  1  0
 23 20  1  0
 24 25  1  0
 24 26  1  0
 27 24  1  0
  2 28  1  0
  6 29  1  0
  9 30  1  0
 10 31  1  0
 17 32  1  0
 18 33  1  0
 18 34  1  0
M  ISO  7  28  14  29   9  30  14  31  14  32   3  33   8  34   8
M  END
>  <minimizedAffinity>  (1) 
-5.71164465

>  <minimizedRMSD>  (1) 
0.882345557

$$$$
