
     RDKit          3D

 38 40  0  0  0  0  0  0  0  0999 V2000
   46.8130   34.0860   41.4580 N   0  0  0  0  0  0  0  0  0  0  0  0
   46.4350   33.2040   40.5350 C   0  0  0  0  0  0  0  0  0  0  0  0
   47.0150   33.0650   39.3080 C   0  0  0  0  0  0  0  0  0  0  0  0
   48.0710   33.9520   39.0890 C   0  0  0  0  0  0  0  0  0  0  0  0
   48.7080   33.9300   37.9680 O   0  0  0  0  0  0  0  0  0  0  0  0
   48.4920   34.8670   40.0020 N   0  0  0  0  0  0  0  0  0  0  0  0
   47.8500   34.9250   41.1950 C   0  0  0  0  0  0  0  0  0  0  0  0
   48.2850   35.7890   41.9950 O   0  0  0  0  0  0  0  0  0  0  0  0
   44.7590   35.5640   44.1290 C   0  0  0  0  0  0  0  0  0  0  0  0
   45.3390   35.3370   42.8450 C   0  0  0  0  0  0  0  0  0  0  0  0
   46.2630   34.2780   42.7280 C   0  0  0  0  0  0  0  0  0  0  0  0
   46.5120   33.5830   43.8350 N   0  0  0  0  0  0  0  0  0  0  0  0
   45.9690   33.8010   45.0170 C   0  0  0  0  0  0  0  0  0  0  0  0
   45.0860   34.7940   45.1810 N   0  0  0  0  0  0  0  0  0  0  0  0
   46.3060   32.9810   46.1620 C   0  0  0  0  0  0  0  0  0  0  0  0
   45.8490   31.7950   46.2690 O   0  0  0  0  0  0  0  0  0  0  0  0
   47.1160   33.3970   47.1890 O   0  0  0  0  0  0  0  0  0  0  0  0
   46.6610   32.0980   38.2910 C   0  0  0  0  0  0  0  0  0  0  0  0
   45.5740   32.6430   37.4520 N   0  0  0  0  0  0  0  0  0  0  0  0
   45.9470   32.4820   36.0790 C   0  0  0  0  0  0  0  0  0  0  0  0
   47.2610   32.9000   35.8550 F   0  0  0  0  0  0  0  0  0  0  0  0
   45.9230   31.0920   35.8350 F   0  0  0  0  0  0  0  0  0  0  0  0
   45.1490   33.0280   35.1600 F   0  0  0  0  0  0  0  0  0  0  0  0
   44.4710   31.7410   37.7130 C   0  0  0  0  0  0  0  0  0  0  0  0
   43.1710   32.4250   38.0490 C   0  0  0  0  0  0  0  0  0  0  0  0
   43.8800   31.5490   39.0330 C   0  0  0  0  0  0  0  0  0  0  0  0
   45.5937   32.5389   40.7796 H   0  0  0  0  0  0  0  0  0  0  0  0
   49.2777   35.4994   39.7931 H   0  0  0  0  0  0  0  0  0  0  0  0
   44.0339   36.3808   44.2596 H   0  0  0  0  0  0  0  0  0  0  0  0
   45.0756   35.9637   41.9802 H   0  0  0  0  0  0  0  0  0  0  0  0
   47.3088   32.7879   47.9452 H   0  0  0  0  0  0  0  0  0  0  0  0
   47.5392   31.8881   37.6628 H   0  0  0  0  0  0  0  0  0  0  0  0
   46.3232   31.1676   38.7708 H   0  0  0  0  0  0  0  0  0  0  0  0
   44.8603   31.0145   36.9845 H   0  0  0  0  0  0  0  0  0  0  0  0
   43.1392   33.5144   38.1978 H   0  0  0  0  0  0  0  0  0  0  0  0
   42.1632   32.4628   37.6097 H   0  0  0  0  0  0  0  0  0  0  0  0
   43.4516   30.5725   39.3030 H   0  0  0  0  0  0  0  0  0  0  0  0
   44.2388   31.6826   40.0642 H   0  0  0  0  0  0  0  0  0  0  0  0
  1 11  1  0
  2  1  1  0
  3  2  2  0
  4  3  1  0
  4  6  1  0
  5  4  2  0
  6  7  1  0
  7  1  1  0
  7  8  2  0
  9 14  2  0
 10  9  1  0
 11 10  2  0
 11 12  1  0
 12 13  2  0
 13 14  1  0
 13 15  1  0
 15 16  2  0
 15 17  1  0
 18  3  1  0
 19 24  1  0
 19 18  1  0
 20 19  1  0
 21 20  1  0
 22 20  1  0
 23 20  1  0
 24 25  1  0
 24 26  1  0
 25 26  1  0
  2 27  1  0
  6 28  1  0
  9 29  1  0
 10 30  1  0
 17 31  1  0
 18 32  1  0
 18 33  1  0
 24 34  1  0
 25 35  1  0
 25 36  1  0
 26 37  1  0
 26 38  1  0
M  ISO  8  27  14  28   9  29  14  30  14  31   3  32   8  33   8  34  13
M  ISO  4  35  13  36  13  37  13  38  13
M  END
>  <minimizedAffinity>  (1) 
-5.4717555

>  <minimizedRMSD>  (1) 
1.05305266

$$$$
