
     RDKit          3D

 23 24  0  0  0  0  0  0  0  0999 V2000
   44.5800   35.9970   44.4920 C   0  0  0  0  0  0  0  0  0  0  0  0
   45.3650   35.7950   43.3360 C   0  0  0  0  0  0  0  0  0  0  0  0
   46.2240   34.6880   43.3230 C   0  0  0  0  0  0  0  0  0  0  0  0
   46.2590   33.8730   44.4090 N   0  0  0  0  0  0  0  0  0  0  0  0
   45.4870   34.1030   45.5040 C   0  0  0  0  0  0  0  0  0  0  0  0
   44.6490   35.1680   45.5380 N   0  0  0  0  0  0  0  0  0  0  0  0
   47.0890   34.3730   42.1770 C   0  0  0  0  0  0  0  0  0  0  0  0
   46.4070   34.3110   40.8520 C   0  0  0  0  0  0  0  0  0  0  0  0
   47.6110   34.1510   39.9300 C   0  0  0  0  0  0  0  0  0  0  0  0
   48.5670   35.1780   40.5100 C   0  0  0  0  0  0  0  0  0  0  0  0
   48.1770   35.3910   41.9510 C   0  0  0  0  0  0  0  0  0  0  0  0
   43.8954   36.8570   44.5327 H   0  0  0  0  0  0  0  0  0  0  0  0
   45.3046   36.4807   42.4780 H   0  0  0  0  0  0  0  0  0  0  0  0
   45.5425   33.4221   46.3661 H   0  0  0  0  0  0  0  0  0  0  0  0
   47.4662   33.3847   42.4784 H   0  0  0  0  0  0  0  0  0  0  0  0
   45.7263   33.4495   40.7850 H   0  0  0  0  0  0  0  0  0  0  0  0
   45.7658   35.1753   40.6245 H   0  0  0  0  0  0  0  0  0  0  0  0
   47.3532   34.3847   38.8865 H   0  0  0  0  0  0  0  0  0  0  0  0
   48.0164   33.1292   39.8909 H   0  0  0  0  0  0  0  0  0  0  0  0
   49.6004   34.8057   40.4509 H   0  0  0  0  0  0  0  0  0  0  0  0
   48.5117   36.1221   39.9482 H   0  0  0  0  0  0  0  0  0  0  0  0
   49.0308   35.2087   42.6202 H   0  0  0  0  0  0  0  0  0  0  0  0
   47.8492   36.4205   42.1577 H   0  0  0  0  0  0  0  0  0  0  0  0
  1  6  2  0
  2  1  1  0
  3  2  2  0
  3  4  1  0
  4  5  2  0
  5  6  1  0
  7  3  1  0
  8  7  1  0
  9 10  1  0
  9  8  1  0
 10 11  1  0
 11  7  1  0
  1 12  1  0
  2 13  1  0
  5 14  1  0
  7 15  1  0
  8 16  1  0
  8 17  1  0
  9 18  1  0
  9 19  1  0
 10 20  1  0
 10 21  1  0
 11 22  1  0
 11 23  1  0
M  ISO  8  12  14  13  14  14  14  15  13  16  13  17  13  18  13  19  13
M  ISO  4  20  13  21  13  22  13  23  13
M  END
>  <minimizedAffinity>  (1) 
-4.58814526

>  <minimizedRMSD>  (1) 
0.256497949

$$$$
