
     RDKit          3D

 26 27  0  0  1  0  0  0  0  0999 V2000
   46.7530   34.1240   41.8640 C   0  0  1  0  0  0  0  0  0  0  0  0
   45.9650   33.9970   40.6160 C   0  0  0  0  0  0  0  0  0  0  0  0
   47.0610   33.6570   39.6200 C   0  0  0  0  0  0  0  0  0  0  0  0
   48.1500   34.6270   40.0280 C   0  0  0  0  0  0  0  0  0  0  0  0
   47.8950   35.0380   41.4590 C   0  0  2  0  0  0  0  0  0  0  0  0
   44.7080   36.2750   44.2090 C   0  0  0  0  0  0  0  0  0  0  0  0
   45.3950   35.8680   43.0550 C   0  0  0  0  0  0  0  0  0  0  0  0
   46.0240   34.6070   43.0360 C   0  0  0  0  0  0  0  0  0  0  0  0
   45.9390   33.8380   44.1440 N   0  0  0  0  0  0  0  0  0  0  0  0
   45.2600   34.2700   45.2520 C   0  0  0  0  0  0  0  0  0  0  0  0
   44.6480   35.4900   45.2780 N   0  0  0  0  0  0  0  0  0  0  0  0
   49.1020   34.6710   42.2810 C   0  0  0  0  0  0  0  0  0  0  0  0
   49.8790   33.8030   41.5320 F   0  0  0  0  0  0  0  0  0  0  0  0
   49.8300   35.8090   42.5320 F   0  0  0  0  0  0  0  0  0  0  0  0
   48.7760   34.0520   43.4650 F   0  0  0  0  0  0  0  0  0  0  0  0
   47.0774   33.1361   42.2231 H   0  0  0  0  0  0  0  0  0  0  0  0
   45.2196   33.1913   40.6882 H   0  0  0  0  0  0  0  0  0  0  0  0
   45.3753   34.8888   40.3572 H   0  0  0  0  0  0  0  0  0  0  0  0
   46.7326   33.8335   38.5851 H   0  0  0  0  0  0  0  0  0  0  0  0
   47.3708   32.6016   39.6364 H   0  0  0  0  0  0  0  0  0  0  0  0
   49.1331   34.1398   39.9488 H   0  0  0  0  0  0  0  0  0  0  0  0
   48.1438   35.5083   39.3698 H   0  0  0  0  0  0  0  0  0  0  0  0
   47.6859   36.1102   41.5881 H   0  0  0  0  0  0  0  0  0  0  0  0
   44.2128   37.2571   44.2281 H   0  0  0  0  0  0  0  0  0  0  0  0
   45.4420   36.5261   42.1748 H   0  0  0  0  0  0  0  0  0  0  0  0
   45.2067   33.6211   46.1386 H   0  0  0  0  0  0  0  0  0  0  0  0
  1  8  1  0
  2  1  1  0
  3  4  1  0
  3  2  1  0
  4  5  1  0
  5  1  1  0
  5 12  1  0
  6 11  2  0
  7  6  1  0
  8  7  2  0
  8  9  1  0
  9 10  2  0
 10 11  1  0
 12 14  1  0
 12 15  1  0
 13 12  1  0
  1 16  1  1
  2 17  1  0
  2 18  1  0
  3 19  1  0
  3 20  1  0
  4 21  1  0
  4 22  1  0
  5 23  1  6
  6 24  1  0
  7 25  1  0
 10 26  1  0
M  ISO  8  16  13  17  13  18  13  19  13  20  13  21  13  22  13  23  13
M  ISO  3  24  14  25  14  26  14
M  END
>  <minimizedAffinity>  (1) 
-5.2993536

>  <minimizedRMSD>  (1) 
0.601009727

$$$$
