
     RDKit          3D

 29 30  0  0  1  0  0  0  0  0999 V2000
   47.1440   34.3030   41.9900 C   0  0  1  0  0  0  0  0  0  0  0  0
   46.4460   34.2020   40.6880 C   0  0  0  0  0  0  0  0  0  0  0  0
   47.6480   34.0230   39.7600 C   0  0  0  0  0  0  0  0  0  0  0  0
   48.5890   35.0960   40.2890 C   0  0  0  0  0  0  0  0  0  0  0  0
   48.1750   35.3810   41.7010 C   0  0  2  0  0  0  0  0  0  0  0  0
   44.6950   35.9850   44.3320 C   0  0  0  0  0  0  0  0  0  0  0  0
   45.4490   35.7780   43.1570 C   0  0  0  0  0  0  0  0  0  0  0  0
   46.2940   34.6480   43.1390 C   0  0  0  0  0  0  0  0  0  0  0  0
   46.3170   33.8520   44.2420 N   0  0  0  0  0  0  0  0  0  0  0  0
   45.5760   34.0910   45.3440 C   0  0  0  0  0  0  0  0  0  0  0  0
   44.7650   35.1680   45.3760 N   0  0  0  0  0  0  0  0  0  0  0  0
   49.2890   35.2280   42.6930 C   0  0  0  0  0  0  0  0  0  0  0  0
   50.1680   34.0330   42.4120 C   0  0  0  0  0  0  0  0  0  0  0  0
   47.5546   33.3335   42.3088 H   0  0  0  0  0  0  0  0  0  0  0  0
   45.7697   33.3352   40.6528 H   0  0  0  0  0  0  0  0  0  0  0  0
   45.7928   35.0526   40.4436 H   0  0  0  0  0  0  0  0  0  0  0  0
   47.3775   34.2057   38.7095 H   0  0  0  0  0  0  0  0  0  0  0  0
   48.0729   33.0084   39.7605 H   0  0  0  0  0  0  0  0  0  0  0  0
   49.6273   34.7337   40.2651 H   0  0  0  0  0  0  0  0  0  0  0  0
   48.5357   36.0052   39.6721 H   0  0  0  0  0  0  0  0  0  0  0  0
   47.8222   36.4187   41.7946 H   0  0  0  0  0  0  0  0  0  0  0  0
   44.0246   36.8555   44.3846 H   0  0  0  0  0  0  0  0  0  0  0  0
   45.3814   36.4628   42.2988 H   0  0  0  0  0  0  0  0  0  0  0  0
   45.6329   33.4134   46.2086 H   0  0  0  0  0  0  0  0  0  0  0  0
   49.9107   36.1350   42.6648 H   0  0  0  0  0  0  0  0  0  0  0  0
   48.8312   35.0751   43.6815 H   0  0  0  0  0  0  0  0  0  0  0  0
   50.4958   33.5873   43.3627 H   0  0  0  0  0  0  0  0  0  0  0  0
   49.6008   33.2884   41.8343 H   0  0  0  0  0  0  0  0  0  0  0  0
   51.0478   34.3527   41.8343 H   0  0  0  0  0  0  0  0  0  0  0  0
  1  8  1  0
  2  1  1  0
  3  4  1  0
  3  2  1  0
  4  5  1  0
  5  1  1  0
  5 12  1  0
  6 11  2  0
  7  6  1  0
  8  7  2  0
  8  9  1  0
  9 10  2  0
 10 11  1  0
 13 12  1  0
  1 14  1  1
  2 15  1  0
  2 16  1  0
  3 17  1  0
  3 18  1  0
  4 19  1  0
  4 20  1  0
  5 21  1  6
  6 22  1  0
  7 23  1  0
 10 24  1  0
 12 25  1  0
 12 26  1  0
 13 27  1  0
 13 28  1  0
 13 29  1  0
M  ISO  8  14  13  15  13  16  13  17  13  18  13  19  13  20  13  21  13
M  ISO  8  22  14  23  14  24  14  25   8  26   8  27   8  28   8  29   8
M  END
>  <minimizedAffinity>  (1) 
-5.0861063

>  <minimizedRMSD>  (1) 
0.643534005

$$$$
