
     RDKit          3D

 32 33  0  0  1  0  0  0  0  0999 V2000
   46.4700   33.8700   41.9390 C   0  0  1  0  0  0  0  0  0  0  0  0
   45.5550   33.5950   40.8060 C   0  0  0  0  0  0  0  0  0  0  0  0
   46.5560   33.2620   39.7070 C   0  0  0  0  0  0  0  0  0  0  0  0
   47.6480   34.2930   39.9470 C   0  0  0  0  0  0  0  0  0  0  0  0
   47.4420   34.8530   41.3130 C   0  0  2  0  0  0  0  0  0  0  0  0
   44.5970   36.0630   44.3840 C   0  0  0  0  0  0  0  0  0  0  0  0
   45.1690   35.6350   43.1740 C   0  0  0  0  0  0  0  0  0  0  0  0
   45.8430   34.3970   43.1510 C   0  0  0  0  0  0  0  0  0  0  0  0
   45.9080   33.6800   44.3010 N   0  0  0  0  0  0  0  0  0  0  0  0
   45.3360   34.1380   45.4570 C   0  0  0  0  0  0  0  0  0  0  0  0
   44.6820   35.3320   45.4880 N   0  0  0  0  0  0  0  0  0  0  0  0
   48.6970   35.0590   42.0980 C   0  0  0  0  0  0  0  0  0  0  0  0
   49.4090   36.2970   41.6430 C   0  0  0  0  0  0  0  0  0  0  0  0
   49.6400   33.9070   42.1200 C   0  0  0  0  0  0  0  0  0  0  0  0
   46.9247   32.9477   42.3297 H   0  0  0  0  0  0  0  0  0  0  0  0
   44.8901   32.7451   41.0194 H   0  0  0  0  0  0  0  0  0  0  0  0
   44.8690   34.4199   40.5633 H   0  0  0  0  0  0  0  0  0  0  0  0
   46.1077   33.3802   38.7095 H   0  0  0  0  0  0  0  0  0  0  0  0
   46.9149   32.2226   39.7356 H   0  0  0  0  0  0  0  0  0  0  0  0
   48.6367   33.8152   39.8820 H   0  0  0  0  0  0  0  0  0  0  0  0
   47.6019   35.0900   39.1902 H   0  0  0  0  0  0  0  0  0  0  0  0
   47.0505   35.8807   41.2882 H   0  0  0  0  0  0  0  0  0  0  0  0
   44.0666   37.0261   44.4167 H   0  0  0  0  0  0  0  0  0  0  0  0
   45.0927   36.2514   42.2661 H   0  0  0  0  0  0  0  0  0  0  0  0
   45.4055   33.5335   46.3733 H   0  0  0  0  0  0  0  0  0  0  0  0
   48.3540   35.1683   43.1374 H   0  0  0  0  0  0  0  0  0  0  0  0
   49.7401   36.8728   42.5198 H   0  0  0  0  0  0  0  0  0  0  0  0
   50.2833   36.0156   41.0376 H   0  0  0  0  0  0  0  0  0  0  0  0
   48.7261   36.9112   41.0376 H   0  0  0  0  0  0  0  0  0  0  0  0
   49.8625   33.6352   43.1624 H   0  0  0  0  0  0  0  0  0  0  0  0
   49.1821   33.0485   41.6069 H   0  0  0  0  0  0  0  0  0  0  0  0
   50.5721   34.1863   41.6069 H   0  0  0  0  0  0  0  0  0  0  0  0
  1  8  1  0
  2  1  1  0
  3  4  1  0
  3  2  1  0
  4  5  1  0
  5  1  1  0
  5 12  1  0
  6 11  2  0
  7  6  1  0
  8  7  2  0
  8  9  1  0
  9 10  2  0
 10 11  1  0
 12 14  1  0
 13 12  1  0
  1 15  1  1
  2 16  1  0
  2 17  1  0
  3 18  1  0
  3 19  1  0
  4 20  1  0
  4 21  1  0
  5 22  1  6
  6 23  1  0
  7 24  1  0
 10 25  1  0
 12 26  1  0
 13 27  1  0
 13 28  1  0
 13 29  1  0
 14 30  1  0
 14 31  1  0
 14 32  1  0
M  ISO  8  15  13  16  13  17  13  18  13  19  13  20  13  21  13  22  13
M  ISO  8  23  14  24  14  25  14  26   8  27   8  28   8  29   8  30   8
M  ISO  2  31   8  32   8
M  END
>  <minimizedAffinity>  (1) 
-4.9993186

>  <minimizedRMSD>  (1) 
0.973310649

$$$$
