
     RDKit          3D

 30 32  0  0  1  0  0  0  0  0999 V2000
   44.9430   34.0870   41.7170 C   0  0  1  0  0  0  0  0  0  0  0  0
   45.8230   34.0150   40.5360 C   0  0  0  0  0  0  0  0  0  0  0  0
   47.1930   34.0400   41.2180 C   0  0  0  0  0  0  0  0  0  0  0  0
   46.9820   35.1940   42.1880 C   0  0  0  0  0  0  0  0  0  0  0  0
   45.5310   35.2020   42.5530 C   0  0  2  0  0  0  0  0  0  0  0  0
   41.5480   35.6080   41.0610 C   0  0  0  0  0  0  0  0  0  0  0  0
   42.9290   35.4980   41.2940 C   0  0  0  0  0  0  0  0  0  0  0  0
   43.5120   34.2280   41.4720 C   0  0  0  0  0  0  0  0  0  0  0  0
   42.7000   33.1570   41.4090 N   0  0  0  0  0  0  0  0  0  0  0  0
   41.3630   33.2900   41.1820 C   0  0  0  0  0  0  0  0  0  0  0  0
   40.7910   34.5190   41.0080 N   0  0  0  0  0  0  0  0  0  0  0  0
   45.2980   34.8990   43.9900 C   0  0  0  0  0  0  0  0  0  0  0  0
   45.9490   33.8450   44.6400 C   0  0  0  0  0  0  0  0  0  0  0  0
   45.5140   33.8530   45.9140 N   0  0  0  0  0  0  0  0  0  0  0  0
   44.6330   34.8710   46.0350 C   0  0  0  0  0  0  0  0  0  0  0  0
   44.4900   35.5230   44.8620 N   0  0  0  0  0  0  0  0  0  0  0  0
   44.9374   33.1151   42.2322 H   0  0  0  0  0  0  0  0  0  0  0  0
   45.6833   34.8795   39.8704 H   0  0  0  0  0  0  0  0  0  0  0  0
   45.6484   33.1476   39.8824 H   0  0  0  0  0  0  0  0  0  0  0  0
   47.4047   33.0975   41.7442 H   0  0  0  0  0  0  0  0  0  0  0  0
   48.0486   34.1570   40.5366 H   0  0  0  0  0  0  0  0  0  0  0  0
   47.5968   35.0474   43.0883 H   0  0  0  0  0  0  0  0  0  0  0  0
   47.2757   36.1497   41.7294 H   0  0  0  0  0  0  0  0  0  0  0  0
   45.0868   36.1925   42.3753 H   0  0  0  0  0  0  0  0  0  0  0  0
   41.0926   36.5996   40.9221 H   0  0  0  0  0  0  0  0  0  0  0  0
   43.5541   36.4021   41.3374 H   0  0  0  0  0  0  0  0  0  0  0  0
   40.7316   32.3904   41.1379 H   0  0  0  0  0  0  0  0  0  0  0  0
   46.6742   33.1466   44.1969 H   0  0  0  0  0  0  0  0  0  0  0  0
   44.1043   35.1325   46.9635 H   0  0  0  0  0  0  0  0  0  0  0  0
   43.8841   36.3344   44.6740 H   0  0  0  0  0  0  0  0  0  0  0  0
  1  5  1  0
  2  3  1  0
  2  1  1  0
  3  4  1  0
  4  5  1  0
  5 12  1  0
  6  7  2  0
  7  8  1  0
  8  1  1  0
  9  8  2  0
 10  9  1  0
 11  6  1  0
 11 10  2  0
 12 13  2  0
 12 16  1  0
 13 14  1  0
 14 15  2  0
 16 15  1  0
  1 17  1  1
  2 18  1  0
  2 19  1  0
  3 20  1  0
  3 21  1  0
  4 22  1  0
  4 23  1  0
  5 24  1  6
  6 25  1  0
  7 26  1  0
 10 27  1  0
 13 28  1  0
 15 29  1  0
 16 30  1  0
M  ISO  8  17  13  18  13  19  13  20  13  21  13  22  13  23  13  24  13
M  ISO  6  25  14  26  14  27  14  28  14  29  14  30   9
M  END
>  <minimizedAffinity>  (1) 
-4.98310137

>  <minimizedRMSD>  (1) 
4.36150742

$$$$
