
     RDKit          3D

 30 32  0  0  1  0  0  0  0  0999 V2000
   46.2350   33.7370   42.1630 C   0  0  1  0  0  0  0  0  0  0  0  0
   45.6860   34.3040   40.9080 C   0  0  0  0  0  0  0  0  0  0  0  0
   46.5640   33.5880   39.8830 C   0  0  0  0  0  0  0  0  0  0  0  0
   47.9180   33.7610   40.5280 C   0  0  0  0  0  0  0  0  0  0  0  0
   47.6920   33.7910   42.0380 C   0  0  1  0  0  0  0  0  0  0  0  0
   44.4650   35.9180   44.6480 C   0  0  0  0  0  0  0  0  0  0  0  0
   44.9770   35.4470   43.4290 C   0  0  0  0  0  0  0  0  0  0  0  0
   45.6650   34.2470   43.4170 C   0  0  0  0  0  0  0  0  0  0  0  0
   45.8010   33.5960   44.5840 N   0  0  0  0  0  0  0  0  0  0  0  0
   45.3040   34.0550   45.7490 C   0  0  0  0  0  0  0  0  0  0  0  0
   44.6350   35.2240   45.7690 N   0  0  0  0  0  0  0  0  0  0  0  0
   48.5000   34.8340   42.6690 C   0  0  0  0  0  0  0  0  0  0  0  0
   49.1690   35.8350   41.6990 C   0  0  0  0  0  0  0  0  0  0  0  0
   50.0180   34.8470   42.3790 C   0  0  0  0  0  0  0  0  0  0  0  0
   45.9113   32.6911   42.2697 H   0  0  0  0  0  0  0  0  0  0  0  0
   44.6225   34.0545   40.7789 H   0  0  0  0  0  0  0  0  0  0  0  0
   45.7083   35.4022   40.8486 H   0  0  0  0  0  0  0  0  0  0  0  0
   46.5172   34.0725   38.8966 H   0  0  0  0  0  0  0  0  0  0  0  0
   46.2792   32.5455   39.6779 H   0  0  0  0  0  0  0  0  0  0  0  0
   48.5741   32.9195   40.2608 H   0  0  0  0  0  0  0  0  0  0  0  0
   48.4011   34.6876   40.1846 H   0  0  0  0  0  0  0  0  0  0  0  0
   48.0692   32.9519   42.6410 H   0  0  0  0  0  0  0  0  0  0  0  0
   43.9173   36.8715   44.6761 H   0  0  0  0  0  0  0  0  0  0  0  0
   44.8340   36.0208   42.5015 H   0  0  0  0  0  0  0  0  0  0  0  0
   45.4434   33.4799   46.6763 H   0  0  0  0  0  0  0  0  0  0  0  0
   47.8746   34.8756   43.5729 H   0  0  0  0  0  0  0  0  0  0  0  0
   49.2402   36.8974   41.9750 H   0  0  0  0  0  0  0  0  0  0  0  0
   49.0045   36.1125   40.6474 H   0  0  0  0  0  0  0  0  0  0  0  0
   50.4700   34.0270   41.8018 H   0  0  0  0  0  0  0  0  0  0  0  0
   50.9193   34.9110   43.0064 H   0  0  0  0  0  0  0  0  0  0  0  0
  1  8  1  0
  2  1  1  0
  3  4  1  0
  3  2  1  0
  4  5  1  0
  5  1  1  0
  5 12  1  0
  6 11  2  0
  7  6  1  0
  8  7  2  0
  8  9  1  0
  9 10  2  0
 10 11  1  0
 13 14  1  0
 13 12  1  0
 14 12  1  0
  1 15  1  6
  2 16  1  0
  2 17  1  0
  3 18  1  0
  3 19  1  0
  4 20  1  0
  4 21  1  0
  5 22  1  1
  6 23  1  0
  7 24  1  0
 10 25  1  0
 12 26  1  0
 13 27  1  0
 13 28  1  0
 14 29  1  0
 14 30  1  0
M  ISO  8  15  13  16  13  17  13  18  13  19  13  20  13  21  13  22  13
M  ISO  8  23  14  24  14  25  14  26  13  27  13  28  13  29  13  30  13
M  END
>  <minimizedAffinity>  (1) 
-4.96795034

>  <minimizedRMSD>  (1) 
1.5692625

$$$$
