
     RDKit          3D

 25 26  0  0  1  0  0  0  0  0999 V2000
   46.9990   34.2610   42.2820 C   0  0  1  0  0  0  0  0  0  0  0  0
   46.3380   34.4170   40.9690 C   0  0  0  0  0  0  0  0  0  0  0  0
   47.5350   34.2020   40.0410 C   0  0  0  0  0  0  0  0  0  0  0  0
   48.5890   35.0670   40.7200 C   0  0  0  0  0  0  0  0  0  0  0  0
   48.2020   35.1810   42.1630 C   0  0  2  0  0  0  0  0  0  0  0  0
   44.5190   35.8280   44.6740 C   0  0  0  0  0  0  0  0  0  0  0  0
   45.2720   35.6100   43.5010 C   0  0  0  0  0  0  0  0  0  0  0  0
   46.1890   34.5400   43.4610 C   0  0  0  0  0  0  0  0  0  0  0  0
   46.2920   33.7770   44.5650 N   0  0  0  0  0  0  0  0  0  0  0  0
   45.5670   33.9930   45.6860 C   0  0  0  0  0  0  0  0  0  0  0  0
   44.6850   35.0150   45.7370 N   0  0  0  0  0  0  0  0  0  0  0  0
   49.2520   34.6440   42.9890 N   0  0  0  0  0  0  0  0  0  0  0  0
   47.2459   33.2050   42.4663 H   0  0  0  0  0  0  0  0  0  0  0  0
   45.5581   33.6573   40.8119 H   0  0  0  0  0  0  0  0  0  0  0  0
   45.8080   35.3705   40.8278 H   0  0  0  0  0  0  0  0  0  0  0  0
   47.3223   34.5515   39.0199 H   0  0  0  0  0  0  0  0  0  0  0  0
   47.8263   33.1490   39.9136 H   0  0  0  0  0  0  0  0  0  0  0  0
   49.5788   34.5955   40.6309 H   0  0  0  0  0  0  0  0  0  0  0  0
   48.6434   36.0598   40.2495 H   0  0  0  0  0  0  0  0  0  0  0  0
   48.0093   36.2198   42.4694 H   0  0  0  0  0  0  0  0  0  0  0  0
   43.7990   36.6583   44.7213 H   0  0  0  0  0  0  0  0  0  0  0  0
   45.1451   36.2671   42.6280 H   0  0  0  0  0  0  0  0  0  0  0  0
   45.6957   33.3351   46.5581 H   0  0  0  0  0  0  0  0  0  0  0  0
   49.0064   34.7696   43.9814 H   0  0  0  0  0  0  0  0  0  0  0  0
   49.3674   33.6404   42.7883 H   0  0  0  0  0  0  0  0  0  0  0  0
  1  8  1  0
  2  1  1  0
  3  4  1  0
  3  2  1  0
  4  5  1  0
  5  1  1  0
  5 12  1  0
  6 11  2  0
  7  6  1  0
  8  7  2  0
  8  9  1  0
  9 10  2  0
 10 11  1  0
  1 13  1  1
  2 14  1  0
  2 15  1  0
  3 16  1  0
  3 17  1  0
  4 18  1  0
  4 19  1  0
  5 20  1  1
  6 21  1  0
  7 22  1  0
 10 23  1  0
 12 24  1  0
 12 25  1  0
M  ISO  8  13  13  14  13  15  13  16  13  17  13  18  13  19  13  20  13
M  ISO  5  21  14  22  14  23  14  24   5  25   5
M  END
>  <minimizedAffinity>  (1) 
-4.90368557

>  <minimizedRMSD>  (1) 
0.246223301

$$$$
