
     RDKit          3D

 33 34  0  0  1  0  0  0  0  0999 V2000
   45.6130   34.4280   42.4600 C   0  0  1  0  0  0  0  0  0  0  0  0
   44.6510   35.4270   44.5970 C   0  0  0  0  0  0  0  0  0  0  0  0
   45.3440   34.4210   43.8960 C   0  0  0  0  0  0  0  0  0  0  0  0
   45.8120   33.3280   44.6490 C   0  0  0  0  0  0  0  0  0  0  0  0
   45.5750   33.3040   45.9840 N   0  0  0  0  0  0  0  0  0  0  0  0
   44.9060   34.2850   46.6280 C   0  0  0  0  0  0  0  0  0  0  0  0
   44.4470   35.3420   45.9310 N   0  0  0  0  0  0  0  0  0  0  0  0
   44.3620   34.7640   41.6940 C   0  0  0  0  0  0  0  0  0  0  0  0
   46.7000   35.4610   42.1920 C   0  0  0  0  0  0  0  0  0  0  0  0
   47.6940   34.8720   41.3100 N   0  0  0  0  0  0  0  0  0  0  0  0
   47.7640   33.4390   41.4420 C   0  0  0  0  0  0  0  0  0  0  0  0
   49.2120   33.0140   41.5140 C   0  0  0  0  0  0  0  0  0  0  0  0
   49.8190   33.6620   42.6410 N   0  0  0  0  0  0  0  0  0  0  0  0
   49.8640   35.0920   42.4410 C   0  0  0  0  0  0  0  0  0  0  0  0
   48.9490   35.5510   41.3360 C   0  0  0  0  0  0  0  0  0  0  0  0
   45.9478   33.4336   42.1296 H   0  0  0  0  0  0  0  0  0  0  0  0
   44.2678   36.2998   44.0480 H   0  0  0  0  0  0  0  0  0  0  0  0
   46.3604   32.5075   44.1632 H   0  0  0  0  0  0  0  0  0  0  0  0
   44.7374   34.2210   47.7131 H   0  0  0  0  0  0  0  0  0  0  0  0
   43.5474   34.9828   42.4001 H   0  0  0  0  0  0  0  0  0  0  0  0
   44.5451   35.6448   41.0610 H   0  0  0  0  0  0  0  0  0  0  0  0
   44.0791   33.9100   41.0610 H   0  0  0  0  0  0  0  0  0  0  0  0
   46.2586   36.3473   41.7129 H   0  0  0  0  0  0  0  0  0  0  0  0
   47.1710   35.7643   43.1387 H   0  0  0  0  0  0  0  0  0  0  0  0
   47.2440   33.1288   42.3603 H   0  0  0  0  0  0  0  0  0  0  0  0
   47.2838   32.9652   40.5731 H   0  0  0  0  0  0  0  0  0  0  0  0
   49.2731   31.9225   41.6358 H   0  0  0  0  0  0  0  0  0  0  0  0
   49.7352   33.2968   40.5886 H   0  0  0  0  0  0  0  0  0  0  0  0
   49.2690   33.4555   43.4870 H   0  0  0  0  0  0  0  0  0  0  0  0
   49.5641   35.5882   43.3758 H   0  0  0  0  0  0  0  0  0  0  0  0
   50.8924   35.3562   42.1536 H   0  0  0  0  0  0  0  0  0  0  0  0
   49.4549   35.3824   40.3739 H   0  0  0  0  0  0  0  0  0  0  0  0
   48.7349   36.6146   41.5174 H   0  0  0  0  0  0  0  0  0  0  0  0
  1  3  1  0
  2  7  2  0
  3  2  1  0
  3  4  2  0
  4  5  1  0
  5  6  2  0
  7  6  1  0
  8  1  1  0
  9  1  1  0
 10 15  1  0
 10 11  1  0
 10  9  1  0
 11 12  1  0
 12 13  1  0
 14 13  1  0
 15 14  1  0
  1 16  1  6
  2 17  1  0
  4 18  1  0
  6 19  1  0
  8 20  1  0
  8 21  1  0
  8 22  1  0
  9 23  1  0
  9 24  1  0
 11 25  1  0
 11 26  1  0
 12 27  1  0
 12 28  1  0
 13 29  1  0
 14 30  1  0
 14 31  1  0
 15 32  1  0
 15 33  1  0
M  ISO  8  16   8  17  14  18  14  19  14  20   8  21   8  22   8  23   8
M  ISO  8  24   8  25  13  26  13  27  13  28  13  29   5  30  13  31  13
M  ISO  2  32  13  33  13
M  END
>  <minimizedAffinity>  (1) 
-4.01669168

>  <minimizedRMSD>  (1) 
1.61771369

$$$$
