
     RDKit          3D

 35 36  0  0  1  0  0  0  0  0999 V2000
   46.2070   33.9410   41.8130 C   0  0  1  0  0  0  0  0  0  0  0  0
   45.3310   33.9750   40.6170 C   0  0  0  0  0  0  0  0  0  0  0  0
   46.2700   33.4020   39.5640 C   0  0  0  0  0  0  0  0  0  0  0  0
   47.5710   34.1060   39.8960 C   0  0  0  0  0  0  0  0  0  0  0  0
   47.4910   34.5740   41.3310 C   0  0  2  0  0  0  0  0  0  0  0  0
   44.7580   36.5020   44.2000 C   0  0  0  0  0  0  0  0  0  0  0  0
   45.2710   35.9120   43.0360 C   0  0  0  0  0  0  0  0  0  0  0  0
   45.6680   34.5810   43.0090 C   0  0  0  0  0  0  0  0  0  0  0  0
   45.5320   33.9010   44.1630 N   0  0  0  0  0  0  0  0  0  0  0  0
   45.0400   34.4560   45.2950 C   0  0  0  0  0  0  0  0  0  0  0  0
   44.6560   35.7480   45.3120 N   0  0  0  0  0  0  0  0  0  0  0  0
   48.7290   34.1020   42.0220 C   0  0  0  0  0  0  0  0  0  0  0  0
   49.5680   35.2210   42.5720 C   0  0  0  0  0  0  0  0  0  0  0  0
   49.6190   33.2190   41.1950 C   0  0  0  0  0  0  0  0  0  0  0  0
   48.2590   33.2480   43.1880 C   0  0  0  0  0  0  0  0  0  0  0  0
   46.3359   32.9092   42.1719 H   0  0  0  0  0  0  0  0  0  0  0  0
   44.4386   33.3457   40.7500 H   0  0  0  0  0  0  0  0  0  0  0  0
   44.9257   34.9687   40.3756 H   0  0  0  0  0  0  0  0  0  0  0  0
   45.9296   33.6473   38.5472 H   0  0  0  0  0  0  0  0  0  0  0  0
   46.3402   32.3043   39.5783 H   0  0  0  0  0  0  0  0  0  0  0  0
   48.4142   33.4098   39.7761 H   0  0  0  0  0  0  0  0  0  0  0  0
   47.7279   34.9608   39.2216 H   0  0  0  0  0  0  0  0  0  0  0  0
   47.4584   35.6596   41.5055 H   0  0  0  0  0  0  0  0  0  0  0  0
   44.4458   37.5568   44.2052 H   0  0  0  0  0  0  0  0  0  0  0  0
   45.3613   36.5177   42.1222 H   0  0  0  0  0  0  0  0  0  0  0  0
   44.9528   33.8484   46.2078 H   0  0  0  0  0  0  0  0  0  0  0  0
   49.5450   35.1903   43.6713 H   0  0  0  0  0  0  0  0  0  0  0  0
   50.6051   35.1071   42.2236 H   0  0  0  0  0  0  0  0  0  0  0  0
   49.1679   36.1846   42.2236 H   0  0  0  0  0  0  0  0  0  0  0  0
   50.2417   32.6012   41.8588 H   0  0  0  0  0  0  0  0  0  0  0  0
   49.0010   32.5669   40.5602 H   0  0  0  0  0  0  0  0  0  0  0  0
   50.2662   33.8421   40.5602 H   0  0  0  0  0  0  0  0  0  0  0  0
   48.5292   33.7390   44.1345 H   0  0  0  0  0  0  0  0  0  0  0  0
   47.1669   33.1265   43.1367 H   0  0  0  0  0  0  0  0  0  0  0  0
   48.7406   32.2604   43.1367 H   0  0  0  0  0  0  0  0  0  0  0  0
  1  8  1  0
  2  1  1  0
  3  4  1  0
  3  2  1  0
  4  5  1  0
  5  1  1  0
  5 12  1  0
  6 11  2  0
  7  6  1  0
  8  7  2  0
  8  9  1  0
  9 10  2  0
 10 11  1  0
 12 13  1  0
 12 15  1  0
 14 12  1  0
  1 16  1  1
  2 17  1  0
  2 18  1  0
  3 19  1  0
  3 20  1  0
  4 21  1  0
  4 22  1  0
  5 23  1  6
  6 24  1  0
  7 25  1  0
 10 26  1  0
 13 27  1  0
 13 28  1  0
 13 29  1  0
 14 30  1  0
 14 31  1  0
 14 32  1  0
 15 33  1  0
 15 34  1  0
 15 35  1  0
M  ISO  8  16  13  17  13  18  13  19  13  20  13  21  13  22  13  23  13
M  ISO  8  24  14  25  14  26  14  27   8  28   8  29   8  30   8  31   8
M  ISO  4  32   8  33   8  34   8  35   8
M  END
>  <minimizedAffinity>  (1) 
-4.79686308

>  <minimizedRMSD>  (1) 
1.21591866

$$$$
