
     RDKit          3D

 34 37  0  0  1  0  0  0  0  0999 V2000
   47.9400   33.3860   42.8880 C   0  0  1  0  0  0  0  0  0  0  0  0
   47.9830   32.6880   41.5810 C   0  0  0  0  0  0  0  0  0  0  0  0
   48.6810   33.7280   40.7250 C   0  0  0  0  0  0  0  0  0  0  0  0
   47.9490   34.9970   41.1630 C   0  0  0  0  0  0  0  0  0  0  0  0
   47.4540   34.7680   42.5580 C   0  0  1  0  0  0  0  0  0  0  0  0
   46.0610   35.0040   42.7300 N   0  0  0  0  0  0  0  0  0  0  0  0
   45.2750   35.5750   43.6900 C   0  0  0  0  0  0  0  0  0  0  0  0
   43.9900   35.5230   43.3240 N   0  0  0  0  0  0  0  0  0  0  0  0
   43.9170   34.9200   42.1220 C   0  0  0  0  0  0  0  0  0  0  0  0
   42.7710   34.6690   41.3940 C   0  0  0  0  0  0  0  0  0  0  0  0
   42.9460   34.0450   40.2050 N   0  0  0  0  0  0  0  0  0  0  0  0
   44.2030   33.7100   39.8050 C   0  0  0  0  0  0  0  0  0  0  0  0
   45.2800   33.9810   40.5570 N   0  0  0  0  0  0  0  0  0  0  0  0
   45.2050   34.5960   41.7500 C   0  0  0  0  0  0  0  0  0  0  0  0
   45.7500   30.9440   44.7600 C   0  0  0  0  0  0  0  0  0  0  0  0
   46.4670   31.5700   43.7270 C   0  0  0  0  0  0  0  0  0  0  0  0
   47.2000   32.7270   43.9560 C   0  0  0  0  0  0  0  0  0  0  0  0
   47.1810   33.2030   45.2140 N   0  0  0  0  0  0  0  0  0  0  0  0
   46.4870   32.5960   46.2160 C   0  0  0  0  0  0  0  0  0  0  0  0
   45.7740   31.4680   45.9840 N   0  0  0  0  0  0  0  0  0  0  0  0
   48.9397   33.3896   43.3469 H   0  0  0  0  0  0  0  0  0  0  0  0
   48.5639   31.7557   41.6391 H   0  0  0  0  0  0  0  0  0  0  0  0
   47.0002   32.3715   41.2016 H   0  0  0  0  0  0  0  0  0  0  0  0
   48.5409   33.5296   39.6521 H   0  0  0  0  0  0  0  0  0  0  0  0
   49.7729   33.7648   40.8526 H   0  0  0  0  0  0  0  0  0  0  0  0
   48.6380   35.8543   41.1443 H   0  0  0  0  0  0  0  0  0  0  0  0
   47.1117   35.2169   40.4844 H   0  0  0  0  0  0  0  0  0  0  0  0
   47.8492   35.5005   43.2772 H   0  0  0  0  0  0  0  0  0  0  0  0
   45.6454   36.0140   44.6282 H   0  0  0  0  0  0  0  0  0  0  0  0
   41.7744   34.9589   41.7584 H   0  0  0  0  0  0  0  0  0  0  0  0
   44.3394   33.2030   38.8384 H   0  0  0  0  0  0  0  0  0  0  0  0
   45.1736   30.0288   44.5596 H   0  0  0  0  0  0  0  0  0  0  0  0
   46.4475   31.1352   42.7168 H   0  0  0  0  0  0  0  0  0  0  0  0
   46.5057   33.0276   47.2276 H   0  0  0  0  0  0  0  0  0  0  0  0
  1 17  1  0
  2  1  1  0
  3  4  1  0
  3  2  1  0
  4  5  1  0
  5  6  1  0
  5  1  1  0
  6  7  1  0
  8  7  2  0
  9  8  1  0
 10  9  2  0
 11 10  1  0
 12 11  2  0
 12 13  1  0
 13 14  2  0
 14  9  1  0
 14  6  1  0
 15 20  2  0
 16 17  2  0
 16 15  1  0
 17 18  1  0
 18 19  2  0
 20 19  1  0
  1 21  1  1
  2 22  1  0
  2 23  1  0
  3 24  1  0
  3 25  1  0
  4 26  1  0
  4 27  1  0
  5 28  1  1
  7 29  1  0
 10 30  1  0
 12 31  1  0
 15 32  1  0
 16 33  1  0
 19 34  1  0
M  ISO  8  21  13  22  13  23  13  24  13  25  13  26  13  27  13  28  13
M  ISO  6  29  14  30  14  31  14  32  14  33  14  34  14
M  END
>  <minimizedAffinity>  (1) 
-4.64233065

>  <minimizedRMSD>  (1) 
3.55112648

$$$$
