
     RDKit          3D

 28 30  0  0  1  0  0  0  0  0999 V2000
   46.7670   34.8760   42.1380 C   0  0  1  0  0  0  0  0  0  0  0  0
   48.0630   34.1640   42.1070 C   0  0  0  0  0  0  0  0  0  0  0  0
   48.4070   34.2990   40.6170 C   0  0  0  0  0  0  0  0  0  0  0  0
   47.0640   33.9770   39.9810 C   0  0  0  0  0  0  0  0  0  0  0  0
   45.9940   34.3330   40.9770 C   0  0  1  0  0  0  0  0  0  0  0  0
   45.5750   33.9710   45.5880 C   0  0  0  0  0  0  0  0  0  0  0  0
   46.2660   33.9540   44.3620 C   0  0  0  0  0  0  0  0  0  0  0  0
   46.0490   34.9230   43.4030 C   0  0  0  0  0  0  0  0  0  0  0  0
   45.1540   35.8780   43.6910 N   0  0  0  0  0  0  0  0  0  0  0  0
   44.4830   35.9080   44.8640 C   0  0  0  0  0  0  0  0  0  0  0  0
   44.6900   34.9630   45.8050 N   0  0  0  0  0  0  0  0  0  0  0  0
   45.0720   33.2340   41.2490 C   0  0  0  0  0  0  0  0  0  0  0  0
   45.2660   31.9140   41.4630 N   0  0  0  0  0  0  0  0  0  0  0  0
   44.1100   31.3640   41.6610 O   0  0  0  0  0  0  0  0  0  0  0  0
   43.1250   32.2250   41.5980 C   0  0  0  0  0  0  0  0  0  0  0  0
   43.7190   33.3930   41.3400 N   0  0  0  0  0  0  0  0  0  0  0  0
   46.9449   35.9572   42.0413 H   0  0  0  0  0  0  0  0  0  0  0  0
   48.8132   34.6541   42.7450 H   0  0  0  0  0  0  0  0  0  0  0  0
   48.0327   33.1308   42.4833 H   0  0  0  0  0  0  0  0  0  0  0  0
   48.7377   35.3184   40.3692 H   0  0  0  0  0  0  0  0  0  0  0  0
   49.2342   33.6561   40.2817 H   0  0  0  0  0  0  0  0  0  0  0  0
   46.9327   34.5671   39.0620 H   0  0  0  0  0  0  0  0  0  0  0  0
   47.0069   32.9109   39.7160 H   0  0  0  0  0  0  0  0  0  0  0  0
   45.2776   35.0859   40.6165 H   0  0  0  0  0  0  0  0  0  0  0  0
   45.7527   33.1957   46.3479 H   0  0  0  0  0  0  0  0  0  0  0  0
   46.9933   33.1528   44.1641 H   0  0  0  0  0  0  0  0  0  0  0  0
   43.7585   36.7135   45.0542 H   0  0  0  0  0  0  0  0  0  0  0  0
   42.0503   32.0300   41.7283 H   0  0  0  0  0  0  0  0  0  0  0  0
  1  8  1  0
  2  1  1  0
  3  2  1  0
  4  3  1  0
  4  5  1  0
  5 12  1  0
  5  1  1  0
  6 11  2  0
  7  6  1  0
  8  9  1  0
  8  7  2  0
  9 10  2  0
 10 11  1  0
 12 16  1  0
 12 13  2  0
 13 14  1  0
 15 14  1  0
 16 15  2  0
  1 17  1  6
  2 18  1  0
  2 19  1  0
  3 20  1  0
  3 21  1  0
  4 22  1  0
  4 23  1  0
  5 24  1  6
  6 25  1  0
  7 26  1  0
 10 27  1  0
 15 28  1  0
M  ISO  8  17  13  18  13  19  13  20  13  21  13  22  13  23  13  24  13
M  ISO  4  25  14  26  14  27  14  28  14
M  END
>  <minimizedAffinity>  (1) 
-4.49946404

>  <minimizedRMSD>  (1) 
4.1386528

$$$$
