
     RDKit          3D

 27 28  0  0  1  0  0  0  0  0999 V2000
   46.9400   34.2520   42.3160 C   0  0  1  0  0  0  0  0  0  0  0  0
   46.2990   34.4390   41.0130 C   0  0  0  0  0  0  0  0  0  0  0  0
   47.4840   34.1810   40.0930 C   0  0  0  0  0  0  0  0  0  0  0  0
   48.5700   35.0010   40.7810 C   0  0  0  0  0  0  0  0  0  0  0  0
   48.1700   35.1620   42.2160 C   0  0  2  0  0  0  0  0  0  0  0  0
   44.4850   35.8930   44.6960 C   0  0  0  0  0  0  0  0  0  0  0  0
   45.2490   35.6220   43.5450 C   0  0  0  0  0  0  0  0  0  0  0  0
   46.1420   34.5350   43.5020 C   0  0  0  0  0  0  0  0  0  0  0  0
   46.2160   33.7900   44.6070 N   0  0  0  0  0  0  0  0  0  0  0  0
   45.4950   34.0290   45.7220 C   0  0  0  0  0  0  0  0  0  0  0  0
   44.6330   35.0750   45.7690 N   0  0  0  0  0  0  0  0  0  0  0  0
   49.1970   34.5740   43.0550 N   0  0  0  0  0  0  0  0  0  0  0  0
   50.4130   34.1610   42.4160 C   0  0  0  0  0  0  0  0  0  0  0  0
   50.8070   32.9540   42.4460 O   0  0  0  0  0  0  0  0  0  0  0  0
   47.1535   33.1855   42.4806 H   0  0  0  0  0  0  0  0  0  0  0  0
   45.4895   33.7126   40.8488 H   0  0  0  0  0  0  0  0  0  0  0  0
   45.8097   35.4144   40.8742 H   0  0  0  0  0  0  0  0  0  0  0  0
   47.2897   34.5431   39.0727 H   0  0  0  0  0  0  0  0  0  0  0  0
   47.7332   33.1177   39.9617 H   0  0  0  0  0  0  0  0  0  0  0  0
   49.5347   34.4764   40.7164 H   0  0  0  0  0  0  0  0  0  0  0  0
   48.6805   35.9824   40.2966 H   0  0  0  0  0  0  0  0  0  0  0  0
   48.0066   36.2084   42.5131 H   0  0  0  0  0  0  0  0  0  0  0  0
   43.7879   36.7435   44.7249 H   0  0  0  0  0  0  0  0  0  0  0  0
   45.1462   36.2716   42.6633 H   0  0  0  0  0  0  0  0  0  0  0  0
   45.6068   33.3722   46.5973 H   0  0  0  0  0  0  0  0  0  0  0  0
   49.0586   34.4577   44.0690 H   0  0  0  0  0  0  0  0  0  0  0  0
   51.0203   34.9095   41.8860 H   0  0  0  0  0  0  0  0  0  0  0  0
  1  8  1  0
  2  1  1  0
  3  4  1  0
  3  2  1  0
  4  5  1  0
  5  1  1  0
  5 12  1  0
  6 11  2  0
  7  6  1  0
  8  7  2  0
  8  9  1  0
  9 10  2  0
 10 11  1  0
 13 14  2  0
 13 12  1  0
  1 15  1  1
  2 16  1  0
  2 17  1  0
  3 18  1  0
  3 19  1  0
  4 20  1  0
  4 21  1  0
  5 22  1  1
  6 23  1  0
  7 24  1  0
 10 25  1  0
 12 26  1  0
 13 27  1  0
M  ISO  8  15  13  16  13  17  13  18  13  19  13  20  13  21  13  22  13
M  ISO  4  23  14  24  14  25  14  27   6
M  END
>  <minimizedAffinity>  (1) 
-5.25768995

>  <minimizedRMSD>  (1) 
1.06270695

$$$$
