
     RDKit          3D

 28 29  0  0  1  0  0  0  0  0999 V2000
   46.9530   34.0730   40.6490 C   0  0  1  0  0  0  0  0  0  0  0  0
   44.6070   34.7770   41.2820 C   0  0  0  0  0  0  0  0  0  0  0  0
   45.9830   34.6040   41.5980 C   0  0  0  0  0  0  0  0  0  0  0  0
   46.3870   34.9720   42.8790 C   0  0  0  0  0  0  0  0  0  0  0  0
   45.4520   35.4670   43.7340 N   0  0  0  0  0  0  0  0  0  0  0  0
   44.1670   35.6180   43.4120 C   0  0  0  0  0  0  0  0  0  0  0  0
   43.7330   35.2680   42.1630 N   0  0  0  0  0  0  0  0  0  0  0  0
   47.9660   33.2010   41.2940 C   0  0  0  0  0  0  0  0  0  0  0  0
   46.1990   33.3180   39.5630 C   0  0  0  0  0  0  0  0  0  0  0  0
   47.0550   32.9970   38.4070 C   0  0  0  0  0  0  0  0  0  0  0  0
   47.2230   31.7730   37.7940 C   0  0  0  0  0  0  0  0  0  0  0  0
   48.0720   31.6450   36.7110 C   0  0  0  0  0  0  0  0  0  0  0  0
   48.7650   32.7350   36.2270 C   0  0  0  0  0  0  0  0  0  0  0  0
   48.5860   33.9520   36.8510 C   0  0  0  0  0  0  0  0  0  0  0  0
   47.7540   34.0490   37.9030 N   0  0  0  0  0  0  0  0  0  0  0  0
   47.5124   34.9140   40.2133 H   0  0  0  0  0  0  0  0  0  0  0  0
   44.2518   34.4971   40.2793 H   0  0  0  0  0  0  0  0  0  0  0  0
   47.4362   34.8650   43.1916 H   0  0  0  0  0  0  0  0  0  0  0  0
   43.4578   36.0230   44.1489 H   0  0  0  0  0  0  0  0  0  0  0  0
   47.8747   33.2796   42.3874 H   0  0  0  0  0  0  0  0  0  0  0  0
   47.8011   32.1578   40.9863 H   0  0  0  0  0  0  0  0  0  0  0  0
   48.9730   33.5192   40.9863 H   0  0  0  0  0  0  0  0  0  0  0  0
   45.8122   32.3800   39.9879 H   0  0  0  0  0  0  0  0  0  0  0  0
   45.3833   33.9650   39.2081 H   0  0  0  0  0  0  0  0  0  0  0  0
   46.6784   30.8940   38.1691 H   0  0  0  0  0  0  0  0  0  0  0  0
   48.1964   30.6636   36.2300 H   0  0  0  0  0  0  0  0  0  0  0  0
   49.4425   32.6363   35.3661 H   0  0  0  0  0  0  0  0  0  0  0  0
   49.1227   34.8413   36.4889 H   0  0  0  0  0  0  0  0  0  0  0  0
  1  8  1  0
  1  3  1  0
  2  3  2  0
  2  7  1  0
  3  4  1  0
  4  5  2  0
  6  5  1  0
  7  6  2  0
  9  1  1  0
 10  9  1  0
 11 10  2  0
 12 11  1  0
 13 12  2  0
 13 14  1  0
 14 15  2  0
 15 10  1  0
  1 16  1  6
  2 17  1  0
  4 18  1  0
  6 19  1  0
  8 20  1  0
  8 21  1  0
  8 22  1  0
  9 23  1  0
  9 24  1  0
 11 25  1  0
 12 26  1  0
 13 27  1  0
 14 28  1  0
M  ISO  8  16   8  17  14  18  14  19  14  20   8  21   8  22   8  23   8
M  ISO  5  24   8  25  14  26  14  27  14  28  14
M  END
>  <minimizedAffinity>  (1) 
-3.49651885

>  <minimizedRMSD>  (1) 
5.22887802

$$$$
