
     RDKit          3D

 41 43  0  0  1  0  0  0  0  0999 V2000
   46.2230   33.6860   41.3380 C   0  0  1  0  0  0  0  0  0  0  0  0
   45.3080   33.7160   40.2120 C   0  0  0  0  0  0  0  0  0  0  0  0
   46.2110   33.2380   39.0930 C   0  0  0  0  0  0  0  0  0  0  0  0
   47.4970   33.9650   39.3790 C   0  0  0  0  0  0  0  0  0  0  0  0
   47.4970   34.3230   40.8400 C   0  0  2  0  0  0  0  0  0  0  0  0
   44.8000   36.0200   43.9350 C   0  0  0  0  0  0  0  0  0  0  0  0
   45.2320   35.5180   42.6860 C   0  0  0  0  0  0  0  0  0  0  0  0
   45.7690   34.2310   42.6220 C   0  0  0  0  0  0  0  0  0  0  0  0
   45.8470   33.5280   43.7740 N   0  0  0  0  0  0  0  0  0  0  0  0
   45.4350   34.0170   44.9440 C   0  0  0  0  0  0  0  0  0  0  0  0
   44.9090   35.2620   45.0360 N   0  0  0  0  0  0  0  0  0  0  0  0
   48.6300   33.8300   41.4900 N   0  0  0  0  0  0  0  0  0  0  0  0
   49.4280   34.7720   42.2050 C   0  0  0  0  0  0  0  0  0  0  0  0
   48.9720   34.7870   43.5030 F   0  0  0  0  0  0  0  0  0  0  0  0
   49.3810   36.0040   41.6230 F   0  0  0  0  0  0  0  0  0  0  0  0
   50.7660   34.4430   42.2890 F   0  0  0  0  0  0  0  0  0  0  0  0
   49.0520   32.2430   41.5560 S   0  0  0  0  0  0  0  0  0  0  0  0
   47.9630   31.2690   41.2030 O   0  0  0  0  0  0  0  0  0  0  0  0
   49.5470   31.7950   42.9270 O   0  0  0  0  0  0  0  0  0  0  0  0
   50.3540   31.8690   40.4470 C   0  0  0  0  0  0  0  0  0  0  0  0
   50.2580   31.6950   39.0860 C   0  0  0  0  0  0  0  0  0  0  0  0
   51.2980   31.3890   38.2410 C   0  0  0  0  0  0  0  0  0  0  0  0
   52.5530   31.2360   38.7640 C   0  0  0  0  0  0  0  0  0  0  0  0
   52.7260   31.3940   40.1210 C   0  0  0  0  0  0  0  0  0  0  0  0
   51.6490   31.7010   40.9210 C   0  0  0  0  0  0  0  0  0  0  0  0
   46.3466   32.6343   41.6358 H   0  0  0  0  0  0  0  0  0  0  0  0
   44.4579   33.0347   40.3640 H   0  0  0  0  0  0  0  0  0  0  0  0
   44.8426   34.6963   40.0318 H   0  0  0  0  0  0  0  0  0  0  0  0
   45.8067   33.5177   38.1090 H   0  0  0  0  0  0  0  0  0  0  0  0
   46.3241   32.1444   39.0577 H   0  0  0  0  0  0  0  0  0  0  0  0
   48.3548   33.3151   39.1513 H   0  0  0  0  0  0  0  0  0  0  0  0
   47.5780   34.8693   38.7579 H   0  0  0  0  0  0  0  0  0  0  0  0
   47.5321   35.4063   41.0278 H   0  0  0  0  0  0  0  0  0  0  0  0
   44.3746   37.0321   44.0038 H   0  0  0  0  0  0  0  0  0  0  0  0
   45.1462   36.1326   41.7778 H   0  0  0  0  0  0  0  0  0  0  0  0
   45.5237   33.3991   45.8497 H   0  0  0  0  0  0  0  0  0  0  0  0
   49.2618   31.8109   38.6343 H   0  0  0  0  0  0  0  0  0  0  0  0
   51.1241   31.2690   37.1615 H   0  0  0  0  0  0  0  0  0  0  0  0
   53.4061   30.9918   38.1140 H   0  0  0  0  0  0  0  0  0  0  0  0
   53.7251   31.2748   40.5656 H   0  0  0  0  0  0  0  0  0  0  0  0
   51.8241   31.8205   42.0004 H   0  0  0  0  0  0  0  0  0  0  0  0
  1  8  1  0
  2  1  1  0
  3  4  1  0
  3  2  1  0
  4  5  1  0
  5  1  1  0
  5 12  1  0
  6 11  2  0
  7  6  1  0
  8  7  2  0
  8  9  1  0
  9 10  2  0
 10 11  1  0
 12 17  1  0
 12 13  1  0
 13 16  1  0
 13 14  1  0
 15 13  1  0
 17 19  2  0
 18 17  2  0
 20 25  1  0
 20 17  1  0
 21 20  2  0
 22 23  2  0
 22 21  1  0
 23 24  1  0
 24 25  2  0
  1 26  1  1
  2 27  1  0
  2 28  1  0
  3 29  1  0
  3 30  1  0
  4 31  1  0
  4 32  1  0
  5 33  1  6
  6 34  1  0
  7 35  1  0
 10 36  1  0
 21 37  1  0
 22 38  1  0
 23 39  1  0
 24 40  1  0
 25 41  1  0
M  ISO  8  26  13  27  13  28  13  29  13  30  13  31  13  32  13  33  13
M  ISO  8  34  14  35  14  36  14  37  14  38  14  39  14  40  14  41  14
M  END
>  <minimizedAffinity>  (1) 
-5.67888308

>  <minimizedRMSD>  (1) 
1.5332408

$$$$
