
     RDKit          3D

 20 20  0  0  1  0  0  0  0  0999 V2000
   46.5720   34.1830   42.1090 C   0  0  1  0  0  0  0  0  0  0  0  0
   45.1240   35.7790   43.4550 C   0  0  0  0  0  0  0  0  0  0  0  0
   45.8910   34.5880   43.3360 C   0  0  0  0  0  0  0  0  0  0  0  0
   45.9650   33.7900   44.4760 C   0  0  0  0  0  0  0  0  0  0  0  0
   45.3200   34.1820   45.6020 N   0  0  0  0  0  0  0  0  0  0  0  0
   44.6040   35.3170   45.6770 C   0  0  0  0  0  0  0  0  0  0  0  0
   44.5040   36.1280   44.5890 N   0  0  0  0  0  0  0  0  0  0  0  0
   45.6490   34.2460   40.9380 C   0  0  0  0  0  0  0  0  0  0  0  0
   47.7840   35.0770   41.9110 C   0  0  0  0  0  0  0  0  0  0  0  0
   48.3990   34.7540   40.2130 S   0  0  0  0  0  0  0  0  0  0  0  0
   46.9023   33.1373   42.1953 H   0  0  0  0  0  0  0  0  0  0  0  0
   45.0365   36.4402   42.5803 H   0  0  0  0  0  0  0  0  0  0  0  0
   46.5403   32.8526   44.4623 H   0  0  0  0  0  0  0  0  0  0  0  0
   44.0999   35.5897   46.6159 H   0  0  0  0  0  0  0  0  0  0  0  0
   44.6103   34.3169   41.2932 H   0  0  0  0  0  0  0  0  0  0  0  0
   45.8893   35.1298   40.3288 H   0  0  0  0  0  0  0  0  0  0  0  0
   45.7670   33.3377   40.3288 H   0  0  0  0  0  0  0  0  0  0  0  0
   47.4978   36.1338   42.0167 H   0  0  0  0  0  0  0  0  0  0  0  0
   48.5601   34.8664   42.6616 H   0  0  0  0  0  0  0  0  0  0  0  0
   49.6105   34.1177   40.2794 H   0  0  0  0  0  0  0  0  0  0  0  0
  1  3  1  0
  2  7  2  0
  3  2  1  0
  3  4  2  0
  4  5  1  0
  5  6  2  0
  7  6  1  0
  8  1  1  0
  9  1  1  0
 10  9  1  0
  1 11  1  1
  2 12  1  0
  4 13  1  0
  6 14  1  0
  8 15  1  0
  8 16  1  0
  8 17  1  0
  9 18  1  0
  9 19  1  0
 10 20  1  0
M  ISO  8  11   8  12  14  13  14  14  14  15   8  16   8  17   8  18   8
M  ISO  2  19   8  20  11
M  END
>  <minimizedAffinity>  (1) 
-3.3511529

>  <minimizedRMSD>  (1) 
0.517376602

$$$$
