
     RDKit          3D

 35 37  0  0  1  0  0  0  0  0999 V2000
   46.4180   33.6690   41.2230 C   0  0  1  0  0  0  0  0  0  0  0  0
   45.5220   33.6330   40.0800 C   0  0  0  0  0  0  0  0  0  0  0  0
   46.4730   33.2190   38.9730 C   0  0  0  0  0  0  0  0  0  0  0  0
   47.6920   34.0710   39.2770 C   0  0  0  0  0  0  0  0  0  0  0  0
   47.6330   34.4720   40.7060 C   0  0  2  0  0  0  0  0  0  0  0  0
   44.8360   35.9270   43.7970 C   0  0  0  0  0  0  0  0  0  0  0  0
   45.3240   35.4410   42.5700 C   0  0  0  0  0  0  0  0  0  0  0  0
   45.9150   34.1720   42.4790 C   0  0  0  0  0  0  0  0  0  0  0  0
   45.9750   33.4790   43.6220 N   0  0  0  0  0  0  0  0  0  0  0  0
   45.5120   33.9360   44.7960 C   0  0  0  0  0  0  0  0  0  0  0  0
   44.9400   35.1660   44.8820 N   0  0  0  0  0  0  0  0  0  0  0  0
   48.8010   33.9880   41.4140 N   0  0  0  0  0  0  0  0  0  0  0  0
   49.1800   32.6170   41.3760 C   0  0  0  0  0  0  0  0  0  0  0  0
   49.3730   31.5410   42.2230 C   0  0  0  0  0  0  0  0  0  0  0  0
   49.7550   30.4580   41.4480 C   0  0  0  0  0  0  0  0  0  0  0  0
   49.7870   30.8840   40.1720 N   0  0  0  0  0  0  0  0  0  0  0  0
   49.4470   32.1630   40.1140 N   0  0  0  0  0  0  0  0  0  0  0  0
   49.4730   35.0060   42.1700 C   0  0  0  0  0  0  0  0  0  0  0  0
   48.9120   34.9760   43.4440 F   0  0  0  0  0  0  0  0  0  0  0  0
   49.3860   36.2400   41.6140 F   0  0  0  0  0  0  0  0  0  0  0  0
   50.8140   34.7390   42.3740 F   0  0  0  0  0  0  0  0  0  0  0  0
   46.6373   32.6359   41.5307 H   0  0  0  0  0  0  0  0  0  0  0  0
   44.7198   32.8935   40.2198 H   0  0  0  0  0  0  0  0  0  0  0  0
   44.9934   34.5789   39.8908 H   0  0  0  0  0  0  0  0  0  0  0  0
   46.0587   33.4519   37.9810 H   0  0  0  0  0  0  0  0  0  0  0  0
   46.6800   32.1390   38.9439 H   0  0  0  0  0  0  0  0  0  0  0  0
   48.6078   33.4908   39.0905 H   0  0  0  0  0  0  0  0  0  0  0  0
   47.7032   34.9622   38.6323 H   0  0  0  0  0  0  0  0  0  0  0  0
   47.5752   35.5622   40.8408 H   0  0  0  0  0  0  0  0  0  0  0  0
   44.3745   36.9236   43.8576 H   0  0  0  0  0  0  0  0  0  0  0  0
   45.2408   36.0656   41.6684 H   0  0  0  0  0  0  0  0  0  0  0  0
   45.5962   33.3097   45.6964 H   0  0  0  0  0  0  0  0  0  0  0  0
   49.2460   31.5444   43.3156 H   0  0  0  0  0  0  0  0  0  0  0  0
   49.9875   29.4445   41.8069 H   0  0  0  0  0  0  0  0  0  0  0  0
   50.0386   30.3018   39.3605 H   0  0  0  0  0  0  0  0  0  0  0  0
  1  8  1  0
  2  1  1  0
  3  4  1  0
  3  2  1  0
  4  5  1  0
  5  1  1  0
  5 12  1  0
  6 11  2  0
  7  6  1  0
  8  7  2  0
  8  9  1  0
  9 10  2  0
 10 11  1  0
 12 18  1  0
 13 12  1  0
 13 14  1  0
 15 14  2  0
 16 15  1  0
 17 16  1  0
 17 13  2  0
 18 21  1  0
 18 19  1  0
 20 18  1  0
  1 22  1  1
  2 23  1  0
  2 24  1  0
  3 25  1  0
  3 26  1  0
  4 27  1  0
  4 28  1  0
  5 29  1  6
  6 30  1  0
  7 31  1  0
 10 32  1  0
 14 33  1  0
 15 34  1  0
 16 35  1  0
M  ISO  8  22  13  23  13  24  13  25  13  26  13  27  13  28  13  29  13
M  ISO  6  30  14  31  14  32  14  33  14  34  14  35   9
M  END
>  <minimizedAffinity>  (1) 
-5.42170525

>  <minimizedRMSD>  (1) 
0.191860065

$$$$
