
     RDKit          3D

 33 35  0  0  1  0  0  0  0  0999 V2000
   46.4060   33.6590   41.1880 C   0  0  1  0  0  0  0  0  0  0  0  0
   45.5040   33.5810   40.0500 C   0  0  0  0  0  0  0  0  0  0  0  0
   46.4470   33.1670   38.9460 C   0  0  0  0  0  0  0  0  0  0  0  0
   47.6660   34.0200   39.2230 C   0  0  0  0  0  0  0  0  0  0  0  0
   47.6010   34.4700   40.6430 C   0  0  2  0  0  0  0  0  0  0  0  0
   44.9070   35.9640   43.7710 C   0  0  0  0  0  0  0  0  0  0  0  0
   45.3880   35.4710   42.5440 C   0  0  0  0  0  0  0  0  0  0  0  0
   45.9080   34.1750   42.4420 C   0  0  0  0  0  0  0  0  0  0  0  0
   45.9100   33.4660   43.5770 N   0  0  0  0  0  0  0  0  0  0  0  0
   45.4560   33.9230   44.7510 C   0  0  0  0  0  0  0  0  0  0  0  0
   44.9510   35.1820   44.8460 N   0  0  0  0  0  0  0  0  0  0  0  0
   48.7830   34.0290   41.3480 N   0  0  0  0  0  0  0  0  0  0  0  0
   49.2340   32.7100   41.2250 C   0  0  0  0  0  0  0  0  0  0  0  0
   50.3690   32.0550   40.8420 N   0  0  0  0  0  0  0  0  0  0  0  0
   50.2000   30.7690   40.9370 O   0  0  0  0  0  0  0  0  0  0  0  0
   48.9900   30.5030   41.3690 C   0  0  0  0  0  0  0  0  0  0  0  0
   48.4040   31.7010   41.5440 N   0  0  0  0  0  0  0  0  0  0  0  0
   49.3700   35.0320   42.1840 C   0  0  0  0  0  0  0  0  0  0  0  0
   48.8180   34.8450   43.4500 F   0  0  0  0  0  0  0  0  0  0  0  0
   49.1670   36.2960   41.7340 F   0  0  0  0  0  0  0  0  0  0  0  0
   50.7290   34.8700   42.3680 F   0  0  0  0  0  0  0  0  0  0  0  0
   46.6414   32.6364   41.5180 H   0  0  0  0  0  0  0  0  0  0  0  0
   44.7184   32.8280   40.2108 H   0  0  0  0  0  0  0  0  0  0  0  0
   44.9572   34.5135   39.8465 H   0  0  0  0  0  0  0  0  0  0  0  0
   46.0225   33.3892   37.9558 H   0  0  0  0  0  0  0  0  0  0  0  0
   46.6598   32.0879   38.9313 H   0  0  0  0  0  0  0  0  0  0  0  0
   48.5796   33.4294   39.0601 H   0  0  0  0  0  0  0  0  0  0  0  0
   47.6861   34.8881   38.5478 H   0  0  0  0  0  0  0  0  0  0  0  0
   47.5168   35.5615   40.7505 H   0  0  0  0  0  0  0  0  0  0  0  0
   44.4997   36.9834   43.8403 H   0  0  0  0  0  0  0  0  0  0  0  0
   45.3550   36.1133   41.6516 H   0  0  0  0  0  0  0  0  0  0  0  0
   45.4917   33.2779   45.6413 H   0  0  0  0  0  0  0  0  0  0  0  0
   48.5489   29.5116   41.5496 H   0  0  0  0  0  0  0  0  0  0  0  0
  1  8  1  0
  2  1  1  0
  3  4  1  0
  3  2  1  0
  4  5  1  0
  5  1  1  0
  5 12  1  0
  6 11  2  0
  7  6  1  0
  8  7  2  0
  8  9  1  0
  9 10  2  0
 10 11  1  0
 12 18  1  0
 13 12  1  0
 13 17  1  0
 14 15  1  0
 14 13  2  0
 15 16  1  0
 16 17  2  0
 18 21  1  0
 18 19  1  0
 20 18  1  0
  1 22  1  1
  2 23  1  0
  2 24  1  0
  3 25  1  0
  3 26  1  0
  4 27  1  0
  4 28  1  0
  5 29  1  6
  6 30  1  0
  7 31  1  0
 10 32  1  0
 16 33  1  0
M  ISO  8  22  13  23  13  24  13  25  13  26  13  27  13  28  13  29  13
M  ISO  4  30  14  31  14  32  14  33  14
M  END
>  <minimizedAffinity>  (1) 
-5.4187665

>  <minimizedRMSD>  (1) 
0.337332457

$$$$
