
     RDKit          3D

 38 40  0  0  1  0  0  0  0  0999 V2000
   46.2210   33.6340   41.2740 C   0  0  1  0  0  0  0  0  0  0  0  0
   45.2820   33.5560   40.1660 C   0  0  0  0  0  0  0  0  0  0  0  0
   46.1710   33.1080   39.0350 C   0  0  0  0  0  0  0  0  0  0  0  0
   47.4330   33.9260   39.2590 C   0  0  0  0  0  0  0  0  0  0  0  0
   47.4160   34.4020   40.6730 C   0  0  2  0  0  0  0  0  0  0  0  0
   44.8480   36.0360   43.8360 C   0  0  0  0  0  0  0  0  0  0  0  0
   45.2850   35.5040   42.6110 C   0  0  0  0  0  0  0  0  0  0  0  0
   45.7690   34.1950   42.5250 C   0  0  0  0  0  0  0  0  0  0  0  0
   45.7780   33.5200   43.6770 N   0  0  0  0  0  0  0  0  0  0  0  0
   45.3690   34.0030   44.8500 C   0  0  0  0  0  0  0  0  0  0  0  0
   44.8980   35.2770   44.9300 N   0  0  0  0  0  0  0  0  0  0  0  0
   48.6070   33.9540   41.3480 N   0  0  0  0  0  0  0  0  0  0  0  0
   49.2180   32.6840   41.4750 C   0  0  0  0  0  0  0  0  0  0  0  0
   48.8400   32.0660   42.6740 C   0  0  0  0  0  0  0  0  0  0  0  0
   49.3480   30.7980   42.9770 C   0  0  0  0  0  0  0  0  0  0  0  0
   50.2140   30.1590   42.1040 C   0  0  0  0  0  0  0  0  0  0  0  0
   50.5890   30.7620   40.9220 C   0  0  0  0  0  0  0  0  0  0  0  0
   50.0800   32.0090   40.6420 C   0  0  0  0  0  0  0  0  0  0  0  0
   49.3010   34.9920   42.0680 C   0  0  0  0  0  0  0  0  0  0  0  0
   48.7060   35.0540   43.3180 F   0  0  0  0  0  0  0  0  0  0  0  0
   49.2810   36.1880   41.4280 F   0  0  0  0  0  0  0  0  0  0  0  0
   50.6250   34.6780   42.3190 F   0  0  0  0  0  0  0  0  0  0  0  0
   46.4460   32.6152   41.6224 H   0  0  0  0  0  0  0  0  0  0  0  0
   44.4880   32.8214   40.3656 H   0  0  0  0  0  0  0  0  0  0  0  0
   44.7508   34.4984   39.9668 H   0  0  0  0  0  0  0  0  0  0  0  0
   45.7176   33.3370   38.0593 H   0  0  0  0  0  0  0  0  0  0  0  0
   46.3501   32.0227   39.0236 H   0  0  0  0  0  0  0  0  0  0  0  0
   48.3212   33.3011   39.0841 H   0  0  0  0  0  0  0  0  0  0  0  0
   47.4697   34.7783   38.5645 H   0  0  0  0  0  0  0  0  0  0  0  0
   47.3544   35.4968   40.7598 H   0  0  0  0  0  0  0  0  0  0  0  0
   44.4690   37.0672   43.8911 H   0  0  0  0  0  0  0  0  0  0  0  0
   45.2457   36.1272   41.7054 H   0  0  0  0  0  0  0  0  0  0  0  0
   45.4121   33.3734   45.7509 H   0  0  0  0  0  0  0  0  0  0  0  0
   48.1526   32.5712   43.3684 H   0  0  0  0  0  0  0  0  0  0  0  0
   49.0575   30.3042   43.9160 H   0  0  0  0  0  0  0  0  0  0  0  0
   50.6055   29.1624   42.3561 H   0  0  0  0  0  0  0  0  0  0  0  0
   51.2750   30.2606   40.2234 H   0  0  0  0  0  0  0  0  0  0  0  0
   50.3786   32.4929   39.7004 H   0  0  0  0  0  0  0  0  0  0  0  0
  1  8  1  0
  2  1  1  0
  3  4  1  0
  3  2  1  0
  4  5  1  0
  5  1  1  0
  5 12  1  0
  6 11  2  0
  7  6  1  0
  8  7  2  0
  8  9  1  0
  9 10  2  0
 10 11  1  0
 12 13  1  0
 12 19  1  0
 13 14  2  0
 14 15  1  0
 16 15  2  0
 17 16  1  0
 18 17  2  0
 18 13  1  0
 19 22  1  0
 19 20  1  0
 21 19  1  0
  1 23  1  1
  2 24  1  0
  2 25  1  0
  3 26  1  0
  3 27  1  0
  4 28  1  0
  4 29  1  0
  5 30  1  6
  6 31  1  0
  7 32  1  0
 10 33  1  0
 14 34  1  0
 15 35  1  0
 16 36  1  0
 17 37  1  0
 18 38  1  0
M  ISO  8  23  13  24  13  25  13  26  13  27  13  28  13  29  13  30  13
M  ISO  8  31  14  32  14  33  14  34  14  35  14  36  14  37  14  38  14
M  END
>  <minimizedAffinity>  (1) 
-5.35164022

>  <minimizedRMSD>  (1) 
0.690525889

$$$$
