
     RDKit          3D

 37 39  0  0  1  0  0  0  0  0999 V2000
   46.3860   33.6520   41.2290 C   0  0  1  0  0  0  0  0  0  0  0  0
   45.4880   33.5950   40.0830 C   0  0  0  0  0  0  0  0  0  0  0  0
   46.4300   33.1690   38.9890 C   0  0  0  0  0  0  0  0  0  0  0  0
   47.6700   34.0080   39.2690 C   0  0  0  0  0  0  0  0  0  0  0  0
   47.5990   34.4480   40.6900 C   0  0  2  0  0  0  0  0  0  0  0  0
   44.8350   35.9710   43.7700 C   0  0  0  0  0  0  0  0  0  0  0  0
   45.3140   35.4710   42.5470 C   0  0  0  0  0  0  0  0  0  0  0  0
   45.8840   34.1810   42.4760 C   0  0  0  0  0  0  0  0  0  0  0  0
   45.9280   33.5000   43.6290 N   0  0  0  0  0  0  0  0  0  0  0  0
   45.4680   33.9790   44.7990 C   0  0  0  0  0  0  0  0  0  0  0  0
   44.9210   35.2200   44.8650 N   0  0  0  0  0  0  0  0  0  0  0  0
   48.7680   34.0020   41.4060 N   0  0  0  0  0  0  0  0  0  0  0  0
   49.2730   32.6790   41.4930 C   0  0  0  0  0  0  0  0  0  0  0  0
   49.0210   31.8480   42.5670 C   0  0  0  0  0  0  0  0  0  0  0  0
   49.4890   30.5560   42.7000 C   0  0  0  0  0  0  0  0  0  0  0  0
   50.2700   30.0580   41.6770 C   0  0  0  0  0  0  0  0  0  0  0  0
   50.5350   30.8670   40.5940 C   0  0  0  0  0  0  0  0  0  0  0  0
   50.0410   32.1150   40.5430 N   0  0  0  0  0  0  0  0  0  0  0  0
   49.4370   35.0380   42.1400 C   0  0  0  0  0  0  0  0  0  0  0  0
   48.8570   35.0470   43.4040 F   0  0  0  0  0  0  0  0  0  0  0  0
   49.3710   36.2540   41.5440 F   0  0  0  0  0  0  0  0  0  0  0  0
   50.7730   34.7660   42.3680 F   0  0  0  0  0  0  0  0  0  0  0  0
   46.6056   32.6262   41.5601 H   0  0  0  0  0  0  0  0  0  0  0  0
   44.6876   32.8559   40.2353 H   0  0  0  0  0  0  0  0  0  0  0  0
   44.9585   34.5374   39.8791 H   0  0  0  0  0  0  0  0  0  0  0  0
   46.0136   33.3957   37.9964 H   0  0  0  0  0  0  0  0  0  0  0  0
   46.6280   32.0870   38.9804 H   0  0  0  0  0  0  0  0  0  0  0  0
   48.5760   33.4056   39.1069 H   0  0  0  0  0  0  0  0  0  0  0  0
   47.7113   34.8766   38.5953 H   0  0  0  0  0  0  0  0  0  0  0  0
   47.5259   35.5404   40.7966 H   0  0  0  0  0  0  0  0  0  0  0  0
   44.3919   36.9765   43.8216 H   0  0  0  0  0  0  0  0  0  0  0  0
   45.2444   36.0885   41.6393 H   0  0  0  0  0  0  0  0  0  0  0  0
   45.5354   33.3619   45.7071 H   0  0  0  0  0  0  0  0  0  0  0  0
   48.3980   32.2472   43.3809 H   0  0  0  0  0  0  0  0  0  0  0  0
   49.2492   29.9484   43.5851 H   0  0  0  0  0  0  0  0  0  0  0  0
   50.6728   29.0356   41.7254 H   0  0  0  0  0  0  0  0  0  0  0  0
   51.1541   30.4892   39.7670 H   0  0  0  0  0  0  0  0  0  0  0  0
  1  8  1  0
  2  1  1  0
  3  4  1  0
  3  2  1  0
  4  5  1  0
  5  1  1  0
  5 12  1  0
  6 11  2  0
  7  6  1  0
  8  7  2  0
  8  9  1  0
  9 10  2  0
 10 11  1  0
 12 13  1  0
 12 19  1  0
 13 14  2  0
 14 15  1  0
 16 15  2  0
 17 16  1  0
 18 17  2  0
 18 13  1  0
 19 22  1  0
 19 20  1  0
 21 19  1  0
  1 23  1  1
  2 24  1  0
  2 25  1  0
  3 26  1  0
  3 27  1  0
  4 28  1  0
  4 29  1  0
  5 30  1  6
  6 31  1  0
  7 32  1  0
 10 33  1  0
 14 34  1  0
 15 35  1  0
 16 36  1  0
 17 37  1  0
M  ISO  8  23  13  24  13  25  13  26  13  27  13  28  13  29  13  30  13
M  ISO  7  31  14  32  14  33  14  34  14  35  14  36  14  37  14
M  END
>  <minimizedAffinity>  (1) 
-5.33489895

>  <minimizedRMSD>  (1) 
0.450548083

$$$$
