
     RDKit          3D

 36 38  0  0  1  0  0  0  0  0999 V2000
   46.3960   33.6620   41.2300 C   0  0  1  0  0  0  0  0  0  0  0  0
   45.5020   33.5880   40.0860 C   0  0  0  0  0  0  0  0  0  0  0  0
   46.4460   33.1700   38.9910 C   0  0  0  0  0  0  0  0  0  0  0  0
   47.6700   34.0260   39.2690 C   0  0  0  0  0  0  0  0  0  0  0  0
   47.6080   34.4560   40.6930 C   0  0  2  0  0  0  0  0  0  0  0  0
   44.8470   35.9660   43.7810 C   0  0  0  0  0  0  0  0  0  0  0  0
   45.3300   35.4680   42.5570 C   0  0  0  0  0  0  0  0  0  0  0  0
   45.8970   34.1850   42.4800 C   0  0  0  0  0  0  0  0  0  0  0  0
   45.9360   33.5010   43.6280 N   0  0  0  0  0  0  0  0  0  0  0  0
   45.4800   33.9660   44.7970 C   0  0  0  0  0  0  0  0  0  0  0  0
   44.9290   35.2120   44.8730 N   0  0  0  0  0  0  0  0  0  0  0  0
   48.7760   34.0010   41.4050 N   0  0  0  0  0  0  0  0  0  0  0  0
   49.2740   32.6750   41.4790 C   0  0  0  0  0  0  0  0  0  0  0  0
   49.0150   31.8450   42.5580 C   0  0  0  0  0  0  0  0  0  0  0  0
   49.4740   30.5510   42.6810 C   0  0  0  0  0  0  0  0  0  0  0  0
   50.2310   30.0590   41.6770 N   0  0  0  0  0  0  0  0  0  0  0  0
   50.4910   30.8550   40.6240 C   0  0  0  0  0  0  0  0  0  0  0  0
   50.0310   32.1150   40.5290 N   0  0  0  0  0  0  0  0  0  0  0  0
   49.4480   35.0280   42.1460 C   0  0  0  0  0  0  0  0  0  0  0  0
   48.8690   35.0330   43.4110 F   0  0  0  0  0  0  0  0  0  0  0  0
   49.3750   36.2510   41.5610 F   0  0  0  0  0  0  0  0  0  0  0  0
   50.7830   34.7570   42.3730 F   0  0  0  0  0  0  0  0  0  0  0  0
   46.6149   32.6370   41.5639 H   0  0  0  0  0  0  0  0  0  0  0  0
   44.7115   32.8392   40.2421 H   0  0  0  0  0  0  0  0  0  0  0  0
   44.9622   34.5237   39.8786 H   0  0  0  0  0  0  0  0  0  0  0  0
   46.0252   33.3882   37.9984 H   0  0  0  0  0  0  0  0  0  0  0  0
   46.6580   32.0906   38.9825 H   0  0  0  0  0  0  0  0  0  0  0  0
   48.5844   33.4401   39.0941 H   0  0  0  0  0  0  0  0  0  0  0  0
   47.6874   34.9011   38.6028 H   0  0  0  0  0  0  0  0  0  0  0  0
   47.5421   35.5483   40.8054 H   0  0  0  0  0  0  0  0  0  0  0  0
   44.4048   36.9718   43.8341 H   0  0  0  0  0  0  0  0  0  0  0  0
   45.2630   36.0892   41.6517 H   0  0  0  0  0  0  0  0  0  0  0  0
   45.5496   33.3415   45.6999 H   0  0  0  0  0  0  0  0  0  0  0  0
   48.3987   32.2477   43.3753 H   0  0  0  0  0  0  0  0  0  0  0  0
   49.2325   29.9417   43.5644 H   0  0  0  0  0  0  0  0  0  0  0  0
   51.1073   30.4574   39.8042 H   0  0  0  0  0  0  0  0  0  0  0  0
  1  8  1  0
  2  1  1  0
  3  4  1  0
  3  2  1  0
  4  5  1  0
  5  1  1  0
  5 12  1  0
  6 11  2  0
  7  6  1  0
  8  7  2  0
  8  9  1  0
  9 10  2  0
 10 11  1  0
 12 13  1  0
 12 19  1  0
 13 14  2  0
 14 15  1  0
 16 15  2  0
 17 16  1  0
 18 17  2  0
 18 13  1  0
 19 22  1  0
 19 20  1  0
 21 19  1  0
  1 23  1  1
  2 24  1  0
  2 25  1  0
  3 26  1  0
  3 27  1  0
  4 28  1  0
  4 29  1  0
  5 30  1  6
  6 31  1  0
  7 32  1  0
 10 33  1  0
 14 34  1  0
 15 35  1  0
 17 36  1  0
M  ISO  8  23  13  24  13  25  13  26  13  27  13  28  13  29  13  30  13
M  ISO  6  31  14  32  14  33  14  34  14  35  14  36  14
M  END
>  <minimizedAffinity>  (1) 
-5.29699755

>  <minimizedRMSD>  (1) 
0.520758569

$$$$
