
     RDKit          3D

 40 41  0  0  1  0  0  0  0  0999 V2000
   46.3910   33.5940   41.2280 C   0  0  1  0  0  0  0  0  0  0  0  0
   45.4860   33.6490   40.0640 C   0  0  0  0  0  0  0  0  0  0  0  0
   46.4380   33.1430   38.9800 C   0  0  0  0  0  0  0  0  0  0  0  0
   47.6470   34.0310   39.2820 C   0  0  0  0  0  0  0  0  0  0  0  0
   47.6660   34.2520   40.7360 C   0  0  2  0  0  0  0  0  0  0  0  0
   44.8830   35.9620   43.7500 C   0  0  0  0  0  0  0  0  0  0  0  0
   45.3630   35.4270   42.5380 C   0  0  0  0  0  0  0  0  0  0  0  0
   45.9030   34.1480   42.4870 C   0  0  0  0  0  0  0  0  0  0  0  0
   45.9470   33.4540   43.6360 N   0  0  0  0  0  0  0  0  0  0  0  0
   45.4940   33.9510   44.8000 C   0  0  0  0  0  0  0  0  0  0  0  0
   44.9560   35.2150   44.8630 N   0  0  0  0  0  0  0  0  0  0  0  0
   48.7970   33.8420   41.4330 N   0  0  0  0  0  0  0  0  0  0  0  0
   49.4560   34.8730   42.1640 C   0  0  0  0  0  0  0  0  0  0  0  0
   48.9030   34.9130   43.4280 F   0  0  0  0  0  0  0  0  0  0  0  0
   49.3490   36.1320   41.5690 F   0  0  0  0  0  0  0  0  0  0  0  0
   50.8020   34.7620   42.3380 F   0  0  0  0  0  0  0  0  0  0  0  0
   49.3340   32.6010   41.5670 C   0  0  0  0  0  0  0  0  0  0  0  0
   48.6820   31.4490   42.2480 C   0  0  0  0  0  0  0  0  0  0  0  0
   49.6610   32.0790   40.1460 C   0  0  0  0  0  0  0  0  0  0  0  0
   50.7060   32.6540   42.2630 C   0  0  0  0  0  0  0  0  0  0  0  0
   46.5229   32.5465   41.5367 H   0  0  0  0  0  0  0  0  0  0  0  0
   44.6167   32.9866   40.1885 H   0  0  0  0  0  0  0  0  0  0  0  0
   45.0342   34.6326   39.8683 H   0  0  0  0  0  0  0  0  0  0  0  0
   46.0410   33.3180   37.9692 H   0  0  0  0  0  0  0  0  0  0  0  0
   46.6336   32.0606   38.9927 H   0  0  0  0  0  0  0  0  0  0  0  0
   48.5729   33.5294   38.9640 H   0  0  0  0  0  0  0  0  0  0  0  0
   47.5774   34.9861   38.7407 H   0  0  0  0  0  0  0  0  0  0  0  0
   47.7152   35.3325   40.9362 H   0  0  0  0  0  0  0  0  0  0  0  0
   44.4555   36.9750   43.7836 H   0  0  0  0  0  0  0  0  0  0  0  0
   45.3094   36.0303   41.6197 H   0  0  0  0  0  0  0  0  0  0  0  0
   45.5544   33.3396   45.7125 H   0  0  0  0  0  0  0  0  0  0  0  0
   48.7551   31.5781   43.3379 H   0  0  0  0  0  0  0  0  0  0  0  0
   47.6229   31.4012   41.9546 H   0  0  0  0  0  0  0  0  0  0  0  0
   49.1862   30.5164   41.9546 H   0  0  0  0  0  0  0  0  0  0  0  0
   50.2436   31.1490   40.2221 H   0  0  0  0  0  0  0  0  0  0  0  0
   48.7247   31.8818   39.6033 H   0  0  0  0  0  0  0  0  0  0  0  0
   50.2470   32.8354   39.6033 H   0  0  0  0  0  0  0  0  0  0  0  0
   50.5642   32.6485   43.3538 H   0  0  0  0  0  0  0  0  0  0  0  0
   51.3018   31.7782   41.9663 H   0  0  0  0  0  0  0  0  0  0  0  0
   51.2324   33.5732   41.9663 H   0  0  0  0  0  0  0  0  0  0  0  0
  1  8  1  0
  2  1  1  0
  3  4  1  0
  3  2  1  0
  4  5  1  0
  5  1  1  0
  5 12  1  0
  6 11  2  0
  7  6  1  0
  8  7  2  0
  8  9  1  0
  9 10  2  0
 10 11  1  0
 12 17  1  0
 12 13  1  0
 13 16  1  0
 13 14  1  0
 15 13  1  0
 17 18  1  0
 17 20  1  0
 19 17  1  0
  1 21  1  1
  2 22  1  0
  2 23  1  0
  3 24  1  0
  3 25  1  0
  4 26  1  0
  4 27  1  0
  5 28  1  6
  6 29  1  0
  7 30  1  0
 10 31  1  0
 18 32  1  0
 18 33  1  0
 18 34  1  0
 19 35  1  0
 19 36  1  0
 19 37  1  0
 20 38  1  0
 20 39  1  0
 20 40  1  0
M  ISO  8  21  13  22  13  23  13  24  13  25  13  26  13  27  13  28  13
M  ISO  8  29  14  30  14  31  14  32   8  33   8  34   8  35   8  36   8
M  ISO  4  37   8  38   8  39   8  40   8
M  END
>  <minimizedAffinity>  (1) 
-5.22636461

>  <minimizedRMSD>  (1) 
0.451295406

$$$$
