
     RDKit          3D

 34 35  0  0  1  0  0  0  0  0999 V2000
   46.4080   33.6720   41.1820 C   0  0  1  0  0  0  0  0  0  0  0  0
   45.5020   33.6110   40.0450 C   0  0  0  0  0  0  0  0  0  0  0  0
   46.4710   33.1450   38.9620 C   0  0  0  0  0  0  0  0  0  0  0  0
   47.6620   34.0320   39.2250 C   0  0  0  0  0  0  0  0  0  0  0  0
   47.6250   34.4120   40.6840 C   0  0  2  0  0  0  0  0  0  0  0  0
   44.9000   35.9580   43.7690 C   0  0  0  0  0  0  0  0  0  0  0  0
   45.3880   35.4710   42.5400 C   0  0  0  0  0  0  0  0  0  0  0  0
   45.9010   34.1730   42.4570 C   0  0  0  0  0  0  0  0  0  0  0  0
   45.9050   33.4290   43.5890 N   0  0  0  0  0  0  0  0  0  0  0  0
   45.4420   33.8920   44.7560 C   0  0  0  0  0  0  0  0  0  0  0  0
   44.9340   35.1650   44.8490 N   0  0  0  0  0  0  0  0  0  0  0  0
   48.7850   34.0510   41.3550 N   0  0  0  0  0  0  0  0  0  0  0  0
   49.3610   35.0090   42.2310 C   0  0  0  0  0  0  0  0  0  0  0  0
   48.8750   34.7470   43.4930 F   0  0  0  0  0  0  0  0  0  0  0  0
   49.0880   36.2800   41.8230 F   0  0  0  0  0  0  0  0  0  0  0  0
   50.7370   34.9240   42.3450 F   0  0  0  0  0  0  0  0  0  0  0  0
   49.4900   32.5750   41.3790 S   0  0  0  0  0  0  0  0  0  0  0  0
   48.6610   31.4200   42.4270 C   0  0  0  0  0  0  0  0  0  0  0  0
   49.3630   31.9910   39.9650 O   0  0  0  0  0  0  0  0  0  0  0  0
   50.9800   32.5520   41.6030 O   0  0  0  0  0  0  0  0  0  0  0  0
   46.6210   32.6387   41.4934 H   0  0  0  0  0  0  0  0  0  0  0  0
   44.6910   32.8858   40.2072 H   0  0  0  0  0  0  0  0  0  0  0  0
   44.9729   34.5493   39.8221 H   0  0  0  0  0  0  0  0  0  0  0  0
   46.0597   33.3119   37.9555 H   0  0  0  0  0  0  0  0  0  0  0  0
   46.6966   32.0689   38.9939 H   0  0  0  0  0  0  0  0  0  0  0  0
   48.5922   33.4894   39.0009 H   0  0  0  0  0  0  0  0  0  0  0  0
   47.6281   34.9283   38.5882 H   0  0  0  0  0  0  0  0  0  0  0  0
   47.5667   35.4977   40.8507 H   0  0  0  0  0  0  0  0  0  0  0  0
   44.4954   36.9783   43.8412 H   0  0  0  0  0  0  0  0  0  0  0  0
   45.3653   36.1118   41.6462 H   0  0  0  0  0  0  0  0  0  0  0  0
   45.4684   33.2484   45.6477 H   0  0  0  0  0  0  0  0  0  0  0  0
   48.8477   31.6801   43.4794 H   0  0  0  0  0  0  0  0  0  0  0  0
   47.5798   31.4540   42.2272 H   0  0  0  0  0  0  0  0  0  0  0  0
   49.0391   30.4066   42.2272 H   0  0  0  0  0  0  0  0  0  0  0  0
  1  8  1  0
  2  1  1  0
  3  4  1  0
  3  2  1  0
  4  5  1  0
  5  1  1  0
  5 12  1  0
  6 11  2  0
  7  6  1  0
  8  7  2  0
  8  9  1  0
  9 10  2  0
 10 11  1  0
 12 17  1  0
 12 13  1  0
 13 16  1  0
 13 14  1  0
 15 13  1  0
 17 20  2  0
 17 18  1  0
 19 17  2  0
  1 21  1  1
  2 22  1  0
  2 23  1  0
  3 24  1  0
  3 25  1  0
  4 26  1  0
  4 27  1  0
  5 28  1  6
  6 29  1  0
  7 30  1  0
 10 31  1  0
 18 32  1  0
 18 33  1  0
 18 34  1  0
M  ISO  8  21  13  22  13  23  13  24  13  25  13  26  13  27  13  28  13
M  ISO  6  29  14  30  14  31  14  32   8  33   8  34   8
M  END
>  <minimizedAffinity>  (1) 
-5.15957022

>  <minimizedRMSD>  (1) 
0.30047673

$$$$
