
     RDKit          3D

 31 32  0  0  1  0  0  0  0  0999 V2000
   46.4040   33.6620   41.2140 C   0  0  1  0  0  0  0  0  0  0  0  0
   45.5020   33.6420   40.0690 C   0  0  0  0  0  0  0  0  0  0  0  0
   46.4340   33.2100   38.9560 C   0  0  0  0  0  0  0  0  0  0  0  0
   47.6810   34.0280   39.2470 C   0  0  0  0  0  0  0  0  0  0  0  0
   47.6230   34.4240   40.6810 C   0  0  2  0  0  0  0  0  0  0  0  0
   44.8930   35.9580   43.7960 C   0  0  0  0  0  0  0  0  0  0  0  0
   45.3700   35.4630   42.5660 C   0  0  0  0  0  0  0  0  0  0  0  0
   45.9120   34.1770   42.4700 C   0  0  0  0  0  0  0  0  0  0  0  0
   45.9410   33.4710   43.6090 N   0  0  0  0  0  0  0  0  0  0  0  0
   45.4940   33.9240   44.7800 C   0  0  0  0  0  0  0  0  0  0  0  0
   44.9670   35.1770   44.8780 N   0  0  0  0  0  0  0  0  0  0  0  0
   48.7940   33.9880   41.3620 N   0  0  0  0  0  0  0  0  0  0  0  0
   49.4420   34.9120   42.1980 C   0  0  0  0  0  0  0  0  0  0  0  0
   48.8870   34.8070   43.4590 F   0  0  0  0  0  0  0  0  0  0  0  0
   49.3310   36.1870   41.7150 F   0  0  0  0  0  0  0  0  0  0  0  0
   50.7930   34.6820   42.3710 F   0  0  0  0  0  0  0  0  0  0  0  0
   49.0550   32.6280   41.4260 C   0  0  0  0  0  0  0  0  0  0  0  0
   46.6060   32.6302   41.5374 H   0  0  0  0  0  0  0  0  0  0  0  0
   44.6861   32.9184   40.2131 H   0  0  0  0  0  0  0  0  0  0  0  0
   44.9945   34.5998   39.8818 H   0  0  0  0  0  0  0  0  0  0  0  0
   46.0169   33.4561   37.9683 H   0  0  0  0  0  0  0  0  0  0  0  0
   46.6140   32.1252   38.9265 H   0  0  0  0  0  0  0  0  0  0  0  0
   48.5806   33.4235   39.0590 H   0  0  0  0  0  0  0  0  0  0  0  0
   47.7261   34.9153   38.5984 H   0  0  0  0  0  0  0  0  0  0  0  0
   47.5550   35.5130   40.8205 H   0  0  0  0  0  0  0  0  0  0  0  0
   44.4670   36.9699   43.8645 H   0  0  0  0  0  0  0  0  0  0  0  0
   45.3154   36.0968   41.6686 H   0  0  0  0  0  0  0  0  0  0  0  0
   45.5507   33.2831   45.6722 H   0  0  0  0  0  0  0  0  0  0  0  0
   49.1150   32.3153   42.4789 H   0  0  0  0  0  0  0  0  0  0  0  0
   48.2465   32.0755   40.9249 H   0  0  0  0  0  0  0  0  0  0  0  0
   50.0106   32.4141   40.9249 H   0  0  0  0  0  0  0  0  0  0  0  0
  1  8  1  0
  2  1  1  0
  3  4  1  0
  3  2  1  0
  4  5  1  0
  5  1  1  0
  5 12  1  0
  6 11  2  0
  7  6  1  0
  8  7  2  0
  8  9  1  0
  9 10  2  0
 10 11  1  0
 12 17  1  0
 12 13  1  0
 13 16  1  0
 13 14  1  0
 15 13  1  0
  1 18  1  1
  2 19  1  0
  2 20  1  0
  3 21  1  0
  3 22  1  0
  4 23  1  0
  4 24  1  0
  5 25  1  6
  6 26  1  0
  7 27  1  0
 10 28  1  0
 17 29  1  0
 17 30  1  0
 17 31  1  0
M  ISO  8  18  13  19  13  20  13  21  13  22  13  23  13  24  13  25  13
M  ISO  6  26  14  27  14  28  14  29   8  30   8  31   8
M  END
>  <minimizedAffinity>  (1) 
-4.89882851

>  <minimizedRMSD>  (1) 
0.154112846

$$$$
