
     RDKit          3D

 34 35  0  0  1  0  0  0  0  0999 V2000
   46.3660   33.6210   41.1220 C   0  0  1  0  0  0  0  0  0  0  0  0
   45.4340   33.5430   39.9930 C   0  0  0  0  0  0  0  0  0  0  0  0
   46.3790   33.0990   38.8780 C   0  0  0  0  0  0  0  0  0  0  0  0
   47.5830   33.9940   39.1180 C   0  0  0  0  0  0  0  0  0  0  0  0
   47.5390   34.4010   40.5440 C   0  0  2  0  0  0  0  0  0  0  0  0
   44.9720   35.9650   43.7220 C   0  0  0  0  0  0  0  0  0  0  0  0
   45.4440   35.4820   42.4750 C   0  0  0  0  0  0  0  0  0  0  0  0
   45.8800   34.1390   42.3780 C   0  0  0  0  0  0  0  0  0  0  0  0
   45.8150   33.4070   43.4890 N   0  0  0  0  0  0  0  0  0  0  0  0
   45.3750   33.8480   44.6680 C   0  0  0  0  0  0  0  0  0  0  0  0
   44.9470   35.1520   44.7810 N   0  0  0  0  0  0  0  0  0  0  0  0
   48.7460   34.0620   41.2020 N   0  0  0  0  0  0  0  0  0  0  0  0
   49.2900   35.0110   42.0920 C   0  0  0  0  0  0  0  0  0  0  0  0
   48.6470   34.8820   43.3080 F   0  0  0  0  0  0  0  0  0  0  0  0
   49.1690   36.2830   41.6010 F   0  0  0  0  0  0  0  0  0  0  0  0
   50.6300   34.8530   42.3750 F   0  0  0  0  0  0  0  0  0  0  0  0
   49.1280   32.7230   41.2730 C   0  0  0  0  0  0  0  0  0  0  0  0
   49.0630   32.1660   42.6870 C   0  0  0  0  0  0  0  0  0  0  0  0
   46.6165   32.6073   41.4680 H   0  0  0  0  0  0  0  0  0  0  0  0
   44.6413   32.8017   40.1720 H   0  0  0  0  0  0  0  0  0  0  0  0
   44.8881   34.4752   39.7855 H   0  0  0  0  0  0  0  0  0  0  0  0
   45.9392   33.2766   37.8855 H   0  0  0  0  0  0  0  0  0  0  0  0
   46.6123   32.0241   38.8928 H   0  0  0  0  0  0  0  0  0  0  0  0
   48.5118   33.4425   38.9104 H   0  0  0  0  0  0  0  0  0  0  0  0
   47.5590   34.8726   38.4565 H   0  0  0  0  0  0  0  0  0  0  0  0
   47.4207   35.4876   40.6677 H   0  0  0  0  0  0  0  0  0  0  0  0
   44.6278   37.0055   43.8165 H   0  0  0  0  0  0  0  0  0  0  0  0
   45.4709   36.1419   41.5954 H   0  0  0  0  0  0  0  0  0  0  0  0
   45.3542   33.1780   45.5401 H   0  0  0  0  0  0  0  0  0  0  0  0
   48.4582   32.1319   40.6312 H   0  0  0  0  0  0  0  0  0  0  0  0
   50.1742   32.6588   40.9394 H   0  0  0  0  0  0  0  0  0  0  0  0
   49.1591   32.9893   43.4102 H   0  0  0  0  0  0  0  0  0  0  0  0
   48.0994   31.6571   42.8367 H   0  0  0  0  0  0  0  0  0  0  0  0
   49.8836   31.4489   42.8367 H   0  0  0  0  0  0  0  0  0  0  0  0
  1  8  1  0
  2  1  1  0
  3  4  1  0
  3  2  1  0
  4  5  1  0
  5  1  1  0
  5 12  1  0
  6 11  2  0
  7  6  1  0
  8  7  2  0
  8  9  1  0
  9 10  2  0
 10 11  1  0
 12 17  1  0
 12 13  1  0
 13 16  1  0
 13 14  1  0
 15 13  1  0
 17 18  1  0
  1 19  1  1
  2 20  1  0
  2 21  1  0
  3 22  1  0
  3 23  1  0
  4 24  1  0
  4 25  1  0
  5 26  1  6
  6 27  1  0
  7 28  1  0
 10 29  1  0
 17 30  1  0
 17 31  1  0
 18 32  1  0
 18 33  1  0
 18 34  1  0
M  ISO  8  19  13  20  13  21  13  22  13  23  13  24  13  25  13  26  13
M  ISO  8  27  14  28  14  29  14  30   8  31   8  32   8  33   8  34   8
M  END
>  <minimizedAffinity>  (1) 
-4.85238981

>  <minimizedRMSD>  (1) 
0.312172174

$$$$
