
     RDKit          3D

 25 27  0  0  0  0  0  0  0  0999 V2000
   44.8380   33.9130   40.5190 N   0  0  0  0  0  0  0  0  0  0  0  0
   45.5440   33.6070   39.4230 N   0  0  0  0  0  0  0  0  0  0  0  0
   46.8750   33.6130   39.8040 C   0  0  0  0  0  0  0  0  0  0  0  0
   46.8670   33.9420   41.1770 C   0  0  0  0  0  0  0  0  0  0  0  0
   45.5330   34.1440   41.6470 C   0  0  0  0  0  0  0  0  0  0  0  0
   42.7360   32.8220   40.9580 C   0  0  0  0  0  0  0  0  0  0  0  0
   43.4300   33.9360   40.4290 C   0  0  0  0  0  0  0  0  0  0  0  0
   42.7160   35.0080   39.8300 C   0  0  0  0  0  0  0  0  0  0  0  0
   41.3500   34.9200   39.7890 N   0  0  0  0  0  0  0  0  0  0  0  0
   40.7180   33.8310   40.3110 C   0  0  0  0  0  0  0  0  0  0  0  0
   41.3810   32.7860   40.8930 N   0  0  0  0  0  0  0  0  0  0  0  0
   45.2560   34.5480   42.9840 C   0  0  0  0  0  0  0  0  0  0  0  0
   45.6090   33.7180   44.0230 C   0  0  0  0  0  0  0  0  0  0  0  0
   45.4040   33.9770   45.3490 C   0  0  0  0  0  0  0  0  0  0  0  0
   44.8030   35.1530   45.6480 N   0  0  0  0  0  0  0  0  0  0  0  0
   44.4410   35.9940   44.6750 C   0  0  0  0  0  0  0  0  0  0  0  0
   44.6850   35.6450   43.4300 N   0  0  0  0  0  0  0  0  0  0  0  0
   47.7513   33.4058   39.1722 H   0  0  0  0  0  0  0  0  0  0  0  0
   47.7680   34.0310   41.8017 H   0  0  0  0  0  0  0  0  0  0  0  0
   43.2908   31.9913   41.4185 H   0  0  0  0  0  0  0  0  0  0  0  0
   43.2425   35.8793   39.4132 H   0  0  0  0  0  0  0  0  0  0  0  0
   39.6198   33.7907   40.2617 H   0  0  0  0  0  0  0  0  0  0  0  0
   46.0969   32.7666   43.7647 H   0  0  0  0  0  0  0  0  0  0  0  0
   45.7109   33.2678   46.1319 H   0  0  0  0  0  0  0  0  0  0  0  0
   43.9525   36.9516   44.9082 H   0  0  0  0  0  0  0  0  0  0  0  0
  1  5  1  0
  2  3  2  0
  2  1  1  0
  3  4  1  0
  4  5  2  0
  5 12  1  0
  7  1  1  0
  7  6  2  0
  8  7  1  0
  9  8  2  0
  9 10  1  0
 10 11  2  0
 11  6  1  0
 12 17  1  0
 12 13  2  0
 13 14  1  0
 14 15  2  0
 16 15  1  0
 17 16  2  0
  3 18  1  0
  4 19  1  0
  6 20  1  0
  8 21  1  0
 10 22  1  0
 13 23  1  0
 14 24  1  0
 16 25  1  0
M  ISO  8  18  14  19  14  20  14  21  14  22  14  23  14  24  14  25  14
M  END
>  <minimizedAffinity>  (1) 
-4.39825869

>  <minimizedRMSD>  (1) 
4.8144846

$$$$
