
     RDKit          3D

 29 31  0  0  0  0  0  0  0  0999 V2000
   44.2120   33.8070   40.4860 N   0  0  0  0  0  0  0  0  0  0  0  0
   45.0790   33.2800   39.6380 N   0  0  0  0  0  0  0  0  0  0  0  0
   44.4580   33.1470   38.4220 C   0  0  0  0  0  0  0  0  0  0  0  0
   43.1510   33.6420   38.6310 C   0  0  0  0  0  0  0  0  0  0  0  0
   43.0170   34.0600   39.9670 C   0  0  0  0  0  0  0  0  0  0  0  0
   44.8560   35.3770   42.1720 C   0  0  0  0  0  0  0  0  0  0  0  0
   44.6020   34.0460   41.8280 C   0  0  0  0  0  0  0  0  0  0  0  0
   44.7330   33.0320   42.7980 C   0  0  0  0  0  0  0  0  0  0  0  0
   45.1110   33.4050   44.0630 N   0  0  0  0  0  0  0  0  0  0  0  0
   45.3480   34.7090   44.3570 C   0  0  0  0  0  0  0  0  0  0  0  0
   45.2250   35.6960   43.4330 N   0  0  0  0  0  0  0  0  0  0  0  0
   41.8200   34.5860   40.4550 N   0  0  0  0  0  0  0  0  0  0  0  0
   41.3350   35.7530   41.1600 C   0  0  0  0  0  0  0  0  0  0  0  0
   39.9440   36.0430   40.5890 C   0  0  0  0  0  0  0  0  0  0  0  0
   39.8040   34.9450   39.5380 C   0  0  0  0  0  0  0  0  0  0  0  0
   40.5570   33.8530   40.2990 C   0  0  0  0  0  0  0  0  0  0  0  0
   44.8832   32.7443   37.4908 H   0  0  0  0  0  0  0  0  0  0  0  0
   42.3610   33.6925   37.8672 H   0  0  0  0  0  0  0  0  0  0  0  0
   44.7553   36.1677   41.4139 H   0  0  0  0  0  0  0  0  0  0  0  0
   44.5389   31.9782   42.5495 H   0  0  0  0  0  0  0  0  0  0  0  0
   45.6505   34.9754   45.3805 H   0  0  0  0  0  0  0  0  0  0  0  0
   41.2703   35.5483   42.2389 H   0  0  0  0  0  0  0  0  0  0  0  0
   42.0106   36.6114   41.0310 H   0  0  0  0  0  0  0  0  0  0  0  0
   39.1673   35.9579   41.3633 H   0  0  0  0  0  0  0  0  0  0  0  0
   39.8299   37.0610   40.1882 H   0  0  0  0  0  0  0  0  0  0  0  0
   40.2927   35.2081   38.5883 H   0  0  0  0  0  0  0  0  0  0  0  0
   38.7805   34.7017   39.2167 H   0  0  0  0  0  0  0  0  0  0  0  0
   40.0877   33.6121   41.2643 H   0  0  0  0  0  0  0  0  0  0  0  0
   40.6156   32.8662   39.8165 H   0  0  0  0  0  0  0  0  0  0  0  0
  1  7  1  0
  2  1  1  0
  3  4  1  0
  3  2  2  0
  4  5  2  0
  5 12  1  0
  5  1  1  0
  6 11  2  0
  7  6  1  0
  7  8  2  0
  8  9  1  0
  9 10  2  0
 11 10  1  0
 12 13  1  0
 14 13  1  0
 15 16  1  0
 15 14  1  0
 16 12  1  0
  3 17  1  0
  4 18  1  0
  6 19  1  0
  8 20  1  0
 10 21  1  0
 13 22  1  0
 13 23  1  0
 14 24  1  0
 14 25  1  0
 15 26  1  0
 15 27  1  0
 16 28  1  0
 16 29  1  0
M  ISO  8  17  14  18  14  19  14  20  14  21  14  22  13  23  13  24  13
M  ISO  5  25  13  26  13  27  13  28  13  29  13
M  END
>  <minimizedAffinity>  (1) 
-4.2809577

>  <minimizedRMSD>  (1) 
2.1141715

$$$$
