
     RDKit          3D

 24 26  0  0  0  0  0  0  0  0999 V2000
   44.1960   33.7380   39.8910 N   0  0  0  0  0  0  0  0  0  0  0  0
   45.0690   33.0370   39.1890 N   0  0  0  0  0  0  0  0  0  0  0  0
   44.4120   32.5250   38.0920 C   0  0  0  0  0  0  0  0  0  0  0  0
   43.0840   32.9870   38.2160 C   0  0  0  0  0  0  0  0  0  0  0  0
   42.9550   33.7690   39.3810 C   0  0  0  0  0  0  0  0  0  0  0  0
   45.9630   34.5180   41.3080 C   0  0  0  0  0  0  0  0  0  0  0  0
   44.5960   34.3840   41.0800 C   0  0  0  0  0  0  0  0  0  0  0  0
   43.6790   34.8880   42.0260 C   0  0  0  0  0  0  0  0  0  0  0  0
   44.1840   35.5000   43.1510 N   0  0  0  0  0  0  0  0  0  0  0  0
   45.5230   35.6100   43.3320 C   0  0  0  0  0  0  0  0  0  0  0  0
   46.4110   35.1270   42.4280 N   0  0  0  0  0  0  0  0  0  0  0  0
   41.7200   34.3440   39.7480 N   0  0  0  0  0  0  0  0  0  0  0  0
   41.1830   35.5690   39.7140 N   0  0  0  0  0  0  0  0  0  0  0  0
   39.9520   35.5770   40.2050 C   0  0  0  0  0  0  0  0  0  0  0  0
   39.6210   34.2960   40.5970 C   0  0  0  0  0  0  0  0  0  0  0  0
   40.7450   33.5570   40.2980 C   0  0  0  0  0  0  0  0  0  0  0  0
   44.8306   31.8942   37.2940 H   0  0  0  0  0  0  0  0  0  0  0  0
   42.2706   32.7689   37.5083 H   0  0  0  0  0  0  0  0  0  0  0  0
   46.6816   34.1263   40.5730 H   0  0  0  0  0  0  0  0  0  0  0  0
   42.5942   34.7949   41.8696 H   0  0  0  0  0  0  0  0  0  0  0  0
   45.9003   36.1056   44.2387 H   0  0  0  0  0  0  0  0  0  0  0  0
   39.3010   36.4599   40.2866 H   0  0  0  0  0  0  0  0  0  0  0  0
   38.6789   33.9461   41.0442 H   0  0  0  0  0  0  0  0  0  0  0  0
   40.8453   32.4764   40.4778 H   0  0  0  0  0  0  0  0  0  0  0  0
  1  7  1  0
  2  1  1  0
  3  4  1  0
  3  2  2  0
  4  5  2  0
  5 12  1  0
  5  1  1  0
  6 11  2  0
  7  6  1  0
  7  8  2  0
  8  9  1  0
  9 10  2  0
 11 10  1  0
 12 16  1  0
 13 12  1  0
 13 14  2  0
 14 15  1  0
 16 15  2  0
  3 17  1  0
  4 18  1  0
  6 19  1  0
  8 20  1  0
 10 21  1  0
 14 22  1  0
 15 23  1  0
 16 24  1  0
M  ISO  8  17  14  18  14  19  14  20  14  21  14  22  14  23  14  24  14
M  END
>  <minimizedAffinity>  (1) 
-3.99760675

>  <minimizedRMSD>  (1) 
2.90524673

$$$$
