
     RDKit          3D

 19 20  0  0  0  0  0  0  0  0999 V2000
   42.1300   34.7860   40.4210 N   0  0  0  0  0  0  0  0  0  0  0  0
   42.3990   35.1260   39.1910 N   0  0  0  0  0  0  0  0  0  0  0  0
   41.2500   35.3610   38.5010 C   0  0  0  0  0  0  0  0  0  0  0  0
   40.2450   35.1330   39.4270 C   0  0  0  0  0  0  0  0  0  0  0  0
   40.8320   34.7740   40.6210 C   0  0  0  0  0  0  0  0  0  0  0  0
   43.8300   35.5810   41.8970 C   0  0  0  0  0  0  0  0  0  0  0  0
   43.1460   34.4910   41.3420 C   0  0  0  0  0  0  0  0  0  0  0  0
   43.4930   33.1760   41.7200 C   0  0  0  0  0  0  0  0  0  0  0  0
   44.4970   33.0190   42.6260 N   0  0  0  0  0  0  0  0  0  0  0  0
   45.1310   34.1040   43.1380 C   0  0  0  0  0  0  0  0  0  0  0  0
   44.8120   35.3740   42.7860 N   0  0  0  0  0  0  0  0  0  0  0  0
   40.0150   34.4750   41.7290 C   0  0  0  0  0  0  0  0  0  0  0  0
   39.8340   33.4430   42.4170 O   0  0  0  0  0  0  0  0  0  0  0  0
   41.1434   35.6630   37.4486 H   0  0  0  0  0  0  0  0  0  0  0  0
   39.1646   35.2230   39.2411 H   0  0  0  0  0  0  0  0  0  0  0  0
   43.5612   36.6064   41.6032 H   0  0  0  0  0  0  0  0  0  0  0  0
   42.9693   32.3064   41.2963 H   0  0  0  0  0  0  0  0  0  0  0  0
   45.9375   33.9467   43.8693 H   0  0  0  0  0  0  0  0  0  0  0  0
   39.4063   35.3290   42.0611 H   0  0  0  0  0  0  0  0  0  0  0  0
  1  5  1  0
  1  7  1  0
  2  1  1  0
  3  2  2  0
  3  4  1  0
  4  5  2  0
  5 12  1  0
  6 11  2  0
  7  8  2  0
  7  6  1  0
  8  9  1  0
  9 10  2  0
 11 10  1  0
 12 13  2  0
  3 14  1  0
  4 15  1  0
  6 16  1  0
  8 17  1  0
 10 18  1  0
 12 19  1  0
M  ISO  6  14  14  15  14  16  14  17  14  18  14  19   6
M  END
>  <minimizedAffinity>  (1) 
-3.9161253

>  <minimizedRMSD>  (1) 
2.48749018

$$$$
