
     RDKit          3D

 18 19  0  0  0  0  0  0  0  0999 V2000
   44.4860   35.3720   43.4170 C   0  0  0  0  0  0  0  0  0  0  0  0
   44.1190   34.3170   42.5720 C   0  0  0  0  0  0  0  0  0  0  0  0
   44.5800   33.0190   42.8500 C   0  0  0  0  0  0  0  0  0  0  0  0
   45.3730   32.8560   43.9450 N   0  0  0  0  0  0  0  0  0  0  0  0
   45.7050   33.9020   44.7370 C   0  0  0  0  0  0  0  0  0  0  0  0
   45.2680   35.1600   44.4820 N   0  0  0  0  0  0  0  0  0  0  0  0
   43.2920   34.6460   41.4840 N   0  0  0  0  0  0  0  0  0  0  0  0
   43.6840   34.3940   40.2480 N   0  0  0  0  0  0  0  0  0  0  0  0
   42.7170   34.8000   39.3750 C   0  0  0  0  0  0  0  0  0  0  0  0
   41.7020   35.3210   40.2060 C   0  0  0  0  0  0  0  0  0  0  0  0
   42.0840   35.2160   41.5590 C   0  0  0  0  0  0  0  0  0  0  0  0
   41.3110   35.6360   42.6240 O   0  0  0  0  0  0  0  0  0  0  0  0
   44.1264   36.3891   43.2022 H   0  0  0  0  0  0  0  0  0  0  0  0
   44.3107   32.1674   42.2079 H   0  0  0  0  0  0  0  0  0  0  0  0
   46.3476   33.7267   45.6124 H   0  0  0  0  0  0  0  0  0  0  0  0
   42.7264   34.7360   38.2769 H   0  0  0  0  0  0  0  0  0  0  0  0
   40.7521   35.7466   39.8501 H   0  0  0  0  0  0  0  0  0  0  0  0
   40.4233   36.0430   42.4612 H   0  0  0  0  0  0  0  0  0  0  0  0
  1  6  2  0
  2  3  2  0
  2  1  1  0
  3  4  1  0
  4  5  2  0
  6  5  1  0
  7 11  1  0
  7  2  1  0
  8  7  1  0
  9 10  1  0
  9  8  2  0
 10 11  2  0
 11 12  1  0
  1 13  1  0
  3 14  1  0
  5 15  1  0
  9 16  1  0
 10 17  1  0
 12 18  1  0
M  ISO  6  13  14  14  14  15  14  16  14  17  14  18   3
M  END
>  <minimizedAffinity>  (1) 
-3.65062356

>  <minimizedRMSD>  (1) 
0.911077082

$$$$
