
     RDKit          3D

 22 24  0  0  0  0  0  0  0  0999 V2000
   42.9120   32.9020   39.3310 N   0  0  0  0  0  0  0  0  0  0  0  0
   43.7950   32.4120   38.4800 N   0  0  0  0  0  0  0  0  0  0  0  0
   43.1080   31.7270   37.5030 C   0  0  0  0  0  0  0  0  0  0  0  0
   41.7480   31.8570   37.8530 C   0  0  0  0  0  0  0  0  0  0  0  0
   41.6350   32.6190   39.0360 C   0  0  0  0  0  0  0  0  0  0  0  0
   43.1670   35.0330   40.3900 C   0  0  0  0  0  0  0  0  0  0  0  0
   43.3390   33.6540   40.4390 C   0  0  0  0  0  0  0  0  0  0  0  0
   43.9270   33.0850   41.5870 C   0  0  0  0  0  0  0  0  0  0  0  0
   44.3030   33.9150   42.6080 N   0  0  0  0  0  0  0  0  0  0  0  0
   44.1140   35.2530   42.5140 C   0  0  0  0  0  0  0  0  0  0  0  0
   43.5510   35.8180   41.4170 N   0  0  0  0  0  0  0  0  0  0  0  0
   40.3650   32.9000   39.6280 C   0  0  0  0  0  0  0  0  0  0  0  0
   39.6350   32.2900   40.6060 N   0  0  0  0  0  0  0  0  0  0  0  0
   38.5330   32.8910   40.8310 O   0  0  0  0  0  0  0  0  0  0  0  0
   38.4970   33.9160   40.0110 C   0  0  0  0  0  0  0  0  0  0  0  0
   39.6070   33.9490   39.2610 N   0  0  0  0  0  0  0  0  0  0  0  0
   43.5285   31.1941   36.6375 H   0  0  0  0  0  0  0  0  0  0  0  0
   40.9046   31.4301   37.2905 H   0  0  0  0  0  0  0  0  0  0  0  0
   42.7107   35.4905   39.4998 H   0  0  0  0  0  0  0  0  0  0  0  0
   44.0801   31.9982   41.6604 H   0  0  0  0  0  0  0  0  0  0  0  0
   44.4252   35.8980   43.3489 H   0  0  0  0  0  0  0  0  0  0  0  0
   37.6739   34.6431   39.9487 H   0  0  0  0  0  0  0  0  0  0  0  0
  1  7  1  0
  2  1  1  0
  3  4  1  0
  3  2  2  0
  4  5  2  0
  5  1  1  0
  5 12  1  0
  6  7  2  0
  6 11  1  0
  7  8  1  0
  8  9  2  0
 10  9  1  0
 11 10  2  0
 12 13  2  0
 13 14  1  0
 15 14  1  0
 16 12  1  0
 16 15  2  0
  3 17  1  0
  4 18  1  0
  6 19  1  0
  8 20  1  0
 10 21  1  0
 15 22  1  0
M  ISO  6  17  14  18  14  19  14  20  14  21  14  22  14
M  END
>  <minimizedAffinity>  (1) 
-3.56400895

>  <minimizedRMSD>  (1) 
3.93743873

$$$$
