
     RDKit          3D

 23 25  0  0  0  0  0  0  0  0999 V2000
   43.2740   34.3570   39.9350 N   0  0  0  0  0  0  0  0  0  0  0  0
   43.3660   34.9940   41.0880 N   0  0  0  0  0  0  0  0  0  0  0  0
   44.6320   34.7900   41.5860 C   0  0  0  0  0  0  0  0  0  0  0  0
   45.2740   33.9790   40.6290 C   0  0  0  0  0  0  0  0  0  0  0  0
   44.3870   33.7050   39.5660 C   0  0  0  0  0  0  0  0  0  0  0  0
   41.9170   35.4660   38.2970 C   0  0  0  0  0  0  0  0  0  0  0  0
   42.0760   34.4010   39.2060 C   0  0  0  0  0  0  0  0  0  0  0  0
   41.0410   33.4570   39.3280 C   0  0  0  0  0  0  0  0  0  0  0  0
   39.9250   33.6030   38.5680 N   0  0  0  0  0  0  0  0  0  0  0  0
   39.8230   34.6490   37.7070 C   0  0  0  0  0  0  0  0  0  0  0  0
   40.7990   35.5800   37.5610 N   0  0  0  0  0  0  0  0  0  0  0  0
   44.7740   32.8990   38.4740 N   0  0  0  0  0  0  0  0  0  0  0  0
   45.9900   33.0300   37.8610 C   0  0  0  0  0  0  0  0  0  0  0  0
   46.1080   32.1460   36.8360 N   0  0  0  0  0  0  0  0  0  0  0  0
   44.9370   31.4660   36.8260 C   0  0  0  0  0  0  0  0  0  0  0  0
   44.1540   31.9210   37.8020 N   0  0  0  0  0  0  0  0  0  0  0  0
   45.0518   35.1760   42.5266 H   0  0  0  0  0  0  0  0  0  0  0  0
   46.3095   33.6147   40.6998 H   0  0  0  0  0  0  0  0  0  0  0  0
   42.7176   36.2126   38.1889 H   0  0  0  0  0  0  0  0  0  0  0  0
   41.1338   32.6136   40.0280 H   0  0  0  0  0  0  0  0  0  0  0  0
   38.9094   34.7452   37.1020 H   0  0  0  0  0  0  0  0  0  0  0  0
   46.7655   33.7517   38.1572 H   0  0  0  0  0  0  0  0  0  0  0  0
   44.6738   30.6632   36.1216 H   0  0  0  0  0  0  0  0  0  0  0  0
  1  2  1  0
  2  3  2  0
  4  3  1  0
  5  1  1  0
  5  4  2  0
  6  7  2  0
  7  8  1  0
  7  1  1  0
  9  8  2  0
 10  9  1  0
 11 10  2  0
 11  6  1  0
 12  5  1  0
 13 12  1  0
 14 13  2  0
 15 14  1  0
 15 16  2  0
 16 12  1  0
  3 17  1  0
  4 18  1  0
  6 19  1  0
  8 20  1  0
 10 21  1  0
 13 22  1  0
 15 23  1  0
M  ISO  7  17  14  18  14  19  14  20  14  21  14  22  14  23  14
M  END
>  <minimizedAffinity>  (1) 
-3.51155019

>  <minimizedRMSD>  (1) 
6.44930172

$$$$
