
     RDKit          3D

 27 29  0  0  0  0  0  0  0  0999 V2000
   43.8400   35.5970   41.7330 C   0  0  0  0  0  0  0  0  0  0  0  0
   43.2910   34.5720   40.9680 C   0  0  0  0  0  0  0  0  0  0  0  0
   43.4810   33.2440   41.3920 C   0  0  0  0  0  0  0  0  0  0  0  0
   44.1930   33.0090   42.5350 N   0  0  0  0  0  0  0  0  0  0  0  0
   44.7070   34.0570   43.2450 C   0  0  0  0  0  0  0  0  0  0  0  0
   44.5350   35.3400   42.8520 N   0  0  0  0  0  0  0  0  0  0  0  0
   42.5820   34.9300   39.8190 N   0  0  0  0  0  0  0  0  0  0  0  0
   43.1400   34.8460   38.6300 N   0  0  0  0  0  0  0  0  0  0  0  0
   42.2250   35.2560   37.6940 C   0  0  0  0  0  0  0  0  0  0  0  0
   41.0720   35.5930   38.4410 C   0  0  0  0  0  0  0  0  0  0  0  0
   41.3100   35.3800   39.8060 C   0  0  0  0  0  0  0  0  0  0  0  0
   40.2360   35.6660   40.7820 C   0  0  0  0  0  0  0  0  0  0  0  0
   40.2560   34.7810   41.8740 F   0  0  0  0  0  0  0  0  0  0  0  0
   38.9780   35.3520   40.2130 F   0  0  0  0  0  0  0  0  0  0  0  0
   40.0960   36.9650   41.1450 F   0  0  0  0  0  0  0  0  0  0  0  0
   45.4470   33.6750   44.4460 C   0  0  0  0  0  0  0  0  0  0  0  0
   46.4670   32.7750   44.6460 C   0  0  0  0  0  0  0  0  0  0  0  0
   46.7270   32.8810   46.0030 C   0  0  0  0  0  0  0  0  0  0  0  0
   45.9140   33.7890   46.5850 N   0  0  0  0  0  0  0  0  0  0  0  0
   45.1300   34.2750   45.6260 N   0  0  0  0  0  0  0  0  0  0  0  0
   43.7012   36.6404   41.4135 H   0  0  0  0  0  0  0  0  0  0  0  0
   43.0630   32.4076   40.8126 H   0  0  0  0  0  0  0  0  0  0  0  0
   42.3583   35.3107   36.6035 H   0  0  0  0  0  0  0  0  0  0  0  0
   40.1293   35.9665   38.0145 H   0  0  0  0  0  0  0  0  0  0  0  0
   46.9588   32.1263   43.9062 H   0  0  0  0  0  0  0  0  0  0  0  0
   47.4950   32.3015   46.5363 H   0  0  0  0  0  0  0  0  0  0  0  0
   45.9030   34.0543   47.5802 H   0  0  0  0  0  0  0  0  0  0  0  0
  1  6  2  0
  2  3  2  0
  2  1  1  0
  3  4  1  0
  4  5  2  0
  5 16  1  0
  6  5  1  0
  7  2  1  0
  8  7  1  0
  9 10  1  0
  9  8  2  0
 10 11  2  0
 11  7  1  0
 11 12  1  0
 12 15  1  0
 12 13  1  0
 14 12  1  0
 16 17  1  0
 16 20  2  0
 17 18  2  0
 18 19  1  0
 20 19  1  0
  1 21  1  0
  3 22  1  0
  9 23  1  0
 10 24  1  0
 17 25  1  0
 18 26  1  0
 19 27  1  0
M  ISO  7  21  14  22  14  23  14  24  14  25  14  26  14  27   9
M  END
>  <minimizedAffinity>  (1) 
-5.41163826

>  <minimizedRMSD>  (1) 
1.22793651

$$$$
