
     RDKit          3D

 32 33  0  0  0  0  0  0  0  0999 V2000
   43.0100   34.9760   40.3860 C   0  0  0  0  0  0  0  0  0  0  0  0
   42.5790   33.6470   40.4530 C   0  0  0  0  0  0  0  0  0  0  0  0
   43.1280   32.7930   41.4280 C   0  0  0  0  0  0  0  0  0  0  0  0
   44.0760   33.3230   42.2770 N   0  0  0  0  0  0  0  0  0  0  0  0
   44.4580   34.6300   42.1650 C   0  0  0  0  0  0  0  0  0  0  0  0
   43.9330   35.4650   41.2230 N   0  0  0  0  0  0  0  0  0  0  0  0
   41.6090   33.2460   39.5250 N   0  0  0  0  0  0  0  0  0  0  0  0
   41.9470   32.4570   38.5090 N   0  0  0  0  0  0  0  0  0  0  0  0
   40.8110   32.2290   37.7680 C   0  0  0  0  0  0  0  0  0  0  0  0
   39.7890   32.9440   38.4290 C   0  0  0  0  0  0  0  0  0  0  0  0
   40.3100   33.5940   39.5560 C   0  0  0  0  0  0  0  0  0  0  0  0
   39.4200   34.4060   40.4090 C   0  0  0  0  0  0  0  0  0  0  0  0
   39.4930   34.0240   41.7610 F   0  0  0  0  0  0  0  0  0  0  0  0
   38.0680   34.0790   40.1290 F   0  0  0  0  0  0  0  0  0  0  0  0
   39.4620   35.7470   40.2120 F   0  0  0  0  0  0  0  0  0  0  0  0
   45.4750   35.1870   43.0800 C   0  0  0  0  0  0  0  0  0  0  0  0
   45.3860   34.3720   44.3770 C   0  0  0  0  0  0  0  0  0  0  0  0
   46.8800   35.0770   42.5480 C   0  0  0  0  0  0  0  0  0  0  0  0
   45.1380   36.6280   43.4110 C   0  0  0  0  0  0  0  0  0  0  0  0
   42.5774   35.6392   39.6225 H   0  0  0  0  0  0  0  0  0  0  0  0
   42.8125   31.7424   41.5094 H   0  0  0  0  0  0  0  0  0  0  0  0
   40.7187   31.6204   36.8564 H   0  0  0  0  0  0  0  0  0  0  0  0
   38.7380   32.9850   38.1068 H   0  0  0  0  0  0  0  0  0  0  0  0
   45.4599   35.0487   45.2411 H   0  0  0  0  0  0  0  0  0  0  0  0
   44.4243   33.8390   44.4099 H   0  0  0  0  0  0  0  0  0  0  0  0
   46.2100   33.6440   44.4099 H   0  0  0  0  0  0  0  0  0  0  0  0
   47.5871   35.0216   43.3888 H   0  0  0  0  0  0  0  0  0  0  0  0
   46.9693   34.1691   41.9334 H   0  0  0  0  0  0  0  0  0  0  0  0
   47.1095   35.9599   41.9334 H   0  0  0  0  0  0  0  0  0  0  0  0
   45.1081   36.7560   44.5031 H   0  0  0  0  0  0  0  0  0  0  0  0
   45.9053   37.2912   42.9850 H   0  0  0  0  0  0  0  0  0  0  0  0
   44.1562   36.8821   42.9850 H   0  0  0  0  0  0  0  0  0  0  0  0
  1  2  2  0
  1  6  1  0
  2  3  1  0
  3  4  2  0
  5  4  1  0
  5 16  1  0
  6  5  2  0
  7 11  1  0
  7  2  1  0
  8  7  1  0
  9 10  1  0
  9  8  2  0
 10 11  2  0
 11 12  1  0
 12 13  1  0
 14 12  1  0
 15 12  1  0
 16 19  1  0
 16 17  1  0
 18 16  1  0
  1 20  1  0
  3 21  1  0
  9 22  1  0
 10 23  1  0
 17 24  1  0
 17 25  1  0
 17 26  1  0
 18 27  1  0
 18 28  1  0
 18 29  1  0
 19 30  1  0
 19 31  1  0
 19 32  1  0
M  ISO  8  20  14  21  14  22  14  23  14  24   8  25   8  26   8  27   8
M  ISO  5  28   8  29   8  30   8  31   8  32   8
M  END
>  <minimizedAffinity>  (1) 
-5.32320404

>  <minimizedRMSD>  (1) 
1.8067503

$$$$
