
     RDKit          3D

 29 30  0  0  0  0  0  0  0  0999 V2000
   41.7520   33.4410   39.6220 N   0  0  0  0  0  0  0  0  0  0  0  0
   42.1780   32.6790   38.6230 N   0  0  0  0  0  0  0  0  0  0  0  0
   41.0920   32.3740   37.8410 C   0  0  0  0  0  0  0  0  0  0  0  0
   39.9970   33.0170   38.4610 C   0  0  0  0  0  0  0  0  0  0  0  0
   40.4320   33.7020   39.6070 C   0  0  0  0  0  0  0  0  0  0  0  0
   42.9330   35.2640   40.5980 C   0  0  0  0  0  0  0  0  0  0  0  0
   42.6540   33.9110   40.5930 C   0  0  0  0  0  0  0  0  0  0  0  0
   43.2770   33.0660   41.5440 C   0  0  0  0  0  0  0  0  0  0  0  0
   44.1400   33.6580   42.4400 N   0  0  0  0  0  0  0  0  0  0  0  0
   44.3780   34.9850   42.4030 C   0  0  0  0  0  0  0  0  0  0  0  0
   43.7840   35.7970   41.4930 N   0  0  0  0  0  0  0  0  0  0  0  0
   45.3350   35.3750   43.4590 C   0  0  0  0  0  0  0  0  0  0  0  0
   46.4040   34.3460   43.6820 C   0  0  0  0  0  0  0  0  0  0  0  0
   44.6430   35.7660   44.7490 C   0  0  0  0  0  0  0  0  0  0  0  0
   39.4540   34.4520   40.4230 C   0  0  0  0  0  0  0  0  0  0  0  0
   39.4720   34.0620   41.7730 F   0  0  0  0  0  0  0  0  0  0  0  0
   38.1360   34.0620   40.0630 F   0  0  0  0  0  0  0  0  0  0  0  0
   39.4440   35.7970   40.2420 F   0  0  0  0  0  0  0  0  0  0  0  0
   41.0772   31.7608   36.9279 H   0  0  0  0  0  0  0  0  0  0  0  0
   38.9585   32.9856   38.0997 H   0  0  0  0  0  0  0  0  0  0  0  0
   42.4503   35.9175   39.8564 H   0  0  0  0  0  0  0  0  0  0  0  0
   43.0803   31.9840   41.5661 H   0  0  0  0  0  0  0  0  0  0  0  0
   45.8454   36.2758   43.0875 H   0  0  0  0  0  0  0  0  0  0  0  0
   46.5542   34.2014   44.7621 H   0  0  0  0  0  0  0  0  0  0  0  0
   46.0979   33.3940   43.2237 H   0  0  0  0  0  0  0  0  0  0  0  0
   47.3436   34.6882   43.2237 H   0  0  0  0  0  0  0  0  0  0  0  0
   45.2443   35.4263   45.6052 H   0  0  0  0  0  0  0  0  0  0  0  0
   44.5330   36.8597   44.7892 H   0  0  0  0  0  0  0  0  0  0  0  0
   43.6494   35.2958   44.7892 H   0  0  0  0  0  0  0  0  0  0  0  0
  1  7  1  0
  2  1  1  0
  3  4  1  0
  3  2  2  0
  4  5  2  0
  5  1  1  0
  5 15  1  0
  6 11  2  0
  7  6  1  0
  7  8  2  0
  8  9  1  0
 10  9  2  0
 10 12  1  0
 11 10  1  0
 12 13  1  0
 12 14  1  0
 15 16  1  0
 17 15  1  0
 18 15  1  0
  3 19  1  0
  4 20  1  0
  6 21  1  0
  8 22  1  0
 12 23  1  0
 13 24  1  0
 13 25  1  0
 13 26  1  0
 14 27  1  0
 14 28  1  0
 14 29  1  0
M  ISO  8  19  14  20  14  21  14  22  14  23   8  24   8  25   8  26   8
M  ISO  3  27   8  28   8  29   8
M  END
>  <minimizedAffinity>  (1) 
-5.15665293

>  <minimizedRMSD>  (1) 
1.59011281

$$$$
