
     RDKit          3D

 25 27  0  0  0  0  0  0  0  0999 V2000
   41.0050   34.7710   40.6060 C   0  0  0  0  0  0  0  0  0  0  0  0
   41.0890   33.9850   39.4750 C   0  0  0  0  0  0  0  0  0  0  0  0
   42.3610   33.5120   39.0660 C   0  0  0  0  0  0  0  0  0  0  0  0
   43.4430   33.8710   39.8330 N   0  0  0  0  0  0  0  0  0  0  0  0
   43.3040   34.6420   40.9310 C   0  0  0  0  0  0  0  0  0  0  0  0
   42.0930   35.0990   41.3290 N   0  0  0  0  0  0  0  0  0  0  0  0
   39.8920   33.7000   38.7880 N   0  0  0  0  0  0  0  0  0  0  0  0
   39.5750   34.3880   37.7090 N   0  0  0  0  0  0  0  0  0  0  0  0
   38.3670   33.8970   37.2540 C   0  0  0  0  0  0  0  0  0  0  0  0
   38.0230   32.8750   38.1600 C   0  0  0  0  0  0  0  0  0  0  0  0
   39.0160   32.7560   39.1480 C   0  0  0  0  0  0  0  0  0  0  0  0
   38.8610   31.7390   40.2080 C   0  0  0  0  0  0  0  0  0  0  0  0
   39.9780   30.8970   40.3120 F   0  0  0  0  0  0  0  0  0  0  0  0
   37.8620   30.7990   39.8290 F   0  0  0  0  0  0  0  0  0  0  0  0
   38.4040   32.2080   41.4090 F   0  0  0  0  0  0  0  0  0  0  0  0
   44.4770   35.0050   41.7230 C   0  0  0  0  0  0  0  0  0  0  0  0
   44.5630   35.8210   42.7910 N   0  0  0  0  0  0  0  0  0  0  0  0
   45.8070   35.8830   43.2180 O   0  0  0  0  0  0  0  0  0  0  0  0
   46.5750   35.1210   42.4620 C   0  0  0  0  0  0  0  0  0  0  0  0
   45.7420   34.5850   41.5420 N   0  0  0  0  0  0  0  0  0  0  0  0
   40.0199   35.1408   40.9267 H   0  0  0  0  0  0  0  0  0  0  0  0
   42.4772   32.8831   38.1710 H   0  0  0  0  0  0  0  0  0  0  0  0
   37.7971   34.2316   36.3747 H   0  0  0  0  0  0  0  0  0  0  0  0
   37.1122   32.2608   38.1030 H   0  0  0  0  0  0  0  0  0  0  0  0
   47.6584   34.9575   42.5594 H   0  0  0  0  0  0  0  0  0  0  0  0
  1  6  2  0
  2  1  1  0
  3  2  2  0
  3  4  1  0
  4  5  2  0
  5  6  1  0
  5 16  1  0
  7 11  1  0
  7  2  1  0
  8  7  1  0
  9  8  2  0
  9 10  1  0
 10 11  2  0
 11 12  1  0
 12 13  1  0
 12 15  1  0
 14 12  1  0
 16 17  2  0
 17 18  1  0
 19 18  1  0
 20 16  1  0
 20 19  2  0
  1 21  1  0
  3 22  1  0
  9 23  1  0
 10 24  1  0
 19 25  1  0
M  ISO  5  21  14  22  14  23  14  24  14  25  14
M  END
>  <minimizedAffinity>  (1) 
-4.8320303

>  <minimizedRMSD>  (1) 
3.81125951

$$$$
