
     RDKit          3D

 26 27  0  0  0  0  0  0  0  0999 V2000
   41.8140   33.4390   39.7040 N   0  0  0  0  0  0  0  0  0  0  0  0
   42.2630   32.6830   38.7160 N   0  0  0  0  0  0  0  0  0  0  0  0
   41.1890   32.3620   37.9200 C   0  0  0  0  0  0  0  0  0  0  0  0
   40.0840   32.9940   38.5290 C   0  0  0  0  0  0  0  0  0  0  0  0
   40.4950   33.6840   39.6750 C   0  0  0  0  0  0  0  0  0  0  0  0
   42.9560   35.2940   40.6880 C   0  0  0  0  0  0  0  0  0  0  0  0
   42.7040   33.9180   40.6770 C   0  0  0  0  0  0  0  0  0  0  0  0
   43.3480   33.1130   41.6270 C   0  0  0  0  0  0  0  0  0  0  0  0
   44.1970   33.7070   42.5250 N   0  0  0  0  0  0  0  0  0  0  0  0
   44.4020   35.0530   42.4870 C   0  0  0  0  0  0  0  0  0  0  0  0
   43.7890   35.8510   41.5770 N   0  0  0  0  0  0  0  0  0  0  0  0
   45.3470   35.5880   43.5150 C   0  0  0  0  0  0  0  0  0  0  0  0
   44.5820   35.6650   44.8250 C   0  0  0  0  0  0  0  0  0  0  0  0
   39.5030   34.4220   40.4770 C   0  0  0  0  0  0  0  0  0  0  0  0
   39.5450   34.0720   41.8390 F   0  0  0  0  0  0  0  0  0  0  0  0
   38.1900   33.9730   40.1460 F   0  0  0  0  0  0  0  0  0  0  0  0
   39.4320   35.7600   40.2690 F   0  0  0  0  0  0  0  0  0  0  0  0
   41.1907   31.7471   37.0079 H   0  0  0  0  0  0  0  0  0  0  0  0
   39.0497   32.9506   38.1569 H   0  0  0  0  0  0  0  0  0  0  0  0
   42.4569   35.9356   39.9469 H   0  0  0  0  0  0  0  0  0  0  0  0
   43.1757   32.0269   41.6515 H   0  0  0  0  0  0  0  0  0  0  0  0
   46.2105   34.9148   43.6209 H   0  0  0  0  0  0  0  0  0  0  0  0
   45.7250   36.5788   43.2226 H   0  0  0  0  0  0  0  0  0  0  0  0
   45.2873   35.5940   45.6662 H   0  0  0  0  0  0  0  0  0  0  0  0
   44.0423   36.6220   44.8787 H   0  0  0  0  0  0  0  0  0  0  0  0
   43.8624   34.8347   44.8787 H   0  0  0  0  0  0  0  0  0  0  0  0
  1  7  1  0
  2  1  1  0
  3  4  1  0
  3  2  2  0
  4  5  2  0
  5  1  1  0
  5 14  1  0
  6 11  2  0
  7  6  1  0
  7  8  2  0
  8  9  1  0
 10  9  2  0
 10 12  1  0
 11 10  1  0
 12 13  1  0
 14 15  1  0
 16 14  1  0
 17 14  1  0
  3 18  1  0
  4 19  1  0
  6 20  1  0
  8 21  1  0
 12 22  1  0
 12 23  1  0
 13 24  1  0
 13 25  1  0
 13 26  1  0
M  ISO  8  18  14  19  14  20  14  21  14  22   8  23   8  24   8  25   8
M  ISO  1  26   8
M  END
>  <minimizedAffinity>  (1) 
-4.88843727

>  <minimizedRMSD>  (1) 
1.53968477

$$$$
