
     RDKit          3D

 27 28  0  0  0  0  0  0  0  0999 V2000
   42.8920   35.0640   40.2630 C   0  0  0  0  0  0  0  0  0  0  0  0
   42.5970   33.6970   40.3750 C   0  0  0  0  0  0  0  0  0  0  0  0
   43.3000   32.9460   41.3160 C   0  0  0  0  0  0  0  0  0  0  0  0
   44.2440   33.5470   42.0930 N   0  0  0  0  0  0  0  0  0  0  0  0
   44.4940   34.8870   41.9440 C   0  0  0  0  0  0  0  0  0  0  0  0
   43.8280   35.6350   41.0410 N   0  0  0  0  0  0  0  0  0  0  0  0
   41.6080   33.1980   39.5220 N   0  0  0  0  0  0  0  0  0  0  0  0
   41.9390   32.3800   38.5370 N   0  0  0  0  0  0  0  0  0  0  0  0
   40.7850   32.0510   37.8670 C   0  0  0  0  0  0  0  0  0  0  0  0
   39.7610   32.7420   38.5410 C   0  0  0  0  0  0  0  0  0  0  0  0
   40.2930   33.4720   39.5970 C   0  0  0  0  0  0  0  0  0  0  0  0
   39.3990   34.2820   40.4520 C   0  0  0  0  0  0  0  0  0  0  0  0
   39.5250   33.9940   41.8110 F   0  0  0  0  0  0  0  0  0  0  0  0
   38.0460   33.9220   40.2210 F   0  0  0  0  0  0  0  0  0  0  0  0
   39.3920   35.6230   40.1940 F   0  0  0  0  0  0  0  0  0  0  0  0
   45.5420   35.4530   42.8370 C   0  0  0  0  0  0  0  0  0  0  0  0
   45.6090   34.5530   44.0690 C   0  0  0  0  0  0  0  0  0  0  0  0
   44.6630   35.2570   45.4400 S   0  0  0  0  0  0  0  0  0  0  0  0
   42.3498   35.6773   39.5282 H   0  0  0  0  0  0  0  0  0  0  0  0
   43.0932   31.8717   41.4307 H   0  0  0  0  0  0  0  0  0  0  0  0
   40.6837   31.3906   36.9932 H   0  0  0  0  0  0  0  0  0  0  0  0
   38.6951   32.7091   38.2713 H   0  0  0  0  0  0  0  0  0  0  0  0
   46.5138   35.4616   42.3216 H   0  0  0  0  0  0  0  0  0  0  0  0
   45.3015   36.4887   43.1188 H   0  0  0  0  0  0  0  0  0  0  0  0
   45.1949   33.5658   43.8160 H   0  0  0  0  0  0  0  0  0  0  0  0
   46.6604   34.4625   44.3794 H   0  0  0  0  0  0  0  0  0  0  0  0
   45.2097   34.8502   46.6285 H   0  0  0  0  0  0  0  0  0  0  0  0
  1  2  2  0
  1  6  1  0
  2  3  1  0
  3  4  2  0
  5  4  1  0
  5 16  1  0
  6  5  2  0
  7 11  1  0
  7  2  1  0
  8  7  1  0
  9  8  2  0
  9 10  1  0
 10 11  2  0
 11 12  1  0
 12 13  1  0
 14 12  1  0
 15 12  1  0
 16 17  1  0
 17 18  1  0
  1 19  1  0
  3 20  1  0
  9 21  1  0
 10 22  1  0
 16 23  1  0
 16 24  1  0
 17 25  1  0
 17 26  1  0
 18 27  1  0
M  ISO  8  19  14  20  14  21  14  22  14  23   8  24   8  25   8  26   8
M  ISO  1  27  11
M  END
>  <minimizedAffinity>  (1) 
-4.584548

>  <minimizedRMSD>  (1) 
0.776511371

$$$$
