
     RDKit          3D

 46 48  0  0  1  0  0  0  0  0999 V2000
   42.9900   35.5150   41.3160 C   0  0  0  0  0  0  0  0  0  0  0  0
   42.9450   34.7760   40.1530 C   0  0  0  0  0  0  0  0  0  0  0  0
   44.0160   33.9440   39.8620 C   0  0  0  0  0  0  0  0  0  0  0  0
   45.0750   33.8670   40.7060 N   0  0  0  0  0  0  0  0  0  0  0  0
   45.0880   34.5990   41.8280 C   0  0  0  0  0  0  0  0  0  0  0  0
   44.0360   35.4360   42.1440 N   0  0  0  0  0  0  0  0  0  0  0  0
   41.8110   34.9150   39.3450 N   0  0  0  0  0  0  0  0  0  0  0  0
   41.9090   35.4960   38.1590 N   0  0  0  0  0  0  0  0  0  0  0  0
   40.6500   35.5000   37.5990 C   0  0  0  0  0  0  0  0  0  0  0  0
   39.8220   34.8790   38.5510 C   0  0  0  0  0  0  0  0  0  0  0  0
   40.5640   34.5050   39.6690 C   0  0  0  0  0  0  0  0  0  0  0  0
   39.8950   33.8270   40.8060 C   0  0  0  0  0  0  0  0  0  0  0  0
   40.2360   32.4730   40.9030 F   0  0  0  0  0  0  0  0  0  0  0  0
   38.4990   33.7000   40.5380 F   0  0  0  0  0  0  0  0  0  0  0  0
   39.9290   34.4820   41.9880 F   0  0  0  0  0  0  0  0  0  0  0  0
   46.2040   34.5500   42.8370 C   0  0  0  0  0  0  0  0  0  0  0  0
   45.9110   33.4050   43.7450 C   0  0  2  0  0  0  0  0  0  0  0  0
   44.5570   33.0130   43.6610 N   0  0  0  0  0  0  0  0  0  0  0  0
   44.2550   31.8560   42.8980 C   0  0  0  0  0  0  0  0  0  0  0  0
   45.1280   31.0220   42.4220 N   0  0  0  0  0  0  0  0  0  0  0  0
   42.8770   31.5770   42.6060 N   0  0  0  0  0  0  0  0  0  0  0  0
   46.1150   31.1840   42.5670 H   0  0  0  0  0  0  0  0  0  0  0  0
   46.5900   33.1760   45.0030 C   0  0  0  0  0  0  0  0  0  0  0  0
   47.0140   31.7040   45.1770 C   0  0  0  0  0  0  0  0  0  0  0  0
   47.4440   31.7290   46.6490 C   0  0  0  0  0  0  0  0  0  0  0  0
   46.4340   32.5940   47.3220 C   0  0  0  0  0  0  0  0  0  0  0  0
   45.7700   33.4260   46.2480 C   0  0  0  0  0  0  0  0  0  0  0  0
   42.1510   36.1807   41.5666 H   0  0  0  0  0  0  0  0  0  0  0  0
   44.0065   33.3428   38.9409 H   0  0  0  0  0  0  0  0  0  0  0  0
   40.3559   35.9023   36.6184 H   0  0  0  0  0  0  0  0  0  0  0  0
   38.7415   34.7122   38.4300 H   0  0  0  0  0  0  0  0  0  0  0  0
   47.1674   34.3943   42.3294 H   0  0  0  0  0  0  0  0  0  0  0  0
   46.2709   35.4933   43.3989 H   0  0  0  0  0  0  0  0  0  0  0  0
   46.5742   32.6532   43.2923 H   0  0  0  0  0  0  0  0  0  0  0  0
   43.8159   33.5476   44.1363 H   0  0  0  0  0  0  0  0  0  0  0  0
   42.6259   30.7444   42.0541 H   0  0  0  0  0  0  0  0  0  0  0  0
   42.1397   32.2095   42.9484 H   0  0  0  0  0  0  0  0  0  0  0  0
   47.4232   33.8901   44.9266 H   0  0  0  0  0  0  0  0  0  0  0  0
   46.1745   31.0136   45.0076 H   0  0  0  0  0  0  0  0  0  0  0  0
   47.7839   31.3550   44.4731 H   0  0  0  0  0  0  0  0  0  0  0  0
   47.4315   30.7146   47.0743 H   0  0  0  0  0  0  0  0  0  0  0  0
   48.4688   32.1075   46.7775 H   0  0  0  0  0  0  0  0  0  0  0  0
   45.6850   31.9711   47.8329 H   0  0  0  0  0  0  0  0  0  0  0  0
   46.9116   33.2381   48.0750 H   0  0  0  0  0  0  0  0  0  0  0  0
   45.7892   34.4925   46.5168 H   0  0  0  0  0  0  0  0  0  0  0  0
   44.7124   33.1572   46.1093 H   0  0  0  0  0  0  0  0  0  0  0  0
  1  6  2  0
  2  1  1  0
  3  2  2  0
  3  4  1  0
  4  5  2  0
  5  6  1  0
  5 16  1  0
  7 11  1  0
  7  2  1  0
  8  7  1  0
  9  8  2  0
  9 10  1  0
 10 11  2  0
 11 12  1  0
 12 13  1  0
 12 15  1  0
 14 12  1  0
 16 17  1  0
 17 23  1  0
 18 17  1  0
 19 18  1  0
 20 22  1  0
 20 19  2  0
 21 19  1  0
 23 24  1  0
 23 27  1  0
 24 25  1  0
 25 26  1  0
 27 26  1  0
  1 28  1  0
  3 29  1  0
  9 30  1  0
 10 31  1  0
 16 32  1  0
 16 33  1  0
 17 34  1  6
 18 35  1  0
 21 36  1  0
 21 37  1  0
 23 38  1  0
 24 39  1  0
 24 40  1  0
 25 41  1  0
 25 42  1  0
 26 43  1  0
 26 44  1  0
 27 45  1  0
 27 46  1  0
M  ISO  8  28  14  29  14  30  14  31  14  32   8  33   8  34   8  38  13
M  ISO  8  39  13  40  13  41  13  42  13  43  13  44  13  45  13  46  13
M  END
>  <minimizedAffinity>  (1) 
-6.11029863

>  <minimizedRMSD>  (1) 
0.668912411

$$$$
