
     RDKit          3D

 49 51  0  0  1  0  0  0  0  0999 V2000
   43.0880   35.4990   41.6230 C   0  0  0  0  0  0  0  0  0  0  0  0
   43.1270   34.8370   40.4140 C   0  0  0  0  0  0  0  0  0  0  0  0
   44.2380   34.0540   40.1310 C   0  0  0  0  0  0  0  0  0  0  0  0
   45.2490   33.9540   41.0260 N   0  0  0  0  0  0  0  0  0  0  0  0
   45.1810   34.6110   42.1910 C   0  0  0  0  0  0  0  0  0  0  0  0
   44.0890   35.3980   42.5030 N   0  0  0  0  0  0  0  0  0  0  0  0
   42.0310   35.0000   39.5580 N   0  0  0  0  0  0  0  0  0  0  0  0
   42.1930   35.5860   38.3830 N   0  0  0  0  0  0  0  0  0  0  0  0
   40.9610   35.6100   37.7650 C   0  0  0  0  0  0  0  0  0  0  0  0
   40.0750   34.9910   38.6770 C   0  0  0  0  0  0  0  0  0  0  0  0
   40.7660   34.6030   39.8220 C   0  0  0  0  0  0  0  0  0  0  0  0
   40.0370   33.9270   40.9240 C   0  0  0  0  0  0  0  0  0  0  0  0
   40.3780   32.5730   41.0420 F   0  0  0  0  0  0  0  0  0  0  0  0
   38.6590   33.7910   40.5790 F   0  0  0  0  0  0  0  0  0  0  0  0
   40.0040   34.5830   42.1020 F   0  0  0  0  0  0  0  0  0  0  0  0
   46.2480   34.5180   43.2460 C   0  0  0  0  0  0  0  0  0  0  0  0
   45.9430   33.3230   44.0740 C   0  0  2  0  0  0  0  0  0  0  0  0
   44.6090   32.8920   43.8950 N   0  0  0  0  0  0  0  0  0  0  0  0
   44.3770   31.7810   43.0480 C   0  0  0  0  0  0  0  0  0  0  0  0
   45.2960   31.0110   42.5580 N   0  0  0  0  0  0  0  0  0  0  0  0
   43.0240   31.4760   42.6730 N   0  0  0  0  0  0  0  0  0  0  0  0
   46.2710   31.1900   42.7580 H   0  0  0  0  0  0  0  0  0  0  0  0
   46.5690   32.9880   45.3410 C   0  0  0  0  0  0  0  0  0  0  0  0
   47.3360   31.6600   45.2340 C   0  0  0  0  0  0  0  0  0  0  0  0
   47.2970   30.8920   46.5270 C   0  0  0  0  0  0  0  0  0  0  0  0
   47.6260   31.8970   47.6210 C   0  0  0  0  0  0  0  0  0  0  0  0
   46.3890   32.7320   47.8140 C   0  0  0  0  0  0  0  0  0  0  0  0
   45.6210   32.9410   46.5290 C   0  0  0  0  0  0  0  0  0  0  0  0
   42.2157   36.1227   41.8681 H   0  0  0  0  0  0  0  0  0  0  0  0
   44.2971   33.5124   39.1754 H   0  0  0  0  0  0  0  0  0  0  0  0
   40.7189   36.0224   36.7744 H   0  0  0  0  0  0  0  0  0  0  0  0
   38.9990   34.8385   38.5070 H   0  0  0  0  0  0  0  0  0  0  0  0
   47.2357   34.4079   42.7746 H   0  0  0  0  0  0  0  0  0  0  0  0
   46.2665   35.4275   43.8644 H   0  0  0  0  0  0  0  0  0  0  0  0
   46.6951   32.6656   43.6135 H   0  0  0  0  0  0  0  0  0  0  0  0
   43.8289   33.3716   44.3665 H   0  0  0  0  0  0  0  0  0  0  0  0
   42.8286   30.6733   42.0579 H   0  0  0  0  0  0  0  0  0  0  0  0
   42.2495   32.0601   43.0192 H   0  0  0  0  0  0  0  0  0  0  0  0
   47.2629   33.8176   45.5417 H   0  0  0  0  0  0  0  0  0  0  0  0
   46.8810   31.0479   44.4414 H   0  0  0  0  0  0  0  0  0  0  0  0
   48.3866   31.8874   45.0006 H   0  0  0  0  0  0  0  0  0  0  0  0
   46.2960   30.4653   46.6882 H   0  0  0  0  0  0  0  0  0  0  0  0
   48.0107   30.0550   46.5205 H   0  0  0  0  0  0  0  0  0  0  0  0
   47.8818   31.3739   48.5542 H   0  0  0  0  0  0  0  0  0  0  0  0
   48.4896   32.5199   47.3449 H   0  0  0  0  0  0  0  0  0  0  0  0
   45.7328   32.2270   48.5382 H   0  0  0  0  0  0  0  0  0  0  0  0
   46.7081   33.7207   48.1754 H   0  0  0  0  0  0  0  0  0  0  0  0
   45.0683   33.8902   46.5884 H   0  0  0  0  0  0  0  0  0  0  0  0
   44.9226   32.1022   46.3926 H   0  0  0  0  0  0  0  0  0  0  0  0
  1  6  2  0
  2  1  1  0
  3  2  2  0
  3  4  1  0
  4  5  2  0
  5  6  1  0
  5 16  1  0
  7 11  1  0
  7  2  1  0
  8  7  1  0
  9  8  2  0
  9 10  1  0
 10 11  2  0
 11 12  1  0
 12 13  1  0
 12 15  1  0
 14 12  1  0
 16 17  1  0
 17 23  1  0
 18 17  1  0
 19 18  1  0
 20 22  1  0
 20 19  2  0
 21 19  1  0
 23 28  1  0
 24 23  1  0
 24 25  1  0
 25 26  1  0
 26 27  1  0
 28 27  1  0
  1 29  1  0
  3 30  1  0
  9 31  1  0
 10 32  1  0
 16 33  1  0
 16 34  1  0
 17 35  1  6
 18 36  1  0
 21 37  1  0
 21 38  1  0
 23 39  1  0
 24 40  1  0
 24 41  1  0
 25 42  1  0
 25 43  1  0
 26 44  1  0
 26 45  1  0
 27 46  1  0
 27 47  1  0
 28 48  1  0
 28 49  1  0
M  ISO  8  29  14  30  14  31  14  32  14  33   8  34   8  35   8  39  13
M  ISO  8  40  13  41  13  42  13  43  13  44  13  45  13  46  13  47  13
M  ISO  2  48  13  49  13
M  END
>  <minimizedAffinity>  (1) 
-6.10146809

>  <minimizedRMSD>  (1) 
0.91571933

$$$$
