
     RDKit          3D

 40 42  0  0  1  0  0  0  0  0999 V2000
   42.4280   35.3670   41.4920 C   0  0  0  0  0  0  0  0  0  0  0  0
   42.5760   34.4660   40.4600 C   0  0  0  0  0  0  0  0  0  0  0  0
   43.8430   33.9540   40.2120 C   0  0  0  0  0  0  0  0  0  0  0  0
   44.8970   34.3370   40.9720 N   0  0  0  0  0  0  0  0  0  0  0  0
   44.7210   35.2150   41.9690 C   0  0  0  0  0  0  0  0  0  0  0  0
   43.4720   35.7440   42.2410 N   0  0  0  0  0  0  0  0  0  0  0  0
   41.4300   34.1290   39.7310 N   0  0  0  0  0  0  0  0  0  0  0  0
   41.3560   34.4140   38.4400 N   0  0  0  0  0  0  0  0  0  0  0  0
   40.1280   33.9760   37.9950 C   0  0  0  0  0  0  0  0  0  0  0  0
   39.5020   33.4180   39.1240 C   0  0  0  0  0  0  0  0  0  0  0  0
   40.3350   33.5160   40.2360 C   0  0  0  0  0  0  0  0  0  0  0  0
   39.8800   32.9900   41.5460 C   0  0  0  0  0  0  0  0  0  0  0  0
   40.6390   31.8970   41.9810 F   0  0  0  0  0  0  0  0  0  0  0  0
   38.6140   32.3530   41.3970 F   0  0  0  0  0  0  0  0  0  0  0  0
   39.6590   33.9120   42.5080 F   0  0  0  0  0  0  0  0  0  0  0  0
   45.8260   35.6680   42.8830 C   0  0  0  0  0  0  0  0  0  0  0  0
   46.8990   34.6360   42.7930 C   0  0  2  0  0  0  0  0  0  0  0  0
   47.3220   34.4260   41.4700 N   0  0  0  0  0  0  0  0  0  0  0  0
   48.4360   35.1830   41.0150 C   0  0  0  0  0  0  0  0  0  0  0  0
   49.2130   35.9030   41.7650 N   0  0  0  0  0  0  0  0  0  0  0  0
   48.7440   35.1790   39.6110 N   0  0  0  0  0  0  0  0  0  0  0  0
   49.0350   35.9620   42.7610 H   0  0  0  0  0  0  0  0  0  0  0  0
   46.9000   33.5790   43.7190 C   0  0  0  0  0  0  0  0  0  0  0  0
   46.8530   32.2810   43.1940 C   0  0  0  0  0  0  0  0  0  0  0  0
   46.8590   31.3420   44.1850 N   0  0  0  0  0  0  0  0  0  0  0  0
   46.9110   32.0370   45.3590 C   0  0  0  0  0  0  0  0  0  0  0  0
   46.9340   33.3590   45.0410 N   0  0  0  0  0  0  0  0  0  0  0  0
   41.4329   35.7847   41.7047 H   0  0  0  0  0  0  0  0  0  0  0  0
   43.9914   33.2336   39.3941 H   0  0  0  0  0  0  0  0  0  0  0  0
   39.7235   34.0474   36.9746 H   0  0  0  0  0  0  0  0  0  0  0  0
   38.4981   32.9684   39.1282 H   0  0  0  0  0  0  0  0  0  0  0  0
   46.2110   36.6459   42.5583 H   0  0  0  0  0  0  0  0  0  0  0  0
   45.4669   35.7797   43.9167 H   0  0  0  0  0  0  0  0  0  0  0  0
   47.7865   35.0817   43.2659 H   0  0  0  0  0  0  0  0  0  0  0  0
   46.8448   33.7515   40.8550 H   0  0  0  0  0  0  0  0  0  0  0  0
   49.5463   35.7200   39.2582 H   0  0  0  0  0  0  0  0  0  0  0  0
   48.1624   34.6351   38.9577 H   0  0  0  0  0  0  0  0  0  0  0  0
   46.8160   32.0480   42.1196 H   0  0  0  0  0  0  0  0  0  0  0  0
   46.9306   31.6082   46.3718 H   0  0  0  0  0  0  0  0  0  0  0  0
   46.9734   34.1123   45.7423 H   0  0  0  0  0  0  0  0  0  0  0  0
  1  6  2  0
  2  1  1  0
  3  2  2  0
  3  4  1  0
  4  5  2  0
  5  6  1  0
  5 16  1  0
  7 11  1  0
  7  2  1  0
  8  7  1  0
  9  8  2  0
  9 10  1  0
 10 11  2  0
 11 12  1  0
 12 13  1  0
 12 15  1  0
 14 12  1  0
 17 16  1  0
 17 23  1  0
 18 17  1  0
 19 18  1  0
 19 20  2  0
 20 22  1  0
 21 19  1  0
 23 27  1  0
 24 23  2  0
 24 25  1  0
 25 26  2  0
 27 26  1  0
  1 28  1  0
  3 29  1  0
  9 30  1  0
 10 31  1  0
 16 32  1  0
 16 33  1  0
 17 34  1  1
 18 35  1  0
 21 36  1  0
 21 37  1  0
 24 38  1  0
 26 39  1  0
 27 40  1  0
M  ISO  8  28  14  29  14  30  14  31  14  32   8  33   8  34   8  38  14
M  ISO  2  39  14  40   9
M  END
>  <minimizedAffinity>  (1) 
-6.09725952

>  <minimizedRMSD>  (1) 
2.63074803

$$$$
