
     RDKit          3D

 40 42  0  0  1  0  0  0  0  0999 V2000
   43.6530   33.4210   41.7040 C   0  0  0  0  0  0  0  0  0  0  0  0
   43.2500   34.6490   41.2270 C   0  0  0  0  0  0  0  0  0  0  0  0
   43.8390   35.7880   41.7590 C   0  0  0  0  0  0  0  0  0  0  0  0
   44.7860   35.6840   42.7230 N   0  0  0  0  0  0  0  0  0  0  0  0
   45.1560   34.4760   43.1660 C   0  0  0  0  0  0  0  0  0  0  0  0
   44.5890   33.3220   42.6560 N   0  0  0  0  0  0  0  0  0  0  0  0
   42.2680   34.6610   40.2280 N   0  0  0  0  0  0  0  0  0  0  0  0
   42.5650   35.0880   39.0100 N   0  0  0  0  0  0  0  0  0  0  0  0
   41.4170   34.9900   38.2520 C   0  0  0  0  0  0  0  0  0  0  0  0
   40.4430   34.4760   39.1230 C   0  0  0  0  0  0  0  0  0  0  0  0
   40.9870   34.2660   40.3860 C   0  0  0  0  0  0  0  0  0  0  0  0
   40.1330   33.7230   41.4750 C   0  0  0  0  0  0  0  0  0  0  0  0
   40.4630   32.4050   41.8110 F   0  0  0  0  0  0  0  0  0  0  0  0
   38.8050   33.5230   40.9950 F   0  0  0  0  0  0  0  0  0  0  0  0
   39.9570   34.5290   42.5440 F   0  0  0  0  0  0  0  0  0  0  0  0
   46.2230   34.2580   44.2030 C   0  0  0  0  0  0  0  0  0  0  0  0
   47.3950   33.6550   43.4920 C   0  0  2  0  0  0  0  0  0  0  0  0
   47.6600   34.3130   42.2800 N   0  0  0  0  0  0  0  0  0  0  0  0
   48.8830   35.0260   42.1780 C   0  0  0  0  0  0  0  0  0  0  0  0
   49.8580   34.9750   43.0350 N   0  0  0  0  0  0  0  0  0  0  0  0
   49.0800   35.8950   41.0470 N   0  0  0  0  0  0  0  0  0  0  0  0
   49.7680   34.4020   43.8680 H   0  0  0  0  0  0  0  0  0  0  0  0
   47.6090   32.3120   43.6270 N   0  0  0  0  0  0  0  0  0  0  0  0
   47.4830   31.3370   44.5410 C   0  0  0  0  0  0  0  0  0  0  0  0
   47.8960   30.0960   44.0420 C   0  0  0  0  0  0  0  0  0  0  0  0
   48.2890   30.3370   42.7610 N   0  0  0  0  0  0  0  0  0  0  0  0
   48.1050   31.6560   42.5540 C   0  0  0  0  0  0  0  0  0  0  0  0
   43.1980   32.5065   41.2958 H   0  0  0  0  0  0  0  0  0  0  0  0
   43.5353   36.7809   41.3959 H   0  0  0  0  0  0  0  0  0  0  0  0
   41.2914   35.2572   37.1924 H   0  0  0  0  0  0  0  0  0  0  0  0
   39.3987   34.2689   38.8462 H   0  0  0  0  0  0  0  0  0  0  0  0
   46.5090   35.2166   44.6605 H   0  0  0  0  0  0  0  0  0  0  0  0
   45.8651   33.5984   45.0073 H   0  0  0  0  0  0  0  0  0  0  0  0
   48.2922   33.8838   44.0859 H   0  0  0  0  0  0  0  0  0  0  0  0
   46.9930   34.2795   41.4958 H   0  0  0  0  0  0  0  0  0  0  0  0
   49.9589   36.4232   40.9503 H   0  0  0  0  0  0  0  0  0  0  0  0
   48.3420   35.9884   40.3346 H   0  0  0  0  0  0  0  0  0  0  0  0
   47.1008   31.4944   45.5604 H   0  0  0  0  0  0  0  0  0  0  0  0
   47.9018   29.1320   44.5718 H   0  0  0  0  0  0  0  0  0  0  0  0
   48.3369   32.1527   41.6003 H   0  0  0  0  0  0  0  0  0  0  0  0
  1  6  2  0
  2  1  1  0
  2  3  2  0
  3  4  1  0
  4  5  2  0
  5 16  1  0
  6  5  1  0
  7 11  1  0
  7  2  1  0
  8  7  1  0
  9  8  2  0
  9 10  1  0
 10 11  2  0
 11 12  1  0
 12 13  1  0
 12 15  1  0
 14 12  1  0
 17 23  1  0
 17 16  1  0
 18 17  1  0
 19 18  1  0
 19 20  2  0
 20 22  1  0
 21 19  1  0
 23 24  1  0
 25 24  2  0
 26 25  1  0
 27 26  2  0
 27 23  1  0
  1 28  1  0
  3 29  1  0
  9 30  1  0
 10 31  1  0
 16 32  1  0
 16 33  1  0
 17 34  1  1
 18 35  1  0
 21 36  1  0
 21 37  1  0
 24 38  1  0
 25 39  1  0
 27 40  1  0
M  ISO  8  28  14  29  14  30  14  31  14  32   8  33   8  34   8  38  14
M  ISO  2  39  14  40  14
M  END
>  <minimizedAffinity>  (1) 
-5.96691751

>  <minimizedRMSD>  (1) 
3.13523316

$$$$
