
     RDKit          3D

 40 42  0  0  1  0  0  0  0  0999 V2000
   45.8040   34.3930   43.0400 C   0  0  0  0  0  0  0  0  0  0  0  0
   42.7040   35.4380   41.3460 C   0  0  0  0  0  0  0  0  0  0  0  0
   42.7580   34.7830   40.1350 C   0  0  0  0  0  0  0  0  0  0  0  0
   43.8610   33.9810   39.8690 C   0  0  0  0  0  0  0  0  0  0  0  0
   44.8520   33.8530   40.7850 N   0  0  0  0  0  0  0  0  0  0  0  0
   44.7700   34.5030   41.9530 C   0  0  0  0  0  0  0  0  0  0  0  0
   43.6860   35.3090   42.2460 N   0  0  0  0  0  0  0  0  0  0  0  0
   41.6870   34.9730   39.2540 N   0  0  0  0  0  0  0  0  0  0  0  0
   41.8770   35.6100   38.1080 N   0  0  0  0  0  0  0  0  0  0  0  0
   40.6630   35.6510   37.4560 C   0  0  0  0  0  0  0  0  0  0  0  0
   39.7640   34.9910   38.3100 C   0  0  0  0  0  0  0  0  0  0  0  0
   40.4210   34.5580   39.4590 C   0  0  0  0  0  0  0  0  0  0  0  0
   39.6640   33.8290   40.5110 C   0  0  0  0  0  0  0  0  0  0  0  0
   39.8590   32.4420   40.4550 F   0  0  0  0  0  0  0  0  0  0  0  0
   38.2670   33.8840   40.2260 F   0  0  0  0  0  0  0  0  0  0  0  0
   39.7500   34.3370   41.7570 F   0  0  0  0  0  0  0  0  0  0  0  0
   45.5420   33.1010   43.7410 C   0  0  2  0  0  0  0  0  0  0  0  0
   44.3200   32.5310   43.3580 N   0  0  0  0  0  0  0  0  0  0  0  0
   44.3460   31.1980   42.8680 C   0  0  0  0  0  0  0  0  0  0  0  0
   45.3670   30.3970   42.9210 N   0  0  0  0  0  0  0  0  0  0  0  0
   43.1610   30.6710   42.2460 N   0  0  0  0  0  0  0  0  0  0  0  0
   46.2370   30.7190   43.3300 H   0  0  0  0  0  0  0  0  0  0  0  0
   46.0330   32.9310   45.0500 C   0  0  0  0  0  0  0  0  0  0  0  0
   46.9960   32.1980   45.7260 C   0  0  0  0  0  0  0  0  0  0  0  0
   47.0080   32.4700   47.0790 C   0  0  0  0  0  0  0  0  0  0  0  0
   46.0300   33.3840   47.2030 N   0  0  0  0  0  0  0  0  0  0  0  0
   45.4480   33.6660   46.0260 N   0  0  0  0  0  0  0  0  0  0  0  0
   45.7081   35.2336   43.7430 H   0  0  0  0  0  0  0  0  0  0  0  0
   46.8227   34.4230   42.6262 H   0  0  0  0  0  0  0  0  0  0  0  0
   41.8393   36.0776   41.5769 H   0  0  0  0  0  0  0  0  0  0  0  0
   43.9304   33.4470   38.9098 H   0  0  0  0  0  0  0  0  0  0  0  0
   40.4452   36.1034   36.4773 H   0  0  0  0  0  0  0  0  0  0  0  0
   38.6949   34.8382   38.1012 H   0  0  0  0  0  0  0  0  0  0  0  0
   46.2780   32.3855   43.3457 H   0  0  0  0  0  0  0  0  0  0  0  0
   43.4379   33.0580   43.4291 H   0  0  0  0  0  0  0  0  0  0  0  0
   42.3155   31.2545   42.1714 H   0  0  0  0  0  0  0  0  0  0  0  0
   43.1579   29.7101   41.8752 H   0  0  0  0  0  0  0  0  0  0  0  0
   47.6736   31.4810   45.2393 H   0  0  0  0  0  0  0  0  0  0  0  0
   47.6556   32.0453   47.8602 H   0  0  0  0  0  0  0  0  0  0  0  0
   45.7586   33.8177   48.0970 H   0  0  0  0  0  0  0  0  0  0  0  0
  1 17  1  0
  2  7  2  0
  3  2  1  0
  4  3  2  0
  4  5  1  0
  5  6  2  0
  6  7  1  0
  6  1  1  0
  8 12  1  0
  8  3  1  0
  9  8  1  0
 10  9  2  0
 10 11  1  0
 11 12  2  0
 12 13  1  0
 13 16  1  0
 14 13  1  0
 15 13  1  0
 17 23  1  0
 18 17  1  0
 19 20  2  0
 19 18  1  0
 20 22  1  0
 21 19  1  0
 23 24  1  0
 23 27  2  0
 24 25  2  0
 25 26  1  0
 27 26  1  0
  1 28  1  0
  1 29  1  0
  2 30  1  0
  4 31  1  0
 10 32  1  0
 11 33  1  0
 17 34  1  6
 18 35  1  0
 21 36  1  0
 21 37  1  0
 24 38  1  0
 25 39  1  0
 26 40  1  0
M  ISO  8  28   8  29   8  30  14  31  14  32  14  33  14  34   8  38  14
M  ISO  2  39  14  40   9
M  END
>  <minimizedAffinity>  (1) 
-5.91948795

>  <minimizedRMSD>  (1) 
0.934618413

$$$$
