
     RDKit          3D

 39 41  0  0  1  0  0  0  0  0999 V2000
   41.5750   35.2400   41.2820 C   0  0  0  0  0  0  0  0  0  0  0  0
   41.7440   34.5750   40.0750 C   0  0  0  0  0  0  0  0  0  0  0  0
   43.0400   34.2330   39.7040 C   0  0  0  0  0  0  0  0  0  0  0  0
   44.0710   34.5650   40.5410 N   0  0  0  0  0  0  0  0  0  0  0  0
   43.8430   35.2240   41.7260 C   0  0  0  0  0  0  0  0  0  0  0  0
   42.5890   35.5570   42.0870 N   0  0  0  0  0  0  0  0  0  0  0  0
   40.6080   34.3010   39.3240 N   0  0  0  0  0  0  0  0  0  0  0  0
   40.4130   34.9160   38.1640 N   0  0  0  0  0  0  0  0  0  0  0  0
   39.2210   34.4510   37.6520 C   0  0  0  0  0  0  0  0  0  0  0  0
   38.7450   33.5210   38.6000 C   0  0  0  0  0  0  0  0  0  0  0  0
   39.6330   33.4330   39.6590 C   0  0  0  0  0  0  0  0  0  0  0  0
   39.3460   32.5110   40.7910 C   0  0  0  0  0  0  0  0  0  0  0  0
   39.9620   31.2520   40.6220 F   0  0  0  0  0  0  0  0  0  0  0  0
   37.9790   32.1100   40.7480 F   0  0  0  0  0  0  0  0  0  0  0  0
   39.4840   33.0230   42.0420 F   0  0  0  0  0  0  0  0  0  0  0  0
   45.1190   35.4770   42.4390 C   0  0  0  0  0  0  0  0  0  0  0  0
   45.5270   34.0970   42.9940 C   0  0  1  0  0  0  0  0  0  0  0  0
   44.4530   33.2520   43.2980 N   0  0  0  0  0  0  0  0  0  0  0  0
   44.1320   32.1040   42.5880 C   0  0  0  0  0  0  0  0  0  0  0  0
   44.8620   31.5770   41.6990 N   0  0  0  0  0  0  0  0  0  0  0  0
   42.8870   31.4310   42.8190 N   0  0  0  0  0  0  0  0  0  0  0  0
   45.7460   32.0320   41.4290 H   0  0  0  0  0  0  0  0  0  0  0  0
   46.8940   33.7110   42.8600 C   0  0  0  0  0  0  0  0  0  0  0  0
   47.6250   34.7910   42.4560 C   0  0  0  0  0  0  0  0  0  0  0  0
   49.3170   34.1830   42.3110 S   0  0  0  0  0  0  0  0  0  0  0  0
   48.7610   32.4480   42.8520 C   0  0  0  0  0  0  0  0  0  0  0  0
   47.6700   32.6770   42.9870 N   0  0  0  0  0  0  0  0  0  0  0  0
   40.5559   35.5185   41.5885 H   0  0  0  0  0  0  0  0  0  0  0  0
   43.2326   33.7066   38.7575 H   0  0  0  0  0  0  0  0  0  0  0  0
   38.7425   34.7429   36.7055 H   0  0  0  0  0  0  0  0  0  0  0  0
   37.8084   32.9509   38.5113 H   0  0  0  0  0  0  0  0  0  0  0  0
   45.8830   35.8595   41.7462 H   0  0  0  0  0  0  0  0  0  0  0  0
   45.0147   36.2337   43.2306 H   0  0  0  0  0  0  0  0  0  0  0  0
   45.8525   34.0059   44.0408 H   0  0  0  0  0  0  0  0  0  0  0  0
   43.8608   33.4994   44.1036 H   0  0  0  0  0  0  0  0  0  0  0  0
   42.6557   30.5793   42.2880 H   0  0  0  0  0  0  0  0  0  0  0  0
   42.2240   31.7993   43.5159 H   0  0  0  0  0  0  0  0  0  0  0  0
   47.2611   35.8106   42.2612 H   0  0  0  0  0  0  0  0  0  0  0  0
   49.3280   31.5154   42.9893 H   0  0  0  0  0  0  0  0  0  0  0  0
  1  6  2  0
  2  1  1  0
  3  2  2  0
  3  4  1  0
  4  5  2  0
  5  6  1  0
  5 16  1  0
  7 11  1  0
  7  2  1  0
  8  7  1  0
  9  8  2  0
  9 10  1  0
 10 11  2  0
 11 12  1  0
 12 15  1  0
 13 12  1  0
 14 12  1  0
 16 17  1  0
 17 18  1  0
 19 21  1  0
 19 18  1  0
 20 19  2  0
 22 20  1  0
 23 27  1  0
 23 17  1  0
 24 23  2  0
 25 24  1  0
 25 26  1  0
 26 27  2  0
  1 28  1  0
  3 29  1  0
  9 30  1  0
 10 31  1  0
 16 32  1  0
 16 33  1  0
 17 34  1  1
 18 35  1  0
 21 36  1  0
 21 37  1  0
 24 38  1  0
 26 39  1  0
M  ISO  8  28  14  29  14  30  14  31  14  32   8  33   8  34   8  38  14
M  ISO  1  39  14
M  END
>  <minimizedAffinity>  (1) 
-5.82156992

>  <minimizedRMSD>  (1) 
1.49554181

$$$$
