
     RDKit          3D

 34 35  0  0  1  0  0  0  0  0999 V2000
   42.7580   35.5370   41.3780 C   0  0  0  0  0  0  0  0  0  0  0  0
   42.7690   34.7620   40.2350 C   0  0  0  0  0  0  0  0  0  0  0  0
   43.9260   34.0550   39.9310 C   0  0  0  0  0  0  0  0  0  0  0  0
   45.0080   34.1290   40.7410 N   0  0  0  0  0  0  0  0  0  0  0  0
   44.9660   34.8890   41.8410 C   0  0  0  0  0  0  0  0  0  0  0  0
   43.8320   35.6070   42.1760 N   0  0  0  0  0  0  0  0  0  0  0  0
   41.6020   34.7460   39.4630 N   0  0  0  0  0  0  0  0  0  0  0  0
   41.6110   35.2520   38.2390 N   0  0  0  0  0  0  0  0  0  0  0  0
   40.3410   35.1060   37.7260 C   0  0  0  0  0  0  0  0  0  0  0  0
   39.6000   34.4800   38.7430 C   0  0  0  0  0  0  0  0  0  0  0  0
   40.4090   34.2510   39.8530 C   0  0  0  0  0  0  0  0  0  0  0  0
   39.8390   33.5930   41.0600 C   0  0  0  0  0  0  0  0  0  0  0  0
   40.3110   32.2830   41.2290 F   0  0  0  0  0  0  0  0  0  0  0  0
   38.4550   33.3170   40.8490 F   0  0  0  0  0  0  0  0  0  0  0  0
   39.8410   34.3250   42.1880 F   0  0  0  0  0  0  0  0  0  0  0  0
   46.1090   35.0030   42.8110 C   0  0  0  0  0  0  0  0  0  0  0  0
   46.1020   33.7490   43.6300 C   0  0  2  0  0  0  0  0  0  0  0  0
   44.8140   33.1960   43.7310 N   0  0  0  0  0  0  0  0  0  0  0  0
   44.5660   31.9960   43.0060 C   0  0  0  0  0  0  0  0  0  0  0  0
   45.4660   31.2690   42.4190 N   0  0  0  0  0  0  0  0  0  0  0  0
   43.2080   31.5320   42.8870 N   0  0  0  0  0  0  0  0  0  0  0  0
   46.4380   31.5560   42.4380 H   0  0  0  0  0  0  0  0  0  0  0  0
   46.9660   33.6560   44.6140 O   0  0  0  0  0  0  0  0  0  0  0  0
   41.8530   36.1059   41.6374 H   0  0  0  0  0  0  0  0  0  0  0  0
   43.9629   33.4309   39.0259 H   0  0  0  0  0  0  0  0  0  0  0  0
   39.9831   35.4137   36.7324 H   0  0  0  0  0  0  0  0  0  0  0  0
   38.5359   34.2102   38.6724 H   0  0  0  0  0  0  0  0  0  0  0  0
   47.0606   35.0957   42.2670 H   0  0  0  0  0  0  0  0  0  0  0  0
   46.0014   35.8934   43.4479 H   0  0  0  0  0  0  0  0  0  0  0  0
   46.6305   32.9722   43.0579 H   0  0  0  0  0  0  0  0  0  0  0  0
   44.0819   33.6392   44.3041 H   0  0  0  0  0  0  0  0  0  0  0  0
   43.0031   30.6666   42.3675 H   0  0  0  0  0  0  0  0  0  0  0  0
   42.4415   32.0656   43.3214 H   0  0  0  0  0  0  0  0  0  0  0  0
   46.4876   33.7075   45.4792 H   0  0  0  0  0  0  0  0  0  0  0  0
  1  6  2  0
  2  1  1  0
  3  2  2  0
  3  4  1  0
  4  5  2  0
  5  6  1  0
  5 16  1  0
  7 11  1  0
  7  2  1  0
  8  7  1  0
  9  8  2  0
  9 10  1  0
 10 11  2  0
 11 12  1  0
 12 13  1  0
 12 15  1  0
 14 12  1  0
 16 17  1  0
 17 18  1  0
 17 23  1  0
 19 18  1  0
 20 22  1  0
 20 19  2  0
 21 19  1  0
  1 24  1  0
  3 25  1  0
  9 26  1  0
 10 27  1  0
 16 28  1  0
 16 29  1  0
 17 30  1  6
 18 31  1  0
 21 32  1  0
 21 33  1  0
 23 34  1  0
M  ISO  8  24  14  25  14  26  14  27  14  28   8  29   8  30   8  34   3
M  END
>  <minimizedAffinity>  (1) 
-5.74709988

>  <minimizedRMSD>  (1) 
0.196374699

$$$$
