
     RDKit          3D

 33 35  0  0  0  0  0  0  0  0999 V2000
   44.5260   35.9390   42.6690 C   0  0  0  0  0  0  0  0  0  0  0  0
   43.7870   35.7170   41.4930 C   0  0  0  0  0  0  0  0  0  0  0  0
   43.6680   34.3960   41.0350 C   0  0  0  0  0  0  0  0  0  0  0  0
   44.2670   33.3960   41.7450 N   0  0  0  0  0  0  0  0  0  0  0  0
   44.9620   33.6350   42.8600 C   0  0  0  0  0  0  0  0  0  0  0  0
   45.1010   34.9100   43.3360 N   0  0  0  0  0  0  0  0  0  0  0  0
   45.5450   32.5170   43.5140 N   0  0  0  0  0  0  0  0  0  0  0  0
   46.0280   31.4130   42.8660 C   0  0  0  0  0  0  0  0  0  0  0  0
   46.5210   30.5220   43.6990 N   0  0  0  0  0  0  0  0  0  0  0  0
   46.3810   31.0090   44.9630 C   0  0  0  0  0  0  0  0  0  0  0  0
   46.7130   30.5130   46.1910 C   0  0  0  0  0  0  0  0  0  0  0  0
   47.2510   29.4090   46.2520 O   0  0  0  0  0  0  0  0  0  0  0  0
   46.4270   31.2740   47.2780 N   0  0  0  0  0  0  0  0  0  0  0  0
   45.8280   32.4880   47.1190 C   0  0  0  0  0  0  0  0  0  0  0  0
   45.5840   33.1750   48.3380 N   0  0  0  0  0  0  0  0  0  0  0  0
   45.4920   32.9950   45.9000 N   0  0  0  0  0  0  0  0  0  0  0  0
   45.7740   32.2430   44.8070 C   0  0  0  0  0  0  0  0  0  0  0  0
   46.7790   30.7410   48.5610 C   0  0  0  0  0  0  0  0  0  0  0  0
   45.5980   30.8950   49.4970 C   0  0  0  0  0  0  0  0  0  0  0  0
   48.0540   31.3130   49.1370 C   0  0  0  0  0  0  0  0  0  0  0  0
   44.6386   36.9637   43.0527 H   0  0  0  0  0  0  0  0  0  0  0  0
   43.3180   36.5511   40.9505 H   0  0  0  0  0  0  0  0  0  0  0  0
   43.1017   34.1702   40.1194 H   0  0  0  0  0  0  0  0  0  0  0  0
   46.0066   31.2851   41.7737 H   0  0  0  0  0  0  0  0  0  0  0  0
   45.1347   34.1017   48.3258 H   0  0  0  0  0  0  0  0  0  0  0  0
   45.8564   32.7464   49.2341 H   0  0  0  0  0  0  0  0  0  0  0  0
   47.0068   29.6728   48.4309 H   0  0  0  0  0  0  0  0  0  0  0  0
   45.9476   30.8494   50.5390 H   0  0  0  0  0  0  0  0  0  0  0  0
   45.1105   31.8643   49.3159 H   0  0  0  0  0  0  0  0  0  0  0  0
   44.8783   30.0831   49.3159 H   0  0  0  0  0  0  0  0  0  0  0  0
   48.0027   31.2900   50.2356 H   0  0  0  0  0  0  0  0  0  0  0  0
   48.9112   30.7132   48.7973 H   0  0  0  0  0  0  0  0  0  0  0  0
   48.1760   32.3521   48.7973 H   0  0  0  0  0  0  0  0  0  0  0  0
  1  6  2  0
  2  1  1  0
  3  2  2  0
  3  4  1  0
  4  5  2  0
  5  6  1  0
  5  7  1  0
  7 17  1  0
  8  7  1  0
  8  9  2  0
  9 10  1  0
 10 11  1  0
 11 12  2  0
 11 13  1  0
 13 18  1  0
 14 13  1  0
 14 15  1  0
 16 14  2  0
 17 10  2  0
 17 16  1  0
 18 20  1  0
 18 19  1  0
  1 21  1  0
  2 22  1  0
  3 23  1  0
  8 24  1  0
 15 25  1  0
 15 26  1  0
 18 27  1  0
 19 28  1  0
 19 29  1  0
 19 30  1  0
 20 31  1  0
 20 32  1  0
 20 33  1  0
M  ISO  8  21  14  22  14  23  14  24  14  27   8  28   8  29   8  30   8
M  ISO  3  31   8  32   8  33   8
M  END
>  <minimizedAffinity>  (1) 
-5.09786034

>  <minimizedRMSD>  (1) 
1.99694109

$$$$
