
     RDKit          3D

 46 50  0  0  1  0  0  0  0  0999 V2000
   44.3950   36.0100   42.6660 C   0  0  0  0  0  0  0  0  0  0  0  0
   43.7750   35.7350   41.4380 C   0  0  0  0  0  0  0  0  0  0  0  0
   43.9160   34.4480   40.9100 C   0  0  0  0  0  0  0  0  0  0  0  0
   44.6420   33.5130   41.5960 N   0  0  0  0  0  0  0  0  0  0  0  0
   45.2220   33.8030   42.7640 C   0  0  0  0  0  0  0  0  0  0  0  0
   45.1030   35.0600   43.3120 N   0  0  0  0  0  0  0  0  0  0  0  0
   45.9540   32.7790   43.4050 N   0  0  0  0  0  0  0  0  0  0  0  0
   46.6620   31.8160   42.7370 C   0  0  0  0  0  0  0  0  0  0  0  0
   47.2550   30.9800   43.5560 N   0  0  0  0  0  0  0  0  0  0  0  0
   46.9590   31.3610   44.8320 C   0  0  0  0  0  0  0  0  0  0  0  0
   47.3070   30.8530   46.0400 C   0  0  0  0  0  0  0  0  0  0  0  0
   48.0330   29.8500   46.0900 O   0  0  0  0  0  0  0  0  0  0  0  0
   46.8430   31.4660   47.1470 N   0  0  0  0  0  0  0  0  0  0  0  0
   46.0510   32.5630   47.0150 C   0  0  0  0  0  0  0  0  0  0  0  0
   45.6070   33.1460   48.2340 N   0  0  0  0  0  0  0  0  0  0  0  0
   45.6840   33.0970   45.8100 N   0  0  0  0  0  0  0  0  0  0  0  0
   46.1580   32.4690   44.6970 C   0  0  0  0  0  0  0  0  0  0  0  0
   47.1920   30.9520   48.4290 C   0  0  2  0  0  0  0  0  0  0  0  0
   46.0160   31.0490   49.3600 C   0  0  0  0  0  0  0  0  0  0  0  0
   48.4550   31.5090   49.0140 C   0  0  0  0  0  0  0  0  0  0  0  0
   49.3100   30.4620   49.5770 N   0  0  0  0  0  0  0  0  0  0  0  0
   49.4260   29.1550   49.3240 C   0  0  0  0  0  0  0  0  0  0  0  0
   50.3660   28.6080   50.1130 N   0  0  0  0  0  0  0  0  0  0  0  0
   50.9000   29.5420   50.9140 C   0  0  0  0  0  0  0  0  0  0  0  0
   51.8680   29.5660   51.8920 C   0  0  0  0  0  0  0  0  0  0  0  0
   52.1420   30.7320   52.4980 N   0  0  0  0  0  0  0  0  0  0  0  0
   51.4900   31.8770   52.1670 C   0  0  0  0  0  0  0  0  0  0  0  0
   50.5480   31.8360   51.2090 N   0  0  0  0  0  0  0  0  0  0  0  0
   50.2280   30.6880   50.5620 C   0  0  0  0  0  0  0  0  0  0  0  0
   52.5510   28.3710   52.2410 N   0  0  0  0  0  0  0  0  0  0  0  0
   44.3028   37.0130   43.1081 H   0  0  0  0  0  0  0  0  0  0  0  0
   43.1970   36.5064   40.9080 H   0  0  0  0  0  0  0  0  0  0  0  0
   43.4464   34.1890   39.9496 H   0  0  0  0  0  0  0  0  0  0  0  0
   46.7262   31.7508   41.6408 H   0  0  0  0  0  0  0  0  0  0  0  0
   45.0032   33.9803   48.2160 H   0  0  0  0  0  0  0  0  0  0  0  0
   45.8893   32.7339   49.1348 H   0  0  0  0  0  0  0  0  0  0  0  0
   47.4385   29.8900   48.2828 H   0  0  0  0  0  0  0  0  0  0  0  0
   46.3693   31.0199   50.4013 H   0  0  0  0  0  0  0  0  0  0  0  0
   45.4828   31.9942   49.1800 H   0  0  0  0  0  0  0  0  0  0  0  0
   45.3352   30.2040   49.1800 H   0  0  0  0  0  0  0  0  0  0  0  0
   49.0109   32.0337   48.2230 H   0  0  0  0  0  0  0  0  0  0  0  0
   48.1775   32.1941   49.8286 H   0  0  0  0  0  0  0  0  0  0  0  0
   48.8358   28.6051   48.5761 H   0  0  0  0  0  0  0  0  0  0  0  0
   51.7292   32.8229   52.6750 H   0  0  0  0  0  0  0  0  0  0  0  0
   53.2758   28.3870   52.9727 H   0  0  0  0  0  0  0  0  0  0  0  0
   52.3217   27.4882   51.7625 H   0  0  0  0  0  0  0  0  0  0  0  0
  1  6  2  0
  2  1  1  0
  3  2  2  0
  3  4  1  0
  4  5  2  0
  5  6  1  0
  5  7  1  0
  7 17  1  0
  8  7  1  0
  8  9  2  0
  9 10  1  0
 10 11  1  0
 11 12  2  0
 11 13  1  0
 13 18  1  0
 14 13  1  0
 14 15  1  0
 16 14  2  0
 17 10  2  0
 17 16  1  0
 18 20  1  0
 18 19  1  0
 20 21  1  0
 21 29  1  0
 22 21  1  0
 22 23  2  0
 23 24  1  0
 24 25  2  0
 25 30  1  0
 25 26  1  0
 27 26  2  0
 28 27  1  0
 29 24  1  0
 29 28  2  0
  1 31  1  0
  2 32  1  0
  3 33  1  0
  8 34  1  0
 15 35  1  0
 15 36  1  0
 18 37  1  6
 19 38  1  0
 19 39  1  0
 19 40  1  0
 20 41  1  0
 20 42  1  0
 22 43  1  0
 27 44  1  0
 30 45  1  0
 30 46  1  0
M  ISO  8  31  14  32  14  33  14  34  14  37   8  38   8  39   8  40   8
M  ISO  4  41   8  42   8  43  14  44  14
M  END
>  <minimizedAffinity>  (1) 
-6.57131767

>  <minimizedRMSD>  (1) 
1.35867953

$$$$
