
     RDKit          3D

 44 48  0  0  1  0  0  0  0  0999 V2000
   44.3180   35.9890   42.6340 C   0  0  0  0  0  0  0  0  0  0  0  0
   43.7050   35.6830   41.3950 C   0  0  0  0  0  0  0  0  0  0  0  0
   43.8940   34.4020   40.8790 C   0  0  0  0  0  0  0  0  0  0  0  0
   44.6510   33.4960   41.5690 N   0  0  0  0  0  0  0  0  0  0  0  0
   45.2180   33.8110   42.7390 C   0  0  0  0  0  0  0  0  0  0  0  0
   45.0590   35.0640   43.2880 N   0  0  0  0  0  0  0  0  0  0  0  0
   45.9880   32.8190   43.3850 N   0  0  0  0  0  0  0  0  0  0  0  0
   46.7490   31.8890   42.7150 C   0  0  0  0  0  0  0  0  0  0  0  0
   47.3710   31.0810   43.5430 N   0  0  0  0  0  0  0  0  0  0  0  0
   47.0460   31.4450   44.8160 C   0  0  0  0  0  0  0  0  0  0  0  0
   47.4110   30.9490   46.0240 C   0  0  0  0  0  0  0  0  0  0  0  0
   48.1780   29.9840   46.0890 O   0  0  0  0  0  0  0  0  0  0  0  0
   46.8990   31.5530   47.1400 N   0  0  0  0  0  0  0  0  0  0  0  0
   46.0650   32.6030   46.9960 C   0  0  0  0  0  0  0  0  0  0  0  0
   45.5860   33.1600   48.2130 N   0  0  0  0  0  0  0  0  0  0  0  0
   45.6840   33.1190   45.7820 N   0  0  0  0  0  0  0  0  0  0  0  0
   46.1940   32.5170   44.6740 C   0  0  0  0  0  0  0  0  0  0  0  0
   47.2750   31.0500   48.4250 C   0  0  2  0  0  0  0  0  0  0  0  0
   46.0740   31.0430   49.3240 C   0  0  0  0  0  0  0  0  0  0  0  0
   48.4920   31.7150   49.0170 C   0  0  0  0  0  0  0  0  0  0  0  0
   49.3830   30.8170   49.7060 N   0  0  0  0  0  0  0  0  0  0  0  0
   49.4040   29.4850   49.4070 C   0  0  0  0  0  0  0  0  0  0  0  0
   50.2800   28.7970   50.1470 N   0  0  0  0  0  0  0  0  0  0  0  0
   50.8660   29.6890   50.9650 C   0  0  0  0  0  0  0  0  0  0  0  0
   51.8330   29.5930   51.9360 C   0  0  0  0  0  0  0  0  0  0  0  0
   52.2020   30.7090   52.5780 N   0  0  0  0  0  0  0  0  0  0  0  0
   51.6290   31.9080   52.2740 C   0  0  0  0  0  0  0  0  0  0  0  0
   50.6840   32.0120   51.3290 N   0  0  0  0  0  0  0  0  0  0  0  0
   50.3070   30.9000   50.6790 C   0  0  0  0  0  0  0  0  0  0  0  0
   44.1906   36.9906   43.0705 H   0  0  0  0  0  0  0  0  0  0  0  0
   43.1010   36.4297   40.8586 H   0  0  0  0  0  0  0  0  0  0  0  0
   43.4355   34.1207   39.9195 H   0  0  0  0  0  0  0  0  0  0  0  0
   46.8270   31.8294   41.6194 H   0  0  0  0  0  0  0  0  0  0  0  0
   44.9439   33.9651   48.1933 H   0  0  0  0  0  0  0  0  0  0  0  0
   45.8810   32.7584   49.1145 H   0  0  0  0  0  0  0  0  0  0  0  0
   47.6132   30.0105   48.3018 H   0  0  0  0  0  0  0  0  0  0  0  0
   46.4019   31.0449   50.3740 H   0  0  0  0  0  0  0  0  0  0  0  0
   45.4645   31.9376   49.1286 H   0  0  0  0  0  0  0  0  0  0  0  0
   45.4750   30.1413   49.1286 H   0  0  0  0  0  0  0  0  0  0  0  0
   49.0516   32.1972   48.2020 H   0  0  0  0  0  0  0  0  0  0  0  0
   48.1255   32.4315   49.7669 H   0  0  0  0  0  0  0  0  0  0  0  0
   48.7665   29.0255   48.6373 H   0  0  0  0  0  0  0  0  0  0  0  0
   52.2927   28.6239   52.1801 H   0  0  0  0  0  0  0  0  0  0  0  0
   51.9492   32.8100   52.8161 H   0  0  0  0  0  0  0  0  0  0  0  0
  1  6  2  0
  2  1  1  0
  3  2  2  0
  3  4  1  0
  4  5  2  0
  5  6  1  0
  5  7  1  0
  7 17  1  0
  8  7  1  0
  8  9  2  0
  9 10  1  0
 10 11  1  0
 11 12  2  0
 11 13  1  0
 13 18  1  0
 14 13  1  0
 14 15  1  0
 16 14  2  0
 17 10  2  0
 17 16  1  0
 18 20  1  0
 18 19  1  0
 20 21  1  0
 21 29  1  0
 22 21  1  0
 22 23  2  0
 23 24  1  0
 24 25  2  0
 25 26  1  0
 27 26  2  0
 28 27  1  0
 29 24  1  0
 29 28  2  0
  1 30  1  0
  2 31  1  0
  3 32  1  0
  8 33  1  0
 15 34  1  0
 15 35  1  0
 18 36  1  6
 19 37  1  0
 19 38  1  0
 19 39  1  0
 20 40  1  0
 20 41  1  0
 22 42  1  0
 25 43  1  0
 27 44  1  0
M  ISO  8  30  14  31  14  32  14  33  14  36   8  37   8  38   8  39   8
M  ISO  5  40   8  41   8  42  14  43  14  44  14
M  END
>  <minimizedAffinity>  (1) 
-6.45925903

>  <minimizedRMSD>  (1) 
1.13777542

$$$$
