
     RDKit          3D

 43 46  0  0  1  0  0  0  0  0999 V2000
   44.3290   36.0040   42.6920 C   0  0  0  0  0  0  0  0  0  0  0  0
   43.7180   35.7250   41.4570 C   0  0  0  0  0  0  0  0  0  0  0  0
   43.9070   34.4420   40.9010 C   0  0  0  0  0  0  0  0  0  0  0  0
   44.6680   33.5470   41.5870 N   0  0  0  0  0  0  0  0  0  0  0  0
   45.2390   33.8340   42.7590 C   0  0  0  0  0  0  0  0  0  0  0  0
   45.0780   35.0750   43.3350 N   0  0  0  0  0  0  0  0  0  0  0  0
   46.0090   32.8270   43.3830 N   0  0  0  0  0  0  0  0  0  0  0  0
   46.7510   31.9040   42.6980 C   0  0  0  0  0  0  0  0  0  0  0  0
   47.3800   31.0740   43.5090 N   0  0  0  0  0  0  0  0  0  0  0  0
   47.0700   31.4230   44.7890 C   0  0  0  0  0  0  0  0  0  0  0  0
   47.4380   30.9120   45.9870 C   0  0  0  0  0  0  0  0  0  0  0  0
   48.1990   29.9400   46.0240 O   0  0  0  0  0  0  0  0  0  0  0  0
   46.9530   31.4920   47.1070 N   0  0  0  0  0  0  0  0  0  0  0  0
   46.1170   32.5630   46.9910 C   0  0  0  0  0  0  0  0  0  0  0  0
   45.6580   33.1120   48.2170 N   0  0  0  0  0  0  0  0  0  0  0  0
   45.7310   33.0960   45.7910 N   0  0  0  0  0  0  0  0  0  0  0  0
   46.2270   32.5030   44.6690 C   0  0  0  0  0  0  0  0  0  0  0  0
   47.3250   30.9780   48.3800 C   0  0  2  0  0  0  0  0  0  0  0  0
   46.1330   30.9610   49.3060 C   0  0  0  0  0  0  0  0  0  0  0  0
   48.5310   31.6250   48.9940 C   0  0  0  0  0  0  0  0  0  0  0  0
   49.3790   30.5270   49.4870 N   0  0  0  0  0  0  0  0  0  0  0  0
   49.2590   29.2690   49.0260 C   0  0  0  0  0  0  0  0  0  0  0  0
   50.1330   28.3470   49.5930 C   0  0  0  0  0  0  0  0  0  0  0  0
   51.0620   28.7060   50.5630 C   0  0  0  0  0  0  0  0  0  0  0  0
   51.8440   27.8470   51.0610 O   0  0  0  0  0  0  0  0  0  0  0  0
   51.1200   29.9870   50.9720 N   0  0  0  0  0  0  0  0  0  0  0  0
   50.2840   30.8930   50.4370 C   0  0  0  0  0  0  0  0  0  0  0  0
   50.3850   32.0620   50.8540 O   0  0  0  0  0  0  0  0  0  0  0  0
   44.1965   36.9971   43.1461 H   0  0  0  0  0  0  0  0  0  0  0  0
   43.1115   36.4833   40.9402 H   0  0  0  0  0  0  0  0  0  0  0  0
   43.4505   34.1723   39.9372 H   0  0  0  0  0  0  0  0  0  0  0  0
   46.8158   31.8589   41.6008 H   0  0  0  0  0  0  0  0  0  0  0  0
   45.0230   33.9230   48.2124 H   0  0  0  0  0  0  0  0  0  0  0  0
   45.9600   32.6994   49.1111 H   0  0  0  0  0  0  0  0  0  0  0  0
   47.6528   29.9417   48.2106 H   0  0  0  0  0  0  0  0  0  0  0  0
   46.4796   30.9659   50.3500 H   0  0  0  0  0  0  0  0  0  0  0  0
   45.5126   31.8504   49.1214 H   0  0  0  0  0  0  0  0  0  0  0  0
   45.5382   30.0543   49.1214 H   0  0  0  0  0  0  0  0  0  0  0  0
   49.0721   32.2160   48.2404 H   0  0  0  0  0  0  0  0  0  0  0  0
   48.2486   32.3099   49.8071 H   0  0  0  0  0  0  0  0  0  0  0  0
   48.5237   28.9897   48.2570 H   0  0  0  0  0  0  0  0  0  0  0  0
   50.0875   27.2987   49.2627 H   0  0  0  0  0  0  0  0  0  0  0  0
   51.8010   30.2711   51.6906 H   0  0  0  0  0  0  0  0  0  0  0  0
  1  6  2  0
  2  1  1  0
  3  2  2  0
  3  4  1  0
  4  5  2  0
  5  6  1  0
  5  7  1  0
  7 17  1  0
  8  7  1  0
  8  9  2  0
  9 10  1  0
 10 11  1  0
 11 12  2  0
 11 13  1  0
 13 18  1  0
 14 13  1  0
 14 15  1  0
 16 14  2  0
 17 10  2  0
 17 16  1  0
 18 20  1  0
 18 19  1  0
 20 21  1  0
 21 27  1  0
 22 21  1  0
 22 23  2  0
 23 24  1  0
 24 26  1  0
 24 25  2  0
 27 28  2  0
 27 26  1  0
  1 29  1  0
  2 30  1  0
  3 31  1  0
  8 32  1  0
 15 33  1  0
 15 34  1  0
 18 35  1  6
 19 36  1  0
 19 37  1  0
 19 38  1  0
 20 39  1  0
 20 40  1  0
 22 41  1  0
 23 42  1  0
 26 43  1  0
M  ISO  8  29  14  30  14  31  14  32  14  35   8  36   8  37   8  38   8
M  ISO  5  39   8  40   8  41  14  42  14  43   9
M  END
>  <minimizedAffinity>  (1) 
-5.97209311

>  <minimizedRMSD>  (1) 
1.82596815

$$$$
