
     RDKit          3D

 46 49  0  0  1  0  0  0  0  0999 V2000
   44.3030   35.9420   42.5420 C   0  0  0  0  0  0  0  0  0  0  0  0
   43.6710   35.6440   41.3280 C   0  0  0  0  0  0  0  0  0  0  0  0
   43.7660   34.3290   40.8290 C   0  0  0  0  0  0  0  0  0  0  0  0
   44.4710   33.4210   41.5620 N   0  0  0  0  0  0  0  0  0  0  0  0
   45.0650   33.7130   42.7090 C   0  0  0  0  0  0  0  0  0  0  0  0
   44.9890   34.9920   43.2220 N   0  0  0  0  0  0  0  0  0  0  0  0
   45.7730   32.6920   43.3810 N   0  0  0  0  0  0  0  0  0  0  0  0
   46.4590   31.6970   42.7430 C   0  0  0  0  0  0  0  0  0  0  0  0
   47.0420   30.8720   43.5890 N   0  0  0  0  0  0  0  0  0  0  0  0
   46.7560   31.3000   44.8520 C   0  0  0  0  0  0  0  0  0  0  0  0
   47.0990   30.8280   46.0740 C   0  0  0  0  0  0  0  0  0  0  0  0
   47.8050   29.8170   46.1610 O   0  0  0  0  0  0  0  0  0  0  0  0
   46.6370   31.5060   47.1690 N   0  0  0  0  0  0  0  0  0  0  0  0
   45.8710   32.6010   46.9980 C   0  0  0  0  0  0  0  0  0  0  0  0
   45.4510   33.2220   48.1950 N   0  0  0  0  0  0  0  0  0  0  0  0
   45.5200   33.0850   45.7680 N   0  0  0  0  0  0  0  0  0  0  0  0
   45.9720   32.4200   44.6810 C   0  0  0  0  0  0  0  0  0  0  0  0
   46.9970   31.0130   48.4790 C   0  0  2  0  0  0  0  0  0  0  0  0
   45.7500   30.9310   49.3110 C   0  0  0  0  0  0  0  0  0  0  0  0
   48.1540   31.7320   49.1000 C   0  0  0  0  0  0  0  0  0  0  0  0
   49.2800   31.0600   49.5180 N   0  0  0  0  0  0  0  0  0  0  0  0
   49.6260   29.7580   49.2070 C   0  0  0  0  0  0  0  0  0  0  0  0
   50.9520   29.6190   48.4570 C   0  0  0  0  0  0  0  0  0  0  0  0
   51.9240   30.2030   49.2550 O   0  0  0  0  0  0  0  0  0  0  0  0
   51.6800   31.5500   49.4270 C   0  0  0  0  0  0  0  0  0  0  0  0
   50.3410   31.8350   50.1000 C   0  0  0  0  0  0  0  0  0  0  0  0
   44.2414   36.9620   42.9491 H   0  0  0  0  0  0  0  0  0  0  0  0
   43.1144   36.4169   40.7777 H   0  0  0  0  0  0  0  0  0  0  0  0
   43.2874   34.0450   39.8801 H   0  0  0  0  0  0  0  0  0  0  0  0
   46.5177   31.5964   41.6492 H   0  0  0  0  0  0  0  0  0  0  0  0
   44.8617   34.0659   48.1581 H   0  0  0  0  0  0  0  0  0  0  0  0
   45.7340   32.8309   49.1049 H   0  0  0  0  0  0  0  0  0  0  0  0
   47.4045   29.9947   48.3959 H   0  0  0  0  0  0  0  0  0  0  0  0
   46.0189   30.9487   50.3775 H   0  0  0  0  0  0  0  0  0  0  0  0
   45.0998   31.7883   49.0826 H   0  0  0  0  0  0  0  0  0  0  0  0
   45.2176   29.9959   49.0826 H   0  0  0  0  0  0  0  0  0  0  0  0
   48.4919   32.4726   48.3602 H   0  0  0  0  0  0  0  0  0  0  0  0
   47.7273   32.0895   50.0488 H   0  0  0  0  0  0  0  0  0  0  0  0
   49.6998   29.1881   50.1450 H   0  0  0  0  0  0  0  0  0  0  0  0
   48.8433   29.3770   48.5345 H   0  0  0  0  0  0  0  0  0  0  0  0
   51.1848   28.5566   48.2921 H   0  0  0  0  0  0  0  0  0  0  0  0
   50.9028   30.1068   47.4723 H   0  0  0  0  0  0  0  0  0  0  0  0
   52.4818   31.9743   50.0492 H   0  0  0  0  0  0  0  0  0  0  0  0
   51.6483   32.0076   48.4272 H   0  0  0  0  0  0  0  0  0  0  0  0
   50.1054   32.9036   49.9876 H   0  0  0  0  0  0  0  0  0  0  0  0
   50.4247   31.5603   51.1619 H   0  0  0  0  0  0  0  0  0  0  0  0
  1  6  2  0
  2  1  1  0
  3  2  2  0
  3  4  1  0
  4  5  2  0
  5  6  1  0
  5  7  1  0
  7 17  1  0
  8  7  1  0
  8  9  2  0
  9 10  1  0
 10 11  1  0
 11 12  2  0
 11 13  1  0
 13 18  1  0
 14 13  1  0
 14 15  1  0
 16 14  2  0
 17 10  2  0
 17 16  1  0
 18 20  1  0
 18 19  1  0
 20 21  1  0
 21 26  1  0
 22 21  1  0
 23 22  1  0
 23 24  1  0
 24 25  1  0
 25 26  1  0
  1 27  1  0
  2 28  1  0
  3 29  1  0
  8 30  1  0
 15 31  1  0
 15 32  1  0
 18 33  1  6
 19 34  1  0
 19 35  1  0
 19 36  1  0
 20 37  1  0
 20 38  1  0
 22 39  1  0
 22 40  1  0
 23 41  1  0
 23 42  1  0
 25 43  1  0
 25 44  1  0
 26 45  1  0
 26 46  1  0
M  ISO  8  27  14  28  14  29  14  30  14  33   8  34   8  35   8  36   8
M  ISO  8  37   8  38   8  39  13  40  13  41  13  42  13  43  13  44  13
M  ISO  2  45  13  46  13
M  END
>  <minimizedAffinity>  (1) 
-5.71696281

>  <minimizedRMSD>  (1) 
1.37060833

$$$$
