
     RDKit          3D

 39 42  0  0  1  0  0  0  0  0999 V2000
   44.4610   35.9600   42.6690 C   0  0  0  0  0  0  0  0  0  0  0  0
   43.7180   35.7100   41.4890 C   0  0  0  0  0  0  0  0  0  0  0  0
   43.6560   34.3870   41.0150 C   0  0  0  0  0  0  0  0  0  0  0  0
   44.3100   33.4150   41.7090 N   0  0  0  0  0  0  0  0  0  0  0  0
   45.0060   33.6820   42.8230 C   0  0  0  0  0  0  0  0  0  0  0  0
   45.0920   34.9510   43.3170 N   0  0  0  0  0  0  0  0  0  0  0  0
   45.6430   32.5780   43.4560 N   0  0  0  0  0  0  0  0  0  0  0  0
   46.1770   31.5170   42.7980 C   0  0  0  0  0  0  0  0  0  0  0  0
   46.7040   30.6370   43.6210 N   0  0  0  0  0  0  0  0  0  0  0  0
   46.5330   31.0990   44.8950 C   0  0  0  0  0  0  0  0  0  0  0  0
   46.8840   30.5840   46.0970 C   0  0  0  0  0  0  0  0  0  0  0  0
   47.4720   29.5030   46.1570 O   0  0  0  0  0  0  0  0  0  0  0  0
   46.5650   31.3010   47.2090 N   0  0  0  0  0  0  0  0  0  0  0  0
   45.9140   32.4860   47.0690 C   0  0  0  0  0  0  0  0  0  0  0  0
   45.6230   33.1660   48.2830 N   0  0  0  0  0  0  0  0  0  0  0  0
   45.5540   33.0160   45.8580 N   0  0  0  0  0  0  0  0  0  0  0  0
   45.8750   32.3000   44.7500 C   0  0  0  0  0  0  0  0  0  0  0  0
   46.9140   30.7900   48.4870 C   0  0  2  0  0  0  0  0  0  0  0  0
   45.7280   30.8480   49.4100 C   0  0  0  0  0  0  0  0  0  0  0  0
   48.1520   31.3870   49.0860 C   0  0  0  0  0  0  0  0  0  0  0  0
   49.0700   30.3170   49.5130 N   0  0  0  0  0  0  0  0  0  0  0  0
   49.4320   29.1760   48.8990 C   0  0  0  0  0  0  0  0  0  0  0  0
   50.3030   28.5080   49.6840 N   0  0  0  0  0  0  0  0  0  0  0  0
   50.4770   29.2620   50.8050 C   0  0  0  0  0  0  0  0  0  0  0  0
   49.7140   30.3570   50.6740 N   0  0  0  0  0  0  0  0  0  0  0  0
   44.5264   36.9847   43.0636 H   0  0  0  0  0  0  0  0  0  0  0  0
   43.2049   36.5261   40.9592 H   0  0  0  0  0  0  0  0  0  0  0  0
   43.0912   34.1429   40.1032 H   0  0  0  0  0  0  0  0  0  0  0  0
   46.1696   31.4064   41.7036 H   0  0  0  0  0  0  0  0  0  0  0  0
   45.1314   34.0708   48.2614 H   0  0  0  0  0  0  0  0  0  0  0  0
   45.9038   32.7539   49.1842 H   0  0  0  0  0  0  0  0  0  0  0  0
   47.1901   29.7358   48.3372 H   0  0  0  0  0  0  0  0  0  0  0  0
   46.0746   30.8311   50.4538 H   0  0  0  0  0  0  0  0  0  0  0  0
   45.1649   31.7748   49.2256 H   0  0  0  0  0  0  0  0  0  0  0  0
   45.0771   29.9806   49.2256 H   0  0  0  0  0  0  0  0  0  0  0  0
   48.6516   32.0184   48.3365 H   0  0  0  0  0  0  0  0  0  0  0  0
   47.8741   31.9950   49.9595 H   0  0  0  0  0  0  0  0  0  0  0  0
   49.0749   28.8410   47.9140 H   0  0  0  0  0  0  0  0  0  0  0  0
   51.1242   29.0177   51.6602 H   0  0  0  0  0  0  0  0  0  0  0  0
  1  6  2  0
  2  1  1  0
  3  2  2  0
  3  4  1  0
  4  5  2  0
  5  6  1  0
  5  7  1  0
  7 17  1  0
  8  7  1  0
  8  9  2  0
  9 10  1  0
 10 11  1  0
 11 12  2  0
 11 13  1  0
 13 18  1  0
 14 13  1  0
 14 15  1  0
 16 14  2  0
 17 10  2  0
 17 16  1  0
 18 20  1  0
 18 19  1  0
 20 21  1  0
 21 25  1  0
 22 21  1  0
 22 23  2  0
 23 24  1  0
 25 24  2  0
  1 26  1  0
  2 27  1  0
  3 28  1  0
  8 29  1  0
 15 30  1  0
 15 31  1  0
 18 32  1  6
 19 33  1  0
 19 34  1  0
 19 35  1  0
 20 36  1  0
 20 37  1  0
 22 38  1  0
 24 39  1  0
M  ISO  8  26  14  27  14  28  14  29  14  32   8  33   8  34   8  35   8
M  ISO  4  36   8  37   8  38  14  39  14
M  END
>  <minimizedAffinity>  (1) 
-5.64727545

>  <minimizedRMSD>  (1) 
1.26882052

$$$$
