
     RDKit          3D

 45 48  0  0  1  0  0  0  0  0999 V2000
   44.2540   35.9340   42.5730 C   0  0  0  0  0  0  0  0  0  0  0  0
   43.5750   35.6270   41.3690 C   0  0  0  0  0  0  0  0  0  0  0  0
   43.6780   34.3210   40.8940 C   0  0  0  0  0  0  0  0  0  0  0  0
   44.4090   33.3990   41.5820 N   0  0  0  0  0  0  0  0  0  0  0  0
   45.0390   33.7160   42.7140 C   0  0  0  0  0  0  0  0  0  0  0  0
   44.9730   34.9910   43.2320 N   0  0  0  0  0  0  0  0  0  0  0  0
   45.7790   32.7010   43.3610 N   0  0  0  0  0  0  0  0  0  0  0  0
   46.4680   31.7170   42.6990 C   0  0  0  0  0  0  0  0  0  0  0  0
   47.0780   30.8960   43.5260 N   0  0  0  0  0  0  0  0  0  0  0  0
   46.8140   31.3100   44.7970 C   0  0  0  0  0  0  0  0  0  0  0  0
   47.1930   30.8270   46.0070 C   0  0  0  0  0  0  0  0  0  0  0  0
   47.9130   29.8250   46.0560 O   0  0  0  0  0  0  0  0  0  0  0  0
   46.7500   31.4850   47.1190 N   0  0  0  0  0  0  0  0  0  0  0  0
   45.9650   32.5740   46.9740 C   0  0  0  0  0  0  0  0  0  0  0  0
   45.5630   33.1890   48.1880 N   0  0  0  0  0  0  0  0  0  0  0  0
   45.5770   33.0690   45.7570 N   0  0  0  0  0  0  0  0  0  0  0  0
   46.0150   32.4180   44.6520 C   0  0  0  0  0  0  0  0  0  0  0  0
   47.1470   30.9860   48.3900 C   0  0  2  0  0  0  0  0  0  0  0  0
   45.9520   30.9510   49.3060 C   0  0  0  0  0  0  0  0  0  0  0  0
   48.3240   31.6910   49.0080 C   0  0  0  0  0  0  0  0  0  0  0  0
   49.0550   30.7310   49.7860 N   0  0  0  0  0  0  0  0  0  0  0  0
   49.4220   29.5350   49.1130 C   0  0  0  0  0  0  0  0  0  0  0  0
   50.7500   29.0770   49.6560 C   0  0  0  0  0  0  0  0  0  0  0  0
   51.2260   30.1730   50.5540 C   0  0  0  0  0  0  0  0  0  0  0  0
   50.1750   31.2540   50.4890 C   0  0  0  0  0  0  0  0  0  0  0  0
   44.1976   36.9541   42.9808 H   0  0  0  0  0  0  0  0  0  0  0  0
   42.9905   36.3878   40.8310 H   0  0  0  0  0  0  0  0  0  0  0  0
   43.1686   34.0337   39.9624 H   0  0  0  0  0  0  0  0  0  0  0  0
   46.5060   31.6251   41.6035 H   0  0  0  0  0  0  0  0  0  0  0  0
   44.9627   34.0257   48.1673 H   0  0  0  0  0  0  0  0  0  0  0  0
   45.8715   32.7987   49.0899 H   0  0  0  0  0  0  0  0  0  0  0  0
   47.5199   29.9637   48.2294 H   0  0  0  0  0  0  0  0  0  0  0  0
   46.2916   30.9609   50.3522 H   0  0  0  0  0  0  0  0  0  0  0  0
   45.3195   31.8310   49.1174 H   0  0  0  0  0  0  0  0  0  0  0  0
   45.3721   30.0355   49.1174 H   0  0  0  0  0  0  0  0  0  0  0  0
   48.9702   32.1020   48.2184 H   0  0  0  0  0  0  0  0  0  0  0  0
   47.9826   32.5202   49.6451 H   0  0  0  0  0  0  0  0  0  0  0  0
   49.5075   29.7267   48.0332 H   0  0  0  0  0  0  0  0  0  0  0  0
   48.6585   28.7596   49.2734 H   0  0  0  0  0  0  0  0  0  0  0  0
   50.6294   28.1426   50.2237 H   0  0  0  0  0  0  0  0  0  0  0  0
   51.4689   28.8763   48.8480 H   0  0  0  0  0  0  0  0  0  0  0  0
   51.3304   29.8036   51.5849 H   0  0  0  0  0  0  0  0  0  0  0  0
   52.2104   30.5504   50.2402 H   0  0  0  0  0  0  0  0  0  0  0  0
   50.5732   32.1314   49.9584 H   0  0  0  0  0  0  0  0  0  0  0  0
   49.8810   31.5649   51.5024 H   0  0  0  0  0  0  0  0  0  0  0  0
  1  6  2  0
  2  1  1  0
  3  2  2  0
  3  4  1  0
  4  5  2  0
  5  6  1  0
  5  7  1  0
  7 17  1  0
  8  7  1  0
  8  9  2  0
  9 10  1  0
 10 11  1  0
 11 12  2  0
 11 13  1  0
 13 18  1  0
 14 13  1  0
 14 15  1  0
 16 14  2  0
 17 10  2  0
 17 16  1  0
 18 20  1  0
 18 19  1  0
 20 21  1  0
 21 25  1  0
 22 23  1  0
 22 21  1  0
 23 24  1  0
 25 24  1  0
  1 26  1  0
  2 27  1  0
  3 28  1  0
  8 29  1  0
 15 30  1  0
 15 31  1  0
 18 32  1  6
 19 33  1  0
 19 34  1  0
 19 35  1  0
 20 36  1  0
 20 37  1  0
 22 38  1  0
 22 39  1  0
 23 40  1  0
 23 41  1  0
 24 42  1  0
 24 43  1  0
 25 44  1  0
 25 45  1  0
M  ISO  8  26  14  27  14  28  14  29  14  32   8  33   8  34   8  35   8
M  ISO  8  36   8  37   8  38  13  39  13  40  13  41  13  42  13  43  13
M  ISO  2  44  13  45  13
M  END
>  <minimizedAffinity>  (1) 
-5.60588741

>  <minimizedRMSD>  (1) 
0.892992556

$$$$
