
     RDKit          3D

 43 46  0  0  1  0  0  0  0  0999 V2000
   44.4680   35.9580   42.6030 C   0  0  0  0  0  0  0  0  0  0  0  0
   43.7540   35.7150   41.3980 C   0  0  0  0  0  0  0  0  0  0  0  0
   43.6970   34.4090   40.9400 C   0  0  0  0  0  0  0  0  0  0  0  0
   44.3190   33.4310   41.6560 N   0  0  0  0  0  0  0  0  0  0  0  0
   44.9830   33.6640   42.7780 C   0  0  0  0  0  0  0  0  0  0  0  0
   45.0630   34.9390   43.2640 N   0  0  0  0  0  0  0  0  0  0  0  0
   45.5930   32.5860   43.4460 N   0  0  0  0  0  0  0  0  0  0  0  0
   46.1380   31.5070   42.7990 C   0  0  0  0  0  0  0  0  0  0  0  0
   46.6510   30.6280   43.6370 N   0  0  0  0  0  0  0  0  0  0  0  0
   46.4570   31.1070   44.9050 C   0  0  0  0  0  0  0  0  0  0  0  0
   46.7820   30.6130   46.1110 C   0  0  0  0  0  0  0  0  0  0  0  0
   47.3740   29.5170   46.2060 O   0  0  0  0  0  0  0  0  0  0  0  0
   46.4610   31.3140   47.2090 N   0  0  0  0  0  0  0  0  0  0  0  0
   45.8160   32.5040   47.0520 C   0  0  0  0  0  0  0  0  0  0  0  0
   45.5000   33.2090   48.2490 N   0  0  0  0  0  0  0  0  0  0  0  0
   45.4710   33.0380   45.8410 N   0  0  0  0  0  0  0  0  0  0  0  0
   45.8120   32.2970   44.7360 C   0  0  0  0  0  0  0  0  0  0  0  0
   46.7900   30.8240   48.5190 C   0  0  2  0  0  0  0  0  0  0  0  0
   45.5920   30.9090   49.4210 C   0  0  0  0  0  0  0  0  0  0  0  0
   48.0260   31.4380   49.1060 C   0  0  0  0  0  0  0  0  0  0  0  0
   48.7120   30.4320   49.8920 N   0  0  0  0  0  0  0  0  0  0  0  0
   49.9570   31.0000   50.3410 C   0  0  0  0  0  0  0  0  0  0  0  0
   50.4890   32.1730   49.8400 C   0  0  0  0  0  0  0  0  0  0  0  0
   51.6780   32.6270   50.3360 C   0  0  0  0  0  0  0  0  0  0  0  0
   52.3190   31.9360   51.3020 N   0  0  0  0  0  0  0  0  0  0  0  0
   51.7970   30.7930   51.7890 C   0  0  0  0  0  0  0  0  0  0  0  0
   50.6130   30.3100   51.3170 N   0  0  0  0  0  0  0  0  0  0  0  0
   44.5370   36.9814   43.0004 H   0  0  0  0  0  0  0  0  0  0  0  0
   43.2650   36.5337   40.8497 H   0  0  0  0  0  0  0  0  0  0  0  0
   43.1579   34.1653   40.0126 H   0  0  0  0  0  0  0  0  0  0  0  0
   46.1463   31.3883   41.7055 H   0  0  0  0  0  0  0  0  0  0  0  0
   45.0125   34.1150   48.1997 H   0  0  0  0  0  0  0  0  0  0  0  0
   45.7590   32.8127   49.1637 H   0  0  0  0  0  0  0  0  0  0  0  0
   47.0564   29.7620   48.4135 H   0  0  0  0  0  0  0  0  0  0  0  0
   45.9208   30.8857   50.4705 H   0  0  0  0  0  0  0  0  0  0  0  0
   45.0525   31.8477   49.2266 H   0  0  0  0  0  0  0  0  0  0  0  0
   44.9254   30.0559   49.2266 H   0  0  0  0  0  0  0  0  0  0  0  0
   48.6845   31.7902   48.2984 H   0  0  0  0  0  0  0  0  0  0  0  0
   47.7554   32.2932   49.7428 H   0  0  0  0  0  0  0  0  0  0  0  0
   48.3704   29.4814   50.0934 H   0  0  0  0  0  0  0  0  0  0  0  0
   49.9625   32.7330   49.0531 H   0  0  0  0  0  0  0  0  0  0  0  0
   52.1144   33.5587   49.9469 H   0  0  0  0  0  0  0  0  0  0  0  0
   52.3328   30.2432   52.5768 H   0  0  0  0  0  0  0  0  0  0  0  0
  1  6  2  0
  2  1  1  0
  3  2  2  0
  3  4  1  0
  4  5  2  0
  5  6  1  0
  5  7  1  0
  7 17  1  0
  8  7  1  0
  8  9  2  0
  9 10  1  0
 10 11  1  0
 11 12  2  0
 11 13  1  0
 13 18  1  0
 14 13  1  0
 14 15  1  0
 16 14  2  0
 17 10  2  0
 17 16  1  0
 18 20  1  0
 18 19  1  0
 20 21  1  0
 21 22  1  0
 22 27  2  0
 23 24  2  0
 23 22  1  0
 24 25  1  0
 25 26  2  0
 27 26  1  0
  1 28  1  0
  2 29  1  0
  3 30  1  0
  8 31  1  0
 15 32  1  0
 15 33  1  0
 18 34  1  6
 19 35  1  0
 19 36  1  0
 19 37  1  0
 20 38  1  0
 20 39  1  0
 21 40  1  0
 23 41  1  0
 24 42  1  0
 26 43  1  0
M  ISO  8  28  14  29  14  30  14  31  14  34   8  35   8  36   8  37   8
M  ISO  5  38   8  39   8  41  14  42  14  43  14
M  END
>  <minimizedAffinity>  (1) 
-6.31963062

>  <minimizedRMSD>  (1) 
0.149252772

$$$$
