
     RDKit          3D

 42 45  0  0  1  0  0  0  0  0999 V2000
   44.7500   36.0920   42.8250 C   0  0  0  0  0  0  0  0  0  0  0  0
   44.0490   35.9160   41.6160 C   0  0  0  0  0  0  0  0  0  0  0  0
   43.9250   34.6180   41.1090 C   0  0  0  0  0  0  0  0  0  0  0  0
   44.4890   33.5970   41.8120 N   0  0  0  0  0  0  0  0  0  0  0  0
   45.1520   33.7820   42.9570 C   0  0  0  0  0  0  0  0  0  0  0  0
   45.2840   35.0310   43.4660 N   0  0  0  0  0  0  0  0  0  0  0  0
   45.6960   32.6450   43.5970 N   0  0  0  0  0  0  0  0  0  0  0  0
   46.1860   31.5510   42.9290 C   0  0  0  0  0  0  0  0  0  0  0  0
   46.6330   30.6330   43.7530 N   0  0  0  0  0  0  0  0  0  0  0  0
   46.4520   31.0970   45.0320 C   0  0  0  0  0  0  0  0  0  0  0  0
   46.7370   30.5500   46.2260 C   0  0  0  0  0  0  0  0  0  0  0  0
   47.2630   29.4190   46.3040 O   0  0  0  0  0  0  0  0  0  0  0  0
   46.4430   31.2460   47.3370 N   0  0  0  0  0  0  0  0  0  0  0  0
   45.8710   32.4720   47.2040 C   0  0  0  0  0  0  0  0  0  0  0  0
   45.5800   33.1730   48.4160 N   0  0  0  0  0  0  0  0  0  0  0  0
   45.5690   33.0540   45.9950 N   0  0  0  0  0  0  0  0  0  0  0  0
   45.8770   32.3280   44.8860 C   0  0  0  0  0  0  0  0  0  0  0  0
   46.7250   30.7100   48.6420 C   0  0  2  0  0  0  0  0  0  0  0  0
   45.5020   30.8370   49.5230 C   0  0  0  0  0  0  0  0  0  0  0  0
   47.9790   31.2310   49.2590 C   0  0  0  0  0  0  0  0  0  0  0  0
   48.7780   30.0880   49.6810 N   0  0  0  0  0  0  0  0  0  0  0  0
   49.8310   30.2640   50.6230 C   0  0  0  0  0  0  0  0  0  0  0  0
   50.5580   29.3060   51.2830 C   0  0  0  0  0  0  0  0  0  0  0  0
   51.4780   29.8930   52.1020 N   0  0  0  0  0  0  0  0  0  0  0  0
   51.3160   31.2310   51.9430 C   0  0  0  0  0  0  0  0  0  0  0  0
   50.3170   31.4620   51.0460 N   0  0  0  0  0  0  0  0  0  0  0  0
   44.8630   37.1005   43.2494 H   0  0  0  0  0  0  0  0  0  0  0  0
   43.6115   36.7747   41.0856 H   0  0  0  0  0  0  0  0  0  0  0  0
   43.3869   34.4274   40.1687 H   0  0  0  0  0  0  0  0  0  0  0  0
   46.2021   31.4551   41.8333 H   0  0  0  0  0  0  0  0  0  0  0  0
   45.1463   34.1065   48.3796 H   0  0  0  0  0  0  0  0  0  0  0  0
   45.8041   32.7444   49.3254 H   0  0  0  0  0  0  0  0  0  0  0  0
   46.9428   29.6383   48.5236 H   0  0  0  0  0  0  0  0  0  0  0  0
   45.8063   30.8054   50.5796 H   0  0  0  0  0  0  0  0  0  0  0  0
   44.9979   31.7923   49.3150 H   0  0  0  0  0  0  0  0  0  0  0  0
   44.8124   30.0056   49.3150 H   0  0  0  0  0  0  0  0  0  0  0  0
   48.5384   31.8268   48.5228 H   0  0  0  0  0  0  0  0  0  0  0  0
   47.7443   31.8738   50.1202 H   0  0  0  0  0  0  0  0  0  0  0  0
   48.5810   29.1525   49.2978 H   0  0  0  0  0  0  0  0  0  0  0  0
   50.4192   28.2208   51.1684 H   0  0  0  0  0  0  0  0  0  0  0  0
   51.9002   32.0078   52.4581 H   0  0  0  0  0  0  0  0  0  0  0  0
   49.9855   32.3879   50.7397 H   0  0  0  0  0  0  0  0  0  0  0  0
  1  6  2  0
  2  1  1  0
  3  2  2  0
  3  4  1  0
  4  5  2  0
  5  6  1  0
  5  7  1  0
  7 17  1  0
  8  7  1  0
  8  9  2  0
  9 10  1  0
 10 11  1  0
 11 12  2  0
 11 13  1  0
 13 18  1  0
 14 13  1  0
 14 15  1  0
 16 14  2  0
 17 10  2  0
 17 16  1  0
 18 20  1  0
 18 19  1  0
 20 21  1  0
 21 22  1  0
 22 26  1  0
 22 23  2  0
 23 24  1  0
 25 24  2  0
 26 25  1  0
  1 27  1  0
  2 28  1  0
  3 29  1  0
  8 30  1  0
 15 31  1  0
 15 32  1  0
 18 33  1  6
 19 34  1  0
 19 35  1  0
 19 36  1  0
 20 37  1  0
 20 38  1  0
 21 39  1  0
 23 40  1  0
 25 41  1  0
 26 42  1  0
M  ISO  8  27  14  28  14  29  14  30  14  33   8  34   8  35   8  36   8
M  ISO  5  37   8  38   8  40  14  41  14  42   9
M  END
>  <minimizedAffinity>  (1) 
-6.22779036

>  <minimizedRMSD>  (1) 
0.380513132

$$$$
