
     RDKit          3D

 34 37  0  0  1  0  0  0  0  0999 V2000
   46.8930   34.2580   42.2810 C   0  0  1  0  0  0  0  0  0  0  0  0
   46.2350   34.5000   40.9760 C   0  0  1  0  0  0  0  0  0  0  0  0
   47.3780   34.1730   40.0360 C   0  0  0  0  0  0  0  0  0  0  0  0
   48.5200   34.9340   40.7100 C   0  0  0  0  0  0  0  0  0  0  0  0
   48.1500   35.1050   42.1610 C   0  0  0  0  0  0  0  0  0  0  0  0
   45.0670   33.6920   40.7410 N   0  0  0  0  0  0  0  0  0  0  0  0
   45.1120   32.3470   40.7450 C   0  0  0  0  0  0  0  0  0  0  0  0
   43.8990   31.8580   40.5030 N   0  0  0  0  0  0  0  0  0  0  0  0
   43.0300   32.8540   40.3340 C   0  0  0  0  0  0  0  0  0  0  0  0
   41.6750   32.8830   40.0660 C   0  0  0  0  0  0  0  0  0  0  0  0
   41.1300   34.1230   39.9630 N   0  0  0  0  0  0  0  0  0  0  0  0
   41.8790   35.2370   40.1160 C   0  0  0  0  0  0  0  0  0  0  0  0
   43.2140   35.2030   40.3800 N   0  0  0  0  0  0  0  0  0  0  0  0
   43.7770   34.0020   40.4870 C   0  0  0  0  0  0  0  0  0  0  0  0
   44.5350   35.9310   44.7160 C   0  0  0  0  0  0  0  0  0  0  0  0
   45.2690   35.6850   43.5370 C   0  0  0  0  0  0  0  0  0  0  0  0
   46.1120   34.5560   43.4750 C   0  0  0  0  0  0  0  0  0  0  0  0
   46.1700   33.7640   44.5600 N   0  0  0  0  0  0  0  0  0  0  0  0
   45.4580   34.0120   45.6890 C   0  0  0  0  0  0  0  0  0  0  0  0
   44.6410   35.1010   45.7570 N   0  0  0  0  0  0  0  0  0  0  0  0
   47.0709   33.1848   42.4442 H   0  0  0  0  0  0  0  0  0  0  0  0
   45.8183   35.5126   40.8711 H   0  0  0  0  0  0  0  0  0  0  0  0
   47.1865   34.5455   39.0189 H   0  0  0  0  0  0  0  0  0  0  0  0
   47.5633   33.0977   39.8966 H   0  0  0  0  0  0  0  0  0  0  0  0
   49.4555   34.3616   40.6250 H   0  0  0  0  0  0  0  0  0  0  0  0
   48.6734   35.9115   40.2295 H   0  0  0  0  0  0  0  0  0  0  0  0
   48.9463   34.7308   42.8212 H   0  0  0  0  0  0  0  0  0  0  0  0
   48.0019   36.1545   42.4555 H   0  0  0  0  0  0  0  0  0  0  0  0
   46.0147   31.7438   40.9216 H   0  0  0  0  0  0  0  0  0  0  0  0
   41.0793   31.9663   39.9445 H   0  0  0  0  0  0  0  0  0  0  0  0
   41.3874   36.2166   40.0229 H   0  0  0  0  0  0  0  0  0  0  0  0
   43.8740   36.8081   44.7783 H   0  0  0  0  0  0  0  0  0  0  0  0
   45.1850   36.3652   42.6766 H   0  0  0  0  0  0  0  0  0  0  0  0
   45.5406   33.3329   46.5504 H   0  0  0  0  0  0  0  0  0  0  0  0
  1 17  1  0
  2  1  1  0
  3  4  1  0
  3  2  1  0
  4  5  1  0
  5  1  1  0
  6  7  1  0
  6  2  1  0
  8  7  2  0
  9 14  2  0
  9  8  1  0
 10  9  1  0
 11 10  2  0
 11 12  1  0
 12 13  2  0
 13 14  1  0
 14  6  1  0
 15 20  2  0
 16 15  1  0
 17 16  2  0
 17 18  1  0
 18 19  2  0
 19 20  1  0
  1 21  1  1
  2 22  1  1
  3 23  1  0
  3 24  1  0
  4 25  1  0
  4 26  1  0
  5 27  1  0
  5 28  1  0
  7 29  1  0
 10 30  1  0
 12 31  1  0
 15 32  1  0
 16 33  1  0
 19 34  1  0
M  ISO  8  21  13  22  13  23  13  24  13  25  13  26  13  27  13  28  13
M  ISO  6  29  14  30  14  31  14  32  14  33  14  34  14
M  END
>  <minimizedAffinity>  (1) 
-5.78979588

>  <minimizedRMSD>  (1) 
1.67520988

$$$$
