
     RDKit          3D

 34 36  0  0  1  0  0  0  0  0999 V2000
   46.8250   34.2510   42.2540 C   0  0  1  0  0  0  0  0  0  0  0  0
   46.1240   34.4030   40.9610 C   0  0  1  0  0  0  0  0  0  0  0  0
   47.2480   34.1540   39.9830 C   0  0  0  0  0  0  0  0  0  0  0  0
   48.3910   34.9130   40.6150 C   0  0  0  0  0  0  0  0  0  0  0  0
   48.0330   35.1540   42.0580 C   0  0  0  0  0  0  0  0  0  0  0  0
   44.9720   33.5860   40.7580 N   0  0  0  0  0  0  0  0  0  0  0  0
   45.1290   32.2310   40.7690 C   0  0  0  0  0  0  0  0  0  0  0  0
   44.0370   31.3830   40.5750 C   0  0  0  0  0  0  0  0  0  0  0  0
   42.8450   32.0400   40.3820 C   0  0  0  0  0  0  0  0  0  0  0  0
   41.6860   31.2270   40.1770 N   0  0  0  0  0  0  0  0  0  0  0  0
   42.7000   33.3750   40.3720 N   0  0  0  0  0  0  0  0  0  0  0  0
   43.7940   34.1620   40.5660 C   0  0  0  0  0  0  0  0  0  0  0  0
   43.5800   35.3820   40.5440 O   0  0  0  0  0  0  0  0  0  0  0  0
   44.5590   36.0450   44.7020 C   0  0  0  0  0  0  0  0  0  0  0  0
   45.2750   35.7680   43.5260 C   0  0  0  0  0  0  0  0  0  0  0  0
   46.0460   34.6090   43.4420 C   0  0  0  0  0  0  0  0  0  0  0  0
   46.0540   33.8080   44.5250 N   0  0  0  0  0  0  0  0  0  0  0  0
   45.3680   34.0710   45.6570 C   0  0  0  0  0  0  0  0  0  0  0  0
   44.6240   35.1890   45.7390 N   0  0  0  0  0  0  0  0  0  0  0  0
   47.0616   33.1985   42.4692 H   0  0  0  0  0  0  0  0  0  0  0  0
   45.6428   35.3872   40.8617 H   0  0  0  0  0  0  0  0  0  0  0  0
   47.0062   34.5529   38.9868 H   0  0  0  0  0  0  0  0  0  0  0  0
   47.4625   33.0879   39.8172 H   0  0  0  0  0  0  0  0  0  0  0  0
   49.3156   34.3205   40.5516 H   0  0  0  0  0  0  0  0  0  0  0  0
   48.5575   35.8669   40.0931 H   0  0  0  0  0  0  0  0  0  0  0  0
   48.8579   34.8646   42.7257 H   0  0  0  0  0  0  0  0  0  0  0  0
   47.8321   36.2106   42.2889 H   0  0  0  0  0  0  0  0  0  0  0  0
   46.1282   31.8012   40.9327 H   0  0  0  0  0  0  0  0  0  0  0  0
   44.1228   30.2864   40.5765 H   0  0  0  0  0  0  0  0  0  0  0  0
   40.7674   31.6682   40.0275 H   0  0  0  0  0  0  0  0  0  0  0  0
   41.7701   30.2004   40.1789 H   0  0  0  0  0  0  0  0  0  0  0  0
   43.9481   36.9568   44.7754 H   0  0  0  0  0  0  0  0  0  0  0  0
   45.2278   36.4626   42.6744 H   0  0  0  0  0  0  0  0  0  0  0  0
   45.4168   33.3754   46.5077 H   0  0  0  0  0  0  0  0  0  0  0  0
  1 16  1  0
  2  1  1  0
  3  4  1  0
  3  2  1  0
  4  5  1  0
  5  1  1  0
  6  7  1  0
  6  2  1  0
  8  7  2  0
  9  8  1  0
 10  9  1  0
 11  9  2  0
 11 12  1  0
 12  6  1  0
 13 12  2  0
 14 19  2  0
 15 14  1  0
 16 15  2  0
 16 17  1  0
 17 18  2  0
 18 19  1  0
  1 20  1  1
  2 21  1  6
  3 22  1  0
  3 23  1  0
  4 24  1  0
  4 25  1  0
  5 26  1  0
  5 27  1  0
  7 28  1  0
  8 29  1  0
 10 30  1  0
 10 31  1  0
 14 32  1  0
 15 33  1  0
 18 34  1  0
M  ISO  8  20  13  21  13  22  13  23  13  24  13  25  13  26  13  27  13
M  ISO  5  28  14  29  14  32  14  33  14  34  14
M  END
>  <minimizedAffinity>  (1) 
-5.32446766

>  <minimizedRMSD>  (1) 
1.14885986

$$$$
