
     RDKit          3D

 33 35  0  0  1  0  0  0  0  0999 V2000
   46.9070   34.2450   42.3280 C   0  0  1  0  0  0  0  0  0  0  0  0
   46.2940   34.5760   41.0240 C   0  0  1  0  0  0  0  0  0  0  0  0
   47.4660   34.2830   40.0920 C   0  0  0  0  0  0  0  0  0  0  0  0
   48.6070   34.9690   40.8410 C   0  0  0  0  0  0  0  0  0  0  0  0
   48.2350   34.9740   42.3060 C   0  0  0  0  0  0  0  0  0  0  0  0
   44.5330   35.9100   44.7530 C   0  0  0  0  0  0  0  0  0  0  0  0
   45.2560   35.6990   43.5600 C   0  0  0  0  0  0  0  0  0  0  0  0
   46.1050   34.5720   43.5090 C   0  0  0  0  0  0  0  0  0  0  0  0
   46.1560   33.7840   44.6100 N   0  0  0  0  0  0  0  0  0  0  0  0
   45.4480   34.0190   45.7320 C   0  0  0  0  0  0  0  0  0  0  0  0
   44.6290   35.0960   45.7960 N   0  0  0  0  0  0  0  0  0  0  0  0
   45.1760   33.6660   40.6460 C   0  0  0  0  0  0  0  0  0  0  0  0
   45.3040   32.2950   40.5760 C   0  0  0  0  0  0  0  0  0  0  0  0
   44.2450   31.4760   40.2210 C   0  0  0  0  0  0  0  0  0  0  0  0
   43.0240   32.0500   39.9310 C   0  0  0  0  0  0  0  0  0  0  0  0
   42.8210   33.4250   39.9820 C   0  0  0  0  0  0  0  0  0  0  0  0
   43.9210   34.1720   40.3420 C   0  0  0  0  0  0  0  0  0  0  0  0
   47.0077   33.1547   42.4339 H   0  0  0  0  0  0  0  0  0  0  0  0
   45.8669   35.5896   41.0067 H   0  0  0  0  0  0  0  0  0  0  0  0
   47.3118   34.7251   39.0966 H   0  0  0  0  0  0  0  0  0  0  0  0
   47.6313   33.2143   39.8909 H   0  0  0  0  0  0  0  0  0  0  0  0
   49.5447   34.4137   40.6914 H   0  0  0  0  0  0  0  0  0  0  0  0
   48.7586   35.9939   40.4713 H   0  0  0  0  0  0  0  0  0  0  0  0
   48.9875   34.4412   42.9059 H   0  0  0  0  0  0  0  0  0  0  0  0
   48.1789   35.9860   42.7336 H   0  0  0  0  0  0  0  0  0  0  0  0
   43.8652   36.7815   44.8207 H   0  0  0  0  0  0  0  0  0  0  0  0
   45.1621   36.3843   42.7047 H   0  0  0  0  0  0  0  0  0  0  0  0
   45.5347   33.3391   46.5924 H   0  0  0  0  0  0  0  0  0  0  0  0
   46.2769   31.8377   40.8092 H   0  0  0  0  0  0  0  0  0  0  0  0
   44.3752   30.3849   40.1710 H   0  0  0  0  0  0  0  0  0  0  0  0
   42.1834   31.3984   39.6502 H   0  0  0  0  0  0  0  0  0  0  0  0
   41.8487   33.8845   39.7507 H   0  0  0  0  0  0  0  0  0  0  0  0
   43.7930   35.2634   40.3927 H   0  0  0  0  0  0  0  0  0  0  0  0
  1  8  1  0
  2  1  1  0
  3  4  1  0
  3  2  1  0
  4  5  1  0
  5  1  1  0
  6 11  2  0
  7  6  1  0
  8  7  2  0
  8  9  1  0
  9 10  2  0
 10 11  1  0
 12  2  1  0
 13 12  2  0
 14 13  1  0
 15 16  1  0
 15 14  2  0
 16 17  2  0
 17 12  1  0
  1 18  1  6
  2 19  1  1
  3 20  1  0
  3 21  1  0
  4 22  1  0
  4 23  1  0
  5 24  1  0
  5 25  1  0
  6 26  1  0
  7 27  1  0
 10 28  1  0
 13 29  1  0
 14 30  1  0
 15 31  1  0
 16 32  1  0
 17 33  1  0
M  ISO  8  18  13  19  13  20  13  21  13  22  13  23  13  24  13  25  13
M  ISO  8  26  14  27  14  28  14  29  14  30  14  31  14  32  14  33  14
M  END
>  <minimizedAffinity>  (1) 
-5.07441807

>  <minimizedRMSD>  (1) 
1.06845295

$$$$
