
     RDKit          3D

 36 38  0  0  1  0  0  0  0  0999 V2000
   46.8560   34.2660   42.2970 C   0  0  1  0  0  0  0  0  0  0  0  0
   46.1520   34.4380   41.0050 C   0  0  1  0  0  0  0  0  0  0  0  0
   47.3100   34.1380   40.0520 C   0  0  0  0  0  0  0  0  0  0  0  0
   48.4080   34.9740   40.6670 C   0  0  0  0  0  0  0  0  0  0  0  0
   48.0850   35.1390   42.1280 C   0  0  0  0  0  0  0  0  0  0  0  0
   44.5360   35.9550   44.7550 C   0  0  0  0  0  0  0  0  0  0  0  0
   45.2670   35.6840   43.5910 C   0  0  0  0  0  0  0  0  0  0  0  0
   46.0890   34.5670   43.4990 C   0  0  0  0  0  0  0  0  0  0  0  0
   46.1490   33.7620   44.5790 N   0  0  0  0  0  0  0  0  0  0  0  0
   45.4410   34.0200   45.7140 C   0  0  0  0  0  0  0  0  0  0  0  0
   44.6360   35.1210   45.7930 N   0  0  0  0  0  0  0  0  0  0  0  0
   45.0040   33.6870   40.7900 N   0  0  0  0  0  0  0  0  0  0  0  0
   43.8210   34.3850   40.4400 C   0  0  0  0  0  0  0  0  0  0  0  0
   42.5710   33.6090   40.4650 C   0  0  0  0  0  0  0  0  0  0  0  0
   42.7430   32.2340   40.5910 O   0  0  0  0  0  0  0  0  0  0  0  0
   43.8360   31.8100   39.8410 C   0  0  0  0  0  0  0  0  0  0  0  0
   45.0680   32.3100   40.5600 C   0  0  0  0  0  0  0  0  0  0  0  0
   47.0819   33.2059   42.4844 H   0  0  0  0  0  0  0  0  0  0  0  0
   45.6820   35.4265   40.8958 H   0  0  0  0  0  0  0  0  0  0  0  0
   47.0829   34.4604   39.0251 H   0  0  0  0  0  0  0  0  0  0  0  0
   47.5527   33.0697   39.9530 H   0  0  0  0  0  0  0  0  0  0  0  0
   49.3767   34.4659   40.5514 H   0  0  0  0  0  0  0  0  0  0  0  0
   48.4736   35.9537   40.1711 H   0  0  0  0  0  0  0  0  0  0  0  0
   48.9130   34.7853   42.7599 H   0  0  0  0  0  0  0  0  0  0  0  0
   47.9216   36.1858   42.4240 H   0  0  0  0  0  0  0  0  0  0  0  0
   43.8887   36.8425   44.8130 H   0  0  0  0  0  0  0  0  0  0  0  0
   45.1889   36.3684   42.7334 H   0  0  0  0  0  0  0  0  0  0  0  0
   45.5180   33.3370   46.5728 H   0  0  0  0  0  0  0  0  0  0  0  0
   43.9522   34.7752   39.4199 H   0  0  0  0  0  0  0  0  0  0  0  0
   43.6995   35.1590   41.2121 H   0  0  0  0  0  0  0  0  0  0  0  0
   41.9678   33.9583   41.3159 H   0  0  0  0  0  0  0  0  0  0  0  0
   42.0836   33.7735   39.4927 H   0  0  0  0  0  0  0  0  0  0  0  0
   43.7890   32.2341   38.8271 H   0  0  0  0  0  0  0  0  0  0  0  0
   43.8499   30.7146   39.7414 H   0  0  0  0  0  0  0  0  0  0  0  0
   45.1539   31.7901   41.5255 H   0  0  0  0  0  0  0  0  0  0  0  0
   45.9436   32.1066   39.9261 H   0  0  0  0  0  0  0  0  0  0  0  0
  1  8  1  0
  2  1  1  0
  3  4  1  0
  3  2  1  0
  4  5  1  0
  5  1  1  0
  6 11  2  0
  7  6  1  0
  8  7  2  0
  8  9  1  0
  9 10  2  0
 10 11  1  0
 12  2  1  0
 13 14  1  0
 13 12  1  0
 14 15  1  0
 16 17  1  0
 16 15  1  0
 17 12  1  0
  1 18  1  1
  2 19  1  6
  3 20  1  0
  3 21  1  0
  4 22  1  0
  4 23  1  0
  5 24  1  0
  5 25  1  0
  6 26  1  0
  7 27  1  0
 10 28  1  0
 13 29  1  0
 13 30  1  0
 14 31  1  0
 14 32  1  0
 16 33  1  0
 16 34  1  0
 17 35  1  0
 17 36  1  0
M  ISO  8  18  13  19  13  20  13  21  13  22  13  23  13  24  13  25  13
M  ISO  8  26  14  27  14  28  14  29  13  30  13  31  13  32  13  33  13
M  ISO  3  34  13  35  13  36  13
M  END
>  <minimizedAffinity>  (1) 
-5.04420424

>  <minimizedRMSD>  (1) 
1.08454061

$$$$
