
     RDKit          3D

 30 32  0  0  1  0  0  0  0  0999 V2000
   46.9250   34.2680   42.2630 C   0  0  1  0  0  0  0  0  0  0  0  0
   46.2360   34.4420   40.9660 C   0  0  1  0  0  0  0  0  0  0  0  0
   47.4200   34.1810   40.0250 C   0  0  0  0  0  0  0  0  0  0  0  0
   48.5010   35.0180   40.6650 C   0  0  0  0  0  0  0  0  0  0  0  0
   48.1530   35.1520   42.1260 C   0  0  0  0  0  0  0  0  0  0  0  0
   44.5420   35.9080   44.7050 C   0  0  0  0  0  0  0  0  0  0  0  0
   45.2800   35.6690   43.5270 C   0  0  0  0  0  0  0  0  0  0  0  0
   46.1340   34.5580   43.4640 C   0  0  0  0  0  0  0  0  0  0  0  0
   46.2090   33.7640   44.5510 N   0  0  0  0  0  0  0  0  0  0  0  0
   45.4970   34.0010   45.6750 C   0  0  0  0  0  0  0  0  0  0  0  0
   44.6680   35.0680   45.7500 N   0  0  0  0  0  0  0  0  0  0  0  0
   45.1530   33.5530   40.6930 N   0  0  0  0  0  0  0  0  0  0  0  0
   45.0670   32.2320   40.7390 C   0  0  0  0  0  0  0  0  0  0  0  0
   43.8010   31.8070   40.3870 C   0  0  0  0  0  0  0  0  0  0  0  0
   43.1300   32.9470   40.1260 N   0  0  0  0  0  0  0  0  0  0  0  0
   43.9270   34.0080   40.3050 C   0  0  0  0  0  0  0  0  0  0  0  0
   47.1576   33.2073   42.4386 H   0  0  0  0  0  0  0  0  0  0  0  0
   45.7254   35.4132   40.8885 H   0  0  0  0  0  0  0  0  0  0  0  0
   47.2023   34.5197   39.0013 H   0  0  0  0  0  0  0  0  0  0  0  0
   47.6808   33.1180   39.9154 H   0  0  0  0  0  0  0  0  0  0  0  0
   49.4769   34.5228   40.5537 H   0  0  0  0  0  0  0  0  0  0  0  0
   48.5654   36.0062   40.1861 H   0  0  0  0  0  0  0  0  0  0  0  0
   48.9738   34.7913   42.7633 H   0  0  0  0  0  0  0  0  0  0  0  0
   47.9773   36.1922   42.4378 H   0  0  0  0  0  0  0  0  0  0  0  0
   43.8679   36.7749   44.7697 H   0  0  0  0  0  0  0  0  0  0  0  0
   45.1868   36.3473   42.6660 H   0  0  0  0  0  0  0  0  0  0  0  0
   45.5920   33.3218   46.5350 H   0  0  0  0  0  0  0  0  0  0  0  0
   45.8936   31.5628   41.0200 H   0  0  0  0  0  0  0  0  0  0  0  0
   43.4258   30.7744   40.3321 H   0  0  0  0  0  0  0  0  0  0  0  0
   43.6430   35.0613   40.1640 H   0  0  0  0  0  0  0  0  0  0  0  0
  1  8  1  0
  2  1  1  0
  3  4  1  0
  3  2  1  0
  4  5  1  0
  5  1  1  0
  6 11  2  0
  7  6  1  0
  8  7  2  0
  8  9  1  0
  9 10  2  0
 10 11  1  0
 12 13  1  0
 12  2  1  0
 14 13  2  0
 15 16  2  0
 15 14  1  0
 16 12  1  0
  1 17  1  1
  2 18  1  1
  3 19  1  0
  3 20  1  0
  4 21  1  0
  4 22  1  0
  5 23  1  0
  5 24  1  0
  6 25  1  0
  7 26  1  0
 10 27  1  0
 13 28  1  0
 14 29  1  0
 16 30  1  0
M  ISO  8  17  13  18  13  19  13  20  13  21  13  22  13  23  13  24  13
M  ISO  6  25  14  26  14  27  14  28  14  29  14  30  14
M  END
>  <minimizedAffinity>  (1) 
-4.86124659

>  <minimizedRMSD>  (1) 
0.693183601

$$$$
