
     RDKit          3D

 46 48  0  0  1  0  0  0  0  0999 V2000
   47.1050   34.6030   43.0850 N   0  0  0  0  0  0  0  0  0  0  0  0
   47.9290   35.2820   42.1480 C   0  0  0  0  0  0  0  0  0  0  0  0
   49.2620   34.6610   41.9300 C   0  0  0  0  0  0  0  0  0  0  0  0
   49.3430   33.1900   42.0490 C   0  0  0  0  0  0  0  0  0  0  0  0
   48.1760   32.5350   42.7500 C   0  0  0  0  0  0  0  0  0  0  0  0
   47.6380   33.4880   43.7590 C   0  0  2  0  0  0  0  0  0  0  0  0
   46.5820   32.8410   44.4860 N   0  0  0  0  0  0  0  0  0  0  0  0
   46.3790   33.3590   45.8110 C   0  0  0  0  0  0  0  0  0  0  0  0
   46.7820   32.1650   46.7060 C   0  0  0  0  0  0  0  0  0  0  0  0
   46.1040   31.0640   45.8690 C   0  0  0  0  0  0  0  0  0  0  0  0
   46.6290   31.4290   44.5030 C   0  0  0  0  0  0  0  0  0  0  0  0
   45.8580   34.2830   42.4750 C   0  0  0  0  0  0  0  0  0  0  0  0
   44.8980   35.4570   42.3860 C   0  0  1  0  0  0  0  0  0  0  0  0
   42.4380   35.4540   41.6900 C   0  0  0  0  0  0  0  0  0  0  0  0
   43.7890   35.0670   41.5110 C   0  0  0  0  0  0  0  0  0  0  0  0
   44.0680   34.2400   40.4280 C   0  0  0  0  0  0  0  0  0  0  0  0
   43.0670   33.8450   39.6050 N   0  0  0  0  0  0  0  0  0  0  0  0
   41.7870   34.2320   39.8020 C   0  0  0  0  0  0  0  0  0  0  0  0
   41.4720   35.0500   40.8630 N   0  0  0  0  0  0  0  0  0  0  0  0
   44.3810   35.7440   43.7820 C   0  0  0  0  0  0  0  0  0  0  0  0
   47.4012   35.3085   41.1833 H   0  0  0  0  0  0  0  0  0  0  0  0
   48.1163   36.2822   42.5658 H   0  0  0  0  0  0  0  0  0  0  0  0
   49.9541   35.0925   42.6681 H   0  0  0  0  0  0  0  0  0  0  0  0
   49.5105   34.8774   40.8805 H   0  0  0  0  0  0  0  0  0  0  0  0
   49.4097   32.7699   41.0346 H   0  0  0  0  0  0  0  0  0  0  0  0
   50.2269   32.9827   42.6701 H   0  0  0  0  0  0  0  0  0  0  0  0
   47.3933   32.2888   42.0173 H   0  0  0  0  0  0  0  0  0  0  0  0
   48.5037   31.6080   43.2432 H   0  0  0  0  0  0  0  0  0  0  0  0
   48.4351   33.8044   44.4479 H   0  0  0  0  0  0  0  0  0  0  0  0
   47.0224   34.2311   45.9992 H   0  0  0  0  0  0  0  0  0  0  0  0
   45.3528   33.7126   45.9897 H   0  0  0  0  0  0  0  0  0  0  0  0
   47.8725   32.0349   46.7678 H   0  0  0  0  0  0  0  0  0  0  0  0
   46.4933   32.2252   47.7657 H   0  0  0  0  0  0  0  0  0  0  0  0
   46.4258   30.0581   46.1767 H   0  0  0  0  0  0  0  0  0  0  0  0
   45.0080   31.0210   45.9527 H   0  0  0  0  0  0  0  0  0  0  0  0
   45.9906   31.0068   43.7129 H   0  0  0  0  0  0  0  0  0  0  0  0
   47.6399   31.0363   44.3186 H   0  0  0  0  0  0  0  0  0  0  0  0
   46.0543   33.9179   41.4561 H   0  0  0  0  0  0  0  0  0  0  0  0
   45.3770   33.5242   43.1097 H   0  0  0  0  0  0  0  0  0  0  0  0
   45.3899   36.3542   41.9823 H   0  0  0  0  0  0  0  0  0  0  0  0
   42.1776   36.1070   42.5360 H   0  0  0  0  0  0  0  0  0  0  0  0
   45.0995   33.9073   40.2401 H   0  0  0  0  0  0  0  0  0  0  0  0
   40.9976   33.8934   39.1148 H   0  0  0  0  0  0  0  0  0  0  0  0
   45.0909   35.3499   44.5241 H   0  0  0  0  0  0  0  0  0  0  0  0
   44.2744   36.8304   43.9174 H   0  0  0  0  0  0  0  0  0  0  0  0
   43.4026   35.2599   43.9174 H   0  0  0  0  0  0  0  0  0  0  0  0
  1  6  1  0
  2  1  1  0
  3  4  1  0
  3  2  1  0
  4  5  1  0
  5  6  1  0
  6  7  1  0
  7 11  1  0
  7  8  1  0
  8  9  1  0
 10  9  1  0
 11 10  1  0
 12  1  1  0
 13 12  1  0
 13 20  1  0
 15 14  2  0
 15 13  1  0
 16 15  1  0
 17 18  1  0
 17 16  2  0
 18 19  2  0
 19 14  1  0
  2 21  1  0
  2 22  1  0
  3 23  1  0
  3 24  1  0
  4 25  1  0
  4 26  1  0
  5 27  1  0
  5 28  1  0
  6 29  1  1
  8 30  1  0
  8 31  1  0
  9 32  1  0
  9 33  1  0
 10 34  1  0
 10 35  1  0
 11 36  1  0
 11 37  1  0
 12 38  1  0
 12 39  1  0
 13 40  1  6
 14 41  1  0
 16 42  1  0
 18 43  1  0
 20 44  1  0
 20 45  1  0
 20 46  1  0
M  ISO  8  21  13  22  13  23  13  24  13  25  13  26  13  27  13  28  13
M  ISO  8  29  13  30  13  31  13  32  13  33  13  34  13  35  13  36  13
M  ISO  8  37  13  38   8  39   8  40   8  41  14  42  14  43  14  44   8
M  ISO  2  45   8  46   8
M  END
>  <minimizedAffinity>  (1) 
-4.80408144

>  <minimizedRMSD>  (1) 
4.98055744

$$$$
