
     RDKit          3D

 30 32  0  0  1  0  0  0  0  0999 V2000
   47.0140   34.3570   42.1770 C   0  0  1  0  0  0  0  0  0  0  0  0
   46.3230   34.3700   40.8650 C   0  0  1  0  0  0  0  0  0  0  0  0
   47.5370   34.1800   39.9360 C   0  0  0  0  0  0  0  0  0  0  0  0
   48.5460   35.1090   40.5480 C   0  0  0  0  0  0  0  0  0  0  0  0
   48.1400   35.3550   41.9730 C   0  0  0  0  0  0  0  0  0  0  0  0
   44.5890   36.0290   44.5530 C   0  0  0  0  0  0  0  0  0  0  0  0
   45.3440   35.8400   43.3660 C   0  0  0  0  0  0  0  0  0  0  0  0
   46.1710   34.6970   43.3370 C   0  0  0  0  0  0  0  0  0  0  0  0
   46.1960   33.8660   44.4220 N   0  0  0  0  0  0  0  0  0  0  0  0
   45.4500   34.1050   45.5240 C   0  0  0  0  0  0  0  0  0  0  0  0
   44.6450   35.1930   45.5820 N   0  0  0  0  0  0  0  0  0  0  0  0
   45.3700   33.2320   40.6240 C   0  0  0  0  0  0  0  0  0  0  0  0
   44.0740   33.1230   41.3160 C   0  0  0  0  0  0  0  0  0  0  0  0
   44.0940   33.6210   39.8770 C   0  0  0  0  0  0  0  0  0  0  0  0
   47.3493   33.3427   42.4394 H   0  0  0  0  0  0  0  0  0  0  0  0
   45.6974   35.2664   40.7426 H   0  0  0  0  0  0  0  0  0  0  0  0
   47.2993   34.4726   38.9026 H   0  0  0  0  0  0  0  0  0  0  0  0
   47.8807   33.1377   39.8624 H   0  0  0  0  0  0  0  0  0  0  0  0
   49.5447   34.6489   40.5177 H   0  0  0  0  0  0  0  0  0  0  0  0
   48.5831   36.0565   39.9904 H   0  0  0  0  0  0  0  0  0  0  0  0
   48.9741   35.1582   42.6626 H   0  0  0  0  0  0  0  0  0  0  0  0
   47.8413   36.3956   42.1681 H   0  0  0  0  0  0  0  0  0  0  0  0
   43.9291   36.9063   44.6229 H   0  0  0  0  0  0  0  0  0  0  0  0
   45.2879   36.5415   42.5206 H   0  0  0  0  0  0  0  0  0  0  0  0
   45.4970   33.4127   46.3775 H   0  0  0  0  0  0  0  0  0  0  0  0
   46.1970   32.5148   40.5158 H   0  0  0  0  0  0  0  0  0  0  0  0
   43.6587   32.1304   41.5448 H   0  0  0  0  0  0  0  0  0  0  0  0
   43.6704   33.5156   42.2610 H   0  0  0  0  0  0  0  0  0  0  0  0
   43.8818   34.6763   39.6507 H   0  0  0  0  0  0  0  0  0  0  0  0
   43.6105   33.3303   38.9327 H   0  0  0  0  0  0  0  0  0  0  0  0
  1  8  1  0
  2  1  1  0
  3  4  1  0
  3  2  1  0
  4  5  1  0
  5  1  1  0
  6 11  2  0
  7  6  1  0
  8  7  2  0
  8  9  1  0
  9 10  2  0
 10 11  1  0
 12  2  1  0
 12 13  1  0
 14 12  1  0
 14 13  1  0
  1 15  1  1
  2 16  1  6
  3 17  1  0
  3 18  1  0
  4 19  1  0
  4 20  1  0
  5 21  1  0
  5 22  1  0
  6 23  1  0
  7 24  1  0
 10 25  1  0
 12 26  1  0
 13 27  1  0
 13 28  1  0
 14 29  1  0
 14 30  1  0
M  ISO  8  15  13  16  13  17  13  18  13  19  13  20  13  21  13  22  13
M  ISO  8  23  14  24  14  25  14  26  13  27  13  28  13  29  13  30  13
M  END
>  <minimizedAffinity>  (1) 
-4.83385515

>  <minimizedRMSD>  (1) 
0.562543631

$$$$
