
     RDKit          3D

 32 33  0  0  1  0  0  0  0  0999 V2000
   47.0410   34.3650   42.1680 C   0  0  1  0  0  0  0  0  0  0  0  0
   46.3930   34.3880   40.8460 C   0  0  1  0  0  0  0  0  0  0  0  0
   47.5770   34.2500   39.9150 C   0  0  0  0  0  0  0  0  0  0  0  0
   48.6150   35.1140   40.5770 C   0  0  0  0  0  0  0  0  0  0  0  0
   48.1840   35.3540   41.9920 C   0  0  0  0  0  0  0  0  0  0  0  0
   44.5810   36.0160   44.5030 C   0  0  0  0  0  0  0  0  0  0  0  0
   45.3520   35.8090   43.3360 C   0  0  0  0  0  0  0  0  0  0  0  0
   46.1970   34.6790   43.3200 C   0  0  0  0  0  0  0  0  0  0  0  0
   46.2120   33.8840   44.4080 N   0  0  0  0  0  0  0  0  0  0  0  0
   45.4610   34.1130   45.5050 C   0  0  0  0  0  0  0  0  0  0  0  0
   44.6470   35.1840   45.5450 N   0  0  0  0  0  0  0  0  0  0  0  0
   45.3690   33.3470   40.5610 C   0  0  0  0  0  0  0  0  0  0  0  0
   44.0090   33.8670   40.2630 C   0  0  0  0  0  0  0  0  0  0  0  0
   45.7830   32.3720   39.4920 C   0  0  0  0  0  0  0  0  0  0  0  0
   47.3502   33.3424   42.4301 H   0  0  0  0  0  0  0  0  0  0  0  0
   45.7879   35.3009   40.7433 H   0  0  0  0  0  0  0  0  0  0  0  0
   47.3357   34.6200   38.9076 H   0  0  0  0  0  0  0  0  0  0  0  0
   47.9012   33.2090   39.7697 H   0  0  0  0  0  0  0  0  0  0  0  0
   49.5889   34.6028   40.5651 H   0  0  0  0  0  0  0  0  0  0  0  0
   48.7154   36.0693   40.0409 H   0  0  0  0  0  0  0  0  0  0  0  0
   49.0021   35.1437   42.6966 H   0  0  0  0  0  0  0  0  0  0  0  0
   47.8923   36.3964   42.1878 H   0  0  0  0  0  0  0  0  0  0  0  0
   43.9091   36.8855   44.5537 H   0  0  0  0  0  0  0  0  0  0  0  0
   45.2957   36.4973   42.4798 H   0  0  0  0  0  0  0  0  0  0  0  0
   45.5137   33.4271   46.3634 H   0  0  0  0  0  0  0  0  0  0  0  0
   45.3046   32.8116   41.5197 H   0  0  0  0  0  0  0  0  0  0  0  0
   43.4792   34.0696   41.2055 H   0  0  0  0  0  0  0  0  0  0  0  0
   44.0913   34.7971   39.6815 H   0  0  0  0  0  0  0  0  0  0  0  0
   43.4498   33.1192   39.6815 H   0  0  0  0  0  0  0  0  0  0  0  0
   46.1718   31.4564   39.9615 H   0  0  0  0  0  0  0  0  0  0  0  0
   44.9132   32.1225   38.8666 H   0  0  0  0  0  0  0  0  0  0  0  0
   46.5666   32.8245   38.8666 H   0  0  0  0  0  0  0  0  0  0  0  0
  1  8  1  0
  2  1  1  0
  3  4  1  0
  3  2  1  0
  4  5  1  0
  5  1  1  0
  6 11  2  0
  7  6  1  0
  8  7  2  0
  8  9  1  0
  9 10  2  0
 10 11  1  0
 12  2  1  0
 13 12  1  0
 14 12  1  0
  1 15  1  1
  2 16  1  6
  3 17  1  0
  3 18  1  0
  4 19  1  0
  4 20  1  0
  5 21  1  0
  5 22  1  0
  6 23  1  0
  7 24  1  0
 10 25  1  0
 12 26  1  0
 13 27  1  0
 13 28  1  0
 13 29  1  0
 14 30  1  0
 14 31  1  0
 14 32  1  0
M  ISO  8  15  13  16  13  17  13  18  13  19  13  20  13  21  13  22  13
M  ISO  8  23  14  24  14  25  14  26   8  27   8  28   8  29   8  30   8
M  ISO  2  31   8  32   8
M  END
>  <minimizedAffinity>  (1) 
-4.83213425

>  <minimizedRMSD>  (1) 
0.211819768

$$$$
