
     RDKit          3D

 29 31  0  0  1  0  0  0  0  0999 V2000
   47.0300   34.3270   42.1990 C   0  0  1  0  0  0  0  0  0  0  0  0
   46.3490   34.3640   40.8890 C   0  0  1  0  0  0  0  0  0  0  0  0
   47.5290   34.2270   39.9410 C   0  0  0  0  0  0  0  0  0  0  0  0
   48.5780   35.1010   40.5910 C   0  0  0  0  0  0  0  0  0  0  0  0
   48.1730   35.3110   42.0170 C   0  0  0  0  0  0  0  0  0  0  0  0
   44.5550   35.9750   44.5450 C   0  0  0  0  0  0  0  0  0  0  0  0
   45.3290   35.7370   43.3960 C   0  0  0  0  0  0  0  0  0  0  0  0
   46.1980   34.6290   43.3630 C   0  0  0  0  0  0  0  0  0  0  0  0
   46.2410   33.8410   44.4550 N   0  0  0  0  0  0  0  0  0  0  0  0
   45.4870   34.0830   45.5620 C   0  0  0  0  0  0  0  0  0  0  0  0
   44.6480   35.1470   45.6020 N   0  0  0  0  0  0  0  0  0  0  0  0
   45.5140   33.1550   40.6690 C   0  0  0  0  0  0  0  0  0  0  0  0
   44.1750   33.3130   40.3150 C   0  0  0  0  0  0  0  0  0  0  0  0
   43.6080   31.5070   40.1670 S   0  0  0  0  0  0  0  0  0  0  0  0
   45.3330   30.9280   40.6220 C   0  0  0  0  0  0  0  0  0  0  0  0
   45.8890   31.8920   40.7690 N   0  0  0  0  0  0  0  0  0  0  0  0
   47.3529   33.3044   42.4441 H   0  0  0  0  0  0  0  0  0  0  0  0
   45.7053   35.2492   40.7793 H   0  0  0  0  0  0  0  0  0  0  0  0
   47.2749   34.5930   38.9353 H   0  0  0  0  0  0  0  0  0  0  0  0
   47.8552   33.1865   39.7962 H   0  0  0  0  0  0  0  0  0  0  0  0
   49.5585   34.6042   40.5490 H   0  0  0  0  0  0  0  0  0  0  0  0
   48.6569   36.0645   40.0662 H   0  0  0  0  0  0  0  0  0  0  0  0
   49.0035   35.0825   42.7011 H   0  0  0  0  0  0  0  0  0  0  0  0
   47.8879   36.3504   42.2369 H   0  0  0  0  0  0  0  0  0  0  0  0
   43.8735   36.8377   44.5803 H   0  0  0  0  0  0  0  0  0  0  0  0
   45.2566   36.4107   42.5295 H   0  0  0  0  0  0  0  0  0  0  0  0
   45.5589   33.4109   46.4298 H   0  0  0  0  0  0  0  0  0  0  0  0
   43.5998   34.2381   40.1621 H   0  0  0  0  0  0  0  0  0  0  0  0
   45.7073   29.8983   40.7205 H   0  0  0  0  0  0  0  0  0  0  0  0
  1  8  1  0
  2  1  1  0
  3  4  1  0
  3  2  1  0
  4  5  1  0
  5  1  1  0
  6 11  2  0
  7  6  1  0
  8  7  2  0
  8  9  1  0
  9 10  2  0
 10 11  1  0
 12 16  1  0
 12  2  1  0
 13 12  2  0
 14 13  1  0
 14 15  1  0
 15 16  2  0
  1 17  1  1
  2 18  1  6
  3 19  1  0
  3 20  1  0
  4 21  1  0
  4 22  1  0
  5 23  1  0
  5 24  1  0
  6 25  1  0
  7 26  1  0
 10 27  1  0
 13 28  1  0
 15 29  1  0
M  ISO  8  17  13  18  13  19  13  20  13  21  13  22  13  23  13  24  13
M  ISO  5  25  14  26  14  27  14  28  14  29  14
M  END
>  <minimizedAffinity>  (1) 
-4.80604315

>  <minimizedRMSD>  (1) 
0.456816316

$$$$
