
     RDKit          3D

 29 31  0  0  1  0  0  0  0  0999 V2000
   47.0560   34.3580   42.1850 C   0  0  1  0  0  0  0  0  0  0  0  0
   46.3660   34.3040   40.8760 C   0  0  1  0  0  0  0  0  0  0  0  0
   47.5600   34.1910   39.9310 C   0  0  0  0  0  0  0  0  0  0  0  0
   48.5580   35.1390   40.5440 C   0  0  0  0  0  0  0  0  0  0  0  0
   48.1570   35.3780   41.9710 C   0  0  0  0  0  0  0  0  0  0  0  0
   44.5780   36.0080   44.5160 C   0  0  0  0  0  0  0  0  0  0  0  0
   45.3530   35.7890   43.3610 C   0  0  0  0  0  0  0  0  0  0  0  0
   46.2100   34.6700   43.3390 C   0  0  0  0  0  0  0  0  0  0  0  0
   46.2330   33.8750   44.4340 N   0  0  0  0  0  0  0  0  0  0  0  0
   45.4750   34.1120   45.5330 C   0  0  0  0  0  0  0  0  0  0  0  0
   44.6440   35.1900   45.5650 N   0  0  0  0  0  0  0  0  0  0  0  0
   45.6190   33.0370   40.8420 N   0  0  0  0  0  0  0  0  0  0  0  0
   44.2850   32.8120   40.7180 C   0  0  0  0  0  0  0  0  0  0  0  0
   44.0690   31.4830   40.7390 N   0  0  0  0  0  0  0  0  0  0  0  0
   45.2560   30.8740   40.8740 C   0  0  0  0  0  0  0  0  0  0  0  0
   46.1980   31.8510   40.9360 N   0  0  0  0  0  0  0  0  0  0  0  0
   47.4285   33.3612   42.4634 H   0  0  0  0  0  0  0  0  0  0  0  0
   45.6813   35.1353   40.6521 H   0  0  0  0  0  0  0  0  0  0  0  0
   47.2901   34.5038   38.9115 H   0  0  0  0  0  0  0  0  0  0  0  0
   47.9397   33.1638   39.8281 H   0  0  0  0  0  0  0  0  0  0  0  0
   49.5641   34.6958   40.5085 H   0  0  0  0  0  0  0  0  0  0  0  0
   48.5740   36.0881   39.9881 H   0  0  0  0  0  0  0  0  0  0  0  0
   49.0002   35.2004   42.6547 H   0  0  0  0  0  0  0  0  0  0  0  0
   47.8370   36.4121   42.1664 H   0  0  0  0  0  0  0  0  0  0  0  0
   43.9021   36.8751   44.5528 H   0  0  0  0  0  0  0  0  0  0  0  0
   45.2915   36.4715   42.5006 H   0  0  0  0  0  0  0  0  0  0  0  0
   45.5314   33.4342   46.3975 H   0  0  0  0  0  0  0  0  0  0  0  0
   43.5103   33.5864   40.6172 H   0  0  0  0  0  0  0  0  0  0  0  0
   45.4333   29.7896   40.9249 H   0  0  0  0  0  0  0  0  0  0  0  0
  1  8  1  0
  2  1  1  0
  3  4  1  0
  3  2  1  0
  4  5  1  0
  5  1  1  0
  6 11  2  0
  7  6  1  0
  8  7  2  0
  8  9  1  0
  9 10  2  0
 10 11  1  0
 12  2  1  0
 12 16  1  0
 13 14  2  0
 13 12  1  0
 14 15  1  0
 15 16  2  0
  1 17  1  1
  2 18  1  6
  3 19  1  0
  3 20  1  0
  4 21  1  0
  4 22  1  0
  5 23  1  0
  5 24  1  0
  6 25  1  0
  7 26  1  0
 10 27  1  0
 13 28  1  0
 15 29  1  0
M  ISO  8  17  13  18  13  19  13  20  13  21  13  22  13  23  13  24  13
M  ISO  5  25  14  26  14  27  14  28  14  29  14
M  END
>  <minimizedAffinity>  (1) 
-4.72182512

>  <minimizedRMSD>  (1) 
0.59604609

$$$$
