
     RDKit          3D

 24 25  0  0  1  0  0  0  0  0999 V2000
   47.0690   34.3460   42.1760 C   0  0  1  0  0  0  0  0  0  0  0  0
   46.3840   34.3200   40.8620 C   0  0  1  0  0  0  0  0  0  0  0  0
   47.5860   34.1610   39.9310 C   0  0  0  0  0  0  0  0  0  0  0  0
   48.5670   35.1490   40.5300 C   0  0  0  0  0  0  0  0  0  0  0  0
   48.1470   35.3920   41.9500 C   0  0  0  0  0  0  0  0  0  0  0  0
   44.5830   35.9890   44.5120 C   0  0  0  0  0  0  0  0  0  0  0  0
   45.3500   35.7990   43.3390 C   0  0  0  0  0  0  0  0  0  0  0  0
   46.2050   34.6780   43.3260 C   0  0  0  0  0  0  0  0  0  0  0  0
   46.2260   33.8860   44.4190 N   0  0  0  0  0  0  0  0  0  0  0  0
   45.4790   34.0990   45.5220 C   0  0  0  0  0  0  0  0  0  0  0  0
   44.6520   35.1670   45.5560 N   0  0  0  0  0  0  0  0  0  0  0  0
   45.3620   32.7980   40.8140 S   0  0  0  0  0  0  0  0  0  0  0  0
   47.4438   33.3517   42.4605 H   0  0  0  0  0  0  0  0  0  0  0  0
   45.7369   35.1779   40.6267 H   0  0  0  0  0  0  0  0  0  0  0  0
   47.3296   34.4276   38.8951 H   0  0  0  0  0  0  0  0  0  0  0  0
   47.9696   33.1321   39.8666 H   0  0  0  0  0  0  0  0  0  0  0  0
   49.5843   34.7312   40.5049 H   0  0  0  0  0  0  0  0  0  0  0  0
   48.5695   36.0892   39.9590 H   0  0  0  0  0  0  0  0  0  0  0  0
   48.9900   35.2456   42.6414 H   0  0  0  0  0  0  0  0  0  0  0  0
   47.7955   36.4193   42.1265 H   0  0  0  0  0  0  0  0  0  0  0  0
   43.9019   36.8512   44.5633 H   0  0  0  0  0  0  0  0  0  0  0  0
   45.2832   36.4878   42.4840 H   0  0  0  0  0  0  0  0  0  0  0  0
   45.5422   33.4139   46.3803 H   0  0  0  0  0  0  0  0  0  0  0  0
   45.0887   32.3909   42.0933 H   0  0  0  0  0  0  0  0  0  0  0  0
  1  8  1  0
  2  1  1  0
  3  4  1  0
  3  2  1  0
  4  5  1  0
  5  1  1  0
  6 11  2  0
  7  6  1  0
  8  7  2  0
  8  9  1  0
  9 10  2  0
 10 11  1  0
 12  2  1  0
  1 13  1  1
  2 14  1  6
  3 15  1  0
  3 16  1  0
  4 17  1  0
  4 18  1  0
  5 19  1  0
  5 20  1  0
  6 21  1  0
  7 22  1  0
 10 23  1  0
 12 24  1  0
M  ISO  8  13  13  14  13  15  13  16  13  17  13  18  13  19  13  20  13
M  ISO  4  21  14  22  14  23  14  24  11
M  END
>  <minimizedAffinity>  (1) 
-4.63635015

>  <minimizedRMSD>  (1) 
0.0280552935

$$$$
