
     RDKit          3D

 25 26  0  0  1  0  0  0  0  0999 V2000
   47.0930   34.3600   42.1740 C   0  0  1  0  0  0  0  0  0  0  0  0
   46.4080   34.3290   40.8620 C   0  0  1  0  0  0  0  0  0  0  0  0
   47.6060   34.2020   39.9240 C   0  0  0  0  0  0  0  0  0  0  0  0
   48.5900   35.1720   40.5340 C   0  0  0  0  0  0  0  0  0  0  0  0
   48.1900   35.3890   41.9630 C   0  0  0  0  0  0  0  0  0  0  0  0
   44.5810   35.9930   44.4910 C   0  0  0  0  0  0  0  0  0  0  0  0
   45.3780   35.7580   43.3560 C   0  0  0  0  0  0  0  0  0  0  0  0
   46.2430   34.6490   43.3280 C   0  0  0  0  0  0  0  0  0  0  0  0
   46.2700   33.8490   44.4120 N   0  0  0  0  0  0  0  0  0  0  0  0
   45.4850   34.0960   45.5070 C   0  0  0  0  0  0  0  0  0  0  0  0
   44.6450   35.1740   45.5330 N   0  0  0  0  0  0  0  0  0  0  0  0
   45.5940   33.1000   40.6610 C   0  0  0  0  0  0  0  0  0  0  0  0
   44.8990   32.9030   39.6770 O   0  0  0  0  0  0  0  0  0  0  0  0
   47.4684   33.3634   42.4492 H   0  0  0  0  0  0  0  0  0  0  0  0
   45.7320   35.1866   40.7299 H   0  0  0  0  0  0  0  0  0  0  0  0
   47.3417   34.4943   38.8970 H   0  0  0  0  0  0  0  0  0  0  0  0
   47.9926   33.1759   39.8364 H   0  0  0  0  0  0  0  0  0  0  0  0
   49.6061   34.7530   40.4889 H   0  0  0  0  0  0  0  0  0  0  0  0
   48.5840   36.1242   39.9834 H   0  0  0  0  0  0  0  0  0  0  0  0
   49.0366   35.2084   42.6418 H   0  0  0  0  0  0  0  0  0  0  0  0
   47.8621   36.4187   42.1685 H   0  0  0  0  0  0  0  0  0  0  0  0
   43.9025   36.8585   44.5148 H   0  0  0  0  0  0  0  0  0  0  0  0
   45.3251   36.4388   42.4936 H   0  0  0  0  0  0  0  0  0  0  0  0
   45.5310   33.4203   46.3738 H   0  0  0  0  0  0  0  0  0  0  0  0
   45.6199   32.3261   41.4423 H   0  0  0  0  0  0  0  0  0  0  0  0
  1  8  1  0
  2  1  1  0
  3  4  1  0
  3  2  1  0
  4  5  1  0
  5  1  1  0
  6 11  2  0
  7  6  1  0
  8  7  2  0
  8  9  1  0
  9 10  2  0
 10 11  1  0
 12  2  1  0
 13 12  2  0
  1 14  1  1
  2 15  1  6
  3 16  1  0
  3 17  1  0
  4 18  1  0
  4 19  1  0
  5 20  1  0
  5 21  1  0
  6 22  1  0
  7 23  1  0
 10 24  1  0
 12 25  1  0
M  ISO  8  14  13  15  13  16  13  17  13  18  13  19  13  20  13  21  13
M  ISO  4  22  14  23  14  24  14  25   6
M  END
>  <minimizedAffinity>  (1) 
-4.58838892

>  <minimizedRMSD>  (1) 
0.0321493298

$$$$
