
     RDKit          3D

 26 27  0  0  1  0  0  0  0  0999 V2000
   47.0760   34.3650   42.1670 C   0  0  1  0  0  0  0  0  0  0  0  0
   46.4010   34.3330   40.8490 C   0  0  1  0  0  0  0  0  0  0  0  0
   47.5940   34.1850   39.9220 C   0  0  0  0  0  0  0  0  0  0  0  0
   48.5810   35.1720   40.5320 C   0  0  0  0  0  0  0  0  0  0  0  0
   48.1710   35.3920   41.9600 C   0  0  0  0  0  0  0  0  0  0  0  0
   44.5890   36.0110   44.5000 C   0  0  0  0  0  0  0  0  0  0  0  0
   45.3690   35.7960   43.3480 C   0  0  0  0  0  0  0  0  0  0  0  0
   46.2230   34.6740   43.3170 C   0  0  0  0  0  0  0  0  0  0  0  0
   46.2350   33.8750   44.4030 N   0  0  0  0  0  0  0  0  0  0  0  0
   45.4800   34.0920   45.5040 C   0  0  0  0  0  0  0  0  0  0  0  0
   44.6520   35.1710   45.5460 N   0  0  0  0  0  0  0  0  0  0  0  0
   45.5740   33.0400   40.8240 C   0  0  0  0  0  0  0  0  0  0  0  0
   46.1250   32.0630   41.6050 F   0  0  0  0  0  0  0  0  0  0  0  0
   45.4610   32.6840   39.4960 F   0  0  0  0  0  0  0  0  0  0  0  0
   44.3010   33.2970   41.2970 F   0  0  0  0  0  0  0  0  0  0  0  0
   47.4399   33.3650   42.4454 H   0  0  0  0  0  0  0  0  0  0  0  0
   45.7490   35.1847   40.6051 H   0  0  0  0  0  0  0  0  0  0  0  0
   47.3363   34.4618   38.8890 H   0  0  0  0  0  0  0  0  0  0  0  0
   47.9778   33.1568   39.8477 H   0  0  0  0  0  0  0  0  0  0  0  0
   49.5995   34.7582   40.4926 H   0  0  0  0  0  0  0  0  0  0  0  0
   48.5757   36.1209   39.9756 H   0  0  0  0  0  0  0  0  0  0  0  0
   49.0136   35.2139   42.6444 H   0  0  0  0  0  0  0  0  0  0  0  0
   47.8406   36.4218   42.1606 H   0  0  0  0  0  0  0  0  0  0  0  0
   43.9172   36.8809   44.5441 H   0  0  0  0  0  0  0  0  0  0  0  0
   45.3138   36.4860   42.4931 H   0  0  0  0  0  0  0  0  0  0  0  0
   45.5349   33.4017   46.3587 H   0  0  0  0  0  0  0  0  0  0  0  0
  1  8  1  0
  2  1  1  0
  3  4  1  0
  3  2  1  0
  4  5  1  0
  5  1  1  0
  6 11  2  0
  7  6  1  0
  8  7  2  0
  8  9  1  0
  9 10  2  0
 10 11  1  0
 12  2  1  0
 12 15  1  0
 12 13  1  0
 14 12  1  0
  1 16  1  1
  2 17  1  6
  3 18  1  0
  3 19  1  0
  4 20  1  0
  4 21  1  0
  5 22  1  0
  5 23  1  0
  6 24  1  0
  7 25  1  0
 10 26  1  0
M  ISO  8  16  13  17  13  18  13  19  13  20  13  21  13  22  13  23  13
M  ISO  3  24  14  25  14  26  14
M  END
>  <minimizedAffinity>  (1) 
-4.80794573

>  <minimizedRMSD>  (1) 
0.149595723

$$$$
