
     RDKit          3D

 36 38  0  0  1  0  0  0  0  0999 V2000
   47.5200   34.4530   41.8100 C   0  0  1  0  0  0  0  0  0  0  0  0
   46.9310   34.3090   40.4700 C   0  0  1  0  0  0  0  0  0  0  0  0
   48.1710   34.3600   39.5990 C   0  0  0  0  0  0  0  0  0  0  0  0
   48.9460   35.5070   40.2480 C   0  0  0  0  0  0  0  0  0  0  0  0
   48.4300   35.6650   41.6420 C   0  0  0  0  0  0  0  0  0  0  0  0
   44.6700   35.6750   43.9940 C   0  0  0  0  0  0  0  0  0  0  0  0
   45.5330   35.5770   42.8900 C   0  0  0  0  0  0  0  0  0  0  0  0
   46.5790   34.6180   42.9160 C   0  0  0  0  0  0  0  0  0  0  0  0
   46.6680   33.8610   44.0180 N   0  0  0  0  0  0  0  0  0  0  0  0
   45.8280   33.9640   45.0800 C   0  0  0  0  0  0  0  0  0  0  0  0
   44.8260   34.8780   45.0590 N   0  0  0  0  0  0  0  0  0  0  0  0
   45.9520   33.1430   46.2350 N   0  0  0  0  0  0  0  0  0  0  0  0
   46.7960   32.0840   46.2790 C   0  0  0  0  0  0  0  0  0  0  0  0
   46.9000   31.3010   47.4100 C   0  0  0  0  0  0  0  0  0  0  0  0
   46.1040   31.6350   48.5100 C   0  0  0  0  0  0  0  0  0  0  0  0
   46.2060   30.9130   49.5390 O   0  0  0  0  0  0  0  0  0  0  0  0
   45.2710   32.7060   48.4210 N   0  0  0  0  0  0  0  0  0  0  0  0
   45.1920   33.4520   47.3020 C   0  0  0  0  0  0  0  0  0  0  0  0
   44.3830   34.4010   47.3710 O   0  0  0  0  0  0  0  0  0  0  0  0
   46.3210   32.8970   40.4190 C   0  0  0  0  0  0  0  0  0  0  0  0
   47.0030   32.0300   41.2190 F   0  0  0  0  0  0  0  0  0  0  0  0
   46.3120   32.5500   39.0810 F   0  0  0  0  0  0  0  0  0  0  0  0
   45.0050   32.9490   40.8350 F   0  0  0  0  0  0  0  0  0  0  0  0
   48.0316   33.5273   42.1123 H   0  0  0  0  0  0  0  0  0  0  0  0
   46.1629   35.0435   40.1864 H   0  0  0  0  0  0  0  0  0  0  0  0
   47.9189   34.5858   38.5524 H   0  0  0  0  0  0  0  0  0  0  0  0
   48.7265   33.4118   39.5502 H   0  0  0  0  0  0  0  0  0  0  0  0
   50.0199   35.2699   40.2696 H   0  0  0  0  0  0  0  0  0  0  0  0
   48.8116   36.4376   39.6771 H   0  0  0  0  0  0  0  0  0  0  0  0
   49.2522   35.6464   42.3725 H   0  0  0  0  0  0  0  0  0  0  0  0
   47.9129   36.6217   41.8071 H   0  0  0  0  0  0  0  0  0  0  0  0
   43.8563   36.4152   43.9837 H   0  0  0  0  0  0  0  0  0  0  0  0
   45.4000   36.2340   42.0179 H   0  0  0  0  0  0  0  0  0  0  0  0
   47.4089   31.8444   45.3976 H   0  0  0  0  0  0  0  0  0  0  0  0
   47.5865   30.4422   47.4453 H   0  0  0  0  0  0  0  0  0  0  0  0
   44.6847   32.9536   49.2308 H   0  0  0  0  0  0  0  0  0  0  0  0
  1  8  1  0
  2  1  1  0
  3  4  1  0
  3  2  1  0
  4  5  1  0
  5  1  1  0
  6 11  2  0
  7  8  2  0
  7  6  1  0
  8  9  1  0
  9 10  2  0
 10 12  1  0
 11 10  1  0
 12 13  1  0
 12 18  1  0
 13 14  2  0
 14 15  1  0
 15 16  2  0
 17 15  1  0
 18 19  2  0
 18 17  1  0
 20  2  1  0
 20 23  1  0
 20 21  1  0
 22 20  1  0
  1 24  1  1
  2 25  1  6
  3 26  1  0
  3 27  1  0
  4 28  1  0
  4 29  1  0
  5 30  1  0
  5 31  1  0
  6 32  1  0
  7 33  1  0
 13 34  1  0
 14 35  1  0
 17 36  1  0
M  ISO  8  24  13  25  13  26  13  27  13  28  13  29  13  30  13  31  13
M  ISO  5  32  14  33  14  34  14  35  14  36   9
M  END
>  <minimizedAffinity>  (1) 
-6.65848398

>  <minimizedRMSD>  (1) 
0.695515454

$$$$
