
     RDKit          3D

 33 35  0  0  1  0  0  0  0  0999 V2000
   47.0830   34.2750   42.2020 C   0  0  1  0  0  0  0  0  0  0  0  0
   46.3690   34.2920   40.9180 C   0  0  1  0  0  0  0  0  0  0  0  0
   47.5190   34.2240   39.9400 C   0  0  0  0  0  0  0  0  0  0  0  0
   48.5240   35.1930   40.5640 C   0  0  0  0  0  0  0  0  0  0  0  0
   48.1490   35.3440   42.0020 C   0  0  0  0  0  0  0  0  0  0  0  0
   44.5720   35.7150   44.6510 C   0  0  0  0  0  0  0  0  0  0  0  0
   45.3000   35.5470   43.4630 C   0  0  0  0  0  0  0  0  0  0  0  0
   46.2790   34.5210   43.3950 C   0  0  0  0  0  0  0  0  0  0  0  0
   46.4270   33.7810   44.5010 N   0  0  0  0  0  0  0  0  0  0  0  0
   45.7280   33.9450   45.6380 C   0  0  0  0  0  0  0  0  0  0  0  0
   44.7900   34.9270   45.7090 N   0  0  0  0  0  0  0  0  0  0  0  0
   46.0220   33.0620   46.7160 N   0  0  0  0  0  0  0  0  0  0  0  0
   45.0670   32.9220   47.6190 N   0  0  0  0  0  0  0  0  0  0  0  0
   45.4560   32.0690   48.5830 C   0  0  0  0  0  0  0  0  0  0  0  0
   46.7480   31.6450   48.2600 C   0  0  0  0  0  0  0  0  0  0  0  0
   47.0810   32.2940   47.0660 C   0  0  0  0  0  0  0  0  0  0  0  0
   45.5520   32.9970   40.8650 C   0  0  0  0  0  0  0  0  0  0  0  0
   46.1070   32.0160   41.6300 F   0  0  0  0  0  0  0  0  0  0  0  0
   45.4570   32.6570   39.5320 F   0  0  0  0  0  0  0  0  0  0  0  0
   44.2680   33.2450   41.3330 F   0  0  0  0  0  0  0  0  0  0  0  0
   47.4679   33.2671   42.4166 H   0  0  0  0  0  0  0  0  0  0  0  0
   45.6957   35.1428   40.7367 H   0  0  0  0  0  0  0  0  0  0  0  0
   47.2117   34.5573   38.9378 H   0  0  0  0  0  0  0  0  0  0  0  0
   47.9153   33.2087   39.7909 H   0  0  0  0  0  0  0  0  0  0  0  0
   49.5428   34.7869   40.4798 H   0  0  0  0  0  0  0  0  0  0  0  0
   48.5047   36.1647   40.0489 H   0  0  0  0  0  0  0  0  0  0  0  0
   49.0150   35.1636   42.6558 H   0  0  0  0  0  0  0  0  0  0  0  0
   47.7951   36.3556   42.2499 H   0  0  0  0  0  0  0  0  0  0  0  0
   43.8108   36.5067   44.7127 H   0  0  0  0  0  0  0  0  0  0  0  0
   45.1149   36.2003   42.5976 H   0  0  0  0  0  0  0  0  0  0  0  0
   44.8680   31.7626   49.4607 H   0  0  0  0  0  0  0  0  0  0  0  0
   47.3757   30.9434   48.8290 H   0  0  0  0  0  0  0  0  0  0  0  0
   48.0276   32.1981   46.5139 H   0  0  0  0  0  0  0  0  0  0  0  0
  1  8  1  0
  2  1  1  0
  3  4  1  0
  3  2  1  0
  4  5  1  0
  5  1  1  0
  6 11  2  0
  7  6  1  0
  8  7  2  0
  8  9  1  0
  9 10  2  0
 10 11  1  0
 10 12  1  0
 12 16  1  0
 12 13  1  0
 13 14  2  0
 15 14  1  0
 16 15  2  0
 17  2  1  0
 17 20  1  0
 17 18  1  0
 19 17  1  0
  1 21  1  1
  2 22  1  6
  3 23  1  0
  3 24  1  0
  4 25  1  0
  4 26  1  0
  5 27  1  0
  5 28  1  0
  6 29  1  0
  7 30  1  0
 14 31  1  0
 15 32  1  0
 16 33  1  0
M  ISO  8  21  13  22  13  23  13  24  13  25  13  26  13  27  13  28  13
M  ISO  5  29  14  30  14  31  14  32  14  33  14
M  END
>  <minimizedAffinity>  (1) 
-6.32948542

>  <minimizedRMSD>  (1) 
0.344872445

$$$$
