
     RDKit          3D

 32 34  0  0  1  0  0  0  0  0999 V2000
   47.1280   34.3070   42.1780 C   0  0  1  0  0  0  0  0  0  0  0  0
   46.4290   34.3160   40.8850 C   0  0  1  0  0  0  0  0  0  0  0  0
   47.5870   34.2500   39.9160 C   0  0  0  0  0  0  0  0  0  0  0  0
   48.5870   35.2100   40.5620 C   0  0  0  0  0  0  0  0  0  0  0  0
   48.1790   35.3970   41.9870 C   0  0  0  0  0  0  0  0  0  0  0  0
   44.5740   35.7310   44.5960 C   0  0  0  0  0  0  0  0  0  0  0  0
   45.3260   35.5720   43.4170 C   0  0  0  0  0  0  0  0  0  0  0  0
   46.3010   34.5430   43.3640 C   0  0  0  0  0  0  0  0  0  0  0  0
   46.4330   33.7890   44.4600 N   0  0  0  0  0  0  0  0  0  0  0  0
   45.7050   33.9490   45.5890 C   0  0  0  0  0  0  0  0  0  0  0  0
   44.7740   34.9280   45.6490 N   0  0  0  0  0  0  0  0  0  0  0  0
   45.8720   33.1270   46.7390 N   0  0  0  0  0  0  0  0  0  0  0  0
   45.1820   32.7650   47.8350 C   0  0  0  0  0  0  0  0  0  0  0  0
   45.9230   31.9220   48.5760 N   0  0  0  0  0  0  0  0  0  0  0  0
   47.1010   31.7640   47.9120 C   0  0  0  0  0  0  0  0  0  0  0  0
   47.0410   32.5110   46.7940 N   0  0  0  0  0  0  0  0  0  0  0  0
   45.6280   33.0100   40.8200 C   0  0  0  0  0  0  0  0  0  0  0  0
   46.1860   32.0370   41.5890 F   0  0  0  0  0  0  0  0  0  0  0  0
   45.5410   32.6850   39.4800 F   0  0  0  0  0  0  0  0  0  0  0  0
   44.3360   33.2460   41.2610 F   0  0  0  0  0  0  0  0  0  0  0  0
   47.5270   33.3062   42.3997 H   0  0  0  0  0  0  0  0  0  0  0  0
   45.7526   35.1636   40.7006 H   0  0  0  0  0  0  0  0  0  0  0  0
   47.2913   34.5937   38.9138 H   0  0  0  0  0  0  0  0  0  0  0  0
   47.9803   33.2348   39.7587 H   0  0  0  0  0  0  0  0  0  0  0  0
   49.6000   34.7838   40.5149 H   0  0  0  0  0  0  0  0  0  0  0  0
   48.5936   36.1742   40.0327 H   0  0  0  0  0  0  0  0  0  0  0  0
   49.0314   35.2502   42.6666 H   0  0  0  0  0  0  0  0  0  0  0  0
   47.8055   36.4082   42.2061 H   0  0  0  0  0  0  0  0  0  0  0  0
   43.8135   36.5237   44.6532 H   0  0  0  0  0  0  0  0  0  0  0  0
   45.1609   36.2329   42.5533 H   0  0  0  0  0  0  0  0  0  0  0  0
   44.1670   33.1061   48.0869 H   0  0  0  0  0  0  0  0  0  0  0  0
   47.9481   31.1392   48.2313 H   0  0  0  0  0  0  0  0  0  0  0  0
  1  8  1  0
  2  1  1  0
  3  4  1  0
  3  2  1  0
  4  5  1  0
  5  1  1  0
  6 11  2  0
  7  6  1  0
  8  7  2  0
  8  9  1  0
  9 10  2  0
 10 11  1  0
 10 12  1  0
 12 16  1  0
 12 13  1  0
 13 14  2  0
 15 14  1  0
 16 15  2  0
 17  2  1  0
 17 20  1  0
 17 18  1  0
 19 17  1  0
  1 21  1  1
  2 22  1  6
  3 23  1  0
  3 24  1  0
  4 25  1  0
  4 26  1  0
  5 27  1  0
  5 28  1  0
  6 29  1  0
  7 30  1  0
 13 31  1  0
 15 32  1  0
M  ISO  8  21  13  22  13  23  13  24  13  25  13  26  13  27  13  28  13
M  ISO  4  29  14  30  14  31  14  32  14
M  END
>  <minimizedAffinity>  (1) 
-6.2186389

>  <minimizedRMSD>  (1) 
0.304792136

$$$$
