
     RDKit          3D

 31 33  0  0  1  0  0  0  0  0999 V2000
   47.1390   34.3150   42.1450 C   0  0  1  0  0  0  0  0  0  0  0  0
   46.4480   34.3070   40.8510 C   0  0  1  0  0  0  0  0  0  0  0  0
   47.6100   34.2270   39.8910 C   0  0  0  0  0  0  0  0  0  0  0  0
   48.5930   35.2160   40.5130 C   0  0  0  0  0  0  0  0  0  0  0  0
   48.2030   35.3850   41.9510 C   0  0  0  0  0  0  0  0  0  0  0  0
   44.5810   35.7840   44.5250 C   0  0  0  0  0  0  0  0  0  0  0  0
   45.3370   35.6010   43.3600 C   0  0  0  0  0  0  0  0  0  0  0  0
   46.3100   34.5690   43.3230 C   0  0  0  0  0  0  0  0  0  0  0  0
   46.4350   33.8290   44.4330 N   0  0  0  0  0  0  0  0  0  0  0  0
   45.7020   34.0100   45.5510 C   0  0  0  0  0  0  0  0  0  0  0  0
   44.7700   34.9900   45.5990 N   0  0  0  0  0  0  0  0  0  0  0  0
   45.9220   33.1400   46.7090 C   0  0  0  0  0  0  0  0  0  0  0  0
   47.0180   32.4230   46.9930 N   0  0  0  0  0  0  0  0  0  0  0  0
   46.8460   31.7750   48.1010 O   0  0  0  0  0  0  0  0  0  0  0  0
   45.6580   32.0290   48.5860 C   0  0  0  0  0  0  0  0  0  0  0  0
   45.0620   32.8910   47.7170 N   0  0  0  0  0  0  0  0  0  0  0  0
   45.6330   33.0050   40.7980 C   0  0  0  0  0  0  0  0  0  0  0  0
   46.1910   32.0420   41.5820 F   0  0  0  0  0  0  0  0  0  0  0  0
   45.5490   32.6590   39.4640 F   0  0  0  0  0  0  0  0  0  0  0  0
   44.3390   33.2500   41.2490 F   0  0  0  0  0  0  0  0  0  0  0  0
   47.5280   33.3132   42.3798 H   0  0  0  0  0  0  0  0  0  0  0  0
   45.7753   35.1540   40.6507 H   0  0  0  0  0  0  0  0  0  0  0  0
   47.3154   34.5378   38.8778 H   0  0  0  0  0  0  0  0  0  0  0  0
   48.0163   33.2126   39.7648 H   0  0  0  0  0  0  0  0  0  0  0  0
   49.6178   34.8222   40.4444 H   0  0  0  0  0  0  0  0  0  0  0  0
   48.5630   36.1804   39.9847 H   0  0  0  0  0  0  0  0  0  0  0  0
   49.0620   35.2136   42.6164 H   0  0  0  0  0  0  0  0  0  0  0  0
   47.8467   36.3985   42.1873 H   0  0  0  0  0  0  0  0  0  0  0  0
   43.8259   36.5829   44.5644 H   0  0  0  0  0  0  0  0  0  0  0  0
   45.1784   36.2489   42.4853 H   0  0  0  0  0  0  0  0  0  0  0  0
   45.2256   31.6255   49.5135 H   0  0  0  0  0  0  0  0  0  0  0  0
  1  8  1  0
  2  1  1  0
  3  4  1  0
  3  2  1  0
  4  5  1  0
  5  1  1  0
  6 11  2  0
  7  6  1  0
  8  7  2  0
  8  9  1  0
  9 10  2  0
 10 11  1  0
 10 12  1  0
 12 13  2  0
 12 16  1  0
 13 14  1  0
 14 15  1  0
 16 15  2  0
 17  2  1  0
 17 20  1  0
 17 18  1  0
 19 17  1  0
  1 21  1  1
  2 22  1  6
  3 23  1  0
  3 24  1  0
  4 25  1  0
  4 26  1  0
  5 27  1  0
  5 28  1  0
  6 29  1  0
  7 30  1  0
 15 31  1  0
M  ISO  8  21  13  22  13  23  13  24  13  25  13  26  13  27  13  28  13
M  ISO  3  29  14  30  14  31  14
M  END
>  <minimizedAffinity>  (1) 
-5.94120693

>  <minimizedRMSD>  (1) 
0.297974497

$$$$
