
     RDKit          3D

 29 30  0  0  1  0  0  0  0  0999 V2000
   47.0900   34.3840   42.1240 C   0  0  1  0  0  0  0  0  0  0  0  0
   46.4390   34.3390   40.8060 C   0  0  1  0  0  0  0  0  0  0  0  0
   47.6340   34.1750   39.8980 C   0  0  0  0  0  0  0  0  0  0  0  0
   48.6180   35.1760   40.5020 C   0  0  0  0  0  0  0  0  0  0  0  0
   48.1880   35.4220   41.9110 C   0  0  0  0  0  0  0  0  0  0  0  0
   44.5760   36.0970   44.3930 C   0  0  0  0  0  0  0  0  0  0  0  0
   45.3640   35.8550   43.2510 C   0  0  0  0  0  0  0  0  0  0  0  0
   46.2260   34.7280   43.2540 C   0  0  0  0  0  0  0  0  0  0  0  0
   46.2160   33.9760   44.3680 N   0  0  0  0  0  0  0  0  0  0  0  0
   45.4610   34.2130   45.4530 C   0  0  0  0  0  0  0  0  0  0  0  0
   44.6330   35.2790   45.4700 N   0  0  0  0  0  0  0  0  0  0  0  0
   45.5180   33.3360   46.6180 C   0  0  0  0  0  0  0  0  0  0  0  0
   46.3450   32.3870   46.6530 O   0  0  0  0  0  0  0  0  0  0  0  0
   44.6820   33.5250   47.6880 O   0  0  0  0  0  0  0  0  0  0  0  0
   45.5840   33.0660   40.7860 C   0  0  0  0  0  0  0  0  0  0  0  0
   46.1200   32.0970   41.6010 F   0  0  0  0  0  0  0  0  0  0  0  0
   45.5000   32.6890   39.4620 F   0  0  0  0  0  0  0  0  0  0  0  0
   44.3070   33.3450   41.2280 F   0  0  0  0  0  0  0  0  0  0  0  0
   47.4437   33.3858   42.4214 H   0  0  0  0  0  0  0  0  0  0  0  0
   45.8012   35.1950   40.5405 H   0  0  0  0  0  0  0  0  0  0  0  0
   47.3863   34.4333   38.8578 H   0  0  0  0  0  0  0  0  0  0  0  0
   48.0183   33.1457   39.8453 H   0  0  0  0  0  0  0  0  0  0  0  0
   49.6363   34.7603   40.4858 H   0  0  0  0  0  0  0  0  0  0  0  0
   48.6246   36.1133   39.9263 H   0  0  0  0  0  0  0  0  0  0  0  0
   49.0215   35.2646   42.6114 H   0  0  0  0  0  0  0  0  0  0  0  0
   47.8477   36.4534   42.0854 H   0  0  0  0  0  0  0  0  0  0  0  0
   43.9022   36.9663   44.4100 H   0  0  0  0  0  0  0  0  0  0  0  0
   45.3124   36.5230   42.3786 H   0  0  0  0  0  0  0  0  0  0  0  0
   44.7345   32.9203   48.4701 H   0  0  0  0  0  0  0  0  0  0  0  0
  1  8  1  0
  2  1  1  0
  3  4  1  0
  3  2  1  0
  4  5  1  0
  5  1  1  0
  6 11  2  0
  7  8  2  0
  7  6  1  0
  8  9  1  0
  9 10  2  0
 10 11  1  0
 10 12  1  0
 12 13  2  0
 12 14  1  0
 15  2  1  0
 15 18  1  0
 15 16  1  0
 17 15  1  0
  1 19  1  1
  2 20  1  6
  3 21  1  0
  3 22  1  0
  4 23  1  0
  4 24  1  0
  5 25  1  0
  5 26  1  0
  6 27  1  0
  7 28  1  0
 14 29  1  0
M  ISO  8  19  13  20  13  21  13  22  13  23  13  24  13  25  13  26  13
M  ISO  3  27  14  28  14  29   3
M  END
>  <minimizedAffinity>  (1) 
-5.8348484

>  <minimizedRMSD>  (1) 
0.125194728

$$$$
