
     RDKit          3D

 29 30  0  0  1  0  0  0  0  0999 V2000
   47.0680   34.3020   42.2020 C   0  0  1  0  0  0  0  0  0  0  0  0
   46.3720   34.3120   40.9090 C   0  0  1  0  0  0  0  0  0  0  0  0
   47.5340   34.2140   39.9480 C   0  0  0  0  0  0  0  0  0  0  0  0
   48.5330   35.1780   40.5730 C   0  0  0  0  0  0  0  0  0  0  0  0
   48.1390   35.3720   42.0080 C   0  0  0  0  0  0  0  0  0  0  0  0
   44.5890   35.8210   44.6350 C   0  0  0  0  0  0  0  0  0  0  0  0
   45.3400   35.6450   43.4630 C   0  0  0  0  0  0  0  0  0  0  0  0
   46.2460   34.5580   43.3860 C   0  0  0  0  0  0  0  0  0  0  0  0
   46.3200   33.7610   44.4640 N   0  0  0  0  0  0  0  0  0  0  0  0
   45.5940   33.9390   45.5870 C   0  0  0  0  0  0  0  0  0  0  0  0
   44.7250   34.9740   45.6720 N   0  0  0  0  0  0  0  0  0  0  0  0
   45.7670   32.9760   46.7240 C   0  0  0  0  0  0  0  0  0  0  0  0
   45.6380   31.6540   46.2810 F   0  0  0  0  0  0  0  0  0  0  0  0
   44.9200   33.2130   47.7660 F   0  0  0  0  0  0  0  0  0  0  0  0
   47.0650   33.0710   47.1850 F   0  0  0  0  0  0  0  0  0  0  0  0
   45.5420   33.0140   40.8570 C   0  0  0  0  0  0  0  0  0  0  0  0
   46.1170   32.0300   41.6060 F   0  0  0  0  0  0  0  0  0  0  0  0
   45.4200   32.6940   39.5210 F   0  0  0  0  0  0  0  0  0  0  0  0
   44.2680   33.2600   41.3460 F   0  0  0  0  0  0  0  0  0  0  0  0
   47.4487   33.2952   42.4288 H   0  0  0  0  0  0  0  0  0  0  0  0
   45.7112   35.1689   40.7113 H   0  0  0  0  0  0  0  0  0  0  0  0
   47.2458   34.5352   38.9362 H   0  0  0  0  0  0  0  0  0  0  0  0
   47.9207   33.1925   39.8173 H   0  0  0  0  0  0  0  0  0  0  0  0
   49.5473   34.7562   40.5162 H   0  0  0  0  0  0  0  0  0  0  0  0
   48.5293   36.1391   40.0379 H   0  0  0  0  0  0  0  0  0  0  0  0
   48.9932   35.2065   42.6810 H   0  0  0  0  0  0  0  0  0  0  0  0
   47.7888   36.3901   42.2336 H   0  0  0  0  0  0  0  0  0  0  0  0
   43.8815   36.6602   44.7070 H   0  0  0  0  0  0  0  0  0  0  0  0
   45.2274   36.3396   42.6175 H   0  0  0  0  0  0  0  0  0  0  0  0
  1  8  1  0
  2  1  1  0
  3  4  1  0
  3  2  1  0
  4  5  1  0
  5  1  1  0
  6 11  2  0
  7  6  1  0
  8  7  2  0
  8  9  1  0
  9 10  2  0
 10 11  1  0
 10 12  1  0
 12 15  1  0
 12 14  1  0
 13 12  1  0
 16  2  1  0
 16 19  1  0
 16 17  1  0
 18 16  1  0
  1 20  1  1
  2 21  1  6
  3 22  1  0
  3 23  1  0
  4 24  1  0
  4 25  1  0
  5 26  1  0
  5 27  1  0
  6 28  1  0
  7 29  1  0
M  ISO  8  20  13  21  13  22  13  23  13  24  13  25  13  26  13  27  13
M  ISO  2  28  14  29  14
M  END
>  <minimizedAffinity>  (1) 
-5.79848146

>  <minimizedRMSD>  (1) 
0.310959816

$$$$
