
     RDKit          3D

 28 29  0  0  1  0  0  0  0  0999 V2000
   47.0140   34.3740   42.1950 C   0  0  1  0  0  0  0  0  0  0  0  0
   46.3590   34.3370   40.8780 C   0  0  1  0  0  0  0  0  0  0  0  0
   47.5470   34.1470   39.9660 C   0  0  0  0  0  0  0  0  0  0  0  0
   48.5650   35.0910   40.5690 C   0  0  0  0  0  0  0  0  0  0  0  0
   48.1320   35.3890   41.9750 C   0  0  0  0  0  0  0  0  0  0  0  0
   44.5460   36.1540   44.4610 C   0  0  0  0  0  0  0  0  0  0  0  0
   45.3370   35.8690   43.3380 C   0  0  0  0  0  0  0  0  0  0  0  0
   46.1630   34.7310   43.3300 C   0  0  0  0  0  0  0  0  0  0  0  0
   46.1310   33.9800   44.4360 N   0  0  0  0  0  0  0  0  0  0  0  0
   45.3730   34.2460   45.5210 C   0  0  0  0  0  0  0  0  0  0  0  0
   44.5750   35.3400   45.5320 N   0  0  0  0  0  0  0  0  0  0  0  0
   45.4950   33.3010   46.5970 N   0  0  0  0  0  0  0  0  0  0  0  0
   45.4750   33.0760   40.8670 C   0  0  0  0  0  0  0  0  0  0  0  0
   46.0010   32.1030   41.6700 F   0  0  0  0  0  0  0  0  0  0  0  0
   45.3620   32.7120   39.5400 F   0  0  0  0  0  0  0  0  0  0  0  0
   44.2160   33.3980   41.3140 F   0  0  0  0  0  0  0  0  0  0  0  0
   47.3483   33.3697   42.4942 H   0  0  0  0  0  0  0  0  0  0  0  0
   45.7381   35.2046   40.6102 H   0  0  0  0  0  0  0  0  0  0  0  0
   47.3047   34.4295   38.9309 H   0  0  0  0  0  0  0  0  0  0  0  0
   47.8935   33.1049   39.9024 H   0  0  0  0  0  0  0  0  0  0  0  0
   49.5579   34.6177   40.5748 H   0  0  0  0  0  0  0  0  0  0  0  0
   48.6282   36.0179   39.9800 H   0  0  0  0  0  0  0  0  0  0  0  0
   48.9563   35.2338   42.6867 H   0  0  0  0  0  0  0  0  0  0  0  0
   47.8154   36.4316   42.1260 H   0  0  0  0  0  0  0  0  0  0  0  0
   43.9007   37.0448   44.4660 H   0  0  0  0  0  0  0  0  0  0  0  0
   45.3111   36.5358   42.4636 H   0  0  0  0  0  0  0  0  0  0  0  0
   44.9501   33.4315   47.4613 H   0  0  0  0  0  0  0  0  0  0  0  0
   46.1274   32.4933   46.5039 H   0  0  0  0  0  0  0  0  0  0  0  0
  1  8  1  0
  2  1  1  0
  3  4  1  0
  3  2  1  0
  4  5  1  0
  5  1  1  0
  6 11  2  0
  7  6  1  0
  8  7  2  0
  8  9  1  0
  9 10  2  0
 10 11  1  0
 10 12  1  0
 13  2  1  0
 13 16  1  0
 13 14  1  0
 15 13  1  0
  1 17  1  1
  2 18  1  6
  3 19  1  0
  3 20  1  0
  4 21  1  0
  4 22  1  0
  5 23  1  0
  5 24  1  0
  6 25  1  0
  7 26  1  0
 12 27  1  0
 12 28  1  0
M  ISO  8  17  13  18  13  19  13  20  13  21  13  22  13  23  13  24  13
M  ISO  2  25  14  26  14
M  END
>  <minimizedAffinity>  (1) 
-5.33004427

>  <minimizedRMSD>  (1) 
0.128849685

$$$$
