
     RDKit          3D

 27 28  0  0  1  0  0  0  0  0999 V2000
   47.0550   34.3790   42.1440 C   0  0  1  0  0  0  0  0  0  0  0  0
   46.4010   34.3500   40.8280 C   0  0  1  0  0  0  0  0  0  0  0  0
   47.5890   34.1900   39.9110 C   0  0  0  0  0  0  0  0  0  0  0  0
   48.6050   35.1320   40.5360 C   0  0  0  0  0  0  0  0  0  0  0  0
   48.1600   35.4100   41.9360 C   0  0  0  0  0  0  0  0  0  0  0  0
   44.6130   36.1420   44.4520 C   0  0  0  0  0  0  0  0  0  0  0  0
   45.4090   35.8940   43.3190 C   0  0  0  0  0  0  0  0  0  0  0  0
   46.1980   34.7160   43.2820 C   0  0  0  0  0  0  0  0  0  0  0  0
   46.1210   33.9160   44.3520 N   0  0  0  0  0  0  0  0  0  0  0  0
   45.3610   34.1490   45.4390 C   0  0  0  0  0  0  0  0  0  0  0  0
   44.5980   35.2860   45.4750 N   0  0  0  0  0  0  0  0  0  0  0  0
   45.4130   33.2150   46.4360 O   0  0  0  0  0  0  0  0  0  0  0  0
   45.5350   33.0780   40.8000 C   0  0  0  0  0  0  0  0  0  0  0  0
   46.0810   32.0980   41.5800 F   0  0  0  0  0  0  0  0  0  0  0  0
   45.4190   32.7300   39.4690 F   0  0  0  0  0  0  0  0  0  0  0  0
   44.2690   33.3650   41.2710 F   0  0  0  0  0  0  0  0  0  0  0  0
   47.4015   33.3755   42.4320 H   0  0  0  0  0  0  0  0  0  0  0  0
   45.7682   35.2129   40.5732 H   0  0  0  0  0  0  0  0  0  0  0  0
   47.3431   34.4937   38.8827 H   0  0  0  0  0  0  0  0  0  0  0  0
   47.9435   33.1523   39.8240 H   0  0  0  0  0  0  0  0  0  0  0  0
   49.5987   34.6602   40.5447 H   0  0  0  0  0  0  0  0  0  0  0  0
   48.6729   36.0660   39.9589 H   0  0  0  0  0  0  0  0  0  0  0  0
   48.9823   35.2607   42.6512 H   0  0  0  0  0  0  0  0  0  0  0  0
   47.8266   36.4466   42.0917 H   0  0  0  0  0  0  0  0  0  0  0  0
   43.9962   37.0518   44.4949 H   0  0  0  0  0  0  0  0  0  0  0  0
   45.4193   36.6012   42.4766 H   0  0  0  0  0  0  0  0  0  0  0  0
   44.8739   33.3372   47.2573 H   0  0  0  0  0  0  0  0  0  0  0  0
  1  8  1  0
  2  1  1  0
  3  4  1  0
  3  2  1  0
  4  5  1  0
  5  1  1  0
  6 11  2  0
  7  6  1  0
  8  7  2  0
  8  9  1  0
  9 10  2  0
 10 11  1  0
 10 12  1  0
 13  2  1  0
 13 16  1  0
 13 14  1  0
 15 13  1  0
  1 17  1  1
  2 18  1  6
  3 19  1  0
  3 20  1  0
  4 21  1  0
  4 22  1  0
  5 23  1  0
  5 24  1  0
  6 25  1  0
  7 26  1  0
 12 27  1  0
M  ISO  8  17  13  18  13  19  13  20  13  21  13  22  13  23  13  24  13
M  ISO  3  25  14  26  14  27   3
M  END
>  <minimizedAffinity>  (1) 
-5.22151136

>  <minimizedRMSD>  (1) 
0.0985837206

$$$$
