
     RDKit          3D

 29 29  0  0  0  0  0  0  0  0999 V2000
   46.5260   33.2940   43.5490 C   0  0  0  0  0  0  0  0  0  0  0  0
   46.4580   33.2520   46.0250 C   0  0  0  0  0  0  0  0  0  0  0  0
   46.7770   32.5790   44.8160 C   0  0  0  0  0  0  0  0  0  0  0  0
   47.3000   31.3010   44.9290 C   0  0  0  0  0  0  0  0  0  0  0  0
   47.4870   30.7420   46.1420 N   0  0  0  0  0  0  0  0  0  0  0  0
   47.1670   31.4220   47.2850 C   0  0  0  0  0  0  0  0  0  0  0  0
   46.6570   32.6660   47.2200 N   0  0  0  0  0  0  0  0  0  0  0  0
   45.2750   34.1480   43.7280 C   0  0  0  0  0  0  0  0  0  0  0  0
   46.2490   32.3120   42.4500 C   0  0  0  0  0  0  0  0  0  0  0  0
   47.6900   34.1820   43.2250 C   0  0  0  0  0  0  0  0  0  0  0  0
   48.7540   33.4100   42.5810 N   0  0  0  0  0  0  0  0  0  0  0  0
   50.0420   34.0150   42.5740 C   0  0  0  0  0  0  0  0  0  0  0  0
   50.3050   35.2280   42.9940 N   0  0  0  0  0  0  0  0  0  0  0  0
   51.1600   33.2890   42.0870 N   0  0  0  0  0  0  0  0  0  0  0  0
   49.5160   35.7820   43.3550 H   0  0  0  0  0  0  0  0  0  0  0  0
   46.0413   34.2692   45.9841 H   0  0  0  0  0  0  0  0  0  0  0  0
   47.5648   30.7377   44.0220 H   0  0  0  0  0  0  0  0  0  0  0  0
   47.3277   30.9486   48.2648 H   0  0  0  0  0  0  0  0  0  0  0  0
   45.0748   34.2847   44.8010 H   0  0  0  0  0  0  0  0  0  0  0  0
   45.4304   35.1294   43.2561 H   0  0  0  0  0  0  0  0  0  0  0  0
   44.4176   33.6458   43.2561 H   0  0  0  0  0  0  0  0  0  0  0  0
   45.9749   31.3404   42.8869 H   0  0  0  0  0  0  0  0  0  0  0  0
   45.4200   32.6815   41.8285 H   0  0  0  0  0  0  0  0  0  0  0  0
   47.1489   32.1938   41.8285 H   0  0  0  0  0  0  0  0  0  0  0  0
   47.3588   34.9808   42.5451 H   0  0  0  0  0  0  0  0  0  0  0  0
   48.0782   34.6177   44.1575 H   0  0  0  0  0  0  0  0  0  0  0  0
   48.5812   32.4864   42.1592 H   0  0  0  0  0  0  0  0  0  0  0  0
   52.0935   33.7241   42.0806 H   0  0  0  0  0  0  0  0  0  0  0  0
   51.0378   32.3270   41.7399 H   0  0  0  0  0  0  0  0  0  0  0  0
  1  8  1  0
  1  3  1  0
  2  7  2  0
  3  4  2  0
  3  2  1  0
  4  5  1  0
  5  6  2  0
  7  6  1  0
  9  1  1  0
 10  1  1  0
 11 10  1  0
 12 11  1  0
 12 13  2  0
 13 15  1  0
 14 12  1  0
  2 16  1  0
  4 17  1  0
  6 18  1  0
  8 19  1  0
  8 20  1  0
  8 21  1  0
  9 22  1  0
  9 23  1  0
  9 24  1  0
 10 25  1  0
 10 26  1  0
 11 27  1  0
 14 28  1  0
 14 29  1  0
M  ISO  8  16  14  17  14  18  14  19   8  20   8  21   8  22   8  23   8
M  ISO  3  24   8  25   8  26   8
M  END
>  <minimizedAffinity>  (1) 
-4.31347895

>  <minimizedRMSD>  (1) 
2.69734383

$$$$
