
     RDKit          3D

 29 30  0  0  0  0  0  0  0  0999 V2000
   45.1100   34.5540   42.5290 C   0  0  0  0  0  0  0  0  0  0  0  0
   46.0310   33.7650   40.3700 C   0  0  0  0  0  0  0  0  0  0  0  0
   46.2140   34.4970   41.5550 C   0  0  0  0  0  0  0  0  0  0  0  0
   47.4460   35.1420   41.7390 C   0  0  0  0  0  0  0  0  0  0  0  0
   48.4020   35.0340   40.7780 N   0  0  0  0  0  0  0  0  0  0  0  0
   48.1790   34.3110   39.6440 C   0  0  0  0  0  0  0  0  0  0  0  0
   47.0050   33.6900   39.4550 N   0  0  0  0  0  0  0  0  0  0  0  0
   44.5100   33.1520   42.6360 C   0  0  0  0  0  0  0  0  0  0  0  0
   44.0110   35.4420   42.0200 C   0  0  0  0  0  0  0  0  0  0  0  0
   45.5830   34.9960   43.8770 C   0  0  0  0  0  0  0  0  0  0  0  0
   46.0260   33.9570   44.7510 N   0  0  0  0  0  0  0  0  0  0  0  0
   45.4720   33.7640   45.9890 C   0  0  0  0  0  0  0  0  0  0  0  0
   46.0350   32.7280   46.6740 C   0  0  0  0  0  0  0  0  0  0  0  0
   46.9760   32.2500   45.8410 N   0  0  0  0  0  0  0  0  0  0  0  0
   46.9550   32.9860   44.7160 C   0  0  0  0  0  0  0  0  0  0  0  0
   45.0766   33.2477   40.1921 H   0  0  0  0  0  0  0  0  0  0  0  0
   47.6365   35.7283   42.6500 H   0  0  0  0  0  0  0  0  0  0  0  0
   48.9663   34.2364   38.8795 H   0  0  0  0  0  0  0  0  0  0  0  0
   44.3947   32.8825   43.6962 H   0  0  0  0  0  0  0  0  0  0  0  0
   43.5261   33.1357   42.1444 H   0  0  0  0  0  0  0  0  0  0  0  0
   45.1775   32.4290   42.1444 H   0  0  0  0  0  0  0  0  0  0  0  0
   43.4693   35.8797   42.8714 H   0  0  0  0  0  0  0  0  0  0  0  0
   44.4438   36.2469   41.4079 H   0  0  0  0  0  0  0  0  0  0  0  0
   43.3149   34.8498   41.4079 H   0  0  0  0  0  0  0  0  0  0  0  0
   46.4211   35.6929   43.7290 H   0  0  0  0  0  0  0  0  0  0  0  0
   44.7080   35.4470   44.3679 H   0  0  0  0  0  0  0  0  0  0  0  0
   44.6554   34.3824   46.3900 H   0  0  0  0  0  0  0  0  0  0  0  0
   45.7776   32.3655   47.6801 H   0  0  0  0  0  0  0  0  0  0  0  0
   47.6246   32.8126   43.8607 H   0  0  0  0  0  0  0  0  0  0  0  0
  1  8  1  0
  1 10  1  0
  2  3  2  0
  3  4  1  0
  3  1  1  0
  5  4  2  0
  6  5  1  0
  7  6  2  0
  7  2  1  0
  9  1  1  0
 10 11  1  0
 11 12  1  0
 12 13  2  0
 14 13  1  0
 15 11  1  0
 15 14  2  0
  2 16  1  0
  4 17  1  0
  6 18  1  0
  8 19  1  0
  8 20  1  0
  8 21  1  0
  9 22  1  0
  9 23  1  0
  9 24  1  0
 10 25  1  0
 10 26  1  0
 12 27  1  0
 13 28  1  0
 15 29  1  0
M  ISO  8  16  14  17  14  18  14  19   8  20   8  21   8  22   8  23   8
M  ISO  6  24   8  25   8  26   8  27  14  28  14  29  14
M  END
>  <minimizedAffinity>  (1) 
-4.02706146

>  <minimizedRMSD>  (1) 
4.66489792

$$$$
