
     RDKit          3D

 30 31  0  0  0  0  0  0  0  0999 V2000
   47.8640   33.4260   39.2050 C   0  0  0  0  0  0  0  0  0  0  0  0
   49.5590   32.2840   37.8250 C   0  0  0  0  0  0  0  0  0  0  0  0
   49.0520   32.5490   39.1290 C   0  0  0  0  0  0  0  0  0  0  0  0
   49.7120   31.9660   40.1970 C   0  0  0  0  0  0  0  0  0  0  0  0
   50.7950   31.1800   39.9590 N   0  0  0  0  0  0  0  0  0  0  0  0
   51.2510   30.9480   38.7090 C   0  0  0  0  0  0  0  0  0  0  0  0
   50.6400   31.4950   37.6460 N   0  0  0  0  0  0  0  0  0  0  0  0
   47.3290   33.6720   37.8170 C   0  0  0  0  0  0  0  0  0  0  0  0
   48.2360   34.7470   39.8010 C   0  0  0  0  0  0  0  0  0  0  0  0
   46.7970   32.7500   40.0430 C   0  0  0  0  0  0  0  0  0  0  0  0
   46.4360   33.5600   41.2240 C   0  0  0  0  0  0  0  0  0  0  0  0
   45.4310   34.5050   41.2770 C   0  0  0  0  0  0  0  0  0  0  0  0
   45.1370   35.2330   42.4100 C   0  0  0  0  0  0  0  0  0  0  0  0
   45.8770   35.0070   43.5310 N   0  0  0  0  0  0  0  0  0  0  0  0
   46.8570   34.0960   43.5000 C   0  0  0  0  0  0  0  0  0  0  0  0
   47.1270   33.3950   42.3860 N   0  0  0  0  0  0  0  0  0  0  0  0
   49.0624   32.7289   36.9501 H   0  0  0  0  0  0  0  0  0  0  0  0
   49.3640   32.1369   41.2264 H   0  0  0  0  0  0  0  0  0  0  0  0
   52.1311   30.3050   38.5606 H   0  0  0  0  0  0  0  0  0  0  0  0
   46.3315   34.1307   37.8845 H   0  0  0  0  0  0  0  0  0  0  0  0
   48.0078   34.3484   37.2769 H   0  0  0  0  0  0  0  0  0  0  0  0
   47.2574   32.7164   37.2769 H   0  0  0  0  0  0  0  0  0  0  0  0
   48.2152   34.6731   40.8983 H   0  0  0  0  0  0  0  0  0  0  0  0
   49.2477   35.0261   39.4714 H   0  0  0  0  0  0  0  0  0  0  0  0
   47.5186   35.5130   39.4714 H   0  0  0  0  0  0  0  0  0  0  0  0
   45.8994   32.6010   39.4249 H   0  0  0  0  0  0  0  0  0  0  0  0
   47.1964   31.7878   40.3960 H   0  0  0  0  0  0  0  0  0  0  0  0
   44.8353   34.6860   40.3701 H   0  0  0  0  0  0  0  0  0  0  0  0
   44.3264   35.9766   42.4089 H   0  0  0  0  0  0  0  0  0  0  0  0
   47.4544   33.9173   44.4062 H   0  0  0  0  0  0  0  0  0  0  0  0
  1  9  1  0
  1 10  1  0
  2  3  2  0
  3  1  1  0
  3  4  1  0
  5  4  2  0
  6  5  1  0
  7  2  1  0
  7  6  2  0
  8  1  1  0
 10 11  1  0
 11 12  2  0
 11 16  1  0
 12 13  1  0
 13 14  2  0
 15 14  1  0
 16 15  2  0
  2 17  1  0
  4 18  1  0
  6 19  1  0
  8 20  1  0
  8 21  1  0
  8 22  1  0
  9 23  1  0
  9 24  1  0
  9 25  1  0
 10 26  1  0
 10 27  1  0
 12 28  1  0
 13 29  1  0
 15 30  1  0
M  ISO  8  17  14  18  14  19  14  20   8  21   8  22   8  23   8  24   8
M  ISO  6  25   8  26   8  27   8  28  14  29  14  30  14
M  END
>  <minimizedAffinity>  (1) 
-3.41515732

>  <minimizedRMSD>  (1) 
6.04069328

$$$$
