
     RDKit          3D

 23 23  0  0  0  0  0  0  0  0999 V2000
   45.5570   34.7110   42.6870 C   0  0  0  0  0  0  0  0  0  0  0  0
   45.1940   34.3930   45.1070 C   0  0  0  0  0  0  0  0  0  0  0  0
   45.9120   34.0070   43.9430 C   0  0  0  0  0  0  0  0  0  0  0  0
   46.8670   33.0160   44.1000 C   0  0  0  0  0  0  0  0  0  0  0  0
   47.0800   32.4640   45.3130 N   0  0  0  0  0  0  0  0  0  0  0  0
   46.3730   32.8590   46.4080 C   0  0  0  0  0  0  0  0  0  0  0  0
   45.4450   33.8100   46.3020 N   0  0  0  0  0  0  0  0  0  0  0  0
   45.3170   36.1690   42.9880 C   0  0  0  0  0  0  0  0  0  0  0  0
   44.2830   34.1260   42.1330 C   0  0  0  0  0  0  0  0  0  0  0  0
   46.7050   34.5590   41.7110 C   0  0  0  0  0  0  0  0  0  0  0  0
   47.6430   35.5430   41.9750 O   0  0  0  0  0  0  0  0  0  0  0  0
   44.4244   35.1757   45.0356 H   0  0  0  0  0  0  0  0  0  0  0  0
   47.4537   32.6778   43.2332 H   0  0  0  0  0  0  0  0  0  0  0  0
   46.5686   32.3912   47.3842 H   0  0  0  0  0  0  0  0  0  0  0  0
   45.2923   36.3193   44.0774 H   0  0  0  0  0  0  0  0  0  0  0  0
   46.1281   36.7715   42.5531 H   0  0  0  0  0  0  0  0  0  0  0  0
   44.3556   36.4798   42.5531 H   0  0  0  0  0  0  0  0  0  0  0  0
   43.6267   33.8246   42.9628 H   0  0  0  0  0  0  0  0  0  0  0  0
   43.7715   34.8794   41.5160 H   0  0  0  0  0  0  0  0  0  0  0  0
   44.5211   33.2470   41.5160 H   0  0  0  0  0  0  0  0  0  0  0  0
   46.3331   34.6683   40.6816 H   0  0  0  0  0  0  0  0  0  0  0  0
   47.1625   33.5647   41.8211 H   0  0  0  0  0  0  0  0  0  0  0  0
   47.7437   35.6487   42.9542 H   0  0  0  0  0  0  0  0  0  0  0  0
  1  8  1  0
  1  3  1  0
  2  7  2  0
  3  4  2  0
  3  2  1  0
  4  5  1  0
  5  6  2  0
  7  6  1  0
  9  1  1  0
 10 11  1  0
 10  1  1  0
  2 12  1  0
  4 13  1  0
  6 14  1  0
  8 15  1  0
  8 16  1  0
  8 17  1  0
  9 18  1  0
  9 19  1  0
  9 20  1  0
 10 21  1  0
 10 22  1  0
 11 23  1  0
M  ISO  8  12  14  13  14  14  14  15   8  16   8  17   8  18   8  19   8
M  ISO  4  20   8  21   8  22   8  23   3
M  END
>  <minimizedAffinity>  (1) 
-3.28614211

>  <minimizedRMSD>  (1) 
0.573513091

$$$$
