
     RDKit          3D

 37 38  0  0  1  0  0  0  0  0999 V2000
   46.7040   35.1050   42.7810 C   0  0  0  0  0  0  0  0  0  0  0  0
   47.4520   34.4550   41.7380 N   0  0  0  0  0  0  0  0  0  0  0  0
   47.8880   33.1980   42.1770 C   0  0  0  0  0  0  0  0  0  0  0  0
   49.3580   32.9820   42.0830 C   0  0  0  0  0  0  0  0  0  0  0  0
   50.2280   34.1530   42.2720 C   0  0  0  0  0  0  0  0  0  0  0  0
   49.5470   35.4800   42.1650 C   0  0  0  0  0  0  0  0  0  0  0  0
   48.3990   35.3740   41.2100 C   0  0  1  0  0  0  0  0  0  0  0  0
   48.8100   35.1720   39.8040 C   0  0  0  0  0  0  0  0  0  0  0  0
   45.3570   34.4610   43.0500 C   0  0  1  0  0  0  0  0  0  0  0  0
   44.6360   35.0270   45.4360 C   0  0  0  0  0  0  0  0  0  0  0  0
   45.2580   34.1760   44.4860 C   0  0  0  0  0  0  0  0  0  0  0  0
   45.8220   32.9990   44.9610 C   0  0  0  0  0  0  0  0  0  0  0  0
   45.7600   32.7100   46.2860 N   0  0  0  0  0  0  0  0  0  0  0  0
   45.1600   33.5430   47.1650 C   0  0  0  0  0  0  0  0  0  0  0  0
   44.5890   34.7190   46.7330 N   0  0  0  0  0  0  0  0  0  0  0  0
   44.2920   35.4610   42.6470 C   0  0  0  0  0  0  0  0  0  0  0  0
   46.5373   36.1524   42.4892 H   0  0  0  0  0  0  0  0  0  0  0  0
   47.2945   35.0188   43.7050 H   0  0  0  0  0  0  0  0  0  0  0  0
   47.5910   33.0807   43.2296 H   0  0  0  0  0  0  0  0  0  0  0  0
   47.4218   32.4572   41.5108 H   0  0  0  0  0  0  0  0  0  0  0  0
   49.6321   32.2405   42.8479 H   0  0  0  0  0  0  0  0  0  0  0  0
   49.5302   32.6688   41.0427 H   0  0  0  0  0  0  0  0  0  0  0  0
   50.6796   34.0827   43.2725 H   0  0  0  0  0  0  0  0  0  0  0  0
   50.9621   34.1214   41.4534 H   0  0  0  0  0  0  0  0  0  0  0  0
   49.1743   35.7821   43.1548 H   0  0  0  0  0  0  0  0  0  0  0  0
   50.2618   36.2314   41.7984 H   0  0  0  0  0  0  0  0  0  0  0  0
   47.8842   36.3428   41.1303 H   0  0  0  0  0  0  0  0  0  0  0  0
   49.7969   34.6870   39.7766 H   0  0  0  0  0  0  0  0  0  0  0  0
   48.0733   34.5333   39.2948 H   0  0  0  0  0  0  0  0  0  0  0  0
   48.8656   36.1454   39.2948 H   0  0  0  0  0  0  0  0  0  0  0  0
   45.2332   33.5244   42.4866 H   0  0  0  0  0  0  0  0  0  0  0  0
   44.1797   35.9673   45.0931 H   0  0  0  0  0  0  0  0  0  0  0  0
   46.3168   32.3040   44.2666 H   0  0  0  0  0  0  0  0  0  0  0  0
   45.1276   33.2797   48.2325 H   0  0  0  0  0  0  0  0  0  0  0  0
   43.8333   35.8917   43.5492 H   0  0  0  0  0  0  0  0  0  0  0  0
   44.7496   36.2633   42.0496 H   0  0  0  0  0  0  0  0  0  0  0  0
   43.5201   34.9538   42.0496 H   0  0  0  0  0  0  0  0  0  0  0  0
  1  9  1  0
  2  3  1  0
  2  1  1  0
  4  3  1  0
  4  5  1  0
  6  5  1  0
  7  2  1  0
  7  6  1  0
  8  7  1  0
  9 11  1  0
 10 15  2  0
 11 12  2  0
 11 10  1  0
 12 13  1  0
 13 14  2  0
 15 14  1  0
 16  9  1  0
  1 17  1  0
  1 18  1  0
  3 19  1  0
  3 20  1  0
  4 21  1  0
  4 22  1  0
  5 23  1  0
  5 24  1  0
  6 25  1  0
  6 26  1  0
  7 27  1  6
  8 28  1  0
  8 29  1  0
  8 30  1  0
  9 31  1  6
 10 32  1  0
 12 33  1  0
 14 34  1  0
 16 35  1  0
 16 36  1  0
 16 37  1  0
M  ISO  8  17   8  18   8  19  13  20  13  21  13  22  13  23  13  24  13
M  ISO  8  25  13  26  13  27  13  28   8  29   8  30   8  31   8  32  14
M  ISO  5  33  14  34  14  35   8  36   8  37   8
M  END
>  <minimizedAffinity>  (1) 
-4.18611145

>  <minimizedRMSD>  (1) 
0.78950572

$$$$
