
     RDKit          3D

 38 39  0  0  0  0  0  0  0  0999 V2000
   44.8880   34.0000   41.4750 C   0  0  0  0  0  0  0  0  0  0  0  0
   45.5410   33.1150   43.6860 C   0  0  0  0  0  0  0  0  0  0  0  0
   44.9900   34.2020   42.9460 C   0  0  0  0  0  0  0  0  0  0  0  0
   44.5910   35.3090   43.6680 C   0  0  0  0  0  0  0  0  0  0  0  0
   44.7360   35.3170   45.0110 N   0  0  0  0  0  0  0  0  0  0  0  0
   45.2640   34.2680   45.6850 C   0  0  0  0  0  0  0  0  0  0  0  0
   45.6610   33.1810   45.0290 N   0  0  0  0  0  0  0  0  0  0  0  0
   44.5720   32.5790   41.1700 C   0  0  0  0  0  0  0  0  0  0  0  0
   46.2770   34.2640   40.8740 C   0  0  0  0  0  0  0  0  0  0  0  0
   43.9260   34.9780   40.9010 C   0  0  0  0  0  0  0  0  0  0  0  0
   42.7370   34.4660   40.1890 C   0  0  0  0  0  0  0  0  0  0  0  0
   42.2110   35.2650   39.0560 C   0  0  0  0  0  0  0  0  0  0  0  0
   40.6650   35.1970   38.9950 C   0  0  0  0  0  0  0  0  0  0  0  0
   40.0190   35.8900   40.1460 C   0  0  0  0  0  0  0  0  0  0  0  0
   41.0110   35.8020   41.3140 C   0  0  0  0  0  0  0  0  0  0  0  0
   41.6030   34.4170   41.2310 C   0  0  0  0  0  0  0  0  0  0  0  0
   45.8728   32.2103   43.1554 H   0  0  0  0  0  0  0  0  0  0  0  0
   44.1577   36.1790   43.1529 H   0  0  0  0  0  0  0  0  0  0  0  0
   45.3650   34.3149   46.7793 H   0  0  0  0  0  0  0  0  0  0  0  0
   44.4479   32.0211   42.1099 H   0  0  0  0  0  0  0  0  0  0  0  0
   43.6405   32.5274   40.5873 H   0  0  0  0  0  0  0  0  0  0  0  0
   45.3939   32.1375   40.5873 H   0  0  0  0  0  0  0  0  0  0  0  0
   47.0071   34.4028   41.6850 H   0  0  0  0  0  0  0  0  0  0  0  0
   46.5769   33.4068   40.2533 H   0  0  0  0  0  0  0  0  0  0  0  0
   46.2415   35.1715   40.2533 H   0  0  0  0  0  0  0  0  0  0  0  0
   43.5631   35.6015   41.7314 H   0  0  0  0  0  0  0  0  0  0  0  0
   44.5034   35.4958   40.1209 H   0  0  0  0  0  0  0  0  0  0  0  0
   43.0571   33.5105   39.7479 H   0  0  0  0  0  0  0  0  0  0  0  0
   42.5197   36.3133   39.1820 H   0  0  0  0  0  0  0  0  0  0  0  0
   42.6157   34.8522   38.1202 H   0  0  0  0  0  0  0  0  0  0  0  0
   40.3272   35.6720   38.0621 H   0  0  0  0  0  0  0  0  0  0  0  0
   40.3744   34.1369   39.0363 H   0  0  0  0  0  0  0  0  0  0  0  0
   39.8198   36.9420   39.8940 H   0  0  0  0  0  0  0  0  0  0  0  0
   39.0561   35.4247   40.4035 H   0  0  0  0  0  0  0  0  0  0  0  0
   41.7975   36.5639   41.2096 H   0  0  0  0  0  0  0  0  0  0  0  0
   40.5208   35.9807   42.2824 H   0  0  0  0  0  0  0  0  0  0  0  0
   40.8334   33.6967   40.9164 H   0  0  0  0  0  0  0  0  0  0  0  0
   41.9877   34.0982   42.2110 H   0  0  0  0  0  0  0  0  0  0  0  0
  1  3  1  0
  2  7  2  0
  3  4  2  0
  3  2  1  0
  4  5  1  0
  5  6  2  0
  7  6  1  0
  8  1  1  0
  9  1  1  0
 10  1  1  0
 11 10  1  0
 11 16  1  0
 12 11  1  0
 13 12  1  0
 13 14  1  0
 14 15  1  0
 16 15  1  0
  2 17  1  0
  4 18  1  0
  6 19  1  0
  8 20  1  0
  8 21  1  0
  8 22  1  0
  9 23  1  0
  9 24  1  0
  9 25  1  0
 10 26  1  0
 10 27  1  0
 11 28  1  0
 12 29  1  0
 12 30  1  0
 13 31  1  0
 13 32  1  0
 14 33  1  0
 14 34  1  0
 15 35  1  0
 15 36  1  0
 16 37  1  0
 16 38  1  0
M  ISO  8  17  14  18  14  19  14  20   8  21   8  22   8  23   8  24   8
M  ISO  8  25   8  26   8  27   8  28  13  29  13  30  13  31  13  32  13
M  ISO  6  33  13  34  13  35  13  36  13  37  13  38  13
M  END
>  <minimizedAffinity>  (1) 
-4.86334848

>  <minimizedRMSD>  (1) 
6.01035833

$$$$
