
     RDKit          3D

 49 52  0  0  1  0  0  0  0  0999 V2000
   42.4160   34.1480   40.6620 C   0  0  2  0  0  0  0  0  0  0  0  0
   42.3610   34.6980   39.2680 C   0  0  0  0  0  0  0  0  0  0  0  0
   40.9280   34.7560   38.7410 C   0  0  0  0  0  0  0  0  0  0  0  0
   40.0010   35.6190   39.5010 C   0  0  0  0  0  0  0  0  0  0  0  0
   40.6460   35.8300   40.8780 C   0  0  0  0  0  0  0  0  0  0  0  0
   41.0900   34.4700   41.3000 C   0  0  1  0  0  0  0  0  0  0  0  0
   40.0990   33.4370   41.2110 N   0  0  0  0  0  0  0  0  0  0  0  0
   38.8520   33.3840   40.6910 C   0  0  0  0  0  0  0  0  0  0  0  0
   38.3360   32.1550   40.8640 N   0  0  0  0  0  0  0  0  0  0  0  0
   39.2870   31.4240   41.5090 C   0  0  0  0  0  0  0  0  0  0  0  0
   39.1600   30.1000   41.8790 C   0  0  0  0  0  0  0  0  0  0  0  0
   40.2170   29.5420   42.5120 N   0  0  0  0  0  0  0  0  0  0  0  0
   41.3150   30.2940   42.7440 C   0  0  0  0  0  0  0  0  0  0  0  0
   41.3960   31.5610   42.3720 N   0  0  0  0  0  0  0  0  0  0  0  0
   40.3900   32.2220   41.7280 C   0  0  0  0  0  0  0  0  0  0  0  0
   43.4780   34.7940   41.5020 C   0  0  0  0  0  0  0  0  0  0  0  0
   44.6510   34.0050   41.8920 C   0  0  0  0  0  0  0  0  0  0  0  0
   45.5190   32.8790   43.9170 C   0  0  0  0  0  0  0  0  0  0  0  0
   44.9230   34.0150   43.3290 C   0  0  0  0  0  0  0  0  0  0  0  0
   44.6420   35.0510   44.1770 C   0  0  0  0  0  0  0  0  0  0  0  0
   44.9200   34.9770   45.4950 N   0  0  0  0  0  0  0  0  0  0  0  0
   45.4960   33.8570   46.0180 C   0  0  0  0  0  0  0  0  0  0  0  0
   45.7870   32.8240   45.2290 N   0  0  0  0  0  0  0  0  0  0  0  0
   44.5910   32.5880   41.3930 C   0  0  0  0  0  0  0  0  0  0  0  0
   45.8940   34.5710   41.1670 C   0  0  0  0  0  0  0  0  0  0  0  0
   42.6384   33.0723   40.6047 H   0  0  0  0  0  0  0  0  0  0  0  0
   42.7823   35.7141   39.2685 H   0  0  0  0  0  0  0  0  0  0  0  0
   42.9413   34.0318   38.6127 H   0  0  0  0  0  0  0  0  0  0  0  0
   40.9632   35.1267   37.7060 H   0  0  0  0  0  0  0  0  0  0  0  0
   40.5320   33.7341   38.8353 H   0  0  0  0  0  0  0  0  0  0  0  0
   39.8711   36.5837   38.9887 H   0  0  0  0  0  0  0  0  0  0  0  0
   39.0060   35.1586   39.5902 H   0  0  0  0  0  0  0  0  0  0  0  0
   41.5051   36.5129   40.8035 H   0  0  0  0  0  0  0  0  0  0  0  0
   39.9496   36.2830   41.5990 H   0  0  0  0  0  0  0  0  0  0  0  0
   41.2435   34.5015   42.3888 H   0  0  0  0  0  0  0  0  0  0  0  0
   38.3364   34.2222   40.1994 H   0  0  0  0  0  0  0  0  0  0  0  0
   38.2445   29.5273   41.6694 H   0  0  0  0  0  0  0  0  0  0  0  0
   42.1719   29.8368   43.2604 H   0  0  0  0  0  0  0  0  0  0  0  0
   43.8471   35.6656   40.9415 H   0  0  0  0  0  0  0  0  0  0  0  0
   42.9707   35.0032   42.4554 H   0  0  0  0  0  0  0  0  0  0  0  0
   45.7701   32.0165   43.2822 H   0  0  0  0  0  0  0  0  0  0  0  0
   44.1792   35.9645   43.7753 H   0  0  0  0  0  0  0  0  0  0  0  0
   45.7208   33.8065   47.0936 H   0  0  0  0  0  0  0  0  0  0  0  0
   44.5618   31.8985   42.2496 H   0  0  0  0  0  0  0  0  0  0  0  0
   43.6863   32.4524   40.7822 H   0  0  0  0  0  0  0  0  0  0  0  0
   45.4810   32.3764   40.7822 H   0  0  0  0  0  0  0  0  0  0  0  0
   46.6313   34.9067   41.9111 H   0  0  0  0  0  0  0  0  0  0  0  0
   46.3397   33.7871   40.5371 H   0  0  0  0  0  0  0  0  0  0  0  0
   45.5953   35.4219   40.5371 H   0  0  0  0  0  0  0  0  0  0  0  0
  1  6  1  0
  1 16  1  0
  2  1  1  0
  3  2  1  0
  3  4  1  0
  4  5  1  0
  5  6  1  0
  7  6  1  0
  7 15  1  0
  8  9  2  0
  8  7  1  0
  9 10  1  0
 10 15  2  0
 10 11  1  0
 11 12  2  0
 12 13  1  0
 14 13  2  0
 15 14  1  0
 16 17  1  0
 17 19  1  0
 18 23  2  0
 19 18  1  0
 19 20  2  0
 20 21  1  0
 21 22  2  0
 23 22  1  0
 24 17  1  0
 25 17  1  0
  1 26  1  6
  2 27  1  0
  2 28  1  0
  3 29  1  0
  3 30  1  0
  4 31  1  0
  4 32  1  0
  5 33  1  0
  5 34  1  0
  6 35  1  1
  8 36  1  0
 11 37  1  0
 13 38  1  0
 16 39  1  0
 16 40  1  0
 18 41  1  0
 20 42  1  0
 22 43  1  0
 24 44  1  0
 24 45  1  0
 24 46  1  0
 25 47  1  0
 25 48  1  0
 25 49  1  0
M  ISO  8  26  13  27  13  28  13  29  13  30  13  31  13  32  13  33  13
M  ISO  8  34  13  35  13  36  14  37  14  38  14  39   8  40   8  41  14
M  ISO  8  42  14  43  14  44   8  45   8  46   8  47   8  48   8  49   8
M  END
>  <minimizedAffinity>  (1) 
-6.24368238

>  <minimizedRMSD>  (1) 
0.887583554

$$$$
