
     RDKit          3D

 51 53  0  0  1  0  0  0  0  0999 V2000
   42.7500   34.3980   40.2770 C   0  0  2  0  0  0  0  0  0  0  0  0
   42.4240   35.1620   39.0190 C   0  0  0  0  0  0  0  0  0  0  0  0
   40.9290   35.1140   38.7190 C   0  0  0  0  0  0  0  0  0  0  0  0
   40.0760   35.7640   39.7300 C   0  0  0  0  0  0  0  0  0  0  0  0
   40.9010   35.8440   41.0000 C   0  0  0  0  0  0  0  0  0  0  0  0
   41.5430   34.4810   41.1540 C   0  0  1  0  0  0  0  0  0  0  0  0
   39.1240   30.9650   41.4410 C   0  0  0  0  0  0  0  0  0  0  0  0
   38.5020   32.1370   41.1590 C   0  0  0  0  0  0  0  0  0  0  0  0
   39.2700   33.2720   41.0600 C   0  0  0  0  0  0  0  0  0  0  0  0
   40.6190   33.3680   41.2130 C   0  0  0  0  0  0  0  0  0  0  0  0
   41.2190   32.1270   41.5050 C   0  0  0  0  0  0  0  0  0  0  0  0
   40.4860   30.9640   41.6130 C   0  0  0  0  0  0  0  0  0  0  0  0
   38.1780   29.5000   41.5750 S   0  0  0  0  0  0  0  0  0  0  0  0
   37.2250   29.3350   40.4330 O   0  0  0  0  0  0  0  0  0  0  0  0
   39.0790   28.2980   41.7280 O   0  0  0  0  0  0  0  0  0  0  0  0
   43.8790   35.0540   41.0270 C   0  0  0  0  0  0  0  0  0  0  0  0
   44.8840   34.2220   41.6900 C   0  0  0  0  0  0  0  0  0  0  0  0
   45.4480   33.3200   43.9290 C   0  0  0  0  0  0  0  0  0  0  0  0
   44.9200   34.3780   43.1450 C   0  0  0  0  0  0  0  0  0  0  0  0
   44.4810   35.4860   43.8210 C   0  0  0  0  0  0  0  0  0  0  0  0
   44.5510   35.5590   45.1680 N   0  0  0  0  0  0  0  0  0  0  0  0
   45.0650   34.5230   45.8910 C   0  0  0  0  0  0  0  0  0  0  0  0
   45.5070   33.4180   45.2740 N   0  0  0  0  0  0  0  0  0  0  0  0
   44.7530   32.7650   41.3310 C   0  0  0  0  0  0  0  0  0  0  0  0
   46.2780   34.5710   41.1340 C   0  0  0  0  0  0  0  0  0  0  0  0
   43.0333   33.3671   40.0183 H   0  0  0  0  0  0  0  0  0  0  0  0
   42.7315   36.2105   39.1456 H   0  0  0  0  0  0  0  0  0  0  0  0
   42.9638   34.6994   38.1796 H   0  0  0  0  0  0  0  0  0  0  0  0
   40.7572   35.6130   37.7539 H   0  0  0  0  0  0  0  0  0  0  0  0
   40.6477   34.0506   38.7130 H   0  0  0  0  0  0  0  0  0  0  0  0
   39.7926   36.7732   39.3964 H   0  0  0  0  0  0  0  0  0  0  0  0
   39.1480   35.1963   39.8928 H   0  0  0  0  0  0  0  0  0  0  0  0
   41.6717   36.6236   40.9090 H   0  0  0  0  0  0  0  0  0  0  0  0
   40.2826   36.1039   41.8718 H   0  0  0  0  0  0  0  0  0  0  0  0
   41.9427   34.3621   42.1719 H   0  0  0  0  0  0  0  0  0  0  0  0
   37.4124   32.1776   41.0135 H   0  0  0  0  0  0  0  0  0  0  0  0
   38.7357   34.2061   40.8319 H   0  0  0  0  0  0  0  0  0  0  0  0
   42.3083   32.0845   41.6517 H   0  0  0  0  0  0  0  0  0  0  0  0
   41.0014   30.0193   41.8409 H   0  0  0  0  0  0  0  0  0  0  0  0
   37.4113   29.6052   42.7055 H   0  0  0  0  0  0  0  0  0  0  0  0
   44.4147   35.6897   40.3066 H   0  0  0  0  0  0  0  0  0  0  0  0
   43.3735   35.5622   41.8614 H   0  0  0  0  0  0  0  0  0  0  0  0
   45.8140   32.4081   43.4345 H   0  0  0  0  0  0  0  0  0  0  0  0
   44.0635   36.3324   43.2559 H   0  0  0  0  0  0  0  0  0  0  0  0
   45.1172   34.5946   46.9874 H   0  0  0  0  0  0  0  0  0  0  0  0
   44.6990   32.1642   42.2508 H   0  0  0  0  0  0  0  0  0  0  0  0
   43.8376   32.6138   40.7400 H   0  0  0  0  0  0  0  0  0  0  0  0
   45.6267   32.4530   40.7400 H   0  0  0  0  0  0  0  0  0  0  0  0
   46.9727   34.7449   41.9689 H   0  0  0  0  0  0  0  0  0  0  0  0
   46.6463   33.7374   40.5181 H   0  0  0  0  0  0  0  0  0  0  0  0
   46.2101   35.4799   40.5181 H   0  0  0  0  0  0  0  0  0  0  0  0
  1 16  1  0
  1  6  1  0
  2  1  1  0
  3  2  1  0
  3  4  1  0
  4  5  1  0
  5  6  1  0
  6 10  1  0
  7 13  1  0
  7 12  2  0
  8  7  1  0
  9  8  2  0
  9 10  1  0
 10 11  2  0
 11 12  1  0
 13 15  2  0
 14 13  2  0
 16 17  1  0
 17 19  1  0
 18 23  2  0
 19 20  2  0
 19 18  1  0
 20 21  1  0
 21 22  2  0
 23 22  1  0
 24 17  1  0
 25 17  1  0
  1 26  1  6
  2 27  1  0
  2 28  1  0
  3 29  1  0
  3 30  1  0
  4 31  1  0
  4 32  1  0
  5 33  1  0
  5 34  1  0
  6 35  1  1
  8 36  1  0
  9 37  1  0
 11 38  1  0
 12 39  1  0
 13 40  1  0
 16 41  1  0
 16 42  1  0
 18 43  1  0
 20 44  1  0
 22 45  1  0
 24 46  1  0
 24 47  1  0
 24 48  1  0
 25 49  1  0
 25 50  1  0
 25 51  1  0
M  ISO  8  26  13  27  13  28  13  29  13  30  13  31  13  32  13  33  13
M  ISO  8  34  13  35  13  36  14  37  14  38  14  39  14  40  11  41   8
M  ISO  8  42   8  43  14  44  14  45  14  46   8  47   8  48   8  49   8
M  ISO  2  50   8  51   8
M  END
>  <minimizedAffinity>  (1) 
-6.23456526

>  <minimizedRMSD>  (1) 
0.583559573

$$$$
