
     RDKit          3D

 52 55  0  0  1  0  0  0  0  0999 V2000
   42.7360   34.5260   40.1570 C   0  0  2  0  0  0  0  0  0  0  0  0
   42.2060   35.4540   39.1090 C   0  0  0  0  0  0  0  0  0  0  0  0
   40.7000   35.4140   38.9750 C   0  0  0  0  0  0  0  0  0  0  0  0
   39.8900   35.6610   40.1760 C   0  0  0  0  0  0  0  0  0  0  0  0
   40.8830   35.6260   41.3440 C   0  0  0  0  0  0  0  0  0  0  0  0
   41.5980   34.3470   41.1770 C   0  0  1  0  0  0  0  0  0  0  0  0
   40.8450   33.1140   41.0300 C   0  0  0  0  0  0  0  0  0  0  0  0
   39.7750   32.7000   41.7220 N   0  0  0  0  0  0  0  0  0  0  0  0
   39.0620   31.6110   41.6020 C   0  0  0  0  0  0  0  0  0  0  0  0
   39.3510   30.6860   40.6750 N   0  0  0  0  0  0  0  0  0  0  0  0
   40.4100   30.9570   39.8930 C   0  0  0  0  0  0  0  0  0  0  0  0
   40.7200   30.0060   38.9450 C   0  0  0  0  0  0  0  0  0  0  0  0
   41.7980   30.2020   38.1100 C   0  0  0  0  0  0  0  0  0  0  0  0
   42.5520   31.3500   38.2360 C   0  0  0  0  0  0  0  0  0  0  0  0
   42.1780   32.2480   39.2060 C   0  0  0  0  0  0  0  0  0  0  0  0
   41.1160   32.1260   40.0760 C   0  0  0  0  0  0  0  0  0  0  0  0
   43.8930   35.1170   40.9170 C   0  0  0  0  0  0  0  0  0  0  0  0
   44.8200   34.2110   41.6020 C   0  0  0  0  0  0  0  0  0  0  0  0
   45.4090   33.3710   43.8550 C   0  0  0  0  0  0  0  0  0  0  0  0
   44.8770   34.4050   43.0510 C   0  0  0  0  0  0  0  0  0  0  0  0
   44.4400   35.5200   43.7120 C   0  0  0  0  0  0  0  0  0  0  0  0
   44.5240   35.6010   45.0640 N   0  0  0  0  0  0  0  0  0  0  0  0
   45.0370   34.5920   45.7900 C   0  0  0  0  0  0  0  0  0  0  0  0
   45.4770   33.4830   45.1890 N   0  0  0  0  0  0  0  0  0  0  0  0
   44.5500   32.7640   41.2840 C   0  0  0  0  0  0  0  0  0  0  0  0
   46.2400   34.4310   41.0340 C   0  0  0  0  0  0  0  0  0  0  0  0
   43.0727   33.5976   39.6726 H   0  0  0  0  0  0  0  0  0  0  0  0
   42.5055   36.4801   39.3686 H   0  0  0  0  0  0  0  0  0  0  0  0
   42.6258   35.1285   38.1457 H   0  0  0  0  0  0  0  0  0  0  0  0
   40.4184   36.1726   38.2298 H   0  0  0  0  0  0  0  0  0  0  0  0
   40.4776   34.3710   38.7055 H   0  0  0  0  0  0  0  0  0  0  0  0
   39.4000   36.6440   40.1155 H   0  0  0  0  0  0  0  0  0  0  0  0
   39.0902   34.9149   40.2934 H   0  0  0  0  0  0  0  0  0  0  0  0
   41.5820   36.4734   41.2866 H   0  0  0  0  0  0  0  0  0  0  0  0
   40.3846   35.7041   42.3215 H   0  0  0  0  0  0  0  0  0  0  0  0
   42.0037   34.1400   42.1783 H   0  0  0  0  0  0  0  0  0  0  0  0
   38.2072   31.4500   42.2754 H   0  0  0  0  0  0  0  0  0  0  0  0
   40.1098   29.0951   38.8555 H   0  0  0  0  0  0  0  0  0  0  0  0
   42.0551   29.4498   37.3497 H   0  0  0  0  0  0  0  0  0  0  0  0
   43.4186   31.5391   37.5855 H   0  0  0  0  0  0  0  0  0  0  0  0
   42.7890   33.1581   39.2978 H   0  0  0  0  0  0  0  0  0  0  0  0
   44.4849   35.7051   40.2003 H   0  0  0  0  0  0  0  0  0  0  0  0
   43.4173   35.6806   41.7332 H   0  0  0  0  0  0  0  0  0  0  0  0
   45.7760   32.4523   43.3742 H   0  0  0  0  0  0  0  0  0  0  0  0
   44.0161   36.3597   43.1417 H   0  0  0  0  0  0  0  0  0  0  0  0
   45.0947   34.6803   46.8849 H   0  0  0  0  0  0  0  0  0  0  0  0
   44.4441   32.1964   42.2203 H   0  0  0  0  0  0  0  0  0  0  0  0
   43.6214   32.6841   40.6997 H   0  0  0  0  0  0  0  0  0  0  0  0
   45.3873   32.3546   40.6997 H   0  0  0  0  0  0  0  0  0  0  0  0
   46.9537   34.5416   41.8637 H   0  0  0  0  0  0  0  0  0  0  0  0
   46.5261   33.5665   40.4170 H   0  0  0  0  0  0  0  0  0  0  0  0
   46.2511   35.3416   40.4170 H   0  0  0  0  0  0  0  0  0  0  0  0
  1 17  1  0
  1  6  1  0
  2  1  1  0
  3  2  1  0
  3  4  1  0
  4  5  1  0
  6  5  1  0
  7  6  1  0
  7  8  2  0
  9  8  1  0
 10  9  2  0
 11 16  2  0
 11 10  1  0
 12 11  1  0
 13 14  1  0
 13 12  2  0
 14 15  2  0
 15 16  1  0
 16  7  1  0
 17 18  1  0
 18 20  1  0
 19 24  2  0
 20 21  2  0
 20 19  1  0
 21 22  1  0
 22 23  2  0
 24 23  1  0
 25 18  1  0
 26 18  1  0
  1 27  1  6
  2 28  1  0
  2 29  1  0
  3 30  1  0
  3 31  1  0
  4 32  1  0
  4 33  1  0
  5 34  1  0
  5 35  1  0
  6 36  1  1
  9 37  1  0
 12 38  1  0
 13 39  1  0
 14 40  1  0
 15 41  1  0
 17 42  1  0
 17 43  1  0
 19 44  1  0
 21 45  1  0
 23 46  1  0
 25 47  1  0
 25 48  1  0
 25 49  1  0
 26 50  1  0
 26 51  1  0
 26 52  1  0
M  ISO  8  27  13  28  13  29  13  30  13  31  13  32  13  33  13  34  13
M  ISO  8  35  13  36  13  37  14  38  14  39  14  40  14  41  14  42   8
M  ISO  8  43   8  44  14  45  14  46  14  47   8  48   8  49   8  50   8
M  ISO  2  51   8  52   8
M  END
>  <minimizedAffinity>  (1) 
-6.21763468

>  <minimizedRMSD>  (1) 
0.96391058

$$$$
