
     RDKit          3D

 53 55  0  0  1  0  0  0  0  0999 V2000
   42.6710   34.4270   40.2030 C   0  0  2  0  0  0  0  0  0  0  0  0
   42.1140   35.1930   39.0420 C   0  0  0  0  0  0  0  0  0  0  0  0
   40.5840   35.1370   39.0320 C   0  0  0  0  0  0  0  0  0  0  0  0
   39.9720   35.8470   40.1990 C   0  0  0  0  0  0  0  0  0  0  0  0
   41.0040   35.8160   41.3150 C   0  0  0  0  0  0  0  0  0  0  0  0
   41.6240   34.4300   41.2700 C   0  0  1  0  0  0  0  0  0  0  0  0
   40.5750   33.4450   41.1720 N   0  0  0  0  0  0  0  0  0  0  0  0
   39.4100   33.9030   40.4480 C   0  0  0  0  0  0  0  0  0  0  0  0
   38.3780   32.7680   40.5800 C   0  0  0  0  0  0  0  0  0  0  0  0
   38.8440   31.7150   39.6380 C   0  0  0  0  0  0  0  0  0  0  0  0
   40.2640   31.3560   39.8400 C   0  0  0  0  0  0  0  0  0  0  0  0
   41.1780   32.3780   40.3840 C   0  0  0  0  0  0  0  0  0  0  0  0
   43.9290   35.0400   40.7590 C   0  0  0  0  0  0  0  0  0  0  0  0
   44.8520   34.1990   41.5140 C   0  0  0  0  0  0  0  0  0  0  0  0
   45.3710   33.4290   43.7970 C   0  0  0  0  0  0  0  0  0  0  0  0
   44.8800   34.4460   42.9470 C   0  0  0  0  0  0  0  0  0  0  0  0
   44.4610   35.5900   43.5690 C   0  0  0  0  0  0  0  0  0  0  0  0
   44.5260   35.7050   44.9170 N   0  0  0  0  0  0  0  0  0  0  0  0
   44.9990   34.7130   45.6910 C   0  0  0  0  0  0  0  0  0  0  0  0
   45.4160   33.5890   45.1290 N   0  0  0  0  0  0  0  0  0  0  0  0
   44.6630   32.7350   41.2520 C   0  0  0  0  0  0  0  0  0  0  0  0
   46.2890   34.4180   40.9650 C   0  0  0  0  0  0  0  0  0  0  0  0
   42.9316   33.4136   39.8637 H   0  0  0  0  0  0  0  0  0  0  0  0
   42.4352   36.2425   39.1159 H   0  0  0  0  0  0  0  0  0  0  0  0
   42.4877   34.7406   38.1116 H   0  0  0  0  0  0  0  0  0  0  0  0
   40.2208   35.6053   38.1053 H   0  0  0  0  0  0  0  0  0  0  0  0
   40.2900   34.0789   39.0956 H   0  0  0  0  0  0  0  0  0  0  0  0
   39.7355   36.8869   39.9293 H   0  0  0  0  0  0  0  0  0  0  0  0
   39.0348   35.3631   40.5113 H   0  0  0  0  0  0  0  0  0  0  0  0
   41.7727   36.5847   41.1468 H   0  0  0  0  0  0  0  0  0  0  0  0
   40.5467   36.0224   42.2939 H   0  0  0  0  0  0  0  0  0  0  0  0
   42.1569   34.1514   42.1911 H   0  0  0  0  0  0  0  0  0  0  0  0
   39.6575   34.0778   39.3905 H   0  0  0  0  0  0  0  0  0  0  0  0
   39.0270   34.8541   40.8464 H   0  0  0  0  0  0  0  0  0  0  0  0
   38.3557   32.3832   41.6103 H   0  0  0  0  0  0  0  0  0  0  0  0
   37.3575   33.1075   40.3494 H   0  0  0  0  0  0  0  0  0  0  0  0
   38.7169   32.0822   38.6089 H   0  0  0  0  0  0  0  0  0  0  0  0
   38.2435   30.8126   39.8252 H   0  0  0  0  0  0  0  0  0  0  0  0
   40.2874   30.4994   40.5297 H   0  0  0  0  0  0  0  0  0  0  0  0
   40.6419   31.1704   38.8238 H   0  0  0  0  0  0  0  0  0  0  0  0
   41.9093   31.8635   41.0247 H   0  0  0  0  0  0  0  0  0  0  0  0
   41.6082   32.8778   39.5036 H   0  0  0  0  0  0  0  0  0  0  0  0
   44.4908   35.4513   39.9074 H   0  0  0  0  0  0  0  0  0  0  0  0
   43.5635   35.7638   41.5023 H   0  0  0  0  0  0  0  0  0  0  0  0
   45.7243   32.4848   43.3569 H   0  0  0  0  0  0  0  0  0  0  0  0
   44.0678   36.4240   42.9691 H   0  0  0  0  0  0  0  0  0  0  0  0
   45.0393   34.8342   46.7836 H   0  0  0  0  0  0  0  0  0  0  0  0
   44.5936   32.1972   42.2091 H   0  0  0  0  0  0  0  0  0  0  0  0
   43.7376   32.5818   40.6774 H   0  0  0  0  0  0  0  0  0  0  0  0
   45.5191   32.3518   40.6774 H   0  0  0  0  0  0  0  0  0  0  0  0
   46.9903   34.5249   41.8056 H   0  0  0  0  0  0  0  0  0  0  0  0
   46.5823   33.5542   40.3503 H   0  0  0  0  0  0  0  0  0  0  0  0
   46.3117   35.3300   40.3503 H   0  0  0  0  0  0  0  0  0  0  0  0
  1 13  1  0
  1  6  1  0
  2  1  1  0
  3  2  1  0
  3  4  1  0
  4  5  1  0
  6  5  1  0
  7  6  1  0
  8  9  1  0
  8  7  1  0
 10 11  1  0
 10  9  1  0
 11 12  1  0
 12  7  1  0
 13 14  1  0
 14 16  1  0
 15 20  2  0
 16 17  2  0
 16 15  1  0
 17 18  1  0
 18 19  2  0
 20 19  1  0
 21 14  1  0
 22 14  1  0
  1 23  1  6
  2 24  1  0
  2 25  1  0
  3 26  1  0
  3 27  1  0
  4 28  1  0
  4 29  1  0
  5 30  1  0
  5 31  1  0
  6 32  1  1
  8 33  1  0
  8 34  1  0
  9 35  1  0
  9 36  1  0
 10 37  1  0
 10 38  1  0
 11 39  1  0
 11 40  1  0
 12 41  1  0
 12 42  1  0
 13 43  1  0
 13 44  1  0
 15 45  1  0
 17 46  1  0
 19 47  1  0
 21 48  1  0
 21 49  1  0
 21 50  1  0
 22 51  1  0
 22 52  1  0
 22 53  1  0
M  ISO  8  23  13  24  13  25  13  26  13  27  13  28  13  29  13  30  13
M  ISO  8  31  13  32  13  33  13  34  13  35  13  36  13  37  13  38  13
M  ISO  8  39  13  40  13  41  13  42  13  43   8  44   8  45  14  46  14
M  ISO  7  47  14  48   8  49   8  50   8  51   8  52   8  53   8
M  END
>  <minimizedAffinity>  (1) 
-6.09420252

>  <minimizedRMSD>  (1) 
0.508316219

$$$$
