
     RDKit          3D

 45 47  0  0  1  0  0  0  0  0999 V2000
   42.6780   34.4720   40.1570 C   0  0  2  0  0  0  0  0  0  0  0  0
   42.1630   35.2870   39.0090 C   0  0  0  0  0  0  0  0  0  0  0  0
   40.6390   35.2580   38.9380 C   0  0  0  0  0  0  0  0  0  0  0  0
   39.9190   35.7970   40.1010 C   0  0  0  0  0  0  0  0  0  0  0  0
   40.9310   35.8110   41.2520 C   0  0  0  0  0  0  0  0  0  0  0  0
   41.5890   34.4930   41.2220 C   0  0  1  0  0  0  0  0  0  0  0  0
   40.7450   33.2980   41.2670 C   0  0  0  0  0  0  0  0  0  0  0  0
   41.1460   32.1350   40.5870 C   0  0  0  0  0  0  0  0  0  0  0  0
   40.2130   31.0950   40.7430 C   0  0  0  0  0  0  0  0  0  0  0  0
   39.2790   31.7260   41.5360 C   0  0  0  0  0  0  0  0  0  0  0  0
   39.6090   32.9340   41.8010 O   0  0  0  0  0  0  0  0  0  0  0  0
   43.8980   35.0800   40.7950 C   0  0  0  0  0  0  0  0  0  0  0  0
   44.8280   34.1920   41.5090 C   0  0  0  0  0  0  0  0  0  0  0  0
   45.3600   33.4120   43.7860 C   0  0  0  0  0  0  0  0  0  0  0  0
   44.8550   34.4320   42.9540 C   0  0  0  0  0  0  0  0  0  0  0  0
   44.4430   35.5720   43.5820 C   0  0  0  0  0  0  0  0  0  0  0  0
   44.5200   35.7050   44.9170 N   0  0  0  0  0  0  0  0  0  0  0  0
   45.0190   34.6920   45.6920 C   0  0  0  0  0  0  0  0  0  0  0  0
   45.4380   33.5470   45.1250 N   0  0  0  0  0  0  0  0  0  0  0  0
   44.5960   32.7350   41.2270 C   0  0  0  0  0  0  0  0  0  0  0  0
   46.2520   34.4260   40.9650 C   0  0  0  0  0  0  0  0  0  0  0  0
   42.9363   33.4697   39.7846 H   0  0  0  0  0  0  0  0  0  0  0  0
   42.4947   36.3284   39.1334 H   0  0  0  0  0  0  0  0  0  0  0  0
   42.5589   34.8570   38.0771 H   0  0  0  0  0  0  0  0  0  0  0  0
   40.3341   35.8408   38.0563 H   0  0  0  0  0  0  0  0  0  0  0  0
   40.3692   34.1924   38.8960 H   0  0  0  0  0  0  0  0  0  0  0  0
   39.5632   36.8167   39.8919 H   0  0  0  0  0  0  0  0  0  0  0  0
   39.0361   35.1887   40.3469 H   0  0  0  0  0  0  0  0  0  0  0  0
   41.6701   36.6119   41.1028 H   0  0  0  0  0  0  0  0  0  0  0  0
   40.4422   35.9983   42.2195 H   0  0  0  0  0  0  0  0  0  0  0  0
   42.0597   34.3948   42.2113 H   0  0  0  0  0  0  0  0  0  0  0  0
   42.0752   32.0492   40.0046 H   0  0  0  0  0  0  0  0  0  0  0  0
   40.2250   30.0695   40.3453 H   0  0  0  0  0  0  0  0  0  0  0  0
   38.3575   31.2474   41.8989 H   0  0  0  0  0  0  0  0  0  0  0  0
   44.4697   35.5762   39.9969 H   0  0  0  0  0  0  0  0  0  0  0  0
   43.4947   35.7375   41.5793 H   0  0  0  0  0  0  0  0  0  0  0  0
   45.7024   32.4731   43.3264 H   0  0  0  0  0  0  0  0  0  0  0  0
   44.0389   36.4004   42.9817 H   0  0  0  0  0  0  0  0  0  0  0  0
   45.0773   34.8157   46.7835 H   0  0  0  0  0  0  0  0  0  0  0  0
   44.5087   32.1871   42.1768 H   0  0  0  0  0  0  0  0  0  0  0  0
   43.6677   32.6167   40.6488 H   0  0  0  0  0  0  0  0  0  0  0  0
   45.4416   32.3342   40.6488 H   0  0  0  0  0  0  0  0  0  0  0  0
   46.9515   34.5410   41.8061 H   0  0  0  0  0  0  0  0  0  0  0  0
   46.5557   33.5657   40.3504 H   0  0  0  0  0  0  0  0  0  0  0  0
   46.2644   35.3382   40.3504 H   0  0  0  0  0  0  0  0  0  0  0  0
  1 12  1  0
  1  6  1  0
  2  1  1  0
  3  2  1  0
  3  4  1  0
  4  5  1  0
  6  5  1  0
  6  7  1  0
  7 11  1  0
  8  9  1  0
  8  7  2  0
  9 10  2  0
 10 11  1  0
 12 13  1  0
 13 15  1  0
 14 19  2  0
 15 16  2  0
 15 14  1  0
 16 17  1  0
 17 18  2  0
 19 18  1  0
 20 13  1  0
 21 13  1  0
  1 22  1  6
  2 23  1  0
  2 24  1  0
  3 25  1  0
  3 26  1  0
  4 27  1  0
  4 28  1  0
  5 29  1  0
  5 30  1  0
  6 31  1  1
  8 32  1  0
  9 33  1  0
 10 34  1  0
 12 35  1  0
 12 36  1  0
 14 37  1  0
 16 38  1  0
 18 39  1  0
 20 40  1  0
 20 41  1  0
 20 42  1  0
 21 43  1  0
 21 44  1  0
 21 45  1  0
M  ISO  8  22  13  23  13  24  13  25  13  26  13  27  13  28  13  29  13
M  ISO  8  30  13  31  13  32  14  33  14  34  14  35   8  36   8  37  14
M  ISO  8  38  14  39  14  40   8  41   8  42   8  43   8  44   8  45   8
M  END
>  <minimizedAffinity>  (1) 
-5.78708172

>  <minimizedRMSD>  (1) 
0.548785686

$$$$
