
     RDKit          3D

 41 42  0  0  1  0  0  0  0  0999 V2000
   43.9330   35.0240   40.7590 C   0  0  0  0  0  0  0  0  0  0  0  0
   42.6450   34.4490   40.2580 C   0  0  2  0  0  0  0  0  0  0  0  0
   42.0930   35.1710   39.0700 C   0  0  0  0  0  0  0  0  0  0  0  0
   40.5540   35.2100   39.1130 C   0  0  0  0  0  0  0  0  0  0  0  0
   40.0150   36.0100   40.2290 C   0  0  0  0  0  0  0  0  0  0  0  0
   41.0640   35.9870   41.3310 C   0  0  0  0  0  0  0  0  0  0  0  0
   41.6340   34.6220   41.3770 C   0  0  1  0  0  0  0  0  0  0  0  0
   40.6540   33.5180   41.4600 C   0  0  0  0  0  0  0  0  0  0  0  0
   40.4670   32.4510   40.7870 O   0  0  0  0  0  0  0  0  0  0  0  0
   39.6320   33.4090   42.3810 O   0  0  0  0  0  0  0  0  0  0  0  0
   44.8730   34.1650   41.4910 C   0  0  0  0  0  0  0  0  0  0  0  0
   45.3700   33.4090   43.7920 C   0  0  0  0  0  0  0  0  0  0  0  0
   44.8990   34.4210   42.9310 C   0  0  0  0  0  0  0  0  0  0  0  0
   44.4940   35.5820   43.5330 C   0  0  0  0  0  0  0  0  0  0  0  0
   44.5480   35.7330   44.8730 N   0  0  0  0  0  0  0  0  0  0  0  0
   45.0110   34.7250   45.6650 C   0  0  0  0  0  0  0  0  0  0  0  0
   45.4140   33.5820   45.1210 N   0  0  0  0  0  0  0  0  0  0  0  0
   44.6280   32.7060   41.2330 C   0  0  0  0  0  0  0  0  0  0  0  0
   46.2980   34.3780   40.9370 C   0  0  0  0  0  0  0  0  0  0  0  0
   43.6724   35.8566   41.4290 H   0  0  0  0  0  0  0  0  0  0  0  0
   44.4783   35.2769   39.8378 H   0  0  0  0  0  0  0  0  0  0  0  0
   42.8307   33.4058   39.9627 H   0  0  0  0  0  0  0  0  0  0  0  0
   42.4141   34.6539   38.1538 H   0  0  0  0  0  0  0  0  0  0  0  0
   42.4699   36.2043   39.0820 H   0  0  0  0  0  0  0  0  0  0  0  0
   40.1904   35.6411   38.1686 H   0  0  0  0  0  0  0  0  0  0  0  0
   40.2089   34.1761   39.2608 H   0  0  0  0  0  0  0  0  0  0  0  0
   39.8328   37.0439   39.9007 H   0  0  0  0  0  0  0  0  0  0  0  0
   39.0588   35.5987   40.5847 H   0  0  0  0  0  0  0  0  0  0  0  0
   41.8564   36.7172   41.1100 H   0  0  0  0  0  0  0  0  0  0  0  0
   40.6134   36.2506   42.2992 H   0  0  0  0  0  0  0  0  0  0  0  0
   42.1524   34.5383   42.3436 H   0  0  0  0  0  0  0  0  0  0  0  0
   39.0240   32.6281   42.3557 H   0  0  0  0  0  0  0  0  0  0  0  0
   45.7096   32.4546   43.3634 H   0  0  0  0  0  0  0  0  0  0  0  0
   44.1171   36.4081   42.9122 H   0  0  0  0  0  0  0  0  0  0  0  0
   45.0510   34.8581   46.7562 H   0  0  0  0  0  0  0  0  0  0  0  0
   44.5387   32.1741   42.1917 H   0  0  0  0  0  0  0  0  0  0  0  0
   43.6972   32.5864   40.6592 H   0  0  0  0  0  0  0  0  0  0  0  0
   45.4687   32.2889   40.6592 H   0  0  0  0  0  0  0  0  0  0  0  0
   47.0046   34.4836   41.7734 H   0  0  0  0  0  0  0  0  0  0  0  0
   46.5852   33.5128   40.3214 H   0  0  0  0  0  0  0  0  0  0  0  0
   46.3197   35.2894   40.3214 H   0  0  0  0  0  0  0  0  0  0  0  0
  1 11  1  0
  2  1  1  0
  2  7  1  0
  3  4  1  0
  3  2  1  0
  4  5  1  0
  5  6  1  0
  6  7  1  0
  7  8  1  0
  8 10  1  0
  9  8  2  0
 11 13  1  0
 12 17  2  0
 13 14  2  0
 13 12  1  0
 14 15  1  0
 15 16  2  0
 17 16  1  0
 18 11  1  0
 19 11  1  0
  1 20  1  0
  1 21  1  0
  2 22  1  6
  3 23  1  0
  3 24  1  0
  4 25  1  0
  4 26  1  0
  5 27  1  0
  5 28  1  0
  6 29  1  0
  6 30  1  0
  7 31  1  1
 10 32  1  0
 12 33  1  0
 14 34  1  0
 16 35  1  0
 18 36  1  0
 18 37  1  0
 18 38  1  0
 19 39  1  0
 19 40  1  0
 19 41  1  0
M  ISO  8  20   8  21   8  22  13  23  13  24  13  25  13  26  13  27  13
M  ISO  8  28  13  29  13  30  13  31  13  32   3  33  14  34  14  35  14
M  ISO  6  36   8  37   8  38   8  39   8  40   8  41   8
M  END
>  <minimizedAffinity>  (1) 
-5.74441862

>  <minimizedRMSD>  (1) 
0.359500974

$$$$
