
     RDKit          3D

 44 46  0  0  1  0  0  0  0  0999 V2000
   42.7390   34.4920   40.1530 C   0  0  2  0  0  0  0  0  0  0  0  0
   42.2490   35.3820   39.0610 C   0  0  0  0  0  0  0  0  0  0  0  0
   40.7460   35.2850   38.8500 C   0  0  0  0  0  0  0  0  0  0  0  0
   39.8870   35.5890   40.0030 C   0  0  0  0  0  0  0  0  0  0  0  0
   40.8030   35.5420   41.2370 C   0  0  0  0  0  0  0  0  0  0  0  0
   41.5800   34.2860   41.0940 C   0  0  1  0  0  0  0  0  0  0  0  0
   40.8080   33.0510   40.9210 C   0  0  0  0  0  0  0  0  0  0  0  0
   39.8460   32.8000   41.9160 C   0  0  0  0  0  0  0  0  0  0  0  0
   39.0400   31.2400   41.4650 S   0  0  0  0  0  0  0  0  0  0  0  0
   40.1740   31.1350   39.9120 C   0  0  0  0  0  0  0  0  0  0  0  0
   40.7570   32.0810   40.0650 N   0  0  0  0  0  0  0  0  0  0  0  0
   43.8500   35.1170   40.9570 C   0  0  0  0  0  0  0  0  0  0  0  0
   44.7950   34.2440   41.6500 C   0  0  0  0  0  0  0  0  0  0  0  0
   45.4010   33.3750   43.8820 C   0  0  0  0  0  0  0  0  0  0  0  0
   44.8560   34.4270   43.0970 C   0  0  0  0  0  0  0  0  0  0  0  0
   44.4240   35.5310   43.7800 C   0  0  0  0  0  0  0  0  0  0  0  0
   44.5240   35.5840   45.1290 N   0  0  0  0  0  0  0  0  0  0  0  0
   45.0450   34.5670   45.8400 C   0  0  0  0  0  0  0  0  0  0  0  0
   45.4820   33.4680   45.2170 N   0  0  0  0  0  0  0  0  0  0  0  0
   44.5480   32.7890   41.3360 C   0  0  0  0  0  0  0  0  0  0  0  0
   46.2080   34.4890   41.0850 C   0  0  0  0  0  0  0  0  0  0  0  0
   43.1211   33.5645   39.7016 H   0  0  0  0  0  0  0  0  0  0  0  0
   42.5016   36.4219   39.3154 H   0  0  0  0  0  0  0  0  0  0  0  0
   42.7354   35.0598   38.1284 H   0  0  0  0  0  0  0  0  0  0  0  0
   40.4787   35.9844   38.0442 H   0  0  0  0  0  0  0  0  0  0  0  0
   40.5579   34.2244   38.6269 H   0  0  0  0  0  0  0  0  0  0  0  0
   39.4420   36.5891   39.8951 H   0  0  0  0  0  0  0  0  0  0  0  0
   39.0580   34.8710   40.0886 H   0  0  0  0  0  0  0  0  0  0  0  0
   41.4754   36.4124   41.2522 H   0  0  0  0  0  0  0  0  0  0  0  0
   40.2309   35.5681   42.1762 H   0  0  0  0  0  0  0  0  0  0  0  0
   42.0102   34.0699   42.0831 H   0  0  0  0  0  0  0  0  0  0  0  0
   39.6264   33.4259   42.7935 H   0  0  0  0  0  0  0  0  0  0  0  0
   40.2323   30.3775   39.1166 H   0  0  0  0  0  0  0  0  0  0  0  0
   44.4347   35.7438   40.2676 H   0  0  0  0  0  0  0  0  0  0  0  0
   43.3270   35.6414   41.7703 H   0  0  0  0  0  0  0  0  0  0  0  0
   45.7644   32.4644   43.3832 H   0  0  0  0  0  0  0  0  0  0  0  0
   43.9929   36.3804   43.2298 H   0  0  0  0  0  0  0  0  0  0  0  0
   45.1113   34.6402   46.9356 H   0  0  0  0  0  0  0  0  0  0  0  0
   44.4519   32.2226   42.2741 H   0  0  0  0  0  0  0  0  0  0  0  0
   43.6206   32.6921   40.7525 H   0  0  0  0  0  0  0  0  0  0  0  0
   45.3915   32.3915   40.7525 H   0  0  0  0  0  0  0  0  0  0  0  0
   46.9187   34.6122   41.9155 H   0  0  0  0  0  0  0  0  0  0  0  0
   46.5103   33.6299   40.4681 H   0  0  0  0  0  0  0  0  0  0  0  0
   46.2034   35.3998   40.4681 H   0  0  0  0  0  0  0  0  0  0  0  0
  1 12  1  0
  1  6  1  0
  2  1  1  0
  3  2  1  0
  3  4  1  0
  4  5  1  0
  6  5  1  0
  7  6  1  0
  7  8  2  0
  9  8  1  0
 10 11  2  0
 10  9  1  0
 11  7  1  0
 12 13  1  0
 13 15  1  0
 14 19  2  0
 15 16  2  0
 15 14  1  0
 16 17  1  0
 17 18  2  0
 19 18  1  0
 20 13  1  0
 21 13  1  0
  1 22  1  6
  2 23  1  0
  2 24  1  0
  3 25  1  0
  3 26  1  0
  4 27  1  0
  4 28  1  0
  5 29  1  0
  5 30  1  0
  6 31  1  1
  8 32  1  0
 10 33  1  0
 12 34  1  0
 12 35  1  0
 14 36  1  0
 16 37  1  0
 18 38  1  0
 20 39  1  0
 20 40  1  0
 20 41  1  0
 21 42  1  0
 21 43  1  0
 21 44  1  0
M  ISO  8  22  13  23  13  24  13  25  13  26  13  27  13  28  13  29  13
M  ISO  8  30  13  31  13  32  14  33  14  34   8  35   8  36  14  37  14
M  ISO  7  38  14  39   8  40   8  41   8  42   8  43   8  44   8
M  END
>  <minimizedAffinity>  (1) 
-5.67773438

>  <minimizedRMSD>  (1) 
0.794595063

$$$$
