
     RDKit          3D

 40 41  0  0  1  0  0  0  0  0999 V2000
   43.8740   34.9520   40.7690 C   0  0  0  0  0  0  0  0  0  0  0  0
   42.6010   34.3460   40.2790 C   0  0  2  0  0  0  0  0  0  0  0  0
   42.0380   34.9860   39.0550 C   0  0  0  0  0  0  0  0  0  0  0  0
   40.5060   35.0180   39.0880 C   0  0  0  0  0  0  0  0  0  0  0  0
   39.9360   35.8770   40.1570 C   0  0  0  0  0  0  0  0  0  0  0  0
   41.0050   35.9540   41.2510 C   0  0  0  0  0  0  0  0  0  0  0  0
   41.5640   34.5720   41.3690 C   0  0  1  0  0  0  0  0  0  0  0  0
   40.5550   33.5160   41.4170 C   0  0  0  0  0  0  0  0  0  0  0  0
   39.6980   32.6680   41.6110 O   0  0  0  0  0  0  0  0  0  0  0  0
   44.8350   34.1290   41.5020 C   0  0  0  0  0  0  0  0  0  0  0  0
   45.3600   33.4030   43.8110 C   0  0  0  0  0  0  0  0  0  0  0  0
   44.8750   34.3960   42.9400 C   0  0  0  0  0  0  0  0  0  0  0  0
   44.4620   35.5600   43.5280 C   0  0  0  0  0  0  0  0  0  0  0  0
   44.5230   35.7320   44.8640 N   0  0  0  0  0  0  0  0  0  0  0  0
   45.0010   34.7410   45.6690 C   0  0  0  0  0  0  0  0  0  0  0  0
   45.4160   33.5870   45.1380 N   0  0  0  0  0  0  0  0  0  0  0  0
   44.6220   32.6560   41.2650 C   0  0  0  0  0  0  0  0  0  0  0  0
   46.2540   34.3630   40.9330 C   0  0  0  0  0  0  0  0  0  0  0  0
   43.5961   35.7843   41.4323 H   0  0  0  0  0  0  0  0  0  0  0  0
   44.4095   35.2054   39.8422 H   0  0  0  0  0  0  0  0  0  0  0  0
   42.8213   33.2952   40.0396 H   0  0  0  0  0  0  0  0  0  0  0  0
   42.3641   34.4163   38.1723 H   0  0  0  0  0  0  0  0  0  0  0  0
   42.4026   36.0229   39.0106 H   0  0  0  0  0  0  0  0  0  0  0  0
   40.1482   35.3925   38.1176 H   0  0  0  0  0  0  0  0  0  0  0  0
   40.1737   33.9907   39.2984 H   0  0  0  0  0  0  0  0  0  0  0  0
   39.7175   36.8812   39.7647 H   0  0  0  0  0  0  0  0  0  0  0  0
   38.9920   35.4658   40.5441 H   0  0  0  0  0  0  0  0  0  0  0  0
   41.7951   36.6642   40.9658 H   0  0  0  0  0  0  0  0  0  0  0  0
   40.5847   36.3046   42.2052 H   0  0  0  0  0  0  0  0  0  0  0  0
   42.0564   34.5038   42.3503 H   0  0  0  0  0  0  0  0  0  0  0  0
   40.6512   33.2768   40.3476 H   0  0  0  0  0  0  0  0  0  0  0  0
   45.7037   32.4465   43.3904 H   0  0  0  0  0  0  0  0  0  0  0  0
   44.0719   36.3728   42.8977 H   0  0  0  0  0  0  0  0  0  0  0  0
   45.0452   34.8916   46.7577 H   0  0  0  0  0  0  0  0  0  0  0  0
   44.5468   32.1362   42.2315 H   0  0  0  0  0  0  0  0  0  0  0  0
   43.6929   32.5069   40.6952 H   0  0  0  0  0  0  0  0  0  0  0  0
   45.4707   32.2498   40.6952 H   0  0  0  0  0  0  0  0  0  0  0  0
   46.9669   34.4806   41.7625 H   0  0  0  0  0  0  0  0  0  0  0  0
   46.5483   33.5013   40.3159 H   0  0  0  0  0  0  0  0  0  0  0  0
   46.2560   35.2736   40.3159 H   0  0  0  0  0  0  0  0  0  0  0  0
  1 10  1  0
  2  1  1  0
  2  7  1  0
  3  4  1  0
  3  2  1  0
  4  5  1  0
  5  6  1  0
  6  7  1  0
  7  8  1  0
  8  9  2  0
 10 12  1  0
 11 16  2  0
 12 13  2  0
 12 11  1  0
 13 14  1  0
 14 15  2  0
 16 15  1  0
 17 10  1  0
 18 10  1  0
  1 19  1  0
  1 20  1  0
  2 21  1  6
  3 22  1  0
  3 23  1  0
  4 24  1  0
  4 25  1  0
  5 26  1  0
  5 27  1  0
  6 28  1  0
  6 29  1  0
  7 30  1  1
  8 31  1  0
 11 32  1  0
 13 33  1  0
 15 34  1  0
 17 35  1  0
 17 36  1  0
 17 37  1  0
 18 38  1  0
 18 39  1  0
 18 40  1  0
M  ISO  8  19   8  20   8  21  13  22  13  23  13  24  13  25  13  26  13
M  ISO  8  27  13  28  13  29  13  30  13  31   6  32  14  33  14  34  14
M  ISO  6  35   8  36   8  37   8  38   8  39   8  40   8
M  END
>  <minimizedAffinity>  (1) 
-5.15432167

>  <minimizedRMSD>  (1) 
0.339080453

$$$$
