
     RDKit          3D

 40 41  0  0  1  0  0  0  0  0999 V2000
   43.5850   34.8420   40.7720 C   0  0  0  0  0  0  0  0  0  0  0  0
   42.5660   34.1400   39.9390 C   0  0  2  0  0  0  0  0  0  0  0  0
   42.4160   34.7010   38.5580 C   0  0  0  0  0  0  0  0  0  0  0  0
   40.9540   34.6320   38.0890 C   0  0  0  0  0  0  0  0  0  0  0  0
   40.0900   35.5700   38.8450 C   0  0  0  0  0  0  0  0  0  0  0  0
   40.6810   35.6840   40.2550 C   0  0  0  0  0  0  0  0  0  0  0  0
   41.2260   34.3300   40.6060 C   0  0  2  0  0  0  0  0  0  0  0  0
   41.1590   34.0960   42.0020 N   0  0  0  0  0  0  0  0  0  0  0  0
   44.6060   34.0450   41.4600 C   0  0  0  0  0  0  0  0  0  0  0  0
   45.2610   33.3770   43.7440 C   0  0  0  0  0  0  0  0  0  0  0  0
   44.7240   34.3580   42.8850 C   0  0  0  0  0  0  0  0  0  0  0  0
   44.3570   35.5350   43.4710 C   0  0  0  0  0  0  0  0  0  0  0  0
   44.5020   35.7370   44.7900 N   0  0  0  0  0  0  0  0  0  0  0  0
   45.0260   34.7620   45.5900 C   0  0  0  0  0  0  0  0  0  0  0  0
   45.4050   33.5850   45.0660 N   0  0  0  0  0  0  0  0  0  0  0  0
   44.4530   32.5710   41.2520 C   0  0  0  0  0  0  0  0  0  0  0  0
   45.9840   34.3170   40.8100 C   0  0  0  0  0  0  0  0  0  0  0  0
   43.0396   35.4046   41.5440 H   0  0  0  0  0  0  0  0  0  0  0  0
   44.1574   35.4379   40.0459 H   0  0  0  0  0  0  0  0  0  0  0  0
   42.8948   33.0937   39.8542 H   0  0  0  0  0  0  0  0  0  0  0  0
   42.7438   35.7510   38.5591 H   0  0  0  0  0  0  0  0  0  0  0  0
   43.0325   34.1044   37.8695 H   0  0  0  0  0  0  0  0  0  0  0  0
   40.9100   34.8895   37.0205 H   0  0  0  0  0  0  0  0  0  0  0  0
   40.5859   33.6103   38.2642 H   0  0  0  0  0  0  0  0  0  0  0  0
   40.0842   36.5557   38.3567 H   0  0  0  0  0  0  0  0  0  0  0  0
   39.0526   35.2062   38.8818 H   0  0  0  0  0  0  0  0  0  0  0  0
   41.4872   36.4322   40.2686 H   0  0  0  0  0  0  0  0  0  0  0  0
   39.9169   36.0025   40.9794 H   0  0  0  0  0  0  0  0  0  0  0  0
   40.5965   33.5252   40.1986 H   0  0  0  0  0  0  0  0  0  0  0  0
   41.4061   34.9590   42.5070 H   0  0  0  0  0  0  0  0  0  0  0  0
   40.2026   33.8109   42.2568 H   0  0  0  0  0  0  0  0  0  0  0  0
   45.5722   32.4108   43.3201 H   0  0  0  0  0  0  0  0  0  0  0  0
   43.9327   36.3362   42.8480 H   0  0  0  0  0  0  0  0  0  0  0  0
   45.1382   34.9417   46.6694 H   0  0  0  0  0  0  0  0  0  0  0  0
   44.4006   32.0665   42.2281 H   0  0  0  0  0  0  0  0  0  0  0  0
   43.5296   32.3743   40.6875 H   0  0  0  0  0  0  0  0  0  0  0  0
   45.3163   32.1888   40.6875 H   0  0  0  0  0  0  0  0  0  0  0  0
   46.7378   34.4658   41.5972 H   0  0  0  0  0  0  0  0  0  0  0  0
   46.2707   33.4581   40.1854 H   0  0  0  0  0  0  0  0  0  0  0  0
   45.9229   35.2204   40.1854 H   0  0  0  0  0  0  0  0  0  0  0  0
  1  9  1  0
  2  7  1  0
  2  1  1  0
  3  2  1  0
  4  3  1  0
  4  5  1  0
  5  6  1  0
  6  7  1  0
  7  8  1  0
  9 11  1  0
 10 15  2  0
 11 12  2  0
 11 10  1  0
 12 13  1  0
 13 14  2  0
 15 14  1  0
 16  9  1  0
 17  9  1  0
  1 18  1  0
  1 19  1  0
  2 20  1  6
  3 21  1  0
  3 22  1  0
  4 23  1  0
  4 24  1  0
  5 25  1  0
  5 26  1  0
  6 27  1  0
  6 28  1  0
  7 29  1  6
  8 30  1  0
  8 31  1  0
 10 32  1  0
 12 33  1  0
 14 34  1  0
 16 35  1  0
 16 36  1  0
 16 37  1  0
 17 38  1  0
 17 39  1  0
 17 40  1  0
M  ISO  8  18   8  19   8  20  13  21  13  22  13  23  13  24  13  25  13
M  ISO  8  26  13  27  13  28  13  29  13  30   5  31   5  32  14  33  14
M  ISO  7  34  14  35   8  36   8  37   8  38   8  39   8  40   8
M  END
>  <minimizedAffinity>  (1) 
-4.88229752

>  <minimizedRMSD>  (1) 
0.685976088

$$$$
