
     RDKit          3D

 39 40  0  0  1  0  0  0  0  0999 V2000
   43.8720   35.0650   40.9370 C   0  0  0  0  0  0  0  0  0  0  0  0
   42.6400   34.4340   40.3580 C   0  0  2  0  0  0  0  0  0  0  0  0
   42.0950   35.1690   39.1740 C   0  0  0  0  0  0  0  0  0  0  0  0
   40.5670   35.1050   39.1230 C   0  0  0  0  0  0  0  0  0  0  0  0
   39.9050   35.8080   40.2530 C   0  0  0  0  0  0  0  0  0  0  0  0
   40.9360   35.8770   41.3870 C   0  0  0  0  0  0  0  0  0  0  0  0
   41.5520   34.5050   41.4090 C   0  0  1  0  0  0  0  0  0  0  0  0
   40.3600   33.1800   41.2760 S   0  0  0  0  0  0  0  0  0  0  0  0
   44.8170   34.2210   41.6570 C   0  0  0  0  0  0  0  0  0  0  0  0
   45.3970   33.3940   43.9060 C   0  0  0  0  0  0  0  0  0  0  0  0
   44.8630   34.4220   43.0960 C   0  0  0  0  0  0  0  0  0  0  0  0
   44.4260   35.5380   43.7520 C   0  0  0  0  0  0  0  0  0  0  0  0
   44.5130   35.6230   45.1000 N   0  0  0  0  0  0  0  0  0  0  0  0
   45.0290   34.6210   45.8400 C   0  0  0  0  0  0  0  0  0  0  0  0
   45.4720   33.5050   45.2410 N   0  0  0  0  0  0  0  0  0  0  0  0
   44.6340   32.7580   41.3480 C   0  0  0  0  0  0  0  0  0  0  0  0
   46.2450   34.4580   41.0930 C   0  0  0  0  0  0  0  0  0  0  0  0
   43.5381   35.8464   41.6355 H   0  0  0  0  0  0  0  0  0  0  0  0
   44.4360   35.4076   40.0569 H   0  0  0  0  0  0  0  0  0  0  0  0
   42.9180   33.4149   40.0511 H   0  0  0  0  0  0  0  0  0  0  0  0
   42.4060   36.2224   39.2342 H   0  0  0  0  0  0  0  0  0  0  0  0
   42.4889   34.6933   38.2637 H   0  0  0  0  0  0  0  0  0  0  0  0
   40.2307   35.5650   38.1821 H   0  0  0  0  0  0  0  0  0  0  0  0
   40.2856   34.0439   39.1933 H   0  0  0  0  0  0  0  0  0  0  0  0
   39.6075   36.8220   39.9477 H   0  0  0  0  0  0  0  0  0  0  0  0
   38.9960   35.2779   40.5735 H   0  0  0  0  0  0  0  0  0  0  0  0
   41.6969   36.6430   41.1765 H   0  0  0  0  0  0  0  0  0  0  0  0
   40.4840   36.1516   42.3515 H   0  0  0  0  0  0  0  0  0  0  0  0
   42.0048   34.3483   42.3992 H   0  0  0  0  0  0  0  0  0  0  0  0
   39.9911   32.7700   42.5301 H   0  0  0  0  0  0  0  0  0  0  0  0
   45.7626   32.4739   43.4267 H   0  0  0  0  0  0  0  0  0  0  0  0
   43.9996   36.3749   43.1795 H   0  0  0  0  0  0  0  0  0  0  0  0
   45.0868   34.7183   46.9342 H   0  0  0  0  0  0  0  0  0  0  0  0
   44.5631   32.1908   42.2878 H   0  0  0  0  0  0  0  0  0  0  0  0
   43.7115   32.6189   40.7653 H   0  0  0  0  0  0  0  0  0  0  0  0
   45.4939   32.3960   40.7653 H   0  0  0  0  0  0  0  0  0  0  0  0
   46.9535   34.5756   41.9262 H   0  0  0  0  0  0  0  0  0  0  0  0
   46.5434   33.5971   40.4767 H   0  0  0  0  0  0  0  0  0  0  0  0
   46.2493   35.3691   40.4767 H   0  0  0  0  0  0  0  0  0  0  0  0
  1  9  1  0
  2  1  1  0
  2  7  1  0
  3  2  1  0
  4  3  1  0
  4  5  1  0
  5  6  1  0
  6  7  1  0
  8  7  1  0
  9 11  1  0
 10 15  2  0
 11 12  2  0
 11 10  1  0
 12 13  1  0
 13 14  2  0
 15 14  1  0
 16  9  1  0
 17  9  1  0
  1 18  1  0
  1 19  1  0
  2 20  1  6
  3 21  1  0
  3 22  1  0
  4 23  1  0
  4 24  1  0
  5 25  1  0
  5 26  1  0
  6 27  1  0
  6 28  1  0
  7 29  1  1
  8 30  1  0
 10 31  1  0
 12 32  1  0
 14 33  1  0
 16 34  1  0
 16 35  1  0
 16 36  1  0
 17 37  1  0
 17 38  1  0
 17 39  1  0
M  ISO  8  18   8  19   8  20  13  21  13  22  13  23  13  24  13  25  13
M  ISO  8  26  13  27  13  28  13  29  13  30  11  31  14  32  14  33  14
M  ISO  6  34   8  35   8  36   8  37   8  38   8  39   8
M  END
>  <minimizedAffinity>  (1) 
-5.18767071

>  <minimizedRMSD>  (1) 
0.285142094

$$$$
