
     RDKit          3D

 53 56  0  0  1  0  0  0  0  0999 V2000
   45.0830   34.4810   41.8440 C   0  0  1  0  0  0  0  0  0  0  0  0
   45.5490   33.4590   44.0510 C   0  0  0  0  0  0  0  0  0  0  0  0
   45.0370   34.5330   43.3100 C   0  0  0  0  0  0  0  0  0  0  0  0
   44.5320   35.5490   44.0540 C   0  0  0  0  0  0  0  0  0  0  0  0
   44.5290   35.5160   45.3970 N   0  0  0  0  0  0  0  0  0  0  0  0
   45.0320   34.4610   46.0710 C   0  0  0  0  0  0  0  0  0  0  0  0
   45.5490   33.4230   45.3840 N   0  0  0  0  0  0  0  0  0  0  0  0
   45.1120   33.0570   41.4000 C   0  0  0  0  0  0  0  0  0  0  0  0
   44.0170   35.2330   41.1760 C   0  0  0  0  0  0  0  0  0  0  0  0
   42.9020   34.4750   40.5070 C   0  0  2  0  0  0  0  0  0  0  0  0
   42.4620   35.1290   39.2260 C   0  0  0  0  0  0  0  0  0  0  0  0
   40.9580   34.9550   39.0050 C   0  0  0  0  0  0  0  0  0  0  0  0
   40.1210   35.6430   40.0140 C   0  0  0  0  0  0  0  0  0  0  0  0
   41.0050   35.8430   41.2510 C   0  0  0  0  0  0  0  0  0  0  0  0
   41.7060   34.5210   41.4250 C   0  0  1  0  0  0  0  0  0  0  0  0
   40.6350   33.1070   41.2320 S   0  0  0  0  0  0  0  0  0  0  0  0
   46.4420   35.0360   41.4110 C   0  0  0  0  0  0  0  0  0  0  0  0
   47.3900   34.1190   40.8270 C   0  0  0  0  0  0  0  0  0  0  0  0
   47.1400   33.5060   39.5880 C   0  0  0  0  0  0  0  0  0  0  0  0
   48.1360   32.6530   39.2320 N   0  0  0  0  0  0  0  0  0  0  0  0
   49.0740   32.6630   40.2030 C   0  0  0  0  0  0  0  0  0  0  0  0
   50.2820   32.0200   40.3660 C   0  0  0  0  0  0  0  0  0  0  0  0
   51.0520   32.2550   41.4860 C   0  0  0  0  0  0  0  0  0  0  0  0
   50.5820   33.1470   42.4340 C   0  0  0  0  0  0  0  0  0  0  0  0
   49.3840   33.7740   42.2560 C   0  0  0  0  0  0  0  0  0  0  0  0
   48.5990   33.5500   41.1420 C   0  0  0  0  0  0  0  0  0  0  0  0
   45.9721   32.6027   43.5054 H   0  0  0  0  0  0  0  0  0  0  0  0
   44.1120   36.4271   43.5416 H   0  0  0  0  0  0  0  0  0  0  0  0
   45.0203   34.4481   47.1709 H   0  0  0  0  0  0  0  0  0  0  0  0
   45.1254   32.3984   42.2810 H   0  0  0  0  0  0  0  0  0  0  0  0
   44.2180   32.8430   40.7958 H   0  0  0  0  0  0  0  0  0  0  0  0
   46.0139   32.8796   40.7958 H   0  0  0  0  0  0  0  0  0  0  0  0
   43.5561   35.8827   41.9345 H   0  0  0  0  0  0  0  0  0  0  0  0
   44.5301   35.7384   40.3446 H   0  0  0  0  0  0  0  0  0  0  0  0
   43.2637   33.4579   40.2956 H   0  0  0  0  0  0  0  0  0  0  0  0
   42.6961   36.2028   39.2723 H   0  0  0  0  0  0  0  0  0  0  0  0
   42.9947   34.6520   38.3901 H   0  0  0  0  0  0  0  0  0  0  0  0
   40.7048   35.3565   38.0127 H   0  0  0  0  0  0  0  0  0  0  0  0
   40.7443   33.8795   39.0918 H   0  0  0  0  0  0  0  0  0  0  0  0
   39.7827   36.6157   39.6275 H   0  0  0  0  0  0  0  0  0  0  0  0
   39.2253   35.0525   40.2568 H   0  0  0  0  0  0  0  0  0  0  0  0
   41.7326   36.6508   41.0835 H   0  0  0  0  0  0  0  0  0  0  0  0
   40.4249   36.1314   42.1400 H   0  0  0  0  0  0  0  0  0  0  0  0
   42.0478   34.4526   42.4683 H   0  0  0  0  0  0  0  0  0  0  0  0
   40.2765   32.6337   42.4667 H   0  0  0  0  0  0  0  0  0  0  0  0
   46.2521   35.8268   40.6703 H   0  0  0  0  0  0  0  0  0  0  0  0
   46.9168   35.3649   42.3471 H   0  0  0  0  0  0  0  0  0  0  0  0
   46.2440   33.6942   38.9782 H   0  0  0  0  0  0  0  0  0  0  0  0
   48.1697   32.0936   38.3678 H   0  0  0  0  0  0  0  0  0  0  0  0
   50.6342   31.3152   39.5984 H   0  0  0  0  0  0  0  0  0  0  0  0
   52.0172   31.7453   41.6225 H   0  0  0  0  0  0  0  0  0  0  0  0
   51.1778   33.3514   43.3358 H   0  0  0  0  0  0  0  0  0  0  0  0
   49.0323   34.4796   43.0231 H   0  0  0  0  0  0  0  0  0  0  0  0
  1  9  1  6
  1  3  1  0
  2  7  2  0
  3  2  1  0
  3  4  2  0
  4  5  1  0
  5  6  2  0
  7  6  1  0
  8  1  1  0
 10  9  1  0
 10 15  1  0
 11 10  1  0
 12 11  1  0
 12 13  1  0
 13 14  1  0
 14 15  1  0
 16 15  1  0
 17  1  1  0
 18 26  1  0
 18 17  1  0
 19 18  2  0
 20 19  1  0
 20 21  1  0
 21 22  2  0
 21 26  1  0
 22 23  1  0
 23 24  2  0
 25 24  1  0
 26 25  2  0
  2 27  1  0
  4 28  1  0
  6 29  1  0
  8 30  1  0
  8 31  1  0
  8 32  1  0
  9 33  1  0
  9 34  1  0
 10 35  1  6
 11 36  1  0
 11 37  1  0
 12 38  1  0
 12 39  1  0
 13 40  1  0
 13 41  1  0
 14 42  1  0
 14 43  1  0
 15 44  1  1
 16 45  1  0
 17 46  1  0
 17 47  1  0
 19 48  1  0
 20 49  1  0
 22 50  1  0
 23 51  1  0
 24 52  1  0
 25 53  1  0
M  ISO  8  27  14  28  14  29  14  30   8  31   8  32   8  33   8  34   8
M  ISO  8  35  13  36  13  37  13  38  13  39  13  40  13  41  13  42  13
M  ISO  8  43  13  44  13  45  11  46   8  47   8  48  14  49   9  50  14
M  ISO  3  51  14  52  14  53  14
M  END
>  <minimizedAffinity>  (1) 
-6.51744652

>  <minimizedRMSD>  (1) 
2.04066133

$$$$
