
     RDKit          3D

 52 54  0  0  1  0  0  0  0  0999 V2000
   45.2060   34.1430   41.9350 C   0  0  1  0  0  0  0  0  0  0  0  0
   45.4660   33.4630   44.3110 C   0  0  0  0  0  0  0  0  0  0  0  0
   45.0350   34.4260   43.3670 C   0  0  0  0  0  0  0  0  0  0  0  0
   44.5000   35.5480   43.9100 C   0  0  0  0  0  0  0  0  0  0  0  0
   44.4000   35.7080   45.2420 N   0  0  0  0  0  0  0  0  0  0  0  0
   44.8190   34.7730   46.1010 C   0  0  0  0  0  0  0  0  0  0  0  0
   45.3530   33.6490   45.6320 N   0  0  0  0  0  0  0  0  0  0  0  0
   45.0220   32.6740   41.7090 C   0  0  0  0  0  0  0  0  0  0  0  0
   44.3480   34.9400   41.0640 C   0  0  0  0  0  0  0  0  0  0  0  0
   43.1440   34.2760   40.4300 C   0  0  2  0  0  0  0  0  0  0  0  0
   42.7020   35.0020   39.1880 C   0  0  0  0  0  0  0  0  0  0  0  0
   41.1870   34.9590   39.0240 C   0  0  0  0  0  0  0  0  0  0  0  0
   40.4430   35.6690   40.0940 C   0  0  0  0  0  0  0  0  0  0  0  0
   41.3950   35.7710   41.2910 C   0  0  0  0  0  0  0  0  0  0  0  0
   42.0040   34.4020   41.3920 C   0  0  1  0  0  0  0  0  0  0  0  0
   40.8200   33.0630   41.2020 S   0  0  0  0  0  0  0  0  0  0  0  0
   46.6830   34.3810   41.6070 C   0  0  0  0  0  0  0  0  0  0  0  0
   47.1690   34.2330   40.3070 N   0  0  0  0  0  0  0  0  0  0  0  0
   46.5360   33.3730   39.4500 C   0  0  0  0  0  0  0  0  0  0  0  0
   46.9040   33.1540   38.1370 C   0  0  0  0  0  0  0  0  0  0  0  0
   46.2340   32.2260   37.1890 C   0  0  0  0  0  0  0  0  0  0  0  0
   47.9950   33.8390   37.6060 C   0  0  0  0  0  0  0  0  0  0  0  0
   48.3780   33.6810   36.4200 O   0  0  0  0  0  0  0  0  0  0  0  0
   48.6270   34.6880   38.4320 N   0  0  0  0  0  0  0  0  0  0  0  0
   48.2000   34.8400   39.6980 C   0  0  0  0  0  0  0  0  0  0  0  0
   48.8920   35.6680   40.3300 O   0  0  0  0  0  0  0  0  0  0  0  0
   45.9108   32.5259   43.9450 H   0  0  0  0  0  0  0  0  0  0  0  0
   44.1391   36.3465   43.2450 H   0  0  0  0  0  0  0  0  0  0  0  0
   44.7229   34.9320   47.1852 H   0  0  0  0  0  0  0  0  0  0  0  0
   44.9575   32.1591   42.6789 H   0  0  0  0  0  0  0  0  0  0  0  0
   44.0955   32.5036   41.1411 H   0  0  0  0  0  0  0  0  0  0  0  0
   45.8779   32.2804   41.1411 H   0  0  0  0  0  0  0  0  0  0  0  0
   43.9754   35.7855   41.6609 H   0  0  0  0  0  0  0  0  0  0  0  0
   44.9941   35.1956   40.2112 H   0  0  0  0  0  0  0  0  0  0  0  0
   43.4126   33.2376   40.1861 H   0  0  0  0  0  0  0  0  0  0  0  0
   43.0246   36.0516   39.2538 H   0  0  0  0  0  0  0  0  0  0  0  0
   43.1572   34.5058   38.3182 H   0  0  0  0  0  0  0  0  0  0  0  0
   40.9304   35.4211   38.0593 H   0  0  0  0  0  0  0  0  0  0  0  0
   40.8911   33.9010   39.0793 H   0  0  0  0  0  0  0  0  0  0  0  0
   40.1525   36.6735   39.7527 H   0  0  0  0  0  0  0  0  0  0  0  0
   39.5219   35.1310   40.3627 H   0  0  0  0  0  0  0  0  0  0  0  0
   42.1697   36.5307   41.1102 H   0  0  0  0  0  0  0  0  0  0  0  0
   40.8806   36.0736   42.2151 H   0  0  0  0  0  0  0  0  0  0  0  0
   42.3850   34.2982   42.4187 H   0  0  0  0  0  0  0  0  0  0  0  0
   40.4288   32.6205   42.4381 H   0  0  0  0  0  0  0  0  0  0  0  0
   46.9060   35.4155   41.9070 H   0  0  0  0  0  0  0  0  0  0  0  0
   47.1823   33.5609   42.1438 H   0  0  0  0  0  0  0  0  0  0  0  0
   45.6701   32.8151   39.8359 H   0  0  0  0  0  0  0  0  0  0  0  0
   45.6815   31.4607   37.7538 H   0  0  0  0  0  0  0  0  0  0  0  0
   45.5341   32.7910   36.5558 H   0  0  0  0  0  0  0  0  0  0  0  0
   46.9905   31.7395   36.5558 H   0  0  0  0  0  0  0  0  0  0  0  0
   49.4399   35.2236   38.0956 H   0  0  0  0  0  0  0  0  0  0  0  0
  1  9  1  6
  1  3  1  0
  2  7  2  0
  3  4  2  0
  3  2  1  0
  4  5  1  0
  5  6  2  0
  7  6  1  0
  8  1  1  0
 10  9  1  0
 10 15  1  0
 11 10  1  0
 12 11  1  0
 12 13  1  0
 13 14  1  0
 14 15  1  0
 16 15  1  0
 17  1  1  0
 18 17  1  0
 19 18  1  0
 20 19  2  0
 21 20  1  0
 22 20  1  0
 22 24  1  0
 23 22  2  0
 24 25  1  0
 25 18  1  0
 25 26  2  0
  2 27  1  0
  4 28  1  0
  6 29  1  0
  8 30  1  0
  8 31  1  0
  8 32  1  0
  9 33  1  0
  9 34  1  0
 10 35  1  6
 11 36  1  0
 11 37  1  0
 12 38  1  0
 12 39  1  0
 13 40  1  0
 13 41  1  0
 14 42  1  0
 14 43  1  0
 15 44  1  1
 16 45  1  0
 17 46  1  0
 17 47  1  0
 19 48  1  0
 21 49  1  0
 21 50  1  0
 21 51  1  0
 24 52  1  0
M  ISO  8  27  14  28  14  29  14  30   8  31   8  32   8  33   8  34   8
M  ISO  8  35  13  36  13  37  13  38  13  39  13  40  13  41  13  42  13
M  ISO  8  43  13  44  13  45  11  46   8  47   8  48  14  49   8  50   8
M  ISO  2  51   8  52   9
M  END
>  <minimizedAffinity>  (1) 
-6.35076857

>  <minimizedRMSD>  (1) 
0.702783644

$$$$
