
     RDKit          3D

 49 51  0  0  1  0  0  0  0  0999 V2000
   45.1070   33.9760   41.8010 C   0  0  1  0  0  0  0  0  0  0  0  0
   45.4310   33.4040   44.1920 C   0  0  0  0  0  0  0  0  0  0  0  0
   45.0050   34.3240   43.2180 C   0  0  0  0  0  0  0  0  0  0  0  0
   44.5210   35.4930   43.7050 C   0  0  0  0  0  0  0  0  0  0  0  0
   44.4630   35.7330   45.0360 N   0  0  0  0  0  0  0  0  0  0  0  0
   44.8800   34.8300   45.9300 C   0  0  0  0  0  0  0  0  0  0  0  0
   45.3700   33.6500   45.5020 N   0  0  0  0  0  0  0  0  0  0  0  0
   44.8010   32.5090   41.6370 C   0  0  0  0  0  0  0  0  0  0  0  0
   44.3120   34.7840   40.8960 C   0  0  0  0  0  0  0  0  0  0  0  0
   43.0390   34.1980   40.3280 C   0  0  2  0  0  0  0  0  0  0  0  0
   42.5840   34.9590   39.1080 C   0  0  0  0  0  0  0  0  0  0  0  0
   41.0610   34.9950   39.0130 C   0  0  0  0  0  0  0  0  0  0  0  0
   40.4100   35.7420   40.1110 C   0  0  0  0  0  0  0  0  0  0  0  0
   41.4230   35.7900   41.2660 C   0  0  0  0  0  0  0  0  0  0  0  0
   41.9520   34.3900   41.3390 C   0  0  1  0  0  0  0  0  0  0  0  0
   40.6830   33.1230   41.2110 S   0  0  0  0  0  0  0  0  0  0  0  0
   46.5950   34.0250   41.4280 C   0  0  0  0  0  0  0  0  0  0  0  0
   46.9370   33.9080   40.0370 C   0  0  0  0  0  0  0  0  0  0  0  0
   48.0130   34.5300   39.4280 C   0  0  0  0  0  0  0  0  0  0  0  0
   48.3690   34.4640   38.0960 C   0  0  0  0  0  0  0  0  0  0  0  0
   47.5820   33.7010   37.2620 C   0  0  0  0  0  0  0  0  0  0  0  0
   46.4720   33.0350   37.7880 C   0  0  0  0  0  0  0  0  0  0  0  0
   46.1990   33.1610   39.1180 C   0  0  0  0  0  0  0  0  0  0  0  0
   45.8334   32.4361   43.8585 H   0  0  0  0  0  0  0  0  0  0  0  0
   44.1678   36.2631   43.0034 H   0  0  0  0  0  0  0  0  0  0  0  0
   44.8234   35.0489   47.0065 H   0  0  0  0  0  0  0  0  0  0  0  0
   44.7035   32.0417   42.6280 H   0  0  0  0  0  0  0  0  0  0  0  0
   43.8589   32.3908   41.0816 H   0  0  0  0  0  0  0  0  0  0  0  0
   45.6173   32.0240   41.0816 H   0  0  0  0  0  0  0  0  0  0  0  0
   44.0332   35.6992   41.4389 H   0  0  0  0  0  0  0  0  0  0  0  0
   44.9602   34.9174   40.0173 H   0  0  0  0  0  0  0  0  0  0  0  0
   43.2311   33.1442   40.0780 H   0  0  0  0  0  0  0  0  0  0  0  0
   42.9639   35.9897   39.1663 H   0  0  0  0  0  0  0  0  0  0  0  0
   42.9757   34.4498   38.2151 H   0  0  0  0  0  0  0  0  0  0  0  0
   40.7845   35.4692   38.0598 H   0  0  0  0  0  0  0  0  0  0  0  0
   40.7118   33.9543   39.0836 H   0  0  0  0  0  0  0  0  0  0  0  0
   40.1606   36.7614   39.7816 H   0  0  0  0  0  0  0  0  0  0  0  0
   39.4737   35.2560   40.4227 H   0  0  0  0  0  0  0  0  0  0  0  0
   42.2316   36.5032   41.0481 H   0  0  0  0  0  0  0  0  0  0  0  0
   40.9722   36.1233   42.2124 H   0  0  0  0  0  0  0  0  0  0  0  0
   42.3736   34.2616   42.3468 H   0  0  0  0  0  0  0  0  0  0  0  0
   40.2956   32.7362   42.4669 H   0  0  0  0  0  0  0  0  0  0  0  0
   46.9921   34.9869   41.7846 H   0  0  0  0  0  0  0  0  0  0  0  0
   47.0303   33.1311   41.8986 H   0  0  0  0  0  0  0  0  0  0  0  0
   48.6549   35.1443   40.0766 H   0  0  0  0  0  0  0  0  0  0  0  0
   49.2496   35.0015   37.7143 H   0  0  0  0  0  0  0  0  0  0  0  0
   47.8249   33.6168   36.1925 H   0  0  0  0  0  0  0  0  0  0  0  0
   45.8297   32.4199   37.1406 H   0  0  0  0  0  0  0  0  0  0  0  0
   45.3177   32.6256   39.5010 H   0  0  0  0  0  0  0  0  0  0  0  0
  1  9  1  6
  1  3  1  0
  2  7  2  0
  3  4  2  0
  3  2  1  0
  4  5  1  0
  5  6  2  0
  7  6  1  0
  8  1  1  0
 10  9  1  0
 10 15  1  0
 11 10  1  0
 12 11  1  0
 12 13  1  0
 13 14  1  0
 14 15  1  0
 16 15  1  0
 17  1  1  0
 18 17  1  0
 19 18  2  0
 20 19  1  0
 21 22  1  0
 21 20  2  0
 22 23  2  0
 23 18  1  0
  2 24  1  0
  4 25  1  0
  6 26  1  0
  8 27  1  0
  8 28  1  0
  8 29  1  0
  9 30  1  0
  9 31  1  0
 10 32  1  6
 11 33  1  0
 11 34  1  0
 12 35  1  0
 12 36  1  0
 13 37  1  0
 13 38  1  0
 14 39  1  0
 14 40  1  0
 15 41  1  1
 16 42  1  0
 17 43  1  0
 17 44  1  0
 19 45  1  0
 20 46  1  0
 21 47  1  0
 22 48  1  0
 23 49  1  0
M  ISO  8  24  14  25  14  26  14  27   8  28   8  29   8  30   8  31   8
M  ISO  8  32  13  33  13  34  13  35  13  36  13  37  13  38  13  39  13
M  ISO  8  40  13  41  13  42  11  43   8  44   8  45  14  46  14  47  14
M  ISO  2  48  14  49  14
M  END
>  <minimizedAffinity>  (1) 
-5.85760212

>  <minimizedRMSD>  (1) 
0.494693577

$$$$
