
     RDKit          3D

 54 56  0  0  1  0  0  0  0  0999 V2000
   44.6090   33.6790   41.6040 C   0  0  1  0  0  0  0  0  0  0  0  0
   45.2140   33.3580   43.9640 C   0  0  0  0  0  0  0  0  0  0  0  0
   44.7010   34.1850   42.9550 C   0  0  0  0  0  0  0  0  0  0  0  0
   44.3350   35.4330   43.3370 C   0  0  0  0  0  0  0  0  0  0  0  0
   44.4700   35.8230   44.6260 N   0  0  0  0  0  0  0  0  0  0  0  0
   44.9630   35.0130   45.5660 C   0  0  0  0  0  0  0  0  0  0  0  0
   45.3350   33.7790   45.2350 N   0  0  0  0  0  0  0  0  0  0  0  0
   43.9390   32.3010   41.6320 C   0  0  0  0  0  0  0  0  0  0  0  0
   43.9410   34.5300   40.6230 C   0  0  0  0  0  0  0  0  0  0  0  0
   42.5740   34.1460   40.1130 C   0  0  2  0  0  0  0  0  0  0  0  0
   42.1410   35.0340   38.9770 C   0  0  0  0  0  0  0  0  0  0  0  0
   40.6330   35.2610   38.9830 C   0  0  0  0  0  0  0  0  0  0  0  0
   40.1500   36.0110   40.1630 C   0  0  0  0  0  0  0  0  0  0  0  0
   41.2070   35.8370   41.2530 C   0  0  0  0  0  0  0  0  0  0  0  0
   41.5740   34.3920   41.2030 C   0  0  1  0  0  0  0  0  0  0  0  0
   40.1550   33.3050   41.0820 S   0  0  0  0  0  0  0  0  0  0  0  0
   45.9930   33.2940   41.0940 C   0  0  0  0  0  0  0  0  0  0  0  0
   46.3540   33.7830   39.7900 N   0  0  0  0  0  0  0  0  0  0  0  0
   46.2280   32.6150   38.8230 C   0  0  0  0  0  0  0  0  0  0  0  0
   46.4410   33.1970   37.4720 C   0  0  0  0  0  0  0  0  0  0  0  0
   47.9000   33.5580   37.3180 C   0  0  0  0  0  0  0  0  0  0  0  0
   48.2720   34.5010   38.4420 C   0  0  0  0  0  0  0  0  0  0  0  0
   47.8080   34.0170   39.7760 C   0  0  0  0  0  0  0  0  0  0  0  0
   45.5266   32.3348   43.7083 H   0  0  0  0  0  0  0  0  0  0  0  0
   43.9255   36.1335   42.5943 H   0  0  0  0  0  0  0  0  0  0  0  0
   45.0607   35.3625   46.6044 H   0  0  0  0  0  0  0  0  0  0  0  0
   43.7870   31.9883   42.6756 H   0  0  0  0  0  0  0  0  0  0  0  0
   42.9668   32.3555   41.1202 H   0  0  0  0  0  0  0  0  0  0  0  0
   44.5823   31.5700   41.1202 H   0  0  0  0  0  0  0  0  0  0  0  0
   43.8441   35.5269   41.0778 H   0  0  0  0  0  0  0  0  0  0  0  0
   44.5810   34.4477   39.7321 H   0  0  0  0  0  0  0  0  0  0  0  0
   42.6244   33.0958   39.7898 H   0  0  0  0  0  0  0  0  0  0  0  0
   42.4267   34.5611   38.0258 H   0  0  0  0  0  0  0  0  0  0  0  0
   42.6355   36.0094   39.0960 H   0  0  0  0  0  0  0  0  0  0  0  0
   40.3630   35.8254   38.0782 H   0  0  0  0  0  0  0  0  0  0  0  0
   40.1584   34.2692   39.0157 H   0  0  0  0  0  0  0  0  0  0  0  0
   40.0331   37.0761   39.9141 H   0  0  0  0  0  0  0  0  0  0  0  0
   39.1705   35.6379   40.4968 H   0  0  0  0  0  0  0  0  0  0  0  0
   42.0846   36.4668   41.0454 H   0  0  0  0  0  0  0  0  0  0  0  0
   40.8340   36.1359   42.2437 H   0  0  0  0  0  0  0  0  0  0  0  0
   42.0436   34.1416   42.1657 H   0  0  0  0  0  0  0  0  0  0  0  0
   39.7241   32.9749   42.3399 H   0  0  0  0  0  0  0  0  0  0  0  0
   46.7328   33.6780   41.8118 H   0  0  0  0  0  0  0  0  0  0  0  0
   45.9749   32.1982   41.0000 H   0  0  0  0  0  0  0  0  0  0  0  0
   46.9913   31.8528   39.0385 H   0  0  0  0  0  0  0  0  0  0  0  0
   45.2496   32.1191   38.9054 H   0  0  0  0  0  0  0  0  0  0  0  0
   46.1600   32.4608   36.7045 H   0  0  0  0  0  0  0  0  0  0  0  0
   45.8202   34.0971   37.3523 H   0  0  0  0  0  0  0  0  0  0  0  0
   48.5170   32.6491   37.3742 H   0  0  0  0  0  0  0  0  0  0  0  0
   48.0729   34.0389   36.3439 H   0  0  0  0  0  0  0  0  0  0  0  0
   49.3668   34.6051   38.4665 H   0  0  0  0  0  0  0  0  0  0  0  0
   47.7767   35.4635   38.2465 H   0  0  0  0  0  0  0  0  0  0  0  0
   48.3239   33.0750   40.0136 H   0  0  0  0  0  0  0  0  0  0  0  0
   48.0401   34.7901   40.5233 H   0  0  0  0  0  0  0  0  0  0  0  0
  1  9  1  6
  1  8  1  0
  1  3  1  0
  2  7  2  0
  3  4  2  0
  3  2  1  0
  4  5  1  0
  5  6  2  0
  7  6  1  0
 10  9  1  0
 10 15  1  0
 11 12  1  0
 11 10  1  0
 12 13  1  0
 13 14  1  0
 15 14  1  0
 16 15  1  0
 17  1  1  0
 18 17  1  0
 19 18  1  0
 20 19  1  0
 21 20  1  0
 21 22  1  0
 22 23  1  0
 23 18  1  0
  2 24  1  0
  4 25  1  0
  6 26  1  0
  8 27  1  0
  8 28  1  0
  8 29  1  0
  9 30  1  0
  9 31  1  0
 10 32  1  6
 11 33  1  0
 11 34  1  0
 12 35  1  0
 12 36  1  0
 13 37  1  0
 13 38  1  0
 14 39  1  0
 14 40  1  0
 15 41  1  1
 16 42  1  0
 17 43  1  0
 17 44  1  0
 19 45  1  0
 19 46  1  0
 20 47  1  0
 20 48  1  0
 21 49  1  0
 21 50  1  0
 22 51  1  0
 22 52  1  0
 23 53  1  0
 23 54  1  0
M  ISO  8  24  14  25  14  26  14  27   8  28   8  29   8  30   8  31   8
M  ISO  8  32  13  33  13  34  13  35  13  36  13  37  13  38  13  39  13
M  ISO  8  40  13  41  13  42  11  43   8  44   8  45  13  46  13  47  13
M  ISO  7  48  13  49  13  50  13  51  13  52  13  53  13  54  13
M  END
>  <minimizedAffinity>  (1) 
-5.62165499

>  <minimizedRMSD>  (1) 
2.6417582

$$$$
