
     RDKit          3D

 46 48  0  0  1  0  0  0  0  0999 V2000
   45.1180   34.2420   41.8910 C   0  0  1  0  0  0  0  0  0  0  0  0
   45.4740   33.4280   44.1990 C   0  0  0  0  0  0  0  0  0  0  0  0
   45.0160   34.4290   43.3170 C   0  0  0  0  0  0  0  0  0  0  0  0
   44.5090   35.5300   43.9150 C   0  0  0  0  0  0  0  0  0  0  0  0
   44.4430   35.6630   45.2580 N   0  0  0  0  0  0  0  0  0  0  0  0
   44.8970   34.6710   46.0640 C   0  0  0  0  0  0  0  0  0  0  0  0
   45.4130   33.5530   45.5250 N   0  0  0  0  0  0  0  0  0  0  0  0
   45.0270   32.7590   41.5670 C   0  0  0  0  0  0  0  0  0  0  0  0
   44.2320   35.0090   41.0460 C   0  0  0  0  0  0  0  0  0  0  0  0
   43.0210   34.3390   40.4410 C   0  0  2  0  0  0  0  0  0  0  0  0
   42.5520   35.0430   39.1930 C   0  0  0  0  0  0  0  0  0  0  0  0
   41.0430   34.9640   39.0400 C   0  0  0  0  0  0  0  0  0  0  0  0
   40.2970   35.6820   40.1080 C   0  0  0  0  0  0  0  0  0  0  0  0
   41.2610   35.8260   41.2920 C   0  0  0  0  0  0  0  0  0  0  0  0
   41.8790   34.4570   41.4150 C   0  0  1  0  0  0  0  0  0  0  0  0
   40.7120   33.1130   41.2590 S   0  0  0  0  0  0  0  0  0  0  0  0
   46.5880   34.5170   41.4840 C   0  0  0  0  0  0  0  0  0  0  0  0
   46.9200   34.0810   40.1330 C   0  0  0  0  0  0  0  0  0  0  0  0
   48.0220   34.3240   39.3020 C   0  0  0  0  0  0  0  0  0  0  0  0
   47.8910   33.6900   38.0910 C   0  0  0  0  0  0  0  0  0  0  0  0
   46.7250   33.0660   38.1780 N   0  0  0  0  0  0  0  0  0  0  0  0
   46.1660   33.2810   39.3330 N   0  0  0  0  0  0  0  0  0  0  0  0
   45.8991   32.5062   43.7753 H   0  0  0  0  0  0  0  0  0  0  0  0
   44.1355   36.3498   43.2837 H   0  0  0  0  0  0  0  0  0  0  0  0
   44.8430   34.7813   47.1571 H   0  0  0  0  0  0  0  0  0  0  0  0
   44.9915   32.1809   42.5022 H   0  0  0  0  0  0  0  0  0  0  0  0
   44.1154   32.5667   40.9822 H   0  0  0  0  0  0  0  0  0  0  0  0
   45.9083   32.4567   40.9822 H   0  0  0  0  0  0  0  0  0  0  0  0
   43.8641   35.8522   41.6491 H   0  0  0  0  0  0  0  0  0  0  0  0
   44.8547   35.2566   40.1737 H   0  0  0  0  0  0  0  0  0  0  0  0
   43.3022   33.3009   40.2104 H   0  0  0  0  0  0  0  0  0  0  0  0
   42.8505   36.1004   39.2460 H   0  0  0  0  0  0  0  0  0  0  0  0
   43.0122   34.5479   38.3252 H   0  0  0  0  0  0  0  0  0  0  0  0
   40.7686   35.4027   38.0693 H   0  0  0  0  0  0  0  0  0  0  0  0
   40.7669   33.9017   39.1125 H   0  0  0  0  0  0  0  0  0  0  0  0
   39.9830   36.6739   39.7509 H   0  0  0  0  0  0  0  0  0  0  0  0
   39.3902   35.1313   40.3984 H   0  0  0  0  0  0  0  0  0  0  0  0
   42.0284   36.5859   41.0833 H   0  0  0  0  0  0  0  0  0  0  0  0
   40.7587   36.1525   42.2146 H   0  0  0  0  0  0  0  0  0  0  0  0
   42.2623   34.3591   42.4414 H   0  0  0  0  0  0  0  0  0  0  0  0
   40.3398   32.6844   42.5058 H   0  0  0  0  0  0  0  0  0  0  0  0
   46.7692   35.5998   41.5525 H   0  0  0  0  0  0  0  0  0  0  0  0
   47.2224   33.9374   42.1707 H   0  0  0  0  0  0  0  0  0  0  0  0
   48.8846   34.9453   39.5847 H   0  0  0  0  0  0  0  0  0  0  0  0
   48.5924   33.6982   37.2437 H   0  0  0  0  0  0  0  0  0  0  0  0
   46.3157   32.4876   37.4305 H   0  0  0  0  0  0  0  0  0  0  0  0
  1  9  1  6
  1  3  1  0
  2  7  2  0
  3  4  2  0
  3  2  1  0
  4  5  1  0
  5  6  2  0
  7  6  1  0
  8  1  1  0
 10  9  1  0
 10 15  1  0
 11 10  1  0
 12 11  1  0
 12 13  1  0
 13 14  1  0
 14 15  1  0
 16 15  1  0
 17  1  1  0
 18 17  1  0
 19 18  1  0
 20 21  1  0
 20 19  2  0
 21 22  1  0
 22 18  2  0
  2 23  1  0
  4 24  1  0
  6 25  1  0
  8 26  1  0
  8 27  1  0
  8 28  1  0
  9 29  1  0
  9 30  1  0
 10 31  1  6
 11 32  1  0
 11 33  1  0
 12 34  1  0
 12 35  1  0
 13 36  1  0
 13 37  1  0
 14 38  1  0
 14 39  1  0
 15 40  1  1
 16 41  1  0
 17 42  1  0
 17 43  1  0
 19 44  1  0
 20 45  1  0
 21 46  1  0
M  ISO  8  23  14  24  14  25  14  26   8  27   8  28   8  29   8  30   8
M  ISO  8  31  13  32  13  33  13  34  13  35  13  36  13  37  13  38  13
M  ISO  8  39  13  40  13  41  11  42   8  43   8  44  14  45  14  46   9
M  END
>  <minimizedAffinity>  (1) 
-5.53342438

>  <minimizedRMSD>  (1) 
0.521687686

$$$$
