
     RDKit          3D

 46 48  0  0  1  0  0  0  0  0999 V2000
   44.8410   34.0300   41.5370 C   0  0  1  0  0  0  0  0  0  0  0  0
   45.3600   33.3770   43.8720 C   0  0  0  0  0  0  0  0  0  0  0  0
   44.8700   34.3280   42.9580 C   0  0  0  0  0  0  0  0  0  0  0  0
   44.4550   35.4950   43.5050 C   0  0  0  0  0  0  0  0  0  0  0  0
   44.5150   35.7070   44.8370 N   0  0  0  0  0  0  0  0  0  0  0  0
   44.9870   34.7760   45.6750 C   0  0  0  0  0  0  0  0  0  0  0  0
   45.4170   33.5930   45.1870 N   0  0  0  0  0  0  0  0  0  0  0  0
   44.5260   32.5520   41.3510 C   0  0  0  0  0  0  0  0  0  0  0  0
   43.9850   34.8520   40.7080 C   0  0  0  0  0  0  0  0  0  0  0  0
   42.6860   34.3030   40.1990 C   0  0  2  0  0  0  0  0  0  0  0  0
   42.1550   35.1050   39.0400 C   0  0  0  0  0  0  0  0  0  0  0  0
   40.6270   35.1470   39.0460 C   0  0  0  0  0  0  0  0  0  0  0  0
   40.0550   35.8730   40.2090 C   0  0  0  0  0  0  0  0  0  0  0  0
   41.1360   35.8810   41.2990 C   0  0  0  0  0  0  0  0  0  0  0  0
   41.6570   34.4710   41.3030 C   0  0  1  0  0  0  0  0  0  0  0  0
   40.3760   33.2300   41.2210 S   0  0  0  0  0  0  0  0  0  0  0  0
   46.2930   34.0390   41.0220 C   0  0  0  0  0  0  0  0  0  0  0  0
   46.4450   33.6670   39.6540 C   0  0  0  0  0  0  0  0  0  0  0  0
   45.7200   33.0460   38.6060 C   0  0  0  0  0  0  0  0  0  0  0  0
   46.2950   32.9040   37.3840 C   0  0  0  0  0  0  0  0  0  0  0  0
   47.6400   33.3840   37.1440 C   0  0  0  0  0  0  0  0  0  0  0  0
   48.0630   34.0850   38.8570 S   0  0  0  0  0  0  0  0  0  0  0  0
   45.7126   32.4100   43.4838 H   0  0  0  0  0  0  0  0  0  0  0  0
   44.0609   36.2866   42.8507 H   0  0  0  0  0  0  0  0  0  0  0  0
   45.0243   34.9740   46.7564 H   0  0  0  0  0  0  0  0  0  0  0  0
   44.4237   32.0722   42.3355 H   0  0  0  0  0  0  0  0  0  0  0  0
   43.5849   32.4452   40.7915 H   0  0  0  0  0  0  0  0  0  0  0  0
   45.3418   32.0708   40.7915 H   0  0  0  0  0  0  0  0  0  0  0  0
   43.7424   35.7506   41.2943 H   0  0  0  0  0  0  0  0  0  0  0  0
   44.5776   34.9920   39.7919 H   0  0  0  0  0  0  0  0  0  0  0  0
   42.8552   33.2603   39.8922 H   0  0  0  0  0  0  0  0  0  0  0  0
   42.4970   34.6463   38.1005 H   0  0  0  0  0  0  0  0  0  0  0  0
   42.5305   36.1350   39.1301 H   0  0  0  0  0  0  0  0  0  0  0  0
   40.2895   35.6452   38.1252 H   0  0  0  0  0  0  0  0  0  0  0  0
   40.2767   34.1064   39.1122 H   0  0  0  0  0  0  0  0  0  0  0  0
   39.7972   36.9035   39.9232 H   0  0  0  0  0  0  0  0  0  0  0  0
   39.1360   35.3857   40.5667 H   0  0  0  0  0  0  0  0  0  0  0  0
   41.9367   36.5932   41.0507 H   0  0  0  0  0  0  0  0  0  0  0  0
   40.7468   36.1919   42.2797 H   0  0  0  0  0  0  0  0  0  0  0  0
   42.1419   34.3050   42.2763 H   0  0  0  0  0  0  0  0  0  0  0  0
   40.0058   32.8713   42.4903 H   0  0  0  0  0  0  0  0  0  0  0  0
   46.6939   35.0557   41.1466 H   0  0  0  0  0  0  0  0  0  0  0  0
   46.8346   33.2835   41.6101 H   0  0  0  0  0  0  0  0  0  0  0  0
   44.6973   32.6811   38.7817 H   0  0  0  0  0  0  0  0  0  0  0  0
   45.7347   32.4206   36.5701 H   0  0  0  0  0  0  0  0  0  0  0  0
   48.2463   33.3516   36.2268 H   0  0  0  0  0  0  0  0  0  0  0  0
  1  9  1  6
  1  3  1  0
  2  7  2  0
  3  4  2  0
  3  2  1  0
  4  5  1  0
  5  6  2  0
  7  6  1  0
  8  1  1  0
 10  9  1  0
 10 15  1  0
 11 12  1  0
 11 10  1  0
 12 13  1  0
 13 14  1  0
 14 15  1  0
 16 15  1  0
 17  1  1  0
 18 17  1  0
 19 18  2  0
 20 19  1  0
 21 20  2  0
 21 22  1  0
 22 18  1  0
  2 23  1  0
  4 24  1  0
  6 25  1  0
  8 26  1  0
  8 27  1  0
  8 28  1  0
  9 29  1  0
  9 30  1  0
 10 31  1  6
 11 32  1  0
 11 33  1  0
 12 34  1  0
 12 35  1  0
 13 36  1  0
 13 37  1  0
 14 38  1  0
 14 39  1  0
 15 40  1  1
 16 41  1  0
 17 42  1  0
 17 43  1  0
 19 44  1  0
 20 45  1  0
 21 46  1  0
M  ISO  8  23  14  24  14  25  14  26   8  27   8  28   8  29   8  30   8
M  ISO  8  31  13  32  13  33  13  34  13  35  13  36  13  37  13  38  13
M  ISO  8  39  13  40  13  41  11  42   8  43   8  44  14  45  14  46  14
M  END
>  <minimizedAffinity>  (1) 
-5.49178791

>  <minimizedRMSD>  (1) 
0.354075104

$$$$
