
     RDKit          3D

 43 44  0  0  1  0  0  0  0  0999 V2000
   44.9050   34.1090   41.5580 C   0  0  1  0  0  0  0  0  0  0  0  0
   45.4280   33.3660   43.8470 C   0  0  0  0  0  0  0  0  0  0  0  0
   44.9390   34.3320   42.9690 C   0  0  0  0  0  0  0  0  0  0  0  0
   44.5160   35.4590   43.5640 C   0  0  0  0  0  0  0  0  0  0  0  0
   44.5510   35.6630   44.8990 N   0  0  0  0  0  0  0  0  0  0  0  0
   45.0370   34.6850   45.7070 C   0  0  0  0  0  0  0  0  0  0  0  0
   45.4770   33.5320   45.1650 N   0  0  0  0  0  0  0  0  0  0  0  0
   44.6330   32.6290   41.2740 C   0  0  0  0  0  0  0  0  0  0  0  0
   44.0570   34.9290   40.7180 C   0  0  0  0  0  0  0  0  0  0  0  0
   42.7420   34.3510   40.2160 C   0  0  2  0  0  0  0  0  0  0  0  0
   42.2220   35.1990   39.0670 C   0  0  0  0  0  0  0  0  0  0  0  0
   40.6950   35.1990   39.0410 C   0  0  0  0  0  0  0  0  0  0  0  0
   40.0770   35.8340   40.2220 C   0  0  0  0  0  0  0  0  0  0  0  0
   41.1540   35.8490   41.3200 C   0  0  0  0  0  0  0  0  0  0  0  0
   41.7140   34.4720   41.2980 C   0  0  1  0  0  0  0  0  0  0  0  0
   40.4560   33.1940   41.1470 S   0  0  0  0  0  0  0  0  0  0  0  0
   46.3650   34.1850   41.0270 C   0  0  0  0  0  0  0  0  0  0  0  0
   47.0330   35.2110   41.7150 O   0  0  0  0  0  0  0  0  0  0  0  0
   48.3730   35.2120   41.3180 C   0  0  0  0  0  0  0  0  0  0  0  0
   48.9340   36.3910   41.7790 F   0  0  0  0  0  0  0  0  0  0  0  0
   49.0840   34.1690   41.8510 F   0  0  0  0  0  0  0  0  0  0  0  0
   48.3870   35.1950   39.9170 F   0  0  0  0  0  0  0  0  0  0  0  0
   45.7924   32.4168   43.4273 H   0  0  0  0  0  0  0  0  0  0  0  0
   44.1178   36.2629   42.9274 H   0  0  0  0  0  0  0  0  0  0  0  0
   45.0712   34.8331   46.7964 H   0  0  0  0  0  0  0  0  0  0  0  0
   44.5331   32.0855   42.2251 H   0  0  0  0  0  0  0  0  0  0  0  0
   43.7019   32.5316   40.6964 H   0  0  0  0  0  0  0  0  0  0  0  0
   45.4686   32.2069   40.6964 H   0  0  0  0  0  0  0  0  0  0  0  0
   43.8135   35.8354   41.2917 H   0  0  0  0  0  0  0  0  0  0  0  0
   44.6500   35.0738   39.8029 H   0  0  0  0  0  0  0  0  0  0  0  0
   42.9105   33.3073   39.9122 H   0  0  0  0  0  0  0  0  0  0  0  0
   42.5806   36.2316   39.1898 H   0  0  0  0  0  0  0  0  0  0  0  0
   42.5908   34.7756   38.1211 H   0  0  0  0  0  0  0  0  0  0  0  0
   40.3638   35.7412   38.1431 H   0  0  0  0  0  0  0  0  0  0  0  0
   40.3755   34.1464   39.0403 H   0  0  0  0  0  0  0  0  0  0  0  0
   39.7641   36.8609   39.9818 H   0  0  0  0  0  0  0  0  0  0  0  0
   39.1822   35.2837   40.5484 H   0  0  0  0  0  0  0  0  0  0  0  0
   41.9334   36.5911   41.0923 H   0  0  0  0  0  0  0  0  0  0  0  0
   40.7487   36.1241   42.3049 H   0  0  0  0  0  0  0  0  0  0  0  0
   42.1937   34.3053   42.2738 H   0  0  0  0  0  0  0  0  0  0  0  0
   40.0607   32.7925   42.3958 H   0  0  0  0  0  0  0  0  0  0  0  0
   46.8749   33.2263   41.2029 H   0  0  0  0  0  0  0  0  0  0  0  0
   46.3644   34.3919   39.9466 H   0  0  0  0  0  0  0  0  0  0  0  0
  1  9  1  6
  1  3  1  0
  2  7  2  0
  3  4  2  0
  3  2  1  0
  4  5  1  0
  5  6  2  0
  7  6  1  0
  8  1  1  0
 10  9  1  0
 10 15  1  0
 11 10  1  0
 12 11  1  0
 12 13  1  0
 13 14  1  0
 15 14  1  0
 16 15  1  0
 17  1  1  0
 17 18  1  0
 19 18  1  0
 19 20  1  0
 19 21  1  0
 22 19  1  0
  2 23  1  0
  4 24  1  0
  6 25  1  0
  8 26  1  0
  8 27  1  0
  8 28  1  0
  9 29  1  0
  9 30  1  0
 10 31  1  6
 11 32  1  0
 11 33  1  0
 12 34  1  0
 12 35  1  0
 13 36  1  0
 13 37  1  0
 14 38  1  0
 14 39  1  0
 15 40  1  1
 16 41  1  0
 17 42  1  0
 17 43  1  0
M  ISO  8  23  14  24  14  25  14  26   8  27   8  28   8  29   8  30   8
M  ISO  8  31  13  32  13  33  13  34  13  35  13  36  13  37  13  38  13
M  ISO  5  39  13  40  13  41  11  42   8  43   8
M  END
>  <minimizedAffinity>  (1) 
-6.04078293

>  <minimizedRMSD>  (1) 
0.312773675

$$$$
