
     RDKit          3D

 44 45  0  0  1  0  0  0  0  0999 V2000
   44.8610   34.1310   41.7000 C   0  0  1  0  0  0  0  0  0  0  0  0
   45.4420   33.2990   43.9350 C   0  0  0  0  0  0  0  0  0  0  0  0
   44.9240   34.3000   43.1150 C   0  0  0  0  0  0  0  0  0  0  0  0
   44.5060   35.3960   43.7700 C   0  0  0  0  0  0  0  0  0  0  0  0
   44.5780   35.5230   45.1170 N   0  0  0  0  0  0  0  0  0  0  0  0
   45.0880   34.5250   45.8620 C   0  0  0  0  0  0  0  0  0  0  0  0
   45.5270   33.3950   45.2590 N   0  0  0  0  0  0  0  0  0  0  0  0
   44.5960   32.6630   41.3590 C   0  0  0  0  0  0  0  0  0  0  0  0
   43.9810   34.9710   40.9140 C   0  0  0  0  0  0  0  0  0  0  0  0
   42.7000   34.3900   40.3560 C   0  0  2  0  0  0  0  0  0  0  0  0
   42.2250   35.2230   39.1780 C   0  0  0  0  0  0  0  0  0  0  0  0
   40.7030   35.2080   39.0820 C   0  0  0  0  0  0  0  0  0  0  0  0
   40.0270   35.8540   40.2300 C   0  0  0  0  0  0  0  0  0  0  0  0
   41.0460   35.8790   41.3760 C   0  0  0  0  0  0  0  0  0  0  0  0
   41.6180   34.4990   41.3860 C   0  0  1  0  0  0  0  0  0  0  0  0
   40.3890   33.2110   41.1860 S   0  0  0  0  0  0  0  0  0  0  0  0
   46.3100   34.2400   41.1340 C   0  0  0  0  0  0  0  0  0  0  0  0
   46.9910   35.2240   41.8710 O   0  0  0  0  0  0  0  0  0  0  0  0
   48.3730   35.2540   42.0180 C   0  0  0  0  0  0  0  0  0  0  0  0
   48.7970   34.4350   43.1080 N   0  0  0  0  0  0  0  0  0  0  0  0
   49.0360   35.9610   41.2160 O   0  0  0  0  0  0  0  0  0  0  0  0
   45.8018   32.3749   43.4591 H   0  0  0  0  0  0  0  0  0  0  0  0
   44.0861   36.2283   43.1860 H   0  0  0  0  0  0  0  0  0  0  0  0
   45.1479   34.6268   46.9556 H   0  0  0  0  0  0  0  0  0  0  0  0
   44.4914   32.0838   42.2883 H   0  0  0  0  0  0  0  0  0  0  0  0
   43.6692   32.5845   40.7718 H   0  0  0  0  0  0  0  0  0  0  0  0
   45.4369   32.2654   40.7718 H   0  0  0  0  0  0  0  0  0  0  0  0
   43.6960   35.8209   41.5515 H   0  0  0  0  0  0  0  0  0  0  0  0
   44.5744   35.1988   40.0163 H   0  0  0  0  0  0  0  0  0  0  0  0
   42.8956   33.3475   40.0647 H   0  0  0  0  0  0  0  0  0  0  0  0
   42.5678   36.2601   39.3082 H   0  0  0  0  0  0  0  0  0  0  0  0
   42.6406   34.7953   38.2537 H   0  0  0  0  0  0  0  0  0  0  0  0
   40.4079   35.7362   38.1633 H   0  0  0  0  0  0  0  0  0  0  0  0
   40.3919   34.1529   39.0784 H   0  0  0  0  0  0  0  0  0  0  0  0
   39.7259   36.8787   39.9665 H   0  0  0  0  0  0  0  0  0  0  0  0
   39.1180   35.3052   40.5172 H   0  0  0  0  0  0  0  0  0  0  0  0
   41.8308   36.6255   41.1843 H   0  0  0  0  0  0  0  0  0  0  0  0
   40.5912   36.1542   42.3390 H   0  0  0  0  0  0  0  0  0  0  0  0
   42.0477   34.3353   42.3853 H   0  0  0  0  0  0  0  0  0  0  0  0
   39.9762   32.7784   42.4186 H   0  0  0  0  0  0  0  0  0  0  0  0
   46.8248   33.2734   41.2370 H   0  0  0  0  0  0  0  0  0  0  0  0
   46.2846   34.5101   40.0680 H   0  0  0  0  0  0  0  0  0  0  0  0
   49.7985   34.3599   43.3366 H   0  0  0  0  0  0  0  0  0  0  0  0
   48.1014   33.9192   43.6657 H   0  0  0  0  0  0  0  0  0  0  0  0
  1  9  1  6
  1  3  1  0
  2  7  2  0
  3  4  2  0
  3  2  1  0
  4  5  1  0
  5  6  2  0
  7  6  1  0
  8  1  1  0
 10  9  1  0
 10 15  1  0
 11 10  1  0
 12 11  1  0
 12 13  1  0
 13 14  1  0
 14 15  1  0
 16 15  1  0
 17  1  1  0
 17 18  1  0
 18 19  1  0
 19 20  1  0
 21 19  2  0
  2 22  1  0
  4 23  1  0
  6 24  1  0
  8 25  1  0
  8 26  1  0
  8 27  1  0
  9 28  1  0
  9 29  1  0
 10 30  1  6
 11 31  1  0
 11 32  1  0
 12 33  1  0
 12 34  1  0
 13 35  1  0
 13 36  1  0
 14 37  1  0
 14 38  1  0
 15 39  1  1
 16 40  1  0
 17 41  1  0
 17 42  1  0
 20 43  1  0
 20 44  1  0
M  ISO  8  22  14  23  14  24  14  25   8  26   8  27   8  28   8  29   8
M  ISO  8  30  13  31  13  32  13  33  13  34  13  35  13  36  13  37  13
M  ISO  5  38  13  39  13  40  11  41   8  42   8
M  END
>  <minimizedAffinity>  (1) 
-5.67180729

>  <minimizedRMSD>  (1) 
0.455860883

$$$$
