
     RDKit          3D

 25 27  0  0  0  0  0  0  0  0999 V2000
   43.1840   35.0730   41.3540 C   0  0  0  0  0  0  0  0  0  0  0  0
   41.9560   35.4940   41.7600 N   0  0  0  0  0  0  0  0  0  0  0  0
   40.8520   35.0850   41.1280 C   0  0  0  0  0  0  0  0  0  0  0  0
   40.9080   34.2450   40.0670 N   0  0  0  0  0  0  0  0  0  0  0  0
   42.1290   33.8160   39.6500 C   0  0  0  0  0  0  0  0  0  0  0  0
   42.1570   32.9580   38.5650 C   0  0  0  0  0  0  0  0  0  0  0  0
   43.3760   32.4960   38.1060 C   0  0  0  0  0  0  0  0  0  0  0  0
   44.5450   32.8840   38.7170 C   0  0  0  0  0  0  0  0  0  0  0  0
   44.5080   33.7320   39.7890 C   0  0  0  0  0  0  0  0  0  0  0  0
   43.3010   34.2040   40.2640 C   0  0  0  0  0  0  0  0  0  0  0  0
   44.3830   35.4440   41.9480 O   0  0  0  0  0  0  0  0  0  0  0  0
   44.3970   35.8040   44.2490 C   0  0  0  0  0  0  0  0  0  0  0  0
   44.7000   34.9390   43.1780 C   0  0  0  0  0  0  0  0  0  0  0  0
   45.2660   33.7070   43.4640 C   0  0  0  0  0  0  0  0  0  0  0  0
   45.5050   33.3870   44.7600 N   0  0  0  0  0  0  0  0  0  0  0  0
   45.2100   34.2250   45.7620 C   0  0  0  0  0  0  0  0  0  0  0  0
   44.6550   35.4410   45.5250 N   0  0  0  0  0  0  0  0  0  0  0  0
   39.8717   35.4399   41.4787 H   0  0  0  0  0  0  0  0  0  0  0  0
   41.2224   32.6480   38.0747 H   0  0  0  0  0  0  0  0  0  0  0  0
   43.4113   31.8124   37.2449 H   0  0  0  0  0  0  0  0  0  0  0  0
   45.5104   32.5121   38.3433 H   0  0  0  0  0  0  0  0  0  0  0  0
   45.4453   34.0398   40.2756 H   0  0  0  0  0  0  0  0  0  0  0  0
   43.9453   36.7858   44.0438 H   0  0  0  0  0  0  0  0  0  0  0  0
   45.5163   33.0031   42.6566 H   0  0  0  0  0  0  0  0  0  0  0  0
   45.4217   33.9219   46.7980 H   0  0  0  0  0  0  0  0  0  0  0  0
  1  2  2  0
  1 11  1  0
  3  2  1  0
  4  3  2  0
  5  4  1  0
  5 10  2  0
  6  5  1  0
  7  6  2  0
  7  8  1  0
  8  9  2  0
  9 10  1  0
 10  1  1  0
 11 13  1  0
 12 17  2  0
 13 14  2  0
 13 12  1  0
 14 15  1  0
 15 16  2  0
 17 16  1  0
  3 18  1  0
  6 19  1  0
  7 20  1  0
  8 21  1  0
  9 22  1  0
 12 23  1  0
 14 24  1  0
 16 25  1  0
M  ISO  8  18  14  19  14  20  14  21  14  22  14  23  14  24  14  25  14
M  END
>  <minimizedAffinity>  (1) 
-4.53209209

>  <minimizedRMSD>  (1) 
2.19132352

$$$$
