
     RDKit          3D

 17 17  0  0  0  0  0  0  0  0999 V2000
   45.2550   36.0850   43.2490 C   0  0  0  0  0  0  0  0  0  0  0  0
   46.1100   34.9960   43.0060 C   0  0  0  0  0  0  0  0  0  0  0  0
   46.2380   34.0110   44.0000 C   0  0  0  0  0  0  0  0  0  0  0  0
   45.5260   34.1770   45.1310 N   0  0  0  0  0  0  0  0  0  0  0  0
   44.7140   35.2190   45.3510 C   0  0  0  0  0  0  0  0  0  0  0  0
   44.5760   36.1740   44.4130 N   0  0  0  0  0  0  0  0  0  0  0  0
   46.7430   35.0150   41.7930 O   0  0  0  0  0  0  0  0  0  0  0  0
   48.0710   34.6600   41.5470 C   0  0  0  0  0  0  0  0  0  0  0  0
   49.0000   35.8580   41.5240 C   0  0  0  0  0  0  0  0  0  0  0  0
   45.1383   36.8693   42.4866 H   0  0  0  0  0  0  0  0  0  0  0  0
   46.8937   33.1390   43.8599 H   0  0  0  0  0  0  0  0  0  0  0  0
   44.1599   35.2942   46.2983 H   0  0  0  0  0  0  0  0  0  0  0  0
   48.4038   33.9712   42.3375 H   0  0  0  0  0  0  0  0  0  0  0  0
   48.1113   34.1880   40.5542 H   0  0  0  0  0  0  0  0  0  0  0  0
   49.2343   36.1602   42.5554 H   0  0  0  0  0  0  0  0  0  0  0  0
   49.9296   35.5911   41.0000 H   0  0  0  0  0  0  0  0  0  0  0  0
   48.5101   36.6919   41.0000 H   0  0  0  0  0  0  0  0  0  0  0  0
  1  6  2  0
  2  1  1  0
  2  3  2  0
  3  4  1  0
  4  5  2  0
  6  5  1  0
  7  2  1  0
  8  7  1  0
  9  8  1  0
  1 10  1  0
  3 11  1  0
  5 12  1  0
  8 13  1  0
  8 14  1  0
  9 15  1  0
  9 16  1  0
  9 17  1  0
M  ISO  8  10  14  11  14  12  14  13   8  14   8  15   8  16   8  17   8
M  END
>  <minimizedAffinity>  (1) 
-3.5024364

>  <minimizedRMSD>  (1) 
2.34214187

$$$$
