
     RDKit          3D

 14 14  0  0  0  0  0  0  0  0999 V2000
   44.3950   35.8140   44.5420 C   0  0  0  0  0  0  0  0  0  0  0  0
   44.7910   35.2160   43.3270 C   0  0  0  0  0  0  0  0  0  0  0  0
   45.4740   34.0090   43.3840 C   0  0  0  0  0  0  0  0  0  0  0  0
   45.7390   33.4460   44.5840 N   0  0  0  0  0  0  0  0  0  0  0  0
   45.3450   34.0470   45.7360 C   0  0  0  0  0  0  0  0  0  0  0  0
   44.6790   35.2170   45.7360 N   0  0  0  0  0  0  0  0  0  0  0  0
   44.4440   35.9170   42.2040 O   0  0  0  0  0  0  0  0  0  0  0  0
   43.5490   35.4440   41.2150 C   0  0  0  0  0  0  0  0  0  0  0  0
   43.8521   36.7706   44.5268 H   0  0  0  0  0  0  0  0  0  0  0  0
   45.7980   33.5130   42.4572 H   0  0  0  0  0  0  0  0  0  0  0  0
   45.5766   33.5641   46.6968 H   0  0  0  0  0  0  0  0  0  0  0  0
   42.6764   34.9828   41.7006 H   0  0  0  0  0  0  0  0  0  0  0  0
   43.2178   36.2848   40.5879 H   0  0  0  0  0  0  0  0  0  0  0  0
   44.0572   34.6967   40.5879 H   0  0  0  0  0  0  0  0  0  0  0  0
  1  6  2  0
  2  3  2  0
  2  1  1  0
  3  4  1  0
  4  5  2  0
  5  6  1  0
  7  2  1  0
  8  7  1  0
  1  9  1  0
  3 10  1  0
  5 11  1  0
  8 12  1  0
  8 13  1  0
  8 14  1  0
M  ISO  6   9  14  10  14  11  14  12   8  13   8  14   8
M  END
>  <minimizedAffinity>  (1) 
-2.82959008

>  <minimizedRMSD>  (1) 
1.18822026

$$$$
