
     RDKit          3D

 31 33  0  0  0  0  0  0  0  0999 V2000
   44.8670   35.2410   43.0110 C   0  0  0  0  0  0  0  0  0  0  0  0
   44.3270   33.9080   42.5000 C   0  0  0  0  0  0  0  0  0  0  0  0
   43.7200   34.1950   41.1620 C   0  0  0  0  0  0  0  0  0  0  0  0
   44.2790   33.8350   39.9320 C   0  0  0  0  0  0  0  0  0  0  0  0
   43.4840   34.2400   38.9230 N   0  0  0  0  0  0  0  0  0  0  0  0
   42.4000   34.8650   39.4570 C   0  0  0  0  0  0  0  0  0  0  0  0
   41.3180   35.4440   38.8320 C   0  0  0  0  0  0  0  0  0  0  0  0
   40.3590   36.0100   39.6260 C   0  0  0  0  0  0  0  0  0  0  0  0
   40.4930   35.9880   40.9990 C   0  0  0  0  0  0  0  0  0  0  0  0
   41.5820   35.4060   41.6490 C   0  0  0  0  0  0  0  0  0  0  0  0
   42.5400   34.8400   40.8420 C   0  0  0  0  0  0  0  0  0  0  0  0
   46.0880   35.5860   42.4490 O   0  0  0  0  0  0  0  0  0  0  0  0
   47.6530   34.6750   40.9700 C   0  0  0  0  0  0  0  0  0  0  0  0
   47.1740   34.7840   42.2960 C   0  0  0  0  0  0  0  0  0  0  0  0
   47.8460   34.0710   43.3100 C   0  0  0  0  0  0  0  0  0  0  0  0
   48.9010   33.3340   42.9470 N   0  0  0  0  0  0  0  0  0  0  0  0
   49.3500   33.2340   41.6970 C   0  0  0  0  0  0  0  0  0  0  0  0
   48.7360   33.8990   40.6990 N   0  0  0  0  0  0  0  0  0  0  0  0
   44.1371   36.0287   42.7728 H   0  0  0  0  0  0  0  0  0  0  0  0
   45.0228   35.1375   44.0950 H   0  0  0  0  0  0  0  0  0  0  0  0
   45.1435   33.1776   42.4007 H   0  0  0  0  0  0  0  0  0  0  0  0
   43.5889   33.4794   43.1939 H   0  0  0  0  0  0  0  0  0  0  0  0
   45.2309   33.2983   39.8065 H   0  0  0  0  0  0  0  0  0  0  0  0
   43.6657   34.1004   37.9188 H   0  0  0  0  0  0  0  0  0  0  0  0
   41.2285   35.4510   37.7357 H   0  0  0  0  0  0  0  0  0  0  0  0
   39.4782   36.4842   39.1686 H   0  0  0  0  0  0  0  0  0  0  0  0
   39.7042   36.4511   41.6100 H   0  0  0  0  0  0  0  0  0  0  0  0
   41.6689   35.4005   42.7455 H   0  0  0  0  0  0  0  0  0  0  0  0
   47.1490   35.2184   40.1572 H   0  0  0  0  0  0  0  0  0  0  0  0
   47.5155   34.1191   44.3581 H   0  0  0  0  0  0  0  0  0  0  0  0
   50.2260   32.6057   41.4785 H   0  0  0  0  0  0  0  0  0  0  0  0
  2  1  1  0
  3  2  1  0
  4  3  2  0
  5  6  1  0
  5  4  1  0
  6 11  2  0
  7  6  1  0
  7  8  2  0
  8  9  1  0
  9 10  2  0
 11  3  1  0
 11 10  1  0
 12  1  1  0
 13 14  2  0
 14 12  1  0
 14 15  1  0
 16 15  2  0
 17 16  1  0
 18 13  1  0
 18 17  2  0
  1 19  1  0
  1 20  1  0
  2 21  1  0
  2 22  1  0
  4 23  1  0
  5 24  1  0
  7 25  1  0
  8 26  1  0
  9 27  1  0
 10 28  1  0
 13 29  1  0
 15 30  1  0
 17 31  1  0
M  ISO  8  19   8  20   8  21   8  22   8  23  14  24   9  25  14  26  14
M  ISO  5  27  14  28  14  29  14  30  14  31  14
M  END
>  <minimizedAffinity>  (1) 
-4.75542498

>  <minimizedRMSD>  (1) 
7.44521284

$$$$
