
     RDKit          3D

 19 19  0  0  0  0  0  0  0  0999 V2000
   46.8530   35.0210   41.8180 O   0  0  0  0  0  0  0  0  0  0  0  0
   45.3080   36.0740   43.2240 C   0  0  0  0  0  0  0  0  0  0  0  0
   46.1830   34.9880   43.0210 C   0  0  0  0  0  0  0  0  0  0  0  0
   46.2890   34.0140   44.0140 C   0  0  0  0  0  0  0  0  0  0  0  0
   45.5470   34.1610   45.1230 N   0  0  0  0  0  0  0  0  0  0  0  0
   44.7170   35.2030   45.3030 C   0  0  0  0  0  0  0  0  0  0  0  0
   44.5880   36.1610   44.3670 N   0  0  0  0  0  0  0  0  0  0  0  0
   48.1410   34.5070   41.5880 C   0  0  0  0  0  0  0  0  0  0  0  0
   49.2070   35.5550   41.9000 C   0  0  0  0  0  0  0  0  0  0  0  0
   50.0850   35.1500   42.9660 N   0  0  0  0  0  0  0  0  0  0  0  0
   45.2100   36.8520   42.4526 H   0  0  0  0  0  0  0  0  0  0  0  0
   46.9605   33.1513   43.8919 H   0  0  0  0  0  0  0  0  0  0  0  0
   44.1327   35.2738   46.2323 H   0  0  0  0  0  0  0  0  0  0  0  0
   48.2991   33.6291   42.2316 H   0  0  0  0  0  0  0  0  0  0  0  0
   48.2238   34.2247   40.5281 H   0  0  0  0  0  0  0  0  0  0  0  0
   49.8077   35.7270   40.9947 H   0  0  0  0  0  0  0  0  0  0  0  0
   48.6900   36.4705   42.2234 H   0  0  0  0  0  0  0  0  0  0  0  0
   49.6413   35.3547   43.8727 H   0  0  0  0  0  0  0  0  0  0  0  0
   50.2688   34.1391   42.8941 H   0  0  0  0  0  0  0  0  0  0  0  0
  1  3  1  0
  2  7  2  0
  3  2  1  0
  3  4  2  0
  4  5  1  0
  5  6  2  0
  7  6  1  0
  8  1  1  0
  8  9  1  0
  9 10  1  0
  2 11  1  0
  4 12  1  0
  6 13  1  0
  8 14  1  0
  8 15  1  0
  9 16  1  0
  9 17  1  0
 10 18  1  0
 10 19  1  0
M  ISO  8  11  14  12  14  13  14  14   8  15   8  16   8  17   8  18   5
M  ISO  1  19   5
M  END
>  <minimizedAffinity>  (1) 
-3.9252274

>  <minimizedRMSD>  (1) 
0.5811553

$$$$
