
     RDKit          3D

 18 18  0  0  0  0  0  0  0  0999 V2000
   45.0300   36.0300   43.2830 C   0  0  0  0  0  0  0  0  0  0  0  0
   45.8420   34.9480   42.9000 C   0  0  0  0  0  0  0  0  0  0  0  0
   46.1000   33.9600   43.8510 C   0  0  0  0  0  0  0  0  0  0  0  0
   45.5620   34.0920   45.0780 N   0  0  0  0  0  0  0  0  0  0  0  0
   44.7920   35.1290   45.4240 C   0  0  0  0  0  0  0  0  0  0  0  0
   44.5270   36.0920   44.5340 N   0  0  0  0  0  0  0  0  0  0  0  0
   46.2870   35.0050   41.6110 O   0  0  0  0  0  0  0  0  0  0  0  0
   47.4970   34.4990   41.1370 C   0  0  0  0  0  0  0  0  0  0  0  0
   48.6570   35.4530   41.3850 C   0  0  0  0  0  0  0  0  0  0  0  0
   49.8520   34.7110   42.5180 S   0  0  0  0  0  0  0  0  0  0  0  0
   44.8039   36.8284   42.5609 H   0  0  0  0  0  0  0  0  0  0  0  0
   46.7292   33.0923   43.6035 H   0  0  0  0  0  0  0  0  0  0  0  0
   44.3764   35.1903   46.4406 H   0  0  0  0  0  0  0  0  0  0  0  0
   47.4078   34.3238   40.0547 H   0  0  0  0  0  0  0  0  0  0  0  0
   47.7071   33.5647   41.6783 H   0  0  0  0  0  0  0  0  0  0  0  0
   49.1538   35.6756   40.4292 H   0  0  0  0  0  0  0  0  0  0  0  0
   48.2676   36.3789   41.8335 H   0  0  0  0  0  0  0  0  0  0  0  0
   49.4658   34.9508   43.8104 H   0  0  0  0  0  0  0  0  0  0  0  0
  1  6  2  0
  2  1  1  0
  2  3  2  0
  3  4  1  0
  4  5  2  0
  6  5  1  0
  7  2  1  0
  8  9  1  0
  8  7  1  0
  9 10  1  0
  1 11  1  0
  3 12  1  0
  5 13  1  0
  8 14  1  0
  8 15  1  0
  9 16  1  0
  9 17  1  0
 10 18  1  0
M  ISO  8  11  14  12  14  13  14  14   8  15   8  16   8  17   8  18  11
M  END
>  <minimizedAffinity>  (1) 
-3.36601138

>  <minimizedRMSD>  (1) 
0.641977251

$$$$
