
     RDKit          3D

 23 24  0  0  0  0  0  0  0  0999 V2000
   47.4010   34.5390   41.1590 C   0  0  0  0  0  0  0  0  0  0  0  0
   48.6580   35.3860   41.1870 C   0  0  0  0  0  0  0  0  0  0  0  0
   49.7680   34.8410   42.5130 S   0  0  0  0  0  0  0  0  0  0  0  0
   50.1270   33.1070   42.2850 C   0  0  0  0  0  0  0  0  0  0  0  0
   49.3400   32.0870   42.7270 N   0  0  0  0  0  0  0  0  0  0  0  0
   49.8720   30.9640   42.4050 O   0  0  0  0  0  0  0  0  0  0  0  0
   50.9860   31.2030   41.7650 C   0  0  0  0  0  0  0  0  0  0  0  0
   51.1740   32.5450   41.6720 N   0  0  0  0  0  0  0  0  0  0  0  0
   46.3160   35.1690   41.7430 O   0  0  0  0  0  0  0  0  0  0  0  0
   44.9860   36.0080   43.4690 C   0  0  0  0  0  0  0  0  0  0  0  0
   45.8720   35.0260   43.0220 C   0  0  0  0  0  0  0  0  0  0  0  0
   46.2150   34.0050   43.9150 C   0  0  0  0  0  0  0  0  0  0  0  0
   45.6860   34.0120   45.1460 N   0  0  0  0  0  0  0  0  0  0  0  0
   44.8360   34.9640   45.5610 C   0  0  0  0  0  0  0  0  0  0  0  0
   44.4950   35.9500   44.7190 N   0  0  0  0  0  0  0  0  0  0  0  0
   47.1535   34.3121   40.1115 H   0  0  0  0  0  0  0  0  0  0  0  0
   47.6043   33.6259   41.7377 H   0  0  0  0  0  0  0  0  0  0  0  0
   49.1767   35.2945   40.2213 H   0  0  0  0  0  0  0  0  0  0  0  0
   48.3751   36.4331   41.3703 H   0  0  0  0  0  0  0  0  0  0  0  0
   51.6657   30.4367   41.3640 H   0  0  0  0  0  0  0  0  0  0  0  0
   44.6900   36.8285   42.7988 H   0  0  0  0  0  0  0  0  0  0  0  0
   46.9092   33.2078   43.6108 H   0  0  0  0  0  0  0  0  0  0  0  0
   44.4237   34.9356   46.5804 H   0  0  0  0  0  0  0  0  0  0  0  0
  1  2  1  0
  1  9  1  0
  2  3  1  0
  4  3  1  0
  4  5  2  0
  6  5  1  0
  7  6  1  0
  8  7  2  0
  8  4  1  0
  9 11  1  0
 10 15  2  0
 11 10  1  0
 11 12  2  0
 12 13  1  0
 13 14  2  0
 15 14  1  0
  1 16  1  0
  1 17  1  0
  2 18  1  0
  2 19  1  0
  7 20  1  0
 10 21  1  0
 12 22  1  0
 14 23  1  0
M  ISO  8  16   8  17   8  18   8  19   8  20  14  21  14  22  14  23  14
M  END
>  <minimizedAffinity>  (1) 
-3.8489778

>  <minimizedRMSD>  (1) 
0.849709451

$$$$
