
     RDKit          3D

 25 26  0  0  0  0  0  0  0  0999 V2000
   45.3060   34.6240   41.3390 O   0  0  0  0  0  0  0  0  0  0  0  0
   44.7950   35.9760   43.1670 C   0  0  0  0  0  0  0  0  0  0  0  0
   45.1720   34.6990   42.7010 C   0  0  0  0  0  0  0  0  0  0  0  0
   45.3640   33.6840   43.6330 C   0  0  0  0  0  0  0  0  0  0  0  0
   45.1800   33.9650   44.9390 N   0  0  0  0  0  0  0  0  0  0  0  0
   44.8220   35.1820   45.3580 C   0  0  0  0  0  0  0  0  0  0  0  0
   44.6280   36.1850   44.4970 N   0  0  0  0  0  0  0  0  0  0  0  0
   45.6890   33.4860   40.6200 C   0  0  0  0  0  0  0  0  0  0  0  0
   46.8910   33.7450   39.7400 C   0  0  0  0  0  0  0  0  0  0  0  0
   48.4250   33.3710   40.6190 S   0  0  0  0  0  0  0  0  0  0  0  0
   48.6730   34.4320   42.0430 C   0  0  0  0  0  0  0  0  0  0  0  0
   49.1240   35.8460   41.6640 C   0  0  0  0  0  0  0  0  0  0  0  0
   49.9970   34.8960   42.4720 C   0  0  0  0  0  0  0  0  0  0  0  0
   44.6370   36.7992   42.4547 H   0  0  0  0  0  0  0  0  0  0  0  0
   45.6594   32.6744   43.3116 H   0  0  0  0  0  0  0  0  0  0  0  0
   44.6841   35.3620   46.4344 H   0  0  0  0  0  0  0  0  0  0  0  0
   45.9366   32.6842   41.3312 H   0  0  0  0  0  0  0  0  0  0  0  0
   44.8496   33.1987   39.9697 H   0  0  0  0  0  0  0  0  0  0  0  0
   46.8965   34.8033   39.4399 H   0  0  0  0  0  0  0  0  0  0  0  0
   46.8254   33.0954   38.8547 H   0  0  0  0  0  0  0  0  0  0  0  0
   47.8697   33.9406   42.6115 H   0  0  0  0  0  0  0  0  0  0  0  0
   49.3806   36.0883   40.6222 H   0  0  0  0  0  0  0  0  0  0  0  0
   48.7305   36.8650   41.7937 H   0  0  0  0  0  0  0  0  0  0  0  0
   50.1850   35.1000   43.5364 H   0  0  0  0  0  0  0  0  0  0  0  0
   51.0205   34.5092   42.3587 H   0  0  0  0  0  0  0  0  0  0  0  0
  1  3  1  0
  2  7  2  0
  3  2  1  0
  3  4  2  0
  4  5  1  0
  5  6  2  0
  7  6  1  0
  8  1  1  0
  9 10  1  0
  9  8  1  0
 10 11  1  0
 11 13  1  0
 12 11  1  0
 12 13  1  0
  2 14  1  0
  4 15  1  0
  6 16  1  0
  8 17  1  0
  8 18  1  0
  9 19  1  0
  9 20  1  0
 11 21  1  0
 12 22  1  0
 12 23  1  0
 13 24  1  0
 13 25  1  0
M  ISO  8  14  14  15  14  16  14  17   8  18   8  19   8  20   8  21  13
M  ISO  4  22  13  23  13  24  13  25  13
M  END
>  <minimizedAffinity>  (1) 
-3.76472592

>  <minimizedRMSD>  (1) 
1.87587249

$$$$
