
     RDKit          3D

 34 36  0  0  0  0  0  0  0  0999 V2000
   47.2120   34.6400   41.5610 C   0  0  0  0  0  0  0  0  0  0  0  0
   48.4780   35.4600   41.4810 C   0  0  0  0  0  0  0  0  0  0  0  0
   49.8340   34.6580   42.3640 S   0  0  0  0  0  0  0  0  0  0  0  0
   50.1340   33.0160   41.7720 C   0  0  0  0  0  0  0  0  0  0  0  0
   49.6700   32.4400   40.5900 C   0  0  0  0  0  0  0  0  0  0  0  0
   50.0080   31.1400   40.2960 C   0  0  0  0  0  0  0  0  0  0  0  0
   50.7980   30.4020   41.1520 C   0  0  0  0  0  0  0  0  0  0  0  0
   51.2520   30.9980   42.3270 C   0  0  0  0  0  0  0  0  0  0  0  0
   50.8940   32.2730   42.5720 N   0  0  0  0  0  0  0  0  0  0  0  0
   46.4770   34.8680   42.7160 O   0  0  0  0  0  0  0  0  0  0  0  0
   45.4840   34.5410   44.8000 C   0  0  0  0  0  0  0  0  0  0  0  0
   46.4440   34.1360   43.8380 C   0  0  0  0  0  0  0  0  0  0  0  0
   47.2370   33.0510   44.1400 C   0  0  0  0  0  0  0  0  0  0  0  0
   47.0860   32.4070   45.3230 N   0  0  0  0  0  0  0  0  0  0  0  0
   46.1630   32.8140   46.2230 C   0  0  0  0  0  0  0  0  0  0  0  0
   45.3740   33.8620   45.9680 N   0  0  0  0  0  0  0  0  0  0  0  0
   45.9390   32.1960   47.4880 N   0  0  0  0  0  0  0  0  0  0  0  0
   47.0030   31.5450   47.9700 N   0  0  0  0  0  0  0  0  0  0  0  0
   46.6810   31.0000   49.1670 C   0  0  0  0  0  0  0  0  0  0  0  0
   45.3550   31.3530   49.3960 C   0  0  0  0  0  0  0  0  0  0  0  0
   44.9040   32.1140   48.3150 C   0  0  0  0  0  0  0  0  0  0  0  0
   47.4843   33.5748   41.5261 H   0  0  0  0  0  0  0  0  0  0  0  0
   46.5798   34.9370   40.7112 H   0  0  0  0  0  0  0  0  0  0  0  0
   48.7602   35.5818   40.4248 H   0  0  0  0  0  0  0  0  0  0  0  0
   48.2891   36.4379   41.9478 H   0  0  0  0  0  0  0  0  0  0  0  0
   49.0398   33.0198   39.8996 H   0  0  0  0  0  0  0  0  0  0  0  0
   49.6430   30.6822   39.3647 H   0  0  0  0  0  0  0  0  0  0  0  0
   51.0648   29.3622   40.9118 H   0  0  0  0  0  0  0  0  0  0  0  0
   51.8851   30.4426   43.0346 H   0  0  0  0  0  0  0  0  0  0  0  0
   44.8310   35.4031   44.5991 H   0  0  0  0  0  0  0  0  0  0  0  0
   47.9940   32.7067   43.4200 H   0  0  0  0  0  0  0  0  0  0  0  0
   47.3323   30.4026   49.8219 H   0  0  0  0  0  0  0  0  0  0  0  0
   44.7611   31.0787   50.2803 H   0  0  0  0  0  0  0  0  0  0  0  0
   43.9043   32.5520   48.1782 H   0  0  0  0  0  0  0  0  0  0  0  0
  1 10  1  0
  2  1  1  0
  2  3  1  0
  4  3  1  0
  4  9  1  0
  5  4  2  0
  6  5  1  0
  6  7  2  0
  7  8  1  0
  8  9  2  0
 10 12  1  0
 11 16  2  0
 12 13  2  0
 12 11  1  0
 13 14  1  0
 14 15  2  0
 15 17  1  0
 16 15  1  0
 17 18  1  0
 17 21  1  0
 18 19  2  0
 19 20  1  0
 21 20  2  0
  1 22  1  0
  1 23  1  0
  2 24  1  0
  2 25  1  0
  5 26  1  0
  6 27  1  0
  7 28  1  0
  8 29  1  0
 11 30  1  0
 13 31  1  0
 19 32  1  0
 20 33  1  0
 21 34  1  0
M  ISO  8  22   8  23   8  24   8  25   8  26  14  27  14  28  14  29  14
M  ISO  5  30  14  31  14  32  14  33  14  34  14
M  END
>  <minimizedAffinity>  (1) 
-4.87324381

>  <minimizedRMSD>  (1) 
2.43428349

$$$$
