
     RDKit          3D

 41 43  0  0  0  0  0  0  0  0999 V2000
   46.9960   34.4000   41.3900 C   0  0  0  0  0  0  0  0  0  0  0  0
   48.1240   35.3600   41.6370 C   0  0  0  0  0  0  0  0  0  0  0  0
   49.6000   34.4960   42.2160 S   0  0  0  0  0  0  0  0  0  0  0  0
   49.7020   32.8430   41.5880 C   0  0  0  0  0  0  0  0  0  0  0  0
   49.5110   32.4380   40.2760 C   0  0  0  0  0  0  0  0  0  0  0  0
   49.6290   31.0970   39.9620 C   0  0  0  0  0  0  0  0  0  0  0  0
   49.9320   30.1710   40.9380 C   0  0  0  0  0  0  0  0  0  0  0  0
   50.1190   30.6040   42.2500 C   0  0  0  0  0  0  0  0  0  0  0  0
   49.9920   31.9220   42.5020 N   0  0  0  0  0  0  0  0  0  0  0  0
   46.0680   34.3660   42.4240 O   0  0  0  0  0  0  0  0  0  0  0  0
   45.5050   34.4480   44.6780 C   0  0  0  0  0  0  0  0  0  0  0  0
   46.1780   33.7910   43.6260 C   0  0  0  0  0  0  0  0  0  0  0  0
   46.8710   32.6420   43.9320 C   0  0  0  0  0  0  0  0  0  0  0  0
   46.8980   32.1710   45.2000 N   0  0  0  0  0  0  0  0  0  0  0  0
   46.2450   32.8140   46.1990 C   0  0  0  0  0  0  0  0  0  0  0  0
   45.5720   33.9200   45.9340 N   0  0  0  0  0  0  0  0  0  0  0  0
   46.2900   32.2950   47.5230 N   0  0  0  0  0  0  0  0  0  0  0  0
   47.5350   32.1250   48.2460 C   0  0  0  0  0  0  0  0  0  0  0  0
   47.4780   31.0730   49.3020 C   0  0  0  0  0  0  0  0  0  0  0  0
   46.5390   30.0570   48.8780 N   0  0  0  0  0  0  0  0  0  0  0  0
   45.1950   30.5920   48.9140 C   0  0  0  0  0  0  0  0  0  0  0  0
   45.0820   31.9150   48.1990 C   0  0  0  0  0  0  0  0  0  0  0  0
   46.4789   34.6988   40.4662 H   0  0  0  0  0  0  0  0  0  0  0  0
   47.4347   33.3943   41.3121 H   0  0  0  0  0  0  0  0  0  0  0  0
   48.3600   35.8854   40.6999 H   0  0  0  0  0  0  0  0  0  0  0  0
   47.8108   36.0740   42.4130 H   0  0  0  0  0  0  0  0  0  0  0  0
   49.2688   33.1740   39.4952 H   0  0  0  0  0  0  0  0  0  0  0  0
   49.4798   30.7654   38.9238 H   0  0  0  0  0  0  0  0  0  0  0  0
   50.0249   29.1046   40.6846 H   0  0  0  0  0  0  0  0  0  0  0  0
   50.3623   29.8931   43.0534 H   0  0  0  0  0  0  0  0  0  0  0  0
   44.9361   35.3702   44.4885 H   0  0  0  0  0  0  0  0  0  0  0  0
   47.4078   32.1017   43.1384 H   0  0  0  0  0  0  0  0  0  0  0  0
   48.3200   31.8514   47.5257 H   0  0  0  0  0  0  0  0  0  0  0  0
   47.7439   33.0782   48.7537 H   0  0  0  0  0  0  0  0  0  0  0  0
   48.4742   30.6264   49.4368 H   0  0  0  0  0  0  0  0  0  0  0  0
   47.1570   31.5117   50.2583 H   0  0  0  0  0  0  0  0  0  0  0  0
   46.6023   29.2465   49.5105 H   0  0  0  0  0  0  0  0  0  0  0  0
   44.5156   29.8722   48.4341 H   0  0  0  0  0  0  0  0  0  0  0  0
   44.9287   30.7575   49.9684 H   0  0  0  0  0  0  0  0  0  0  0  0
   44.8349   32.6920   48.9374 H   0  0  0  0  0  0  0  0  0  0  0  0
   44.2981   31.8087   47.4347 H   0  0  0  0  0  0  0  0  0  0  0  0
  1  2  1  0
  1 10  1  0
  2  3  1  0
  4  3  1  0
  4  9  1  0
  5  4  2  0
  6  5  1  0
  6  7  2  0
  7  8  1  0
  8  9  2  0
 10 12  1  0
 11 16  2  0
 12 13  2  0
 12 11  1  0
 13 14  1  0
 14 15  2  0
 15 17  1  0
 16 15  1  0
 17 22  1  0
 17 18  1  0
 18 19  1  0
 20 21  1  0
 20 19  1  0
 22 21  1  0
  1 23  1  0
  1 24  1  0
  2 25  1  0
  2 26  1  0
  5 27  1  0
  6 28  1  0
  7 29  1  0
  8 30  1  0
 11 31  1  0
 13 32  1  0
 18 33  1  0
 18 34  1  0
 19 35  1  0
 19 36  1  0
 20 37  1  0
 21 38  1  0
 21 39  1  0
 22 40  1  0
 22 41  1  0
M  ISO  8  23   8  24   8  25   8  26   8  27  14  28  14  29  14  30  14
M  ISO  8  31  14  32  14  33  13  34  13  35  13  36  13  37   5  38  13
M  ISO  3  39  13  40  13  41  13
M  END
>  <minimizedAffinity>  (1) 
-4.71832848

>  <minimizedRMSD>  (1) 
2.54121494

$$$$
