
     RDKit          3D

 40 42  0  0  0  0  0  0  0  0999 V2000
   47.1130   34.6180   41.5600 C   0  0  0  0  0  0  0  0  0  0  0  0
   48.3730   35.4540   41.6300 C   0  0  0  0  0  0  0  0  0  0  0  0
   49.7520   34.4920   42.2630 S   0  0  0  0  0  0  0  0  0  0  0  0
   49.7710   32.8350   41.6390 C   0  0  0  0  0  0  0  0  0  0  0  0
   49.5410   32.4320   40.3310 C   0  0  0  0  0  0  0  0  0  0  0  0
   49.5970   31.0790   40.0240 C   0  0  0  0  0  0  0  0  0  0  0  0
   49.8760   30.1440   40.9940 C   0  0  0  0  0  0  0  0  0  0  0  0
   50.1020   30.5810   42.2990 C   0  0  0  0  0  0  0  0  0  0  0  0
   50.0360   31.9020   42.5470 N   0  0  0  0  0  0  0  0  0  0  0  0
   46.2790   34.8050   42.6530 O   0  0  0  0  0  0  0  0  0  0  0  0
   45.4070   34.6390   44.8060 C   0  0  0  0  0  0  0  0  0  0  0  0
   46.2890   34.1540   43.8250 C   0  0  0  0  0  0  0  0  0  0  0  0
   47.0660   33.0700   44.1660 C   0  0  0  0  0  0  0  0  0  0  0  0
   46.9720   32.5120   45.3900 N   0  0  0  0  0  0  0  0  0  0  0  0
   46.1110   32.9970   46.3210 C   0  0  0  0  0  0  0  0  0  0  0  0
   45.3540   34.0360   46.0210 N   0  0  0  0  0  0  0  0  0  0  0  0
   46.0720   32.3500   47.5900 N   0  0  0  0  0  0  0  0  0  0  0  0
   47.2670   32.2850   48.4110 C   0  0  0  0  0  0  0  0  0  0  0  0
   47.3890   30.8930   48.9760 C   0  0  0  0  0  0  0  0  0  0  0  0
   46.4580   29.9990   48.5180 O   0  0  0  0  0  0  0  0  0  0  0  0
   45.1600   30.4130   48.7100 C   0  0  0  0  0  0  0  0  0  0  0  0
   44.8450   31.7500   48.0770 C   0  0  0  0  0  0  0  0  0  0  0  0
   46.5619   34.8896   40.6476 H   0  0  0  0  0  0  0  0  0  0  0  0
   47.4182   33.5612   41.5549 H   0  0  0  0  0  0  0  0  0  0  0  0
   48.6205   35.8162   40.6213 H   0  0  0  0  0  0  0  0  0  0  0  0
   48.1945   36.2993   42.3109 H   0  0  0  0  0  0  0  0  0  0  0  0
   49.3177   33.1731   39.5494 H   0  0  0  0  0  0  0  0  0  0  0  0
   49.4157   30.7499   38.9902 H   0  0  0  0  0  0  0  0  0  0  0  0
   49.9199   29.0734   40.7453 H   0  0  0  0  0  0  0  0  0  0  0  0
   50.3280   29.8656   43.1034 H   0  0  0  0  0  0  0  0  0  0  0  0
   44.7623   35.5037   44.5901 H   0  0  0  0  0  0  0  0  0  0  0  0
   47.7716   32.6543   43.4316 H   0  0  0  0  0  0  0  0  0  0  0  0
   48.1507   32.5144   47.7975 H   0  0  0  0  0  0  0  0  0  0  0  0
   47.2004   33.0174   49.2290 H   0  0  0  0  0  0  0  0  0  0  0  0
   48.3870   30.5073   48.7207 H   0  0  0  0  0  0  0  0  0  0  0  0
   47.2204   30.9849   50.0591 H   0  0  0  0  0  0  0  0  0  0  0  0
   44.4876   29.6576   48.2773 H   0  0  0  0  0  0  0  0  0  0  0  0
   45.0188   30.5311   49.7945 H   0  0  0  0  0  0  0  0  0  0  0  0
   44.3842   32.4115   48.8253 H   0  0  0  0  0  0  0  0  0  0  0  0
   44.1471   31.6060   47.2391 H   0  0  0  0  0  0  0  0  0  0  0  0
  1  2  1  0
  1 10  1  0
  2  3  1  0
  4  3  1  0
  4  9  1  0
  5  4  2  0
  6  5  1  0
  6  7  2  0
  7  8  1  0
  8  9  2  0
 10 12  1  0
 11 16  2  0
 12 13  2  0
 12 11  1  0
 13 14  1  0
 14 15  2  0
 15 17  1  0
 16 15  1  0
 17 22  1  0
 17 18  1  0
 18 19  1  0
 20 21  1  0
 20 19  1  0
 22 21  1  0
  1 23  1  0
  1 24  1  0
  2 25  1  0
  2 26  1  0
  5 27  1  0
  6 28  1  0
  7 29  1  0
  8 30  1  0
 11 31  1  0
 13 32  1  0
 18 33  1  0
 18 34  1  0
 19 35  1  0
 19 36  1  0
 21 37  1  0
 21 38  1  0
 22 39  1  0
 22 40  1  0
M  ISO  8  23   8  24   8  25   8  26   8  27  14  28  14  29  14  30  14
M  ISO  8  31  14  32  14  33  13  34  13  35  13  36  13  37  13  38  13
M  ISO  2  39  13  40  13
M  END
>  <minimizedAffinity>  (1) 
-4.69292974

>  <minimizedRMSD>  (1) 
2.38635254

$$$$
