
     RDKit          3D

 39 41  0  0  0  0  0  0  0  0999 V2000
   47.0870   34.5450   41.6270 C   0  0  0  0  0  0  0  0  0  0  0  0
   48.3230   35.4030   41.6480 C   0  0  0  0  0  0  0  0  0  0  0  0
   49.7540   34.4740   42.2590 S   0  0  0  0  0  0  0  0  0  0  0  0
   49.7790   32.8180   41.6300 C   0  0  0  0  0  0  0  0  0  0  0  0
   49.5680   32.4170   40.3170 C   0  0  0  0  0  0  0  0  0  0  0  0
   49.6250   31.0670   40.0070 C   0  0  0  0  0  0  0  0  0  0  0  0
   49.8870   30.1310   40.9810 C   0  0  0  0  0  0  0  0  0  0  0  0
   50.0970   30.5620   42.2890 C   0  0  0  0  0  0  0  0  0  0  0  0
   50.0310   31.8800   42.5370 N   0  0  0  0  0  0  0  0  0  0  0  0
   46.2710   34.7740   42.7360 O   0  0  0  0  0  0  0  0  0  0  0  0
   45.3240   34.5780   44.8440 C   0  0  0  0  0  0  0  0  0  0  0  0
   46.2790   34.1340   43.9110 C   0  0  0  0  0  0  0  0  0  0  0  0
   47.1120   33.1040   44.2900 C   0  0  0  0  0  0  0  0  0  0  0  0
   46.9970   32.5550   45.5210 N   0  0  0  0  0  0  0  0  0  0  0  0
   46.0770   32.9900   46.4060 C   0  0  0  0  0  0  0  0  0  0  0  0
   45.2650   33.9790   46.0670 N   0  0  0  0  0  0  0  0  0  0  0  0
   45.9830   32.3910   47.6940 N   0  0  0  0  0  0  0  0  0  0  0  0
   47.0460   32.0420   48.6180 C   0  0  0  0  0  0  0  0  0  0  0  0
   46.6410   30.6360   49.0040 C   0  0  0  0  0  0  0  0  0  0  0  0
   45.1370   30.5460   48.7560 C   0  0  0  0  0  0  0  0  0  0  0  0
   44.7850   31.9770   48.4030 C   0  0  0  0  0  0  0  0  0  0  0  0
   46.5156   34.7681   40.7139 H   0  0  0  0  0  0  0  0  0  0  0  0
   47.4046   33.4921   41.6513 H   0  0  0  0  0  0  0  0  0  0  0  0
   48.5329   35.7552   40.6273 H   0  0  0  0  0  0  0  0  0  0  0  0
   48.1456   36.2536   42.3225 H   0  0  0  0  0  0  0  0  0  0  0  0
   49.3585   33.1605   39.5338 H   0  0  0  0  0  0  0  0  0  0  0  0
   49.4588   30.7401   38.9699 H   0  0  0  0  0  0  0  0  0  0  0  0
   49.9299   29.0606   40.7311 H   0  0  0  0  0  0  0  0  0  0  0  0
   50.3105   29.8440   43.0946 H   0  0  0  0  0  0  0  0  0  0  0  0
   44.6348   35.3969   44.5901 H   0  0  0  0  0  0  0  0  0  0  0  0
   47.8723   32.7272   43.5900 H   0  0  0  0  0  0  0  0  0  0  0  0
   48.0301   32.0587   48.1269 H   0  0  0  0  0  0  0  0  0  0  0  0
   47.1542   32.7326   49.4673 H   0  0  0  0  0  0  0  0  0  0  0  0
   47.1749   29.9010   48.3838 H   0  0  0  0  0  0  0  0  0  0  0  0
   46.8891   30.4200   50.0537 H   0  0  0  0  0  0  0  0  0  0  0  0
   44.9100   29.8626   47.9244 H   0  0  0  0  0  0  0  0  0  0  0  0
   44.5710   30.1502   49.6122 H   0  0  0  0  0  0  0  0  0  0  0  0
   44.6182   32.5858   49.3038 H   0  0  0  0  0  0  0  0  0  0  0  0
   43.8557   32.0856   47.8245 H   0  0  0  0  0  0  0  0  0  0  0  0
  1  2  1  0
  1 10  1  0
  2  3  1  0
  4  3  1  0
  4  9  1  0
  5  4  2  0
  6  5  1  0
  6  7  2  0
  7  8  1  0
  8  9  2  0
 10 12  1  0
 11 16  2  0
 12 13  2  0
 12 11  1  0
 13 14  1  0
 14 15  2  0
 15 17  1  0
 16 15  1  0
 17 21  1  0
 17 18  1  0
 18 19  1  0
 20 19  1  0
 21 20  1  0
  1 22  1  0
  1 23  1  0
  2 24  1  0
  2 25  1  0
  5 26  1  0
  6 27  1  0
  7 28  1  0
  8 29  1  0
 11 30  1  0
 13 31  1  0
 18 32  1  0
 18 33  1  0
 19 34  1  0
 19 35  1  0
 20 36  1  0
 20 37  1  0
 21 38  1  0
 21 39  1  0
M  ISO  8  22   8  23   8  24   8  25   8  26  14  27  14  28  14  29  14
M  ISO  8  30  14  31  14  32  13  33  13  34  13  35  13  36  13  37  13
M  ISO  2  38  13  39  13
M  END
>  <minimizedAffinity>  (1) 
-4.55643559

>  <minimizedRMSD>  (1) 
2.30467796

$$$$
