
     RDKit          3D

 30 31  0  0  0  0  0  0  0  0999 V2000
   47.6670   34.5620   41.0770 C   0  0  0  0  0  0  0  0  0  0  0  0
   48.9420   35.3390   41.2690 C   0  0  0  0  0  0  0  0  0  0  0  0
   50.0180   34.5410   42.4740 S   0  0  0  0  0  0  0  0  0  0  0  0
   50.3050   32.8360   42.0920 C   0  0  0  0  0  0  0  0  0  0  0  0
   51.2800   32.3150   41.2510 C   0  0  0  0  0  0  0  0  0  0  0  0
   51.3600   30.9600   41.0680 C   0  0  0  0  0  0  0  0  0  0  0  0
   50.4840   30.1090   41.7070 C   0  0  0  0  0  0  0  0  0  0  0  0
   49.5090   30.6480   42.5470 C   0  0  0  0  0  0  0  0  0  0  0  0
   49.4750   31.9890   42.6930 N   0  0  0  0  0  0  0  0  0  0  0  0
   46.6180   34.9850   41.8760 O   0  0  0  0  0  0  0  0  0  0  0  0
   45.2750   35.3280   43.7600 C   0  0  0  0  0  0  0  0  0  0  0  0
   46.3050   34.5960   43.1190 C   0  0  0  0  0  0  0  0  0  0  0  0
   46.8810   33.5630   43.8230 C   0  0  0  0  0  0  0  0  0  0  0  0
   46.4690   33.2710   45.0790 N   0  0  0  0  0  0  0  0  0  0  0  0
   45.4830   33.9810   45.6780 C   0  0  0  0  0  0  0  0  0  0  0  0
   44.9040   34.9900   45.0170 N   0  0  0  0  0  0  0  0  0  0  0  0
   45.0180   33.6900   47.0290 C   0  0  0  0  0  0  0  0  0  0  0  0
   45.4060   32.6800   47.6740 O   0  0  0  0  0  0  0  0  0  0  0  0
   44.1160   34.5030   47.7020 O   0  0  0  0  0  0  0  0  0  0  0  0
   47.3598   34.6580   40.0251 H   0  0  0  0  0  0  0  0  0  0  0  0
   47.8841   33.5228   41.3648 H   0  0  0  0  0  0  0  0  0  0  0  0
   49.4696   35.4059   40.3061 H   0  0  0  0  0  0  0  0  0  0  0  0
   48.6855   36.3415   41.6420 H   0  0  0  0  0  0  0  0  0  0  0  0
   51.9830   32.9859   40.7356 H   0  0  0  0  0  0  0  0  0  0  0  0
   52.1325   30.5460   40.4032 H   0  0  0  0  0  0  0  0  0  0  0  0
   50.5525   29.0214   41.5570 H   0  0  0  0  0  0  0  0  0  0  0  0
   48.7916   30.0010   43.0730 H   0  0  0  0  0  0  0  0  0  0  0  0
   44.7816   36.1630   43.2410 H   0  0  0  0  0  0  0  0  0  0  0  0
   47.6834   32.9693   43.3608 H   0  0  0  0  0  0  0  0  0  0  0  0
   43.8266   34.2680   48.6191 H   0  0  0  0  0  0  0  0  0  0  0  0
  1  2  1  0
  1 10  1  0
  2  3  1  0
  4  3  1  0
  4  9  1  0
  5  4  2  0
  6  5  1  0
  6  7  2  0
  7  8  1  0
  8  9  2  0
 10 12  1  0
 11 16  2  0
 12 11  1  0
 12 13  2  0
 13 14  1  0
 14 15  2  0
 15 17  1  0
 16 15  1  0
 17 18  2  0
 17 19  1  0
  1 20  1  0
  1 21  1  0
  2 22  1  0
  2 23  1  0
  5 24  1  0
  6 25  1  0
  7 26  1  0
  8 27  1  0
 11 28  1  0
 13 29  1  0
 19 30  1  0
M  ISO  8  20   8  21   8  22   8  23   8  24  14  25  14  26  14  27  14
M  ISO  3  28  14  29  14  30   3
M  END
>  <minimizedAffinity>  (1) 
-4.51983213

>  <minimizedRMSD>  (1) 
0.953982711

$$$$
