
     RDKit          3D

 33 34  0  0  0  0  0  0  0  0999 V2000
   47.2950   34.5720   41.2910 C   0  0  0  0  0  0  0  0  0  0  0  0
   48.6120   35.3110   41.2170 C   0  0  0  0  0  0  0  0  0  0  0  0
   49.7780   34.6760   42.4540 S   0  0  0  0  0  0  0  0  0  0  0  0
   50.1490   32.9640   42.2010 C   0  0  0  0  0  0  0  0  0  0  0  0
   51.2250   32.4340   41.5040 C   0  0  0  0  0  0  0  0  0  0  0  0
   51.3570   31.0730   41.4050 C   0  0  0  0  0  0  0  0  0  0  0  0
   50.4330   30.2200   41.9890 C   0  0  0  0  0  0  0  0  0  0  0  0
   49.3610   30.7800   42.6840 C   0  0  0  0  0  0  0  0  0  0  0  0
   49.2790   32.1190   42.7500 N   0  0  0  0  0  0  0  0  0  0  0  0
   46.3960   35.1780   42.1600 O   0  0  0  0  0  0  0  0  0  0  0  0
   45.0670   35.5650   44.0260 C   0  0  0  0  0  0  0  0  0  0  0  0
   46.0630   34.7950   43.4000 C   0  0  0  0  0  0  0  0  0  0  0  0
   46.5830   33.7400   44.1180 C   0  0  0  0  0  0  0  0  0  0  0  0
   46.1480   33.4720   45.3610 N   0  0  0  0  0  0  0  0  0  0  0  0
   45.1870   34.2270   45.9480 C   0  0  0  0  0  0  0  0  0  0  0  0
   44.6620   35.2590   45.2750 N   0  0  0  0  0  0  0  0  0  0  0  0
   44.7380   33.8930   47.3240 C   0  0  0  0  0  0  0  0  0  0  0  0
   45.3390   32.5880   47.8230 C   0  0  0  0  0  0  0  0  0  0  0  0
   47.4848   33.5456   41.6382 H   0  0  0  0  0  0  0  0  0  0  0  0
   46.8482   34.5812   40.2859 H   0  0  0  0  0  0  0  0  0  0  0  0
   49.0435   35.1793   40.2138 H   0  0  0  0  0  0  0  0  0  0  0  0
   48.4299   36.3769   41.4188 H   0  0  0  0  0  0  0  0  0  0  0  0
   51.9651   33.0993   41.0353 H   0  0  0  0  0  0  0  0  0  0  0  0
   52.2099   30.6508   40.8533 H   0  0  0  0  0  0  0  0  0  0  0  0
   50.5426   29.1286   41.9063 H   0  0  0  0  0  0  0  0  0  0  0  0
   48.6040   30.1428   43.1646 H   0  0  0  0  0  0  0  0  0  0  0  0
   44.6178   36.4179   43.4962 H   0  0  0  0  0  0  0  0  0  0  0  0
   47.3639   33.1093   43.6681 H   0  0  0  0  0  0  0  0  0  0  0  0
   45.0404   34.7046   48.0022 H   0  0  0  0  0  0  0  0  0  0  0  0
   43.6445   33.7754   47.3034 H   0  0  0  0  0  0  0  0  0  0  0  0
   45.3416   32.5825   48.9230 H   0  0  0  0  0  0  0  0  0  0  0  0
   44.7393   31.7432   47.4535 H   0  0  0  0  0  0  0  0  0  0  0  0
   46.3708   32.4946   47.4535 H   0  0  0  0  0  0  0  0  0  0  0  0
  1 10  1  0
  2  1  1  0
  2  3  1  0
  4  3  1  0
  4  9  1  0
  5  4  2  0
  6  5  1  0
  6  7  2  0
  7  8  1  0
  8  9  2  0
 10 12  1  0
 11 16  2  0
 12 11  1  0
 12 13  2  0
 13 14  1  0
 14 15  2  0
 15 17  1  0
 16 15  1  0
 17 18  1  0
  1 19  1  0
  1 20  1  0
  2 21  1  0
  2 22  1  0
  5 23  1  0
  6 24  1  0
  7 25  1  0
  8 26  1  0
 11 27  1  0
 13 28  1  0
 17 29  1  0
 17 30  1  0
 18 31  1  0
 18 32  1  0
 18 33  1  0
M  ISO  8  19   8  20   8  21   8  22   8  23  14  24  14  25  14  26  14
M  ISO  7  27  14  28  14  29   8  30   8  31   8  32   8  33   8
M  END
>  <minimizedAffinity>  (1) 
-4.02433777

>  <minimizedRMSD>  (1) 
0.624310911

$$$$
