
     RDKit          3D

 28 29  0  0  0  0  0  0  0  0999 V2000
   47.2770   34.5380   41.4200 C   0  0  0  0  0  0  0  0  0  0  0  0
   48.5950   35.2590   41.2540 C   0  0  0  0  0  0  0  0  0  0  0  0
   49.8330   34.6370   42.4300 S   0  0  0  0  0  0  0  0  0  0  0  0
   50.2270   32.9380   42.1200 C   0  0  0  0  0  0  0  0  0  0  0  0
   51.3040   32.4270   41.3990 C   0  0  0  0  0  0  0  0  0  0  0  0
   51.4470   31.0700   41.2620 C   0  0  0  0  0  0  0  0  0  0  0  0
   50.5470   30.2000   41.8270 C   0  0  0  0  0  0  0  0  0  0  0  0
   49.4690   30.7300   42.5500 C   0  0  0  0  0  0  0  0  0  0  0  0
   49.3750   32.0690   42.6530 N   0  0  0  0  0  0  0  0  0  0  0  0
   46.5320   35.0500   42.4780 O   0  0  0  0  0  0  0  0  0  0  0  0
   45.2670   35.0970   44.4230 C   0  0  0  0  0  0  0  0  0  0  0  0
   46.2900   34.4930   43.6690 C   0  0  0  0  0  0  0  0  0  0  0  0
   46.9310   33.4060   44.2200 C   0  0  0  0  0  0  0  0  0  0  0  0
   46.5730   32.9560   45.4410 N   0  0  0  0  0  0  0  0  0  0  0  0
   45.5900   33.5430   46.1540 C   0  0  0  0  0  0  0  0  0  0  0  0
   44.9550   34.6000   45.6370 N   0  0  0  0  0  0  0  0  0  0  0  0
   45.2490   32.8130   47.7520 S   0  0  0  0  0  0  0  0  0  0  0  0
   47.4763   33.4728   41.6088 H   0  0  0  0  0  0  0  0  0  0  0  0
   46.6954   34.6766   40.4967 H   0  0  0  0  0  0  0  0  0  0  0  0
   48.9630   35.1036   40.2291 H   0  0  0  0  0  0  0  0  0  0  0  0
   48.4347   36.3297   41.4488 H   0  0  0  0  0  0  0  0  0  0  0  0
   52.0362   33.1088   40.9418 H   0  0  0  0  0  0  0  0  0  0  0  0
   52.2975   30.6714   40.6895 H   0  0  0  0  0  0  0  0  0  0  0  0
   50.6691   29.1126   41.7149 H   0  0  0  0  0  0  0  0  0  0  0  0
   48.7227   30.0718   43.0188 H   0  0  0  0  0  0  0  0  0  0  0  0
   44.7258   35.9681   44.0251 H   0  0  0  0  0  0  0  0  0  0  0  0
   47.7363   32.9035   43.6640 H   0  0  0  0  0  0  0  0  0  0  0  0
   45.6501   33.6717   48.7413 H   0  0  0  0  0  0  0  0  0  0  0  0
  1 10  1  0
  2  1  1  0
  2  3  1  0
  4  3  1  0
  4  9  1  0
  5  4  2  0
  6  5  1  0
  6  7  2  0
  7  8  1  0
  8  9  2  0
 10 12  1  0
 11 16  2  0
 12 13  2  0
 12 11  1  0
 13 14  1  0
 14 15  2  0
 15 17  1  0
 16 15  1  0
  1 18  1  0
  1 19  1  0
  2 20  1  0
  2 21  1  0
  5 22  1  0
  6 23  1  0
  7 24  1  0
  8 25  1  0
 11 26  1  0
 13 27  1  0
 17 28  1  0
M  ISO  8  18   8  19   8  20   8  21   8  22  14  23  14  24  14  25  14
M  ISO  3  26  14  27  14  28  11
M  END
>  <minimizedAffinity>  (1) 
-3.83658624

>  <minimizedRMSD>  (1) 
1.05295467

$$$$
