
     RDKit          3D

 18 19  0  0  0  0  0  0  0  0999 V2000
   44.4680   35.9370   44.7150 C   0  0  0  0  0  0  0  0  0  0  0  0
   44.9960   36.1220   43.4310 C   0  0  0  0  0  0  0  0  0  0  0  0
   45.9460   35.2060   42.9600 C   0  0  0  0  0  0  0  0  0  0  0  0
   46.3060   34.1840   43.7770 N   0  0  0  0  0  0  0  0  0  0  0  0
   45.7840   34.0260   45.0130 C   0  0  0  0  0  0  0  0  0  0  0  0
   44.8770   34.9010   45.4620 N   0  0  0  0  0  0  0  0  0  0  0  0
   46.1890   32.9160   45.8740 C   0  0  0  0  0  0  0  0  0  0  0  0
   47.0430   31.8790   45.7000 N   0  0  0  0  0  0  0  0  0  0  0  0
   47.0670   31.1460   46.7680 O   0  0  0  0  0  0  0  0  0  0  0  0
   46.2600   31.6430   47.6650 C   0  0  0  0  0  0  0  0  0  0  0  0
   45.6910   32.7640   47.1250 N   0  0  0  0  0  0  0  0  0  0  0  0
   45.9770   31.1280   49.0310 C   0  0  0  0  0  0  0  0  0  0  0  0
   47.1570   30.7410   49.6230 F   0  0  0  0  0  0  0  0  0  0  0  0
   45.4200   32.1020   49.8350 F   0  0  0  0  0  0  0  0  0  0  0  0
   45.0980   30.0660   49.0170 F   0  0  0  0  0  0  0  0  0  0  0  0
   43.7196   36.6398   45.1098 H   0  0  0  0  0  0  0  0  0  0  0  0
   44.6721   36.9675   42.8063 H   0  0  0  0  0  0  0  0  0  0  0  0
   46.3869   35.3122   41.9578 H   0  0  0  0  0  0  0  0  0  0  0  0
  1  6  2  0
  2  1  1  0
  3  2  2  0
  3  4  1  0
  4  5  2  0
  5  6  1  0
  5  7  1  0
  7 11  1  0
  8  7  2  0
  8  9  1  0
  9 10  1  0
 10 12  1  0
 11 10  2  0
 12 13  1  0
 12 14  1  0
 15 12  1  0
  1 16  1  0
  2 17  1  0
  3 18  1  0
M  ISO  3  16  14  17  14  18  14
M  END
>  <minimizedAffinity>  (1) 
-5.1309166

>  <minimizedRMSD>  (1) 
1.25284207

$$$$
