
     RDKit          3D

 22 24  0  0  0  0  0  0  0  0999 V2000
   43.8750   35.2920   41.9860 C   0  0  0  0  0  0  0  0  0  0  0  0
   44.0570   35.6020   43.2910 N   0  0  0  0  0  0  0  0  0  0  0  0
   45.3220   35.4390   43.5990 O   0  0  0  0  0  0  0  0  0  0  0  0
   45.9830   35.0320   42.5450 C   0  0  0  0  0  0  0  0  0  0  0  0
   45.0950   34.9340   41.5300 N   0  0  0  0  0  0  0  0  0  0  0  0
   41.7560   35.0900   39.0270 C   0  0  0  0  0  0  0  0  0  0  0  0
   40.4550   35.3030   39.5180 C   0  0  0  0  0  0  0  0  0  0  0  0
   40.3280   35.5180   40.8940 C   0  0  0  0  0  0  0  0  0  0  0  0
   41.4390   35.5090   41.6550 N   0  0  0  0  0  0  0  0  0  0  0  0
   42.6780   35.3000   41.1530 C   0  0  0  0  0  0  0  0  0  0  0  0
   42.8470   35.0880   39.8280 N   0  0  0  0  0  0  0  0  0  0  0  0
   47.4140   34.7460   42.5060 C   0  0  0  0  0  0  0  0  0  0  0  0
   48.2970   35.4920   41.7290 C   0  0  0  0  0  0  0  0  0  0  0  0
   49.5470   34.9110   41.9670 C   0  0  0  0  0  0  0  0  0  0  0  0
   49.3520   33.8640   42.8610 C   0  0  0  0  0  0  0  0  0  0  0  0
   48.0860   33.8320   43.1270 O   0  0  0  0  0  0  0  0  0  0  0  0
   41.8920   34.9182   37.9490 H   0  0  0  0  0  0  0  0  0  0  0  0
   39.5798   35.3006   38.8517 H   0  0  0  0  0  0  0  0  0  0  0  0
   39.3401   35.6910   41.3458 H   0  0  0  0  0  0  0  0  0  0  0  0
   48.0639   36.3456   41.0755 H   0  0  0  0  0  0  0  0  0  0  0  0
   50.5060   35.2242   41.5285 H   0  0  0  0  0  0  0  0  0  0  0  0
   50.1245   33.1927   43.2642 H   0  0  0  0  0  0  0  0  0  0  0  0
  1  2  2  0
  2  3  1  0
  4  3  1  0
  5  1  1  0
  5  4  2  0
  6  7  2  0
  6 11  1  0
  7  8  1  0
  8  9  2  0
 10  9  1  0
 10  1  1  0
 11 10  2  0
 12  4  1  0
 12 16  1  0
 13 14  1  0
 13 12  2  0
 14 15  2  0
 15 16  1  0
  6 17  1  0
  7 18  1  0
  8 19  1  0
 13 20  1  0
 14 21  1  0
 15 22  1  0
M  ISO  6  17  14  18  14  19  14  20  14  21  14  22  14
M  END
>  <minimizedAffinity>  (1) 
-5.06723452

>  <minimizedRMSD>  (1) 
7.49539042

$$$$
