
     RDKit          3D

 21 22  0  0  0  0  0  0  0  0999 V2000
   44.4630   36.0120   44.4130 C   0  0  0  0  0  0  0  0  0  0  0  0
   45.0910   36.0480   43.1380 C   0  0  0  0  0  0  0  0  0  0  0  0
   46.0740   35.1010   42.8690 C   0  0  0  0  0  0  0  0  0  0  0  0
   46.3790   34.1980   43.8340 N   0  0  0  0  0  0  0  0  0  0  0  0
   45.7640   34.1870   45.0440 C   0  0  0  0  0  0  0  0  0  0  0  0
   44.8060   35.0950   45.3300 N   0  0  0  0  0  0  0  0  0  0  0  0
   46.1020   33.2090   46.0750 C   0  0  0  0  0  0  0  0  0  0  0  0
   47.1080   32.3070   46.1710 N   0  0  0  0  0  0  0  0  0  0  0  0
   46.9900   31.6580   47.2810 O   0  0  0  0  0  0  0  0  0  0  0  0
   45.9510   32.0690   47.9530 C   0  0  0  0  0  0  0  0  0  0  0  0
   45.3800   33.0450   47.2100 N   0  0  0  0  0  0  0  0  0  0  0  0
   45.4500   31.6050   49.2590 C   0  0  0  0  0  0  0  0  0  0  0  0
   45.0550   30.1260   49.1910 C   0  0  0  0  0  0  0  0  0  0  0  0
   43.6821   36.7491   44.6517 H   0  0  0  0  0  0  0  0  0  0  0  0
   44.8085   36.8011   42.3877 H   0  0  0  0  0  0  0  0  0  0  0  0
   46.5909   35.0850   41.8981 H   0  0  0  0  0  0  0  0  0  0  0  0
   46.2384   31.7342   50.0152 H   0  0  0  0  0  0  0  0  0  0  0  0
   44.5629   32.1968   49.5290 H   0  0  0  0  0  0  0  0  0  0  0  0
   44.9486   29.7276   50.2108 H   0  0  0  0  0  0  0  0  0  0  0  0
   44.0987   30.0261   48.6567 H   0  0  0  0  0  0  0  0  0  0  0  0
   45.8342   29.5626   48.6567 H   0  0  0  0  0  0  0  0  0  0  0  0
  1  6  2  0
  2  1  1  0
  3  2  2  0
  3  4  1  0
  4  5  2  0
  5  6  1  0
  5  7  1  0
  7  8  2  0
  7 11  1  0
  8  9  1  0
  9 10  1  0
 10 12  1  0
 11 10  2  0
 13 12  1  0
  1 14  1  0
  2 15  1  0
  3 16  1  0
 12 17  1  0
 12 18  1  0
 13 19  1  0
 13 20  1  0
 13 21  1  0
M  ISO  8  14  14  15  14  16  14  17   8  18   8  19   8  20   8  21   8
M  END
>  <minimizedAffinity>  (1) 
-4.49913931

>  <minimizedRMSD>  (1) 
0.589960575

$$$$
