
     RDKit          3D

 22 24  0  0  0  0  0  0  0  0999 V2000
   45.7060   33.8420   43.5290 C   0  0  0  0  0  0  0  0  0  0  0  0
   47.0550   33.7380   43.6060 N   0  0  0  0  0  0  0  0  0  0  0  0
   47.3860   33.3440   44.7950 O   0  0  0  0  0  0  0  0  0  0  0  0
   46.3260   33.1720   45.5350 C   0  0  0  0  0  0  0  0  0  0  0  0
   45.2520   33.4830   44.7500 N   0  0  0  0  0  0  0  0  0  0  0  0
   43.1370   35.6580   41.6890 C   0  0  0  0  0  0  0  0  0  0  0  0
   43.1420   35.0560   40.4140 C   0  0  0  0  0  0  0  0  0  0  0  0
   44.0460   34.0160   40.1990 C   0  0  0  0  0  0  0  0  0  0  0  0
   44.8600   33.6450   41.2210 N   0  0  0  0  0  0  0  0  0  0  0  0
   44.8270   34.2420   42.4270 C   0  0  0  0  0  0  0  0  0  0  0  0
   43.9630   35.2530   42.6650 N   0  0  0  0  0  0  0  0  0  0  0  0
   46.2970   32.7310   46.9370 C   0  0  0  0  0  0  0  0  0  0  0  0
   47.2750   31.9730   47.5470 C   0  0  0  0  0  0  0  0  0  0  0  0
   46.8890   31.7750   48.8280 N   0  0  0  0  0  0  0  0  0  0  0  0
   45.7070   32.4130   48.9490 C   0  0  0  0  0  0  0  0  0  0  0  0
   45.3260   33.0010   47.8160 N   0  0  0  0  0  0  0  0  0  0  0  0
   42.4365   36.4823   41.8887 H   0  0  0  0  0  0  0  0  0  0  0  0
   42.4596   35.3934   39.6200 H   0  0  0  0  0  0  0  0  0  0  0  0
   44.0985   33.5082   39.2247 H   0  0  0  0  0  0  0  0  0  0  0  0
   48.1974   31.5991   47.0786 H   0  0  0  0  0  0  0  0  0  0  0  0
   45.1223   32.4444   49.8802 H   0  0  0  0  0  0  0  0  0  0  0  0
   44.4678   33.5465   47.6522 H   0  0  0  0  0  0  0  0  0  0  0  0
  1  2  2  0
  1  5  1  0
  2  3  1  0
  3  4  1  0
  4 12  1  0
  5  4  2  0
  6 11  2  0
  7  6  1  0
  8  7  2  0
  8  9  1  0
  9 10  2  0
 10 11  1  0
 10  1  1  0
 12 13  2  0
 12 16  1  0
 13 14  1  0
 14 15  2  0
 16 15  1  0
  6 17  1  0
  7 18  1  0
  8 19  1  0
 13 20  1  0
 15 21  1  0
 16 22  1  0
M  ISO  6  17  14  18  14  19  14  20  14  21  14  22   9
M  END
>  <minimizedAffinity>  (1) 
-4.38473463

>  <minimizedRMSD>  (1) 
3.40645599

$$$$
