
     RDKit          3D

 22 24  0  0  0  0  0  0  0  0999 V2000
   46.4420   32.5440   44.8050 C   0  0  0  0  0  0  0  0  0  0  0  0
   47.5870   31.9180   44.5020 N   0  0  0  0  0  0  0  0  0  0  0  0
   47.6240   30.7490   45.0700 O   0  0  0  0  0  0  0  0  0  0  0  0
   46.5350   30.5470   45.7590 C   0  0  0  0  0  0  0  0  0  0  0  0
   45.7790   31.6720   45.6010 N   0  0  0  0  0  0  0  0  0  0  0  0
   46.1290   29.4160   46.5460 N   0  0  0  0  0  0  0  0  0  0  0  0
   46.8130   28.2780   46.6410 N   0  0  0  0  0  0  0  0  0  0  0  0
   46.1480   27.4280   47.4630 C   0  0  0  0  0  0  0  0  0  0  0  0
   45.0070   28.0690   47.8950 C   0  0  0  0  0  0  0  0  0  0  0  0
   45.0190   29.3230   47.3030 C   0  0  0  0  0  0  0  0  0  0  0  0
   44.5750   35.6810   45.0210 C   0  0  0  0  0  0  0  0  0  0  0  0
   44.8450   36.3150   43.8010 C   0  0  0  0  0  0  0  0  0  0  0  0
   45.6790   35.6430   42.9080 C   0  0  0  0  0  0  0  0  0  0  0  0
   46.1830   34.4310   43.2490 N   0  0  0  0  0  0  0  0  0  0  0  0
   45.8950   33.8510   44.4420 C   0  0  0  0  0  0  0  0  0  0  0  0
   45.1020   34.4790   45.3070 N   0  0  0  0  0  0  0  0  0  0  0  0
   46.4629   26.4100   47.7357 H   0  0  0  0  0  0  0  0  0  0  0  0
   44.2404   27.6666   48.5735 H   0  0  0  0  0  0  0  0  0  0  0  0
   44.2556   30.1048   47.4295 H   0  0  0  0  0  0  0  0  0  0  0  0
   43.9218   36.1749   45.7554 H   0  0  0  0  0  0  0  0  0  0  0  0
   44.4180   37.2993   43.5584 H   0  0  0  0  0  0  0  0  0  0  0  0
   45.9261   36.0923   41.9348 H   0  0  0  0  0  0  0  0  0  0  0  0
  1  5  1  0
  2  1  2  0
  2  3  1  0
  3  4  1  0
  4  6  1  0
  5  4  2  0
  6  7  1  0
  6 10  1  0
  7  8  2  0
  8  9  1  0
 10  9  2  0
 11 16  2  0
 12 11  1  0
 13 14  1  0
 13 12  2  0
 14 15  2  0
 15  1  1  0
 15 16  1  0
  8 17  1  0
  9 18  1  0
 10 19  1  0
 11 20  1  0
 12 21  1  0
 13 22  1  0
M  ISO  6  17  14  18  14  19  14  20  14  21  14  22  14
M  END
>  <minimizedAffinity>  (1) 
-4.15333748

>  <minimizedRMSD>  (1) 
3.11977601

$$$$
