
     RDKit          3D

 51 54  0  0  1  0  0  0  0  0999 V2000
   46.0810   34.7430   41.7340 C   0  0  0  0  0  0  0  0  0  0  0  0
   46.6920   34.2650   40.5800 N   0  0  0  0  0  0  0  0  0  0  0  0
   46.0700   33.1900   40.0570 C   0  0  0  0  0  0  0  0  0  0  0  0
   46.9440   31.9690   39.8980 C   0  0  0  0  0  0  0  0  0  0  0  0
   48.0940   31.8200   40.8200 C   0  0  0  0  0  0  0  0  0  0  0  0
   48.4860   33.0860   41.5050 C   0  0  0  0  0  0  0  0  0  0  0  0
   48.0980   34.2520   40.6670 C   0  0  2  0  0  0  0  0  0  0  0  0
   48.6920   35.4640   41.2760 C   0  0  0  0  0  0  0  0  0  0  0  0
   49.6830   35.2150   42.3610 C   0  0  0  0  0  0  0  0  0  0  0  0
   44.9700   33.9950   42.2860 C   0  0  1  0  0  0  0  0  0  0  0  0
   45.2260   34.3680   44.7850 C   0  0  0  0  0  0  0  0  0  0  0  0
   45.2980   33.5380   43.6420 C   0  0  0  0  0  0  0  0  0  0  0  0
   45.7080   32.2060   43.8230 C   0  0  0  0  0  0  0  0  0  0  0  0
   46.0140   31.7760   45.0620 N   0  0  0  0  0  0  0  0  0  0  0  0
   45.9330   32.6040   46.1420 C   0  0  0  0  0  0  0  0  0  0  0  0
   45.5330   33.9270   46.0050 N   0  0  0  0  0  0  0  0  0  0  0  0
   43.7040   34.7940   42.2650 C   0  0  0  0  0  0  0  0  0  0  0  0
   42.8840   34.5790   41.0910 N   0  0  0  0  0  0  0  0  0  0  0  0
   42.7010   35.2410   39.9320 C   0  0  0  0  0  0  0  0  0  0  0  0
   41.8020   34.6160   39.1500 N   0  0  0  0  0  0  0  0  0  0  0  0
   41.3540   33.5130   39.7650 C   0  0  0  0  0  0  0  0  0  0  0  0
   40.4650   32.4920   39.5020 C   0  0  0  0  0  0  0  0  0  0  0  0
   40.2520   31.4990   40.3890 N   0  0  0  0  0  0  0  0  0  0  0  0
   40.9090   31.4960   41.5410 C   0  0  0  0  0  0  0  0  0  0  0  0
   41.7800   32.4850   41.8100 N   0  0  0  0  0  0  0  0  0  0  0  0
   42.0380   33.5120   40.9610 C   0  0  0  0  0  0  0  0  0  0  0  0
   45.7128   35.7554   41.5115 H   0  0  0  0  0  0  0  0  0  0  0  0
   46.8637   34.6718   42.5036 H   0  0  0  0  0  0  0  0  0  0  0  0
   45.2299   32.9262   40.7162 H   0  0  0  0  0  0  0  0  0  0  0  0
   45.7523   33.4780   39.0440 H   0  0  0  0  0  0  0  0  0  0  0  0
   46.3015   31.0858   40.0290 H   0  0  0  0  0  0  0  0  0  0  0  0
   47.3986   32.0805   38.9026 H   0  0  0  0  0  0  0  0  0  0  0  0
   47.8288   31.0783   41.5878 H   0  0  0  0  0  0  0  0  0  0  0  0
   48.9543   31.5066   40.2103 H   0  0  0  0  0  0  0  0  0  0  0  0
   47.9752   33.1487   42.4772 H   0  0  0  0  0  0  0  0  0  0  0  0
   49.5753   33.0945   41.6580 H   0  0  0  0  0  0  0  0  0  0  0  0
   48.4776   34.2025   39.6358 H   0  0  0  0  0  0  0  0  0  0  0  0
   49.1961   36.0315   40.4798 H   0  0  0  0  0  0  0  0  0  0  0  0
   47.8583   36.0063   41.7460 H   0  0  0  0  0  0  0  0  0  0  0  0
   49.1946   35.3377   43.3389 H   0  0  0  0  0  0  0  0  0  0  0  0
   50.0741   34.1907   42.2724 H   0  0  0  0  0  0  0  0  0  0  0  0
   50.5118   35.9328   42.2724 H   0  0  0  0  0  0  0  0  0  0  0  0
   44.7969   33.1116   41.6539 H   0  0  0  0  0  0  0  0  0  0  0  0
   44.9057   35.4132   44.6631 H   0  0  0  0  0  0  0  0  0  0  0  0
   45.7781   31.5232   42.9634 H   0  0  0  0  0  0  0  0  0  0  0  0
   46.1890   32.2175   47.1395 H   0  0  0  0  0  0  0  0  0  0  0  0
   43.1123   34.5256   43.1526 H   0  0  0  0  0  0  0  0  0  0  0  0
   43.9998   35.8534   42.2534 H   0  0  0  0  0  0  0  0  0  0  0  0
   43.2196   36.1722   39.6601 H   0  0  0  0  0  0  0  0  0  0  0  0
   39.9177   32.4876   38.5478 H   0  0  0  0  0  0  0  0  0  0  0  0
   40.7428   30.6904   42.2713 H   0  0  0  0  0  0  0  0  0  0  0  0
  1 10  1  0
  2  7  1  0
  2  1  1  0
  3  2  1  0
  4  3  1  0
  4  5  1  0
  5  6  1  0
  7  8  1  0
  7  6  1  0
  8  9  1  0
 10 12  1  0
 11 16  2  0
 12 13  2  0
 12 11  1  0
 13 14  1  0
 14 15  2  0
 16 15  1  0
 17 10  1  0
 18 17  1  0
 19 18  1  0
 20 21  1  0
 20 19  2  0
 21 26  2  0
 22 21  1  0
 22 23  2  0
 23 24  1  0
 24 25  2  0
 26 18  1  0
 26 25  1  0
  1 27  1  0
  1 28  1  0
  3 29  1  0
  3 30  1  0
  4 31  1  0
  4 32  1  0
  5 33  1  0
  5 34  1  0
  6 35  1  0
  6 36  1  0
  7 37  1  6
  8 38  1  0
  8 39  1  0
  9 40  1  0
  9 41  1  0
  9 42  1  0
 10 43  1  6
 11 44  1  0
 13 45  1  0
 15 46  1  0
 17 47  1  0
 17 48  1  0
 19 49  1  0
 22 50  1  0
 24 51  1  0
M  ISO  8  27   8  28   8  29  13  30  13  31  13  32  13  33  13  34  13
M  ISO  8  35  13  36  13  37  13  38   8  39   8  40   8  41   8  42   8
M  ISO  8  43   8  44  14  45  14  46  14  47   8  48   8  49  14  50  14
M  ISO  1  51  14
M  END
>  <minimizedAffinity>  (1) 
-5.31834793

>  <minimizedRMSD>  (1) 
3.02745485

$$$$
