
     RDKit          3D

 24 26  0  0  0  0  0  0  0  0999 V2000
   45.9720   33.0650   45.7920 C   0  0  0  0  0  0  0  0  0  0  0  0
   45.2980   34.1910   45.4520 N   0  0  0  0  0  0  0  0  0  0  0  0
   45.8330   34.7150   44.3860 O   0  0  0  0  0  0  0  0  0  0  0  0
   46.8390   33.9940   43.9920 C   0  0  0  0  0  0  0  0  0  0  0  0
   46.9310   32.9710   44.8580 N   0  0  0  0  0  0  0  0  0  0  0  0
   45.5430   31.8760   49.2070 C   0  0  0  0  0  0  0  0  0  0  0  0
   45.3980   30.4810   49.0630 C   0  0  0  0  0  0  0  0  0  0  0  0
   45.4530   29.9630   47.7690 C   0  0  0  0  0  0  0  0  0  0  0  0
   45.6380   30.8020   46.7180 N   0  0  0  0  0  0  0  0  0  0  0  0
   45.7720   32.1270   46.8930 C   0  0  0  0  0  0  0  0  0  0  0  0
   45.7250   32.6760   48.1350 N   0  0  0  0  0  0  0  0  0  0  0  0
   47.7150   34.2170   42.8490 C   0  0  0  0  0  0  0  0  0  0  0  0
   48.8810   34.5670   43.0120 O   0  0  0  0  0  0  0  0  0  0  0  0
   45.8370   33.9740   39.7920 N   0  0  0  0  0  0  0  0  0  0  0  0
   45.9750   34.1970   41.0910 N   0  0  0  0  0  0  0  0  0  0  0  0
   47.2520   34.0410   41.4800 C   0  0  0  0  0  0  0  0  0  0  0  0
   47.9880   33.6940   40.3690 C   0  0  0  0  0  0  0  0  0  0  0  0
   47.0680   33.6630   39.3290 C   0  0  0  0  0  0  0  0  0  0  0  0
   45.5071   32.3211   50.2123 H   0  0  0  0  0  0  0  0  0  0  0  0
   45.2477   29.8279   49.9353 H   0  0  0  0  0  0  0  0  0  0  0  0
   45.3471   28.8810   47.6012 H   0  0  0  0  0  0  0  0  0  0  0  0
   44.9660   34.0271   39.2448 H   0  0  0  0  0  0  0  0  0  0  0  0
   49.0671   33.4869   40.3168 H   0  0  0  0  0  0  0  0  0  0  0  0
   47.3062   33.4210   38.2827 H   0  0  0  0  0  0  0  0  0  0  0  0
  1 10  1  0
  2  1  2  0
  3  2  1  0
  4  3  1  0
  4  5  2  0
  5  1  1  0
  7  6  2  0
  8  7  1  0
  9 10  1  0
  9  8  2  0
 10 11  2  0
 11  6  1  0
 12 13  2  0
 12  4  1  0
 14 15  1  0
 15 16  2  0
 16 12  1  0
 17 16  1  0
 18 14  1  0
 18 17  2  0
  6 19  1  0
  7 20  1  0
  8 21  1  0
 14 22  1  0
 17 23  1  0
 18 24  1  0
M  ISO  6  19  14  20  14  21  14  22   9  23  14  24  14
M  END
>  <minimizedAffinity>  (1) 
-4.91212702

>  <minimizedRMSD>  (1) 
7.52177238

$$$$
