
     RDKit          3D

 40 42  0  0  0  0  0  0  0  0999 V2000
   43.6170   33.8860   41.8070 C   0  0  0  0  0  0  0  0  0  0  0  0
   43.8720   32.7250   42.4220 N   0  0  0  0  0  0  0  0  0  0  0  0
   45.0910   32.7490   42.8900 O   0  0  0  0  0  0  0  0  0  0  0  0
   45.6560   33.8930   42.6080 C   0  0  0  0  0  0  0  0  0  0  0  0
   44.7400   34.6170   41.9270 N   0  0  0  0  0  0  0  0  0  0  0  0
   47.0060   34.2540   42.9810 C   0  0  0  0  0  0  0  0  0  0  0  0
   47.5980   33.7290   43.9080 O   0  0  0  0  0  0  0  0  0  0  0  0
   47.5400   35.2620   42.1620 N   0  0  0  0  0  0  0  0  0  0  0  0
   48.9420   35.4070   42.3440 C   0  0  0  0  0  0  0  0  0  0  0  0
   49.8620   34.9040   43.0510 N   0  0  0  0  0  0  0  0  0  0  0  0
   49.7440   36.3420   41.6080 N   0  0  0  0  0  0  0  0  0  0  0  0
   49.7870   34.0090   43.5220 H   0  0  0  0  0  0  0  0  0  0  0  0
   40.6110   35.8850   41.1820 C   0  0  0  0  0  0  0  0  0  0  0  0
   40.1770   35.3990   39.9430 C   0  0  0  0  0  0  0  0  0  0  0  0
   40.9120   34.3680   39.2900 C   0  0  0  0  0  0  0  0  0  0  0  0
   42.0100   33.9140   39.9290 N   0  0  0  0  0  0  0  0  0  0  0  0
   42.4080   34.3900   41.1100 C   0  0  0  0  0  0  0  0  0  0  0  0
   41.7160   35.3640   41.7320 N   0  0  0  0  0  0  0  0  0  0  0  0
   40.4780   33.8400   37.9890 C   0  0  0  0  0  0  0  0  0  0  0  0
   39.0730   34.3460   37.7540 C   0  0  0  0  0  0  0  0  0  0  0  0
   38.0710   33.2470   37.6280 C   0  0  0  0  0  0  0  0  0  0  0  0
   38.2330   32.1380   38.6190 C   0  0  0  0  0  0  0  0  0  0  0  0
   39.6350   31.6870   38.8500 C   0  0  0  0  0  0  0  0  0  0  0  0
   40.5500   32.3520   37.8710 C   0  0  0  0  0  0  0  0  0  0  0  0
   46.9821   35.8287   41.5074 H   0  0  0  0  0  0  0  0  0  0  0  0
   50.7571   36.4018   41.7839 H   0  0  0  0  0  0  0  0  0  0  0  0
   49.3066   36.9533   40.9039 H   0  0  0  0  0  0  0  0  0  0  0  0
   40.0536   36.6820   41.6959 H   0  0  0  0  0  0  0  0  0  0  0  0
   39.2712   35.8119   39.4750 H   0  0  0  0  0  0  0  0  0  0  0  0
   41.1738   34.1983   37.2161 H   0  0  0  0  0  0  0  0  0  0  0  0
   38.7853   34.9874   38.6001 H   0  0  0  0  0  0  0  0  0  0  0  0
   39.0769   34.8984   36.8028 H   0  0  0  0  0  0  0  0  0  0  0  0
   37.0685   33.6804   37.7593 H   0  0  0  0  0  0  0  0  0  0  0  0
   38.2222   32.8006   36.6341 H   0  0  0  0  0  0  0  0  0  0  0  0
   37.8236   32.4800   39.5810 H   0  0  0  0  0  0  0  0  0  0  0  0
   37.7021   31.2728   38.1953 H   0  0  0  0  0  0  0  0  0  0  0  0
   39.9399   31.9524   39.8730 H   0  0  0  0  0  0  0  0  0  0  0  0
   39.6919   30.5966   38.7169 H   0  0  0  0  0  0  0  0  0  0  0  0
   40.2593   32.0584   36.8515 H   0  0  0  0  0  0  0  0  0  0  0  0
   41.5810   32.0349   38.0868 H   0  0  0  0  0  0  0  0  0  0  0  0
  1  5  1  0
  1  2  2  0
  2  3  1  0
  4  3  1  0
  4  6  1  0
  5  4  2  0
  6  7  2  0
  8  9  1  0
  8  6  1  0
  9 10  2  0
 10 12  1  0
 11  9  1  0
 13 18  2  0
 14 13  1  0
 15 16  1  0
 15 14  2  0
 16 17  2  0
 17 18  1  0
 17  1  1  0
 19 15  1  0
 20 19  1  0
 21 20  1  0
 21 22  1  0
 22 23  1  0
 24 19  1  0
 24 23  1  0
  8 25  1  0
 11 26  1  0
 11 27  1  0
 13 28  1  0
 14 29  1  0
 19 30  1  0
 20 31  1  0
 20 32  1  0
 21 33  1  0
 21 34  1  0
 22 35  1  0
 22 36  1  0
 23 37  1  0
 23 38  1  0
 24 39  1  0
 24 40  1  0
M  ISO  8  28  14  29  14  30  13  31  13  32  13  33  13  34  13  35  13
M  ISO  5  36  13  37  13  38  13  39  13  40  13
M  END
>  <minimizedAffinity>  (1) 
-6.67385054

>  <minimizedRMSD>  (1) 
0.961683333

$$$$
