
     RDKit          3D

 31 33  0  0  0  0  0  0  0  0999 V2000
   43.3350   33.7920   41.7590 C   0  0  0  0  0  0  0  0  0  0  0  0
   43.6540   32.5760   42.2050 N   0  0  0  0  0  0  0  0  0  0  0  0
   44.8840   32.5800   42.6540 O   0  0  0  0  0  0  0  0  0  0  0  0
   45.3980   33.7780   42.5170 C   0  0  0  0  0  0  0  0  0  0  0  0
   44.4380   34.5460   41.9580 N   0  0  0  0  0  0  0  0  0  0  0  0
   46.7390   34.1550   42.9040 C   0  0  0  0  0  0  0  0  0  0  0  0
   47.2760   33.7360   43.9130 O   0  0  0  0  0  0  0  0  0  0  0  0
   47.3290   35.0460   41.9930 N   0  0  0  0  0  0  0  0  0  0  0  0
   48.7180   35.2210   42.2420 C   0  0  0  0  0  0  0  0  0  0  0  0
   49.5970   34.7800   43.0330 N   0  0  0  0  0  0  0  0  0  0  0  0
   49.5480   36.1090   41.4780 N   0  0  0  0  0  0  0  0  0  0  0  0
   49.4840   33.9850   43.6340 H   0  0  0  0  0  0  0  0  0  0  0  0
   40.6330   36.1480   41.0120 C   0  0  0  0  0  0  0  0  0  0  0  0
   39.8680   35.4610   40.0670 C   0  0  0  0  0  0  0  0  0  0  0  0
   40.2850   34.1720   39.6960 C   0  0  0  0  0  0  0  0  0  0  0  0
   41.3800   33.6190   40.2300 N   0  0  0  0  0  0  0  0  0  0  0  0
   42.1030   34.3250   41.1520 C   0  0  0  0  0  0  0  0  0  0  0  0
   41.7330   35.5630   41.5330 N   0  0  0  0  0  0  0  0  0  0  0  0
   39.4740   33.4680   38.7060 C   0  0  0  0  0  0  0  0  0  0  0  0
   38.5870   34.0490   37.8220 C   0  0  0  0  0  0  0  0  0  0  0  0
   38.0580   33.0040   37.0900 C   0  0  0  0  0  0  0  0  0  0  0  0
   38.6540   31.8320   37.5660 C   0  0  0  0  0  0  0  0  0  0  0  0
   39.4920   32.1660   38.5310 O   0  0  0  0  0  0  0  0  0  0  0  0
   46.8162   35.5171   41.2341 H   0  0  0  0  0  0  0  0  0  0  0  0
   50.5496   36.1976   41.7013 H   0  0  0  0  0  0  0  0  0  0  0  0
   49.1419   36.6575   40.7065 H   0  0  0  0  0  0  0  0  0  0  0  0
   40.3413   37.1598   41.3301 H   0  0  0  0  0  0  0  0  0  0  0  0
   38.9676   35.9148   39.6272 H   0  0  0  0  0  0  0  0  0  0  0  0
   38.3512   35.1187   37.7217 H   0  0  0  0  0  0  0  0  0  0  0  0
   37.3108   33.0793   36.2863 H   0  0  0  0  0  0  0  0  0  0  0  0
   38.4595   30.8125   37.2015 H   0  0  0  0  0  0  0  0  0  0  0  0
  1  5  1  0
  1  2  2  0
  2  3  1  0
  4  3  1  0
  4  6  1  0
  5  4  2  0
  6  7  2  0
  8  9  1  0
  8  6  1  0
  9 10  2  0
 10 12  1  0
 11  9  1  0
 13 18  2  0
 14 13  1  0
 15 14  2  0
 15 16  1  0
 16 17  2  0
 17 18  1  0
 17  1  1  0
 19 15  1  0
 20 19  2  0
 21 22  2  0
 21 20  1  0
 22 23  1  0
 23 19  1  0
  8 24  1  0
 11 25  1  0
 11 26  1  0
 13 27  1  0
 14 28  1  0
 20 29  1  0
 21 30  1  0
 22 31  1  0
M  ISO  5  27  14  28  14  29  14  30  14  31  14
M  END
>  <minimizedAffinity>  (1) 
-6.28981304

>  <minimizedRMSD>  (1) 
0.259333253

$$$$
