
     RDKit          3D

 31 33  0  0  0  0  0  0  0  0999 V2000
   43.3450   33.8370   41.7410 C   0  0  0  0  0  0  0  0  0  0  0  0
   43.6370   32.6010   42.2060 N   0  0  0  0  0  0  0  0  0  0  0  0
   44.8600   32.5870   42.6560 O   0  0  0  0  0  0  0  0  0  0  0  0
   45.3990   33.7710   42.5100 C   0  0  0  0  0  0  0  0  0  0  0  0
   44.4570   34.5540   41.9400 N   0  0  0  0  0  0  0  0  0  0  0  0
   46.7490   34.1210   42.9030 C   0  0  0  0  0  0  0  0  0  0  0  0
   47.2980   33.6340   43.8750 O   0  0  0  0  0  0  0  0  0  0  0  0
   47.3300   35.0660   42.0410 N   0  0  0  0  0  0  0  0  0  0  0  0
   48.7240   35.2040   42.2730 C   0  0  0  0  0  0  0  0  0  0  0  0
   49.6060   34.7380   43.0400 N   0  0  0  0  0  0  0  0  0  0  0  0
   49.5640   36.0880   41.5130 N   0  0  0  0  0  0  0  0  0  0  0  0
   49.5040   33.8620   43.5520 H   0  0  0  0  0  0  0  0  0  0  0  0
   40.6390   36.1820   41.0650 C   0  0  0  0  0  0  0  0  0  0  0  0
   39.8630   35.5130   40.1130 C   0  0  0  0  0  0  0  0  0  0  0  0
   40.2670   34.2350   39.6890 C   0  0  0  0  0  0  0  0  0  0  0  0
   41.3870   33.7330   40.2330 N   0  0  0  0  0  0  0  0  0  0  0  0
   42.1200   34.3770   41.1390 C   0  0  0  0  0  0  0  0  0  0  0  0
   41.7350   35.5840   41.5370 N   0  0  0  0  0  0  0  0  0  0  0  0
   39.5640   33.4840   38.7450 C   0  0  0  0  0  0  0  0  0  0  0  0
   38.5660   33.7980   37.8440 C   0  0  0  0  0  0  0  0  0  0  0  0
   38.0390   32.8530   37.0140 C   0  0  0  0  0  0  0  0  0  0  0  0
   38.5650   31.5340   37.1200 C   0  0  0  0  0  0  0  0  0  0  0  0
   39.8360   31.6690   38.4390 S   0  0  0  0  0  0  0  0  0  0  0  0
   46.8081   35.5945   41.3274 H   0  0  0  0  0  0  0  0  0  0  0  0
   50.5704   36.1496   41.7233 H   0  0  0  0  0  0  0  0  0  0  0  0
   49.1597   36.6601   40.7579 H   0  0  0  0  0  0  0  0  0  0  0  0
   40.3512   37.1831   41.4185 H   0  0  0  0  0  0  0  0  0  0  0  0
   38.9539   35.9779   39.7038 H   0  0  0  0  0  0  0  0  0  0  0  0
   38.1888   34.8301   37.7948 H   0  0  0  0  0  0  0  0  0  0  0  0
   37.2435   33.0986   36.2951 H   0  0  0  0  0  0  0  0  0  0  0  0
   38.2770   30.6414   36.5453 H   0  0  0  0  0  0  0  0  0  0  0  0
  1  5  1  0
  1  2  2  0
  2  3  1  0
  4  3  1  0
  4  6  1  0
  5  4  2  0
  6  7  2  0
  8  9  1  0
  8  6  1  0
  9 10  2  0
 10 12  1  0
 11  9  1  0
 13 18  2  0
 14 13  1  0
 15 14  2  0
 15 16  1  0
 16 17  2  0
 17 18  1  0
 17  1  1  0
 19 15  1  0
 20 19  2  0
 21 22  2  0
 21 20  1  0
 22 23  1  0
 23 19  1  0
  8 24  1  0
 11 25  1  0
 11 26  1  0
 13 27  1  0
 14 28  1  0
 20 29  1  0
 21 30  1  0
 22 31  1  0
M  ISO  5  27  14  28  14  29  14  30  14  31  14
M  END
>  <minimizedAffinity>  (1) 
-6.13434505

>  <minimizedRMSD>  (1) 
0.242112517

$$$$
