
     RDKit          3D

 32 34  0  0  0  0  0  0  0  0999 V2000
   43.4810   33.7870   41.7940 C   0  0  0  0  0  0  0  0  0  0  0  0
   43.7780   32.5530   42.2330 N   0  0  0  0  0  0  0  0  0  0  0  0
   45.0070   32.5390   42.6860 O   0  0  0  0  0  0  0  0  0  0  0  0
   45.5350   33.7310   42.5600 C   0  0  0  0  0  0  0  0  0  0  0  0
   44.5870   34.5250   42.0010 N   0  0  0  0  0  0  0  0  0  0  0  0
   46.8790   34.0830   42.9580 C   0  0  0  0  0  0  0  0  0  0  0  0
   47.4430   33.5700   43.9110 O   0  0  0  0  0  0  0  0  0  0  0  0
   47.4460   35.0660   42.1310 N   0  0  0  0  0  0  0  0  0  0  0  0
   48.8400   35.2140   42.3620 C   0  0  0  0  0  0  0  0  0  0  0  0
   49.7380   34.7070   43.0860 N   0  0  0  0  0  0  0  0  0  0  0  0
   49.6570   36.1700   41.6680 N   0  0  0  0  0  0  0  0  0  0  0  0
   49.6470   33.8050   43.5530 H   0  0  0  0  0  0  0  0  0  0  0  0
   40.7770   36.1450   41.1260 C   0  0  0  0  0  0  0  0  0  0  0  0
   39.9930   35.4750   40.1710 C   0  0  0  0  0  0  0  0  0  0  0  0
   40.3950   34.1950   39.7500 C   0  0  0  0  0  0  0  0  0  0  0  0
   41.5250   33.6820   40.2950 N   0  0  0  0  0  0  0  0  0  0  0  0
   42.2520   34.3390   41.1990 C   0  0  0  0  0  0  0  0  0  0  0  0
   41.8650   35.5460   41.5910 N   0  0  0  0  0  0  0  0  0  0  0  0
   39.6860   33.3830   38.7710 C   0  0  0  0  0  0  0  0  0  0  0  0
   38.6440   33.8660   38.0110 C   0  0  0  0  0  0  0  0  0  0  0  0
   37.9390   33.1410   37.0700 C   0  0  0  0  0  0  0  0  0  0  0  0
   38.3210   31.8500   36.8990 N   0  0  0  0  0  0  0  0  0  0  0  0
   39.3510   31.3510   37.6410 C   0  0  0  0  0  0  0  0  0  0  0  0
   40.0080   32.0960   38.5450 N   0  0  0  0  0  0  0  0  0  0  0  0
   46.9148   35.6142   41.4395 H   0  0  0  0  0  0  0  0  0  0  0  0
   50.6638   36.2341   41.8757 H   0  0  0  0  0  0  0  0  0  0  0  0
   49.2361   36.7915   40.9627 H   0  0  0  0  0  0  0  0  0  0  0  0
   40.4936   37.1469   41.4809 H   0  0  0  0  0  0  0  0  0  0  0  0
   39.0848   35.9418   39.7619 H   0  0  0  0  0  0  0  0  0  0  0  0
   38.3492   34.9144   38.1659 H   0  0  0  0  0  0  0  0  0  0  0  0
   37.1149   33.5848   36.4922 H   0  0  0  0  0  0  0  0  0  0  0  0
   39.6536   30.3037   37.4941 H   0  0  0  0  0  0  0  0  0  0  0  0
  1  5  1  0
  1  2  2  0
  2  3  1  0
  4  3  1  0
  4  6  1  0
  5  4  2  0
  6  7  2  0
  8  9  1  0
  8  6  1  0
  9 10  2  0
 10 12  1  0
 11  9  1  0
 13 18  2  0
 14 13  1  0
 15 14  2  0
 15 16  1  0
 16 17  2  0
 17 18  1  0
 17  1  1  0
 19 15  1  0
 20 19  2  0
 21 20  1  0
 22 21  2  0
 22 23  1  0
 23 24  2  0
 24 19  1  0
  8 25  1  0
 11 26  1  0
 11 27  1  0
 13 28  1  0
 14 29  1  0
 20 30  1  0
 21 31  1  0
 23 32  1  0
M  ISO  5  28  14  29  14  30  14  31  14  32  14
M  END
>  <minimizedAffinity>  (1) 
-6.09857464

>  <minimizedRMSD>  (1) 
0.340140671

$$$$
