
     RDKit          3D

 27 28  0  0  0  0  0  0  0  0999 V2000
   43.4570   33.9470   41.6590 C   0  0  0  0  0  0  0  0  0  0  0  0
   43.7040   32.7030   42.1250 N   0  0  0  0  0  0  0  0  0  0  0  0
   44.9150   32.6560   42.6130 O   0  0  0  0  0  0  0  0  0  0  0  0
   45.4830   33.8280   42.4900 C   0  0  0  0  0  0  0  0  0  0  0  0
   44.5790   34.6350   41.8960 N   0  0  0  0  0  0  0  0  0  0  0  0
   46.8310   34.1440   42.9240 C   0  0  0  0  0  0  0  0  0  0  0  0
   47.3650   33.6010   43.8740 O   0  0  0  0  0  0  0  0  0  0  0  0
   47.4300   35.1340   42.1280 N   0  0  0  0  0  0  0  0  0  0  0  0
   48.8280   35.2290   42.3670 C   0  0  0  0  0  0  0  0  0  0  0  0
   49.7010   34.6880   43.1010 N   0  0  0  0  0  0  0  0  0  0  0  0
   49.6890   36.1460   41.6780 N   0  0  0  0  0  0  0  0  0  0  0  0
   49.5770   33.7720   43.5340 H   0  0  0  0  0  0  0  0  0  0  0  0
   40.6030   36.1610   41.1640 C   0  0  0  0  0  0  0  0  0  0  0  0
   40.0380   35.6910   39.9710 C   0  0  0  0  0  0  0  0  0  0  0  0
   40.6380   34.5950   39.3160 C   0  0  0  0  0  0  0  0  0  0  0  0
   41.7390   34.0540   39.8850 N   0  0  0  0  0  0  0  0  0  0  0  0
   42.2580   34.5200   41.0220 C   0  0  0  0  0  0  0  0  0  0  0  0
   41.6950   35.5650   41.6560 N   0  0  0  0  0  0  0  0  0  0  0  0
   40.0850   34.0500   38.0480 C   0  0  0  0  0  0  0  0  0  0  0  0
   38.7580   33.6740   38.2730 F   0  0  0  0  0  0  0  0  0  0  0  0
   40.8120   32.9580   37.6660 F   0  0  0  0  0  0  0  0  0  0  0  0
   40.1210   35.0780   37.1180 F   0  0  0  0  0  0  0  0  0  0  0  0
   46.9184   35.7201   41.4530 H   0  0  0  0  0  0  0  0  0  0  0  0
   50.6957   36.1689   41.8945 H   0  0  0  0  0  0  0  0  0  0  0  0
   49.3006   36.7817   40.9667 H   0  0  0  0  0  0  0  0  0  0  0  0
   40.1519   37.0139   41.6922 H   0  0  0  0  0  0  0  0  0  0  0  0
   39.1405   36.1692   39.5517 H   0  0  0  0  0  0  0  0  0  0  0  0
  1  5  1  0
  1  2  2  0
  2  3  1  0
  4  3  1  0
  4  6  1  0
  5  4  2  0
  6  7  2  0
  8  9  1  0
  8  6  1  0
  9 10  2  0
 10 12  1  0
 11  9  1  0
 13 18  2  0
 14 13  1  0
 15 16  1  0
 15 14  2  0
 16 17  2  0
 17 18  1  0
 17  1  1  0
 19 20  1  0
 19 15  1  0
 21 19  1  0
 22 19  1  0
  8 23  1  0
 11 24  1  0
 11 25  1  0
 13 26  1  0
 14 27  1  0
M  ISO  2  26  14  27  14
M  END
>  <minimizedAffinity>  (1) 
-5.97677374

>  <minimizedRMSD>  (1) 
0.823975027

$$$$
