
     RDKit          3D

 31 33  0  0  0  0  0  0  0  0999 V2000
   43.3250   33.8020   41.6740 C   0  0  0  0  0  0  0  0  0  0  0  0
   43.5980   32.6260   42.2460 N   0  0  0  0  0  0  0  0  0  0  0  0
   44.8100   32.6350   42.7330 O   0  0  0  0  0  0  0  0  0  0  0  0
   45.3610   33.7990   42.4990 C   0  0  0  0  0  0  0  0  0  0  0  0
   44.4390   34.5320   41.8390 N   0  0  0  0  0  0  0  0  0  0  0  0
   46.7040   34.1720   42.8970 C   0  0  0  0  0  0  0  0  0  0  0  0
   47.2400   33.7330   43.8980 O   0  0  0  0  0  0  0  0  0  0  0  0
   47.2910   35.0800   42.0020 N   0  0  0  0  0  0  0  0  0  0  0  0
   48.6840   35.2320   42.2430 C   0  0  0  0  0  0  0  0  0  0  0  0
   49.5590   34.7980   43.0480 N   0  0  0  0  0  0  0  0  0  0  0  0
   49.5310   36.0830   41.4530 N   0  0  0  0  0  0  0  0  0  0  0  0
   49.4490   33.9670   43.6090 H   0  0  0  0  0  0  0  0  0  0  0  0
   40.4840   35.9690   40.9280 C   0  0  0  0  0  0  0  0  0  0  0  0
   39.9020   35.3520   39.8060 C   0  0  0  0  0  0  0  0  0  0  0  0
   40.4930   34.1770   39.3030 C   0  0  0  0  0  0  0  0  0  0  0  0
   41.5900   33.6910   39.9100 N   0  0  0  0  0  0  0  0  0  0  0  0
   42.1220   34.3120   40.9880 C   0  0  0  0  0  0  0  0  0  0  0  0
   41.5790   35.4370   41.4930 N   0  0  0  0  0  0  0  0  0  0  0  0
   39.9220   33.4810   38.1190 C   0  0  0  0  0  0  0  0  0  0  0  0
   38.5240   33.8200   37.6790 C   0  0  0  0  0  0  0  0  0  0  0  0
   38.7420   32.5220   38.3600 C   0  0  0  0  0  0  0  0  0  0  0  0
   46.7754   35.5758   41.2609 H   0  0  0  0  0  0  0  0  0  0  0  0
   50.5349   36.1563   41.6714 H   0  0  0  0  0  0  0  0  0  0  0  0
   49.1341   36.6195   40.6685 H   0  0  0  0  0  0  0  0  0  0  0  0
   40.0419   36.8871   41.3422 H   0  0  0  0  0  0  0  0  0  0  0  0
   39.0053   35.7778   39.3321 H   0  0  0  0  0  0  0  0  0  0  0  0
   40.9035   33.4284   37.6252 H   0  0  0  0  0  0  0  0  0  0  0  0
   37.9699   34.6185   38.1941 H   0  0  0  0  0  0  0  0  0  0  0  0
   38.0738   34.1150   36.7197 H   0  0  0  0  0  0  0  0  0  0  0  0
   38.6704   31.5829   37.7917 H   0  0  0  0  0  0  0  0  0  0  0  0
   38.3115   32.0211   39.2396 H   0  0  0  0  0  0  0  0  0  0  0  0
  1  5  1  0
  1  2  2  0
  2  3  1  0
  4  3  1  0
  4  6  1  0
  5  4  2  0
  6  7  2  0
  8  9  1  0
  8  6  1  0
  9 10  2  0
 10 12  1  0
 11  9  1  0
 13 18  2  0
 14 13  1  0
 15 14  2  0
 15 16  1  0
 16 17  2  0
 17 18  1  0
 17  1  1  0
 19 21  1  0
 19 15  1  0
 20 19  1  0
 20 21  1  0
  8 22  1  0
 11 23  1  0
 11 24  1  0
 13 25  1  0
 14 26  1  0
 19 27  1  0
 20 28  1  0
 20 29  1  0
 21 30  1  0
 21 31  1  0
M  ISO  7  25  14  26  14  27  13  28  13  29  13  30  13  31  13
M  END
>  <minimizedAffinity>  (1) 
-5.92726135

>  <minimizedRMSD>  (1) 
0.491183043

$$$$
