
     RDKit          3D

 38 40  0  0  0  0  0  0  0  0999 V2000
   43.5940   33.8550   41.8170 C   0  0  0  0  0  0  0  0  0  0  0  0
   43.8880   32.6560   42.3260 N   0  0  0  0  0  0  0  0  0  0  0  0
   45.1160   32.6590   42.7700 O   0  0  0  0  0  0  0  0  0  0  0  0
   45.6570   33.8340   42.5710 C   0  0  0  0  0  0  0  0  0  0  0  0
   44.7110   34.5960   41.9720 N   0  0  0  0  0  0  0  0  0  0  0  0
   47.0080   34.1940   42.9400 C   0  0  0  0  0  0  0  0  0  0  0  0
   47.6040   33.6580   43.8570 O   0  0  0  0  0  0  0  0  0  0  0  0
   47.5320   35.2120   42.1290 N   0  0  0  0  0  0  0  0  0  0  0  0
   48.9290   35.3840   42.3270 C   0  0  0  0  0  0  0  0  0  0  0  0
   49.8490   34.8920   43.0440 N   0  0  0  0  0  0  0  0  0  0  0  0
   49.7170   36.3410   41.6000 N   0  0  0  0  0  0  0  0  0  0  0  0
   49.7920   33.9840   43.4900 H   0  0  0  0  0  0  0  0  0  0  0  0
   40.7670   36.0940   41.1800 C   0  0  0  0  0  0  0  0  0  0  0  0
   40.1250   35.4790   40.1020 C   0  0  0  0  0  0  0  0  0  0  0  0
   40.6600   34.2870   39.5910 C   0  0  0  0  0  0  0  0  0  0  0  0
   41.7650   33.7710   40.1440 N   0  0  0  0  0  0  0  0  0  0  0  0
   42.3700   34.3860   41.1890 C   0  0  0  0  0  0  0  0  0  0  0  0
   41.8780   35.5330   41.7010 N   0  0  0  0  0  0  0  0  0  0  0  0
   40.0860   33.5870   38.5010 N   0  0  0  0  0  0  0  0  0  0  0  0
   40.6070   32.4020   37.8580 C   0  0  0  0  0  0  0  0  0  0  0  0
   39.5800   31.3090   38.1480 C   0  0  0  0  0  0  0  0  0  0  0  0
   38.4240   31.5990   37.3680 N   0  0  0  0  0  0  0  0  0  0  0  0
   38.1630   32.9670   37.0910 C   0  0  0  0  0  0  0  0  0  0  0  0
   38.8700   33.9860   37.8820 C   0  0  0  0  0  0  0  0  0  0  0  0
   46.9709   35.7686   41.4685 H   0  0  0  0  0  0  0  0  0  0  0  0
   50.7270   36.4229   41.7845 H   0  0  0  0  0  0  0  0  0  0  0  0
   49.2718   36.9450   40.8944 H   0  0  0  0  0  0  0  0  0  0  0  0
   40.3693   37.0292   41.6010 H   0  0  0  0  0  0  0  0  0  0  0  0
   39.2183   35.9206   39.6628 H   0  0  0  0  0  0  0  0  0  0  0  0
   41.5869   32.1330   38.2792 H   0  0  0  0  0  0  0  0  0  0  0  0
   40.7576   32.5507   36.7785 H   0  0  0  0  0  0  0  0  0  0  0  0
   39.9866   30.3260   37.8680 H   0  0  0  0  0  0  0  0  0  0  0  0
   39.3312   31.2815   39.2192 H   0  0  0  0  0  0  0  0  0  0  0  0
   38.5273   31.1130   36.4658 H   0  0  0  0  0  0  0  0  0  0  0  0
   38.4178   33.1398   36.0350 H   0  0  0  0  0  0  0  0  0  0  0  0
   37.1047   33.1011   37.3593 H   0  0  0  0  0  0  0  0  0  0  0  0
   39.0983   34.8281   37.2121 H   0  0  0  0  0  0  0  0  0  0  0  0
   38.1904   34.2286   38.7122 H   0  0  0  0  0  0  0  0  0  0  0  0
  1  5  1  0
  1  2  2  0
  2  3  1  0
  4  3  1  0
  4  6  1  0
  5  4  2  0
  6  7  2  0
  8  9  1  0
  8  6  1  0
  9 10  2  0
 10 12  1  0
 11  9  1  0
 13 18  2  0
 14 13  1  0
 15 14  2  0
 15 16  1  0
 16 17  2  0
 17 18  1  0
 17  1  1  0
 19 15  1  0
 20 21  1  0
 20 19  1  0
 22 21  1  0
 23 22  1  0
 23 24  1  0
 24 19  1  0
  8 25  1  0
 11 26  1  0
 11 27  1  0
 13 28  1  0
 14 29  1  0
 20 30  1  0
 20 31  1  0
 21 32  1  0
 21 33  1  0
 22 34  1  0
 23 35  1  0
 23 36  1  0
 24 37  1  0
 24 38  1  0
M  ISO  8  28  14  29  14  30  13  31  13  32  13  33  13  34   5  35  13
M  ISO  3  36  13  37  13  38  13
M  END
>  <minimizedAffinity>  (1) 
-5.90951681

>  <minimizedRMSD>  (1) 
0.547329962

$$$$
