
     RDKit          3D

 29 31  0  0  0  0  0  0  0  0999 V2000
   43.3070   33.7990   41.7170 C   0  0  0  0  0  0  0  0  0  0  0  0
   43.6270   32.5830   42.1620 N   0  0  0  0  0  0  0  0  0  0  0  0
   44.8510   32.5900   42.6200 O   0  0  0  0  0  0  0  0  0  0  0  0
   45.3610   33.7900   42.4910 C   0  0  0  0  0  0  0  0  0  0  0  0
   44.4020   34.5590   41.9260 N   0  0  0  0  0  0  0  0  0  0  0  0
   46.7000   34.1690   42.8920 C   0  0  0  0  0  0  0  0  0  0  0  0
   47.2240   33.7680   43.9150 O   0  0  0  0  0  0  0  0  0  0  0  0
   47.3050   35.0390   41.9710 N   0  0  0  0  0  0  0  0  0  0  0  0
   48.6950   35.2110   42.2330 C   0  0  0  0  0  0  0  0  0  0  0  0
   49.5620   34.7750   43.0340 N   0  0  0  0  0  0  0  0  0  0  0  0
   49.5330   36.0930   41.4720 N   0  0  0  0  0  0  0  0  0  0  0  0
   49.4390   33.9780   43.6380 H   0  0  0  0  0  0  0  0  0  0  0  0
   40.5970   36.1490   40.9790 C   0  0  0  0  0  0  0  0  0  0  0  0
   39.8230   35.4510   40.0450 C   0  0  0  0  0  0  0  0  0  0  0  0
   40.2350   34.1590   39.6700 C   0  0  0  0  0  0  0  0  0  0  0  0
   41.3440   33.6270   40.2070 N   0  0  0  0  0  0  0  0  0  0  0  0
   42.0750   34.3280   41.1100 C   0  0  0  0  0  0  0  0  0  0  0  0
   41.7020   35.5680   41.4860 N   0  0  0  0  0  0  0  0  0  0  0  0
   39.5110   33.3350   38.7080 C   0  0  0  0  0  0  0  0  0  0  0  0
   38.6420   33.9250   37.8670 N   0  0  0  0  0  0  0  0  0  0  0  0
   38.0820   33.0590   37.0760 O   0  0  0  0  0  0  0  0  0  0  0  0
   38.5720   31.8570   37.3770 C   0  0  0  0  0  0  0  0  0  0  0  0
   39.4670   32.0150   38.3950 N   0  0  0  0  0  0  0  0  0  0  0  0
   46.8035   35.4985   41.1975 H   0  0  0  0  0  0  0  0  0  0  0  0
   50.5329   36.1805   41.7033 H   0  0  0  0  0  0  0  0  0  0  0  0
   49.1346   36.6386   40.6945 H   0  0  0  0  0  0  0  0  0  0  0  0
   40.3063   37.1614   41.2959 H   0  0  0  0  0  0  0  0  0  0  0  0
   38.9159   35.9009   39.6151 H   0  0  0  0  0  0  0  0  0  0  0  0
   38.3032   30.9072   36.8917 H   0  0  0  0  0  0  0  0  0  0  0  0
  1  5  1  0
  1  2  2  0
  2  3  1  0
  4  3  1  0
  4  6  1  0
  5  4  2  0
  6  7  2  0
  8  9  1  0
  8  6  1  0
  9 10  2  0
 10 12  1  0
 11  9  1  0
 13 18  2  0
 14 13  1  0
 15 14  2  0
 15 16  1  0
 16 17  2  0
 17 18  1  0
 17  1  1  0
 19 15  1  0
 20 19  2  0
 21 22  1  0
 21 20  1  0
 22 23  2  0
 23 19  1  0
  8 24  1  0
 11 25  1  0
 11 26  1  0
 13 27  1  0
 14 28  1  0
 22 29  1  0
M  ISO  3  27  14  28  14  29  14
M  END
>  <minimizedAffinity>  (1) 
-5.90658855

>  <minimizedRMSD>  (1) 
0.320194453

$$$$
