
     RDKit          3D

 47 49  0  0  1  0  0  0  0  0999 V2000
   46.3400   35.0740   42.0660 C   0  0  0  0  0  0  0  0  0  0  0  0
   46.7930   34.4950   40.8820 N   0  0  0  0  0  0  0  0  0  0  0  0
   46.0480   33.4430   40.4780 C   0  0  0  0  0  0  0  0  0  0  0  0
   46.8110   32.1440   40.3040 C   0  0  0  0  0  0  0  0  0  0  0  0
   48.0630   31.9730   41.0590 C   0  0  0  0  0  0  0  0  0  0  0  0
   48.5900   33.2300   41.6680 C   0  0  0  0  0  0  0  0  0  0  0  0
   48.1950   34.3890   40.8170 C   0  0  2  0  0  0  0  0  0  0  0  0
   48.9290   35.5810   41.3070 C   0  0  0  0  0  0  0  0  0  0  0  0
   49.8710   35.3130   42.4350 C   0  0  0  0  0  0  0  0  0  0  0  0
   45.0790   34.6140   42.6070 C   0  0  1  0  0  0  0  0  0  0  0  0
   44.8430   34.8660   45.1270 C   0  0  0  0  0  0  0  0  0  0  0  0
   45.2460   34.1310   43.9780 C   0  0  0  0  0  0  0  0  0  0  0  0
   45.8310   32.8710   44.1750 C   0  0  0  0  0  0  0  0  0  0  0  0
   45.9880   32.4070   45.4260 N   0  0  0  0  0  0  0  0  0  0  0  0
   45.5920   33.1350   46.5030 C   0  0  0  0  0  0  0  0  0  0  0  0
   45.0090   34.3850   46.3500 N   0  0  0  0  0  0  0  0  0  0  0  0
   44.0560   35.7150   42.5370 C   0  0  0  0  0  0  0  0  0  0  0  0
   42.9810   35.4300   41.5240 C   0  0  0  0  0  0  0  0  0  0  0  0
   41.6300   35.2460   41.6300 C   0  0  0  0  0  0  0  0  0  0  0  0
   41.0730   35.0080   40.3920 C   0  0  0  0  0  0  0  0  0  0  0  0
   42.1530   35.0580   39.5490 C   0  0  0  0  0  0  0  0  0  0  0  0
   43.2350   35.3040   40.2360 O   0  0  0  0  0  0  0  0  0  0  0  0
   46.2441   36.1549   41.8860 H   0  0  0  0  0  0  0  0  0  0  0  0
   47.0861   34.7803   42.8191 H   0  0  0  0  0  0  0  0  0  0  0  0
   45.2586   33.2771   41.2259 H   0  0  0  0  0  0  0  0  0  0  0  0
   45.6600   33.7063   39.4829 H   0  0  0  0  0  0  0  0  0  0  0  0
   46.1368   31.3263   40.5986 H   0  0  0  0  0  0  0  0  0  0  0  0
   47.1237   32.1475   39.2494 H   0  0  0  0  0  0  0  0  0  0  0  0
   47.8820   31.2485   41.8667 H   0  0  0  0  0  0  0  0  0  0  0  0
   48.8206   31.6302   40.3389 H   0  0  0  0  0  0  0  0  0  0  0  0
   48.1702   33.3543   42.6771 H   0  0  0  0  0  0  0  0  0  0  0  0
   49.6867   33.1771   41.7352 H   0  0  0  0  0  0  0  0  0  0  0  0
   48.4598   34.2750   39.7555 H   0  0  0  0  0  0  0  0  0  0  0  0
   49.5075   35.9959   40.4685 H   0  0  0  0  0  0  0  0  0  0  0  0
   48.1697   36.2763   41.6944 H   0  0  0  0  0  0  0  0  0  0  0  0
   49.3490   35.4615   43.3918 H   0  0  0  0  0  0  0  0  0  0  0  0
   50.2331   34.2762   42.3719 H   0  0  0  0  0  0  0  0  0  0  0  0
   50.7246   36.0039   42.3719 H   0  0  0  0  0  0  0  0  0  0  0  0
   44.7203   33.7693   42.0005 H   0  0  0  0  0  0  0  0  0  0  0  0
   44.3829   35.8567   44.9971 H   0  0  0  0  0  0  0  0  0  0  0  0
   46.1577   32.2693   43.3141 H   0  0  0  0  0  0  0  0  0  0  0  0
   45.7361   32.7262   47.5140 H   0  0  0  0  0  0  0  0  0  0  0  0
   43.5890   35.8278   43.5265 H   0  0  0  0  0  0  0  0  0  0  0  0
   44.5727   36.6363   42.2301 H   0  0  0  0  0  0  0  0  0  0  0  0
   41.0656   35.2829   42.5734 H   0  0  0  0  0  0  0  0  0  0  0  0
   40.0181   34.8229   40.1412 H   0  0  0  0  0  0  0  0  0  0  0  0
   42.1136   34.9129   38.4593 H   0  0  0  0  0  0  0  0  0  0  0  0
  1 10  1  0
  2  1  1  0
  3  2  1  0
  4  3  1  0
  4  5  1  0
  5  6  1  0
  7  2  1  0
  7  8  1  0
  7  6  1  0
  8  9  1  0
 10 12  1  0
 11 16  2  0
 12 13  2  0
 12 11  1  0
 13 14  1  0
 14 15  2  0
 16 15  1  0
 17 10  1  0
 18 19  2  0
 18 17  1  0
 20 19  1  0
 21 22  1  0
 21 20  2  0
 22 18  1  0
  1 23  1  0
  1 24  1  0
  3 25  1  0
  3 26  1  0
  4 27  1  0
  4 28  1  0
  5 29  1  0
  5 30  1  0
  6 31  1  0
  6 32  1  0
  7 33  1  6
  8 34  1  0
  8 35  1  0
  9 36  1  0
  9 37  1  0
  9 38  1  0
 10 39  1  6
 11 40  1  0
 13 41  1  0
 15 42  1  0
 17 43  1  0
 17 44  1  0
 19 45  1  0
 20 46  1  0
 21 47  1  0
M  ISO  8  23   8  24   8  25  13  26  13  27  13  28  13  29  13  30  13
M  ISO  8  31  13  32  13  33  13  34   8  35   8  36   8  37   8  38   8
M  ISO  8  39   8  40  14  41  14  42  14  43   8  44   8  45  14  46  14
M  ISO  1  47  14
M  END
>  <minimizedAffinity>  (1) 
-5.24442005

>  <minimizedRMSD>  (1) 
1.94044483

$$$$
