
     RDKit          3D

 31 33  0  0  0  0  0  0  0  0999 V2000
   43.3270   33.8150   41.7350 C   0  0  0  0  0  0  0  0  0  0  0  0
   43.6380   32.5980   42.2000 N   0  0  0  0  0  0  0  0  0  0  0  0
   44.8650   32.6030   42.6540 O   0  0  0  0  0  0  0  0  0  0  0  0
   45.3830   33.7940   42.5030 C   0  0  0  0  0  0  0  0  0  0  0  0
   44.4290   34.5590   41.9290 N   0  0  0  0  0  0  0  0  0  0  0  0
   46.7270   34.1590   42.8950 C   0  0  0  0  0  0  0  0  0  0  0  0
   47.2580   33.7460   43.9100 O   0  0  0  0  0  0  0  0  0  0  0  0
   47.3280   35.0360   41.9770 N   0  0  0  0  0  0  0  0  0  0  0  0
   48.7120   35.2120   42.2380 C   0  0  0  0  0  0  0  0  0  0  0  0
   49.5880   34.7780   43.0320 N   0  0  0  0  0  0  0  0  0  0  0  0
   49.5510   36.1040   41.4880 N   0  0  0  0  0  0  0  0  0  0  0  0
   49.4710   33.9530   43.6170 H   0  0  0  0  0  0  0  0  0  0  0  0
   40.6170   36.1530   41.0070 C   0  0  0  0  0  0  0  0  0  0  0  0
   39.8350   35.4430   40.0630 C   0  0  0  0  0  0  0  0  0  0  0  0
   40.2520   34.1540   39.6820 C   0  0  0  0  0  0  0  0  0  0  0  0
   41.3700   33.6480   40.2250 N   0  0  0  0  0  0  0  0  0  0  0  0
   42.0950   34.3510   41.1250 C   0  0  0  0  0  0  0  0  0  0  0  0
   41.7220   35.5860   41.5090 N   0  0  0  0  0  0  0  0  0  0  0  0
   39.4750   33.3880   38.7120 C   0  0  0  0  0  0  0  0  0  0  0  0
   38.6500   33.9340   37.7520 C   0  0  0  0  0  0  0  0  0  0  0  0
   38.1630   32.8480   37.1120 N   0  0  0  0  0  0  0  0  0  0  0  0
   38.6700   31.7120   37.6590 C   0  0  0  0  0  0  0  0  0  0  0  0
   39.5050   32.0450   38.6770 N   0  0  0  0  0  0  0  0  0  0  0  0
   46.8241   35.4968   41.2059 H   0  0  0  0  0  0  0  0  0  0  0  0
   50.5501   36.1909   41.7229 H   0  0  0  0  0  0  0  0  0  0  0  0
   49.1537   36.6570   40.7151 H   0  0  0  0  0  0  0  0  0  0  0  0
   40.3190   37.1628   41.3256 H   0  0  0  0  0  0  0  0  0  0  0  0
   38.9235   35.8886   39.6379 H   0  0  0  0  0  0  0  0  0  0  0  0
   38.4393   34.9955   37.5549 H   0  0  0  0  0  0  0  0  0  0  0  0
   38.4409   30.6876   37.3302 H   0  0  0  0  0  0  0  0  0  0  0  0
   40.0411   31.4104   39.2858 H   0  0  0  0  0  0  0  0  0  0  0  0
  1  5  1  0
  1  2  2  0
  2  3  1  0
  4  3  1  0
  4  6  1  0
  5  4  2  0
  6  7  2  0
  8  9  1  0
  8  6  1  0
  9 10  2  0
 10 12  1  0
 11  9  1  0
 13 18  2  0
 14 13  1  0
 15 14  2  0
 15 16  1  0
 16 17  2  0
 17 18  1  0
 17  1  1  0
 19 15  1  0
 20 19  2  0
 21 22  2  0
 21 20  1  0
 22 23  1  0
 23 19  1  0
  8 24  1  0
 11 25  1  0
 11 26  1  0
 13 27  1  0
 14 28  1  0
 20 29  1  0
 22 30  1  0
 23 31  1  0
M  ISO  5  27  14  28  14  29  14  30  14  31   9
M  END
>  <minimizedAffinity>  (1) 
-5.89576817

>  <minimizedRMSD>  (1) 
0.378363967

$$$$
