
     RDKit          3D

 30 32  0  0  0  0  0  0  0  0999 V2000
   43.3440   33.8270   41.7680 C   0  0  0  0  0  0  0  0  0  0  0  0
   43.6450   32.6160   42.2840 N   0  0  0  0  0  0  0  0  0  0  0  0
   44.8670   32.6260   42.7380 O   0  0  0  0  0  0  0  0  0  0  0  0
   45.3990   33.8060   42.5430 C   0  0  0  0  0  0  0  0  0  0  0  0
   44.4550   34.5730   41.9360 N   0  0  0  0  0  0  0  0  0  0  0  0
   46.7430   34.1830   42.9200 C   0  0  0  0  0  0  0  0  0  0  0  0
   47.2940   33.7550   43.9200 O   0  0  0  0  0  0  0  0  0  0  0  0
   47.3260   35.0840   42.0140 N   0  0  0  0  0  0  0  0  0  0  0  0
   48.7180   35.2450   42.2470 C   0  0  0  0  0  0  0  0  0  0  0  0
   49.5990   34.8150   43.0340 N   0  0  0  0  0  0  0  0  0  0  0  0
   49.5540   36.1100   41.4630 N   0  0  0  0  0  0  0  0  0  0  0  0
   49.5010   33.9530   43.5780 H   0  0  0  0  0  0  0  0  0  0  0  0
   40.6180   36.1110   40.9740 C   0  0  0  0  0  0  0  0  0  0  0  0
   39.8660   35.3870   40.0430 C   0  0  0  0  0  0  0  0  0  0  0  0
   40.2840   34.0970   39.6710 C   0  0  0  0  0  0  0  0  0  0  0  0
   41.4030   33.6590   40.2590 N   0  0  0  0  0  0  0  0  0  0  0  0
   42.1220   34.3430   41.1440 C   0  0  0  0  0  0  0  0  0  0  0  0
   41.7190   35.5580   41.4890 N   0  0  0  0  0  0  0  0  0  0  0  0
   39.5390   33.2760   38.6930 C   0  0  0  0  0  0  0  0  0  0  0  0
   39.8290   31.9350   38.5400 C   0  0  0  0  0  0  0  0  0  0  0  0
   38.6300   31.4240   37.2280 S   0  0  0  0  0  0  0  0  0  0  0  0
   37.9420   33.1900   37.1350 C   0  0  0  0  0  0  0  0  0  0  0  0
   38.5720   33.7360   37.9140 N   0  0  0  0  0  0  0  0  0  0  0  0
   46.8062   35.5701   41.2694 H   0  0  0  0  0  0  0  0  0  0  0  0
   50.5585   36.1880   41.6770 H   0  0  0  0  0  0  0  0  0  0  0  0
   49.1492   36.6524   40.6866 H   0  0  0  0  0  0  0  0  0  0  0  0
   40.3069   37.1215   41.2776 H   0  0  0  0  0  0  0  0  0  0  0  0
   38.9556   35.8229   39.6057 H   0  0  0  0  0  0  0  0  0  0  0  0
   40.5806   31.3264   39.0641 H   0  0  0  0  0  0  0  0  0  0  0  0
   37.1407   33.5861   36.4939 H   0  0  0  0  0  0  0  0  0  0  0  0
  1  5  1  0
  1  2  2  0
  2  3  1  0
  4  3  1  0
  4  6  1  0
  5  4  2  0
  6  7  2  0
  8  9  1  0
  8  6  1  0
  9 10  2  0
 10 12  1  0
 11  9  1  0
 13 18  2  0
 14 13  1  0
 15 14  2  0
 15 16  1  0
 16 17  2  0
 17 18  1  0
 17  1  1  0
 19 15  1  0
 20 19  2  0
 21 20  1  0
 22 21  1  0
 22 23  2  0
 23 19  1  0
  8 24  1  0
 11 25  1  0
 11 26  1  0
 13 27  1  0
 14 28  1  0
 20 29  1  0
 22 30  1  0
M  ISO  4  27  14  28  14  29  14  30  14
M  END
>  <minimizedAffinity>  (1) 
-5.79424763

>  <minimizedRMSD>  (1) 
0.14471896

$$$$
