
     RDKit          3D

 30 31  0  0  0  0  0  0  0  0999 V2000
   43.4980   33.8470   41.7020 C   0  0  0  0  0  0  0  0  0  0  0  0
   43.7300   32.6550   42.2590 N   0  0  0  0  0  0  0  0  0  0  0  0
   44.9410   32.6220   42.7500 O   0  0  0  0  0  0  0  0  0  0  0  0
   45.5300   33.7720   42.5330 C   0  0  0  0  0  0  0  0  0  0  0  0
   44.6340   34.5440   41.8790 N   0  0  0  0  0  0  0  0  0  0  0  0
   46.8800   34.0990   42.9400 C   0  0  0  0  0  0  0  0  0  0  0  0
   47.4280   33.5840   43.8960 O   0  0  0  0  0  0  0  0  0  0  0  0
   47.4650   35.0660   42.1050 N   0  0  0  0  0  0  0  0  0  0  0  0
   48.8570   35.2150   42.3590 C   0  0  0  0  0  0  0  0  0  0  0  0
   49.7420   34.7000   43.0990 N   0  0  0  0  0  0  0  0  0  0  0  0
   49.6820   36.1710   41.6780 N   0  0  0  0  0  0  0  0  0  0  0  0
   49.6360   33.8160   43.5800 H   0  0  0  0  0  0  0  0  0  0  0  0
   40.6150   35.9940   41.0610 C   0  0  0  0  0  0  0  0  0  0  0  0
   40.1320   35.5270   39.8330 C   0  0  0  0  0  0  0  0  0  0  0  0
   40.8080   34.4540   39.2210 C   0  0  0  0  0  0  0  0  0  0  0  0
   41.8810   33.9190   39.8240 N   0  0  0  0  0  0  0  0  0  0  0  0
   42.3140   34.4050   41.0150 C   0  0  0  0  0  0  0  0  0  0  0  0
   41.6960   35.4300   41.6350 N   0  0  0  0  0  0  0  0  0  0  0  0
   40.2970   33.9570   37.9180 C   0  0  0  0  0  0  0  0  0  0  0  0
   38.8090   34.1640   37.7770 C   0  0  0  0  0  0  0  0  0  0  0  0
   46.9479   35.6028   41.3941 H   0  0  0  0  0  0  0  0  0  0  0  0
   50.6854   36.2368   41.9010 H   0  0  0  0  0  0  0  0  0  0  0  0
   49.2709   36.7916   40.9661 H   0  0  0  0  0  0  0  0  0  0  0  0
   40.1067   36.8304   41.5630 H   0  0  0  0  0  0  0  0  0  0  0  0
   39.2505   35.9846   39.3601 H   0  0  0  0  0  0  0  0  0  0  0  0
   40.8087   34.4961   37.1071 H   0  0  0  0  0  0  0  0  0  0  0  0
   40.4957   32.8764   37.8655 H   0  0  0  0  0  0  0  0  0  0  0  0
   38.3514   34.2277   38.7753 H   0  0  0  0  0  0  0  0  0  0  0  0
   38.6192   35.0972   37.2265 H   0  0  0  0  0  0  0  0  0  0  0  0
   38.3717   33.3180   37.2265 H   0  0  0  0  0  0  0  0  0  0  0  0
  1  5  1  0
  1  2  2  0
  2  3  1  0
  4  3  1  0
  4  6  1  0
  5  4  2  0
  6  7  2  0
  8  9  1  0
  8  6  1  0
  9 10  2  0
 10 12  1  0
 11  9  1  0
 13 18  2  0
 14 13  1  0
 15 16  1  0
 15 14  2  0
 16 17  2  0
 17 18  1  0
 17  1  1  0
 19 15  1  0
 20 19  1  0
  8 21  1  0
 11 22  1  0
 11 23  1  0
 13 24  1  0
 14 25  1  0
 19 26  1  0
 19 27  1  0
 20 28  1  0
 20 29  1  0
 20 30  1  0
M  ISO  7  24  14  25  14  26   8  27   8  28   8  29   8  30   8
M  END
>  <minimizedAffinity>  (1) 
-5.61065292

>  <minimizedRMSD>  (1) 
0.611112893

$$$$
