
     RDKit          3D

 50 52  0  0  1  0  0  0  0  0999 V2000
   47.5670   32.9210   43.6460 C   0  0  0  0  0  0  0  0  0  0  0  0
   48.1090   32.6180   42.4020 N   0  0  0  0  0  0  0  0  0  0  0  0
   48.6350   31.3720   42.3180 C   0  0  0  0  0  0  0  0  0  0  0  0
   50.1120   31.2920   41.9660 C   0  0  0  0  0  0  0  0  0  0  0  0
   50.9350   32.4840   42.1980 C   0  0  0  0  0  0  0  0  0  0  0  0
   50.1650   33.7150   42.5470 C   0  0  0  0  0  0  0  0  0  0  0  0
   48.8530   33.6720   41.8430 C   0  0  2  0  0  0  0  0  0  0  0  0
   48.2210   35.0060   41.9860 C   0  0  0  0  0  0  0  0  0  0  0  0
   49.0840   36.1570   41.5770 C   0  0  0  0  0  0  0  0  0  0  0  0
   46.7210   31.9150   44.2650 C   0  0  1  0  0  0  0  0  0  0  0  0
   46.9350   32.6670   46.6900 C   0  0  0  0  0  0  0  0  0  0  0  0
   47.1150   31.7040   45.6610 C   0  0  0  0  0  0  0  0  0  0  0  0
   47.7080   30.4800   46.0020 C   0  0  0  0  0  0  0  0  0  0  0  0
   48.0790   30.2720   47.2780 N   0  0  0  0  0  0  0  0  0  0  0  0
   47.8950   31.2090   48.2370 C   0  0  0  0  0  0  0  0  0  0  0  0
   47.3110   32.4330   47.9390 N   0  0  0  0  0  0  0  0  0  0  0  0
   45.2740   32.2990   44.1690 C   0  0  0  0  0  0  0  0  0  0  0  0
   45.0220   33.6070   43.5000 C   0  0  0  0  0  0  0  0  0  0  0  0
   44.7370   33.9270   42.1930 C   0  0  0  0  0  0  0  0  0  0  0  0
   44.5310   35.2440   41.8440 C   0  0  0  0  0  0  0  0  0  0  0  0
   44.5920   36.2970   42.7320 C   0  0  0  0  0  0  0  0  0  0  0  0
   44.8790   35.9780   44.0430 C   0  0  0  0  0  0  0  0  0  0  0  0
   45.0890   34.6630   44.4110 C   0  0  0  0  0  0  0  0  0  0  0  0
   46.9649   33.8344   43.5309 H   0  0  0  0  0  0  0  0  0  0  0  0
   48.4334   33.0147   44.3173 H   0  0  0  0  0  0  0  0  0  0  0  0
   48.4947   30.8815   43.2925 H   0  0  0  0  0  0  0  0  0  0  0  0
   48.1061   30.8834   41.4864 H   0  0  0  0  0  0  0  0  0  0  0  0
   50.1816   31.0482   40.8956 H   0  0  0  0  0  0  0  0  0  0  0  0
   50.5201   30.5352   42.6521 H   0  0  0  0  0  0  0  0  0  0  0  0
   51.6273   32.2669   43.0248 H   0  0  0  0  0  0  0  0  0  0  0  0
   51.4483   32.6970   41.2487 H   0  0  0  0  0  0  0  0  0  0  0  0
   50.0009   33.7535   43.6340 H   0  0  0  0  0  0  0  0  0  0  0  0
   50.7270   34.6090   42.2390 H   0  0  0  0  0  0  0  0  0  0  0  0
   48.9361   33.4726   40.7644 H   0  0  0  0  0  0  0  0  0  0  0  0
   47.3126   35.0223   41.3659 H   0  0  0  0  0  0  0  0  0  0  0  0
   48.0172   35.1382   43.0588 H   0  0  0  0  0  0  0  0  0  0  0  0
   49.4657   36.6661   42.4743 H   0  0  0  0  0  0  0  0  0  0  0  0
   49.9291   35.7869   40.9779 H   0  0  0  0  0  0  0  0  0  0  0  0
   48.4919   36.8645   40.9779 H   0  0  0  0  0  0  0  0  0  0  0  0
   46.8545   30.9684   43.7209 H   0  0  0  0  0  0  0  0  0  0  0  0
   46.4708   33.6332   46.4432 H   0  0  0  0  0  0  0  0  0  0  0  0
   47.8670   29.7035   45.2393 H   0  0  0  0  0  0  0  0  0  0  0  0
   48.2130   30.9977   49.2686 H   0  0  0  0  0  0  0  0  0  0  0  0
   44.7484   31.5167   43.6018 H   0  0  0  0  0  0  0  0  0  0  0  0
   44.9097   32.4019   45.2018 H   0  0  0  0  0  0  0  0  0  0  0  0
   44.6739   33.1363   41.4309 H   0  0  0  0  0  0  0  0  0  0  0  0
   44.3038   35.4693   40.7916 H   0  0  0  0  0  0  0  0  0  0  0  0
   44.4210   37.3355   42.4122 H   0  0  0  0  0  0  0  0  0  0  0  0
   44.9410   36.7745   44.7991 H   0  0  0  0  0  0  0  0  0  0  0  0
   45.3180   34.4391   45.4633 H   0  0  0  0  0  0  0  0  0  0  0  0
  1 10  1  0
  2  1  1  0
  3  2  1  0
  4  5  1  0
  4  3  1  0
  5  6  1  0
  7  8  1  0
  7  2  1  0
  7  6  1  0
  9  8  1  0
 10 12  1  0
 11 16  2  0
 12 13  2  0
 12 11  1  0
 13 14  1  0
 14 15  2  0
 16 15  1  0
 17 10  1  0
 18 17  1  0
 18 23  1  0
 19 18  2  0
 20 19  1  0
 20 21  2  0
 21 22  1  0
 22 23  2  0
  1 24  1  0
  1 25  1  0
  3 26  1  0
  3 27  1  0
  4 28  1  0
  4 29  1  0
  5 30  1  0
  5 31  1  0
  6 32  1  0
  6 33  1  0
  7 34  1  6
  8 35  1  0
  8 36  1  0
  9 37  1  0
  9 38  1  0
  9 39  1  0
 10 40  1  6
 11 41  1  0
 13 42  1  0
 15 43  1  0
 17 44  1  0
 17 45  1  0
 19 46  1  0
 20 47  1  0
 21 48  1  0
 22 49  1  0
 23 50  1  0
M  ISO  8  24   8  25   8  26  13  27  13  28  13  29  13  30  13  31  13
M  ISO  8  32  13  33  13  34  13  35   8  36   8  37   8  38   8  39   8
M  ISO  8  40   8  41  14  42  14  43  14  44   8  45   8  46  14  47  14
M  ISO  3  48  14  49  14  50  14
M  END
>  <minimizedAffinity>  (1) 
-5.23657608

>  <minimizedRMSD>  (1) 
3.09370685

$$$$
