
     RDKit          3D

 44 47  0  0  1  0  0  0  0  0999 V2000
   40.8140   35.8860   40.9790 C   0  0  0  0  0  0  0  0  0  0  0  0
   40.2750   35.2370   39.8550 C   0  0  0  0  0  0  0  0  0  0  0  0
   40.8940   34.0780   39.3780 C   0  0  0  0  0  0  0  0  0  0  0  0
   41.9870   33.6130   40.0040 N   0  0  0  0  0  0  0  0  0  0  0  0
   42.4800   34.2680   41.0900 C   0  0  0  0  0  0  0  0  0  0  0  0
   41.9060   35.3910   41.5760 N   0  0  0  0  0  0  0  0  0  0  0  0
   40.3510   33.3780   38.2130 C   0  0  2  0  0  0  0  0  0  0  0  0
   39.1600   33.9830   37.5950 C   0  0  0  0  0  0  0  0  0  0  0  0
   37.9610   33.3300   38.2640 C   0  0  0  0  0  0  0  0  0  0  0  0
   38.4370   31.9480   38.6120 C   0  0  0  0  0  0  0  0  0  0  0  0
   39.9250   31.9620   38.4550 C   0  0  1  0  0  0  0  0  0  0  0  0
   40.3910   31.0520   37.4410 N   0  0  0  0  0  0  0  0  0  0  0  0
   39.4930   30.2750   36.7670 C   0  0  0  0  0  0  0  0  0  0  0  0
   40.2320   29.5230   35.8770 C   0  0  0  0  0  0  0  0  0  0  0  0
   41.5330   29.8580   36.0300 N   0  0  0  0  0  0  0  0  0  0  0  0
   41.6260   30.8020   36.9970 C   0  0  0  0  0  0  0  0  0  0  0  0
   43.6770   33.7910   41.8130 C   0  0  0  0  0  0  0  0  0  0  0  0
   43.9150   32.6670   42.5070 N   0  0  0  0  0  0  0  0  0  0  0  0
   45.1330   32.6770   42.9780 O   0  0  0  0  0  0  0  0  0  0  0  0
   45.7320   33.7960   42.6140 C   0  0  0  0  0  0  0  0  0  0  0  0
   44.8190   34.4960   41.8820 N   0  0  0  0  0  0  0  0  0  0  0  0
   47.0860   34.1460   42.9570 C   0  0  0  0  0  0  0  0  0  0  0  0
   47.7220   33.6060   43.8260 O   0  0  0  0  0  0  0  0  0  0  0  0
   47.5620   35.1810   42.1590 N   0  0  0  0  0  0  0  0  0  0  0  0
   48.9640   35.4170   42.3210 C   0  0  0  0  0  0  0  0  0  0  0  0
   49.8920   34.9520   43.0370 N   0  0  0  0  0  0  0  0  0  0  0  0
   49.7120   36.3790   41.5800 N   0  0  0  0  0  0  0  0  0  0  0  0
   49.8900   33.9790   43.3610 H   0  0  0  0  0  0  0  0  0  0  0  0
   40.3397   36.7992   41.3679 H   0  0  0  0  0  0  0  0  0  0  0  0
   39.3785   35.6355   39.3575 H   0  0  0  0  0  0  0  0  0  0  0  0
   41.2318   33.4459   37.5576 H   0  0  0  0  0  0  0  0  0  0  0  0
   39.1496   35.0691   37.7687 H   0  0  0  0  0  0  0  0  0  0  0  0
   39.1481   33.8259   36.5063 H   0  0  0  0  0  0  0  0  0  0  0  0
   37.6718   33.8823   39.1703 H   0  0  0  0  0  0  0  0  0  0  0  0
   37.0728   33.3176   37.6152 H   0  0  0  0  0  0  0  0  0  0  0  0
   38.1662   31.7023   39.6494 H   0  0  0  0  0  0  0  0  0  0  0  0
   37.9744   31.1912   37.9615 H   0  0  0  0  0  0  0  0  0  0  0  0
   40.3944   31.5932   39.3789 H   0  0  0  0  0  0  0  0  0  0  0  0
   38.4020   30.2530   36.9055 H   0  0  0  0  0  0  0  0  0  0  0  0
   39.8333   28.7821   35.1684 H   0  0  0  0  0  0  0  0  0  0  0  0
   42.5520   31.2773   37.3528 H   0  0  0  0  0  0  0  0  0  0  0  0
   46.9660   35.7225   41.5168 H   0  0  0  0  0  0  0  0  0  0  0  0
   50.7211   36.4915   41.7534 H   0  0  0  0  0  0  0  0  0  0  0  0
   49.2432   36.9613   40.8715 H   0  0  0  0  0  0  0  0  0  0  0  0
  1  6  2  0
  2  1  1  0
  3  2  2  0
  3  4  1  0
  4  5  2  0
  5  6  1  0
  5 17  1  0
  7 11  1  0
  7  3  1  0
  8  7  1  0
  8  9  1  0
  9 10  1  0
 11 10  1  0
 12 11  1  0
 13 12  1  0
 14 15  1  0
 14 13  2  0
 15 16  2  0
 16 12  1  0
 17 21  1  0
 17 18  2  0
 18 19  1  0
 20 22  1  0
 20 19  1  0
 21 20  2  0
 22 23  2  0
 24 25  1  0
 24 22  1  0
 25 26  2  0
 26 28  1  0
 27 25  1  0
  1 29  1  0
  2 30  1  0
  7 31  1  6
  8 32  1  0
  8 33  1  0
  9 34  1  0
  9 35  1  0
 10 36  1  0
 10 37  1  0
 11 38  1  1
 13 39  1  0
 14 40  1  0
 16 41  1  0
 24 42  1  0
 27 43  1  0
 27 44  1  0
M  ISO  8  29  14  30  14  31  13  32  13  33  13  34  13  35  13  36  13
M  ISO  5  37  13  38  13  39  14  40  14  41  14
M  END
>  <minimizedAffinity>  (1) 
-6.55478907

>  <minimizedRMSD>  (1) 
0.715748668

$$$$
