
     RDKit          3D

 50 53  0  0  1  0  0  0  0  0999 V2000
   40.7840   35.9500   40.9940 C   0  0  0  0  0  0  0  0  0  0  0  0
   40.2230   35.3070   39.8640 C   0  0  0  0  0  0  0  0  0  0  0  0
   40.8320   34.1530   39.3770 C   0  0  0  0  0  0  0  0  0  0  0  0
   41.9300   33.6840   39.9920 N   0  0  0  0  0  0  0  0  0  0  0  0
   42.4470   34.3160   41.0710 C   0  0  0  0  0  0  0  0  0  0  0  0
   41.8800   35.4430   41.5710 N   0  0  0  0  0  0  0  0  0  0  0  0
   40.2860   33.4520   38.2080 C   0  0  2  0  0  0  0  0  0  0  0  0
   39.0590   34.0390   37.6350 C   0  0  0  0  0  0  0  0  0  0  0  0
   37.9050   33.3380   38.3270 C   0  0  0  0  0  0  0  0  0  0  0  0
   38.4340   31.9650   38.6470 C   0  0  0  0  0  0  0  0  0  0  0  0
   39.9160   32.0200   38.4270 C   0  0  1  0  0  0  0  0  0  0  0  0
   40.2200   31.0960   37.3160 C   0  0  0  0  0  0  0  0  0  0  0  0
   41.6300   30.7200   37.0710 C   0  0  0  0  0  0  0  0  0  0  0  0
   41.9830   29.8630   38.2540 C   0  0  0  0  0  0  0  0  0  0  0  0
   40.7470   29.0330   38.4440 C   0  0  0  0  0  0  0  0  0  0  0  0
   39.6170   29.7370   37.6810 C   0  0  0  0  0  0  0  0  0  0  0  0
   43.6390   33.8310   41.7740 C   0  0  0  0  0  0  0  0  0  0  0  0
   43.8870   32.6800   42.4270 N   0  0  0  0  0  0  0  0  0  0  0  0
   45.1020   32.6840   42.9050 O   0  0  0  0  0  0  0  0  0  0  0  0
   45.6910   33.8220   42.5870 C   0  0  0  0  0  0  0  0  0  0  0  0
   44.7760   34.5330   41.8820 N   0  0  0  0  0  0  0  0  0  0  0  0
   47.0410   34.1700   42.9500 C   0  0  0  0  0  0  0  0  0  0  0  0
   47.6560   33.6510   43.8480 O   0  0  0  0  0  0  0  0  0  0  0  0
   47.5440   35.1790   42.1350 N   0  0  0  0  0  0  0  0  0  0  0  0
   48.9430   35.4030   42.3130 C   0  0  0  0  0  0  0  0  0  0  0  0
   49.8620   34.9260   43.0390 N   0  0  0  0  0  0  0  0  0  0  0  0
   49.7090   36.3640   41.5890 N   0  0  0  0  0  0  0  0  0  0  0  0
   49.8370   33.9660   43.3850 H   0  0  0  0  0  0  0  0  0  0  0  0
   40.3206   36.8630   41.3962 H   0  0  0  0  0  0  0  0  0  0  0  0
   39.3222   35.7117   39.3794 H   0  0  0  0  0  0  0  0  0  0  0  0
   41.1480   33.5528   37.5321 H   0  0  0  0  0  0  0  0  0  0  0  0
   39.0237   35.1207   37.8315 H   0  0  0  0  0  0  0  0  0  0  0  0
   39.0178   33.9071   36.5437 H   0  0  0  0  0  0  0  0  0  0  0  0
   37.6228   33.8700   39.2475 H   0  0  0  0  0  0  0  0  0  0  0  0
   37.0016   33.3022   37.7005 H   0  0  0  0  0  0  0  0  0  0  0  0
   38.2141   31.7071   39.6935 H   0  0  0  0  0  0  0  0  0  0  0  0
   37.9649   31.1991   38.0119 H   0  0  0  0  0  0  0  0  0  0  0  0
   40.5234   31.6848   39.2806 H   0  0  0  0  0  0  0  0  0  0  0  0
   39.8448   31.6443   36.4393 H   0  0  0  0  0  0  0  0  0  0  0  0
   41.7272   30.1530   36.1334 H   0  0  0  0  0  0  0  0  0  0  0  0
   42.2910   31.5929   36.9656 H   0  0  0  0  0  0  0  0  0  0  0  0
   42.8562   29.2298   38.0381 H   0  0  0  0  0  0  0  0  0  0  0  0
   42.2585   30.4444   39.1462 H   0  0  0  0  0  0  0  0  0  0  0  0
   40.9041   28.0221   38.0397 H   0  0  0  0  0  0  0  0  0  0  0  0
   40.4995   28.9331   39.5111 H   0  0  0  0  0  0  0  0  0  0  0  0
   38.7295   29.8599   38.3192 H   0  0  0  0  0  0  0  0  0  0  0  0
   39.2779   29.1702   36.8014 H   0  0  0  0  0  0  0  0  0  0  0  0
   46.9652   35.7112   41.4697 H   0  0  0  0  0  0  0  0  0  0  0  0
   50.7168   36.4657   41.7757 H   0  0  0  0  0  0  0  0  0  0  0  0
   49.2543   36.9563   40.8795 H   0  0  0  0  0  0  0  0  0  0  0  0
  1  6  2  0
  2  1  1  0
  3  2  2  0
  3  4  1  0
  4  5  2  0
  5  6  1  0
  5 17  1  0
  7 11  1  0
  7  3  1  0
  8  7  1  0
  8  9  1  0
  9 10  1  0
 11 10  1  0
 12 16  1  0
 12 11  1  0
 13 12  1  0
 13 14  1  0
 14 15  1  0
 16 15  1  0
 17 21  1  0
 17 18  2  0
 18 19  1  0
 20 19  1  0
 20 22  1  0
 21 20  2  0
 22 23  2  0
 24 25  1  0
 24 22  1  0
 25 26  2  0
 26 28  1  0
 27 25  1  0
  1 29  1  0
  2 30  1  0
  7 31  1  6
  8 32  1  0
  8 33  1  0
  9 34  1  0
  9 35  1  0
 10 36  1  0
 10 37  1  0
 11 38  1  1
 12 39  1  0
 13 40  1  0
 13 41  1  0
 14 42  1  0
 14 43  1  0
 15 44  1  0
 15 45  1  0
 16 46  1  0
 16 47  1  0
 24 48  1  0
 27 49  1  0
 27 50  1  0
M  ISO  8  29  14  30  14  31  13  32  13  33  13  34  13  35  13  36  13
M  ISO  8  37  13  38  13  39  13  40  13  41  13  42  13  43  13  44  13
M  ISO  3  45  13  46  13  47  13
M  END
>  <minimizedAffinity>  (1) 
-6.49033022

>  <minimizedRMSD>  (1) 
0.519943893

$$$$
