
     RDKit          3D

 39 41  0  0  1  0  0  0  0  0999 V2000
   40.6080   35.7840   41.2010 C   0  0  0  0  0  0  0  0  0  0  0  0
   40.1410   35.2800   39.9790 C   0  0  0  0  0  0  0  0  0  0  0  0
   40.8680   34.2500   39.3450 C   0  0  0  0  0  0  0  0  0  0  0  0
   41.9810   33.7830   39.9270 N   0  0  0  0  0  0  0  0  0  0  0  0
   42.3970   34.3010   41.1150 C   0  0  0  0  0  0  0  0  0  0  0  0
   41.7240   35.2890   41.7480 N   0  0  0  0  0  0  0  0  0  0  0  0
   40.3960   33.6970   38.0770 C   0  0  2  0  0  0  0  0  0  0  0  0
   39.2480   34.3740   37.4570 C   0  0  0  0  0  0  0  0  0  0  0  0
   38.0080   33.6590   37.9700 C   0  0  0  0  0  0  0  0  0  0  0  0
   38.4550   32.2430   38.1840 C   0  0  0  0  0  0  0  0  0  0  0  0
   39.9490   32.2660   38.1320 C   0  0  2  0  0  0  0  0  0  0  0  0
   40.4280   31.5890   39.3810 C   0  0  0  0  0  0  0  0  0  0  0  0
   40.0390   30.9300   40.3530 O   0  0  0  0  0  0  0  0  0  0  0  0
   43.6130   33.8100   41.7900 C   0  0  0  0  0  0  0  0  0  0  0  0
   43.8950   32.6410   42.3930 N   0  0  0  0  0  0  0  0  0  0  0  0
   45.1160   32.6540   42.8570 O   0  0  0  0  0  0  0  0  0  0  0  0
   45.6740   33.8170   42.5780 C   0  0  0  0  0  0  0  0  0  0  0  0
   44.7360   34.5390   41.9110 N   0  0  0  0  0  0  0  0  0  0  0  0
   47.0180   34.1820   42.9390 C   0  0  0  0  0  0  0  0  0  0  0  0
   47.6180   33.7170   43.8780 O   0  0  0  0  0  0  0  0  0  0  0  0
   47.5400   35.1380   42.0710 N   0  0  0  0  0  0  0  0  0  0  0  0
   48.9300   35.3940   42.2920 C   0  0  0  0  0  0  0  0  0  0  0  0
   49.8360   34.9520   43.0390 N   0  0  0  0  0  0  0  0  0  0  0  0
   49.6890   36.3710   41.5790 N   0  0  0  0  0  0  0  0  0  0  0  0
   49.8090   34.0070   43.4390 H   0  0  0  0  0  0  0  0  0  0  0  0
   40.0561   36.5875   41.7107 H   0  0  0  0  0  0  0  0  0  0  0  0
   39.2239   35.6804   39.5223 H   0  0  0  0  0  0  0  0  0  0  0  0
   41.3158   33.8369   37.4901 H   0  0  0  0  0  0  0  0  0  0  0  0
   39.3064   34.2980   36.3612 H   0  0  0  0  0  0  0  0  0  0  0  0
   39.2281   35.4442   37.7107 H   0  0  0  0  0  0  0  0  0  0  0  0
   37.6641   34.1055   38.9146 H   0  0  0  0  0  0  0  0  0  0  0  0
   37.1630   33.7304   37.2694 H   0  0  0  0  0  0  0  0  0  0  0  0
   38.1129   31.8789   39.1640 H   0  0  0  0  0  0  0  0  0  0  0  0
   38.0372   31.5705   37.4203 H   0  0  0  0  0  0  0  0  0  0  0  0
   40.3543   31.7491   37.2497 H   0  0  0  0  0  0  0  0  0  0  0  0
   41.5161   31.7283   39.4623 H   0  0  0  0  0  0  0  0  0  0  0  0
   46.9831   35.6115   41.3454 H   0  0  0  0  0  0  0  0  0  0  0  0
   50.6884   36.5019   41.7909 H   0  0  0  0  0  0  0  0  0  0  0  0
   49.2370   36.9449   40.8528 H   0  0  0  0  0  0  0  0  0  0  0  0
  1  6  2  0
  2  1  1  0
  3  4  1  0
  3  2  2  0
  4  5  2  0
  5  6  1  0
  5 14  1  0
  7 11  1  0
  7  3  1  0
  8  9  1  0
  8  7  1  0
  9 10  1  0
 11 10  1  0
 11 12  1  0
 12 13  2  0
 14 18  1  0
 14 15  2  0
 15 16  1  0
 17 16  1  0
 17 19  1  0
 18 17  2  0
 19 20  2  0
 21 22  1  0
 21 19  1  0
 22 23  2  0
 23 25  1  0
 24 22  1  0
  1 26  1  0
  2 27  1  0
  7 28  1  6
  8 29  1  0
  8 30  1  0
  9 31  1  0
  9 32  1  0
 10 33  1  0
 10 34  1  0
 11 35  1  6
 12 36  1  0
 21 37  1  0
 24 38  1  0
 24 39  1  0
M  ISO  8  26  14  27  14  28  13  29  13  30  13  31  13  32  13  33  13
M  ISO  3  34  13  35  13  36   6
M  END
>  <minimizedAffinity>  (1) 
-6.3831811

>  <minimizedRMSD>  (1) 
0.37150833

$$$$
