
     RDKit          3D

 31 34  0  0  1  0  0  0  0  0999 V2000
   44.1220   34.6410   42.3540 C   0  0  1  0  0  0  0  0  0  0  0  0
   44.8250   34.6500   41.0140 C   0  0  0  0  0  0  0  0  0  0  0  0
   43.5900   33.8800   41.2110 C   0  0  2  0  0  0  0  0  0  0  0  0
   42.3910   34.2510   40.4590 C   0  0  0  0  0  0  0  0  0  0  0  0
   42.6040   35.1910   39.4440 C   0  0  0  0  0  0  0  0  0  0  0  0
   41.4130   35.4170   38.8250 N   0  0  0  0  0  0  0  0  0  0  0  0
   40.4350   34.6770   39.3790 C   0  0  0  0  0  0  0  0  0  0  0  0
   39.0900   34.4490   39.2430 C   0  0  0  0  0  0  0  0  0  0  0  0
   38.4030   33.5580   40.0660 C   0  0  0  0  0  0  0  0  0  0  0  0
   39.0680   32.8580   41.0730 C   0  0  0  0  0  0  0  0  0  0  0  0
   40.4360   33.0750   41.2300 C   0  0  0  0  0  0  0  0  0  0  0  0
   41.0480   33.9650   40.3820 C   0  0  0  0  0  0  0  0  0  0  0  0
   44.7910   33.9570   43.4860 C   0  0  0  0  0  0  0  0  0  0  0  0
   45.1240   32.5820   43.3160 C   0  0  0  0  0  0  0  0  0  0  0  0
   45.7580   31.8920   44.3460 C   0  0  0  0  0  0  0  0  0  0  0  0
   46.0240   32.5880   45.4690 N   0  0  0  0  0  0  0  0  0  0  0  0
   45.6990   33.9030   45.6140 C   0  0  0  0  0  0  0  0  0  0  0  0
   45.0910   34.5610   44.6280 N   0  0  0  0  0  0  0  0  0  0  0  0
   43.6968   35.3863   43.0423 H   0  0  0  0  0  0  0  0  0  0  0  0
   45.7865   34.1299   40.8912 H   0  0  0  0  0  0  0  0  0  0  0  0
   45.1592   35.4269   40.3107 H   0  0  0  0  0  0  0  0  0  0  0  0
   43.2796   32.8298   41.1071 H   0  0  0  0  0  0  0  0  0  0  0  0
   43.5645   35.6637   39.1912 H   0  0  0  0  0  0  0  0  0  0  0  0
   41.2783   36.0674   38.0378 H   0  0  0  0  0  0  0  0  0  0  0  0
   38.5353   34.9862   38.4596 H   0  0  0  0  0  0  0  0  0  0  0  0
   37.3236   33.4050   39.9197 H   0  0  0  0  0  0  0  0  0  0  0  0
   38.5283   32.1549   41.7245 H   0  0  0  0  0  0  0  0  0  0  0  0
   41.0077   32.5495   42.0092 H   0  0  0  0  0  0  0  0  0  0  0  0
   44.8811   32.0675   42.3746 H   0  0  0  0  0  0  0  0  0  0  0  0
   46.0286   30.8303   44.2478 H   0  0  0  0  0  0  0  0  0  0  0  0
   45.9403   34.4251   46.5517 H   0  0  0  0  0  0  0  0  0  0  0  0
  1 13  1  0
  2  3  1  0
  2  1  1  0
  3  1  1  0
  4  3  1  0
  5  4  2  0
  6  7  1  0
  6  5  1  0
  7 12  2  0
  8  7  1  0
  8  9  2  0
  9 10  1  0
 10 11  2  0
 12  4  1  0
 12 11  1  0
 13 18  1  0
 14 13  2  0
 14 15  1  0
 15 16  2  0
 16 17  1  0
 18 17  2  0
  1 19  1  1
  2 20  1  0
  2 21  1  0
  3 22  1  1
  5 23  1  0
  6 24  1  0
  8 25  1  0
  9 26  1  0
 10 27  1  0
 11 28  1  0
 14 29  1  0
 15 30  1  0
 17 31  1  0
M  ISO  8  19  13  20  13  21  13  22  13  23  14  24   9  25  14  26  14
M  ISO  5  27  14  28  14  29  14  30  14  31  14
M  END
>  <minimizedAffinity>  (1) 
-5.20683384

>  <minimizedRMSD>  (1) 
3.05941987

$$$$
