
     RDKit          3D

 52 54  0  0  1  0  0  0  0  0999 V2000
   46.0200   34.9930   41.4160 C   0  0  0  0  0  0  0  0  0  0  0  0
   46.6590   34.1400   40.5380 N   0  0  0  0  0  0  0  0  0  0  0  0
   46.0320   32.9470   40.3580 C   0  0  0  0  0  0  0  0  0  0  0  0
   46.7980   31.7000   40.7520 C   0  0  0  0  0  0  0  0  0  0  0  0
   47.9790   31.8520   41.5900 C   0  0  0  0  0  0  0  0  0  0  0  0
   48.3630   33.2670   41.9000 C   0  0  0  0  0  0  0  0  0  0  0  0
   48.0560   34.0870   40.6820 C   0  0  2  0  0  0  0  0  0  0  0  0
   48.6770   35.4260   40.8790 C   0  0  0  0  0  0  0  0  0  0  0  0
   49.5270   35.5480   42.1060 C   0  0  0  0  0  0  0  0  0  0  0  0
   44.7730   34.5370   42.0070 C   0  0  1  0  0  0  0  0  0  0  0  0
   44.4660   35.4980   44.3460 C   0  0  0  0  0  0  0  0  0  0  0  0
   44.8880   34.4660   43.4630 C   0  0  0  0  0  0  0  0  0  0  0  0
   45.4370   33.3140   44.0280 C   0  0  0  0  0  0  0  0  0  0  0  0
   45.5450   33.2230   45.3670 N   0  0  0  0  0  0  0  0  0  0  0  0
   45.1330   34.2220   46.1800 C   0  0  0  0  0  0  0  0  0  0  0  0
   44.5860   35.3790   45.6620 N   0  0  0  0  0  0  0  0  0  0  0  0
   43.6260   35.4160   41.6010 C   0  0  0  0  0  0  0  0  0  0  0  0
   42.7840   34.8790   40.5600 N   0  0  0  0  0  0  0  0  0  0  0  0
   42.4480   33.4950   40.7750 C   0  0  0  0  0  0  0  0  0  0  0  0
   41.0150   33.4830   41.2980 C   0  0  0  0  0  0  0  0  0  0  0  0
   40.4170   34.5890   40.4760 C   0  0  0  0  0  0  0  0  0  0  0  0
   41.5420   35.6290   40.5770 C   0  0  0  0  0  0  0  0  0  0  0  0
   45.8056   35.9251   40.8726 H   0  0  0  0  0  0  0  0  0  0  0  0
   46.7127   35.0918   42.2648 H   0  0  0  0  0  0  0  0  0  0  0  0
   45.1045   32.9672   40.9491 H   0  0  0  0  0  0  0  0  0  0  0  0
   45.8877   32.8617   39.2709 H   0  0  0  0  0  0  0  0  0  0  0  0
   46.0982   31.0445   41.2910 H   0  0  0  0  0  0  0  0  0  0  0  0
   47.1882   31.3089   39.8008 H   0  0  0  0  0  0  0  0  0  0  0  0
   47.7898   31.3343   42.5419 H   0  0  0  0  0  0  0  0  0  0  0  0
   48.8165   31.4266   41.0176 H   0  0  0  0  0  0  0  0  0  0  0  0
   47.7825   33.6356   42.7586 H   0  0  0  0  0  0  0  0  0  0  0  0
   49.4304   33.3345   42.1573 H   0  0  0  0  0  0  0  0  0  0  0  0
   48.4656   33.6576   39.7558 H   0  0  0  0  0  0  0  0  0  0  0  0
   49.3062   35.6439   40.0034 H   0  0  0  0  0  0  0  0  0  0  0  0
   47.8474   36.1375   41.0041 H   0  0  0  0  0  0  0  0  0  0  0  0
   48.8940   35.4572   43.0010 H   0  0  0  0  0  0  0  0  0  0  0  0
   50.2832   34.7492   42.1091 H   0  0  0  0  0  0  0  0  0  0  0  0
   50.0280   36.5273   42.1091 H   0  0  0  0  0  0  0  0  0  0  0  0
   44.5678   33.5249   41.6280 H   0  0  0  0  0  0  0  0  0  0  0  0
   44.0296   36.4170   43.9278 H   0  0  0  0  0  0  0  0  0  0  0  0
   45.7781   32.4886   43.3858 H   0  0  0  0  0  0  0  0  0  0  0  0
   45.2351   34.1112   47.2696 H   0  0  0  0  0  0  0  0  0  0  0  0
   43.0006   35.5923   42.4886 H   0  0  0  0  0  0  0  0  0  0  0  0
   44.0727   36.3340   41.1916 H   0  0  0  0  0  0  0  0  0  0  0  0
   42.5142   32.9350   39.8305 H   0  0  0  0  0  0  0  0  0  0  0  0
   43.1392   33.0199   41.4867 H   0  0  0  0  0  0  0  0  0  0  0  0
   40.5199   32.5198   41.1051 H   0  0  0  0  0  0  0  0  0  0  0  0
   40.9219   33.6172   42.3858 H   0  0  0  0  0  0  0  0  0  0  0  0
   39.4772   34.9597   40.9112 H   0  0  0  0  0  0  0  0  0  0  0  0
   40.1360   34.3064   39.4507 H   0  0  0  0  0  0  0  0  0  0  0  0
   41.4526   36.1988   41.5137 H   0  0  0  0  0  0  0  0  0  0  0  0
   41.4971   36.3521   39.7493 H   0  0  0  0  0  0  0  0  0  0  0  0
  1 10  1  0
  2  7  1  0
  2  1  1  0
  3  2  1  0
  3  4  1  0
  4  5  1  0
  5  6  1  0
  7  8  1  0
  7  6  1  0
  8  9  1  0
 10 12  1  0
 11 16  2  0
 12 13  2  0
 12 11  1  0
 13 14  1  0
 14 15  2  0
 16 15  1  0
 17 10  1  0
 18 22  1  0
 18 19  1  0
 18 17  1  0
 19 20  1  0
 21 22  1  0
 21 20  1  0
  1 23  1  0
  1 24  1  0
  3 25  1  0
  3 26  1  0
  4 27  1  0
  4 28  1  0
  5 29  1  0
  5 30  1  0
  6 31  1  0
  6 32  1  0
  7 33  1  6
  8 34  1  0
  8 35  1  0
  9 36  1  0
  9 37  1  0
  9 38  1  0
 10 39  1  6
 11 40  1  0
 13 41  1  0
 15 42  1  0
 17 43  1  0
 17 44  1  0
 19 45  1  0
 19 46  1  0
 20 47  1  0
 20 48  1  0
 21 49  1  0
 21 50  1  0
 22 51  1  0
 22 52  1  0
M  ISO  8  23   8  24   8  25  13  26  13  27  13  28  13  29  13  30  13
M  ISO  8  31  13  32  13  33  13  34   8  35   8  36   8  37   8  38   8
M  ISO  8  39   8  40  14  41  14  42  14  43   8  44   8  45  13  46  13
M  ISO  6  47  13  48  13  49  13  50  13  51  13  52  13
M  END
>  <minimizedAffinity>  (1) 
-4.9655714

>  <minimizedRMSD>  (1) 
2.36651516

$$$$
