
     RDKit          3D

 27 29  0  0  1  0  0  0  0  0999 V2000
   45.0680   33.2100   41.8470 C   0  0  1  0  0  0  0  0  0  0  0  0
   45.2600   33.9910   40.5730 C   0  0  0  0  0  0  0  0  0  0  0  0
   46.3240   33.1480   41.0890 C   0  0  1  0  0  0  0  0  0  0  0  0
   44.9730   33.9500   43.1400 C   0  0  0  0  0  0  0  0  0  0  0  0
   45.4590   33.3040   44.3100 C   0  0  0  0  0  0  0  0  0  0  0  0
   45.3800   33.9990   45.5070 C   0  0  0  0  0  0  0  0  0  0  0  0
   44.8540   35.2400   45.5000 N   0  0  0  0  0  0  0  0  0  0  0  0
   44.3990   35.8270   44.3610 C   0  0  0  0  0  0  0  0  0  0  0  0
   44.4560   35.1870   43.1820 N   0  0  0  0  0  0  0  0  0  0  0  0
   47.5560   33.8700   41.5100 C   0  0  0  0  0  0  0  0  0  0  0  0
   47.8530   35.2050   41.2120 C   0  0  0  0  0  0  0  0  0  0  0  0
   49.0270   35.7750   41.6570 C   0  0  0  0  0  0  0  0  0  0  0  0
   49.9490   35.0800   42.4020 C   0  0  0  0  0  0  0  0  0  0  0  0
   49.7070   33.7710   42.7220 C   0  0  0  0  0  0  0  0  0  0  0  0
   48.5390   33.2270   42.2710 C   0  0  0  0  0  0  0  0  0  0  0  0
   44.3592   32.4606   42.2292 H   0  0  0  0  0  0  0  0  0  0  0  0
   45.3584   35.0861   40.6070 H   0  0  0  0  0  0  0  0  0  0  0  0
   44.7211   34.0712   39.6174 H   0  0  0  0  0  0  0  0  0  0  0  0
   46.9152   32.2869   40.7441 H   0  0  0  0  0  0  0  0  0  0  0  0
   45.8823   32.2896   44.2668 H   0  0  0  0  0  0  0  0  0  0  0  0
   45.7392   33.5469   46.4433 H   0  0  0  0  0  0  0  0  0  0  0  0
   43.9776   36.8421   44.4062 H   0  0  0  0  0  0  0  0  0  0  0  0
   47.1454   35.8031   40.6191 H   0  0  0  0  0  0  0  0  0  0  0  0
   49.2333   36.8259   41.4061 H   0  0  0  0  0  0  0  0  0  0  0  0
   50.8739   35.5713   42.7385 H   0  0  0  0  0  0  0  0  0  0  0  0
   50.4222   33.1835   43.3164 H   0  0  0  0  0  0  0  0  0  0  0  0
   48.3511   32.1752   42.5326 H   0  0  0  0  0  0  0  0  0  0  0  0
  1  4  1  0
  2  3  1  0
  2  1  1  0
  3 10  1  0
  3  1  1  0
  4  9  1  0
  4  5  2  0
  5  6  1  0
  7  6  2  0
  8  7  1  0
  9  8  2  0
 10 15  1  0
 11 10  2  0
 11 12  1  0
 12 13  2  0
 13 14  1  0
 15 14  2  0
  1 16  1  6
  2 17  1  0
  2 18  1  0
  3 19  1  6
  5 20  1  0
  6 21  1  0
  8 22  1  0
 11 23  1  0
 12 24  1  0
 13 25  1  0
 14 26  1  0
 15 27  1  0
M  ISO  8  16  13  17  13  18  13  19  13  20  14  21  14  22  14  23  14
M  ISO  4  24  14  25  14  26  14  27  14
M  END
>  <minimizedAffinity>  (1) 
-4.96019602

>  <minimizedRMSD>  (1) 
2.94536591

$$$$
