
     RDKit          3D

 24 26  0  0  1  0  0  0  0  0999 V2000
   44.9100   34.3500   42.9990 C   0  0  1  0  0  0  0  0  0  0  0  0
   45.1350   35.8450   43.0300 C   0  0  0  0  0  0  0  0  0  0  0  0
   45.8820   35.0040   42.1100 C   0  0  1  0  0  0  0  0  0  0  0  0
   45.3110   33.5430   44.1750 C   0  0  0  0  0  0  0  0  0  0  0  0
   45.5790   32.1670   43.9470 C   0  0  0  0  0  0  0  0  0  0  0  0
   45.9690   31.3580   45.0100 C   0  0  0  0  0  0  0  0  0  0  0  0
   46.0730   31.9420   46.2200 N   0  0  0  0  0  0  0  0  0  0  0  0
   45.8100   33.2610   46.4160 C   0  0  0  0  0  0  0  0  0  0  0  0
   45.4320   34.0540   45.3930 N   0  0  0  0  0  0  0  0  0  0  0  0
   47.3410   34.9350   42.3070 C   0  0  0  0  0  0  0  0  0  0  0  0
   48.4050   35.5300   41.6160 C   0  0  0  0  0  0  0  0  0  0  0  0
   49.6180   35.1740   42.1640 C   0  0  0  0  0  0  0  0  0  0  0  0
   49.2820   34.3650   43.1840 N   0  0  0  0  0  0  0  0  0  0  0  0
   47.9910   34.2220   43.2740 N   0  0  0  0  0  0  0  0  0  0  0  0
   44.0699   33.6589   42.8359 H   0  0  0  0  0  0  0  0  0  0  0  0
   44.3609   36.5273   42.6490 H   0  0  0  0  0  0  0  0  0  0  0  0
   45.3975   36.5796   43.8056 H   0  0  0  0  0  0  0  0  0  0  0  0
   46.0288   34.9348   41.0220 H   0  0  0  0  0  0  0  0  0  0  0  0
   45.4789   31.7435   42.9367 H   0  0  0  0  0  0  0  0  0  0  0  0
   46.1831   30.2883   44.8687 H   0  0  0  0  0  0  0  0  0  0  0  0
   45.9070   33.6883   47.4250 H   0  0  0  0  0  0  0  0  0  0  0  0
   48.2870   36.1954   40.7481 H   0  0  0  0  0  0  0  0  0  0  0  0
   50.6246   35.4797   41.8426 H   0  0  0  0  0  0  0  0  0  0  0  0
   49.9605   33.9150   43.8148 H   0  0  0  0  0  0  0  0  0  0  0  0
  1  2  1  0
  1  4  1  0
  3 10  1  0
  3  1  1  0
  3  2  1  0
  4  9  1  0
  5  4  2  0
  5  6  1  0
  6  7  2  0
  7  8  1  0
  9  8  2  0
 10 14  2  0
 11 12  2  0
 11 10  1  0
 12 13  1  0
 13 14  1  0
  1 15  1  6
  2 16  1  0
  2 17  1  0
  3 18  1  6
  5 19  1  0
  6 20  1  0
  8 21  1  0
 11 22  1  0
 12 23  1  0
 13 24  1  0
M  ISO  8  15  13  16  13  17  13  18  13  19  14  20  14  21  14  22  14
M  ISO  2  23  14  24   9
M  END
>  <minimizedAffinity>  (1) 
-4.63664436

>  <minimizedRMSD>  (1) 
1.2860204

$$$$
