
     RDKit          3D

 31 34  0  0  1  0  0  0  0  0999 V2000
   44.5170   34.9100   43.5380 C   0  0  1  0  0  0  0  0  0  0  0  0
   45.2350   36.2300   43.3720 C   0  0  0  0  0  0  0  0  0  0  0  0
   44.9650   35.3550   42.2160 C   0  0  1  0  0  0  0  0  0  0  0  0
   46.1610   34.8410   41.5800 N   0  0  0  0  0  0  0  0  0  0  0  0
   47.4470   35.0700   41.9310 C   0  0  0  0  0  0  0  0  0  0  0  0
   48.2940   34.4120   41.0880 N   0  0  0  0  0  0  0  0  0  0  0  0
   47.5540   33.7400   40.1710 C   0  0  0  0  0  0  0  0  0  0  0  0
   47.8600   32.9250   39.1000 C   0  0  0  0  0  0  0  0  0  0  0  0
   49.0640   32.7090   38.8580 O   0  0  0  0  0  0  0  0  0  0  0  0
   46.8550   32.4190   38.3940 N   0  0  0  0  0  0  0  0  0  0  0  0
   45.5650   32.6630   38.6720 C   0  0  0  0  0  0  0  0  0  0  0  0
   44.4920   32.1080   37.8990 N   0  0  0  0  0  0  0  0  0  0  0  0
   45.2620   33.4660   39.7270 N   0  0  0  0  0  0  0  0  0  0  0  0
   46.2410   34.0170   40.4920 C   0  0  0  0  0  0  0  0  0  0  0  0
   45.2090   33.7960   44.2580 C   0  0  0  0  0  0  0  0  0  0  0  0
   45.2280   32.5050   43.6580 C   0  0  0  0  0  0  0  0  0  0  0  0
   45.8870   31.4950   44.3400 C   0  0  0  0  0  0  0  0  0  0  0  0
   46.4710   31.7780   45.5230 N   0  0  0  0  0  0  0  0  0  0  0  0
   46.4320   33.0280   46.0690 C   0  0  0  0  0  0  0  0  0  0  0  0
   45.7950   34.0300   45.4210 N   0  0  0  0  0  0  0  0  0  0  0  0
   43.5534   34.5750   43.9495 H   0  0  0  0  0  0  0  0  0  0  0  0
   44.6872   37.1766   43.4895 H   0  0  0  0  0  0  0  0  0  0  0  0
   46.1285   36.6983   43.8105 H   0  0  0  0  0  0  0  0  0  0  0  0
   44.4256   35.4050   41.2587 H   0  0  0  0  0  0  0  0  0  0  0  0
   47.7649   35.6979   42.7764 H   0  0  0  0  0  0  0  0  0  0  0  0
   47.0767   31.8094   37.5939 H   0  0  0  0  0  0  0  0  0  0  0  0
   43.5151   32.3208   38.1467 H   0  0  0  0  0  0  0  0  0  0  0  0
   44.6983   31.4966   37.0962 H   0  0  0  0  0  0  0  0  0  0  0  0
   44.7387   32.3169   42.6910 H   0  0  0  0  0  0  0  0  0  0  0  0
   45.9334   30.4780   43.9234 H   0  0  0  0  0  0  0  0  0  0  0  0
   46.9187   33.2208   47.0364 H   0  0  0  0  0  0  0  0  0  0  0  0
  1 15  1  0
  2  1  1  0
  3  2  1  0
  3  1  1  0
  4  5  1  0
  4  3  1  0
  6  5  2  0
  7 14  2  0
  7  6  1  0
  8  7  1  0
  9  8  2  0
 10 11  1  0
 10  8  1  0
 11 13  2  0
 12 11  1  0
 13 14  1  0
 14  4  1  0
 15 20  1  0
 16 15  2  0
 16 17  1  0
 17 18  2  0
 18 19  1  0
 20 19  2  0
  1 21  1  6
  2 22  1  0
  2 23  1  0
  3 24  1  6
  5 25  1  0
 10 26  1  0
 12 27  1  0
 12 28  1  0
 16 29  1  0
 17 30  1  0
 19 31  1  0
M  ISO  8  21  13  22  13  23  13  24  13  25  14  26   9  29  14  30  14
M  ISO  1  31  14
M  END
>  <minimizedAffinity>  (1) 
-4.52935886

>  <minimizedRMSD>  (1) 
2.15755582

$$$$
