
     RDKit          3D

 24 25  0  0  1  0  0  0  0  0999 V2000
   45.7970   33.2220   43.7610 C   0  0  1  0  0  0  0  0  0  0  0  0
   45.9330   34.7210   43.6760 C   0  0  0  0  0  0  0  0  0  0  0  0
   46.8760   33.8330   42.9670 C   0  0  1  0  0  0  0  0  0  0  0  0
   46.0860   32.5520   45.0640 C   0  0  0  0  0  0  0  0  0  0  0  0
   45.8750   31.1450   45.1150 C   0  0  0  0  0  0  0  0  0  0  0  0
   46.1440   30.4700   46.2980 C   0  0  0  0  0  0  0  0  0  0  0  0
   46.5940   31.2070   47.3350 N   0  0  0  0  0  0  0  0  0  0  0  0
   46.7880   32.5450   47.2660 C   0  0  0  0  0  0  0  0  0  0  0  0
   46.5300   33.1960   46.1300 N   0  0  0  0  0  0  0  0  0  0  0  0
   48.2220   33.9590   43.5040 N   0  0  0  0  0  0  0  0  0  0  0  0
   49.2320   34.3870   42.6100 C   0  0  0  0  0  0  0  0  0  0  0  0
   49.3090   34.0320   41.3780 N   0  0  0  0  0  0  0  0  0  0  0  0
   50.2990   35.2790   42.9910 N   0  0  0  0  0  0  0  0  0  0  0  0
   48.5880   33.3880   41.0020 H   0  0  0  0  0  0  0  0  0  0  0  0
   45.0127   32.4809   43.5474 H   0  0  0  0  0  0  0  0  0  0  0  0
   45.1977   35.3112   43.1094 H   0  0  0  0  0  0  0  0  0  0  0  0
   46.0260   35.5412   44.4030 H   0  0  0  0  0  0  0  0  0  0  0  0
   47.2067   33.6306   41.9376 H   0  0  0  0  0  0  0  0  0  0  0  0
   45.5053   30.6022   44.2326 H   0  0  0  0  0  0  0  0  0  0  0  0
   45.9970   29.3834   46.3860 H   0  0  0  0  0  0  0  0  0  0  0  0
   47.1575   33.0944   48.1444 H   0  0  0  0  0  0  0  0  0  0  0  0
   48.4304   33.7464   44.4900 H   0  0  0  0  0  0  0  0  0  0  0  0
   51.0086   35.5584   42.2987 H   0  0  0  0  0  0  0  0  0  0  0  0
   50.3515   35.6367   43.9554 H   0  0  0  0  0  0  0  0  0  0  0  0
  1  4  1  0
  2  1  1  0
  3 10  1  0
  3  2  1  0
  3  1  1  0
  4  5  2  0
  4  9  1  0
  5  6  1  0
  6  7  2  0
  8  7  1  0
  9  8  2  0
 11 13  1  0
 11 10  1  0
 12 11  2  0
 14 12  1  0
  1 15  1  6
  2 16  1  0
  2 17  1  0
  3 18  1  6
  5 19  1  0
  6 20  1  0
  8 21  1  0
 10 22  1  0
 13 23  1  0
 13 24  1  0
M  ISO  7  15  13  16  13  17  13  18  13  19  14  20  14  21  14
M  END
>  <minimizedAffinity>  (1) 
-4.38561964

>  <minimizedRMSD>  (1) 
2.49745321

$$$$
