
     RDKit          3D

 32 34  0  0  1  0  0  0  0  0999 V2000
   45.3380   33.1580   43.7900 C   0  0  1  0  0  0  0  0  0  0  0  0
   45.2780   34.6500   43.5960 C   0  0  0  0  0  0  0  0  0  0  0  0
   46.0560   33.8020   42.6910 C   0  0  1  0  0  0  0  0  0  0  0  0
   46.0290   32.6220   44.9820 C   0  0  0  0  0  0  0  0  0  0  0  0
   46.5300   31.2910   44.8900 C   0  0  0  0  0  0  0  0  0  0  0  0
   47.2030   30.7520   45.9770 C   0  0  0  0  0  0  0  0  0  0  0  0
   47.3480   31.5360   47.0800 N   0  0  0  0  0  0  0  0  0  0  0  0
   46.8550   32.8020   47.1320 C   0  0  0  0  0  0  0  0  0  0  0  0
   46.2070   33.3420   46.1080 N   0  0  0  0  0  0  0  0  0  0  0  0
   47.4570   34.0810   42.6290 N   0  0  0  0  0  0  0  0  0  0  0  0
   47.6910   35.3160   41.9680 C   0  0  0  0  0  0  0  0  0  0  0  0
   49.1360   35.6760   41.8020 C   0  0  0  0  0  0  0  0  0  0  0  0
   50.0020   34.6400   42.4460 C   0  0  0  0  0  0  0  0  0  0  0  0
   49.6560   33.2670   41.9100 C   0  0  0  0  0  0  0  0  0  0  0  0
   48.1840   32.9650   42.0750 C   0  0  0  0  0  0  0  0  0  0  0  0
   44.6220   32.3249   43.8478 H   0  0  0  0  0  0  0  0  0  0  0  0
   44.3494   35.1252   43.2468 H   0  0  0  0  0  0  0  0  0  0  0  0
   45.4892   35.5307   44.2203 H   0  0  0  0  0  0  0  0  0  0  0  0
   46.0903   33.5336   41.6248 H   0  0  0  0  0  0  0  0  0  0  0  0
   46.3856   30.7011   43.9729 H   0  0  0  0  0  0  0  0  0  0  0  0
   47.6047   29.7284   45.9484 H   0  0  0  0  0  0  0  0  0  0  0  0
   46.9972   33.3945   48.0478 H   0  0  0  0  0  0  0  0  0  0  0  0
   47.2351   35.2609   40.9685 H   0  0  0  0  0  0  0  0  0  0  0  0
   47.2486   36.0965   42.6044 H   0  0  0  0  0  0  0  0  0  0  0  0
   49.3753   35.7348   40.7300 H   0  0  0  0  0  0  0  0  0  0  0  0
   49.3217   36.6485   42.2812 H   0  0  0  0  0  0  0  0  0  0  0  0
   51.0572   34.8607   42.2274 H   0  0  0  0  0  0  0  0  0  0  0  0
   49.8341   34.6552   43.5330 H   0  0  0  0  0  0  0  0  0  0  0  0
   50.2397   32.5118   42.4568 H   0  0  0  0  0  0  0  0  0  0  0  0
   49.8958   33.2440   40.8367 H   0  0  0  0  0  0  0  0  0  0  0  0
   47.7601   32.7201   41.0899 H   0  0  0  0  0  0  0  0  0  0  0  0
   48.0890   32.1203   42.7732 H   0  0  0  0  0  0  0  0  0  0  0  0
  1  4  1  0
  2  1  1  0
  3  2  1  0
  3  1  1  0
  4  9  1  0
  5  4  2  0
  5  6  1  0
  6  7  2  0
  7  8  1  0
  9  8  2  0
 10  3  1  0
 11 10  1  0
 12 11  1  0
 12 13  1  0
 14 15  1  0
 14 13  1  0
 15 10  1  0
  1 16  1  6
  2 17  1  0
  2 18  1  0
  3 19  1  6
  5 20  1  0
  6 21  1  0
  8 22  1  0
 11 23  1  0
 11 24  1  0
 12 25  1  0
 12 26  1  0
 13 27  1  0
 13 28  1  0
 14 29  1  0
 14 30  1  0
 15 31  1  0
 15 32  1  0
M  ISO  8  16  13  17  13  18  13  19  13  20  14  21  14  22  14  23  13
M  ISO  8  24  13  25  13  26  13  27  13  28  13  29  13  30  13  31  13
M  ISO  1  32  13
M  END
>  <minimizedAffinity>  (1) 
-4.28623104

>  <minimizedRMSD>  (1) 
1.9287926

$$$$
