
     RDKit          3D

 24 26  0  0  1  0  0  0  0  0999 V2000
   46.7350   34.7110   41.9670 C   0  0  1  0  0  0  0  0  0  0  0  0
   46.9080   33.3390   41.3630 C   0  0  0  0  0  0  0  0  0  0  0  0
   46.0230   34.3180   40.7440 C   0  0  1  0  0  0  0  0  0  0  0  0
   46.0350   34.8280   43.2680 C   0  0  0  0  0  0  0  0  0  0  0  0
   45.2280   35.9800   43.4810 C   0  0  0  0  0  0  0  0  0  0  0  0
   44.5440   36.1240   44.6800 C   0  0  0  0  0  0  0  0  0  0  0  0
   44.6780   35.1500   45.6030 N   0  0  0  0  0  0  0  0  0  0  0  0
   45.4570   34.0610   45.3710 C   0  0  0  0  0  0  0  0  0  0  0  0
   46.1250   33.9070   44.2170 N   0  0  0  0  0  0  0  0  0  0  0  0
   44.5570   34.0010   40.8920 C   0  0  0  0  0  0  0  0  0  0  0  0
   43.4650   34.7950   40.5450 C   0  0  0  0  0  0  0  0  0  0  0  0
   42.3020   34.1220   40.8500 C   0  0  0  0  0  0  0  0  0  0  0  0
   42.7400   32.9190   41.3830 C   0  0  0  0  0  0  0  0  0  0  0  0
   44.0430   32.9040   41.3830 O   0  0  0  0  0  0  0  0  0  0  0  0
   47.3837   35.5563   42.2404 H   0  0  0  0  0  0  0  0  0  0  0  0
   47.8557   33.0660   40.8758 H   0  0  0  0  0  0  0  0  0  0  0  0
   46.7997   32.3060   41.7252 H   0  0  0  0  0  0  0  0  0  0  0  0
   45.9352   34.7706   39.7453 H   0  0  0  0  0  0  0  0  0  0  0  0
   45.1467   36.7512   42.7009 H   0  0  0  0  0  0  0  0  0  0  0  0
   43.9128   37.0044   44.8713 H   0  0  0  0  0  0  0  0  0  0  0  0
   45.5422   33.2869   46.1478 H   0  0  0  0  0  0  0  0  0  0  0  0
   43.5226   35.7988   40.0988 H   0  0  0  0  0  0  0  0  0  0  0  0
   41.2656   34.4607   40.7044 H   0  0  0  0  0  0  0  0  0  0  0  0
   42.0920   32.1081   41.7471 H   0  0  0  0  0  0  0  0  0  0  0  0
  1  4  1  0
  2  1  1  0
  3 10  1  0
  3  2  1  0
  3  1  1  0
  4  5  2  0
  4  9  1  0
  5  6  1  0
  6  7  2  0
  8  7  1  0
  9  8  2  0
 10 14  1  0
 11 12  1  0
 11 10  2  0
 12 13  2  0
 14 13  1  0
  1 15  1  6
  2 16  1  0
  2 17  1  0
  3 18  1  6
  5 19  1  0
  6 20  1  0
  8 21  1  0
 11 22  1  0
 12 23  1  0
 13 24  1  0
M  ISO  8  15  13  16  13  17  13  18  13  19  14  20  14  21  14  22  14
M  ISO  2  23  14  24  14
M  END
>  <minimizedAffinity>  (1) 
-4.22914219

>  <minimizedRMSD>  (1) 
4.21220827

$$$$
