
     RDKit          3D

 31 33  0  0  1  0  0  0  0  0999 V2000
   44.5270   35.0210   43.6030 C   0  0  1  0  0  0  0  0  0  0  0  0
   45.1450   36.2600   42.9830 C   0  0  0  0  0  0  0  0  0  0  0  0
   44.6810   35.1590   42.1480 C   0  0  2  0  0  0  0  0  0  0  0  0
   45.4060   34.1270   44.3950 C   0  0  0  0  0  0  0  0  0  0  0  0
   46.3630   33.3320   43.6990 C   0  0  0  0  0  0  0  0  0  0  0  0
   47.2060   32.4910   44.4190 C   0  0  0  0  0  0  0  0  0  0  0  0
   47.0690   32.4700   45.7780 N   0  0  0  0  0  0  0  0  0  0  0  0
   46.1400   33.2470   46.4060 C   0  0  0  0  0  0  0  0  0  0  0  0
   45.3230   34.0620   45.7170 N   0  0  0  0  0  0  0  0  0  0  0  0
   43.5590   35.3940   41.2790 N   0  0  0  0  0  0  0  0  0  0  0  0
   43.6260   34.5980   40.1230 C   0  0  0  0  0  0  0  0  0  0  0  0
   42.4950   34.7810   39.1520 C   0  0  0  0  0  0  0  0  0  0  0  0
   41.3260   35.3790   39.7570 N   0  0  0  0  0  0  0  0  0  0  0  0
   41.1350   35.0280   41.1410 C   0  0  0  0  0  0  0  0  0  0  0  0
   42.3170   35.5710   41.9060 C   0  0  0  0  0  0  0  0  0  0  0  0
   43.6809   34.7853   44.2652 H   0  0  0  0  0  0  0  0  0  0  0  0
   44.5978   37.2142   42.9930 H   0  0  0  0  0  0  0  0  0  0  0  0
   46.0925   36.8058   43.1031 H   0  0  0  0  0  0  0  0  0  0  0  0
   45.1306   34.5043   41.3869 H   0  0  0  0  0  0  0  0  0  0  0  0
   46.4344   33.3829   42.6025 H   0  0  0  0  0  0  0  0  0  0  0  0
   47.9557   31.8657   43.9121 H   0  0  0  0  0  0  0  0  0  0  0  0
   46.0577   33.2055   47.5021 H   0  0  0  0  0  0  0  0  0  0  0  0
   44.5644   34.8356   39.6006 H   0  0  0  0  0  0  0  0  0  0  0  0
   43.5657   33.5551   40.4676 H   0  0  0  0  0  0  0  0  0  0  0  0
   42.2165   33.7966   38.7479 H   0  0  0  0  0  0  0  0  0  0  0  0
   42.8442   35.4632   38.3629 H   0  0  0  0  0  0  0  0  0  0  0  0
   41.4165   36.4030   39.6926 H   0  0  0  0  0  0  0  0  0  0  0  0
   40.2038   35.4758   41.5184 H   0  0  0  0  0  0  0  0  0  0  0  0
   41.0601   33.9371   41.2605 H   0  0  0  0  0  0  0  0  0  0  0  0
   42.3526   35.0665   42.8828 H   0  0  0  0  0  0  0  0  0  0  0  0
   42.1622   36.6574   41.9819 H   0  0  0  0  0  0  0  0  0  0  0  0
  1  4  1  0
  2  1  1  0
  3  2  1  0
  3  1  1  0
  4  9  1  0
  5  4  2  0
  5  6  1  0
  6  7  2  0
  7  8  1  0
  9  8  2  0
 10 15  1  0
 10  3  1  0
 11 10  1  0
 12 13  1  0
 12 11  1  0
 13 14  1  0
 14 15  1  0
  1 16  1  6
  2 17  1  0
  2 18  1  0
  3 19  1  6
  5 20  1  0
  6 21  1  0
  8 22  1  0
 11 23  1  0
 11 24  1  0
 12 25  1  0
 12 26  1  0
 13 27  1  0
 14 28  1  0
 14 29  1  0
 15 30  1  0
 15 31  1  0
M  ISO  8  16  13  17  13  18  13  19  13  20  14  21  14  22  14  23  13
M  ISO  8  24  13  25  13  26  13  27   5  28  13  29  13  30  13  31  13
M  END
>  <minimizedAffinity>  (1) 
-4.07897997

>  <minimizedRMSD>  (1) 
1.89595425

$$$$
