
     RDKit          3D

 23 25  0  0  1  0  0  0  0  0999 V2000
   44.5770   35.0030   43.7470 C   0  0  1  0  0  0  0  0  0  0  0  0
   45.2050   36.2650   43.2000 C   0  0  0  0  0  0  0  0  0  0  0  0
   44.8170   35.1830   42.3080 C   0  0  2  0  0  0  0  0  0  0  0  0
   45.4220   34.0880   44.5470 C   0  0  0  0  0  0  0  0  0  0  0  0
   46.3720   33.2880   43.8640 C   0  0  0  0  0  0  0  0  0  0  0  0
   47.1970   32.4220   44.5710 C   0  0  0  0  0  0  0  0  0  0  0  0
   47.0400   32.3910   45.9250 N   0  0  0  0  0  0  0  0  0  0  0  0
   46.1140   33.1750   46.5500 C   0  0  0  0  0  0  0  0  0  0  0  0
   45.3250   34.0040   45.8690 N   0  0  0  0  0  0  0  0  0  0  0  0
   43.6120   35.1690   41.5090 N   0  0  0  0  0  0  0  0  0  0  0  0
   43.7060   34.5620   40.2900 C   0  0  0  0  0  0  0  0  0  0  0  0
   42.5140   34.6320   39.6740 N   0  0  0  0  0  0  0  0  0  0  0  0
   41.6960   35.2780   40.5100 C   0  0  0  0  0  0  0  0  0  0  0  0
   42.3890   35.5930   41.6190 N   0  0  0  0  0  0  0  0  0  0  0  0
   43.6996   34.7442   44.3579 H   0  0  0  0  0  0  0  0  0  0  0  0
   44.6393   37.2084   43.2018 H   0  0  0  0  0  0  0  0  0  0  0  0
   46.1325   36.8238   43.3936 H   0  0  0  0  0  0  0  0  0  0  0  0
   45.3866   34.7058   41.4969 H   0  0  0  0  0  0  0  0  0  0  0  0
   46.4565   33.3531   42.7692 H   0  0  0  0  0  0  0  0  0  0  0  0
   47.9413   31.7915   44.0626 H   0  0  0  0  0  0  0  0  0  0  0  0
   46.0169   33.1207   47.6444 H   0  0  0  0  0  0  0  0  0  0  0  0
   44.6112   34.0916   39.8785 H   0  0  0  0  0  0  0  0  0  0  0  0
   40.6375   35.5121   40.3234 H   0  0  0  0  0  0  0  0  0  0  0  0
  1  4  1  0
  2  1  1  0
  3  2  1  0
  3  1  1  0
  4  9  1  0
  5  4  2  0
  5  6  1  0
  6  7  2  0
  7  8  1  0
  9  8  2  0
 10 14  1  0
 10  3  1  0
 11 10  1  0
 12 11  2  0
 12 13  1  0
 13 14  2  0
  1 15  1  6
  2 16  1  0
  2 17  1  0
  3 18  1  6
  5 19  1  0
  6 20  1  0
  8 21  1  0
 11 22  1  0
 13 23  1  0
M  ISO  8  15  13  16  13  17  13  18  13  19  14  20  14  21  14  22  14
M  ISO  1  23  14
M  END
>  <minimizedAffinity>  (1) 
-3.95369148

>  <minimizedRMSD>  (1) 
1.22187066

$$$$
