
     RDKit          3D

 24 26  0  0  1  0  0  0  0  0999 V2000
   45.5570   34.1780   42.9150 C   0  0  1  0  0  0  0  0  0  0  0  0
   45.5960   35.6920   42.8810 C   0  0  0  0  0  0  0  0  0  0  0  0
   46.5390   34.8860   42.0970 C   0  0  1  0  0  0  0  0  0  0  0  0
   45.9120   33.4880   44.1770 C   0  0  0  0  0  0  0  0  0  0  0  0
   46.7410   32.3360   44.0980 C   0  0  0  0  0  0  0  0  0  0  0  0
   47.1050   31.6750   45.2550 C   0  0  0  0  0  0  0  0  0  0  0  0
   46.6450   32.1700   46.4210 N   0  0  0  0  0  0  0  0  0  0  0  0
   45.8610   33.2590   46.4790 C   0  0  0  0  0  0  0  0  0  0  0  0
   45.4960   33.9170   45.3580 N   0  0  0  0  0  0  0  0  0  0  0  0
   47.9900   35.0640   42.4560 C   0  0  0  0  0  0  0  0  0  0  0  0
   48.8600   35.6530   41.3050 C   0  0  0  0  0  0  0  0  0  0  0  0
   48.9980   34.2240   41.6970 C   0  0  0  0  0  0  0  0  0  0  0  0
   44.8257   33.3837   42.7047 H   0  0  0  0  0  0  0  0  0  0  0  0
   44.7968   36.2553   42.3771 H   0  0  0  0  0  0  0  0  0  0  0  0
   45.6807   36.4928   43.6303 H   0  0  0  0  0  0  0  0  0  0  0  0
   46.8166   34.7413   41.0425 H   0  0  0  0  0  0  0  0  0  0  0  0
   47.0909   31.9727   43.1204 H   0  0  0  0  0  0  0  0  0  0  0  0
   47.7446   30.7806   45.2258 H   0  0  0  0  0  0  0  0  0  0  0  0
   45.5102   33.6210   47.4567 H   0  0  0  0  0  0  0  0  0  0  0  0
   47.8034   35.2758   43.5192 H   0  0  0  0  0  0  0  0  0  0  0  0
   49.6651   36.3671   41.5329 H   0  0  0  0  0  0  0  0  0  0  0  0
   48.6532   36.1879   40.3663 H   0  0  0  0  0  0  0  0  0  0  0  0
   48.6447   33.4371   41.0143 H   0  0  0  0  0  0  0  0  0  0  0  0
   49.8480   33.5945   41.9990 H   0  0  0  0  0  0  0  0  0  0  0  0
  1  4  1  0
  2  1  1  0
  3 10  1  0
  3  2  1  0
  3  1  1  0
  4  9  1  0
  5  4  2  0
  5  6  1  0
  6  7  2  0
  7  8  1  0
  9  8  2  0
 11 12  1  0
 11 10  1  0
 12 10  1  0
  1 13  1  6
  2 14  1  0
  2 15  1  0
  3 16  1  6
  5 17  1  0
  6 18  1  0
  8 19  1  0
 10 20  1  0
 11 21  1  0
 11 22  1  0
 12 23  1  0
 12 24  1  0
M  ISO  8  13  13  14  13  15  13  16  13  17  14  18  14  19  14  20  13
M  ISO  4  21  13  22  13  23  13  24  13
M  END
>  <minimizedAffinity>  (1) 
-3.87390494

>  <minimizedRMSD>  (1) 
1.38220561

$$$$
