
     RDKit          3D

 24 26  0  0  1  0  0  0  0  0999 V2000
   45.6210   33.1570   41.8540 C   0  0  1  0  0  0  0  0  0  0  0  0
   45.6470   34.2630   40.8190 C   0  0  0  0  0  0  0  0  0  0  0  0
   46.8140   33.3890   41.0290 C   0  0  1  0  0  0  0  0  0  0  0  0
   45.5550   33.5170   43.2830 C   0  0  0  0  0  0  0  0  0  0  0  0
   46.0820   32.5780   44.1870 C   0  0  0  0  0  0  0  0  0  0  0  0
   46.0260   32.8600   45.5660 C   0  0  0  0  0  0  0  0  0  0  0  0
   45.4570   34.0380   45.9400 N   0  0  0  0  0  0  0  0  0  0  0  0
   44.9570   34.9200   45.0250 C   0  0  0  0  0  0  0  0  0  0  0  0
   45.0110   34.6510   43.6980 N   0  0  0  0  0  0  0  0  0  0  0  0
   47.9950   34.0190   41.5640 N   0  0  0  0  0  0  0  0  0  0  0  0
   49.0810   33.3920   42.0950 C   0  0  0  0  0  0  0  0  0  0  0  0
   50.0160   34.3170   42.5050 C   0  0  0  0  0  0  0  0  0  0  0  0
   49.5080   35.5300   42.2280 N   0  0  0  0  0  0  0  0  0  0  0  0
   48.3090   35.3420   41.6700 C   0  0  0  0  0  0  0  0  0  0  0  0
   45.0066   32.2705   42.0702 H   0  0  0  0  0  0  0  0  0  0  0  0
   45.6805   35.3160   41.1354 H   0  0  0  0  0  0  0  0  0  0  0  0
   45.0240   34.5462   39.9578 H   0  0  0  0  0  0  0  0  0  0  0  0
   47.4244   32.7107   40.4147 H   0  0  0  0  0  0  0  0  0  0  0  0
   46.5296   31.6409   43.8243 H   0  0  0  0  0  0  0  0  0  0  0  0
   46.4262   32.1561   46.3106 H   0  0  0  0  0  0  0  0  0  0  0  0
   44.5044   35.8614   45.3699 H   0  0  0  0  0  0  0  0  0  0  0  0
   49.1954   32.3016   42.1839 H   0  0  0  0  0  0  0  0  0  0  0  0
   50.9901   34.1039   42.9694 H   0  0  0  0  0  0  0  0  0  0  0  0
   47.6521   36.1583   41.3353 H   0  0  0  0  0  0  0  0  0  0  0  0
  1  4  1  0
  2  3  1  0
  2  1  1  0
  3 10  1  0
  3  1  1  0
  4  9  1  0
  4  5  2  0
  5  6  1  0
  6  7  2  0
  8  7  1  0
  9  8  2  0
 10 14  1  0
 10 11  1  0
 11 12  2  0
 13 12  1  0
 14 13  2  0
  1 15  1  6
  2 16  1  0
  2 17  1  0
  3 18  1  6
  5 19  1  0
  6 20  1  0
  8 21  1  0
 11 22  1  0
 12 23  1  0
 14 24  1  0
M  ISO  8  15  13  16  13  17  13  18  13  19  14  20  14  21  14  22  14
M  ISO  2  23  14  24  14
M  END
>  <minimizedAffinity>  (1) 
-3.78921103

>  <minimizedRMSD>  (1) 
2.45490813

$$$$
