
     RDKit          3D

 20 21  0  0  1  0  0  0  0  0999 V2000
   44.5650   34.8850   43.7980 C   0  0  1  0  0  0  0  0  0  0  0  0
   45.2180   36.0200   43.0390 C   0  0  0  0  0  0  0  0  0  0  0  0
   44.6260   34.8810   42.3280 C   0  0  2  0  0  0  0  0  0  0  0  0
   45.4550   33.9630   44.5800 C   0  0  0  0  0  0  0  0  0  0  0  0
   46.3650   33.1370   43.8600 C   0  0  0  0  0  0  0  0  0  0  0  0
   47.1840   32.3020   44.6080 C   0  0  0  0  0  0  0  0  0  0  0  0
   47.0920   32.3060   45.9540 N   0  0  0  0  0  0  0  0  0  0  0  0
   46.2010   33.1180   46.5950 C   0  0  0  0  0  0  0  0  0  0  0  0
   45.3940   33.9350   45.9230 N   0  0  0  0  0  0  0  0  0  0  0  0
   43.3460   35.0640   41.5270 C   0  0  0  0  0  0  0  0  0  0  0  0
   42.3410   35.5620   42.3190 F   0  0  0  0  0  0  0  0  0  0  0  0
   43.5360   35.8640   40.4390 F   0  0  0  0  0  0  0  0  0  0  0  0
   43.0190   33.7950   41.0570 F   0  0  0  0  0  0  0  0  0  0  0  0
   43.7586   34.7843   44.5393 H   0  0  0  0  0  0  0  0  0  0  0  0
   44.7352   37.0076   42.9990 H   0  0  0  0  0  0  0  0  0  0  0  0
   46.2044   36.5066   43.0541 H   0  0  0  0  0  0  0  0  0  0  0  0
   45.0033   34.1735   41.5750 H   0  0  0  0  0  0  0  0  0  0  0  0
   46.4165   33.1596   42.7614 H   0  0  0  0  0  0  0  0  0  0  0  0
   47.9047   31.6401   44.1055 H   0  0  0  0  0  0  0  0  0  0  0  0
   46.1491   33.0962   47.6936 H   0  0  0  0  0  0  0  0  0  0  0  0
  1  4  1  0
  2  1  1  0
  3  2  1  0
  3  1  1  0
  4  9  1  0
  5  4  2  0
  5  6  1  0
  6  7  2  0
  7  8  1  0
  9  8  2  0
 10 11  1  0
 10  3  1  0
 12 10  1  0
 13 10  1  0
  1 14  1  6
  2 15  1  0
  2 16  1  0
  3 17  1  6
  5 18  1  0
  6 19  1  0
  8 20  1  0
M  ISO  7  14  13  15  13  16  13  17  13  18  14  19  14  20  14
M  END
>  <minimizedAffinity>  (1) 
-3.71289349

>  <minimizedRMSD>  (1) 
1.18298531

$$$$
