
     RDKit          3D

 34 37  0  0  1  0  0  0  0  0999 V2000
   44.7700   34.5550   43.1920 C   0  0  1  0  0  0  0  0  0  0  0  0
   45.4920   35.8350   42.9500 C   0  0  0  0  0  0  0  0  0  0  0  0
   45.4070   34.8490   41.8820 C   0  0  1  0  0  0  0  0  0  0  0  0
   45.3620   33.5430   44.1130 C   0  0  0  0  0  0  0  0  0  0  0  0
   45.2700   32.1920   43.7170 C   0  0  0  0  0  0  0  0  0  0  0  0
   45.7920   31.2170   44.5340 C   0  0  0  0  0  0  0  0  0  0  0  0
   46.3770   31.6010   45.6970 N   0  0  0  0  0  0  0  0  0  0  0  0
   46.4540   32.9070   46.0570 C   0  0  0  0  0  0  0  0  0  0  0  0
   45.9490   33.8700   45.2690 N   0  0  0  0  0  0  0  0  0  0  0  0
   46.9100   33.9350   41.4980 S   0  0  0  0  0  0  0  0  0  0  0  0
   47.2720   33.9630   39.7470 C   0  0  0  0  0  0  0  0  0  0  0  0
   48.3450   34.6410   39.2210 C   0  0  0  0  0  0  0  0  0  0  0  0
   48.5120   34.5820   37.8510 C   0  0  0  0  0  0  0  0  0  0  0  0
   47.6360   33.8710   37.0300 C   0  0  0  0  0  0  0  0  0  0  0  0
   46.5740   33.2050   37.5940 C   0  0  0  0  0  0  0  0  0  0  0  0
   45.7140   32.5040   36.7650 C   0  0  0  0  0  0  0  0  0  0  0  0
   44.6480   31.8370   37.3300 C   0  0  0  0  0  0  0  0  0  0  0  0
   44.4180   31.8490   38.6880 C   0  0  0  0  0  0  0  0  0  0  0  0
   45.2910   32.5560   39.4880 C   0  0  0  0  0  0  0  0  0  0  0  0
   46.3720   33.2420   38.9720 C   0  0  0  0  0  0  0  0  0  0  0  0
   43.7613   34.2637   43.5201 H   0  0  0  0  0  0  0  0  0  0  0  0
   44.9283   36.7765   42.8733 H   0  0  0  0  0  0  0  0  0  0  0  0
   46.3155   36.3660   43.4499 H   0  0  0  0  0  0  0  0  0  0  0  0
   45.0611   34.8701   40.8380 H   0  0  0  0  0  0  0  0  0  0  0  0
   44.7867   31.9220   42.7665 H   0  0  0  0  0  0  0  0  0  0  0  0
   45.7370   30.1550   44.2528 H   0  0  0  0  0  0  0  0  0  0  0  0
   46.9365   33.1805   47.0069 H   0  0  0  0  0  0  0  0  0  0  0  0
   49.0392   35.2049   39.8614 H   0  0  0  0  0  0  0  0  0  0  0  0
   49.3609   35.1113   37.3937 H   0  0  0  0  0  0  0  0  0  0  0  0
   47.7938   33.8437   35.9417 H   0  0  0  0  0  0  0  0  0  0  0  0
   45.8783   32.4800   35.6776 H   0  0  0  0  0  0  0  0  0  0  0  0
   43.9609   31.2788   36.6771 H   0  0  0  0  0  0  0  0  0  0  0  0
   43.5627   31.3102   39.1219 H   0  0  0  0  0  0  0  0  0  0  0  0
   45.1200   32.5739   40.5745 H   0  0  0  0  0  0  0  0  0  0  0  0
  1  4  1  0
  2  1  1  0
  3  2  1  0
  3  1  1  0
  4  9  1  0
  5  4  2  0
  5  6  1  0
  6  7  2  0
  7  8  1  0
  9  8  2  0
 10  3  1  0
 11 10  1  0
 12 11  2  0
 13 12  1  0
 14 15  1  0
 14 13  2  0
 15 20  2  0
 16 17  2  0
 16 15  1  0
 17 18  1  0
 18 19  2  0
 20 19  1  0
 20 11  1  0
  1 21  1  6
  2 22  1  0
  2 23  1  0
  3 24  1  6
  5 25  1  0
  6 26  1  0
  8 27  1  0
 12 28  1  0
 13 29  1  0
 14 30  1  0
 16 31  1  0
 17 32  1  0
 18 33  1  0
 19 34  1  0
M  ISO  8  21  13  22  13  23  13  24  13  25  14  26  14  27  14  28  14
M  ISO  6  29  14  30  14  31  14  32  14  33  14  34  14
M  END
>  <minimizedAffinity>  (1) 
-4.53887033

>  <minimizedRMSD>  (1) 
2.42225122

$$$$
