
     RDKit          3D

 25 27  0  0  1  0  0  0  0  0999 V2000
   45.7780   34.9990   43.5380 C   0  0  1  0  0  0  0  0  0  0  0  0
   45.0190   36.1800   43.0350 C   0  0  0  0  0  0  0  0  0  0  0  0
   44.4760   34.8440   42.8430 C   0  0  1  0  0  0  0  0  0  0  0  0
   47.0510   34.6110   42.8680 C   0  0  0  0  0  0  0  0  0  0  0  0
   47.6140   33.3720   43.2330 C   0  0  0  0  0  0  0  0  0  0  0  0
   48.7960   32.9750   42.6500 C   0  0  0  0  0  0  0  0  0  0  0  0
   49.3700   33.8040   41.7420 N   0  0  0  0  0  0  0  0  0  0  0  0
   48.8130   34.9880   41.4070 C   0  0  0  0  0  0  0  0  0  0  0  0
   47.6590   35.3910   41.9660 N   0  0  0  0  0  0  0  0  0  0  0  0
   44.5360   34.1550   41.1810 S   0  0  0  0  0  0  0  0  0  0  0  0
   42.8980   34.4080   40.4430 C   0  0  0  0  0  0  0  0  0  0  0  0
   42.5870   35.1770   39.4090 C   0  0  0  0  0  0  0  0  0  0  0  0
   41.3080   35.2650   38.9680 C   0  0  0  0  0  0  0  0  0  0  0  0
   40.3640   34.4910   39.6840 C   0  0  0  0  0  0  0  0  0  0  0  0
   41.4130   33.6350   41.0160 S   0  0  0  0  0  0  0  0  0  0  0  0
   46.1876   34.6702   44.5045 H   0  0  0  0  0  0  0  0  0  0  0  0
   44.5415   36.8692   43.7470 H   0  0  0  0  0  0  0  0  0  0  0  0
   45.2516   37.0249   42.3702 H   0  0  0  0  0  0  0  0  0  0  0  0
   43.5156   34.3652   43.0846 H   0  0  0  0  0  0  0  0  0  0  0  0
   47.1154   32.7303   43.9743 H   0  0  0  0  0  0  0  0  0  0  0  0
   49.2617   32.0137   42.9125 H   0  0  0  0  0  0  0  0  0  0  0  0
   49.3107   35.6313   40.6664 H   0  0  0  0  0  0  0  0  0  0  0  0
   43.3768   35.7511   38.9023 H   0  0  0  0  0  0  0  0  0  0  0  0
   41.0235   35.8949   38.1123 H   0  0  0  0  0  0  0  0  0  0  0  0
   39.2811   34.4056   39.5105 H   0  0  0  0  0  0  0  0  0  0  0  0
  2  1  1  0
  3  2  1  0
  3  1  1  0
  4  5  2  0
  4  1  1  0
  6  5  1  0
  7  6  2  0
  8  7  1  0
  8  9  2  0
  9  4  1  0
 10  3  1  0
 11 15  1  0
 11 10  1  0
 12 11  2  0
 13 12  1  0
 13 14  2  0
 14 15  1  0
  1 16  1  1
  2 17  1  0
  2 18  1  0
  3 19  1  1
  5 20  1  0
  6 21  1  0
  8 22  1  0
 12 23  1  0
 13 24  1  0
 14 25  1  0
M  ISO  8  16  13  17  13  18  13  19  13  20  14  21  14  22  14  23  14
M  ISO  2  24  14  25  14
M  END
>  <minimizedAffinity>  (1) 
-4.14129686

>  <minimizedRMSD>  (1) 
5.07475853

$$$$
