
     RDKit          3D

 25 27  0  0  1  0  0  0  0  0999 V2000
   44.6430   34.7180   43.5670 C   0  0  1  0  0  0  0  0  0  0  0  0
   45.0190   36.1490   43.7330 C   0  0  0  0  0  0  0  0  0  0  0  0
   45.4340   35.4320   42.5330 C   0  0  1  0  0  0  0  0  0  0  0  0
   45.2860   33.6750   44.4180 C   0  0  0  0  0  0  0  0  0  0  0  0
   45.4430   32.3820   43.8660 C   0  0  0  0  0  0  0  0  0  0  0  0
   46.0330   31.4140   44.6410 C   0  0  0  0  0  0  0  0  0  0  0  0
   46.4350   31.7230   45.8840 N   0  0  0  0  0  0  0  0  0  0  0  0
   46.2770   32.9590   46.3940 C   0  0  0  0  0  0  0  0  0  0  0  0
   45.7030   33.9320   45.6620 N   0  0  0  0  0  0  0  0  0  0  0  0
   47.1770   35.0000   42.4100 S   0  0  0  0  0  0  0  0  0  0  0  0
   48.6880   34.7350   38.8940 N   0  0  0  0  0  0  0  0  0  0  0  0
   48.6020   35.2420   40.1170 N   0  0  0  0  0  0  0  0  0  0  0  0
   47.6050   34.5950   40.7270 C   0  0  0  0  0  0  0  0  0  0  0  0
   47.0480   33.6650   39.8840 C   0  0  0  0  0  0  0  0  0  0  0  0
   47.7650   33.7750   38.7070 C   0  0  0  0  0  0  0  0  0  0  0  0
   43.7043   34.1447   43.5781 H   0  0  0  0  0  0  0  0  0  0  0  0
   44.2475   36.9303   43.6661 H   0  0  0  0  0  0  0  0  0  0  0  0
   45.5409   36.7281   44.5091 H   0  0  0  0  0  0  0  0  0  0  0  0
   45.3215   35.6027   41.4522 H   0  0  0  0  0  0  0  0  0  0  0  0
   45.1020   32.1582   42.8444 H   0  0  0  0  0  0  0  0  0  0  0  0
   46.1747   30.3966   44.2476 H   0  0  0  0  0  0  0  0  0  0  0  0
   46.6196   33.1754   47.4167 H   0  0  0  0  0  0  0  0  0  0  0  0
   49.3700   35.0362   38.1833 H   0  0  0  0  0  0  0  0  0  0  0  0
   46.2133   32.9815   40.0985 H   0  0  0  0  0  0  0  0  0  0  0  0
   47.6097   33.1877   37.7900 H   0  0  0  0  0  0  0  0  0  0  0  0
  1  2  1  0
  1  4  1  0
  3  1  1  0
  3  2  1  0
  4  9  1  0
  5  4  2  0
  5  6  1  0
  6  7  2  0
  7  8  1  0
  9  8  2  0
 10  3  1  0
 11 12  1  0
 12 13  2  0
 13 10  1  0
 14 13  1  0
 15 11  1  0
 15 14  2  0
  1 16  1  6
  2 17  1  0
  2 18  1  0
  3 19  1  6
  5 20  1  0
  6 21  1  0
  8 22  1  0
 11 23  1  0
 14 24  1  0
 15 25  1  0
M  ISO  8  16  13  17  13  18  13  19  13  20  14  21  14  22  14  23   9
M  ISO  2  24  14  25  14
M  END
>  <minimizedAffinity>  (1) 
-4.11840153

>  <minimizedRMSD>  (1) 
1.34458089

$$$$
