
     RDKit          3D

 25 27  0  0  1  0  0  0  0  0999 V2000
   45.2150   34.0200   43.3390 C   0  0  1  0  0  0  0  0  0  0  0  0
   45.5950   35.4800   43.2950 C   0  0  0  0  0  0  0  0  0  0  0  0
   46.2890   34.4960   42.4560 C   0  0  1  0  0  0  0  0  0  0  0  0
   45.4850   33.2540   44.5750 C   0  0  0  0  0  0  0  0  0  0  0  0
   45.7620   31.8700   44.4150 C   0  0  0  0  0  0  0  0  0  0  0  0
   46.0580   31.0940   45.5250 C   0  0  0  0  0  0  0  0  0  0  0  0
   46.0720   31.7100   46.7240 N   0  0  0  0  0  0  0  0  0  0  0  0
   45.7920   33.0210   46.8570 C   0  0  0  0  0  0  0  0  0  0  0  0
   45.5140   33.7910   45.7860 N   0  0  0  0  0  0  0  0  0  0  0  0
   47.9720   34.0940   42.9720 S   0  0  0  0  0  0  0  0  0  0  0  0
   49.2320   34.8440   41.9440 C   0  0  0  0  0  0  0  0  0  0  0  0
   49.2290   36.2630   41.5670 C   0  0  0  0  0  0  0  0  0  0  0  0
   48.6980   35.2740   40.5540 C   0  0  0  0  0  0  0  0  0  0  0  0
   44.3083   33.4182   43.1789 H   0  0  0  0  0  0  0  0  0  0  0  0
   44.9152   36.2141   42.8379 H   0  0  0  0  0  0  0  0  0  0  0  0
   45.9024   36.2316   44.0370 H   0  0  0  0  0  0  0  0  0  0  0  0
   46.4897   34.4044   41.3784 H   0  0  0  0  0  0  0  0  0  0  0  0
   45.7417   31.4154   43.4135 H   0  0  0  0  0  0  0  0  0  0  0  0
   46.2727   30.0192   45.4312 H   0  0  0  0  0  0  0  0  0  0  0  0
   45.7902   33.4724   47.8601 H   0  0  0  0  0  0  0  0  0  0  0  0
   50.0255   34.2206   42.3819 H   0  0  0  0  0  0  0  0  0  0  0  0
   48.5342   36.9552   42.0651 H   0  0  0  0  0  0  0  0  0  0  0  0
   50.0023   37.0446   41.5357 H   0  0  0  0  0  0  0  0  0  0  0  0
   47.6217   35.2275   40.3316 H   0  0  0  0  0  0  0  0  0  0  0  0
   48.9150   35.0174   39.5066 H   0  0  0  0  0  0  0  0  0  0  0  0
  1  4  1  0
  2  1  1  0
  3 10  1  0
  3  2  1  0
  3  1  1  0
  4  9  1  0
  5  4  2  0
  5  6  1  0
  6  7  2  0
  7  8  1  0
  9  8  2  0
 11 10  1  0
 12 11  1  0
 13 12  1  0
 13 11  1  0
  1 14  1  6
  2 15  1  0
  2 16  1  0
  3 17  1  6
  5 18  1  0
  6 19  1  0
  8 20  1  0
 11 21  1  0
 12 22  1  0
 12 23  1  0
 13 24  1  0
 13 25  1  0
M  ISO  8  14  13  15  13  16  13  17  13  18  14  19  14  20  14  21  13
M  ISO  4  22  13  23  13  24  13  25  13
M  END
>  <minimizedAffinity>  (1) 
-3.84794188

>  <minimizedRMSD>  (1) 
1.27772951

$$$$
