
     RDKit          3D

 31 33  0  0  1  0  0  0  0  0999 V2000
   45.6660   34.8980   43.2200 C   0  0  1  0  0  0  0  0  0  0  0  0
   44.6440   35.4770   42.3200 C   0  0  0  0  0  0  0  0  0  0  0  0
   44.5670   34.0530   42.6850 C   0  0  1  0  0  0  0  0  0  0  0  0
   47.0600   34.6830   42.7580 C   0  0  0  0  0  0  0  0  0  0  0  0
   47.8010   33.6220   43.3210 C   0  0  0  0  0  0  0  0  0  0  0  0
   49.1030   33.4170   42.9040 C   0  0  0  0  0  0  0  0  0  0  0  0
   49.6150   34.2380   41.9750 N   0  0  0  0  0  0  0  0  0  0  0  0
   48.8830   35.2490   41.4510 C   0  0  0  0  0  0  0  0  0  0  0  0
   47.6230   35.4710   41.8350 N   0  0  0  0  0  0  0  0  0  0  0  0
   44.9810   32.8950   41.3840 S   0  0  0  0  0  0  0  0  0  0  0  0
   45.2600   33.6010   39.7720 C   0  0  0  0  0  0  0  0  0  0  0  0
   46.6200   33.1590   39.2000 C   0  0  0  0  0  0  0  0  0  0  0  0
   46.3380   33.2020   37.7100 C   0  0  0  0  0  0  0  0  0  0  0  0
   45.0230   32.4200   37.6540 C   0  0  0  0  0  0  0  0  0  0  0  0
   44.2460   33.1110   38.7480 C   0  0  0  0  0  0  0  0  0  0  0  0
   46.0496   35.1498   44.2197 H   0  0  0  0  0  0  0  0  0  0  0  0
   44.9167   35.7667   41.2945 H   0  0  0  0  0  0  0  0  0  0  0  0
   43.9531   36.3309   42.3794 H   0  0  0  0  0  0  0  0  0  0  0  0
   43.8108   33.3958   43.1393 H   0  0  0  0  0  0  0  0  0  0  0  0
   47.3490   32.9675   44.0808 H   0  0  0  0  0  0  0  0  0  0  0  0
   49.7058   32.5987   43.3247 H   0  0  0  0  0  0  0  0  0  0  0  0
   49.3363   35.9029   40.6914 H   0  0  0  0  0  0  0  0  0  0  0  0
   45.1948   34.6887   39.9229 H   0  0  0  0  0  0  0  0  0  0  0  0
   47.4218   33.8584   39.4793 H   0  0  0  0  0  0  0  0  0  0  0  0
   46.9691   32.1824   39.5664 H   0  0  0  0  0  0  0  0  0  0  0  0
   46.2129   34.2338   37.3497 H   0  0  0  0  0  0  0  0  0  0  0  0
   47.1415   32.7947   37.0788 H   0  0  0  0  0  0  0  0  0  0  0  0
   44.5293   32.5250   36.6766 H   0  0  0  0  0  0  0  0  0  0  0  0
   45.1300   31.3329   37.7839 H   0  0  0  0  0  0  0  0  0  0  0  0
   43.6858   33.9622   38.3338 H   0  0  0  0  0  0  0  0  0  0  0  0
   43.5221   32.4235   39.2100 H   0  0  0  0  0  0  0  0  0  0  0  0
  2  3  1  0
  2  1  1  0
  3  1  1  0
  4  1  1  0
  4  5  2  0
  6  5  1  0
  7  6  2  0
  8  9  2  0
  8  7  1  0
  9  4  1  0
 10  3  1  0
 11 10  1  0
 12 11  1  0
 13 12  1  0
 14 13  1  0
 14 15  1  0
 15 11  1  0
  1 16  1  1
  2 17  1  0
  2 18  1  0
  3 19  1  1
  5 20  1  0
  6 21  1  0
  8 22  1  0
 11 23  1  0
 12 24  1  0
 12 25  1  0
 13 26  1  0
 13 27  1  0
 14 28  1  0
 14 29  1  0
 15 30  1  0
 15 31  1  0
M  ISO  8  16  13  17  13  18  13  19  13  20  14  21  14  22  14  23  13
M  ISO  8  24  13  25  13  26  13  27  13  28  13  29  13  30  13  31  13
M  END
>  <minimizedAffinity>  (1) 
-3.3743968

>  <minimizedRMSD>  (1) 
5.13216257

$$$$
