
     RDKit          3D

 28 29  0  0  1  0  0  0  0  0999 V2000
   45.0930   33.9090   43.5100 C   0  0  1  0  0  0  0  0  0  0  0  0
   45.6290   35.2820   43.2960 C   0  0  0  0  0  0  0  0  0  0  0  0
   46.0180   34.2080   42.3910 C   0  0  1  0  0  0  0  0  0  0  0  0
   45.5530   33.1050   44.6800 C   0  0  0  0  0  0  0  0  0  0  0  0
   45.6190   31.7090   44.4970 C   0  0  0  0  0  0  0  0  0  0  0  0
   46.0290   30.9150   45.5450 C   0  0  0  0  0  0  0  0  0  0  0  0
   46.3520   31.5260   46.7130 N   0  0  0  0  0  0  0  0  0  0  0  0
   46.2780   32.8710   46.8560 C   0  0  0  0  0  0  0  0  0  0  0  0
   45.8820   33.6630   45.8510 N   0  0  0  0  0  0  0  0  0  0  0  0
   47.7060   33.6060   42.5510 S   0  0  0  0  0  0  0  0  0  0  0  0
   48.8590   34.4130   41.4450 C   0  0  1  0  0  0  0  0  0  0  0  0
   48.2540   34.7570   40.0950 C   0  0  0  0  0  0  0  0  0  0  0  0
   49.4860   35.6450   42.0420 C   0  0  0  0  0  0  0  0  0  0  0  0
   50.2400   35.2000   43.1380 O   0  0  0  0  0  0  0  0  0  0  0  0
   44.0941   33.4569   43.5986 H   0  0  0  0  0  0  0  0  0  0  0  0
   44.9624   36.0827   42.9432 H   0  0  0  0  0  0  0  0  0  0  0  0
   46.1738   36.0075   43.9180 H   0  0  0  0  0  0  0  0  0  0  0  0
   45.9829   34.0588   41.3017 H   0  0  0  0  0  0  0  0  0  0  0  0
   45.3468   31.2599   43.5305 H   0  0  0  0  0  0  0  0  0  0  0  0
   46.0926   29.8220   45.4389 H   0  0  0  0  0  0  0  0  0  0  0  0
   46.5497   33.3238   47.8210 H   0  0  0  0  0  0  0  0  0  0  0  0
   49.6488   33.6639   41.2866 H   0  0  0  0  0  0  0  0  0  0  0  0
   47.3066   35.2957   40.2443 H   0  0  0  0  0  0  0  0  0  0  0  0
   48.9525   35.3930   39.5315 H   0  0  0  0  0  0  0  0  0  0  0  0
   48.0647   33.8315   39.5315 H   0  0  0  0  0  0  0  0  0  0  0  0
   50.1366   36.1386   41.3051 H   0  0  0  0  0  0  0  0  0  0  0  0
   48.7249   36.3785   42.3465 H   0  0  0  0  0  0  0  0  0  0  0  0
   49.7893   35.4660   43.9784 H   0  0  0  0  0  0  0  0  0  0  0  0
  1  4  1  0
  2  1  1  0
  3 10  1  0
  3  2  1  0
  3  1  1  0
  4  9  1  0
  5  4  2  0
  5  6  1  0
  6  7  2  0
  7  8  1  0
  9  8  2  0
 11 13  1  0
 11 10  1  0
 12 11  1  0
 13 14  1  0
  1 15  1  6
  2 16  1  0
  2 17  1  0
  3 18  1  6
  5 19  1  0
  6 20  1  0
  8 21  1  0
 11 22  1  6
 12 23  1  0
 12 24  1  0
 12 25  1  0
 13 26  1  0
 13 27  1  0
 14 28  1  0
M  ISO  8  15  13  16  13  17  13  18  13  19  14  20  14  21  14  22   8
M  ISO  6  23   8  24   8  25   8  26   8  27   8  28   3
M  END
>  <minimizedAffinity>  (1) 
-4.04729748

>  <minimizedRMSD>  (1) 
0.532105207

$$$$
