
     RDKit          3D

 43 46  0  0  1  0  0  0  0  0999 V2000
   46.4430   34.2050   43.1650 C   0  0  1  0  0  0  0  0  0  0  0  0
   47.9580   34.1370   43.2640 C   0  0  0  0  0  0  0  0  0  0  0  0
   46.0220   34.1720   41.7340 C   0  0  0  0  0  0  0  0  0  0  0  0
   44.7670   34.8610   41.5060 N   0  0  0  0  0  0  0  0  0  0  0  0
   43.9210   34.3990   40.4820 C   0  0  0  0  0  0  0  0  0  0  0  0
   44.3690   33.5520   39.5400 N   0  0  0  0  0  0  0  0  0  0  0  0
   43.6180   33.0690   38.5330 C   0  0  0  0  0  0  0  0  0  0  0  0
   42.3270   33.4350   38.4260 N   0  0  0  0  0  0  0  0  0  0  0  0
   41.7610   34.2920   39.3240 C   0  0  0  0  0  0  0  0  0  0  0  0
   40.4410   34.6840   39.2390 C   0  0  0  0  0  0  0  0  0  0  0  0
   39.8930   35.5620   40.1750 C   0  0  0  0  0  0  0  0  0  0  0  0
   40.7120   36.0250   41.1870 C   0  0  0  0  0  0  0  0  0  0  0  0
   42.0250   35.6060   41.2340 C   0  0  0  0  0  0  0  0  0  0  0  0
   42.5950   34.7420   40.3260 C   0  0  0  0  0  0  0  0  0  0  0  0
   45.6080   32.9930   44.1910 S   0  0  0  0  0  0  0  0  0  0  0  0
   46.4580   30.4990   45.1530 C   0  0  1  0  0  0  0  0  0  0  0  0
   45.3100   30.2240   44.2740 C   0  0  0  0  0  0  0  0  0  0  0  0
   46.1780   31.3250   43.9300 C   0  0  1  0  0  0  0  0  0  0  0  0
   46.2510   31.0960   46.5170 C   0  0  0  0  0  0  0  0  0  0  0  0
   47.3670   31.7630   47.0450 C   0  0  0  0  0  0  0  0  0  0  0  0
   47.2380   32.3190   48.3110 C   0  0  0  0  0  0  0  0  0  0  0  0
   46.0460   32.1810   48.9530 N   0  0  0  0  0  0  0  0  0  0  0  0
   44.9970   31.5260   48.4000 C   0  0  0  0  0  0  0  0  0  0  0  0
   45.0830   30.9800   47.1850 N   0  0  0  0  0  0  0  0  0  0  0  0
   46.1192   35.1694   43.5834 H   0  0  0  0  0  0  0  0  0  0  0  0
   48.2560   34.1236   44.3228 H   0  0  0  0  0  0  0  0  0  0  0  0
   48.3170   33.2218   42.7704 H   0  0  0  0  0  0  0  0  0  0  0  0
   48.3975   35.0163   42.7704 H   0  0  0  0  0  0  0  0  0  0  0  0
   46.8029   34.6519   41.1259 H   0  0  0  0  0  0  0  0  0  0  0  0
   45.8793   33.1181   41.4529 H   0  0  0  0  0  0  0  0  0  0  0  0
   44.5005   35.6721   42.0821 H   0  0  0  0  0  0  0  0  0  0  0  0
   44.0578   32.3772   37.7996 H   0  0  0  0  0  0  0  0  0  0  0  0
   39.8121   34.2993   38.4226 H   0  0  0  0  0  0  0  0  0  0  0  0
   38.8408   35.8760   40.1092 H   0  0  0  0  0  0  0  0  0  0  0  0
   40.3215   36.7192   41.9457 H   0  0  0  0  0  0  0  0  0  0  0  0
   42.6577   35.9865   42.0494 H   0  0  0  0  0  0  0  0  0  0  0  0
   47.3061   29.9151   45.5401 H   0  0  0  0  0  0  0  0  0  0  0  0
   45.3068   29.3180   43.6503 H   0  0  0  0  0  0  0  0  0  0  0  0
   44.2267   30.1251   44.4376 H   0  0  0  0  0  0  0  0  0  0  0  0
   46.7332   31.6095   43.0240 H   0  0  0  0  0  0  0  0  0  0  0  0
   48.3066   31.8423   46.4786 H   0  0  0  0  0  0  0  0  0  0  0  0
   48.0752   32.8555   48.7813 H   0  0  0  0  0  0  0  0  0  0  0  0
   44.0559   31.4425   48.9633 H   0  0  0  0  0  0  0  0  0  0  0  0
  1  2  1  0
  1 15  1  0
  3  1  1  0
  4  3  1  0
  5  4  1  0
  6  5  2  0
  7  6  1  0
  8  7  2  0
  8  9  1  0
  9 14  2  0
 10  9  1  0
 10 11  2  0
 11 12  1  0
 12 13  2  0
 14  5  1  0
 14 13  1  0
 16 19  1  0
 17 16  1  0
 18 15  1  0
 18 17  1  0
 18 16  1  0
 19 20  2  0
 19 24  1  0
 20 21  1  0
 21 22  2  0
 23 22  1  0
 24 23  2  0
  1 25  1  1
  2 26  1  0
  2 27  1  0
  2 28  1  0
  3 29  1  0
  3 30  1  0
  4 31  1  0
  7 32  1  0
 10 33  1  0
 11 34  1  0
 12 35  1  0
 13 36  1  0
 16 37  1  1
 17 38  1  0
 17 39  1  0
 18 40  1  6
 20 41  1  0
 21 42  1  0
 23 43  1  0
M  ISO  8  25   8  26   8  27   8  28   8  29   8  30   8  32  14  33  14
M  ISO  8  34  14  35  14  36  14  37  13  38  13  39  13  40  13  41  14
M  ISO  2  42  14  43  14
M  END
>  <minimizedAffinity>  (1) 
-5.39314175

>  <minimizedRMSD>  (1) 
6.52460146

$$$$
