
     RDKit          3D

 36 38  0  0  1  0  0  0  0  0999 V2000
   45.8400   33.3410   42.4690 S   0  0  0  0  0  0  0  0  0  0  0  0
   47.2250   34.3310   40.2540 C   0  0  1  0  0  0  0  0  0  0  0  0
   46.3590   33.2560   39.7380 C   0  0  0  0  0  0  0  0  0  0  0  0
   45.8680   34.0680   40.8390 C   0  0  1  0  0  0  0  0  0  0  0  0
   48.4570   34.0400   41.0330 C   0  0  0  0  0  0  0  0  0  0  0  0
   48.9680   35.0890   41.8130 C   0  0  0  0  0  0  0  0  0  0  0  0
   50.1210   34.8640   42.5410 C   0  0  0  0  0  0  0  0  0  0  0  0
   50.6960   33.6520   42.4630 N   0  0  0  0  0  0  0  0  0  0  0  0
   50.1720   32.6560   41.6940 C   0  0  0  0  0  0  0  0  0  0  0  0
   49.0460   32.8290   40.9670 N   0  0  0  0  0  0  0  0  0  0  0  0
   45.8780   34.5720   43.7830 C   0  0  1  0  0  0  0  0  0  0  0  0
   45.1010   35.8320   43.4840 C   0  0  0  0  0  0  0  0  0  0  0  0
   45.4780   34.0040   45.1070 C   0  0  0  0  0  0  0  0  0  0  0  0
   45.4780   32.5460   45.0980 N   0  0  0  0  0  0  0  0  0  0  0  0
   46.0070   32.1420   46.3770 C   0  0  0  0  0  0  0  0  0  0  0  0
   47.1070   31.4460   46.5010 C   0  0  0  0  0  0  0  0  0  0  0  0
   47.7040   30.9990   47.6350 C   0  0  0  0  0  0  0  0  0  0  0  0
   46.8800   31.4450   48.8220 C   0  0  0  0  0  0  0  0  0  0  0  0
   45.4160   32.4150   48.0330 S   0  0  0  0  0  0  0  0  0  0  0  0
   47.7447   35.1938   39.8120 H   0  0  0  0  0  0  0  0  0  0  0  0
   45.9025   33.3543   38.7421 H   0  0  0  0  0  0  0  0  0  0  0  0
   46.4886   32.1752   39.5793 H   0  0  0  0  0  0  0  0  0  0  0  0
   44.9552   34.6566   41.0132 H   0  0  0  0  0  0  0  0  0  0  0  0
   48.4633   36.0659   41.8441 H   0  0  0  0  0  0  0  0  0  0  0  0
   50.5565   35.6562   43.1677 H   0  0  0  0  0  0  0  0  0  0  0  0
   50.6813   31.6815   41.6642 H   0  0  0  0  0  0  0  0  0  0  0  0
   46.9345   34.8734   43.8384 H   0  0  0  0  0  0  0  0  0  0  0  0
   44.8046   36.3127   44.4280 H   0  0  0  0  0  0  0  0  0  0  0  0
   45.7307   36.5220   42.9031 H   0  0  0  0  0  0  0  0  0  0  0  0
   44.2018   35.5791   42.9031 H   0  0  0  0  0  0  0  0  0  0  0  0
   46.1861   34.3545   45.8724 H   0  0  0  0  0  0  0  0  0  0  0  0
   44.4548   34.3425   45.3269 H   0  0  0  0  0  0  0  0  0  0  0  0
   45.1642   31.9304   44.3341 H   0  0  0  0  0  0  0  0  0  0  0  0
   47.6165   31.1884   45.5608 H   0  0  0  0  0  0  0  0  0  0  0  0
   48.6322   30.4106   47.6827 H   0  0  0  0  0  0  0  0  0  0  0  0
   47.0724   31.2585   49.8888 H   0  0  0  0  0  0  0  0  0  0  0  0
  1 11  1  0
  2  4  1  0
  2  5  1  0
  3  2  1  0
  3  4  1  0
  4  1  1  0
  5  6  2  0
  6  7  1  0
  8  7  2  0
  9  8  1  0
 10  5  1  0
 10  9  2  0
 11 13  1  0
 12 11  1  0
 14 13  1  0
 14 15  1  0
 15 16  2  0
 15 19  1  0
 16 17  1  0
 17 18  2  0
 19 18  1  0
  2 20  1  6
  3 21  1  0
  3 22  1  0
  4 23  1  6
  6 24  1  0
  7 25  1  0
  9 26  1  0
 11 27  1  1
 12 28  1  0
 12 29  1  0
 12 30  1  0
 13 31  1  0
 13 32  1  0
 14 33  1  0
 16 34  1  0
 17 35  1  0
 18 36  1  0
M  ISO  8  20  13  21  13  22  13  23  13  24  14  25  14  26  14  27   8
M  ISO  8  28   8  29   8  30   8  31   8  32   8  34  14  35  14  36  14
M  END
>  <minimizedAffinity>  (1) 
-4.80087042

>  <minimizedRMSD>  (1) 
7.54198408

$$$$
