
     RDKit          3D

 38 40  0  0  1  0  0  0  0  0999 V2000
   46.5350   32.2720   45.3250 C   0  0  1  0  0  0  0  0  0  0  0  0
   46.4440   33.0310   46.6400 C   0  0  0  0  0  0  0  0  0  0  0  0
   46.3030   30.8110   45.5920 C   0  0  0  0  0  0  0  0  0  0  0  0
   45.1480   30.5970   46.4500 N   0  0  0  0  0  0  0  0  0  0  0  0
   44.7180   29.2590   46.6830 C   0  0  0  0  0  0  0  0  0  0  0  0
   45.2020   28.6020   47.8170 C   0  0  0  0  0  0  0  0  0  0  0  0
   44.7830   27.3100   48.0370 C   0  0  0  0  0  0  0  0  0  0  0  0
   43.9160   26.6790   47.1770 C   0  0  0  0  0  0  0  0  0  0  0  0
   43.4570   27.3720   46.0560 C   0  0  0  0  0  0  0  0  0  0  0  0
   43.8710   28.6450   45.8390 N   0  0  0  0  0  0  0  0  0  0  0  0
   45.4740   32.9460   44.0390 S   0  0  0  0  0  0  0  0  0  0  0  0
   45.7470   35.5820   43.1210 C   0  0  1  0  0  0  0  0  0  0  0  0
   44.3010   35.3600   43.2790 C   0  0  0  0  0  0  0  0  0  0  0  0
   45.1930   34.6970   44.2020 C   0  0  1  0  0  0  0  0  0  0  0  0
   46.4930   34.9680   41.9700 C   0  0  0  0  0  0  0  0  0  0  0  0
   47.8800   35.1370   41.9950 C   0  0  0  0  0  0  0  0  0  0  0  0
   48.6210   34.6130   40.9510 C   0  0  0  0  0  0  0  0  0  0  0  0
   47.9510   33.9660   39.9630 N   0  0  0  0  0  0  0  0  0  0  0  0
   46.6010   33.8220   39.9740 C   0  0  0  0  0  0  0  0  0  0  0  0
   45.8620   34.3170   40.9690 N   0  0  0  0  0  0  0  0  0  0  0  0
   47.5475   32.3955   44.9132 H   0  0  0  0  0  0  0  0  0  0  0  0
   46.5288   32.3237   47.4782 H   0  0  0  0  0  0  0  0  0  0  0  0
   47.2605   33.7660   46.6964 H   0  0  0  0  0  0  0  0  0  0  0  0
   45.4769   33.5522   46.6964 H   0  0  0  0  0  0  0  0  0  0  0  0
   46.1360   30.2959   44.6345 H   0  0  0  0  0  0  0  0  0  0  0  0
   47.1900   30.4115   46.1055 H   0  0  0  0  0  0  0  0  0  0  0  0
   44.6536   31.3927   46.8782 H   0  0  0  0  0  0  0  0  0  0  0  0
   45.8948   29.1009   48.5107 H   0  0  0  0  0  0  0  0  0  0  0  0
   45.1504   26.7694   48.9218 H   0  0  0  0  0  0  0  0  0  0  0  0
   43.5898   25.6462   47.3690 H   0  0  0  0  0  0  0  0  0  0  0  0
   42.7634   26.8884   45.3524 H   0  0  0  0  0  0  0  0  0  0  0  0
   46.4033   36.4635   43.0744 H   0  0  0  0  0  0  0  0  0  0  0  0
   43.6602   36.1800   43.6354 H   0  0  0  0  0  0  0  0  0  0  0  0
   43.5012   35.0162   42.6066 H   0  0  0  0  0  0  0  0  0  0  0  0
   45.2619   34.6482   45.2988 H   0  0  0  0  0  0  0  0  0  0  0  0
   48.3692   35.6721   42.8223 H   0  0  0  0  0  0  0  0  0  0  0  0
   49.7157   34.7169   40.9222 H   0  0  0  0  0  0  0  0  0  0  0  0
   46.1077   33.2880   39.1484 H   0  0  0  0  0  0  0  0  0  0  0  0
  1  3  1  0
  1  2  1  0
  3  4  1  0
  4  5  1  0
  5  6  2  0
  6  7  1  0
  8  7  2  0
  9  8  1  0
 10  9  2  0
 10  5  1  0
 11 14  1  0
 11  1  1  0
 12 13  1  0
 12 14  1  0
 13 14  1  0
 15 16  2  0
 15 12  1  0
 17 16  1  0
 18 19  1  0
 18 17  2  0
 19 20  2  0
 20 15  1  0
  1 21  1  6
  2 22  1  0
  2 23  1  0
  2 24  1  0
  3 25  1  0
  3 26  1  0
  4 27  1  0
  6 28  1  0
  7 29  1  0
  8 30  1  0
  9 31  1  0
 12 32  1  1
 13 33  1  0
 13 34  1  0
 14 35  1  1
 16 36  1  0
 17 37  1  0
 19 38  1  0
M  ISO  8  21   8  22   8  23   8  24   8  25   8  26   8  28  14  29  14
M  ISO  8  30  14  31  14  32  13  33  13  34  13  35  13  36  14  37  14
M  ISO  1  38  14
M  END
>  <minimizedAffinity>  (1) 
-4.57344246

>  <minimizedRMSD>  (1) 
8.60550117

$$$$
