
     RDKit          3D

 45 48  0  0  1  0  0  0  0  0999 V2000
   48.4410   34.1940   41.3950 C   0  0  1  0  0  0  0  0  0  0  0  0
   48.6820   32.7800   41.8930 C   0  0  0  0  0  0  0  0  0  0  0  0
   48.1630   34.1510   39.9150 C   0  0  0  0  0  0  0  0  0  0  0  0
   49.1070   33.3270   39.2040 N   0  0  0  0  0  0  0  0  0  0  0  0
   48.8530   32.7870   37.9130 C   0  0  0  0  0  0  0  0  0  0  0  0
   47.5970   33.0840   37.3900 C   0  0  0  0  0  0  0  0  0  0  0  0
   47.1440   32.6640   36.1510 C   0  0  0  0  0  0  0  0  0  0  0  0
   47.9930   31.8940   35.3650 C   0  0  0  0  0  0  0  0  0  0  0  0
   49.2130   31.6130   35.8880 C   0  0  0  0  0  0  0  0  0  0  0  0
   50.1690   30.8420   35.2000 C   0  0  0  0  0  0  0  0  0  0  0  0
   51.4010   30.5500   35.7130 C   0  0  0  0  0  0  0  0  0  0  0  0
   51.8030   30.9850   36.9410 C   0  0  0  0  0  0  0  0  0  0  0  0
   50.9190   31.7420   37.6670 C   0  0  0  0  0  0  0  0  0  0  0  0
   49.6910   32.0260   37.1390 C   0  0  0  0  0  0  0  0  0  0  0  0
   47.1760   35.0640   42.3220 S   0  0  0  0  0  0  0  0  0  0  0  0
   44.6520   33.8800   42.6460 C   0  0  1  0  0  0  0  0  0  0  0  0
   44.4040   35.3220   42.4720 C   0  0  0  0  0  0  0  0  0  0  0  0
   45.5160   34.7290   41.7610 C   0  0  1  0  0  0  0  0  0  0  0  0
   45.2090   33.3500   43.9390 C   0  0  0  0  0  0  0  0  0  0  0  0
   45.6340   32.0200   43.9020 C   0  0  0  0  0  0  0  0  0  0  0  0
   46.1350   31.4690   45.0700 C   0  0  0  0  0  0  0  0  0  0  0  0
   46.1830   32.2570   46.1760 N   0  0  0  0  0  0  0  0  0  0  0  0
   45.7590   33.5470   46.1680 C   0  0  0  0  0  0  0  0  0  0  0  0
   45.2700   34.1050   45.0560 N   0  0  0  0  0  0  0  0  0  0  0  0
   49.3523   34.7857   41.5664 H   0  0  0  0  0  0  0  0  0  0  0  0
   48.6830   32.7739   42.9930 H   0  0  0  0  0  0  0  0  0  0  0  0
   47.8834   32.1200   41.5234 H   0  0  0  0  0  0  0  0  0  0  0  0
   49.6542   32.4218   41.5234 H   0  0  0  0  0  0  0  0  0  0  0  0
   47.1520   33.7474   39.7568 H   0  0  0  0  0  0  0  0  0  0  0  0
   48.2523   35.1762   39.5264 H   0  0  0  0  0  0  0  0  0  0  0  0
   50.0104   33.1187   39.6528 H   0  0  0  0  0  0  0  0  0  0  0  0
   46.9180   33.6944   38.0036 H   0  0  0  0  0  0  0  0  0  0  0  0
   46.1376   32.9329   35.7976 H   0  0  0  0  0  0  0  0  0  0  0  0
   47.6917   31.5314   34.3711 H   0  0  0  0  0  0  0  0  0  0  0  0
   49.9119   30.4565   34.2024 H   0  0  0  0  0  0  0  0  0  0  0  0
   52.0940   29.9416   35.1133 H   0  0  0  0  0  0  0  0  0  0  0  0
   52.7998   30.7379   37.3352 H   0  0  0  0  0  0  0  0  0  0  0  0
   51.1956   32.1165   38.6636 H   0  0  0  0  0  0  0  0  0  0  0  0
   44.0543   32.9639   42.5296 H   0  0  0  0  0  0  0  0  0  0  0  0
   43.5180   35.6591   41.9141 H   0  0  0  0  0  0  0  0  0  0  0  0
   44.3009   36.1714   43.1633 H   0  0  0  0  0  0  0  0  0  0  0  0
   45.8287   34.7051   40.7066 H   0  0  0  0  0  0  0  0  0  0  0  0
   45.5729   31.4296   42.9759 H   0  0  0  0  0  0  0  0  0  0  0  0
   46.4832   30.4260   45.1012 H   0  0  0  0  0  0  0  0  0  0  0  0
   45.8189   34.1422   47.0911 H   0  0  0  0  0  0  0  0  0  0  0  0
  1  2  1  0
  1 15  1  0
  3  1  1  0
  4  3  1  0
  5  4  1  0
  6  5  2  0
  7  6  1  0
  8  9  1  0
  8  7  2  0
  9 14  2  0
 10 11  2  0
 10  9  1  0
 11 12  1  0
 12 13  2  0
 14 13  1  0
 14  5  1  0
 16 19  1  0
 17 16  1  0
 18 15  1  0
 18 17  1  0
 18 16  1  0
 19 24  1  0
 20 19  2  0
 20 21  1  0
 21 22  2  0
 23 22  1  0
 24 23  2  0
  1 25  1  6
  2 26  1  0
  2 27  1  0
  2 28  1  0
  3 29  1  0
  3 30  1  0
  4 31  1  0
  6 32  1  0
  7 33  1  0
  8 34  1  0
 10 35  1  0
 11 36  1  0
 12 37  1  0
 13 38  1  0
 16 39  1  6
 17 40  1  0
 17 41  1  0
 18 42  1  6
 20 43  1  0
 21 44  1  0
 23 45  1  0
M  ISO  8  25   8  26   8  27   8  28   8  29   8  30   8  32  14  33  14
M  ISO  8  34  14  35  14  36  14  37  14  38  14  39  13  40  13  41  13
M  ISO  4  42  13  43  14  44  14  45  14
M  END
>  <minimizedAffinity>  (1) 
-4.55046368

>  <minimizedRMSD>  (1) 
1.66144419

$$$$
