
     RDKit          3D

 36 38  0  0  1  0  0  0  0  0999 V2000
   48.4500   34.2010   41.3920 C   0  0  1  0  0  0  0  0  0  0  0  0
   48.6900   32.7770   41.8830 C   0  0  0  0  0  0  0  0  0  0  0  0
   48.1710   34.1520   39.9060 C   0  0  0  0  0  0  0  0  0  0  0  0
   49.0900   33.2340   39.2310 N   0  0  0  0  0  0  0  0  0  0  0  0
   48.8590   33.0610   37.8370 C   0  0  0  0  0  0  0  0  0  0  0  0
   49.2960   32.1390   36.9090 C   0  0  0  0  0  0  0  0  0  0  0  0
   48.7050   32.5200   35.6990 C   0  0  0  0  0  0  0  0  0  0  0  0
   47.9470   33.6300   35.9180 N   0  0  0  0  0  0  0  0  0  0  0  0
   48.0450   33.9510   37.2120 N   0  0  0  0  0  0  0  0  0  0  0  0
   47.1800   35.0670   42.3230 S   0  0  0  0  0  0  0  0  0  0  0  0
   44.6570   33.8810   42.6460 C   0  0  1  0  0  0  0  0  0  0  0  0
   44.4100   35.3190   42.4620 C   0  0  0  0  0  0  0  0  0  0  0  0
   45.5250   34.7260   41.7590 C   0  0  1  0  0  0  0  0  0  0  0  0
   45.2110   33.3530   43.9340 C   0  0  0  0  0  0  0  0  0  0  0  0
   45.6420   32.0250   43.9090 C   0  0  0  0  0  0  0  0  0  0  0  0
   46.1420   31.4770   45.0750 C   0  0  0  0  0  0  0  0  0  0  0  0
   46.1880   32.2610   46.1860 N   0  0  0  0  0  0  0  0  0  0  0  0
   45.7560   33.5530   46.1690 C   0  0  0  0  0  0  0  0  0  0  0  0
   45.2680   34.1060   45.0520 N   0  0  0  0  0  0  0  0  0  0  0  0
   49.3564   34.7990   41.5678 H   0  0  0  0  0  0  0  0  0  0  0  0
   48.6922   32.7639   42.9829 H   0  0  0  0  0  0  0  0  0  0  0  0
   47.8898   32.1208   41.5101 H   0  0  0  0  0  0  0  0  0  0  0  0
   49.6611   32.4193   41.5101 H   0  0  0  0  0  0  0  0  0  0  0  0
   47.1379   33.8103   39.7448 H   0  0  0  0  0  0  0  0  0  0  0  0
   48.3123   35.1600   39.4889 H   0  0  0  0  0  0  0  0  0  0  0  0
   49.8494   32.7480   39.7290 H   0  0  0  0  0  0  0  0  0  0  0  0
   49.9670   31.2849   37.0831 H   0  0  0  0  0  0  0  0  0  0  0  0
   48.8315   32.0088   34.7333 H   0  0  0  0  0  0  0  0  0  0  0  0
   47.3945   34.1343   35.2100 H   0  0  0  0  0  0  0  0  0  0  0  0
   44.0564   32.9661   42.5353 H   0  0  0  0  0  0  0  0  0  0  0  0
   43.5259   35.6518   41.8984 H   0  0  0  0  0  0  0  0  0  0  0  0
   44.3034   36.1719   43.1484 H   0  0  0  0  0  0  0  0  0  0  0  0
   45.8426   34.6966   40.7063 H   0  0  0  0  0  0  0  0  0  0  0  0
   45.5850   31.4305   42.9852 H   0  0  0  0  0  0  0  0  0  0  0  0
   46.4933   30.4350   45.1041 H   0  0  0  0  0  0  0  0  0  0  0  0
   45.8092   34.1525   47.0898 H   0  0  0  0  0  0  0  0  0  0  0  0
  1  2  1  0
  1 10  1  0
  3  1  1  0
  4  3  1  0
  5  4  1  0
  6  5  1  0
  7  8  1  0
  7  6  2  0
  8  9  1  0
  9  5  2  0
 11 14  1  0
 12 11  1  0
 13 10  1  0
 13 12  1  0
 13 11  1  0
 14 19  1  0
 15 14  2  0
 15 16  1  0
 16 17  2  0
 18 17  1  0
 19 18  2  0
  1 20  1  6
  2 21  1  0
  2 22  1  0
  2 23  1  0
  3 24  1  0
  3 25  1  0
  4 26  1  0
  6 27  1  0
  7 28  1  0
  8 29  1  0
 11 30  1  6
 12 31  1  0
 12 32  1  0
 13 33  1  6
 15 34  1  0
 16 35  1  0
 18 36  1  0
M  ISO  8  20   8  21   8  22   8  23   8  24   8  25   8  27  14  28  14
M  ISO  8  29   9  30  13  31  13  32  13  33  13  34  14  35  14  36  14
M  END
>  <minimizedAffinity>  (1) 
-4.35183334

>  <minimizedRMSD>  (1) 
1.0970397

$$$$
