
     RDKit          3D

 42 44  0  0  1  0  0  0  0  0999 V2000
   48.4170   34.2210   41.3470 C   0  0  1  0  0  0  0  0  0  0  0  0
   48.5930   32.7620   41.7040 C   0  0  0  0  0  0  0  0  0  0  0  0
   48.1930   34.3410   39.8730 C   0  0  0  0  0  0  0  0  0  0  0  0
   48.8210   33.2840   39.1150 N   0  0  0  0  0  0  0  0  0  0  0  0
   48.2870   33.2300   37.4730 S   0  0  0  0  0  0  0  0  0  0  0  0
   48.1280   34.6810   37.0500 O   0  0  0  0  0  0  0  0  0  0  0  0
   49.2950   32.6010   36.5800 O   0  0  0  0  0  0  0  0  0  0  0  0
   46.7660   32.4330   37.2740 C   0  0  0  0  0  0  0  0  0  0  0  0
   46.7490   31.1460   36.7340 C   0  0  0  0  0  0  0  0  0  0  0  0
   45.5360   30.4770   36.5610 C   0  0  0  0  0  0  0  0  0  0  0  0
   44.3510   31.0910   36.9240 C   0  0  0  0  0  0  0  0  0  0  0  0
   44.3600   32.3660   37.4580 C   0  0  0  0  0  0  0  0  0  0  0  0
   45.5720   33.0200   37.6260 C   0  0  0  0  0  0  0  0  0  0  0  0
   47.1740   35.0530   42.3410 S   0  0  0  0  0  0  0  0  0  0  0  0
   44.6470   33.8930   42.6890 C   0  0  1  0  0  0  0  0  0  0  0  0
   44.4100   35.3380   42.5300 C   0  0  0  0  0  0  0  0  0  0  0  0
   45.5050   34.7430   41.7980 C   0  0  1  0  0  0  0  0  0  0  0  0
   45.2110   33.3400   43.9650 C   0  0  0  0  0  0  0  0  0  0  0  0
   45.6240   32.0060   43.9060 C   0  0  0  0  0  0  0  0  0  0  0  0
   46.1370   31.4350   45.0620 C   0  0  0  0  0  0  0  0  0  0  0  0
   46.2010   32.2150   46.1790 N   0  0  0  0  0  0  0  0  0  0  0  0
   45.7880   33.5020   46.1870 C   0  0  0  0  0  0  0  0  0  0  0  0
   45.2900   34.0800   45.0910 N   0  0  0  0  0  0  0  0  0  0  0  0
   49.3434   34.7589   41.5972 H   0  0  0  0  0  0  0  0  0  0  0  0
   48.6064   32.6513   42.7983 H   0  0  0  0  0  0  0  0  0  0  0  0
   47.7587   32.1792   41.2867 H   0  0  0  0  0  0  0  0  0  0  0  0
   49.5420   32.3943   41.2867 H   0  0  0  0  0  0  0  0  0  0  0  0
   47.1103   34.3138   39.6804 H   0  0  0  0  0  0  0  0  0  0  0  0
   48.6461   35.2896   39.5493 H   0  0  0  0  0  0  0  0  0  0  0  0
   49.8402   33.4326   39.1249 H   0  0  0  0  0  0  0  0  0  0  0  0
   47.6918   30.6587   36.4446 H   0  0  0  0  0  0  0  0  0  0  0  0
   45.5227   29.4624   36.1363 H   0  0  0  0  0  0  0  0  0  0  0  0
   43.3964   30.5619   36.7870 H   0  0  0  0  0  0  0  0  0  0  0  0
   43.4182   32.8559   37.7461 H   0  0  0  0  0  0  0  0  0  0  0  0
   45.5788   34.0343   38.0517 H   0  0  0  0  0  0  0  0  0  0  0  0
   44.0398   32.9830   42.5742 H   0  0  0  0  0  0  0  0  0  0  0  0
   43.5187   35.6874   41.9882 H   0  0  0  0  0  0  0  0  0  0  0  0
   44.3249   36.1824   43.2299 H   0  0  0  0  0  0  0  0  0  0  0  0
   45.8012   34.7285   40.7387 H   0  0  0  0  0  0  0  0  0  0  0  0
   45.5450   31.4277   42.9736 H   0  0  0  0  0  0  0  0  0  0  0  0
   46.4800   30.3900   45.0770 H   0  0  0  0  0  0  0  0  0  0  0  0
   45.8637   34.0858   47.1162 H   0  0  0  0  0  0  0  0  0  0  0  0
  1  2  1  0
  1 14  1  0
  3  1  1  0
  4  3  1  0
  5  4  1  0
  6  5  2  0
  7  5  2  0
  8  5  1  0
  8 13  1  0
  9  8  2  0
 10  9  1  0
 10 11  2  0
 11 12  1  0
 12 13  2  0
 15 18  1  0
 16 15  1  0
 17 14  1  0
 17 16  1  0
 17 15  1  0
 18 23  1  0
 19 18  2  0
 19 20  1  0
 20 21  2  0
 21 22  1  0
 23 22  2  0
  1 24  1  6
  2 25  1  0
  2 26  1  0
  2 27  1  0
  3 28  1  0
  3 29  1  0
  4 30  1  0
  9 31  1  0
 10 32  1  0
 11 33  1  0
 12 34  1  0
 13 35  1  0
 15 36  1  6
 16 37  1  0
 16 38  1  0
 17 39  1  6
 19 40  1  0
 20 41  1  0
 22 42  1  0
M  ISO  8  24   8  25   8  26   8  27   8  28   8  29   8  30   5  31  14
M  ISO  8  32  14  33  14  34  14  35  14  36  13  37  13  38  13  39  13
M  ISO  3  40  14  41  14  42  14
M  END
>  <minimizedAffinity>  (1) 
-4.21852922

>  <minimizedRMSD>  (1) 
1.30265164

$$$$
