
     RDKit          3D

 32 33  0  0  1  0  0  0  0  0999 V2000
   44.8800   34.3660   43.0870 C   0  0  1  0  0  0  0  0  0  0  0  0
   45.1040   35.8200   43.1130 C   0  0  0  0  0  0  0  0  0  0  0  0
   45.8700   35.0370   42.1750 C   0  0  1  0  0  0  0  0  0  0  0  0
   45.3730   33.4900   44.2010 C   0  0  0  0  0  0  0  0  0  0  0  0
   45.5050   32.1350   43.8840 C   0  0  0  0  0  0  0  0  0  0  0  0
   45.9360   31.2730   44.8780 C   0  0  0  0  0  0  0  0  0  0  0  0
   46.2070   31.7960   46.1090 N   0  0  0  0  0  0  0  0  0  0  0  0
   46.0630   33.1210   46.3680 C   0  0  0  0  0  0  0  0  0  0  0  0
   45.6500   33.9770   45.4300 N   0  0  0  0  0  0  0  0  0  0  0  0
   47.5940   34.7290   42.4840 S   0  0  0  0  0  0  0  0  0  0  0  0
   48.3900   33.7810   41.1810 C   0  0  1  0  0  0  0  0  0  0  0  0
   48.0960   32.2980   41.2400 C   0  0  0  0  0  0  0  0  0  0  0  0
   48.0970   34.2900   39.8030 C   0  0  0  0  0  0  0  0  0  0  0  0
   48.6600   33.4150   38.7900 N   0  0  0  0  0  0  0  0  0  0  0  0
   48.4340   34.0380   37.4810 C   0  0  0  0  0  0  0  0  0  0  0  0
   48.7710   35.3700   37.6070 F   0  0  0  0  0  0  0  0  0  0  0  0
   47.0690   34.0110   37.2030 F   0  0  0  0  0  0  0  0  0  0  0  0
   49.1210   33.3800   36.5000 F   0  0  0  0  0  0  0  0  0  0  0  0
   44.0037   33.7117   42.9687 H   0  0  0  0  0  0  0  0  0  0  0  0
   44.3203   36.4978   42.7435 H   0  0  0  0  0  0  0  0  0  0  0  0
   45.3663   36.5396   43.9026 H   0  0  0  0  0  0  0  0  0  0  0  0
   46.0369   35.0950   41.0893 H   0  0  0  0  0  0  0  0  0  0  0  0
   45.2733   31.7645   42.8745 H   0  0  0  0  0  0  0  0  0  0  0  0
   46.0565   30.1975   44.6812 H   0  0  0  0  0  0  0  0  0  0  0  0
   46.2922   33.4987   47.3754 H   0  0  0  0  0  0  0  0  0  0  0  0
   49.4617   33.9263   41.3817 H   0  0  0  0  0  0  0  0  0  0  0  0
   48.0326   31.9783   42.2906 H   0  0  0  0  0  0  0  0  0  0  0  0
   47.1398   32.0934   40.7361 H   0  0  0  0  0  0  0  0  0  0  0  0
   48.9018   31.7441   40.7361 H   0  0  0  0  0  0  0  0  0  0  0  0
   47.0071   34.3445   39.6647 H   0  0  0  0  0  0  0  0  0  0  0  0
   48.5516   35.2859   39.6952 H   0  0  0  0  0  0  0  0  0  0  0  0
   49.6703   33.2968   38.9517 H   0  0  0  0  0  0  0  0  0  0  0  0
  1  2  1  0
  1  4  1  0
  3 10  1  0
  3  1  1  0
  3  2  1  0
  4  9  1  0
  5  4  2  0
  5  6  1  0
  6  7  2  0
  7  8  1  0
  9  8  2  0
 11 12  1  0
 11 10  1  0
 13 11  1  0
 14 13  1  0
 15 16  1  0
 15 14  1  0
 17 15  1  0
 18 15  1  0
  1 19  1  6
  2 20  1  0
  2 21  1  0
  3 22  1  6
  5 23  1  0
  6 24  1  0
  8 25  1  0
 11 26  1  1
 12 27  1  0
 12 28  1  0
 12 29  1  0
 13 30  1  0
 13 31  1  0
 14 32  1  0
M  ISO  8  19  13  20  13  21  13  22  13  23  14  24  14  25  14  26   8
M  ISO  6  27   8  28   8  29   8  30   8  31   8  32   5
M  END
>  <minimizedAffinity>  (1) 
-4.13560724

>  <minimizedRMSD>  (1) 
0.269328475

$$$$
