
     RDKit          3D

 32 33  0  0  1  0  0  0  0  0999 V2000
   44.9220   34.4230   43.2880 C   0  0  1  0  0  0  0  0  0  0  0  0
   45.1860   35.8700   43.3560 C   0  0  0  0  0  0  0  0  0  0  0  0
   45.9080   35.0910   42.3760 C   0  0  1  0  0  0  0  0  0  0  0  0
   45.4030   33.4970   44.3640 C   0  0  0  0  0  0  0  0  0  0  0  0
   45.5500   32.1610   43.9820 C   0  0  0  0  0  0  0  0  0  0  0  0
   45.9760   31.2510   44.9370 C   0  0  0  0  0  0  0  0  0  0  0  0
   46.2250   31.7180   46.1920 N   0  0  0  0  0  0  0  0  0  0  0  0
   46.0680   33.0280   46.5170 C   0  0  0  0  0  0  0  0  0  0  0  0
   45.6600   33.9270   45.6180 N   0  0  0  0  0  0  0  0  0  0  0  0
   47.6310   34.7340   42.6530 S   0  0  0  0  0  0  0  0  0  0  0  0
   48.4320   33.9440   41.2580 C   0  0  1  0  0  0  0  0  0  0  0  0
   48.1140   32.4570   41.1430 C   0  0  0  0  0  0  0  0  0  0  0  0
   48.1310   34.5820   39.9350 C   0  0  0  0  0  0  0  0  0  0  0  0
   47.9290   33.6180   38.8780 N   0  0  0  0  0  0  0  0  0  0  0  0
   48.4440   33.7390   37.5570 C   0  0  0  0  0  0  0  0  0  0  0  0
   47.7190   33.4950   36.5580 O   0  0  0  0  0  0  0  0  0  0  0  0
   49.7300   34.1200   37.2470 O   0  0  0  0  0  0  0  0  0  0  0  0
   44.0263   33.7960   43.1672 H   0  0  0  0  0  0  0  0  0  0  0  0
   44.4141   36.5807   43.0257 H   0  0  0  0  0  0  0  0  0  0  0  0
   45.4855   36.5577   44.1606 H   0  0  0  0  0  0  0  0  0  0  0  0
   46.0511   35.1715   41.2883 H   0  0  0  0  0  0  0  0  0  0  0  0
   45.3337   31.8403   42.9522 H   0  0  0  0  0  0  0  0  0  0  0  0
   46.1085   30.1874   44.6896 H   0  0  0  0  0  0  0  0  0  0  0  0
   46.2821   33.3556   47.5450 H   0  0  0  0  0  0  0  0  0  0  0  0
   49.5004   34.0797   41.4819 H   0  0  0  0  0  0  0  0  0  0  0  0
   48.0212   32.0230   42.1495 H   0  0  0  0  0  0  0  0  0  0  0  0
   47.1674   32.3255   40.5983 H   0  0  0  0  0  0  0  0  0  0  0  0
   48.9240   31.9499   40.5983 H   0  0  0  0  0  0  0  0  0  0  0  0
   47.2182   35.1872   40.0370 H   0  0  0  0  0  0  0  0  0  0  0  0
   49.0011   35.1960   39.6594 H   0  0  0  0  0  0  0  0  0  0  0  0
   47.3706   32.7807   39.0970 H   0  0  0  0  0  0  0  0  0  0  0  0
   50.0137   34.1809   36.3005 H   0  0  0  0  0  0  0  0  0  0  0  0
  1  2  1  0
  1  4  1  0
  3 10  1  0
  3  1  1  0
  3  2  1  0
  4  9  1  0
  5  4  2  0
  5  6  1  0
  6  7  2  0
  7  8  1  0
  9  8  2  0
 11 10  1  0
 12 11  1  0
 13 11  1  0
 14 13  1  0
 15 14  1  0
 16 15  2  0
 17 15  1  0
  1 18  1  6
  2 19  1  0
  2 20  1  0
  3 21  1  6
  5 22  1  0
  6 23  1  0
  8 24  1  0
 11 25  1  1
 12 26  1  0
 12 27  1  0
 12 28  1  0
 13 29  1  0
 13 30  1  0
 14 31  1  0
 17 32  1  0
M  ISO  8  18  13  19  13  20  13  21  13  22  14  23  14  24  14  25   8
M  ISO  6  26   8  27   8  28   8  29   8  30   8  32   3
M  END
>  <minimizedAffinity>  (1) 
-4.1248703

>  <minimizedRMSD>  (1) 
1.19573331

$$$$
