
     RDKit          3D

 36 38  0  0  1  0  0  0  0  0999 V2000
   44.9700   34.3430   43.1430 C   0  0  1  0  0  0  0  0  0  0  0  0
   45.2610   35.7850   43.1450 C   0  0  0  0  0  0  0  0  0  0  0  0
   46.0060   34.9440   42.2370 C   0  0  1  0  0  0  0  0  0  0  0  0
   45.4030   33.4660   44.2840 C   0  0  0  0  0  0  0  0  0  0  0  0
   45.5640   32.1140   43.9640 C   0  0  0  0  0  0  0  0  0  0  0  0
   45.9440   31.2560   44.9900 C   0  0  0  0  0  0  0  0  0  0  0  0
   46.1350   31.7780   46.2340 N   0  0  0  0  0  0  0  0  0  0  0  0
   45.9640   33.1050   46.4880 C   0  0  0  0  0  0  0  0  0  0  0  0
   45.5990   33.9550   45.5280 N   0  0  0  0  0  0  0  0  0  0  0  0
   47.7120   34.5760   42.5930 S   0  0  0  0  0  0  0  0  0  0  0  0
   48.6610   34.1190   41.1310 C   0  0  1  0  0  0  0  0  0  0  0  0
   49.2080   32.7020   41.1840 C   0  0  0  0  0  0  0  0  0  0  0  0
   47.9130   34.3190   39.8490 C   0  0  0  0  0  0  0  0  0  0  0  0
   48.7240   34.9390   38.8250 N   0  0  0  0  0  0  0  0  0  0  0  0
   48.3760   34.5110   37.4980 C   0  0  0  0  0  0  0  0  0  0  0  0
   48.7490   33.1430   37.0050 C   0  0  0  0  0  0  0  0  0  0  0  0
   47.3020   33.5260   37.2460 C   0  0  0  0  0  0  0  0  0  0  0  0
   44.0650   33.7296   43.0219 H   0  0  0  0  0  0  0  0  0  0  0  0
   44.5173   36.4910   42.7470 H   0  0  0  0  0  0  0  0  0  0  0  0
   45.5425   36.5084   43.9244 H   0  0  0  0  0  0  0  0  0  0  0  0
   46.1936   34.9626   41.1533 H   0  0  0  0  0  0  0  0  0  0  0  0
   45.3967   31.7443   42.9416 H   0  0  0  0  0  0  0  0  0  0  0  0
   46.0870   30.1817   44.8019 H   0  0  0  0  0  0  0  0  0  0  0  0
   46.1306   33.4837   47.5072 H   0  0  0  0  0  0  0  0  0  0  0  0
   49.5122   34.8156   41.1435 H   0  0  0  0  0  0  0  0  0  0  0  0
   49.3269   32.3939   42.2332 H   0  0  0  0  0  0  0  0  0  0  0  0
   48.5086   32.0198   40.6786 H   0  0  0  0  0  0  0  0  0  0  0  0
   50.1844   32.6667   40.6786 H   0  0  0  0  0  0  0  0  0  0  0  0
   47.5716   33.3393   39.4834 H   0  0  0  0  0  0  0  0  0  0  0  0
   47.0670   34.9906   40.0572 H   0  0  0  0  0  0  0  0  0  0  0  0
   48.6021   35.9601   38.8832 H   0  0  0  0  0  0  0  0  0  0  0  0
   48.5654   35.5394   37.1567 H   0  0  0  0  0  0  0  0  0  0  0  0
   49.2523   32.4310   37.6757 H   0  0  0  0  0  0  0  0  0  0  0  0
   49.3250   32.7437   36.1572 H   0  0  0  0  0  0  0  0  0  0  0  0
   46.6203   33.6623   36.3936 H   0  0  0  0  0  0  0  0  0  0  0  0
   46.4762   33.1078   37.8403 H   0  0  0  0  0  0  0  0  0  0  0  0
  1  2  1  0
  1  4  1  0
  3 10  1  0
  3  1  1  0
  3  2  1  0
  4  9  1  0
  5  4  2  0
  5  6  1  0
  6  7  2  0
  7  8  1  0
  9  8  2  0
 11 12  1  0
 11 10  1  0
 13 11  1  0
 14 13  1  0
 15 14  1  0
 16 17  1  0
 16 15  1  0
 17 15  1  0
  1 18  1  6
  2 19  1  0
  2 20  1  0
  3 21  1  6
  5 22  1  0
  6 23  1  0
  8 24  1  0
 11 25  1  6
 12 26  1  0
 12 27  1  0
 12 28  1  0
 13 29  1  0
 13 30  1  0
 14 31  1  0
 15 32  1  0
 16 33  1  0
 16 34  1  0
 17 35  1  0
 17 36  1  0
M  ISO  8  18  13  19  13  20  13  21  13  22  14  23  14  24  14  25   8
M  ISO  8  26   8  27   8  28   8  29   8  30   8  31   5  32  13  33  13
M  ISO  3  34  13  35  13  36  13
M  END
>  <minimizedAffinity>  (1) 
-4.11952925

>  <minimizedRMSD>  (1) 
0.699676394

$$$$
