
     RDKit          3D

 45 47  0  0  1  0  0  0  0  0999 V2000
   47.0360   35.0900   42.2290 S   0  0  0  0  0  0  0  0  0  0  0  0
   44.6010   34.7860   43.5870 C   0  0  1  0  0  0  0  0  0  0  0  0
   44.9880   36.1940   43.7700 C   0  0  0  0  0  0  0  0  0  0  0  0
   45.3390   35.5490   42.5240 C   0  0  1  0  0  0  0  0  0  0  0  0
   45.3130   33.6930   44.3420 C   0  0  0  0  0  0  0  0  0  0  0  0
   45.2710   32.4300   43.7470 C   0  0  0  0  0  0  0  0  0  0  0  0
   45.8840   31.3810   44.4010 C   0  0  0  0  0  0  0  0  0  0  0  0
   46.4980   31.6350   45.5940 N   0  0  0  0  0  0  0  0  0  0  0  0
   46.5130   32.8850   46.1350 C   0  0  0  0  0  0  0  0  0  0  0  0
   45.9270   33.9180   45.5220 N   0  0  0  0  0  0  0  0  0  0  0  0
   47.2610   33.9530   40.8700 C   0  0  1  0  0  0  0  0  0  0  0  0
   45.9570   33.5830   40.1750 C   0  0  0  0  0  0  0  0  0  0  0  0
   48.2290   34.4550   39.8260 C   0  0  0  0  0  0  0  0  0  0  0  0
   47.7300   34.2610   38.4840 N   0  0  0  0  0  0  0  0  0  0  0  0
   48.6340   33.6210   37.5860 C   0  0  0  0  0  0  0  0  0  0  0  0
   49.1820   32.3950   38.3270 C   0  0  0  0  0  0  0  0  0  0  0  0
   48.7330   31.1010   37.7360 C   0  0  0  0  0  0  0  0  0  0  0  0
   47.2330   31.0380   37.5370 C   0  0  0  0  0  0  0  0  0  0  0  0
   46.8160   32.1590   36.6150 C   0  0  0  0  0  0  0  0  0  0  0  0
   47.9410   33.1130   36.3140 C   0  0  0  0  0  0  0  0  0  0  0  0
   43.6605   34.2190   43.6501 H   0  0  0  0  0  0  0  0  0  0  0  0
   44.2132   36.9748   43.7796 H   0  0  0  0  0  0  0  0  0  0  0  0
   45.5573   36.7384   44.5378 H   0  0  0  0  0  0  0  0  0  0  0  0
   45.1743   35.7903   41.4635 H   0  0  0  0  0  0  0  0  0  0  0  0
   44.7632   32.2758   42.7835 H   0  0  0  0  0  0  0  0  0  0  0  0
   45.8783   30.3677   43.9730 H   0  0  0  0  0  0  0  0  0  0  0  0
   47.0188   33.0479   47.0981 H   0  0  0  0  0  0  0  0  0  0  0  0
   47.6819   33.0561   41.3479 H   0  0  0  0  0  0  0  0  0  0  0  0
   45.1879   33.3648   40.9306 H   0  0  0  0  0  0  0  0  0  0  0  0
   45.6256   34.4226   39.5463 H   0  0  0  0  0  0  0  0  0  0  0  0
   46.1159   32.6945   39.5463 H   0  0  0  0  0  0  0  0  0  0  0  0
   48.4006   35.5293   39.9888 H   0  0  0  0  0  0  0  0  0  0  0  0
   49.1626   33.8820   39.9263 H   0  0  0  0  0  0  0  0  0  0  0  0
   46.8774   33.6860   38.5412 H   0  0  0  0  0  0  0  0  0  0  0  0
   49.4064   34.3438   37.2845 H   0  0  0  0  0  0  0  0  0  0  0  0
   50.2810   32.4305   38.2964 H   0  0  0  0  0  0  0  0  0  0  0  0
   48.7954   32.4356   39.3560 H   0  0  0  0  0  0  0  0  0  0  0  0
   49.2232   30.9712   36.7598 H   0  0  0  0  0  0  0  0  0  0  0  0
   49.0085   30.3014   38.4394 H   0  0  0  0  0  0  0  0  0  0  0  0
   46.9598   30.0708   37.0899 H   0  0  0  0  0  0  0  0  0  0  0  0
   46.7231   31.1424   38.5061 H   0  0  0  0  0  0  0  0  0  0  0  0
   46.4616   31.7233   35.6692 H   0  0  0  0  0  0  0  0  0  0  0  0
   46.0239   32.7291   37.1225 H   0  0  0  0  0  0  0  0  0  0  0  0
   48.6844   32.5965   35.6890 H   0  0  0  0  0  0  0  0  0  0  0  0
   47.5128   33.9833   35.7951 H   0  0  0  0  0  0  0  0  0  0  0  0
  1  4  1  0
  2  3  1  0
  2  5  1  0
  4  2  1  0
  4  3  1  0
  5 10  1  0
  6  5  2  0
  6  7  1  0
  7  8  2  0
  8  9  1  0
 10  9  2  0
 11  1  1  0
 12 11  1  0
 13 11  1  0
 14 13  1  0
 15 16  1  0
 15 14  1  0
 17 16  1  0
 18 17  1  0
 19 18  1  0
 20 19  1  0
 20 15  1  0
  2 21  1  6
  3 22  1  0
  3 23  1  0
  4 24  1  6
  6 25  1  0
  7 26  1  0
  9 27  1  0
 11 28  1  1
 12 29  1  0
 12 30  1  0
 12 31  1  0
 13 32  1  0
 13 33  1  0
 14 34  1  0
 15 35  1  0
 16 36  1  0
 16 37  1  0
 17 38  1  0
 17 39  1  0
 18 40  1  0
 18 41  1  0
 19 42  1  0
 19 43  1  0
 20 44  1  0
 20 45  1  0
M  ISO  8  21  13  22  13  23  13  24  13  25  14  26  14  27  14  28   8
M  ISO  8  29   8  30   8  31   8  32   8  33   8  34   5  35  13  36  13
M  ISO  8  37  13  38  13  39  13  40  13  41  13  42  13  43  13  44  13
M  ISO  1  45  13
M  END
>  <minimizedAffinity>  (1) 
-3.98321772

>  <minimizedRMSD>  (1) 
2.23476362

$$$$
