
     RDKit          3D

 35 36  0  0  1  0  0  0  0  0999 V2000
   44.6710   33.9950   42.6500 C   0  0  1  0  0  0  0  0  0  0  0  0
   44.5380   35.4540   42.4780 C   0  0  0  0  0  0  0  0  0  0  0  0
   45.5800   34.7800   41.7430 C   0  0  1  0  0  0  0  0  0  0  0  0
   45.1960   33.4360   43.9290 C   0  0  0  0  0  0  0  0  0  0  0  0
   45.6040   32.0910   43.8810 C   0  0  0  0  0  0  0  0  0  0  0  0
   46.0880   31.5210   45.0530 C   0  0  0  0  0  0  0  0  0  0  0  0
   46.1360   32.2870   46.1620 N   0  0  0  0  0  0  0  0  0  0  0  0
   45.7360   33.5770   46.1760 C   0  0  0  0  0  0  0  0  0  0  0  0
   45.2600   34.1740   45.0570 N   0  0  0  0  0  0  0  0  0  0  0  0
   47.2740   34.9830   42.2770 S   0  0  0  0  0  0  0  0  0  0  0  0
   48.4780   34.5250   41.0520 C   0  0  1  0  0  0  0  0  0  0  0  0
   49.3320   33.3250   41.4730 C   0  0  0  0  0  0  0  0  0  0  0  0
   47.8860   34.2240   39.6830 C   0  0  0  0  0  0  0  0  0  0  0  0
   48.7130   34.7910   38.6500 N   0  0  0  0  0  0  0  0  0  0  0  0
   48.3220   34.5130   37.3310 C   0  0  0  0  0  0  0  0  0  0  0  0
   48.8590   33.1370   36.9370 C   0  0  0  0  0  0  0  0  0  0  0  0
   44.0072   33.1243   42.5439 H   0  0  0  0  0  0  0  0  0  0  0  0
   43.6692   35.8615   41.9403 H   0  0  0  0  0  0  0  0  0  0  0  0
   44.5201   36.3078   43.1713 H   0  0  0  0  0  0  0  0  0  0  0  0
   45.8650   34.7354   40.6815 H   0  0  0  0  0  0  0  0  0  0  0  0
   45.5423   31.5103   42.9488 H   0  0  0  0  0  0  0  0  0  0  0  0
   46.4228   30.4734   45.0752 H   0  0  0  0  0  0  0  0  0  0  0  0
   45.7978   34.1523   47.1115 H   0  0  0  0  0  0  0  0  0  0  0  0
   49.1091   35.4224   40.9723 H   0  0  0  0  0  0  0  0  0  0  0  0
   49.3711   33.2700   42.5709 H   0  0  0  0  0  0  0  0  0  0  0  0
   48.8873   32.4009   41.0752 H   0  0  0  0  0  0  0  0  0  0  0  0
   50.3508   33.4424   41.0752 H   0  0  0  0  0  0  0  0  0  0  0  0
   47.8265   33.1344   39.5441 H   0  0  0  0  0  0  0  0  0  0  0  0
   46.8802   34.6651   39.6212 H   0  0  0  0  0  0  0  0  0  0  0  0
   48.7120   35.8139   38.7707 H   0  0  0  0  0  0  0  0  0  0  0  0
   47.2241   34.5147   37.2628 H   0  0  0  0  0  0  0  0  0  0  0  0
   48.7249   35.2794   36.6526 H   0  0  0  0  0  0  0  0  0  0  0  0
   49.0850   32.5580   37.8446 H   0  0  0  0  0  0  0  0  0  0  0  0
   48.1025   32.6049   36.3415 H   0  0  0  0  0  0  0  0  0  0  0  0
   49.7759   33.2580   36.3415 H   0  0  0  0  0  0  0  0  0  0  0  0
  1  4  1  0
  2  1  1  0
  3 10  1  0
  3  2  1  0
  3  1  1  0
  4  9  1  0
  5  4  2  0
  5  6  1  0
  6  7  2  0
  7  8  1  0
  9  8  2  0
 11 12  1  0
 11 10  1  0
 13 11  1  0
 14 13  1  0
 15 14  1  0
 16 15  1  0
  1 17  1  6
  2 18  1  0
  2 19  1  0
  3 20  1  6
  5 21  1  0
  6 22  1  0
  8 23  1  0
 11 24  1  6
 12 25  1  0
 12 26  1  0
 12 27  1  0
 13 28  1  0
 13 29  1  0
 14 30  1  0
 15 31  1  0
 15 32  1  0
 16 33  1  0
 16 34  1  0
 16 35  1  0
M  ISO  8  17  13  18  13  19  13  20  13  21  14  22  14  23  14  24   8
M  ISO  8  25   8  26   8  27   8  28   8  29   8  30   5  31   8  32   8
M  ISO  3  33   8  34   8  35   8
M  END
>  <minimizedAffinity>  (1) 
-3.934165

>  <minimizedRMSD>  (1) 
1.06742573

$$$$
