
     RDKit          3D

 44 47  0  0  1  0  0  0  0  0999 V2000
   44.9880   34.3140   43.0030 C   0  0  1  0  0  0  0  0  0  0  0  0
   45.2450   35.6170   43.5970 C   0  0  0  0  0  0  0  0  0  0  0  0
   46.0490   35.2450   42.4580 C   0  0  1  0  0  0  0  0  0  0  0  0
   45.4090   33.0400   43.6960 C   0  0  0  0  0  0  0  0  0  0  0  0
   45.5560   31.9390   42.8610 C   0  0  0  0  0  0  0  0  0  0  0  0
   45.9170   30.7430   43.4640 C   0  0  0  0  0  0  0  0  0  0  0  0
   46.1060   30.7090   44.8160 N   0  0  0  0  0  0  0  0  0  0  0  0
   45.9480   31.8270   45.5900 C   0  0  0  0  0  0  0  0  0  0  0  0
   45.6020   32.9960   45.0450 N   0  0  0  0  0  0  0  0  0  0  0  0
   46.1740   31.6620   46.9860 N   0  0  0  0  0  0  0  0  0  0  0  0
   47.1060   30.9550   47.6330 N   0  0  0  0  0  0  0  0  0  0  0  0
   46.9170   31.1050   48.9690 C   0  0  0  0  0  0  0  0  0  0  0  0
   45.8290   31.9360   49.1940 C   0  0  0  0  0  0  0  0  0  0  0  0
   45.3990   32.2570   47.9120 C   0  0  0  0  0  0  0  0  0  0  0  0
   47.7350   34.7670   42.6870 S   0  0  0  0  0  0  0  0  0  0  0  0
   48.5110   34.0730   41.2210 C   0  0  1  0  0  0  0  0  0  0  0  0
   48.9930   32.6460   41.3990 C   0  0  0  0  0  0  0  0  0  0  0  0
   47.6080   34.1630   40.0100 C   0  0  0  0  0  0  0  0  0  0  0  0
   48.2820   34.6630   38.8640 N   0  0  0  0  0  0  0  0  0  0  0  0
   47.9470   33.8490   37.7320 C   0  0  0  0  0  0  0  0  0  0  0  0
   48.7970   33.5600   36.7080 C   0  0  0  0  0  0  0  0  0  0  0  0
   48.2560   32.7310   35.7210 C   0  0  0  0  0  0  0  0  0  0  0  0
   47.0020   32.2650   35.7890 N   0  0  0  0  0  0  0  0  0  0  0  0
   46.1830   32.5770   36.8320 C   0  0  0  0  0  0  0  0  0  0  0  0
   46.6660   33.3830   37.8200 N   0  0  0  0  0  0  0  0  0  0  0  0
   44.0972   33.8001   42.6125 H   0  0  0  0  0  0  0  0  0  0  0  0
   44.4965   36.4165   43.4938 H   0  0  0  0  0  0  0  0  0  0  0  0
   45.4818   35.9539   44.6170 H   0  0  0  0  0  0  0  0  0  0  0  0
   46.2788   35.7191   41.4924 H   0  0  0  0  0  0  0  0  0  0  0  0
   45.3941   32.0122   41.7754 H   0  0  0  0  0  0  0  0  0  0  0  0
   46.0494   29.8330   42.8604 H   0  0  0  0  0  0  0  0  0  0  0  0
   47.5322   30.6391   49.7529 H   0  0  0  0  0  0  0  0  0  0  0  0
   45.4078   32.2625   50.1563 H   0  0  0  0  0  0  0  0  0  0  0  0
   44.5422   32.9084   47.6849 H   0  0  0  0  0  0  0  0  0  0  0  0
   49.4029   34.6949   41.0547 H   0  0  0  0  0  0  0  0  0  0  0  0
   49.0706   32.4163   42.4720 H   0  0  0  0  0  0  0  0  0  0  0  0
   48.2781   31.9559   40.9271 H   0  0  0  0  0  0  0  0  0  0  0  0
   49.9799   32.5308   40.9271 H   0  0  0  0  0  0  0  0  0  0  0  0
   47.2226   33.1582   39.7820 H   0  0  0  0  0  0  0  0  0  0  0  0
   46.7948   34.8634   40.2512 H   0  0  0  0  0  0  0  0  0  0  0  0
   48.9103   35.4790   38.8486 H   0  0  0  0  0  0  0  0  0  0  0  0
   49.8255   33.9473   36.6614 H   0  0  0  0  0  0  0  0  0  0  0  0
   48.8809   32.4520   34.8598 H   0  0  0  0  0  0  0  0  0  0  0  0
   45.1552   32.1875   36.8761 H   0  0  0  0  0  0  0  0  0  0  0  0
  1  2  1  0
  1  4  1  0
  3 15  1  0
  3  1  1  0
  3  2  1  0
  4  9  2  0
  5  6  2  0
  5  4  1  0
  6  7  1  0
  7  8  2  0
  8 10  1  0
  9  8  1  0
 10 11  1  0
 10 14  1  0
 11 12  2  0
 12 13  1  0
 14 13  2  0
 16 17  1  0
 16 15  1  0
 18 16  1  0
 19 18  1  0
 20 25  1  0
 20 19  1  0
 21 20  2  0
 22 23  2  0
 22 21  1  0
 23 24  1  0
 24 25  2  0
  1 26  1  6
  2 27  1  0
  2 28  1  0
  3 29  1  6
  5 30  1  0
  6 31  1  0
 12 32  1  0
 13 33  1  0
 14 34  1  0
 16 35  1  6
 17 36  1  0
 17 37  1  0
 17 38  1  0
 18 39  1  0
 18 40  1  0
 19 41  1  0
 21 42  1  0
 22 43  1  0
 24 44  1  0
M  ISO  8  26  13  27  13  28  13  29  13  30  14  31  14  32  14  33  14
M  ISO  8  34  14  35   8  36   8  37   8  38   8  39   8  40   8  42  14
M  ISO  2  43  14  44  14
M  END
>  <minimizedAffinity>  (1) 
-5.21066141

>  <minimizedRMSD>  (1) 
1.18090224

$$$$
