
     RDKit          3D

 50 53  0  0  1  0  0  0  0  0999 V2000
   47.6700   34.5460   42.9240 S   0  0  0  0  0  0  0  0  0  0  0  0
   44.9830   34.0200   43.5230 C   0  0  1  0  0  0  0  0  0  0  0  0
   45.2260   35.3810   43.9740 C   0  0  0  0  0  0  0  0  0  0  0  0
   45.9510   34.9390   42.8060 C   0  0  1  0  0  0  0  0  0  0  0  0
   45.5250   32.8330   44.2850 C   0  0  0  0  0  0  0  0  0  0  0  0
   45.5290   31.6370   43.5790 C   0  0  0  0  0  0  0  0  0  0  0  0
   45.9910   30.5160   44.2490 C   0  0  0  0  0  0  0  0  0  0  0  0
   46.4130   30.6380   45.5500 N   0  0  0  0  0  0  0  0  0  0  0  0
   46.3840   31.8470   46.1910 C   0  0  0  0  0  0  0  0  0  0  0  0
   45.9460   32.9430   45.5740 N   0  0  0  0  0  0  0  0  0  0  0  0
   46.8600   31.8840   47.5990 C   0  0  0  0  0  0  0  0  0  0  0  0
   45.8460   32.5470   48.5300 C   0  0  0  0  0  0  0  0  0  0  0  0
   44.7650   31.4690   48.5830 C   0  0  0  0  0  0  0  0  0  0  0  0
   45.4980   30.1590   48.4220 C   0  0  0  0  0  0  0  0  0  0  0  0
   46.9570   30.5090   48.2270 C   0  0  0  0  0  0  0  0  0  0  0  0
   48.3740   33.8520   41.4220 C   0  0  1  0  0  0  0  0  0  0  0  0
   48.4620   32.3380   41.4310 C   0  0  0  0  0  0  0  0  0  0  0  0
   47.6370   34.3180   40.1880 C   0  0  0  0  0  0  0  0  0  0  0  0
   48.5110   34.6690   39.1260 N   0  0  0  0  0  0  0  0  0  0  0  0
   48.1510   33.9220   37.9580 C   0  0  0  0  0  0  0  0  0  0  0  0
   48.9780   33.6840   36.9010 C   0  0  0  0  0  0  0  0  0  0  0  0
   48.4150   32.9200   35.8830 C   0  0  0  0  0  0  0  0  0  0  0  0
   47.1610   32.4580   35.9410 N   0  0  0  0  0  0  0  0  0  0  0  0
   46.3610   32.7170   37.0170 C   0  0  0  0  0  0  0  0  0  0  0  0
   46.8660   33.4610   38.0420 N   0  0  0  0  0  0  0  0  0  0  0  0
   44.0873   33.4379   43.2606 H   0  0  0  0  0  0  0  0  0  0  0  0
   44.4341   36.1367   43.8658 H   0  0  0  0  0  0  0  0  0  0  0  0
   45.5302   35.8195   44.9359 H   0  0  0  0  0  0  0  0  0  0  0  0
   46.0781   35.3339   41.7872 H   0  0  0  0  0  0  0  0  0  0  0  0
   45.1816   31.5824   42.5367 H   0  0  0  0  0  0  0  0  0  0  0  0
   46.0195   29.5390   43.7444 H   0  0  0  0  0  0  0  0  0  0  0  0
   47.8244   32.4069   47.5184 H   0  0  0  0  0  0  0  0  0  0  0  0
   46.2746   32.7407   49.5244 H   0  0  0  0  0  0  0  0  0  0  0  0
   45.4924   33.5326   48.1931 H   0  0  0  0  0  0  0  0  0  0  0  0
   44.2381   31.4993   49.5481 H   0  0  0  0  0  0  0  0  0  0  0  0
   44.0055   31.6120   47.8002 H   0  0  0  0  0  0  0  0  0  0  0  0
   45.3721   29.5392   49.3220 H   0  0  0  0  0  0  0  0  0  0  0  0
   45.1074   29.5849   47.5688 H   0  0  0  0  0  0  0  0  0  0  0  0
   47.4545   29.7949   47.5543 H   0  0  0  0  0  0  0  0  0  0  0  0
   47.5511   30.4809   49.1523 H   0  0  0  0  0  0  0  0  0  0  0  0
   49.4052   34.2336   41.3912 H   0  0  0  0  0  0  0  0  0  0  0  0
   48.4829   31.9781   42.4702 H   0  0  0  0  0  0  0  0  0  0  0  0
   47.5868   31.9168   40.9146 H   0  0  0  0  0  0  0  0  0  0  0  0
   49.3801   32.0210   40.9146 H   0  0  0  0  0  0  0  0  0  0  0  0
   46.9761   33.5078   39.8463 H   0  0  0  0  0  0  0  0  0  0  0  0
   47.0690   35.2194   40.4616 H   0  0  0  0  0  0  0  0  0  0  0  0
   49.2804   35.3512   39.1857 H   0  0  0  0  0  0  0  0  0  0  0  0
   50.0087   34.0655   36.8561 H   0  0  0  0  0  0  0  0  0  0  0  0
   49.0243   32.6873   34.9972 H   0  0  0  0  0  0  0  0  0  0  0  0
   45.3308   32.3334   37.0560 H   0  0  0  0  0  0  0  0  0  0  0  0
  2  3  1  0
  2  5  1  0
  4  1  1  0
  4  2  1  0
  4  3  1  0
  5 10  2  0
  6  7  2  0
  6  5  1  0
  7  8  1  0
  8  9  2  0
  9 11  1  0
 10  9  1  0
 11 15  1  0
 11 12  1  0
 12 13  1  0
 14 13  1  0
 15 14  1  0
 16 17  1  0
 16  1  1  0
 18 16  1  0
 19 18  1  0
 20 25  1  0
 20 19  1  0
 21 20  2  0
 22 23  2  0
 22 21  1  0
 23 24  1  0
 24 25  2  0
  2 26  1  6
  3 27  1  0
  3 28  1  0
  4 29  1  6
  6 30  1  0
  7 31  1  0
 11 32  1  0
 12 33  1  0
 12 34  1  0
 13 35  1  0
 13 36  1  0
 14 37  1  0
 14 38  1  0
 15 39  1  0
 15 40  1  0
 16 41  1  6
 17 42  1  0
 17 43  1  0
 17 44  1  0
 18 45  1  0
 18 46  1  0
 19 47  1  0
 21 48  1  0
 22 49  1  0
 24 50  1  0
M  ISO  8  26  13  27  13  28  13  29  13  30  14  31  14  32  13  33  13
M  ISO  8  34  13  35  13  36  13  37  13  38  13  39  13  40  13  41   8
M  ISO  8  42   8  43   8  44   8  45   8  46   8  48  14  49  14  50  14
M  END
>  <minimizedAffinity>  (1) 
-5.19346333

>  <minimizedRMSD>  (1) 
0.98726517

$$$$
