
     RDKit          3D

 44 47  0  0  1  0  0  0  0  0999 V2000
   48.6180   34.1860   41.2560 C   0  0  1  0  0  0  0  0  0  0  0  0
   49.3530   32.8600   41.2480 C   0  0  0  0  0  0  0  0  0  0  0  0
   47.6900   34.2700   40.0660 C   0  0  0  0  0  0  0  0  0  0  0  0
   48.3400   34.7410   38.8960 N   0  0  0  0  0  0  0  0  0  0  0  0
   47.9880   33.8950   37.7920 C   0  0  0  0  0  0  0  0  0  0  0  0
   48.7910   33.6230   36.7250 C   0  0  0  0  0  0  0  0  0  0  0  0
   48.2430   32.7660   35.7840 C   0  0  0  0  0  0  0  0  0  0  0  0
   47.0180   32.2450   35.9150 N   0  0  0  0  0  0  0  0  0  0  0  0
   46.2370   32.5380   36.9970 C   0  0  0  0  0  0  0  0  0  0  0  0
   46.7410   33.3820   37.9540 N   0  0  0  0  0  0  0  0  0  0  0  0
   47.7630   34.5340   42.7990 S   0  0  0  0  0  0  0  0  0  0  0  0
   45.0590   34.1200   43.4150 C   0  0  1  0  0  0  0  0  0  0  0  0
   45.3150   35.5250   43.6950 C   0  0  0  0  0  0  0  0  0  0  0  0
   46.0520   34.9300   42.6050 C   0  0  1  0  0  0  0  0  0  0  0  0
   45.5730   33.0340   44.3340 C   0  0  0  0  0  0  0  0  0  0  0  0
   45.5280   31.7510   43.7980 C   0  0  0  0  0  0  0  0  0  0  0  0
   45.9640   30.7200   44.6160 C   0  0  0  0  0  0  0  0  0  0  0  0
   46.4070   31.0070   45.8850 N   0  0  0  0  0  0  0  0  0  0  0  0
   46.4250   32.2950   46.3490 C   0  0  0  0  0  0  0  0  0  0  0  0
   46.0150   33.3150   45.5930 N   0  0  0  0  0  0  0  0  0  0  0  0
   46.9270   32.4790   47.7360 C   0  0  0  0  0  0  0  0  0  0  0  0
   47.0430   31.3680   48.6890 C   0  0  0  0  0  0  0  0  0  0  0  0
   45.8940   32.2850   48.8850 C   0  0  0  0  0  0  0  0  0  0  0  0
   49.3804   34.9746   41.1734 H   0  0  0  0  0  0  0  0  0  0  0  0
   49.5334   32.5345   42.2831 H   0  0  0  0  0  0  0  0  0  0  0  0
   48.7439   32.1063   40.7275 H   0  0  0  0  0  0  0  0  0  0  0  0
   50.3150   32.9771   40.7275 H   0  0  0  0  0  0  0  0  0  0  0  0
   47.2852   33.2673   39.8641 H   0  0  0  0  0  0  0  0  0  0  0  0
   46.8945   34.9876   40.3155 H   0  0  0  0  0  0  0  0  0  0  0  0
   48.9642   35.5588   38.8471 H   0  0  0  0  0  0  0  0  0  0  0  0
   49.7985   34.0516   36.6187 H   0  0  0  0  0  0  0  0  0  0  0  0
   48.8375   32.5044   34.8962 H   0  0  0  0  0  0  0  0  0  0  0  0
   45.2296   32.1081   37.0983 H   0  0  0  0  0  0  0  0  0  0  0  0
   44.1601   33.5197   43.2110 H   0  0  0  0  0  0  0  0  0  0  0  0
   44.5360   36.2709   43.4784 H   0  0  0  0  0  0  0  0  0  0  0  0
   45.6103   36.0777   44.5991 H   0  0  0  0  0  0  0  0  0  0  0  0
   46.2010   35.1920   41.5471 H   0  0  0  0  0  0  0  0  0  0  0  0
   45.1648   31.5640   42.7767 H   0  0  0  0  0  0  0  0  0  0  0  0
   45.9554   29.6818   44.2527 H   0  0  0  0  0  0  0  0  0  0  0  0
   47.6326   33.2481   47.3887 H   0  0  0  0  0  0  0  0  0  0  0  0
   46.8598   30.3398   48.3438 H   0  0  0  0  0  0  0  0  0  0  0  0
   47.8519   31.0190   49.3476 H   0  0  0  0  0  0  0  0  0  0  0  0
   45.8749   32.9783   49.7388 H   0  0  0  0  0  0  0  0  0  0  0  0
   44.8014   32.1800   48.9571 H   0  0  0  0  0  0  0  0  0  0  0  0
  1 11  1  0
  2  1  1  0
  3  1  1  0
  4  3  1  0
  5 10  1  0
  5  4  1  0
  6  5  2  0
  7  8  2  0
  7  6  1  0
  8  9  1  0
  9 10  2  0
 12 13  1  0
 12 15  1  0
 14 11  1  0
 14 12  1  0
 14 13  1  0
 15 20  1  0
 16 15  2  0
 16 17  1  0
 17 18  2  0
 18 19  1  0
 19 21  1  0
 20 19  2  0
 21 22  1  0
 21 23  1  0
 22 23  1  0
  1 24  1  6
  2 25  1  0
  2 26  1  0
  2 27  1  0
  3 28  1  0
  3 29  1  0
  4 30  1  0
  6 31  1  0
  7 32  1  0
  9 33  1  0
 12 34  1  6
 13 35  1  0
 13 36  1  0
 14 37  1  6
 16 38  1  0
 17 39  1  0
 21 40  1  0
 22 41  1  0
 22 42  1  0
 23 43  1  0
 23 44  1  0
M  ISO  8  24   8  25   8  26   8  27   8  28   8  29   8  31  14  32  14
M  ISO  8  33  14  34  13  35  13  36  13  37  13  38  14  39  14  40  13
M  ISO  4  41  13  42  13  43  13  44  13
M  END
>  <minimizedAffinity>  (1) 
-4.97239208

>  <minimizedRMSD>  (1) 
0.77164346

$$$$
