
     RDKit          3D

 43 45  0  0  1  0  0  0  0  0999 V2000
   48.2590   33.8750   41.1850 C   0  0  1  0  0  0  0  0  0  0  0  0
   48.3820   32.3770   41.3850 C   0  0  0  0  0  0  0  0  0  0  0  0
   47.4540   34.1650   39.9380 C   0  0  0  0  0  0  0  0  0  0  0  0
   48.2570   34.6070   38.8550 N   0  0  0  0  0  0  0  0  0  0  0  0
   47.9450   33.8330   37.6930 C   0  0  0  0  0  0  0  0  0  0  0  0
   48.8320   33.5050   36.7150 C   0  0  0  0  0  0  0  0  0  0  0  0
   48.3120   32.7280   35.6820 C   0  0  0  0  0  0  0  0  0  0  0  0
   47.0260   32.3380   35.6650 N   0  0  0  0  0  0  0  0  0  0  0  0
   46.1610   32.6850   36.6620 C   0  0  0  0  0  0  0  0  0  0  0  0
   46.6330   33.4460   37.6930 N   0  0  0  0  0  0  0  0  0  0  0  0
   47.6130   34.7510   42.6170 S   0  0  0  0  0  0  0  0  0  0  0  0
   44.9220   34.3670   43.3040 C   0  0  1  0  0  0  0  0  0  0  0  0
   45.2170   35.7560   43.6210 C   0  0  0  0  0  0  0  0  0  0  0  0
   45.9040   35.1830   42.4880 C   0  0  1  0  0  0  0  0  0  0  0  0
   45.4420   33.2400   44.1680 C   0  0  0  0  0  0  0  0  0  0  0  0
   45.3520   31.9780   43.5900 C   0  0  0  0  0  0  0  0  0  0  0  0
   45.7930   30.9080   44.3550 C   0  0  0  0  0  0  0  0  0  0  0  0
   46.2820   31.1420   45.6120 N   0  0  0  0  0  0  0  0  0  0  0  0
   46.3450   32.4110   46.1230 C   0  0  0  0  0  0  0  0  0  0  0  0
   45.9310   33.4650   45.4200 N   0  0  0  0  0  0  0  0  0  0  0  0
   46.8960   32.5350   47.4980 C   0  0  0  0  0  0  0  0  0  0  0  0
   45.6980   32.3650   48.4330 C   0  0  0  0  0  0  0  0  0  0  0  0
   49.2795   34.2644   41.0547 H   0  0  0  0  0  0  0  0  0  0  0  0
   48.4005   32.1511   42.4614 H   0  0  0  0  0  0  0  0  0  0  0  0
   47.5222   31.8731   40.9193 H   0  0  0  0  0  0  0  0  0  0  0  0
   49.3125   32.0201   40.9193 H   0  0  0  0  0  0  0  0  0  0  0  0
   46.9313   33.2456   39.6355 H   0  0  0  0  0  0  0  0  0  0  0  0
   46.7496   34.9746   40.1797 H   0  0  0  0  0  0  0  0  0  0  0  0
   48.9536   35.3645   38.8985 H   0  0  0  0  0  0  0  0  0  0  0  0
   49.8828   33.8295   36.7381 H   0  0  0  0  0  0  0  0  0  0  0  0
   48.9730   32.4251   34.8566 H   0  0  0  0  0  0  0  0  0  0  0  0
   45.1104   32.3600   36.6358 H   0  0  0  0  0  0  0  0  0  0  0  0
   44.0041   33.7923   43.1114 H   0  0  0  0  0  0  0  0  0  0  0  0
   44.4474   36.5243   43.4556 H   0  0  0  0  0  0  0  0  0  0  0  0
   45.5540   36.2721   44.5321 H   0  0  0  0  0  0  0  0  0  0  0  0
   46.0225   35.4744   41.4339 H   0  0  0  0  0  0  0  0  0  0  0  0
   44.9507   31.8354   42.5758 H   0  0  0  0  0  0  0  0  0  0  0  0
   45.7502   29.8837   43.9562 H   0  0  0  0  0  0  0  0  0  0  0  0
   47.6442   31.7506   47.6848 H   0  0  0  0  0  0  0  0  0  0  0  0
   47.4002   33.5006   47.6509 H   0  0  0  0  0  0  0  0  0  0  0  0
   46.0386   32.4133   49.4778 H   0  0  0  0  0  0  0  0  0  0  0  0
   44.9706   33.1689   48.2469 H   0  0  0  0  0  0  0  0  0  0  0  0
   45.2230   31.3905   48.2469 H   0  0  0  0  0  0  0  0  0  0  0  0
  1  2  1  0
  1 11  1  0
  3  1  1  0
  4  3  1  0
  5  4  1  0
  6  5  2  0
  7  6  1  0
  8  7  2  0
  8  9  1  0
  9 10  2  0
 10  5  1  0
 12 13  1  0
 12 15  1  0
 14 11  1  0
 14 12  1  0
 14 13  1  0
 15 20  1  0
 16 15  2  0
 16 17  1  0
 17 18  2  0
 18 19  1  0
 19 21  1  0
 20 19  2  0
 21 22  1  0
  1 23  1  6
  2 24  1  0
  2 25  1  0
  2 26  1  0
  3 27  1  0
  3 28  1  0
  4 29  1  0
  6 30  1  0
  7 31  1  0
  9 32  1  0
 12 33  1  6
 13 34  1  0
 13 35  1  0
 14 36  1  6
 16 37  1  0
 17 38  1  0
 21 39  1  0
 21 40  1  0
 22 41  1  0
 22 42  1  0
 22 43  1  0
M  ISO  8  23   8  24   8  25   8  26   8  27   8  28   8  30  14  31  14
M  ISO  8  32  14  33  13  34  13  35  13  36  13  37  14  38  14  39   8
M  ISO  4  40   8  41   8  42   8  43   8
M  END
>  <minimizedAffinity>  (1) 
-4.61920977

>  <minimizedRMSD>  (1) 
0.395887494

$$$$
