
     RDKit          3D

 40 42  0  0  1  0  0  0  0  0999 V2000
   48.3200   33.8550   41.1870 C   0  0  1  0  0  0  0  0  0  0  0  0
   48.3470   32.3500   41.3630 C   0  0  0  0  0  0  0  0  0  0  0  0
   47.5860   34.2130   39.9140 C   0  0  0  0  0  0  0  0  0  0  0  0
   48.4670   34.5120   38.8400 N   0  0  0  0  0  0  0  0  0  0  0  0
   48.0590   33.7680   37.6830 C   0  0  0  0  0  0  0  0  0  0  0  0
   48.8870   33.4160   36.6570 C   0  0  0  0  0  0  0  0  0  0  0  0
   48.2820   32.6840   35.6460 C   0  0  0  0  0  0  0  0  0  0  0  0
   46.9850   32.3520   35.6800 N   0  0  0  0  0  0  0  0  0  0  0  0
   46.1850   32.7220   36.7230 C   0  0  0  0  0  0  0  0  0  0  0  0
   46.7420   33.4460   37.7410 N   0  0  0  0  0  0  0  0  0  0  0  0
   47.6590   34.7410   42.6050 S   0  0  0  0  0  0  0  0  0  0  0  0
   44.9690   34.3210   43.2810 C   0  0  1  0  0  0  0  0  0  0  0  0
   45.2410   35.7140   43.5980 C   0  0  0  0  0  0  0  0  0  0  0  0
   45.9460   35.1520   42.4730 C   0  0  1  0  0  0  0  0  0  0  0  0
   45.5020   33.2060   44.1530 C   0  0  0  0  0  0  0  0  0  0  0  0
   45.3730   31.9310   43.6050 C   0  0  0  0  0  0  0  0  0  0  0  0
   45.8250   30.8730   44.3810 C   0  0  0  0  0  0  0  0  0  0  0  0
   46.3630   31.1370   45.6180 N   0  0  0  0  0  0  0  0  0  0  0  0
   46.4610   32.4060   46.0940 C   0  0  0  0  0  0  0  0  0  0  0  0
   46.0400   33.4490   45.3810 N   0  0  0  0  0  0  0  0  0  0  0  0
   47.0630   32.5520   47.4460 C   0  0  0  0  0  0  0  0  0  0  0  0
   49.3663   34.1852   41.1079 H   0  0  0  0  0  0  0  0  0  0  0  0
   48.3514   32.1063   42.4357 H   0  0  0  0  0  0  0  0  0  0  0  0
   47.4566   31.9095   40.8905 H   0  0  0  0  0  0  0  0  0  0  0  0
   49.2526   31.9418   40.8905 H   0  0  0  0  0  0  0  0  0  0  0  0
   46.9512   33.3632   39.6226 H   0  0  0  0  0  0  0  0  0  0  0  0
   46.9896   35.1149   40.1161 H   0  0  0  0  0  0  0  0  0  0  0  0
   49.2682   35.1578   38.8848 H   0  0  0  0  0  0  0  0  0  0  0  0
   49.9517   33.6914   36.6335 H   0  0  0  0  0  0  0  0  0  0  0  0
   48.8890   32.3649   34.7859 H   0  0  0  0  0  0  0  0  0  0  0  0
   45.1206   32.4451   36.7439 H   0  0  0  0  0  0  0  0  0  0  0  0
   44.0619   33.7319   43.0807 H   0  0  0  0  0  0  0  0  0  0  0  0
   44.4614   36.4705   43.4250 H   0  0  0  0  0  0  0  0  0  0  0  0
   45.5625   36.2357   44.5115 H   0  0  0  0  0  0  0  0  0  0  0  0
   46.0702   35.4484   41.4210 H   0  0  0  0  0  0  0  0  0  0  0  0
   44.9353   31.7715   42.6085 H   0  0  0  0  0  0  0  0  0  0  0  0
   45.7538   29.8392   44.0119 H   0  0  0  0  0  0  0  0  0  0  0  0
   46.2951   32.3658   48.2113 H   0  0  0  0  0  0  0  0  0  0  0  0
   47.8813   31.8263   47.5634 H   0  0  0  0  0  0  0  0  0  0  0  0
   47.4579   33.5719   47.5634 H   0  0  0  0  0  0  0  0  0  0  0  0
  1  2  1  0
  1 11  1  0
  3  1  1  0
  4  3  1  0
  5 10  1  0
  5  4  1  0
  6  5  2  0
  7  8  2  0
  7  6  1  0
  8  9  1  0
  9 10  2  0
 12 13  1  0
 12 15  1  0
 14 11  1  0
 14 12  1  0
 14 13  1  0
 15 20  1  0
 16 15  2  0
 16 17  1  0
 17 18  2  0
 18 19  1  0
 19 21  1  0
 20 19  2  0
  1 22  1  6
  2 23  1  0
  2 24  1  0
  2 25  1  0
  3 26  1  0
  3 27  1  0
  4 28  1  0
  6 29  1  0
  7 30  1  0
  9 31  1  0
 12 32  1  6
 13 33  1  0
 13 34  1  0
 14 35  1  6
 16 36  1  0
 17 37  1  0
 21 38  1  0
 21 39  1  0
 21 40  1  0
M  ISO  8  22   8  23   8  24   8  25   8  26   8  27   8  29  14  30  14
M  ISO  8  31  14  32  13  33  13  34  13  35  13  36  14  37  14  38   8
M  ISO  2  39   8  40   8
M  END
>  <minimizedAffinity>  (1) 
-4.46600246

>  <minimizedRMSD>  (1) 
0.422467381

$$$$
