
     RDKit          3D

 26 27  0  0  1  0  0  0  0  0999 V2000
   44.5920   35.7350   44.9160 C   0  0  0  0  0  0  0  0  0  0  0  0
   45.1800   35.8080   43.6390 C   0  0  0  0  0  0  0  0  0  0  0  0
   46.0500   34.7680   43.2720 C   0  0  0  0  0  0  0  0  0  0  0  0
   46.2530   33.7830   44.1720 N   0  0  0  0  0  0  0  0  0  0  0  0
   45.6770   33.7390   45.3860 C   0  0  0  0  0  0  0  0  0  0  0  0
   44.8500   34.7170   45.7490 N   0  0  0  0  0  0  0  0  0  0  0  0
   46.0030   32.6190   46.2160 N   0  0  0  0  0  0  0  0  0  0  0  0
   47.1220   31.7900   45.9010 C   0  0  0  0  0  0  0  0  0  0  0  0
   47.7110   31.0680   47.0750 C   0  0  0  0  0  0  0  0  0  0  0  0
   47.0140   31.2790   48.3180 N   0  0  0  0  0  0  0  0  0  0  0  0
   45.5920   31.0970   48.0460 C   0  0  0  0  0  0  0  0  0  0  0  0
   45.1550   32.3780   47.3680 C   0  0  1  0  0  0  0  0  0  0  0  0
   45.0640   33.4970   48.2500 N   0  0  0  0  0  0  0  0  0  0  0  0
   43.9051   36.5317   45.2376 H   0  0  0  0  0  0  0  0  0  0  0  0
   44.9671   36.6445   42.9571 H   0  0  0  0  0  0  0  0  0  0  0  0
   46.5460   34.7569   42.2902 H   0  0  0  0  0  0  0  0  0  0  0  0
   46.7976   31.0404   45.1642 H   0  0  0  0  0  0  0  0  0  0  0  0
   47.9079   32.4577   45.5181 H   0  0  0  0  0  0  0  0  0  0  0  0
   47.7023   29.9903   46.8550 H   0  0  0  0  0  0  0  0  0  0  0  0
   48.7252   31.4710   47.2131 H   0  0  0  0  0  0  0  0  0  0  0  0
   47.3299   30.5958   49.0211 H   0  0  0  0  0  0  0  0  0  0  0  0
   45.4328   30.2345   47.3821 H   0  0  0  0  0  0  0  0  0  0  0  0
   45.0182   30.8988   48.9633 H   0  0  0  0  0  0  0  0  0  0  0  0
   44.1197   32.2454   47.0208 H   0  0  0  0  0  0  0  0  0  0  0  0
   45.0907   33.1682   49.2257 H   0  0  0  0  0  0  0  0  0  0  0  0
   45.8560   34.1332   48.0803 H   0  0  0  0  0  0  0  0  0  0  0  0
  1  6  2  0
  2  1  1  0
  3  2  2  0
  3  4  1  0
  4  5  2  0
  5  6  1  0
  5  7  1  0
  7 12  1  0
  8  7  1  0
  8  9  1  0
  9 10  1  0
 11 10  1  0
 12 11  1  0
 12 13  1  0
  1 14  1  0
  2 15  1  0
  3 16  1  0
  8 17  1  0
  8 18  1  0
  9 19  1  0
  9 20  1  0
 10 21  1  0
 11 22  1  0
 11 23  1  0
 12 24  1  6
 13 25  1  0
 13 26  1  0
M  ISO  8  14  14  15  14  16  14  17  13  18  13  19  13  20  13  21   5
M  ISO  5  22  13  23  13  24  13  25   5  26   5
M  END
>  <minimizedAffinity>  (1) 
-4.59194374

>  <minimizedRMSD>  (1) 
0.605982244

$$$$
