
     RDKit          3D

 31 32  0  0  1  0  0  0  0  0999 V2000
   48.1630   31.4710   43.7010 C   0  0  0  0  0  0  0  0  0  0  0  0
   47.8370   30.6850   44.8160 C   0  0  0  0  0  0  0  0  0  0  0  0
   46.7600   31.1280   45.5980 C   0  0  0  0  0  0  0  0  0  0  0  0
   46.0990   32.2720   45.2470 N   0  0  0  0  0  0  0  0  0  0  0  0
   46.4630   32.9820   44.1630 C   0  0  0  0  0  0  0  0  0  0  0  0
   47.4930   32.5930   43.3820 N   0  0  0  0  0  0  0  0  0  0  0  0
   45.6920   34.1640   43.8970 N   0  0  0  0  0  0  0  0  0  0  0  0
   44.8500   34.7060   44.9030 C   0  0  0  0  0  0  0  0  0  0  0  0
   44.5460   36.1600   44.7600 C   0  0  0  0  0  0  0  0  0  0  0  0
   45.1340   36.7720   43.6020 N   0  0  0  0  0  0  0  0  0  0  0  0
   44.8510   35.9200   42.4640 C   0  0  0  0  0  0  0  0  0  0  0  0
   45.8190   34.7570   42.5670 C   0  0  1  0  0  0  0  0  0  0  0  0
   47.1640   35.1070   42.2420 N   0  0  0  0  0  0  0  0  0  0  0  0
   47.6390   34.6770   40.9720 C   0  0  0  0  0  0  0  0  0  0  0  0
   47.1710   33.6600   40.3060 N   0  0  0  0  0  0  0  0  0  0  0  0
   48.7180   35.3570   40.3000 N   0  0  0  0  0  0  0  0  0  0  0  0
   46.3800   33.0800   40.6920 H   0  0  0  0  0  0  0  0  0  0  0  0
   49.0009   31.1571   43.0612 H   0  0  0  0  0  0  0  0  0  0  0  0
   48.3958   29.7705   45.0639 H   0  0  0  0  0  0  0  0  0  0  0  0
   46.4497   30.5592   46.4869 H   0  0  0  0  0  0  0  0  0  0  0  0
   43.8979   34.1555   44.8832 H   0  0  0  0  0  0  0  0  0  0  0  0
   45.3984   34.6000   45.8506 H   0  0  0  0  0  0  0  0  0  0  0  0
   43.4544   36.2798   44.6970 H   0  0  0  0  0  0  0  0  0  0  0  0
   44.9793   36.6618   45.6377 H   0  0  0  0  0  0  0  0  0  0  0  0
   44.7249   37.7053   43.4522 H   0  0  0  0  0  0  0  0  0  0  0  0
   45.0114   36.4697   41.5248 H   0  0  0  0  0  0  0  0  0  0  0  0
   43.8056   35.5777   42.4649 H   0  0  0  0  0  0  0  0  0  0  0  0
   45.5505   34.0076   41.8078 H   0  0  0  0  0  0  0  0  0  0  0  0
   47.7582   35.6417   42.8916 H   0  0  0  0  0  0  0  0  0  0  0  0
   49.0428   35.0249   39.3807 H   0  0  0  0  0  0  0  0  0  0  0  0
   49.1641   36.1749   40.7392 H   0  0  0  0  0  0  0  0  0  0  0  0
  1  2  2  0
  2  3  1  0
  4  3  2  0
  5  4  1  0
  6  1  1  0
  6  5  2  0
  7  5  1  0
  7  8  1  0
  9  8  1  0
 10  9  1  0
 11 12  1  0
 11 10  1  0
 12  7  1  0
 13 12  1  0
 14 13  1  0
 15 17  1  0
 15 14  2  0
 16 14  1  0
  1 18  1  0
  2 19  1  0
  3 20  1  0
  8 21  1  0
  8 22  1  0
  9 23  1  0
  9 24  1  0
 10 25  1  0
 11 26  1  0
 11 27  1  0
 12 28  1  6
 13 29  1  0
 16 30  1  0
 16 31  1  0
M  ISO  8  18  14  19  14  20  14  21  13  22  13  23  13  24  13  25   5
M  ISO  3  26  13  27  13  28  13
M  END
>  <minimizedAffinity>  (1) 
-4.53852844

>  <minimizedRMSD>  (1) 
6.49845934

$$$$
