
     RDKit          3D

 30 32  0  0  0  0  0  0  0  0999 V2000
   47.3690   33.5380   38.1280 C   0  0  0  0  0  0  0  0  0  0  0  0
   48.1620   33.1920   39.3330 C   0  0  0  0  0  0  0  0  0  0  0  0
   48.5580   31.8810   39.6190 C   0  0  0  0  0  0  0  0  0  0  0  0
   49.2530   31.8650   40.7700 N   0  0  0  0  0  0  0  0  0  0  0  0
   49.3270   33.1330   41.2550 C   0  0  0  0  0  0  0  0  0  0  0  0
   49.9220   33.6670   42.4060 C   0  0  0  0  0  0  0  0  0  0  0  0
   49.7880   35.0350   42.5820 C   0  0  0  0  0  0  0  0  0  0  0  0
   49.1210   35.8640   41.7080 C   0  0  0  0  0  0  0  0  0  0  0  0
   48.5320   35.3170   40.5620 C   0  0  0  0  0  0  0  0  0  0  0  0
   48.6550   33.9510   40.3690 C   0  0  0  0  0  0  0  0  0  0  0  0
   48.3120   33.8200   36.9960 C   0  0  0  0  0  0  0  0  0  0  0  0
   48.0260   32.9640   35.8260 C   0  0  0  0  0  0  0  0  0  0  0  0
   46.7940   32.2970   35.9600 C   0  0  0  0  0  0  0  0  0  0  0  0
   46.3720   31.4480   34.9460 C   0  0  0  0  0  0  0  0  0  0  0  0
   47.1710   31.2990   33.8700 N   0  0  0  0  0  0  0  0  0  0  0  0
   48.3640   31.9510   33.7520 C   0  0  0  0  0  0  0  0  0  0  0  0
   48.7540   32.7620   34.7320 N   0  0  0  0  0  0  0  0  0  0  0  0
   46.7131   32.6959   37.8622 H   0  0  0  0  0  0  0  0  0  0  0  0
   46.7493   34.4243   38.3291 H   0  0  0  0  0  0  0  0  0  0  0  0
   48.3354   31.0003   38.9987 H   0  0  0  0  0  0  0  0  0  0  0  0
   49.6621   31.0293   41.2117 H   0  0  0  0  0  0  0  0  0  0  0  0
   50.4635   33.0373   43.1273 H   0  0  0  0  0  0  0  0  0  0  0  0
   50.2429   35.4869   43.4758 H   0  0  0  0  0  0  0  0  0  0  0  0
   49.0518   36.9435   41.9080 H   0  0  0  0  0  0  0  0  0  0  0  0
   47.9916   35.9485   39.8415 H   0  0  0  0  0  0  0  0  0  0  0  0
   48.2103   34.8747   36.7005 H   0  0  0  0  0  0  0  0  0  0  0  0
   49.3353   33.6058   37.3381 H   0  0  0  0  0  0  0  0  0  0  0  0
   46.1738   32.4464   36.8561 H   0  0  0  0  0  0  0  0  0  0  0  0
   45.4139   30.9125   35.0181 H   0  0  0  0  0  0  0  0  0  0  0  0
   48.9931   31.8083   32.8610 H   0  0  0  0  0  0  0  0  0  0  0  0
  1  2  1  0
  2  3  2  0
  2 10  1  0
  3  4  1  0
  4  5  1  0
  5  6  2  0
  6  7  1  0
  8  7  2  0
  9  8  1  0
 10  9  2  0
 10  5  1  0
 11  1  1  0
 12 13  2  0
 12 11  1  0
 14 13  1  0
 15 14  2  0
 16 15  1  0
 16 17  2  0
 17 12  1  0
  1 18  1  0
  1 19  1  0
  3 20  1  0
  4 21  1  0
  6 22  1  0
  7 23  1  0
  8 24  1  0
  9 25  1  0
 11 26  1  0
 11 27  1  0
 13 28  1  0
 14 29  1  0
 16 30  1  0
M  ISO  8  18   8  19   8  20  14  21   9  22  14  23  14  24  14  25  14
M  ISO  5  26   8  27   8  28  14  29  14  30  14
M  END
>  <minimizedAffinity>  (1) 
-4.5944829

>  <minimizedRMSD>  (1) 
6.78960943

$$$$
