
     RDKit          3D

 23 24  0  0  0  0  0  0  0  0999 V2000
   46.3080   32.6750   45.2360 C   0  0  0  0  0  0  0  0  0  0  0  0
   45.7720   33.9520   44.7430 C   0  0  0  0  0  0  0  0  0  0  0  0
   46.2720   34.2730   43.4700 C   0  0  0  0  0  0  0  0  0  0  0  0
   45.8680   35.4650   42.8390 C   0  0  0  0  0  0  0  0  0  0  0  0
   44.9920   36.2560   43.5240 N   0  0  0  0  0  0  0  0  0  0  0  0
   44.5350   35.9080   44.7510 C   0  0  0  0  0  0  0  0  0  0  0  0
   44.9190   34.7820   45.3420 N   0  0  0  0  0  0  0  0  0  0  0  0
   46.7640   32.7920   46.6800 C   0  0  0  0  0  0  0  0  0  0  0  0
   46.1070   31.8890   47.5720 N   0  0  0  0  0  0  0  0  0  0  0  0
   45.6300   30.6670   47.4750 N   0  0  0  0  0  0  0  0  0  0  0  0
   45.0890   30.2400   48.6210 C   0  0  0  0  0  0  0  0  0  0  0  0
   45.2300   31.2720   49.5290 C   0  0  0  0  0  0  0  0  0  0  0  0
   45.8670   32.2900   48.8520 C   0  0  0  0  0  0  0  0  0  0  0  0
   47.1646   32.3805   44.6119 H   0  0  0  0  0  0  0  0  0  0  0  0
   45.5111   31.9187   45.1824 H   0  0  0  0  0  0  0  0  0  0  0  0
   46.9773   33.5948   42.9675 H   0  0  0  0  0  0  0  0  0  0  0  0
   46.2403   35.7450   41.8425 H   0  0  0  0  0  0  0  0  0  0  0  0
   43.8294   36.5734   45.2700 H   0  0  0  0  0  0  0  0  0  0  0  0
   47.8449   32.5914   46.7188 H   0  0  0  0  0  0  0  0  0  0  0  0
   46.5098   33.8092   47.0126 H   0  0  0  0  0  0  0  0  0  0  0  0
   44.6235   29.2604   48.8046 H   0  0  0  0  0  0  0  0  0  0  0  0
   44.9009   31.2797   50.5786 H   0  0  0  0  0  0  0  0  0  0  0  0
   46.1378   33.2680   49.2765 H   0  0  0  0  0  0  0  0  0  0  0  0
  1  8  1  0
  2  1  1  0
  2  7  1  0
  3  2  2  0
  4  3  1  0
  4  5  2  0
  5  6  1  0
  6  7  2  0
  8  9  1  0
  9 13  1  0
 10  9  1  0
 10 11  2  0
 11 12  1  0
 13 12  2  0
  1 14  1  0
  1 15  1  0
  3 16  1  0
  4 17  1  0
  6 18  1  0
  8 19  1  0
  8 20  1  0
 11 21  1  0
 12 22  1  0
 13 23  1  0
M  ISO  8  14   8  15   8  16  14  17  14  18  14  19   8  20   8  21  14
M  ISO  2  22  14  23  14
M  END
>  <minimizedAffinity>  (1) 
-4.44418669

>  <minimizedRMSD>  (1) 
6.3821907

$$$$
