
     RDKit          3D

 23 24  0  0  0  0  0  0  0  0999 V2000
   46.0010   34.7710   43.1440 C   0  0  0  0  0  0  0  0  0  0  0  0
   45.2720   35.9820   43.2890 C   0  0  0  0  0  0  0  0  0  0  0  0
   44.5890   36.2370   44.4760 C   0  0  0  0  0  0  0  0  0  0  0  0
   44.6580   35.2990   45.4460 N   0  0  0  0  0  0  0  0  0  0  0  0
   45.3670   34.1430   45.2800 C   0  0  0  0  0  0  0  0  0  0  0  0
   46.0180   33.9040   44.1440 N   0  0  0  0  0  0  0  0  0  0  0  0
   46.6560   34.6710   41.8310 C   0  0  0  0  0  0  0  0  0  0  0  0
   48.0400   35.2980   41.8610 C   0  0  0  0  0  0  0  0  0  0  0  0
   48.9490   34.3320   42.6170 C   0  0  0  0  0  0  0  0  0  0  0  0
   49.6810   33.2990   41.8580 C   0  0  0  0  0  0  0  0  0  0  0  0
   50.4150   34.4190   42.5250 C   0  0  0  0  0  0  0  0  0  0  0  0
   45.2471   36.7141   42.4684 H   0  0  0  0  0  0  0  0  0  0  0  0
   44.0162   37.1653   44.6180 H   0  0  0  0  0  0  0  0  0  0  0  0
   45.4001   33.4027   46.0930 H   0  0  0  0  0  0  0  0  0  0  0  0
   46.0415   35.1924   41.0823 H   0  0  0  0  0  0  0  0  0  0  0  0
   46.7600   33.6069   41.5725 H   0  0  0  0  0  0  0  0  0  0  0  0
   48.4117   35.4432   40.8359 H   0  0  0  0  0  0  0  0  0  0  0  0
   48.0157   36.2817   42.3526 H   0  0  0  0  0  0  0  0  0  0  0  0
   48.2432   34.3383   43.4606 H   0  0  0  0  0  0  0  0  0  0  0  0
   49.6068   33.2638   40.7611 H   0  0  0  0  0  0  0  0  0  0  0  0
   49.7374   32.2008   41.8868 H   0  0  0  0  0  0  0  0  0  0  0  0
   51.0354   34.2205   43.4114 H   0  0  0  0  0  0  0  0  0  0  0  0
   51.1316   35.1864   42.1970 H   0  0  0  0  0  0  0  0  0  0  0  0
  1  2  2  0
  1  6  1  0
  2  3  1  0
  3  4  2  0
  5  4  1  0
  6  5  2  0
  7  8  1  0
  7  1  1  0
  8  9  1  0
 10 11  1  0
 10  9  1  0
 11  9  1  0
  2 12  1  0
  3 13  1  0
  5 14  1  0
  7 15  1  0
  7 16  1  0
  8 17  1  0
  8 18  1  0
  9 19  1  0
 10 20  1  0
 10 21  1  0
 11 22  1  0
 11 23  1  0
M  ISO  8  12  14  13  14  14  14  15   8  16   8  17   8  18   8  19  13
M  ISO  4  20  13  21  13  22  13  23  13
M  END
>  <minimizedAffinity>  (1) 
-4.04371119

>  <minimizedRMSD>  (1) 
1.2157346

$$$$
