
     RDKit          3D

 24 25  0  0  0  0  0  0  0  0999 V2000
   46.4480   34.4890   41.6950 C   0  0  0  0  0  0  0  0  0  0  0  0
   45.9170   34.6060   43.0510 C   0  0  0  0  0  0  0  0  0  0  0  0
   45.1580   35.7780   43.2370 C   0  0  0  0  0  0  0  0  0  0  0  0
   44.5830   36.0350   44.4780 C   0  0  0  0  0  0  0  0  0  0  0  0
   44.7820   35.1310   45.4690 N   0  0  0  0  0  0  0  0  0  0  0  0
   45.5280   33.9990   45.2490 C   0  0  0  0  0  0  0  0  0  0  0  0
   46.0840   33.7500   44.0500 N   0  0  0  0  0  0  0  0  0  0  0  0
   47.8100   35.1290   41.5510 C   0  0  0  0  0  0  0  0  0  0  0  0
   48.8590   34.1710   41.6200 N   0  0  0  0  0  0  0  0  0  0  0  0
   49.0130   32.9920   41.0020 C   0  0  0  0  0  0  0  0  0  0  0  0
   50.1860   32.3520   41.3400 C   0  0  0  0  0  0  0  0  0  0  0  0
   50.7820   33.2080   42.2270 N   0  0  0  0  0  0  0  0  0  0  0  0
   49.9920   34.2760   42.3850 C   0  0  0  0  0  0  0  0  0  0  0  0
   50.2660   35.3660   43.2140 O   0  0  0  0  0  0  0  0  0  0  0  0
   46.5303   33.4224   41.4389 H   0  0  0  0  0  0  0  0  0  0  0  0
   45.7578   35.0145   41.0186 H   0  0  0  0  0  0  0  0  0  0  0  0
   45.0206   36.4859   42.4063 H   0  0  0  0  0  0  0  0  0  0  0  0
   43.9859   36.9428   44.6496 H   0  0  0  0  0  0  0  0  0  0  0  0
   45.6737   33.2816   46.0700 H   0  0  0  0  0  0  0  0  0  0  0  0
   47.9451   35.8623   42.3597 H   0  0  0  0  0  0  0  0  0  0  0  0
   47.8556   35.6122   40.5639 H   0  0  0  0  0  0  0  0  0  0  0  0
   48.2780   32.5771   40.2966 H   0  0  0  0  0  0  0  0  0  0  0  0
   50.5567   31.3805   40.9810 H   0  0  0  0  0  0  0  0  0  0  0  0
   51.1018   35.3869   43.7441 H   0  0  0  0  0  0  0  0  0  0  0  0
  1  2  1  0
  2  3  2  0
  2  7  1  0
  3  4  1  0
  4  5  2  0
  6  5  1  0
  7  6  2  0
  8  9  1  0
  8  1  1  0
  9 13  1  0
 10 11  2  0
 10  9  1  0
 11 12  1  0
 12 13  2  0
 13 14  1  0
  1 15  1  0
  1 16  1  0
  3 17  1  0
  4 18  1  0
  6 19  1  0
  8 20  1  0
  8 21  1  0
 10 22  1  0
 11 23  1  0
 14 24  1  0
M  ISO  8  15   8  16   8  17  14  18  14  19  14  20   8  21   8  22  14
M  ISO  2  23  14  24   3
M  END
>  <minimizedAffinity>  (1) 
-4.99137592

>  <minimizedRMSD>  (1) 
0.249261871

$$$$
