
     RDKit          3D

 43 46  0  0  0  0  0  0  0  0999 V2000
   46.3120   35.1910   41.8100 C   0  0  0  0  0  0  0  0  0  0  0  0
   45.8980   34.9320   43.1830 C   0  0  0  0  0  0  0  0  0  0  0  0
   45.0170   35.8950   43.6960 C   0  0  0  0  0  0  0  0  0  0  0  0
   44.5270   35.7830   44.9780 C   0  0  0  0  0  0  0  0  0  0  0  0
   44.9150   34.7380   45.7150 N   0  0  0  0  0  0  0  0  0  0  0  0
   45.7820   33.7990   45.1990 C   0  0  0  0  0  0  0  0  0  0  0  0
   46.2670   33.9160   43.9220 N   0  0  0  0  0  0  0  0  0  0  0  0
   46.1590   32.7070   46.0340 N   0  0  0  0  0  0  0  0  0  0  0  0
   45.6080   32.6230   47.2620 C   0  0  0  0  0  0  0  0  0  0  0  0
   45.9620   31.5630   48.0920 C   0  0  0  0  0  0  0  0  0  0  0  0
   45.3250   31.5210   49.4340 C   0  0  0  0  0  0  0  0  0  0  0  0
   46.8610   30.6640   47.6000 C   0  0  0  0  0  0  0  0  0  0  0  0
   47.1680   29.7110   48.3690 O   0  0  0  0  0  0  0  0  0  0  0  0
   47.3910   30.7830   46.3620 N   0  0  0  0  0  0  0  0  0  0  0  0
   47.0460   31.8080   45.5630 C   0  0  0  0  0  0  0  0  0  0  0  0
   47.5540   31.9060   44.4010 O   0  0  0  0  0  0  0  0  0  0  0  0
   47.8050   35.0190   41.6260 C   0  0  0  0  0  0  0  0  0  0  0  0
   48.1170   34.1130   40.5610 N   0  0  0  0  0  0  0  0  0  0  0  0
   47.6840   34.0680   39.2940 C   0  0  0  0  0  0  0  0  0  0  0  0
   48.2360   33.0280   38.5820 C   0  0  0  0  0  0  0  0  0  0  0  0
   49.0430   32.4220   39.4780 N   0  0  0  0  0  0  0  0  0  0  0  0
   48.9620   33.0770   40.6510 C   0  0  0  0  0  0  0  0  0  0  0  0
   49.7670   32.5740   41.8090 C   0  0  0  0  0  0  0  0  0  0  0  0
   51.2410   32.2890   41.6180 C   0  0  0  0  0  0  0  0  0  0  0  0
   50.7940   33.4790   42.3990 C   0  0  0  0  0  0  0  0  0  0  0  0
   45.7888   34.4900   41.1430 H   0  0  0  0  0  0  0  0  0  0  0  0
   46.0578   36.2338   41.5693 H   0  0  0  0  0  0  0  0  0  0  0  0
   44.7149   36.7469   43.0691 H   0  0  0  0  0  0  0  0  0  0  0  0
   43.8341   36.5343   45.3849 H   0  0  0  0  0  0  0  0  0  0  0  0
   44.8885   33.3819   47.6032 H   0  0  0  0  0  0  0  0  0  0  0  0
   46.1023   31.5723   50.2106 H   0  0  0  0  0  0  0  0  0  0  0  0
   44.6415   32.3760   49.5424 H   0  0  0  0  0  0  0  0  0  0  0  0
   44.7597   30.5836   49.5424 H   0  0  0  0  0  0  0  0  0  0  0  0
   48.0663   30.0810   46.0273 H   0  0  0  0  0  0  0  0  0  0  0  0
   48.2495   35.9993   41.3991 H   0  0  0  0  0  0  0  0  0  0  0  0
   48.2145   34.6003   42.5571 H   0  0  0  0  0  0  0  0  0  0  0  0
   46.9655   34.7844   38.8692 H   0  0  0  0  0  0  0  0  0  0  0  0
   48.0609   32.7550   37.5309 H   0  0  0  0  0  0  0  0  0  0  0  0
   48.9107   31.9997   42.1923 H   0  0  0  0  0  0  0  0  0  0  0  0
   51.7089   31.4362   42.1317 H   0  0  0  0  0  0  0  0  0  0  0  0
   51.8990   32.1256   40.7518 H   0  0  0  0  0  0  0  0  0  0  0  0
   50.9353   34.4889   41.9865 H   0  0  0  0  0  0  0  0  0  0  0  0
   50.9980   33.8594   43.4108 H   0  0  0  0  0  0  0  0  0  0  0  0
  1  2  1  0
  2  3  2  0
  2  7  1  0
  3  4  1  0
  4  5  2  0
  6  5  1  0
  6  8  1  0
  7  6  2  0
  8  9  1  0
  9 10  2  0
 10 11  1  0
 12 10  1  0
 12 13  2  0
 14 12  1  0
 15  8  1  0
 15 14  1  0
 16 15  2  0
 17  1  1  0
 18 22  1  0
 18 17  1  0
 19 18  1  0
 20 19  2  0
 20 21  1  0
 21 22  2  0
 22 23  1  0
 23 25  1  0
 24 23  1  0
 24 25  1  0
  1 26  1  0
  1 27  1  0
  3 28  1  0
  4 29  1  0
  9 30  1  0
 11 31  1  0
 11 32  1  0
 11 33  1  0
 14 34  1  0
 17 35  1  0
 17 36  1  0
 19 37  1  0
 20 38  1  0
 23 39  1  0
 24 40  1  0
 24 41  1  0
 25 42  1  0
 25 43  1  0
M  ISO  8  26   8  27   8  28  14  29  14  30  14  31   8  32   8  33   8
M  ISO  8  34   9  35   8  36   8  37  14  38  14  39  13  40  13  41  13
M  ISO  2  42  13  43  13
M  END
>  <minimizedAffinity>  (1) 
-6.49058437

>  <minimizedRMSD>  (1) 
0.399400771

$$$$
