
     RDKit          3D

 44 48  0  0  0  0  0  0  0  0999 V2000
   46.3250   35.2670   41.7700 C   0  0  0  0  0  0  0  0  0  0  0  0
   45.9350   34.9260   43.1270 C   0  0  0  0  0  0  0  0  0  0  0  0
   45.0780   35.8190   43.7390 C   0  0  0  0  0  0  0  0  0  0  0  0
   44.6340   35.5870   45.0200 C   0  0  0  0  0  0  0  0  0  0  0  0
   45.0460   34.4940   45.6500 N   0  0  0  0  0  0  0  0  0  0  0  0
   45.8930   33.6000   45.0620 C   0  0  0  0  0  0  0  0  0  0  0  0
   46.3060   33.8740   43.7890 N   0  0  0  0  0  0  0  0  0  0  0  0
   46.4900   32.3290   45.5430 C   0  0  0  0  0  0  0  0  0  0  0  0
   47.3210   31.5740   44.8040 N   0  0  0  0  0  0  0  0  0  0  0  0
   47.8540   30.4370   45.2380 C   0  0  0  0  0  0  0  0  0  0  0  0
   47.5940   29.9480   46.4800 N   0  0  0  0  0  0  0  0  0  0  0  0
   46.7600   30.6490   47.3060 C   0  0  0  0  0  0  0  0  0  0  0  0
   46.5000   30.1530   48.5600 C   0  0  0  0  0  0  0  0  0  0  0  0
   45.6620   30.8450   49.4050 C   0  0  0  0  0  0  0  0  0  0  0  0
   45.1100   32.0340   48.9370 C   0  0  0  0  0  0  0  0  0  0  0  0
   45.4270   32.4530   47.6690 C   0  0  0  0  0  0  0  0  0  0  0  0
   46.2460   31.8120   46.7930 C   0  0  0  0  0  0  0  0  0  0  0  0
   47.8130   35.1260   41.5330 C   0  0  0  0  0  0  0  0  0  0  0  0
   48.1140   34.1540   40.5340 N   0  0  0  0  0  0  0  0  0  0  0  0
   47.7000   34.0450   39.2570 C   0  0  0  0  0  0  0  0  0  0  0  0
   48.2430   32.9370   38.6170 C   0  0  0  0  0  0  0  0  0  0  0  0
   49.0220   32.3590   39.5700 N   0  0  0  0  0  0  0  0  0  0  0  0
   48.9260   33.0930   40.6810 C   0  0  0  0  0  0  0  0  0  0  0  0
   49.6960   32.6550   41.8960 C   0  0  0  0  0  0  0  0  0  0  0  0
   51.1570   32.2730   41.7180 C   0  0  0  0  0  0  0  0  0  0  0  0
   50.7800   33.5330   42.4190 C   0  0  0  0  0  0  0  0  0  0  0  0
   45.7939   34.6010   41.0741 H   0  0  0  0  0  0  0  0  0  0  0  0
   46.0627   36.3226   41.6060 H   0  0  0  0  0  0  0  0  0  0  0  0
   44.7490   36.7196   43.1999 H   0  0  0  0  0  0  0  0  0  0  0  0
   43.9504   36.2940   45.5129 H   0  0  0  0  0  0  0  0  0  0  0  0
   48.5256   29.8744   44.5728 H   0  0  0  0  0  0  0  0  0  0  0  0
   46.9587   29.2083   48.8873 H   0  0  0  0  0  0  0  0  0  0  0  0
   45.4365   30.4714   50.4147 H   0  0  0  0  0  0  0  0  0  0  0  0
   44.4333   32.6260   49.5707 H   0  0  0  0  0  0  0  0  0  0  0  0
   44.9757   33.3969   47.3292 H   0  0  0  0  0  0  0  0  0  0  0  0
   48.2134   36.0988   41.2115 H   0  0  0  0  0  0  0  0  0  0  0  0
   48.2728   34.7927   42.4750 H   0  0  0  0  0  0  0  0  0  0  0  0
   47.0099   34.7530   38.7748 H   0  0  0  0  0  0  0  0  0  0  0  0
   48.0804   32.6051   37.5810 H   0  0  0  0  0  0  0  0  0  0  0  0
   48.8051   32.1783   42.3308 H   0  0  0  0  0  0  0  0  0  0  0  0
   51.5805   31.4312   42.2855 H   0  0  0  0  0  0  0  0  0  0  0  0
   51.7994   32.0162   40.8628 H   0  0  0  0  0  0  0  0  0  0  0  0
   50.9753   34.5039   41.9402 H   0  0  0  0  0  0  0  0  0  0  0  0
   51.0127   33.9655   43.4033 H   0  0  0  0  0  0  0  0  0  0  0  0
  1  2  1  0
  2  3  2  0
  2  7  1  0
  3  4  1  0
  4  5  2  0
  6  8  1  0
  6  5  1  0
  7  6  2  0
  8 17  2  0
  9 10  2  0
  9  8  1  0
 10 11  1  0
 11 12  2  0
 12 13  1  0
 13 14  2  0
 15 14  1  0
 16 15  2  0
 17 12  1  0
 17 16  1  0
 18  1  1  0
 19 23  1  0
 19 18  1  0
 20 19  1  0
 21 20  2  0
 21 22  1  0
 22 23  2  0
 23 24  1  0
 24 26  1  0
 25 24  1  0
 25 26  1  0
  1 27  1  0
  1 28  1  0
  3 29  1  0
  4 30  1  0
 10 31  1  0
 13 32  1  0
 14 33  1  0
 15 34  1  0
 16 35  1  0
 18 36  1  0
 18 37  1  0
 20 38  1  0
 21 39  1  0
 24 40  1  0
 25 41  1  0
 25 42  1  0
 26 43  1  0
 26 44  1  0
M  ISO  8  27   8  28   8  29  14  30  14  31  14  32  14  33  14  34  14
M  ISO  8  35  14  36   8  37   8  38  14  39  14  40  13  41  13  42  13
M  ISO  2  43  13  44  13
M  END
>  <minimizedAffinity>  (1) 
-6.16555166

>  <minimizedRMSD>  (1) 
1.22131884

$$$$
