
     RDKit          3D

 44 48  0  0  0  0  0  0  0  0999 V2000
   45.2560   34.2640   42.9970 C   0  0  0  0  0  0  0  0  0  0  0  0
   44.7000   35.5130   43.3170 C   0  0  0  0  0  0  0  0  0  0  0  0
   44.5130   35.8850   44.6290 C   0  0  0  0  0  0  0  0  0  0  0  0
   44.8740   35.0270   45.5860 N   0  0  0  0  0  0  0  0  0  0  0  0
   45.4180   33.8040   45.2610 C   0  0  0  0  0  0  0  0  0  0  0  0
   45.6000   33.4440   43.9520 N   0  0  0  0  0  0  0  0  0  0  0  0
   45.8080   32.8800   46.2960 N   0  0  0  0  0  0  0  0  0  0  0  0
   45.5430   32.7190   47.5950 C   0  0  0  0  0  0  0  0  0  0  0  0
   46.2090   31.6530   48.0590 N   0  0  0  0  0  0  0  0  0  0  0  0
   46.9190   31.1150   47.0340 C   0  0  0  0  0  0  0  0  0  0  0  0
   47.7470   30.0170   47.0280 C   0  0  0  0  0  0  0  0  0  0  0  0
   47.9890   29.3010   48.0320 O   0  0  0  0  0  0  0  0  0  0  0  0
   48.3540   29.6620   45.8870 N   0  0  0  0  0  0  0  0  0  0  0  0
   48.1110   30.4130   44.7970 C   0  0  0  0  0  0  0  0  0  0  0  0
   48.6400   30.2320   43.4740 N   0  0  0  0  0  0  0  0  0  0  0  0
   47.3020   31.4730   44.8300 N   0  0  0  0  0  0  0  0  0  0  0  0
   46.6540   31.8960   45.9370 C   0  0  0  0  0  0  0  0  0  0  0  0
   45.3830   34.0160   41.5770 C   0  0  0  0  0  0  0  0  0  0  0  0
   46.6570   34.5950   41.0010 C   0  0  0  0  0  0  0  0  0  0  0  0
   47.5380   33.5890   40.5130 N   0  0  0  0  0  0  0  0  0  0  0  0
   47.4930   32.8460   39.3970 C   0  0  0  0  0  0  0  0  0  0  0  0
   48.5530   31.9800   39.2880 C   0  0  0  0  0  0  0  0  0  0  0  0
   49.2790   32.2180   40.4080 N   0  0  0  0  0  0  0  0  0  0  0  0
   48.6590   33.1780   41.1250 C   0  0  0  0  0  0  0  0  0  0  0  0
   49.2720   33.6010   42.4370 C   0  0  0  0  0  0  0  0  0  0  0  0
   50.7570   33.8500   42.5040 C   0  0  0  0  0  0  0  0  0  0  0  0
   49.8010   34.9980   42.5250 C   0  0  0  0  0  0  0  0  0  0  0  0
   44.4105   36.2021   42.5100 H   0  0  0  0  0  0  0  0  0  0  0  0
   44.0778   36.8630   44.8822 H   0  0  0  0  0  0  0  0  0  0  0  0
   44.8801   33.3625   48.1920 H   0  0  0  0  0  0  0  0  0  0  0  0
   48.9818   28.8465   45.8460 H   0  0  0  0  0  0  0  0  0  0  0  0
   49.2851   29.4530   43.2794 H   0  0  0  0  0  0  0  0  0  0  0  0
   48.3743   30.8812   42.7198 H   0  0  0  0  0  0  0  0  0  0  0  0
   45.3805   32.9293   41.4068 H   0  0  0  0  0  0  0  0  0  0  0  0
   44.5356   34.5051   41.0744 H   0  0  0  0  0  0  0  0  0  0  0  0
   46.3955   35.2684   40.1714 H   0  0  0  0  0  0  0  0  0  0  0  0
   47.1760   35.1327   41.8082 H   0  0  0  0  0  0  0  0  0  0  0  0
   46.6911   32.9225   38.6479 H   0  0  0  0  0  0  0  0  0  0  0  0
   48.7636   31.2620   38.4817 H   0  0  0  0  0  0  0  0  0  0  0  0
   48.5686   32.9837   43.0151 H   0  0  0  0  0  0  0  0  0  0  0  0
   51.3192   33.5851   43.4116 H   0  0  0  0  0  0  0  0  0  0  0  0
   51.6227   33.5684   41.8865 H   0  0  0  0  0  0  0  0  0  0  0  0
   49.7288   35.6677   41.6553 H   0  0  0  0  0  0  0  0  0  0  0  0
   49.6289   35.8506   43.1984 H   0  0  0  0  0  0  0  0  0  0  0  0
  1  2  2  0
  1  6  1  0
  2  3  1  0
  3  4  2  0
  5  4  1  0
  5  7  1  0
  6  5  2  0
  7  8  1  0
  8  9  2  0
 10  9  1  0
 11 10  1  0
 11 12  2  0
 13 11  1  0
 14 16  2  0
 14 13  1  0
 15 14  1  0
 16 17  1  0
 17  7  1  0
 17 10  2  0
 18  1  1  0
 19 18  1  0
 20 19  1  0
 20 24  1  0
 21 20  1  0
 22 21  2  0
 22 23  1  0
 23 24  2  0
 24 25  1  0
 25 26  1  0
 25 27  1  0
 26 27  1  0
  2 28  1  0
  3 29  1  0
  8 30  1  0
 13 31  1  0
 15 32  1  0
 15 33  1  0
 18 34  1  0
 18 35  1  0
 19 36  1  0
 19 37  1  0
 21 38  1  0
 22 39  1  0
 25 40  1  0
 26 41  1  0
 26 42  1  0
 27 43  1  0
 27 44  1  0
M  ISO  8  28  14  29  14  30  14  31   9  34   8  35   8  36   8  37   8
M  ISO  7  38  14  39  14  40  13  41  13  42  13  43  13  44  13
M  END
>  <minimizedAffinity>  (1) 
-6.14756203

>  <minimizedRMSD>  (1) 
0.90648067

$$$$
