
     RDKit          3D

 46 49  0  0  0  0  0  0  0  0999 V2000
   47.5150   34.8040   41.7100 C   0  0  0  0  0  0  0  0  0  0  0  0
   47.9680   34.0120   40.6220 N   0  0  0  0  0  0  0  0  0  0  0  0
   47.5960   33.9890   39.3320 C   0  0  0  0  0  0  0  0  0  0  0  0
   48.2910   33.0720   38.5850 C   0  0  0  0  0  0  0  0  0  0  0  0
   49.1380   32.5040   39.4830 N   0  0  0  0  0  0  0  0  0  0  0  0
   48.9270   33.0790   40.6900 C   0  0  0  0  0  0  0  0  0  0  0  0
   49.7400   32.5900   41.8620 C   0  0  0  0  0  0  0  0  0  0  0  0
   51.2060   32.2980   41.6630 C   0  0  0  0  0  0  0  0  0  0  0  0
   50.7780   33.5210   42.4080 C   0  0  0  0  0  0  0  0  0  0  0  0
   46.0220   34.6910   41.9250 C   0  0  0  0  0  0  0  0  0  0  0  0
   45.6700   34.6630   43.3350 C   0  0  0  0  0  0  0  0  0  0  0  0
   44.8420   35.7140   43.7540 C   0  0  0  0  0  0  0  0  0  0  0  0
   44.4220   35.8190   45.0610 C   0  0  0  0  0  0  0  0  0  0  0  0
   44.8350   34.8780   45.9120 N   0  0  0  0  0  0  0  0  0  0  0  0
   45.6400   33.8560   45.5030 C   0  0  0  0  0  0  0  0  0  0  0  0
   46.0510   33.7640   44.1990 N   0  0  0  0  0  0  0  0  0  0  0  0
   46.0820   32.8320   46.4570 C   0  0  0  0  0  0  0  0  0  0  0  0
   45.2270   32.8370   47.7160 C   0  0  0  0  0  0  0  0  0  0  0  0
   46.0280   32.0340   48.7440 C   0  0  0  0  0  0  0  0  0  0  0  0
   46.1820   30.6070   48.2800 C   0  0  0  0  0  0  0  0  0  0  0  0
   45.6210   30.4280   46.8960 C   0  0  0  0  0  0  0  0  0  0  0  0
   46.1500   31.4430   45.9030 C   0  0  0  0  0  0  0  0  0  0  0  0
   47.7639   35.8563   41.5083 H   0  0  0  0  0  0  0  0  0  0  0  0
   48.0129   34.4386   42.6202 H   0  0  0  0  0  0  0  0  0  0  0  0
   46.8128   34.6399   38.9161 H   0  0  0  0  0  0  0  0  0  0  0  0
   48.1872   32.8492   37.5128 H   0  0  0  0  0  0  0  0  0  0  0  0
   48.8914   32.0230   42.2724 H   0  0  0  0  0  0  0  0  0  0  0  0
   51.6790   31.4631   42.2009 H   0  0  0  0  0  0  0  0  0  0  0  0
   51.8499   32.1014   40.7931 H   0  0  0  0  0  0  0  0  0  0  0  0
   50.9157   34.5146   41.9565 H   0  0  0  0  0  0  0  0  0  0  0  0
   50.9977   33.9396   43.4012 H   0  0  0  0  0  0  0  0  0  0  0  0
   45.5301   35.5550   41.4543 H   0  0  0  0  0  0  0  0  0  0  0  0
   45.6871   33.7448   41.4749 H   0  0  0  0  0  0  0  0  0  0  0  0
   44.5211   36.4708   43.0230 H   0  0  0  0  0  0  0  0  0  0  0  0
   43.7731   36.6441   45.3898 H   0  0  0  0  0  0  0  0  0  0  0  0
   47.1156   33.1189   46.7008 H   0  0  0  0  0  0  0  0  0  0  0  0
   45.0663   33.8661   48.0698 H   0  0  0  0  0  0  0  0  0  0  0  0
   44.2310   32.4046   47.5400 H   0  0  0  0  0  0  0  0  0  0  0  0
   47.0231   32.4870   48.8644 H   0  0  0  0  0  0  0  0  0  0  0  0
   45.4935   32.0447   49.7054 H   0  0  0  0  0  0  0  0  0  0  0  0
   47.2502   30.3443   48.2722 H   0  0  0  0  0  0  0  0  0  0  0  0
   45.6298   29.9520   48.9700 H   0  0  0  0  0  0  0  0  0  0  0  0
   45.8830   29.4208   46.5399 H   0  0  0  0  0  0  0  0  0  0  0  0
   44.5325   30.5718   46.9628 H   0  0  0  0  0  0  0  0  0  0  0  0
   45.5469   31.3936   44.9844 H   0  0  0  0  0  0  0  0  0  0  0  0
   47.2027   31.2050   45.6905 H   0  0  0  0  0  0  0  0  0  0  0  0
  1 10  1  0
  2  6  1  0
  2  1  1  0
  3  2  1  0
  4  3  2  0
  4  5  1  0
  5  6  2  0
  6  7  1  0
  7  9  1  0
  8  7  1  0
  8  9  1  0
 10 11  1  0
 11 12  2  0
 11 16  1  0
 12 13  1  0
 13 14  2  0
 15 14  1  0
 15 17  1  0
 16 15  2  0
 17 18  1  0
 18 19  1  0
 20 19  1  0
 21 20  1  0
 22 17  1  0
 22 21  1  0
  1 23  1  0
  1 24  1  0
  3 25  1  0
  4 26  1  0
  7 27  1  0
  8 28  1  0
  8 29  1  0
  9 30  1  0
  9 31  1  0
 10 32  1  0
 10 33  1  0
 12 34  1  0
 13 35  1  0
 17 36  1  0
 18 37  1  0
 18 38  1  0
 19 39  1  0
 19 40  1  0
 20 41  1  0
 20 42  1  0
 21 43  1  0
 21 44  1  0
 22 45  1  0
 22 46  1  0
M  ISO  8  23   8  24   8  25  14  26  14  27  13  28  13  29  13  30  13
M  ISO  8  31  13  32   8  33   8  34  14  35  14  36  13  37  13  38  13
M  ISO  8  39  13  40  13  41  13  42  13  43  13  44  13  45  13  46  13
M  END
>  <minimizedAffinity>  (1) 
-5.84303665

>  <minimizedRMSD>  (1) 
0.2724154

$$$$
