
     RDKit          3D

 37 40  0  0  0  0  0  0  0  0999 V2000
   47.3560   34.7690   41.4220 C   0  0  0  0  0  0  0  0  0  0  0  0
   47.9300   33.9530   40.4180 N   0  0  0  0  0  0  0  0  0  0  0  0
   47.6730   33.8570   39.0980 C   0  0  0  0  0  0  0  0  0  0  0  0
   48.4640   32.9390   38.4560 C   0  0  0  0  0  0  0  0  0  0  0  0
   49.2540   32.4440   39.4490 N   0  0  0  0  0  0  0  0  0  0  0  0
   48.9160   33.0630   40.6030 C   0  0  0  0  0  0  0  0  0  0  0  0
   49.6470   32.6610   41.8610 C   0  0  0  0  0  0  0  0  0  0  0  0
   51.1330   32.4090   41.7920 C   0  0  0  0  0  0  0  0  0  0  0  0
   50.6120   33.6490   42.4370 C   0  0  0  0  0  0  0  0  0  0  0  0
   45.9030   34.4230   41.6840 C   0  0  0  0  0  0  0  0  0  0  0  0
   45.5340   34.6430   43.0700 C   0  0  0  0  0  0  0  0  0  0  0  0
   44.8130   35.8170   43.3110 C   0  0  0  0  0  0  0  0  0  0  0  0
   44.3880   36.1660   44.5730 C   0  0  0  0  0  0  0  0  0  0  0  0
   44.6920   35.3360   45.5730 N   0  0  0  0  0  0  0  0  0  0  0  0
   45.3990   34.1840   45.3390 C   0  0  0  0  0  0  0  0  0  0  0  0
   45.8060   33.8640   44.0800 N   0  0  0  0  0  0  0  0  0  0  0  0
   45.7040   33.3120   46.4600 C   0  0  0  0  0  0  0  0  0  0  0  0
   46.7390   32.4330   46.5640 C   0  0  0  0  0  0  0  0  0  0  0  0
   46.6510   31.8290   47.7640 N   0  0  0  0  0  0  0  0  0  0  0  0
   45.5680   32.3520   48.3620 C   0  0  0  0  0  0  0  0  0  0  0  0
   44.9720   33.2610   47.5860 N   0  0  0  0  0  0  0  0  0  0  0  0
   47.4173   35.8196   41.1018 H   0  0  0  0  0  0  0  0  0  0  0  0
   47.9155   34.5997   42.3538 H   0  0  0  0  0  0  0  0  0  0  0  0
   46.9049   34.4557   38.5866 H   0  0  0  0  0  0  0  0  0  0  0  0
   48.4612   32.6666   37.3903 H   0  0  0  0  0  0  0  0  0  0  0  0
   48.7843   32.0890   42.2332 H   0  0  0  0  0  0  0  0  0  0  0  0
   51.5862   31.6174   42.4068 H   0  0  0  0  0  0  0  0  0  0  0  0
   51.8496   32.1924   40.9861 H   0  0  0  0  0  0  0  0  0  0  0  0
   50.7563   34.6236   41.9477 H   0  0  0  0  0  0  0  0  0  0  0  0
   50.7403   34.1216   43.4220 H   0  0  0  0  0  0  0  0  0  0  0  0
   45.2670   35.0512   41.0430 H   0  0  0  0  0  0  0  0  0  0  0  0
   45.7619   33.3554   41.4598 H   0  0  0  0  0  0  0  0  0  0  0  0
   44.5784   36.4816   42.4665 H   0  0  0  0  0  0  0  0  0  0  0  0
   43.8207   37.0916   44.7501 H   0  0  0  0  0  0  0  0  0  0  0  0
   47.5107   32.2490   45.8020 H   0  0  0  0  0  0  0  0  0  0  0  0
   45.2162   32.0675   49.3646 H   0  0  0  0  0  0  0  0  0  0  0  0
   44.1276   33.8087   47.8048 H   0  0  0  0  0  0  0  0  0  0  0  0
  1 10  1  0
  2  6  1  0
  2  1  1  0
  3  2  1  0
  4  3  2  0
  4  5  1  0
  5  6  2  0
  6  7  1  0
  7  9  1  0
  8  7  1  0
  8  9  1  0
 10 11  1  0
 11 12  2  0
 11 16  1  0
 12 13  1  0
 13 14  2  0
 15 14  1  0
 15 17  1  0
 16 15  2  0
 17 18  2  0
 17 21  1  0
 18 19  1  0
 19 20  2  0
 21 20  1  0
  1 22  1  0
  1 23  1  0
  3 24  1  0
  4 25  1  0
  7 26  1  0
  8 27  1  0
  8 28  1  0
  9 29  1  0
  9 30  1  0
 10 31  1  0
 10 32  1  0
 12 33  1  0
 13 34  1  0
 18 35  1  0
 20 36  1  0
 21 37  1  0
M  ISO  8  22   8  23   8  24  14  25  14  26  13  27  13  28  13  29  13
M  ISO  8  30  13  31   8  32   8  33  14  34  14  35  14  36  14  37   9
M  END
>  <minimizedAffinity>  (1) 
-5.84156418

>  <minimizedRMSD>  (1) 
0.456037164

$$$$
