
     RDKit          3D

 39 42  0  0  0  0  0  0  0  0999 V2000
   47.4500   34.8170   41.5790 C   0  0  0  0  0  0  0  0  0  0  0  0
   47.9620   34.0080   40.5320 N   0  0  0  0  0  0  0  0  0  0  0  0
   47.6540   33.9520   39.2210 C   0  0  0  0  0  0  0  0  0  0  0  0
   48.3970   33.0230   38.5310 C   0  0  0  0  0  0  0  0  0  0  0  0
   49.1960   32.4910   39.4780 N   0  0  0  0  0  0  0  0  0  0  0  0
   48.9260   33.0870   40.6650 C   0  0  0  0  0  0  0  0  0  0  0  0
   49.6900   32.6340   41.8860 C   0  0  0  0  0  0  0  0  0  0  0  0
   51.1610   32.3260   41.7510 C   0  0  0  0  0  0  0  0  0  0  0  0
   50.7160   33.5760   42.4320 C   0  0  0  0  0  0  0  0  0  0  0  0
   45.9650   34.5960   41.8050 C   0  0  0  0  0  0  0  0  0  0  0  0
   45.6140   34.6580   43.2120 C   0  0  0  0  0  0  0  0  0  0  0  0
   44.8230   35.7440   43.5750 C   0  0  0  0  0  0  0  0  0  0  0  0
   44.4040   35.9460   44.8680 C   0  0  0  0  0  0  0  0  0  0  0  0
   44.7870   35.0490   45.7790 N   0  0  0  0  0  0  0  0  0  0  0  0
   45.5680   33.9710   45.4270 C   0  0  0  0  0  0  0  0  0  0  0  0
   45.9620   33.8080   44.1370 N   0  0  0  0  0  0  0  0  0  0  0  0
   45.9810   33.0000   46.4200 C   0  0  0  0  0  0  0  0  0  0  0  0
   45.2480   32.8940   47.5950 C   0  0  0  0  0  0  0  0  0  0  0  0
   45.5360   32.0080   48.6250 C   0  0  0  0  0  0  0  0  0  0  0  0
   46.6340   31.1690   48.4650 C   0  0  0  0  0  0  0  0  0  0  0  0
   47.3180   31.3120   47.2950 C   0  0  0  0  0  0  0  0  0  0  0  0
   47.0410   32.1780   46.2840 N   0  0  0  0  0  0  0  0  0  0  0  0
   47.6153   35.8738   41.3224 H   0  0  0  0  0  0  0  0  0  0  0  0
   47.9758   34.5412   42.5050 H   0  0  0  0  0  0  0  0  0  0  0  0
   46.8867   34.5847   38.7510 H   0  0  0  0  0  0  0  0  0  0  0  0
   48.3505   32.7732   37.4607 H   0  0  0  0  0  0  0  0  0  0  0  0
   48.8226   32.0889   42.2865 H   0  0  0  0  0  0  0  0  0  0  0  0
   51.6085   31.5094   42.3366 H   0  0  0  0  0  0  0  0  0  0  0  0
   51.8343   32.0929   40.9129 H   0  0  0  0  0  0  0  0  0  0  0  0
   50.8775   34.5508   41.9486 H   0  0  0  0  0  0  0  0  0  0  0  0
   50.9038   34.0299   43.4162 H   0  0  0  0  0  0  0  0  0  0  0  0
   45.4041   35.3727   41.2645 H   0  0  0  0  0  0  0  0  0  0  0  0
   45.7108   33.5916   41.4354 H   0  0  0  0  0  0  0  0  0  0  0  0
   44.5230   36.4652   42.8005 H   0  0  0  0  0  0  0  0  0  0  0  0
   43.7798   36.8098   45.1405 H   0  0  0  0  0  0  0  0  0  0  0  0
   44.3794   33.5576   47.7183 H   0  0  0  0  0  0  0  0  0  0  0  0
   44.9182   31.9710   49.5344 H   0  0  0  0  0  0  0  0  0  0  0  0
   46.9305   30.4385   49.2321 H   0  0  0  0  0  0  0  0  0  0  0  0
   48.1890   30.6553   47.1531 H   0  0  0  0  0  0  0  0  0  0  0  0
  1 10  1  0
  2  6  1  0
  2  1  1  0
  3  2  1  0
  4  3  2  0
  4  5  1  0
  5  6  2  0
  6  7  1  0
  7  9  1  0
  8  7  1  0
  8  9  1  0
 10 11  1  0
 11 12  2  0
 11 16  1  0
 12 13  1  0
 13 14  2  0
 15 14  1  0
 15 17  1  0
 16 15  2  0
 17 18  2  0
 18 19  1  0
 20 19  2  0
 21 20  1  0
 22 17  1  0
 22 21  2  0
  1 23  1  0
  1 24  1  0
  3 25  1  0
  4 26  1  0
  7 27  1  0
  8 28  1  0
  8 29  1  0
  9 30  1  0
  9 31  1  0
 10 32  1  0
 10 33  1  0
 12 34  1  0
 13 35  1  0
 18 36  1  0
 19 37  1  0
 20 38  1  0
 21 39  1  0
M  ISO  8  23   8  24   8  25  14  26  14  27  13  28  13  29  13  30  13
M  ISO  8  31  13  32   8  33   8  34  14  35  14  36  14  37  14  38  14
M  ISO  1  39  14
M  END
>  <minimizedAffinity>  (1) 
-5.8246212

>  <minimizedRMSD>  (1) 
0.360794395

$$$$
