
     RDKit          3D

 43 46  0  0  0  0  0  0  0  0999 V2000
   47.6400   34.8680   41.6950 C   0  0  0  0  0  0  0  0  0  0  0  0
   48.0270   34.0370   40.6160 N   0  0  0  0  0  0  0  0  0  0  0  0
   47.6150   34.0100   39.3370 C   0  0  0  0  0  0  0  0  0  0  0  0
   48.2690   33.0300   38.5970 C   0  0  0  0  0  0  0  0  0  0  0  0
   49.1090   32.4510   39.4880 N   0  0  0  0  0  0  0  0  0  0  0  0
   48.9490   33.0620   40.6790 C   0  0  0  0  0  0  0  0  0  0  0  0
   49.7690   32.5770   41.8310 C   0  0  0  0  0  0  0  0  0  0  0  0
   51.2400   32.2910   41.6350 C   0  0  0  0  0  0  0  0  0  0  0  0
   50.8030   33.4950   42.3980 C   0  0  0  0  0  0  0  0  0  0  0  0
   46.1380   34.9460   41.8640 C   0  0  0  0  0  0  0  0  0  0  0  0
   45.7400   34.8300   43.2590 C   0  0  0  0  0  0  0  0  0  0  0  0
   44.9420   35.8860   43.7230 C   0  0  0  0  0  0  0  0  0  0  0  0
   44.4670   35.9280   45.0130 C   0  0  0  0  0  0  0  0  0  0  0  0
   44.8030   34.9070   45.8180 N   0  0  0  0  0  0  0  0  0  0  0  0
   45.5800   33.8820   45.3640 C   0  0  0  0  0  0  0  0  0  0  0  0
   46.0400   33.8590   44.0790 N   0  0  0  0  0  0  0  0  0  0  0  0
   45.9590   32.7780   46.1840 N   0  0  0  0  0  0  0  0  0  0  0  0
   45.3130   32.4740   47.4580 C   0  0  0  0  0  0  0  0  0  0  0  0
   46.3150   32.3880   48.5840 C   0  0  0  0  0  0  0  0  0  0  0  0
   47.5220   31.8690   48.1260 O   0  0  0  0  0  0  0  0  0  0  0  0
   47.3270   31.0510   47.0320 C   0  0  0  0  0  0  0  0  0  0  0  0
   47.0320   31.8850   45.7800 C   0  0  0  0  0  0  0  0  0  0  0  0
   48.0267   35.8818   41.5144 H   0  0  0  0  0  0  0  0  0  0  0  0
   48.0552   34.4316   42.6154 H   0  0  0  0  0  0  0  0  0  0  0  0
   46.8502   34.6839   38.9236 H   0  0  0  0  0  0  0  0  0  0  0  0
   48.1349   32.7825   37.5336 H   0  0  0  0  0  0  0  0  0  0  0  0
   48.9173   32.0054   42.2283 H   0  0  0  0  0  0  0  0  0  0  0  0
   51.7119   31.4474   42.1601 H   0  0  0  0  0  0  0  0  0  0  0  0
   51.8904   32.1124   40.7661 H   0  0  0  0  0  0  0  0  0  0  0  0
   50.9416   34.4972   41.9662 H   0  0  0  0  0  0  0  0  0  0  0  0
   51.0160   33.8940   43.4007 H   0  0  0  0  0  0  0  0  0  0  0  0
   45.7863   35.9123   41.4734 H   0  0  0  0  0  0  0  0  0  0  0  0
   45.6897   34.1069   41.3117 H   0  0  0  0  0  0  0  0  0  0  0  0
   44.6884   36.7054   43.0343 H   0  0  0  0  0  0  0  0  0  0  0  0
   43.8408   36.7594   45.3689 H   0  0  0  0  0  0  0  0  0  0  0  0
   44.5858   33.2668   47.6874 H   0  0  0  0  0  0  0  0  0  0  0  0
   44.8148   31.4976   47.3662 H   0  0  0  0  0  0  0  0  0  0  0  0
   46.4862   33.3945   48.9934 H   0  0  0  0  0  0  0  0  0  0  0  0
   45.9160   31.7231   49.3642 H   0  0  0  0  0  0  0  0  0  0  0  0
   48.2340   30.4523   46.8621 H   0  0  0  0  0  0  0  0  0  0  0  0
   46.4681   30.3929   47.2300 H   0  0  0  0  0  0  0  0  0  0  0  0
   46.7093   31.2396   44.9497 H   0  0  0  0  0  0  0  0  0  0  0  0
   47.9177   32.4298   45.4213 H   0  0  0  0  0  0  0  0  0  0  0  0
  1 10  1  0
  2  6  1  0
  2  1  1  0
  3  2  1  0
  4  3  2  0
  4  5  1  0
  5  6  2  0
  6  7  1  0
  7  9  1  0
  8  7  1  0
  8  9  1  0
 10 11  1  0
 11 12  2  0
 11 16  1  0
 12 13  1  0
 13 14  2  0
 15 14  1  0
 15 17  1  0
 16 15  2  0
 17 18  1  0
 18 19  1  0
 20 19  1  0
 21 20  1  0
 22 17  1  0
 22 21  1  0
  1 23  1  0
  1 24  1  0
  3 25  1  0
  4 26  1  0
  7 27  1  0
  8 28  1  0
  8 29  1  0
  9 30  1  0
  9 31  1  0
 10 32  1  0
 10 33  1  0
 12 34  1  0
 13 35  1  0
 18 36  1  0
 18 37  1  0
 19 38  1  0
 19 39  1  0
 21 40  1  0
 21 41  1  0
 22 42  1  0
 22 43  1  0
M  ISO  8  23   8  24   8  25  14  26  14  27  13  28  13  29  13  30  13
M  ISO  8  31  13  32   8  33   8  34  14  35  14  36  13  37  13  38  13
M  ISO  5  39  13  40  13  41  13  42  13  43  13
M  END
>  <minimizedAffinity>  (1) 
-5.81676769

>  <minimizedRMSD>  (1) 
0.0806421787

$$$$
