
     RDKit          3D

 37 40  0  0  0  0  0  0  0  0999 V2000
   47.5560   34.8100   41.6690 C   0  0  0  0  0  0  0  0  0  0  0  0
   48.0090   34.0130   40.5810 N   0  0  0  0  0  0  0  0  0  0  0  0
   47.6470   33.9950   39.2880 C   0  0  0  0  0  0  0  0  0  0  0  0
   48.3410   33.0630   38.5510 C   0  0  0  0  0  0  0  0  0  0  0  0
   49.1670   32.4880   39.4570 N   0  0  0  0  0  0  0  0  0  0  0  0
   48.9560   33.0650   40.6590 C   0  0  0  0  0  0  0  0  0  0  0  0
   49.7540   32.5810   41.8240 C   0  0  0  0  0  0  0  0  0  0  0  0
   51.2270   32.2930   41.6450 C   0  0  0  0  0  0  0  0  0  0  0  0
   50.7840   33.4930   42.4060 C   0  0  0  0  0  0  0  0  0  0  0  0
   46.0500   34.7430   41.8400 C   0  0  0  0  0  0  0  0  0  0  0  0
   45.6610   34.7390   43.2360 C   0  0  0  0  0  0  0  0  0  0  0  0
   44.8900   35.8380   43.6420 C   0  0  0  0  0  0  0  0  0  0  0  0
   44.4380   35.9820   44.9320 C   0  0  0  0  0  0  0  0  0  0  0  0
   44.7640   35.0210   45.8010 N   0  0  0  0  0  0  0  0  0  0  0  0
   45.5180   33.9450   45.4090 C   0  0  0  0  0  0  0  0  0  0  0  0
   45.9540   33.8260   44.1190 N   0  0  0  0  0  0  0  0  0  0  0  0
   45.8360   32.9260   46.4250 C   0  0  0  0  0  0  0  0  0  0  0  0
   45.2500   32.8460   47.7240 C   0  0  0  0  0  0  0  0  0  0  0  0
   45.6630   31.8400   48.5280 C   0  0  0  0  0  0  0  0  0  0  0  0
   46.6200   30.9270   48.0940 C   0  0  0  0  0  0  0  0  0  0  0  0
   47.0260   31.4730   46.4000 S   0  0  0  0  0  0  0  0  0  0  0  0
   47.8458   35.8554   41.4871 H   0  0  0  0  0  0  0  0  0  0  0  0
   48.0180   34.4208   42.5883 H   0  0  0  0  0  0  0  0  0  0  0  0
   46.8770   34.6556   38.8629 H   0  0  0  0  0  0  0  0  0  0  0  0
   48.2470   32.8380   37.4784 H   0  0  0  0  0  0  0  0  0  0  0  0
   48.8944   32.0146   42.2116 H   0  0  0  0  0  0  0  0  0  0  0  0
   51.6908   31.4465   42.1726 H   0  0  0  0  0  0  0  0  0  0  0  0
   51.8876   32.1165   40.7834 H   0  0  0  0  0  0  0  0  0  0  0  0
   50.9304   34.4964   41.9797 H   0  0  0  0  0  0  0  0  0  0  0  0
   50.9862   33.8873   43.4128 H   0  0  0  0  0  0  0  0  0  0  0  0
   45.5976   35.6166   41.3479 H   0  0  0  0  0  0  0  0  0  0  0  0
   45.6984   33.8043   41.3870 H   0  0  0  0  0  0  0  0  0  0  0  0
   44.6382   36.6119   42.9020 H   0  0  0  0  0  0  0  0  0  0  0  0
   43.8345   36.8501   45.2355 H   0  0  0  0  0  0  0  0  0  0  0  0
   44.4940   33.5723   48.0573 H   0  0  0  0  0  0  0  0  0  0  0  0
   45.2373   31.7420   49.5376 H   0  0  0  0  0  0  0  0  0  0  0  0
   47.0366   30.0716   48.6460 H   0  0  0  0  0  0  0  0  0  0  0  0
  1 10  1  0
  2  6  1  0
  2  1  1  0
  3  2  1  0
  4  3  2  0
  4  5  1  0
  5  6  2  0
  6  7  1  0
  7  9  1  0
  8  7  1  0
  8  9  1  0
 10 11  1  0
 11 12  2  0
 11 16  1  0
 12 13  1  0
 13 14  2  0
 15 14  1  0
 15 17  1  0
 16 15  2  0
 17 18  2  0
 18 19  1  0
 20 19  2  0
 21 17  1  0
 21 20  1  0
  1 22  1  0
  1 23  1  0
  3 24  1  0
  4 25  1  0
  7 26  1  0
  8 27  1  0
  8 28  1  0
  9 29  1  0
  9 30  1  0
 10 31  1  0
 10 32  1  0
 12 33  1  0
 13 34  1  0
 18 35  1  0
 19 36  1  0
 20 37  1  0
M  ISO  8  22   8  23   8  24  14  25  14  26  13  27  13  28  13  29  13
M  ISO  8  30  13  31   8  32   8  33  14  34  14  35  14  36  14  37  14
M  END
>  <minimizedAffinity>  (1) 
-5.54144335

>  <minimizedRMSD>  (1) 
0.4473795

$$$$
