
     RDKit          3D

 43 46  0  0  0  0  0  0  0  0999 V2000
   47.5360   34.8040   41.7340 C   0  0  0  0  0  0  0  0  0  0  0  0
   47.9760   34.0170   40.6450 N   0  0  0  0  0  0  0  0  0  0  0  0
   47.5980   33.9950   39.3500 C   0  0  0  0  0  0  0  0  0  0  0  0
   48.2820   33.0730   38.6000 C   0  0  0  0  0  0  0  0  0  0  0  0
   49.1240   32.5050   39.4870 N   0  0  0  0  0  0  0  0  0  0  0  0
   48.9300   33.0760   40.6960 C   0  0  0  0  0  0  0  0  0  0  0  0
   49.7520   32.5920   41.8490 C   0  0  0  0  0  0  0  0  0  0  0  0
   51.2200   32.2940   41.6480 C   0  0  0  0  0  0  0  0  0  0  0  0
   50.7950   33.5060   42.4060 C   0  0  0  0  0  0  0  0  0  0  0  0
   46.0230   34.7540   41.9030 C   0  0  0  0  0  0  0  0  0  0  0  0
   45.6370   34.7170   43.2970 C   0  0  0  0  0  0  0  0  0  0  0  0
   44.9190   35.8180   43.7460 C   0  0  0  0  0  0  0  0  0  0  0  0
   44.4780   35.9320   45.0440 C   0  0  0  0  0  0  0  0  0  0  0  0
   44.7680   34.9300   45.8790 N   0  0  0  0  0  0  0  0  0  0  0  0
   45.4810   33.8320   45.4430 C   0  0  0  0  0  0  0  0  0  0  0  0
   45.8930   33.7670   44.1510 N   0  0  0  0  0  0  0  0  0  0  0  0
   45.7850   32.7430   46.3870 C   0  0  0  0  0  0  0  0  0  0  0  0
   45.0530   33.1240   47.6810 C   0  0  0  0  0  0  0  0  0  0  0  0
   45.6810   32.1350   48.6340 C   0  0  0  0  0  0  0  0  0  0  0  0
   47.1200   31.9650   48.1610 C   0  0  0  0  0  0  0  0  0  0  0  0
   47.2070   32.6210   46.7960 C   0  0  0  0  0  0  0  0  0  0  0  0
   47.8395   35.8474   41.5630 H   0  0  0  0  0  0  0  0  0  0  0  0
   47.9926   34.4004   42.6498 H   0  0  0  0  0  0  0  0  0  0  0  0
   46.8183   34.6517   38.9367 H   0  0  0  0  0  0  0  0  0  0  0  0
   48.1703   32.8497   37.5287 H   0  0  0  0  0  0  0  0  0  0  0  0
   48.8979   32.0293   42.2538 H   0  0  0  0  0  0  0  0  0  0  0  0
   51.6881   31.4501   42.1760 H   0  0  0  0  0  0  0  0  0  0  0  0
   51.8652   32.1055   40.7772 H   0  0  0  0  0  0  0  0  0  0  0  0
   50.9389   34.5046   41.9676 H   0  0  0  0  0  0  0  0  0  0  0  0
   51.0154   33.9094   43.4054 H   0  0  0  0  0  0  0  0  0  0  0  0
   45.5832   35.6475   41.4358 H   0  0  0  0  0  0  0  0  0  0  0  0
   45.6565   33.8346   41.4231 H   0  0  0  0  0  0  0  0  0  0  0  0
   44.6947   36.6289   43.0373 H   0  0  0  0  0  0  0  0  0  0  0  0
   43.9100   36.8118   45.3807 H   0  0  0  0  0  0  0  0  0  0  0  0
   45.5002   31.8033   45.8912 H   0  0  0  0  0  0  0  0  0  0  0  0
   45.2588   34.1635   47.9762 H   0  0  0  0  0  0  0  0  0  0  0  0
   43.9553   33.0815   47.6238 H   0  0  0  0  0  0  0  0  0  0  0  0
   45.6586   32.5255   49.6621 H   0  0  0  0  0  0  0  0  0  0  0  0
   45.1397   31.1774   48.6412 H   0  0  0  0  0  0  0  0  0  0  0  0
   47.8108   32.4554   48.8627 H   0  0  0  0  0  0  0  0  0  0  0  0
   47.3979   30.9020   48.1091 H   0  0  0  0  0  0  0  0  0  0  0  0
   47.7677   31.9904   46.0903 H   0  0  0  0  0  0  0  0  0  0  0  0
   47.7350   33.5858   46.8139 H   0  0  0  0  0  0  0  0  0  0  0  0
  1 10  1  0
  2  6  1  0
  2  1  1  0
  3  2  1  0
  4  3  2  0
  4  5  1  0
  5  6  2  0
  6  7  1  0
  7  9  1  0
  8  7  1  0
  8  9  1  0
 10 11  1  0
 11 12  2  0
 11 16  1  0
 12 13  1  0
 13 14  2  0
 15 14  1  0
 15 17  1  0
 16 15  2  0
 17 21  1  0
 17 18  1  0
 18 19  1  0
 20 19  1  0
 21 20  1  0
  1 22  1  0
  1 23  1  0
  3 24  1  0
  4 25  1  0
  7 26  1  0
  8 27  1  0
  8 28  1  0
  9 29  1  0
  9 30  1  0
 10 31  1  0
 10 32  1  0
 12 33  1  0
 13 34  1  0
 17 35  1  0
 18 36  1  0
 18 37  1  0
 19 38  1  0
 19 39  1  0
 20 40  1  0
 20 41  1  0
 21 42  1  0
 21 43  1  0
M  ISO  8  22   8  23   8  24  14  25  14  26  13  27  13  28  13  29  13
M  ISO  8  30  13  31   8  32   8  33  14  34  14  35  13  36  13  37  13
M  ISO  6  38  13  39  13  40  13  41  13  42  13  43  13
M  END
>  <minimizedAffinity>  (1) 
-5.53241158

>  <minimizedRMSD>  (1) 
0.288437515

$$$$
