
     RDKit          3D

 35 38  0  0  0  0  0  0  0  0999 V2000
   47.5220   34.7870   41.5280 C   0  0  0  0  0  0  0  0  0  0  0  0
   48.0310   33.9930   40.4620 N   0  0  0  0  0  0  0  0  0  0  0  0
   47.7290   33.9770   39.1560 C   0  0  0  0  0  0  0  0  0  0  0  0
   48.4630   33.0530   38.4480 C   0  0  0  0  0  0  0  0  0  0  0  0
   49.2470   32.4850   39.3870 N   0  0  0  0  0  0  0  0  0  0  0  0
   48.9790   33.0550   40.5810 C   0  0  0  0  0  0  0  0  0  0  0  0
   49.7300   32.5640   41.7960 C   0  0  0  0  0  0  0  0  0  0  0  0
   51.2100   32.2890   41.6740 C   0  0  0  0  0  0  0  0  0  0  0  0
   50.7310   33.5020   42.3980 C   0  0  0  0  0  0  0  0  0  0  0  0
   46.0340   34.5840   41.7290 C   0  0  0  0  0  0  0  0  0  0  0  0
   45.6590   34.6720   43.1320 C   0  0  0  0  0  0  0  0  0  0  0  0
   44.8560   35.7880   43.4400 C   0  0  0  0  0  0  0  0  0  0  0  0
   44.4260   35.9830   44.7320 C   0  0  0  0  0  0  0  0  0  0  0  0
   44.7870   35.0980   45.6750 N   0  0  0  0  0  0  0  0  0  0  0  0
   45.5680   34.0200   45.3560 C   0  0  0  0  0  0  0  0  0  0  0  0
   46.0000   33.8180   44.0700 N   0  0  0  0  0  0  0  0  0  0  0  0
   45.9620   33.0540   46.3780 C   0  0  0  0  0  0  0  0  0  0  0  0
   46.9720   32.1680   46.4800 N   0  0  0  0  0  0  0  0  0  0  0  0
   46.8880   31.5250   47.6080 O   0  0  0  0  0  0  0  0  0  0  0  0
   45.8350   31.9560   48.2820 C   0  0  0  0  0  0  0  0  0  0  0  0
   45.2410   32.9210   47.5200 N   0  0  0  0  0  0  0  0  0  0  0  0
   47.7080   35.8471   41.3009 H   0  0  0  0  0  0  0  0  0  0  0  0
   48.0337   34.4814   42.4525 H   0  0  0  0  0  0  0  0  0  0  0  0
   46.9740   34.6333   38.6985 H   0  0  0  0  0  0  0  0  0  0  0  0
   48.4204   32.8305   37.3716 H   0  0  0  0  0  0  0  0  0  0  0  0
   48.8665   31.9870   42.1586 H   0  0  0  0  0  0  0  0  0  0  0  0
   51.6632   31.4573   42.2334 H   0  0  0  0  0  0  0  0  0  0  0  0
   51.9011   32.1031   40.8386 H   0  0  0  0  0  0  0  0  0  0  0  0
   50.8823   34.4986   41.9576 H   0  0  0  0  0  0  0  0  0  0  0  0
   50.8946   33.9183   43.4030 H   0  0  0  0  0  0  0  0  0  0  0  0
   45.4904   35.3573   41.1664 H   0  0  0  0  0  0  0  0  0  0  0  0
   45.7758   33.5769   41.3697 H   0  0  0  0  0  0  0  0  0  0  0  0
   44.5741   36.5003   42.6506 H   0  0  0  0  0  0  0  0  0  0  0  0
   43.7975   36.8487   44.9881 H   0  0  0  0  0  0  0  0  0  0  0  0
   45.5010   31.6039   49.2692 H   0  0  0  0  0  0  0  0  0  0  0  0
  1 10  1  0
  2  6  1  0
  2  1  1  0
  3  2  1  0
  4  3  2  0
  4  5  1  0
  5  6  2  0
  6  7  1  0
  7  9  1  0
  8  7  1  0
  8  9  1  0
 10 11  1  0
 11 12  2  0
 11 16  1  0
 12 13  1  0
 13 14  2  0
 15 14  1  0
 15 17  1  0
 16 15  2  0
 17 18  2  0
 17 21  1  0
 18 19  1  0
 19 20  1  0
 21 20  2  0
  1 22  1  0
  1 23  1  0
  3 24  1  0
  4 25  1  0
  7 26  1  0
  8 27  1  0
  8 28  1  0
  9 29  1  0
  9 30  1  0
 10 31  1  0
 10 32  1  0
 12 33  1  0
 13 34  1  0
 20 35  1  0
M  ISO  8  22   8  23   8  24  14  25  14  26  13  27  13  28  13  29  13
M  ISO  6  30  13  31   8  32   8  33  14  34  14  35  14
M  END
>  <minimizedAffinity>  (1) 
-5.45424986

>  <minimizedRMSD>  (1) 
0.332820266

$$$$
