
     RDKit          3D

 33 35  0  0  0  0  0  0  0  0999 V2000
   47.7610   34.9300   41.6780 C   0  0  0  0  0  0  0  0  0  0  0  0
   48.0990   34.0580   40.5980 N   0  0  0  0  0  0  0  0  0  0  0  0
   47.6660   34.0300   39.3330 C   0  0  0  0  0  0  0  0  0  0  0  0
   48.2540   33.0240   38.5980 C   0  0  0  0  0  0  0  0  0  0  0  0
   49.0830   32.4230   39.4810 N   0  0  0  0  0  0  0  0  0  0  0  0
   48.9820   33.0490   40.6730 C   0  0  0  0  0  0  0  0  0  0  0  0
   49.7990   32.5410   41.8250 C   0  0  0  0  0  0  0  0  0  0  0  0
   51.2680   32.2700   41.6140 C   0  0  0  0  0  0  0  0  0  0  0  0
   50.8280   33.4620   42.3990 C   0  0  0  0  0  0  0  0  0  0  0  0
   46.2660   35.0540   41.8720 C   0  0  0  0  0  0  0  0  0  0  0  0
   45.8700   34.8810   43.2520 C   0  0  0  0  0  0  0  0  0  0  0  0
   44.9240   35.7990   43.7100 C   0  0  0  0  0  0  0  0  0  0  0  0
   44.4460   35.7590   44.9990 C   0  0  0  0  0  0  0  0  0  0  0  0
   44.9190   34.8060   45.8070 N   0  0  0  0  0  0  0  0  0  0  0  0
   45.8560   33.8990   45.3520 C   0  0  0  0  0  0  0  0  0  0  0  0
   46.3050   33.9680   44.0730 N   0  0  0  0  0  0  0  0  0  0  0  0
   46.3340   32.8930   46.2610 C   0  0  0  0  0  0  0  0  0  0  0  0
   45.9330   31.7200   46.1890 O   0  0  0  0  0  0  0  0  0  0  0  0
   47.2520   33.1990   47.2360 O   0  0  0  0  0  0  0  0  0  0  0  0
   48.1742   35.9278   41.4691 H   0  0  0  0  0  0  0  0  0  0  0  0
   48.1847   34.5034   42.5991 H   0  0  0  0  0  0  0  0  0  0  0  0
   46.9235   34.7316   38.9250 H   0  0  0  0  0  0  0  0  0  0  0  0
   48.0880   32.7694   37.5408 H   0  0  0  0  0  0  0  0  0  0  0  0
   48.9554   31.9562   42.2203 H   0  0  0  0  0  0  0  0  0  0  0  0
   51.7504   31.4227   42.1233 H   0  0  0  0  0  0  0  0  0  0  0  0
   51.9126   32.1089   40.7374 H   0  0  0  0  0  0  0  0  0  0  0  0
   50.9548   34.4714   41.9805 H   0  0  0  0  0  0  0  0  0  0  0  0
   51.0450   33.8493   43.4054 H   0  0  0  0  0  0  0  0  0  0  0  0
   45.9484   36.0523   41.5365 H   0  0  0  0  0  0  0  0  0  0  0  0
   45.7857   34.2578   41.2843 H   0  0  0  0  0  0  0  0  0  0  0  0
   44.5515   36.5735   43.0234 H   0  0  0  0  0  0  0  0  0  0  0  0
   43.7002   36.4863   45.3523 H   0  0  0  0  0  0  0  0  0  0  0  0
   47.5711   32.4945   47.8541 H   0  0  0  0  0  0  0  0  0  0  0  0
  1 10  1  0
  2  6  1  0
  2  1  1  0
  3  2  1  0
  4  3  2  0
  4  5  1  0
  5  6  2  0
  6  7  1  0
  7  9  1  0
  8  7  1  0
  8  9  1  0
 10 11  1  0
 11 12  2  0
 11 16  1  0
 12 13  1  0
 13 14  2  0
 15 14  1  0
 15 17  1  0
 16 15  2  0
 17 19  1  0
 18 17  2  0
  1 20  1  0
  1 21  1  0
  3 22  1  0
  4 23  1  0
  7 24  1  0
  8 25  1  0
  8 26  1  0
  9 27  1  0
  9 28  1  0
 10 29  1  0
 10 30  1  0
 12 31  1  0
 13 32  1  0
 19 33  1  0
M  ISO  8  20   8  21   8  22  14  23  14  24  13  25  13  26  13  27  13
M  ISO  6  28  13  29   8  30   8  31  14  32  14  33   3
M  END
>  <minimizedAffinity>  (1) 
-5.35042906

>  <minimizedRMSD>  (1) 
0.395537913

$$$$
