
     RDKit          3D

 39 41  0  0  0  0  0  0  0  0999 V2000
   47.7120   34.9390   41.8000 C   0  0  0  0  0  0  0  0  0  0  0  0
   48.0380   34.0910   40.6980 N   0  0  0  0  0  0  0  0  0  0  0  0
   47.5850   34.0640   39.4380 C   0  0  0  0  0  0  0  0  0  0  0  0
   48.1600   33.0800   38.6800 C   0  0  0  0  0  0  0  0  0  0  0  0
   49.0270   32.4680   39.5430 N   0  0  0  0  0  0  0  0  0  0  0  0
   48.9310   33.0920   40.7400 C   0  0  0  0  0  0  0  0  0  0  0  0
   49.7800   32.5930   41.8610 C   0  0  0  0  0  0  0  0  0  0  0  0
   51.2370   32.2870   41.6170 C   0  0  0  0  0  0  0  0  0  0  0  0
   50.8400   33.4910   42.4050 C   0  0  0  0  0  0  0  0  0  0  0  0
   46.2130   35.0380   42.0110 C   0  0  0  0  0  0  0  0  0  0  0  0
   45.8280   34.8350   43.3960 C   0  0  0  0  0  0  0  0  0  0  0  0
   44.9110   35.7690   43.8860 C   0  0  0  0  0  0  0  0  0  0  0  0
   44.4500   35.6970   45.1810 C   0  0  0  0  0  0  0  0  0  0  0  0
   44.9120   34.7070   45.9510 N   0  0  0  0  0  0  0  0  0  0  0  0
   45.8110   33.7960   45.4620 C   0  0  0  0  0  0  0  0  0  0  0  0
   46.2610   33.8740   44.1790 N   0  0  0  0  0  0  0  0  0  0  0  0
   46.2960   32.7090   46.3640 C   0  0  0  0  0  0  0  0  0  0  0  0
   46.2760   31.3760   45.6930 C   0  0  0  0  0  0  0  0  0  0  0  0
   45.4470   32.6220   47.6160 C   0  0  0  0  0  0  0  0  0  0  0  0
   48.1113   35.9453   41.6051 H   0  0  0  0  0  0  0  0  0  0  0  0
   48.1570   34.5058   42.7079 H   0  0  0  0  0  0  0  0  0  0  0  0
   46.8276   34.7618   39.0515 H   0  0  0  0  0  0  0  0  0  0  0  0
   47.9695   32.8380   37.6240 H   0  0  0  0  0  0  0  0  0  0  0  0
   48.9324   32.0315   42.2808 H   0  0  0  0  0  0  0  0  0  0  0  0
   51.7121   31.4316   42.1195 H   0  0  0  0  0  0  0  0  0  0  0  0
   51.8579   32.1071   40.7270 H   0  0  0  0  0  0  0  0  0  0  0  0
   50.9792   34.4954   41.9786 H   0  0  0  0  0  0  0  0  0  0  0  0
   51.0882   33.8778   43.4044 H   0  0  0  0  0  0  0  0  0  0  0  0
   45.8783   36.0372   41.6955 H   0  0  0  0  0  0  0  0  0  0  0  0
   45.7402   34.2438   41.4147 H   0  0  0  0  0  0  0  0  0  0  0  0
   44.5524   36.5735   43.2271 H   0  0  0  0  0  0  0  0  0  0  0  0
   43.7263   36.4290   45.5688 H   0  0  0  0  0  0  0  0  0  0  0  0
   47.3329   32.9660   46.6263 H   0  0  0  0  0  0  0  0  0  0  0  0
   46.2641   30.5823   46.4545 H   0  0  0  0  0  0  0  0  0  0  0  0
   45.3765   31.2951   45.0650 H   0  0  0  0  0  0  0  0  0  0  0  0
   47.1726   31.2681   45.0650 H   0  0  0  0  0  0  0  0  0  0  0  0
   46.0940   32.6883   48.5031 H   0  0  0  0  0  0  0  0  0  0  0  0
   44.7238   33.4507   47.6269 H   0  0  0  0  0  0  0  0  0  0  0  0
   44.9069   31.6638   47.6269 H   0  0  0  0  0  0  0  0  0  0  0  0
  1 10  1  0
  2  6  1  0
  2  1  1  0
  3  2  1  0
  4  3  2  0
  4  5  1  0
  5  6  2  0
  6  7  1  0
  7  9  1  0
  8  7  1  0
  8  9  1  0
 10 11  1  0
 11 12  2  0
 11 16  1  0
 12 13  1  0
 13 14  2  0
 15 14  1  0
 15 17  1  0
 16 15  2  0
 17 19  1  0
 18 17  1  0
  1 20  1  0
  1 21  1  0
  3 22  1  0
  4 23  1  0
  7 24  1  0
  8 25  1  0
  8 26  1  0
  9 27  1  0
  9 28  1  0
 10 29  1  0
 10 30  1  0
 12 31  1  0
 13 32  1  0
 17 33  1  0
 18 34  1  0
 18 35  1  0
 18 36  1  0
 19 37  1  0
 19 38  1  0
 19 39  1  0
M  ISO  8  20   8  21   8  22  14  23  14  24  13  25  13  26  13  27  13
M  ISO  8  28  13  29   8  30   8  31  14  32  14  33   8  34   8  35   8
M  ISO  4  36   8  37   8  38   8  39   8
M  END
>  <minimizedAffinity>  (1) 
-5.06767225

>  <minimizedRMSD>  (1) 
0.405389696

$$$$
