
     RDKit          3D

 37 40  0  0  0  0  0  0  0  0999 V2000
   47.7030   34.9420   41.7790 C   0  0  0  0  0  0  0  0  0  0  0  0
   48.0340   34.0890   40.6870 N   0  0  0  0  0  0  0  0  0  0  0  0
   47.5850   34.0570   39.4260 C   0  0  0  0  0  0  0  0  0  0  0  0
   48.1680   33.0700   38.6730 C   0  0  0  0  0  0  0  0  0  0  0  0
   49.0260   32.4660   39.5410 N   0  0  0  0  0  0  0  0  0  0  0  0
   48.9300   33.0890   40.7350 C   0  0  0  0  0  0  0  0  0  0  0  0
   49.7740   32.5960   41.8630 C   0  0  0  0  0  0  0  0  0  0  0  0
   51.2340   32.2880   41.6220 C   0  0  0  0  0  0  0  0  0  0  0  0
   50.8340   33.4970   42.4030 C   0  0  0  0  0  0  0  0  0  0  0  0
   46.2080   35.0750   41.9720 C   0  0  0  0  0  0  0  0  0  0  0  0
   45.7960   34.8320   43.3400 C   0  0  0  0  0  0  0  0  0  0  0  0
   45.0010   35.8180   43.9010 C   0  0  0  0  0  0  0  0  0  0  0  0
   44.5200   35.7420   45.1890 C   0  0  0  0  0  0  0  0  0  0  0  0
   44.8590   34.6470   45.8960 N   0  0  0  0  0  0  0  0  0  0  0  0
   45.6420   33.6760   45.3410 C   0  0  0  0  0  0  0  0  0  0  0  0
   46.1020   33.7870   44.0570 N   0  0  0  0  0  0  0  0  0  0  0  0
   46.0070   32.4740   46.1360 C   0  0  0  0  0  0  0  0  0  0  0  0
   45.6660   32.3670   47.5560 C   0  0  0  0  0  0  0  0  0  0  0  0
   47.0680   32.6660   47.1880 C   0  0  0  0  0  0  0  0  0  0  0  0
   48.1252   35.9398   41.5889 H   0  0  0  0  0  0  0  0  0  0  0  0
   48.1217   34.4958   42.6931 H   0  0  0  0  0  0  0  0  0  0  0  0
   46.8266   34.7509   39.0343 H   0  0  0  0  0  0  0  0  0  0  0  0
   47.9855   32.8241   37.6165 H   0  0  0  0  0  0  0  0  0  0  0  0
   48.9254   32.0381   42.2857 H   0  0  0  0  0  0  0  0  0  0  0  0
   51.7088   31.4357   42.1301 H   0  0  0  0  0  0  0  0  0  0  0  0
   51.8565   32.1031   40.7341 H   0  0  0  0  0  0  0  0  0  0  0  0
   50.9735   34.4990   41.9710 H   0  0  0  0  0  0  0  0  0  0  0  0
   51.0806   33.8892   43.4007 H   0  0  0  0  0  0  0  0  0  0  0  0
   45.9062   36.0944   41.6896 H   0  0  0  0  0  0  0  0  0  0  0  0
   45.7230   34.3167   41.3397 H   0  0  0  0  0  0  0  0  0  0  0  0
   44.7434   36.6976   43.2927 H   0  0  0  0  0  0  0  0  0  0  0  0
   43.8908   36.5354   45.6187 H   0  0  0  0  0  0  0  0  0  0  0  0
   45.8347   31.8159   45.2716 H   0  0  0  0  0  0  0  0  0  0  0  0
   45.0483   33.1446   48.0289 H   0  0  0  0  0  0  0  0  0  0  0  0
   45.1810   31.5971   48.1741 H   0  0  0  0  0  0  0  0  0  0  0  0
   47.8513   31.9067   47.3292 H   0  0  0  0  0  0  0  0  0  0  0  0
   47.7941   33.4541   47.4364 H   0  0  0  0  0  0  0  0  0  0  0  0
  1 10  1  0
  2  6  1  0
  2  1  1  0
  3  2  1  0
  4  3  2  0
  4  5  1  0
  5  6  2  0
  6  7  1  0
  7  9  1  0
  8  7  1  0
  8  9  1  0
 10 11  1  0
 11 12  2  0
 11 16  1  0
 12 13  1  0
 13 14  2  0
 15 14  1  0
 15 17  1  0
 16 15  2  0
 17 19  1  0
 17 18  1  0
 19 18  1  0
  1 20  1  0
  1 21  1  0
  3 22  1  0
  4 23  1  0
  7 24  1  0
  8 25  1  0
  8 26  1  0
  9 27  1  0
  9 28  1  0
 10 29  1  0
 10 30  1  0
 12 31  1  0
 13 32  1  0
 17 33  1  0
 18 34  1  0
 18 35  1  0
 19 36  1  0
 19 37  1  0
M  ISO  8  20   8  21   8  22  14  23  14  24  13  25  13  26  13  27  13
M  ISO  8  28  13  29   8  30   8  31  14  32  14  33  13  34  13  35  13
M  ISO  2  36  13  37  13
M  END
>  <minimizedAffinity>  (1) 
-5.05762672

>  <minimizedRMSD>  (1) 
0.267119467

$$$$
