
     RDKit          3D

 36 38  0  0  0  0  0  0  0  0999 V2000
   47.7660   34.9680   41.7210 C   0  0  0  0  0  0  0  0  0  0  0  0
   48.0850   34.0990   40.6350 N   0  0  0  0  0  0  0  0  0  0  0  0
   47.6410   34.0770   39.3690 C   0  0  0  0  0  0  0  0  0  0  0  0
   48.2130   33.0650   38.6260 C   0  0  0  0  0  0  0  0  0  0  0  0
   49.0390   32.4560   39.4970 N   0  0  0  0  0  0  0  0  0  0  0  0
   48.9550   33.0800   40.6930 C   0  0  0  0  0  0  0  0  0  0  0  0
   49.7800   32.5580   41.8330 C   0  0  0  0  0  0  0  0  0  0  0  0
   51.2440   32.2740   41.6150 C   0  0  0  0  0  0  0  0  0  0  0  0
   50.8220   33.4750   42.3970 C   0  0  0  0  0  0  0  0  0  0  0  0
   46.2690   35.0620   41.9540 C   0  0  0  0  0  0  0  0  0  0  0  0
   45.9130   34.8160   43.3370 C   0  0  0  0  0  0  0  0  0  0  0  0
   44.9490   35.6710   43.8620 C   0  0  0  0  0  0  0  0  0  0  0  0
   44.4940   35.5770   45.1570 C   0  0  0  0  0  0  0  0  0  0  0  0
   45.0480   34.5900   45.9070 N   0  0  0  0  0  0  0  0  0  0  0  0
   45.9930   33.7530   45.3950 C   0  0  0  0  0  0  0  0  0  0  0  0
   46.4040   33.8900   44.1120 N   0  0  0  0  0  0  0  0  0  0  0  0
   46.5160   32.7200   46.3160 C   0  0  0  0  0  0  0  0  0  0  0  0
   45.5720   32.6100   47.4870 C   0  0  0  0  0  0  0  0  0  0  0  0
   48.1543   35.9727   41.4977 H   0  0  0  0  0  0  0  0  0  0  0  0
   48.2261   34.5566   42.6315 H   0  0  0  0  0  0  0  0  0  0  0  0
   46.9028   34.7871   38.9680 H   0  0  0  0  0  0  0  0  0  0  0  0
   48.0357   32.8146   37.5697 H   0  0  0  0  0  0  0  0  0  0  0  0
   48.9363   31.9754   42.2315 H   0  0  0  0  0  0  0  0  0  0  0  0
   51.7218   31.4249   42.1256 H   0  0  0  0  0  0  0  0  0  0  0  0
   51.8811   32.1027   40.7348 H   0  0  0  0  0  0  0  0  0  0  0  0
   50.9555   34.4809   41.9723 H   0  0  0  0  0  0  0  0  0  0  0  0
   51.0494   33.8660   43.3997 H   0  0  0  0  0  0  0  0  0  0  0  0
   45.9299   36.0706   41.6751 H   0  0  0  0  0  0  0  0  0  0  0  0
   45.7827   34.2911   41.3382 H   0  0  0  0  0  0  0  0  0  0  0  0
   44.5327   36.4560   43.2136 H   0  0  0  0  0  0  0  0  0  0  0  0
   43.7298   36.2583   45.5593 H   0  0  0  0  0  0  0  0  0  0  0  0
   46.5769   31.7532   45.7949 H   0  0  0  0  0  0  0  0  0  0  0  0
   47.5222   32.9962   46.6642 H   0  0  0  0  0  0  0  0  0  0  0  0
   46.1423   32.6765   48.4252 H   0  0  0  0  0  0  0  0  0  0  0  0
   44.8386   33.4288   47.4449 H   0  0  0  0  0  0  0  0  0  0  0  0
   45.0465   31.6445   47.4449 H   0  0  0  0  0  0  0  0  0  0  0  0
  1 10  1  0
  2  6  1  0
  2  1  1  0
  3  2  1  0
  4  3  2  0
  4  5  1  0
  5  6  2  0
  6  7  1  0
  7  9  1  0
  8  7  1  0
  8  9  1  0
 10 11  1  0
 11 12  2  0
 11 16  1  0
 12 13  1  0
 13 14  2  0
 15 14  1  0
 15 17  1  0
 16 15  2  0
 17 18  1  0
  1 19  1  0
  1 20  1  0
  3 21  1  0
  4 22  1  0
  7 23  1  0
  8 24  1  0
  8 25  1  0
  9 26  1  0
  9 27  1  0
 10 28  1  0
 10 29  1  0
 12 30  1  0
 13 31  1  0
 17 32  1  0
 17 33  1  0
 18 34  1  0
 18 35  1  0
 18 36  1  0
M  ISO  8  19   8  20   8  21  14  22  14  23  13  24  13  25  13  26  13
M  ISO  8  27  13  28   8  29   8  30  14  31  14  32   8  33   8  34   8
M  ISO  2  35   8  36   8
M  END
>  <minimizedAffinity>  (1) 
-4.8474493

>  <minimizedRMSD>  (1) 
0.391986668

$$$$
