
     RDKit          3D

 31 33  0  0  0  0  0  0  0  0999 V2000
   47.6310   34.8520   41.6760 C   0  0  0  0  0  0  0  0  0  0  0  0
   48.0370   34.0290   40.5920 N   0  0  0  0  0  0  0  0  0  0  0  0
   47.6450   34.0050   39.3080 C   0  0  0  0  0  0  0  0  0  0  0  0
   48.2890   33.0490   38.5660 C   0  0  0  0  0  0  0  0  0  0  0  0
   49.1270   32.4570   39.4610 N   0  0  0  0  0  0  0  0  0  0  0  0
   48.9600   33.0550   40.6590 C   0  0  0  0  0  0  0  0  0  0  0  0
   49.7700   32.5690   41.8120 C   0  0  0  0  0  0  0  0  0  0  0  0
   51.2440   32.2850   41.6200 C   0  0  0  0  0  0  0  0  0  0  0  0
   50.7990   33.4770   42.4000 C   0  0  0  0  0  0  0  0  0  0  0  0
   46.1240   34.9480   41.7940 C   0  0  0  0  0  0  0  0  0  0  0  0
   45.6760   34.8940   43.1690 C   0  0  0  0  0  0  0  0  0  0  0  0
   44.9850   36.0170   43.6200 C   0  0  0  0  0  0  0  0  0  0  0  0
   44.4930   36.1190   44.9010 C   0  0  0  0  0  0  0  0  0  0  0  0
   44.7090   35.0750   45.7110 N   0  0  0  0  0  0  0  0  0  0  0  0
   45.3840   33.9750   45.2770 C   0  0  0  0  0  0  0  0  0  0  0  0
   45.8610   33.9030   43.9980 N   0  0  0  0  0  0  0  0  0  0  0  0
   45.5220   32.9860   46.2380 O   0  0  0  0  0  0  0  0  0  0  0  0
   48.0387   35.8624   41.5247 H   0  0  0  0  0  0  0  0  0  0  0  0
   48.0122   34.3987   42.6029 H   0  0  0  0  0  0  0  0  0  0  0  0
   46.8846   34.6833   38.8937 H   0  0  0  0  0  0  0  0  0  0  0  0
   48.1593   32.8153   37.4990 H   0  0  0  0  0  0  0  0  0  0  0  0
   48.9134   31.9979   42.1995 H   0  0  0  0  0  0  0  0  0  0  0  0
   51.7128   31.4332   42.1345 H   0  0  0  0  0  0  0  0  0  0  0  0
   51.9006   32.1204   40.7529 H   0  0  0  0  0  0  0  0  0  0  0  0
   50.9397   34.4862   41.9855 H   0  0  0  0  0  0  0  0  0  0  0  0
   51.0046   33.8595   43.4106 H   0  0  0  0  0  0  0  0  0  0  0  0
   45.7945   35.8998   41.3518 H   0  0  0  0  0  0  0  0  0  0  0  0
   45.6896   34.0872   41.2646 H   0  0  0  0  0  0  0  0  0  0  0  0
   44.8267   36.8546   42.9248 H   0  0  0  0  0  0  0  0  0  0  0  0
   43.9499   37.0127   45.2422 H   0  0  0  0  0  0  0  0  0  0  0  0
   45.9983   32.1462   46.0191 H   0  0  0  0  0  0  0  0  0  0  0  0
  1 10  1  0
  2  6  1  0
  2  1  1  0
  3  2  1  0
  4  3  2  0
  4  5  1  0
  5  6  2  0
  6  7  1  0
  7  9  1  0
  8  7  1  0
  8  9  1  0
 10 11  1  0
 11 12  2  0
 11 16  1  0
 12 13  1  0
 13 14  2  0
 15 14  1  0
 15 17  1  0
 16 15  2  0
  1 18  1  0
  1 19  1  0
  3 20  1  0
  4 21  1  0
  7 22  1  0
  8 23  1  0
  8 24  1  0
  9 25  1  0
  9 26  1  0
 10 27  1  0
 10 28  1  0
 12 29  1  0
 13 30  1  0
 17 31  1  0
M  ISO  8  18   8  19   8  20  14  21  14  22  13  23  13  24  13  25  13
M  ISO  6  26  13  27   8  28   8  29  14  30  14  31   3
M  END
>  <minimizedAffinity>  (1) 
-4.78711367

>  <minimizedRMSD>  (1) 
0.102431543

$$$$
