
     RDKit          3D

 33 35  0  0  0  0  0  0  0  0999 V2000
   47.6670   34.8670   41.6470 C   0  0  0  0  0  0  0  0  0  0  0  0
   48.0600   34.0350   40.5620 N   0  0  0  0  0  0  0  0  0  0  0  0
   47.6740   34.0100   39.2800 C   0  0  0  0  0  0  0  0  0  0  0  0
   48.3220   33.0290   38.5450 C   0  0  0  0  0  0  0  0  0  0  0  0
   49.1330   32.4460   39.4470 N   0  0  0  0  0  0  0  0  0  0  0  0
   48.9700   33.0500   40.6410 C   0  0  0  0  0  0  0  0  0  0  0  0
   49.7720   32.5450   41.8190 C   0  0  0  0  0  0  0  0  0  0  0  0
   51.2400   32.2790   41.6310 C   0  0  0  0  0  0  0  0  0  0  0  0
   50.7910   33.4860   42.3910 C   0  0  0  0  0  0  0  0  0  0  0  0
   46.1620   34.9510   41.7980 C   0  0  0  0  0  0  0  0  0  0  0  0
   45.7490   34.8720   43.1890 C   0  0  0  0  0  0  0  0  0  0  0  0
   44.9200   35.9010   43.6120 C   0  0  0  0  0  0  0  0  0  0  0  0
   44.4390   35.9670   44.8980 C   0  0  0  0  0  0  0  0  0  0  0  0
   44.7960   34.9970   45.7420 N   0  0  0  0  0  0  0  0  0  0  0  0
   45.6180   33.9740   45.3250 C   0  0  0  0  0  0  0  0  0  0  0  0
   46.0770   33.9400   44.0410 N   0  0  0  0  0  0  0  0  0  0  0  0
   45.9620   32.9380   46.3330 C   0  0  0  0  0  0  0  0  0  0  0  0
   48.0614   35.8795   41.4760 H   0  0  0  0  0  0  0  0  0  0  0  0
   48.0715   34.4260   42.5700 H   0  0  0  0  0  0  0  0  0  0  0  0
   46.9240   34.6938   38.8559 H   0  0  0  0  0  0  0  0  0  0  0  0
   48.2019   32.7854   37.4791 H   0  0  0  0  0  0  0  0  0  0  0  0
   48.9289   31.9572   42.2109 H   0  0  0  0  0  0  0  0  0  0  0  0
   51.7196   31.4426   42.1606 H   0  0  0  0  0  0  0  0  0  0  0  0
   51.8939   32.1049   40.7638 H   0  0  0  0  0  0  0  0  0  0  0  0
   50.9187   34.4881   41.9557 H   0  0  0  0  0  0  0  0  0  0  0  0
   50.9957   33.8936   43.3920 H   0  0  0  0  0  0  0  0  0  0  0  0
   45.8159   35.9072   41.3786 H   0  0  0  0  0  0  0  0  0  0  0  0
   45.7188   34.0981   41.2631 H   0  0  0  0  0  0  0  0  0  0  0  0
   44.6391   36.6879   42.8965 H   0  0  0  0  0  0  0  0  0  0  0  0
   43.7835   36.7897   45.2197 H   0  0  0  0  0  0  0  0  0  0  0  0
   45.8252   33.3501   47.3437 H   0  0  0  0  0  0  0  0  0  0  0  0
   45.3054   32.0654   46.2008 H   0  0  0  0  0  0  0  0  0  0  0  0
   47.0101   32.6315   46.2008 H   0  0  0  0  0  0  0  0  0  0  0  0
  1 10  1  0
  2  6  1  0
  2  1  1  0
  3  2  1  0
  4  3  2  0
  4  5  1  0
  5  6  2  0
  6  7  1  0
  7  9  1  0
  8  7  1  0
  8  9  1  0
 10 11  1  0
 11 12  2  0
 11 16  1  0
 12 13  1  0
 13 14  2  0
 15 14  1  0
 15 17  1  0
 16 15  2  0
  1 18  1  0
  1 19  1  0
  3 20  1  0
  4 21  1  0
  7 22  1  0
  8 23  1  0
  8 24  1  0
  9 25  1  0
  9 26  1  0
 10 27  1  0
 10 28  1  0
 12 29  1  0
 13 30  1  0
 17 31  1  0
 17 32  1  0
 17 33  1  0
M  ISO  8  18   8  19   8  20  14  21  14  22  13  23  13  24  13  25  13
M  ISO  8  26  13  27   8  28   8  29  14  30  14  31   8  32   8  33   8
M  END
>  <minimizedAffinity>  (1) 
-4.77406836

>  <minimizedRMSD>  (1) 
0.055965025

$$$$
