
     RDKit          3D

 31 33  0  0  0  0  0  0  0  0999 V2000
   47.6870   34.8830   41.6240 C   0  0  0  0  0  0  0  0  0  0  0  0
   48.0770   34.0390   40.5530 N   0  0  0  0  0  0  0  0  0  0  0  0
   47.6850   34.0140   39.2690 C   0  0  0  0  0  0  0  0  0  0  0  0
   48.3220   33.0200   38.5400 C   0  0  0  0  0  0  0  0  0  0  0  0
   49.1330   32.4280   39.4410 N   0  0  0  0  0  0  0  0  0  0  0  0
   48.9760   33.0460   40.6320 C   0  0  0  0  0  0  0  0  0  0  0  0
   49.7770   32.5500   41.8000 C   0  0  0  0  0  0  0  0  0  0  0  0
   51.2500   32.2750   41.6200 C   0  0  0  0  0  0  0  0  0  0  0  0
   50.7950   33.4690   42.3910 C   0  0  0  0  0  0  0  0  0  0  0  0
   46.1790   34.9610   41.7760 C   0  0  0  0  0  0  0  0  0  0  0  0
   45.7640   34.8800   43.1630 C   0  0  0  0  0  0  0  0  0  0  0  0
   44.9180   35.8980   43.5980 C   0  0  0  0  0  0  0  0  0  0  0  0
   44.4370   35.9630   44.8850 C   0  0  0  0  0  0  0  0  0  0  0  0
   44.8180   34.9910   45.7230 N   0  0  0  0  0  0  0  0  0  0  0  0
   45.6470   33.9910   45.3050 C   0  0  0  0  0  0  0  0  0  0  0  0
   46.1080   33.9580   44.0160 N   0  0  0  0  0  0  0  0  0  0  0  0
   46.1190   32.7210   46.4840 S   0  0  0  0  0  0  0  0  0  0  0  0
   48.0765   35.8946   41.4371 H   0  0  0  0  0  0  0  0  0  0  0  0
   48.0974   34.4598   42.5527 H   0  0  0  0  0  0  0  0  0  0  0  0
   46.9421   34.7042   38.8428 H   0  0  0  0  0  0  0  0  0  0  0  0
   48.1953   32.7724   37.4757 H   0  0  0  0  0  0  0  0  0  0  0  0
   48.9235   31.9701   42.1811 H   0  0  0  0  0  0  0  0  0  0  0  0
   51.7202   31.4286   42.1420 H   0  0  0  0  0  0  0  0  0  0  0  0
   51.9127   32.1097   40.7577 H   0  0  0  0  0  0  0  0  0  0  0  0
   50.9323   34.4768   41.9720 H   0  0  0  0  0  0  0  0  0  0  0  0
   50.9917   33.8588   43.4006 H   0  0  0  0  0  0  0  0  0  0  0  0
   45.8295   35.9160   41.3567 H   0  0  0  0  0  0  0  0  0  0  0  0
   45.7407   34.1053   41.2416 H   0  0  0  0  0  0  0  0  0  0  0  0
   44.6230   36.6809   42.8838 H   0  0  0  0  0  0  0  0  0  0  0  0
   43.7706   36.7754   45.2104 H   0  0  0  0  0  0  0  0  0  0  0  0
   45.9436   33.1929   47.7582 H   0  0  0  0  0  0  0  0  0  0  0  0
  1 10  1  0
  2  6  1  0
  2  1  1  0
  3  2  1  0
  4  3  2  0
  4  5  1  0
  5  6  2  0
  6  7  1  0
  7  9  1  0
  8  7  1  0
  8  9  1  0
 10 11  1  0
 11 12  2  0
 11 16  1  0
 12 13  1  0
 13 14  2  0
 15 14  1  0
 15 17  1  0
 16 15  2  0
  1 18  1  0
  1 19  1  0
  3 20  1  0
  4 21  1  0
  7 22  1  0
  8 23  1  0
  8 24  1  0
  9 25  1  0
  9 26  1  0
 10 27  1  0
 10 28  1  0
 12 29  1  0
 13 30  1  0
 17 31  1  0
M  ISO  8  18   8  19   8  20  14  21  14  22  13  23  13  24  13  25  13
M  ISO  6  26  13  27   8  28   8  29  14  30  14  31  11
M  END
>  <minimizedAffinity>  (1) 
-4.74259281

>  <minimizedRMSD>  (1) 
0.0699396655

$$$$
