
     RDKit          3D

 42 46  0  0  0  0  0  0  0  0999 V2000
   46.2150   34.9710   41.6320 C   0  0  0  0  0  0  0  0  0  0  0  0
   45.9020   34.8230   43.0350 C   0  0  0  0  0  0  0  0  0  0  0  0
   44.8410   35.6070   43.5060 C   0  0  0  0  0  0  0  0  0  0  0  0
   44.4350   35.5580   44.8280 C   0  0  0  0  0  0  0  0  0  0  0  0
   45.1070   34.7190   45.6450 N   0  0  0  0  0  0  0  0  0  0  0  0
   46.1420   33.9570   45.1660 C   0  0  0  0  0  0  0  0  0  0  0  0
   46.5110   34.0350   43.8620 N   0  0  0  0  0  0  0  0  0  0  0  0
   46.6960   33.1670   46.1430 O   0  0  0  0  0  0  0  0  0  0  0  0
   45.0090   30.0420   49.0580 N   0  0  0  0  0  0  0  0  0  0  0  0
   45.3630   31.1980   49.6760 C   0  0  0  0  0  0  0  0  0  0  0  0
   45.8540   32.0990   48.8050 N   0  0  0  0  0  0  0  0  0  0  0  0
   45.8310   31.5500   47.6010 C   0  0  0  0  0  0  0  0  0  0  0  0
   46.1710   31.8900   46.2980 C   0  0  0  0  0  0  0  0  0  0  0  0
   45.9920   31.0180   45.2860 N   0  0  0  0  0  0  0  0  0  0  0  0
   45.4840   29.8000   45.4850 C   0  0  0  0  0  0  0  0  0  0  0  0
   45.1340   29.4140   46.7270 N   0  0  0  0  0  0  0  0  0  0  0  0
   45.3040   30.2700   47.7630 C   0  0  0  0  0  0  0  0  0  0  0  0
   47.6950   35.0420   41.3750 C   0  0  0  0  0  0  0  0  0  0  0  0
   48.1380   34.1070   40.4000 N   0  0  0  0  0  0  0  0  0  0  0  0
   47.8670   33.9980   39.0990 C   0  0  0  0  0  0  0  0  0  0  0  0
   48.5090   32.9480   38.5090 C   0  0  0  0  0  0  0  0  0  0  0  0
   49.2210   32.3820   39.5290 N   0  0  0  0  0  0  0  0  0  0  0  0
   48.9780   33.0970   40.6480 C   0  0  0  0  0  0  0  0  0  0  0  0
   49.6440   32.6410   41.9110 C   0  0  0  0  0  0  0  0  0  0  0  0
   51.0250   32.0500   41.8530 C   0  0  0  0  0  0  0  0  0  0  0  0
   50.8260   33.4380   42.3950 C   0  0  0  0  0  0  0  0  0  0  0  0
   45.8034   34.1092   41.0862 H   0  0  0  0  0  0  0  0  0  0  0  0
   45.7711   35.9173   41.2892 H   0  0  0  0  0  0  0  0  0  0  0  0
   44.3181   36.2776   42.8083 H   0  0  0  0  0  0  0  0  0  0  0  0
   43.6022   36.1749   45.1967 H   0  0  0  0  0  0  0  0  0  0  0  0
   44.6093   29.1915   49.4795 H   0  0  0  0  0  0  0  0  0  0  0  0
   45.2610   31.3764   50.7566 H   0  0  0  0  0  0  0  0  0  0  0  0
   45.3514   29.1128   44.6364 H   0  0  0  0  0  0  0  0  0  0  0  0
   47.9412   36.0554   41.0252 H   0  0  0  0  0  0  0  0  0  0  0  0
   48.2036   34.7967   42.3190 H   0  0  0  0  0  0  0  0  0  0  0  0
   47.1966   34.6822   38.5582 H   0  0  0  0  0  0  0  0  0  0  0  0
   48.4638   32.6309   37.4567 H   0  0  0  0  0  0  0  0  0  0  0  0
   48.6865   32.3061   42.3365 H   0  0  0  0  0  0  0  0  0  0  0  0
   51.3006   31.2292   42.5315 H   0  0  0  0  0  0  0  0  0  0  0  0
   51.6479   31.6062   41.0624 H   0  0  0  0  0  0  0  0  0  0  0  0
   51.1752   34.3084   41.8201 H   0  0  0  0  0  0  0  0  0  0  0  0
   51.0867   33.9523   43.3317 H   0  0  0  0  0  0  0  0  0  0  0  0
  1  2  1  0
  2  3  2  0
  2  7  1  0
  3  4  1  0
  4  5  2  0
  6  5  1  0
  6  8  1  0
  7  6  2  0
  8 13  1  0
  9 10  1  0
 11 10  2  0
 12 17  2  0
 12 11  1  0
 13 12  1  0
 14 15  1  0
 14 13  2  0
 15 16  2  0
 16 17  1  0
 17  9  1  0
 18  1  1  0
 19 23  1  0
 19 18  1  0
 20 19  1  0
 21 20  2  0
 21 22  1  0
 22 23  2  0
 23 24  1  0
 24 26  1  0
 25 24  1  0
 25 26  1  0
  1 27  1  0
  1 28  1  0
  3 29  1  0
  4 30  1  0
  9 31  1  0
 10 32  1  0
 15 33  1  0
 18 34  1  0
 18 35  1  0
 20 36  1  0
 21 37  1  0
 24 38  1  0
 25 39  1  0
 25 40  1  0
 26 41  1  0
 26 42  1  0
M  ISO  8  27   8  28   8  29  14  30  14  31   9  32  14  33  14  34   8
M  ISO  8  35   8  36  14  37  14  38  13  39  13  40  13  41  13  42  13
M  END
>  <minimizedAffinity>  (1) 
-6.09331989

>  <minimizedRMSD>  (1) 
1.70113301

$$$$
