
     RDKit          3D

 46 49  0  0  0  0  0  0  0  0999 V2000
   45.5600   33.4710   42.0620 C   0  0  0  0  0  0  0  0  0  0  0  0
   45.2910   34.0430   43.3570 C   0  0  0  0  0  0  0  0  0  0  0  0
   44.8030   35.3520   43.3500 C   0  0  0  0  0  0  0  0  0  0  0  0
   44.4960   36.0290   44.5000 C   0  0  0  0  0  0  0  0  0  0  0  0
   44.6840   35.3810   45.6530 N   0  0  0  0  0  0  0  0  0  0  0  0
   45.1590   34.1060   45.6640 C   0  0  0  0  0  0  0  0  0  0  0  0
   45.4660   33.4300   44.5040 N   0  0  0  0  0  0  0  0  0  0  0  0
   45.2970   33.5750   46.9330 O   0  0  0  0  0  0  0  0  0  0  0  0
   46.8050   30.2810   49.0390 N   0  0  0  0  0  0  0  0  0  0  0  0
   47.5910   31.4200   48.7860 C   0  0  0  0  0  0  0  0  0  0  0  0
   47.1580   32.3770   47.7370 C   0  0  0  0  0  0  0  0  0  0  0  0
   45.7450   32.3200   47.2940 C   0  0  0  0  0  0  0  0  0  0  0  0
   44.9320   31.6500   48.3710 C   0  0  0  0  0  0  0  0  0  0  0  0
   45.5170   30.2330   48.4340 C   0  0  0  0  0  0  0  0  0  0  0  0
   46.3940   34.3670   41.1890 C   0  0  0  0  0  0  0  0  0  0  0  0
   47.3750   33.6660   40.4380 N   0  0  0  0  0  0  0  0  0  0  0  0
   47.3530   33.2330   39.1720 C   0  0  0  0  0  0  0  0  0  0  0  0
   48.5120   32.5980   38.8130 C   0  0  0  0  0  0  0  0  0  0  0  0
   49.2760   32.6540   39.9400 N   0  0  0  0  0  0  0  0  0  0  0  0
   48.5700   33.3000   40.9010 C   0  0  0  0  0  0  0  0  0  0  0  0
   49.2110   33.4630   42.2350 C   0  0  0  0  0  0  0  0  0  0  0  0
   50.7030   33.5680   42.3620 C   0  0  0  0  0  0  0  0  0  0  0  0
   49.8500   34.7930   42.5330 C   0  0  0  0  0  0  0  0  0  0  0  0
   46.0954   32.5204   42.2024 H   0  0  0  0  0  0  0  0  0  0  0  0
   44.5932   33.3254   41.5579 H   0  0  0  0  0  0  0  0  0  0  0  0
   44.6599   35.8581   42.3839 H   0  0  0  0  0  0  0  0  0  0  0  0
   44.1121   37.0595   44.4755 H   0  0  0  0  0  0  0  0  0  0  0  0
   47.3331   29.4604   48.7095 H   0  0  0  0  0  0  0  0  0  0  0  0
   47.6549   31.9830   49.7288 H   0  0  0  0  0  0  0  0  0  0  0  0
   48.5324   31.0079   48.3935 H   0  0  0  0  0  0  0  0  0  0  0  0
   47.3411   33.3912   48.1216 H   0  0  0  0  0  0  0  0  0  0  0  0
   47.7402   32.0963   46.8469 H   0  0  0  0  0  0  0  0  0  0  0  0
   45.6369   31.7118   46.3839 H   0  0  0  0  0  0  0  0  0  0  0  0
   45.0525   32.1680   49.3339 H   0  0  0  0  0  0  0  0  0  0  0  0
   43.8525   31.6583   48.1598 H   0  0  0  0  0  0  0  0  0  0  0  0
   44.8548   29.5885   49.0307 H   0  0  0  0  0  0  0  0  0  0  0  0
   45.6035   29.8250   47.4161 H   0  0  0  0  0  0  0  0  0  0  0  0
   45.7270   34.8911   40.4887 H   0  0  0  0  0  0  0  0  0  0  0  0
   46.9280   35.0628   41.8528 H   0  0  0  0  0  0  0  0  0  0  0  0
   46.4979   33.3719   38.4941 H   0  0  0  0  0  0  0  0  0  0  0  0
   48.7667   32.1480   37.8421 H   0  0  0  0  0  0  0  0  0  0  0  0
   48.4547   32.8169   42.7046 H   0  0  0  0  0  0  0  0  0  0  0  0
   51.2129   33.1276   43.2315 H   0  0  0  0  0  0  0  0  0  0  0  0
   51.5578   33.2994   41.7239 H   0  0  0  0  0  0  0  0  0  0  0  0
   49.8607   35.5824   41.7670 H   0  0  0  0  0  0  0  0  0  0  0  0
   49.7311   35.5557   43.3167 H   0  0  0  0  0  0  0  0  0  0  0  0
  1  2  1  0
  2  7  1  0
  3  2  2  0
  3  4  1  0
  4  5  2  0
  5  6  1  0
  6  8  1  0
  7  6  2  0
  8 12  1  0
 10  9  1  0
 11 10  1  0
 12 11  1  0
 12 13  1  0
 13 14  1  0
 14  9  1  0
 15  1  1  0
 16 20  1  0
 16 15  1  0
 17 16  1  0
 18 17  2  0
 18 19  1  0
 19 20  2  0
 20 21  1  0
 21 22  1  0
 21 23  1  0
 22 23  1  0
  1 24  1  0
  1 25  1  0
  3 26  1  0
  4 27  1  0
  9 28  1  0
 10 29  1  0
 10 30  1  0
 11 31  1  0
 11 32  1  0
 12 33  1  0
 13 34  1  0
 13 35  1  0
 14 36  1  0
 14 37  1  0
 15 38  1  0
 15 39  1  0
 17 40  1  0
 18 41  1  0
 21 42  1  0
 22 43  1  0
 22 44  1  0
 23 45  1  0
 23 46  1  0
M  ISO  8  24   8  25   8  26  14  27  14  28   5  29  13  30  13  31  13
M  ISO  8  32  13  33  13  34  13  35  13  36  13  37  13  38   8  39   8
M  ISO  7  40  14  41  14  42  13  43  13  44  13  45  13  46  13
M  END
>  <minimizedAffinity>  (1) 
-5.99135399

>  <minimizedRMSD>  (1) 
1.31766629

$$$$
