
     RDKit          3D

 39 42  0  0  0  0  0  0  0  0999 V2000
   46.1660   34.9280   41.9100 C   0  0  0  0  0  0  0  0  0  0  0  0
   45.9050   34.7010   43.3150 C   0  0  0  0  0  0  0  0  0  0  0  0
   44.9000   35.4640   43.8810 C   0  0  0  0  0  0  0  0  0  0  0  0
   44.5320   35.3650   45.2020 C   0  0  0  0  0  0  0  0  0  0  0  0
   45.1990   34.4810   45.9460 N   0  0  0  0  0  0  0  0  0  0  0  0
   46.1990   33.7150   45.4040 C   0  0  0  0  0  0  0  0  0  0  0  0
   46.5230   33.8560   44.0750 N   0  0  0  0  0  0  0  0  0  0  0  0
   46.7970   32.8490   46.2830 O   0  0  0  0  0  0  0  0  0  0  0  0
   46.2200   32.1000   47.2620 C   0  0  0  0  0  0  0  0  0  0  0  0
   46.0590   32.3020   48.6100 C   0  0  0  0  0  0  0  0  0  0  0  0
   45.4330   31.3940   49.4200 C   0  0  0  0  0  0  0  0  0  0  0  0
   44.9470   30.2580   48.9100 N   0  0  0  0  0  0  0  0  0  0  0  0
   45.1000   30.0430   47.5700 C   0  0  0  0  0  0  0  0  0  0  0  0
   45.7190   30.9350   46.7560 N   0  0  0  0  0  0  0  0  0  0  0  0
   47.6440   35.0230   41.6180 C   0  0  0  0  0  0  0  0  0  0  0  0
   48.0580   34.1260   40.5960 N   0  0  0  0  0  0  0  0  0  0  0  0
   47.7190   34.0530   39.3110 C   0  0  0  0  0  0  0  0  0  0  0  0
   48.3490   33.0340   38.6440 C   0  0  0  0  0  0  0  0  0  0  0  0
   49.1130   32.4620   39.6000 N   0  0  0  0  0  0  0  0  0  0  0  0
   48.9280   33.1280   40.7650 C   0  0  0  0  0  0  0  0  0  0  0  0
   49.6720   32.6510   41.9680 C   0  0  0  0  0  0  0  0  0  0  0  0
   51.0590   32.0920   41.8270 C   0  0  0  0  0  0  0  0  0  0  0  0
   50.8610   33.4640   42.4040 C   0  0  0  0  0  0  0  0  0  0  0  0
   45.7423   34.0943   41.3308 H   0  0  0  0  0  0  0  0  0  0  0  0
   45.7016   35.8845   41.6282 H   0  0  0  0  0  0  0  0  0  0  0  0
   44.3689   36.1856   43.2429 H   0  0  0  0  0  0  0  0  0  0  0  0
   43.7271   35.9843   45.6247 H   0  0  0  0  0  0  0  0  0  0  0  0
   46.4480   33.2291   49.0562 H   0  0  0  0  0  0  0  0  0  0  0  0
   45.3293   31.5998   50.4956 H   0  0  0  0  0  0  0  0  0  0  0  0
   44.7070   29.1125   47.1345 H   0  0  0  0  0  0  0  0  0  0  0  0
   47.8749   36.0504   41.2999 H   0  0  0  0  0  0  0  0  0  0  0  0
   48.1834   34.7521   42.5376 H   0  0  0  0  0  0  0  0  0  0  0  0
   47.0058   34.7404   38.8326 H   0  0  0  0  0  0  0  0  0  0  0  0
   48.2549   32.7505   37.5853 H   0  0  0  0  0  0  0  0  0  0  0  0
   48.7467   32.2797   42.4326 H   0  0  0  0  0  0  0  0  0  0  0  0
   51.3869   31.2655   42.4746 H   0  0  0  0  0  0  0  0  0  0  0  0
   51.6483   31.6759   40.9966 H   0  0  0  0  0  0  0  0  0  0  0  0
   51.1616   34.3517   41.8281 H   0  0  0  0  0  0  0  0  0  0  0  0
   51.1604   33.9671   43.3353 H   0  0  0  0  0  0  0  0  0  0  0  0
  1  2  1  0
  2  3  2  0
  2  7  1  0
  3  4  1  0
  4  5  2  0
  6  5  1  0
  6  8  1  0
  7  6  2  0
  8  9  1  0
  9 10  2  0
 10 11  1  0
 12 11  2  0
 13 12  1  0
 14  9  1  0
 14 13  2  0
 15  1  1  0
 16 20  1  0
 16 15  1  0
 17 16  1  0
 18 17  2  0
 18 19  1  0
 19 20  2  0
 20 21  1  0
 21 23  1  0
 22 21  1  0
 22 23  1  0
  1 24  1  0
  1 25  1  0
  3 26  1  0
  4 27  1  0
 10 28  1  0
 11 29  1  0
 13 30  1  0
 15 31  1  0
 15 32  1  0
 17 33  1  0
 18 34  1  0
 21 35  1  0
 22 36  1  0
 22 37  1  0
 23 38  1  0
 23 39  1  0
M  ISO  8  24   8  25   8  26  14  27  14  28  14  29  14  30  14  31   8
M  ISO  8  32   8  33  14  34  14  35  13  36  13  37  13  38  13  39  13
M  END
>  <minimizedAffinity>  (1) 
-5.76897812

>  <minimizedRMSD>  (1) 
1.70932138

$$$$
