
     RDKit          3D

 38 41  0  0  0  0  0  0  0  0999 V2000
   47.4710   34.8890   41.7320 C   0  0  0  0  0  0  0  0  0  0  0  0
   47.9340   34.0570   40.6890 N   0  0  0  0  0  0  0  0  0  0  0  0
   47.5650   34.0010   39.4010 C   0  0  0  0  0  0  0  0  0  0  0  0
   48.2650   33.0490   38.6930 C   0  0  0  0  0  0  0  0  0  0  0  0
   49.1080   32.5020   39.6210 N   0  0  0  0  0  0  0  0  0  0  0  0
   48.8850   33.1250   40.8020 C   0  0  0  0  0  0  0  0  0  0  0  0
   49.6840   32.6780   41.9710 C   0  0  0  0  0  0  0  0  0  0  0  0
   51.0970   32.2010   41.7970 C   0  0  0  0  0  0  0  0  0  0  0  0
   50.8300   33.5490   42.4090 C   0  0  0  0  0  0  0  0  0  0  0  0
   45.9890   34.7700   41.9660 C   0  0  0  0  0  0  0  0  0  0  0  0
   45.6560   34.6710   43.3680 C   0  0  0  0  0  0  0  0  0  0  0  0
   44.8640   35.6940   43.8850 C   0  0  0  0  0  0  0  0  0  0  0  0
   44.4590   35.7450   45.1900 C   0  0  0  0  0  0  0  0  0  0  0  0
   44.8690   34.7380   45.9850 N   0  0  0  0  0  0  0  0  0  0  0  0
   45.6480   33.7250   45.4920 C   0  0  0  0  0  0  0  0  0  0  0  0
   46.0350   33.7050   44.1790 N   0  0  0  0  0  0  0  0  0  0  0  0
   45.9920   32.7660   46.4130 O   0  0  0  0  0  0  0  0  0  0  0  0
   45.3460   32.7580   47.6650 C   0  0  0  0  0  0  0  0  0  0  0  0
   46.2020   32.1310   48.7560 C   0  0  0  0  0  0  0  0  0  0  0  0
   44.9330   31.5060   48.3200 C   0  0  0  0  0  0  0  0  0  0  0  0
   47.7026   35.9335   41.4762 H   0  0  0  0  0  0  0  0  0  0  0  0
   47.9763   34.5704   42.6557 H   0  0  0  0  0  0  0  0  0  0  0  0
   46.7895   34.6438   38.9590 H   0  0  0  0  0  0  0  0  0  0  0  0
   48.1685   32.7890   37.6285 H   0  0  0  0  0  0  0  0  0  0  0  0
   48.7886   32.2457   42.4416 H   0  0  0  0  0  0  0  0  0  0  0  0
   51.4810   31.3803   42.4207 H   0  0  0  0  0  0  0  0  0  0  0  0
   51.6958   31.8371   40.9490 H   0  0  0  0  0  0  0  0  0  0  0  0
   51.0704   34.4649   41.8493 H   0  0  0  0  0  0  0  0  0  0  0  0
   51.1142   34.0483   43.3470 H   0  0  0  0  0  0  0  0  0  0  0  0
   45.4935   35.6585   41.5477 H   0  0  0  0  0  0  0  0  0  0  0  0
   45.6465   33.8470   41.4754 H   0  0  0  0  0  0  0  0  0  0  0  0
   44.5483   36.5021   43.2087 H   0  0  0  0  0  0  0  0  0  0  0  0
   43.8318   36.5647   45.5703 H   0  0  0  0  0  0  0  0  0  0  0  0
   44.7972   33.6896   47.4625 H   0  0  0  0  0  0  0  0  0  0  0  0
   47.1649   31.6629   48.5037 H   0  0  0  0  0  0  0  0  0  0  0  0
   46.6227   32.4678   49.7150 H   0  0  0  0  0  0  0  0  0  0  0  0
   44.0657   31.5062   48.9966 H   0  0  0  0  0  0  0  0  0  0  0  0
   44.6584   30.5054   47.9547 H   0  0  0  0  0  0  0  0  0  0  0  0
  1 10  1  0
  2  6  1  0
  2  1  1  0
  3  2  1  0
  4  3  2  0
  4  5  1  0
  5  6  2  0
  6  7  1  0
  7  9  1  0
  8  7  1  0
  8  9  1  0
 10 11  1  0
 11 12  2  0
 11 16  1  0
 12 13  1  0
 13 14  2  0
 15 14  1  0
 15 17  1  0
 16 15  2  0
 17 18  1  0
 18 20  1  0
 18 19  1  0
 20 19  1  0
  1 21  1  0
  1 22  1  0
  3 23  1  0
  4 24  1  0
  7 25  1  0
  8 26  1  0
  8 27  1  0
  9 28  1  0
  9 29  1  0
 10 30  1  0
 10 31  1  0
 12 32  1  0
 13 33  1  0
 18 34  1  0
 19 35  1  0
 19 36  1  0
 20 37  1  0
 20 38  1  0
M  ISO  8  21   8  22   8  23  14  24  14  25  13  26  13  27  13  28  13
M  ISO  8  29  13  30   8  31   8  32  14  33  14  34  13  35  13  36  13
M  ISO  2  37  13  38  13
M  END
>  <minimizedAffinity>  (1) 
-5.1997633

>  <minimizedRMSD>  (1) 
0.482251048

$$$$
