
     RDKit          3D

 45 49  0  0  1  0  0  0  0  0999 V2000
   45.6470   34.6370   43.3930 C   0  0  0  0  0  0  0  0  0  0  0  0
   44.8710   35.7020   43.8720 C   0  0  0  0  0  0  0  0  0  0  0  0
   44.4620   35.7960   45.1700 C   0  0  0  0  0  0  0  0  0  0  0  0
   44.8420   34.8010   45.9950 N   0  0  0  0  0  0  0  0  0  0  0  0
   45.6050   33.7510   45.5310 C   0  0  0  0  0  0  0  0  0  0  0  0
   46.0070   33.6750   44.2220 N   0  0  0  0  0  0  0  0  0  0  0  0
   45.9900   34.6830   41.9960 C   0  0  0  0  0  0  0  0  0  0  0  0
   47.4610   34.8130   41.7570 C   0  0  0  0  0  0  0  0  0  0  0  0
   47.9400   34.0140   40.6930 N   0  0  0  0  0  0  0  0  0  0  0  0
   47.5730   33.9900   39.4100 C   0  0  0  0  0  0  0  0  0  0  0  0
   48.2860   33.0780   38.6840 C   0  0  0  0  0  0  0  0  0  0  0  0
   49.1390   32.5170   39.5980 N   0  0  0  0  0  0  0  0  0  0  0  0
   48.9010   33.1070   40.7950 C   0  0  0  0  0  0  0  0  0  0  0  0
   49.7070   32.6140   41.9530 C   0  0  0  0  0  0  0  0  0  0  0  0
   51.1120   32.1650   41.7720 C   0  0  0  0  0  0  0  0  0  0  0  0
   50.8440   33.5180   42.3980 C   0  0  0  0  0  0  0  0  0  0  0  0
   45.9240   32.7980   46.4720 O   0  0  0  0  0  0  0  0  0  0  0  0
   45.1920   32.7860   47.6900 C   0  0  2  0  0  0  0  0  0  0  0  0
   45.9940   32.3490   48.8840 C   0  0  0  0  0  0  0  0  0  0  0  0
   44.9110   31.4810   48.3470 C   0  0  2  0  0  0  0  0  0  0  0  0
   45.2060   30.2940   47.5120 C   0  0  0  0  0  0  0  0  0  0  0  0
   45.2260   28.9810   47.9110 C   0  0  0  0  0  0  0  0  0  0  0  0
   45.5460   28.2080   46.8140 C   0  0  0  0  0  0  0  0  0  0  0  0
   45.7100   29.0580   45.7950 N   0  0  0  0  0  0  0  0  0  0  0  0
   45.5100   30.3010   46.2010 N   0  0  0  0  0  0  0  0  0  0  0  0
   44.5791   36.4970   43.1700 H   0  0  0  0  0  0  0  0  0  0  0  0
   43.8533   36.6407   45.5248 H   0  0  0  0  0  0  0  0  0  0  0  0
   45.6382   33.7566   41.5184 H   0  0  0  0  0  0  0  0  0  0  0  0
   45.5082   35.5750   41.5691 H   0  0  0  0  0  0  0  0  0  0  0  0
   47.6832   35.8656   41.5273 H   0  0  0  0  0  0  0  0  0  0  0  0
   47.9656   34.4653   42.6705 H   0  0  0  0  0  0  0  0  0  0  0  0
   46.7864   34.6312   38.9855 H   0  0  0  0  0  0  0  0  0  0  0  0
   48.1959   32.8472   37.6123 H   0  0  0  0  0  0  0  0  0  0  0  0
   48.8275   32.1396   42.4129 H   0  0  0  0  0  0  0  0  0  0  0  0
   51.5087   31.3451   42.3887 H   0  0  0  0  0  0  0  0  0  0  0  0
   51.7070   31.8135   40.9162 H   0  0  0  0  0  0  0  0  0  0  0  0
   51.0687   34.4398   41.8415 H   0  0  0  0  0  0  0  0  0  0  0  0
   51.1277   34.0204   43.3345 H   0  0  0  0  0  0  0  0  0  0  0  0
   44.5582   33.6406   47.4108 H   0  0  0  0  0  0  0  0  0  0  0  0
   47.0470   32.0549   48.7627 H   0  0  0  0  0  0  0  0  0  0  0  0
   46.2300   32.7838   49.8665 H   0  0  0  0  0  0  0  0  0  0  0  0
   44.0629   30.9802   48.8369 H   0  0  0  0  0  0  0  0  0  0  0  0
   45.0227   28.6103   48.9265 H   0  0  0  0  0  0  0  0  0  0  0  0
   45.6461   27.1130   46.7838 H   0  0  0  0  0  0  0  0  0  0  0  0
   45.9564   28.7845   44.8330 H   0  0  0  0  0  0  0  0  0  0  0  0
  1  2  2  0
  1  6  1  0
  2  3  1  0
  3  4  2  0
  5  4  1  0
  5 17  1  0
  6  5  2  0
  7  1  1  0
  8  7  1  0
  9 13  1  0
  9  8  1  0
 10  9  1  0
 11 10  2  0
 11 12  1  0
 12 13  2  0
 13 14  1  0
 14 16  1  0
 15 14  1  0
 15 16  1  0
 17 18  1  0
 18 20  1  0
 18 19  1  0
 20 19  1  0
 21 22  1  0
 21 20  1  0
 23 22  2  0
 24 25  1  0
 24 23  1  0
 25 21  2  0
  2 26  1  0
  3 27  1  0
  7 28  1  0
  7 29  1  0
  8 30  1  0
  8 31  1  0
 10 32  1  0
 11 33  1  0
 14 34  1  0
 15 35  1  0
 15 36  1  0
 16 37  1  0
 16 38  1  0
 18 39  1  1
 19 40  1  0
 19 41  1  0
 20 42  1  1
 22 43  1  0
 23 44  1  0
 24 45  1  0
M  ISO  8  26  14  27  14  28   8  29   8  30   8  31   8  32  14  33  14
M  ISO  8  34  13  35  13  36  13  37  13  38  13  39  13  40  13  41  13
M  ISO  4  42  13  43  14  44  14  45   9
M  END
>  <minimizedAffinity>  (1) 
-5.81486225

>  <minimizedRMSD>  (1) 
0.298481196

$$$$
