
     RDKit          3D

 45 48  0  0  1  0  0  0  0  0999 V2000
   45.7400   34.9300   43.1250 C   0  0  0  0  0  0  0  0  0  0  0  0
   44.9590   35.9670   43.6580 C   0  0  0  0  0  0  0  0  0  0  0  0
   44.4870   35.9610   44.9400 C   0  0  0  0  0  0  0  0  0  0  0  0
   44.8060   34.8980   45.6960 N   0  0  0  0  0  0  0  0  0  0  0  0
   45.5740   33.8740   45.1800 C   0  0  0  0  0  0  0  0  0  0  0  0
   46.0370   33.9020   43.8890 N   0  0  0  0  0  0  0  0  0  0  0  0
   46.1570   35.0830   41.7550 C   0  0  0  0  0  0  0  0  0  0  0  0
   47.6410   35.0070   41.5900 C   0  0  0  0  0  0  0  0  0  0  0  0
   48.0580   34.1070   40.5940 N   0  0  0  0  0  0  0  0  0  0  0  0
   47.7080   34.0320   39.3090 C   0  0  0  0  0  0  0  0  0  0  0  0
   48.3600   32.9960   38.6590 C   0  0  0  0  0  0  0  0  0  0  0  0
   49.1380   32.4300   39.6250 N   0  0  0  0  0  0  0  0  0  0  0  0
   48.9300   33.1240   40.7740 C   0  0  0  0  0  0  0  0  0  0  0  0
   49.6780   32.6370   41.9710 C   0  0  0  0  0  0  0  0  0  0  0  0
   51.0490   32.0700   41.8620 C   0  0  0  0  0  0  0  0  0  0  0  0
   50.8710   33.4720   42.4070 C   0  0  0  0  0  0  0  0  0  0  0  0
   45.8300   32.8400   46.0550 O   0  0  0  0  0  0  0  0  0  0  0  0
   45.4890   33.0190   47.4220 C   0  0  2  0  0  0  0  0  0  0  0  0
   46.3530   32.2300   48.3720 C   0  0  0  0  0  0  0  0  0  0  0  0
   44.9170   31.8800   48.1820 C   0  0  2  0  0  0  0  0  0  0  0  0
   44.7190   30.6120   47.4780 N   0  0  0  0  0  0  0  0  0  0  0  0
   45.6330   29.5670   47.7570 C   0  0  0  0  0  0  0  0  0  0  0  0
   46.6290   29.6410   48.5740 N   0  0  0  0  0  0  0  0  0  0  0  0
   45.4130   28.3520   47.0700 N   0  0  0  0  0  0  0  0  0  0  0  0
   46.8720   30.4850   49.1240 H   0  0  0  0  0  0  0  0  0  0  0  0
   44.7155   36.8246   43.0136 H   0  0  0  0  0  0  0  0  0  0  0  0
   43.8757   36.7864   45.3336 H   0  0  0  0  0  0  0  0  0  0  0  0
   45.6952   34.2845   41.1557 H   0  0  0  0  0  0  0  0  0  0  0  0
   45.8369   36.0808   41.4205 H   0  0  0  0  0  0  0  0  0  0  0  0
   48.0122   36.0090   41.3288 H   0  0  0  0  0  0  0  0  0  0  0  0
   48.0499   34.6404   42.5431 H   0  0  0  0  0  0  0  0  0  0  0  0
   46.9897   34.7096   38.8244 H   0  0  0  0  0  0  0  0  0  0  0  0
   48.2702   32.6982   37.6039 H   0  0  0  0  0  0  0  0  0  0  0  0
   48.7504   32.2566   42.4235 H   0  0  0  0  0  0  0  0  0  0  0  0
   51.3603   31.2566   42.5339 H   0  0  0  0  0  0  0  0  0  0  0  0
   51.6396   31.6269   41.0466 H   0  0  0  0  0  0  0  0  0  0  0  0
   51.1854   34.3416   41.8112 H   0  0  0  0  0  0  0  0  0  0  0  0
   51.1658   34.0009   43.3253 H   0  0  0  0  0  0  0  0  0  0  0  0
   45.1733   34.0643   47.2893 H   0  0  0  0  0  0  0  0  0  0  0  0
   47.1389   31.5667   47.9817 H   0  0  0  0  0  0  0  0  0  0  0  0
   46.9906   32.4737   49.2346 H   0  0  0  0  0  0  0  0  0  0  0  0
   44.0251   31.7800   48.8180 H   0  0  0  0  0  0  0  0  0  0  0  0
   43.9472   30.4852   46.8078 H   0  0  0  0  0  0  0  0  0  0  0  0
   46.0411   27.5508   47.2266 H   0  0  0  0  0  0  0  0  0  0  0  0
   44.6246   28.2675   46.4126 H   0  0  0  0  0  0  0  0  0  0  0  0
  1  2  2  0
  1  6  1  0
  2  3  1  0
  3  4  2  0
  5  4  1  0
  5 17  1  0
  6  5  2  0
  7  1  1  0
  8  7  1  0
  9 13  1  0
  9  8  1  0
 10  9  1  0
 11 10  2  0
 11 12  1  0
 12 13  2  0
 13 14  1  0
 14 16  1  0
 15 14  1  0
 15 16  1  0
 17 18  1  0
 18 20  1  0
 18 19  1  0
 20 19  1  0
 21 22  1  0
 21 20  1  0
 22 23  2  0
 23 25  1  0
 24 22  1  0
  2 26  1  0
  3 27  1  0
  7 28  1  0
  7 29  1  0
  8 30  1  0
  8 31  1  0
 10 32  1  0
 11 33  1  0
 14 34  1  0
 15 35  1  0
 15 36  1  0
 16 37  1  0
 16 38  1  0
 18 39  1  1
 19 40  1  0
 19 41  1  0
 20 42  1  1
 21 43  1  0
 24 44  1  0
 24 45  1  0
M  ISO  8  26  14  27  14  28   8  29   8  30   8  31   8  32  14  33  14
M  ISO  8  34  13  35  13  36  13  37  13  38  13  39  13  40  13  41  13
M  ISO  1  42  13
M  END
>  <minimizedAffinity>  (1) 
-5.74584007

>  <minimizedRMSD>  (1) 
0.598238528

$$$$
