
     RDKit          3D

 50 54  0  0  1  0  0  0  0  0999 V2000
   45.8050   34.8290   43.3380 C   0  0  0  0  0  0  0  0  0  0  0  0
   44.8690   35.7240   43.8430 C   0  0  0  0  0  0  0  0  0  0  0  0
   44.4180   35.7060   45.1440 C   0  0  0  0  0  0  0  0  0  0  0  0
   44.9430   34.7500   45.9320 N   0  0  0  0  0  0  0  0  0  0  0  0
   45.8710   33.8590   45.4380 C   0  0  0  0  0  0  0  0  0  0  0  0
   46.2930   33.9130   44.1340 N   0  0  0  0  0  0  0  0  0  0  0  0
   46.1610   34.9930   41.9490 C   0  0  0  0  0  0  0  0  0  0  0  0
   47.6390   34.9740   41.7230 C   0  0  0  0  0  0  0  0  0  0  0  0
   48.0440   34.1080   40.6820 N   0  0  0  0  0  0  0  0  0  0  0  0
   47.6710   34.0730   39.4050 C   0  0  0  0  0  0  0  0  0  0  0  0
   48.3020   33.0800   38.7000 C   0  0  0  0  0  0  0  0  0  0  0  0
   49.1120   32.4830   39.6300 N   0  0  0  0  0  0  0  0  0  0  0  0
   48.9280   33.1290   40.8110 C   0  0  0  0  0  0  0  0  0  0  0  0
   49.7030   32.6090   41.9800 C   0  0  0  0  0  0  0  0  0  0  0  0
   51.0800   32.0680   41.8160 C   0  0  0  0  0  0  0  0  0  0  0  0
   50.8950   33.4510   42.4080 C   0  0  0  0  0  0  0  0  0  0  0  0
   46.3250   32.9320   46.3500 O   0  0  0  0  0  0  0  0  0  0  0  0
   45.5160   32.6510   47.4840 C   0  0  2  0  0  0  0  0  0  0  0  0
   46.2800   32.0290   48.6280 C   0  0  0  0  0  0  0  0  0  0  0  0
   45.2900   31.2360   47.8740 C   0  0  2  0  0  0  0  0  0  0  0  0
   45.6170   30.2200   46.9460 N   0  0  0  0  0  0  0  0  0  0  0  0
   46.8150   29.5060   47.0700 C   0  0  0  0  0  0  0  0  0  0  0  0
   46.5000   28.0620   47.4000 C   0  0  0  0  0  0  0  0  0  0  0  0
   45.0170   28.0970   47.6960 C   0  0  0  0  0  0  0  0  0  0  0  0
   44.5590   29.2310   46.7950 C   0  0  0  0  0  0  0  0  0  0  0  0
   44.4656   36.4903   43.1648 H   0  0  0  0  0  0  0  0  0  0  0  0
   43.6755   36.4275   45.5155 H   0  0  0  0  0  0  0  0  0  0  0  0
   45.7066   34.1749   41.3709 H   0  0  0  0  0  0  0  0  0  0  0  0
   45.7894   35.9767   41.6260 H   0  0  0  0  0  0  0  0  0  0  0  0
   47.9650   35.9943   41.4725 H   0  0  0  0  0  0  0  0  0  0  0  0
   48.1008   34.6010   42.6491 H   0  0  0  0  0  0  0  0  0  0  0  0
   46.9377   34.7640   38.9637 H   0  0  0  0  0  0  0  0  0  0  0  0
   48.1851   32.8230   37.6368 H   0  0  0  0  0  0  0  0  0  0  0  0
   48.7947   32.1988   42.4455 H   0  0  0  0  0  0  0  0  0  0  0  0
   51.4229   31.2404   42.4543 H   0  0  0  0  0  0  0  0  0  0  0  0
   51.6544   31.6591   40.9717 H   0  0  0  0  0  0  0  0  0  0  0  0
   51.1787   34.3430   41.8301 H   0  0  0  0  0  0  0  0  0  0  0  0
   51.2071   33.9574   43.3333 H   0  0  0  0  0  0  0  0  0  0  0  0
   44.8411   33.5043   47.3214 H   0  0  0  0  0  0  0  0  0  0  0  0
   47.3537   31.8149   48.5217 H   0  0  0  0  0  0  0  0  0  0  0  0
   46.4359   32.2775   49.6882 H   0  0  0  0  0  0  0  0  0  0  0  0
   44.4427   30.6157   48.2017 H   0  0  0  0  0  0  0  0  0  0  0  0
   47.3721   29.5542   46.1228 H   0  0  0  0  0  0  0  0  0  0  0  0
   47.4261   29.9445   47.8727 H   0  0  0  0  0  0  0  0  0  0  0  0
   46.7173   27.4045   46.5453 H   0  0  0  0  0  0  0  0  0  0  0  0
   47.0994   27.6668   48.2334 H   0  0  0  0  0  0  0  0  0  0  0  0
   44.5304   27.1478   47.4272 H   0  0  0  0  0  0  0  0  0  0  0  0
   44.7736   28.2406   48.7591 H   0  0  0  0  0  0  0  0  0  0  0  0
   43.5912   29.6339   47.1282 H   0  0  0  0  0  0  0  0  0  0  0  0
   44.4042   28.9190   45.7516 H   0  0  0  0  0  0  0  0  0  0  0  0
  1  2  2  0
  1  6  1  0
  2  3  1  0
  3  4  2  0
  5  4  1  0
  5 17  1  0
  6  5  2  0
  7  1  1  0
  8  7  1  0
  9 13  1  0
  9  8  1  0
 10  9  1  0
 11 10  2  0
 11 12  1  0
 12 13  2  0
 13 14  1  0
 14 16  1  0
 15 14  1  0
 15 16  1  0
 17 18  1  0
 18 20  1  0
 18 19  1  0
 20 19  1  0
 21 22  1  0
 21 20  1  0
 22 23  1  0
 23 24  1  0
 25 21  1  0
 25 24  1  0
  2 26  1  0
  3 27  1  0
  7 28  1  0
  7 29  1  0
  8 30  1  0
  8 31  1  0
 10 32  1  0
 11 33  1  0
 14 34  1  0
 15 35  1  0
 15 36  1  0
 16 37  1  0
 16 38  1  0
 18 39  1  1
 19 40  1  0
 19 41  1  0
 20 42  1  1
 22 43  1  0
 22 44  1  0
 23 45  1  0
 23 46  1  0
 24 47  1  0
 24 48  1  0
 25 49  1  0
 25 50  1  0
M  ISO  8  26  14  27  14  28   8  29   8  30   8  31   8  32  14  33  14
M  ISO  8  34  13  35  13  36  13  37  13  38  13  39  13  40  13  41  13
M  ISO  8  42  13  43  13  44  13  45  13  46  13  47  13  48  13  49  13
M  ISO  1  50  13
M  END
>  <minimizedAffinity>  (1) 
-5.65215921

>  <minimizedRMSD>  (1) 
0.572122157

$$$$
