
     RDKit          3D

 45 49  0  0  1  0  0  0  0  0999 V2000
   46.3060   35.0620   41.9250 C   0  0  0  0  0  0  0  0  0  0  0  0
   46.0800   34.6730   43.2890 C   0  0  0  0  0  0  0  0  0  0  0  0
   45.0740   35.3630   43.9770 C   0  0  0  0  0  0  0  0  0  0  0  0
   44.7390   35.1040   45.2790 C   0  0  0  0  0  0  0  0  0  0  0  0
   45.4430   34.1250   45.8860 N   0  0  0  0  0  0  0  0  0  0  0  0
   46.4290   33.4420   45.2250 C   0  0  0  0  0  0  0  0  0  0  0  0
   46.7410   33.7250   43.9240 N   0  0  0  0  0  0  0  0  0  0  0  0
   47.0590   32.4690   45.9690 O   0  0  0  0  0  0  0  0  0  0  0  0
   46.7290   32.3510   47.3460 C   0  0  2  0  0  0  0  0  0  0  0  0
   47.8980   32.4760   48.2780 C   0  0  0  0  0  0  0  0  0  0  0  0
   47.2220   31.1660   48.0990 C   0  0  1  0  0  0  0  0  0  0  0  0
   46.2920   30.6090   49.1460 C   0  0  0  0  0  0  0  0  0  0  0  0
   45.0980   31.4150   49.4830 C   0  0  0  0  0  0  0  0  0  0  0  0
   44.9690   30.0460   48.8270 C   0  0  0  0  0  0  0  0  0  0  0  0
   47.7560   35.1150   41.5660 C   0  0  0  0  0  0  0  0  0  0  0  0
   48.1260   34.1790   40.5710 N   0  0  0  0  0  0  0  0  0  0  0  0
   47.7620   34.1160   39.2900 C   0  0  0  0  0  0  0  0  0  0  0  0
   48.3490   33.0520   38.6420 C   0  0  0  0  0  0  0  0  0  0  0  0
   49.1060   32.4520   39.6080 N   0  0  0  0  0  0  0  0  0  0  0  0
   48.9490   33.1560   40.7580 C   0  0  0  0  0  0  0  0  0  0  0  0
   49.6740   32.6450   41.9440 C   0  0  0  0  0  0  0  0  0  0  0  0
   51.0360   32.0600   41.8320 C   0  0  0  0  0  0  0  0  0  0  0  0
   50.8770   33.4550   42.4000 C   0  0  0  0  0  0  0  0  0  0  0  0
   45.8080   34.3355   41.2661 H   0  0  0  0  0  0  0  0  0  0  0  0
   45.8985   36.0761   41.7999 H   0  0  0  0  0  0  0  0  0  0  0  0
   44.5250   36.1533   43.4441 H   0  0  0  0  0  0  0  0  0  0  0  0
   43.9447   35.6597   45.7988 H   0  0  0  0  0  0  0  0  0  0  0  0
   45.7388   32.8156   47.2294 H   0  0  0  0  0  0  0  0  0  0  0  0
   48.9093   32.6334   47.8748 H   0  0  0  0  0  0  0  0  0  0  0  0
   48.1428   33.1150   49.1392 H   0  0  0  0  0  0  0  0  0  0  0  0
   47.6007   30.1609   47.8616 H   0  0  0  0  0  0  0  0  0  0  0  0
   47.1526   30.1882   49.6866 H   0  0  0  0  0  0  0  0  0  0  0  0
   44.8034   31.5554   50.5335 H   0  0  0  0  0  0  0  0  0  0  0  0
   44.7467   32.4319   49.2538 H   0  0  0  0  0  0  0  0  0  0  0  0
   44.6415   29.9638   47.7801 H   0  0  0  0  0  0  0  0  0  0  0  0
   44.4383   29.1118   49.0629 H   0  0  0  0  0  0  0  0  0  0  0  0
   47.9865   36.1252   41.1966 H   0  0  0  0  0  0  0  0  0  0  0  0
   48.3235   34.8631   42.4740 H   0  0  0  0  0  0  0  0  0  0  0  0
   47.0755   34.8281   38.8087 H   0  0  0  0  0  0  0  0  0  0  0  0
   48.2347   32.7540   37.5893 H   0  0  0  0  0  0  0  0  0  0  0  0
   48.7383   32.2729   42.3867 H   0  0  0  0  0  0  0  0  0  0  0  0
   51.3317   31.2307   42.4914 H   0  0  0  0  0  0  0  0  0  0  0  0
   51.6238   31.6220   41.0118 H   0  0  0  0  0  0  0  0  0  0  0  0
   51.2074   34.3297   41.8206 H   0  0  0  0  0  0  0  0  0  0  0  0
   51.1752   33.9639   43.3285 H   0  0  0  0  0  0  0  0  0  0  0  0
  1  2  1  0
  2  7  1  0
  2  3  2  0
  3  4  1  0
  4  5  2  0
  6  5  1  0
  6  8  1  0
  7  6  2  0
  8  9  1  0
  9 11  1  0
  9 10  1  0
 11 10  1  0
 11 12  1  0
 12 13  1  0
 14 12  1  0
 14 13  1  0
 15  1  1  0
 16 20  1  0
 16 15  1  0
 17 16  1  0
 18 17  2  0
 18 19  1  0
 19 20  2  0
 20 21  1  0
 21 23  1  0
 22 21  1  0
 22 23  1  0
  1 24  1  0
  1 25  1  0
  3 26  1  0
  4 27  1  0
  9 28  1  1
 10 29  1  0
 10 30  1  0
 11 31  1  6
 12 32  1  0
 13 33  1  0
 13 34  1  0
 14 35  1  0
 14 36  1  0
 15 37  1  0
 15 38  1  0
 17 39  1  0
 18 40  1  0
 21 41  1  0
 22 42  1  0
 22 43  1  0
 23 44  1  0
 23 45  1  0
M  ISO  8  24   8  25   8  26  14  27  14  28  13  29  13  30  13  31  13
M  ISO  8  32  13  33  13  34  13  35  13  36  13  37   8  38   8  39  14
M  ISO  6  40  14  41  13  42  13  43  13  44  13  45  13
M  END
>  <minimizedAffinity>  (1) 
-5.50917721

>  <minimizedRMSD>  (1) 
1.31034076

$$$$
