
     RDKit          3D

 41 44  0  0  1  0  0  0  0  0999 V2000
   45.9870   34.7050   42.0040 C   0  0  0  0  0  0  0  0  0  0  0  0
   45.6470   34.6410   43.4020 C   0  0  0  0  0  0  0  0  0  0  0  0
   44.8560   35.6880   43.8970 C   0  0  0  0  0  0  0  0  0  0  0  0
   44.4490   35.7640   45.1950 C   0  0  0  0  0  0  0  0  0  0  0  0
   44.8480   34.7650   46.0070 N   0  0  0  0  0  0  0  0  0  0  0  0
   45.6240   33.7310   45.5320 C   0  0  0  0  0  0  0  0  0  0  0  0
   46.0180   33.6820   44.2220 N   0  0  0  0  0  0  0  0  0  0  0  0
   45.9570   32.7780   46.4670 O   0  0  0  0  0  0  0  0  0  0  0  0
   45.2500   32.7590   47.6980 C   0  0  2  0  0  0  0  0  0  0  0  0
   46.0460   32.2440   48.8620 C   0  0  0  0  0  0  0  0  0  0  0  0
   44.9130   31.4470   48.3130 C   0  0  2  0  0  0  0  0  0  0  0  0
   45.1180   30.2100   47.4950 C   0  0  0  0  0  0  0  0  0  0  0  0
   47.4570   34.8300   41.7630 C   0  0  0  0  0  0  0  0  0  0  0  0
   47.9290   34.0290   40.7040 N   0  0  0  0  0  0  0  0  0  0  0  0
   47.5590   34.0000   39.4230 C   0  0  0  0  0  0  0  0  0  0  0  0
   48.2710   33.0780   38.6940 C   0  0  0  0  0  0  0  0  0  0  0  0
   49.1260   32.5220   39.6080 N   0  0  0  0  0  0  0  0  0  0  0  0
   48.8890   33.1200   40.8060 C   0  0  0  0  0  0  0  0  0  0  0  0
   49.7030   32.6290   41.9600 C   0  0  0  0  0  0  0  0  0  0  0  0
   51.1120   32.1890   41.7720 C   0  0  0  0  0  0  0  0  0  0  0  0
   50.8380   33.5410   42.3990 C   0  0  0  0  0  0  0  0  0  0  0  0
   45.6288   33.7875   41.5143 H   0  0  0  0  0  0  0  0  0  0  0  0
   45.5093   35.6058   41.5912 H   0  0  0  0  0  0  0  0  0  0  0  0
   44.5496   36.4857   43.2044 H   0  0  0  0  0  0  0  0  0  0  0  0
   43.8285   36.5955   45.5604 H   0  0  0  0  0  0  0  0  0  0  0  0
   44.6574   33.6547   47.4602 H   0  0  0  0  0  0  0  0  0  0  0  0
   47.0816   31.9039   48.7140 H   0  0  0  0  0  0  0  0  0  0  0  0
   46.3171   32.6330   49.8546 H   0  0  0  0  0  0  0  0  0  0  0  0
   44.0303   30.9832   48.7775 H   0  0  0  0  0  0  0  0  0  0  0  0
   45.2609   29.3480   48.1633 H   0  0  0  0  0  0  0  0  0  0  0  0
   44.2358   30.0397   46.8604 H   0  0  0  0  0  0  0  0  0  0  0  0
   46.0079   30.3334   46.8604 H   0  0  0  0  0  0  0  0  0  0  0  0
   47.6823   35.8812   41.5300 H   0  0  0  0  0  0  0  0  0  0  0  0
   47.9624   34.4841   42.6767 H   0  0  0  0  0  0  0  0  0  0  0  0
   46.7729   34.6415   38.9981 H   0  0  0  0  0  0  0  0  0  0  0  0
   48.1761   32.8413   37.6240 H   0  0  0  0  0  0  0  0  0  0  0  0
   48.8291   32.1479   42.4236 H   0  0  0  0  0  0  0  0  0  0  0  0
   51.5174   31.3721   42.3871 H   0  0  0  0  0  0  0  0  0  0  0  0
   51.7050   31.8412   40.9133 H   0  0  0  0  0  0  0  0  0  0  0  0
   51.0539   34.4640   41.8409 H   0  0  0  0  0  0  0  0  0  0  0  0
   51.1233   34.0455   43.3339 H   0  0  0  0  0  0  0  0  0  0  0  0
  1  2  1  0
  2  3  2  0
  2  7  1  0
  3  4  1  0
  4  5  2  0
  6  5  1  0
  6  8  1  0
  7  6  2  0
  8  9  1  0
  9 11  1  0
  9 10  1  0
 11 10  1  0
 12 11  1  0
 13  1  1  0
 14 18  1  0
 14 13  1  0
 15 14  1  0
 16 15  2  0
 16 17  1  0
 17 18  2  0
 18 19  1  0
 19 21  1  0
 20 19  1  0
 20 21  1  0
  1 22  1  0
  1 23  1  0
  3 24  1  0
  4 25  1  0
  9 26  1  1
 10 27  1  0
 10 28  1  0
 11 29  1  1
 12 30  1  0
 12 31  1  0
 12 32  1  0
 13 33  1  0
 13 34  1  0
 15 35  1  0
 16 36  1  0
 19 37  1  0
 20 38  1  0
 20 39  1  0
 21 40  1  0
 21 41  1  0
M  ISO  8  22   8  23   8  24  14  25  14  26  13  27  13  28  13  29  13
M  ISO  8  30   8  31   8  32   8  33   8  34   8  35  14  36  14  37  13
M  ISO  4  38  13  39  13  40  13  41  13
M  END
>  <minimizedAffinity>  (1) 
-5.49127626

>  <minimizedRMSD>  (1) 
0.0839653388

$$$$
