
     RDKit          3D

 44 47  0  0  1  0  0  0  0  0999 V2000
   45.9880   34.7010   41.9400 C   0  0  0  0  0  0  0  0  0  0  0  0
   45.6570   34.6620   43.3430 C   0  0  0  0  0  0  0  0  0  0  0  0
   44.8290   35.6860   43.8090 C   0  0  0  0  0  0  0  0  0  0  0  0
   44.4200   35.7880   45.1140 C   0  0  0  0  0  0  0  0  0  0  0  0
   44.8650   34.8280   45.9500 N   0  0  0  0  0  0  0  0  0  0  0  0
   45.6800   33.8190   45.4990 C   0  0  0  0  0  0  0  0  0  0  0  0
   46.0700   33.7480   44.1860 N   0  0  0  0  0  0  0  0  0  0  0  0
   46.0600   32.9060   46.4580 O   0  0  0  0  0  0  0  0  0  0  0  0
   45.2620   32.7890   47.6290 C   0  0  2  0  0  0  0  0  0  0  0  0
   46.0040   32.2680   48.8290 C   0  0  0  0  0  0  0  0  0  0  0  0
   44.9720   31.4290   48.1550 C   0  0  2  0  0  0  0  0  0  0  0  0
   45.5390   30.2950   47.3250 C   0  0  0  0  0  0  0  0  0  0  0  0
   45.1050   28.9800   47.9850 C   0  0  0  0  0  0  0  0  0  0  0  0
   47.4540   34.8530   41.6930 C   0  0  0  0  0  0  0  0  0  0  0  0
   47.9420   34.0380   40.6460 N   0  0  0  0  0  0  0  0  0  0  0  0
   47.5990   34.0010   39.3620 C   0  0  0  0  0  0  0  0  0  0  0  0
   48.3210   33.0650   38.6600 C   0  0  0  0  0  0  0  0  0  0  0  0
   49.1500   32.5110   39.5970 N   0  0  0  0  0  0  0  0  0  0  0  0
   48.8910   33.1230   40.7820 C   0  0  0  0  0  0  0  0  0  0  0  0
   49.6750   32.6360   41.9570 C   0  0  0  0  0  0  0  0  0  0  0  0
   51.0740   32.1530   41.8150 C   0  0  0  0  0  0  0  0  0  0  0  0
   50.8230   33.5260   42.4080 C   0  0  0  0  0  0  0  0  0  0  0  0
   45.6485   33.7647   41.4730 H   0  0  0  0  0  0  0  0  0  0  0  0
   45.4872   35.5793   41.5067 H   0  0  0  0  0  0  0  0  0  0  0  0
   44.4880   36.4487   43.0934 H   0  0  0  0  0  0  0  0  0  0  0  0
   43.7679   36.6042   45.4583 H   0  0  0  0  0  0  0  0  0  0  0  0
   44.6297   33.6562   47.3876 H   0  0  0  0  0  0  0  0  0  0  0  0
   47.0687   32.0040   48.7470 H   0  0  0  0  0  0  0  0  0  0  0  0
   46.1728   32.6220   49.8567 H   0  0  0  0  0  0  0  0  0  0  0  0
   44.0620   30.9030   48.4793 H   0  0  0  0  0  0  0  0  0  0  0  0
   46.6369   30.3591   47.3014 H   0  0  0  0  0  0  0  0  0  0  0  0
   45.1701   30.3498   46.2902 H   0  0  0  0  0  0  0  0  0  0  0  0
   45.1411   29.0894   49.0789 H   0  0  0  0  0  0  0  0  0  0  0  0
   44.0784   28.7353   47.6747 H   0  0  0  0  0  0  0  0  0  0  0  0
   45.7842   28.1723   47.6747 H   0  0  0  0  0  0  0  0  0  0  0  0
   47.6560   35.9038   41.4379 H   0  0  0  0  0  0  0  0  0  0  0  0
   47.9690   34.5375   42.6123 H   0  0  0  0  0  0  0  0  0  0  0  0
   46.8275   34.6443   38.9136 H   0  0  0  0  0  0  0  0  0  0  0  0
   48.2488   32.8181   37.5905 H   0  0  0  0  0  0  0  0  0  0  0  0
   48.7770   32.1864   42.4059 H   0  0  0  0  0  0  0  0  0  0  0  0
   51.4397   31.3378   42.4567 H   0  0  0  0  0  0  0  0  0  0  0  0
   51.6786   31.7709   40.9793 H   0  0  0  0  0  0  0  0  0  0  0  0
   51.0793   34.4309   41.8375 H   0  0  0  0  0  0  0  0  0  0  0  0
   51.0982   34.0419   43.3397 H   0  0  0  0  0  0  0  0  0  0  0  0
  1  2  1  0
  2  3  2  0
  2  7  1  0
  3  4  1  0
  4  5  2  0
  6  5  1  0
  6  8  1  0
  7  6  2  0
  8  9  1  0
  9 11  1  0
  9 10  1  0
 11 10  1  0
 12 13  1  0
 12 11  1  0
 14  1  1  0
 15 19  1  0
 15 14  1  0
 16 15  1  0
 17 16  2  0
 17 18  1  0
 18 19  2  0
 19 20  1  0
 20 22  1  0
 21 20  1  0
 21 22  1  0
  1 23  1  0
  1 24  1  0
  3 25  1  0
  4 26  1  0
  9 27  1  1
 10 28  1  0
 10 29  1  0
 11 30  1  1
 12 31  1  0
 12 32  1  0
 13 33  1  0
 13 34  1  0
 13 35  1  0
 14 36  1  0
 14 37  1  0
 16 38  1  0
 17 39  1  0
 20 40  1  0
 21 41  1  0
 21 42  1  0
 22 43  1  0
 22 44  1  0
M  ISO  8  23   8  24   8  25  14  26  14  27  13  28  13  29  13  30  13
M  ISO  8  31   8  32   8  33   8  34   8  35   8  36   8  37   8  38  14
M  ISO  6  39  14  40  13  41  13  42  13  43  13  44  13
M  END
>  <minimizedAffinity>  (1) 
-5.44319725

>  <minimizedRMSD>  (1) 
0.193956152

$$$$
