
     RDKit          3D

 53 57  0  0  1  0  0  0  0  0999 V2000
   45.9990   34.6290   43.5100 C   0  0  0  0  0  0  0  0  0  0  0  0
   44.9910   35.3040   44.2110 C   0  0  0  0  0  0  0  0  0  0  0  0
   44.6760   35.0350   45.5160 C   0  0  0  0  0  0  0  0  0  0  0  0
   45.3900   34.0710   46.1200 N   0  0  0  0  0  0  0  0  0  0  0  0
   46.3840   33.4020   45.4360 C   0  0  0  0  0  0  0  0  0  0  0  0
   46.6770   33.6940   44.1280 N   0  0  0  0  0  0  0  0  0  0  0  0
   46.2020   35.0290   42.1420 C   0  0  0  0  0  0  0  0  0  0  0  0
   47.6490   35.0870   41.7660 C   0  0  0  0  0  0  0  0  0  0  0  0
   48.0070   34.1660   40.7530 N   0  0  0  0  0  0  0  0  0  0  0  0
   47.5950   34.0910   39.4870 C   0  0  0  0  0  0  0  0  0  0  0  0
   48.1870   33.0540   38.8110 C   0  0  0  0  0  0  0  0  0  0  0  0
   49.0070   32.4750   39.7450 N   0  0  0  0  0  0  0  0  0  0  0  0
   48.8710   33.1730   40.9040 C   0  0  0  0  0  0  0  0  0  0  0  0
   49.6620   32.6810   42.0660 C   0  0  0  0  0  0  0  0  0  0  0  0
   51.0130   32.0810   41.8970 C   0  0  0  0  0  0  0  0  0  0  0  0
   50.8950   33.4990   42.4190 C   0  0  0  0  0  0  0  0  0  0  0  0
   47.0440   32.4340   46.1640 O   0  0  0  0  0  0  0  0  0  0  0  0
   46.3020   31.7020   47.1300 C   0  0  2  0  0  0  0  0  0  0  0  0
   47.0060   31.5620   48.4530 C   0  0  0  0  0  0  0  0  0  0  0  0
   46.8220   30.3840   47.5780 C   0  0  1  0  0  0  0  0  0  0  0  0
   45.8750   29.3460   47.7950 N   0  0  0  0  0  0  0  0  0  0  0  0
   44.6670   29.6540   47.0800 C   0  0  0  0  0  0  0  0  0  0  0  0
   44.4680   28.8870   45.8120 C   0  0  0  0  0  0  0  0  0  0  0  0
   45.7310   28.4380   45.1430 C   0  0  0  0  0  0  0  0  0  0  0  0
   46.7650   27.8880   46.0690 C   0  0  0  0  0  0  0  0  0  0  0  0
   46.3320   28.0220   47.5090 C   0  0  0  0  0  0  0  0  0  0  0  0
   44.4250   36.0884   43.6873 H   0  0  0  0  0  0  0  0  0  0  0  0
   43.8791   35.5804   46.0427 H   0  0  0  0  0  0  0  0  0  0  0  0
   45.6965   34.3058   41.4852 H   0  0  0  0  0  0  0  0  0  0  0  0
   45.7880   36.0416   42.0270 H   0  0  0  0  0  0  0  0  0  0  0  0
   47.8754   36.1025   41.4089 H   0  0  0  0  0  0  0  0  0  0  0  0
   48.2271   34.8214   42.6634 H   0  0  0  0  0  0  0  0  0  0  0  0
   46.8654   34.7803   39.0369 H   0  0  0  0  0  0  0  0  0  0  0  0
   48.0382   32.7562   37.7626 H   0  0  0  0  0  0  0  0  0  0  0  0
   48.7528   32.3251   42.5727 H   0  0  0  0  0  0  0  0  0  0  0  0
   51.3425   31.2754   42.5697 H   0  0  0  0  0  0  0  0  0  0  0  0
   51.5491   31.6072   41.0615 H   0  0  0  0  0  0  0  0  0  0  0  0
   51.1954   34.3482   41.7876 H   0  0  0  0  0  0  0  0  0  0  0  0
   51.2501   34.0409   43.3079 H   0  0  0  0  0  0  0  0  0  0  0  0
   45.3221   32.0420   46.7638 H   0  0  0  0  0  0  0  0  0  0  0  0
   48.0082   31.9937   48.5920 H   0  0  0  0  0  0  0  0  0  0  0  0
   46.7583   31.8036   49.4971 H   0  0  0  0  0  0  0  0  0  0  0  0
   47.5335   29.6232   47.2246 H   0  0  0  0  0  0  0  0  0  0  0  0
   43.8151   29.4431   47.7432 H   0  0  0  0  0  0  0  0  0  0  0  0
   44.7441   30.7121   46.7894 H   0  0  0  0  0  0  0  0  0  0  0  0
   43.8674   27.9948   46.0427 H   0  0  0  0  0  0  0  0  0  0  0  0
   43.9736   29.5741   45.1095 H   0  0  0  0  0  0  0  0  0  0  0  0
   45.4732   27.6560   44.4136 H   0  0  0  0  0  0  0  0  0  0  0  0
   46.1726   29.3326   44.6797 H   0  0  0  0  0  0  0  0  0  0  0  0
   46.9236   26.8240   45.8391 H   0  0  0  0  0  0  0  0  0  0  0  0
   47.6962   28.4567   45.9300 H   0  0  0  0  0  0  0  0  0  0  0  0
   45.5155   27.3114   47.7048 H   0  0  0  0  0  0  0  0  0  0  0  0
   47.1982   27.8081   48.1524 H   0  0  0  0  0  0  0  0  0  0  0  0
  1  6  1  0
  1  2  2  0
  2  3  1  0
  3  4  2  0
  5  4  1  0
  5 17  1  0
  6  5  2  0
  7  1  1  0
  8  7  1  0
  9 13  1  0
  9  8  1  0
 10  9  1  0
 11 10  2  0
 11 12  1  0
 12 13  2  0
 13 14  1  0
 14 16  1  0
 15 14  1  0
 15 16  1  0
 17 18  1  0
 18 20  1  0
 18 19  1  0
 20 21  1  0
 20 19  1  0
 22 21  1  0
 23 22  1  0
 24 23  1  0
 24 25  1  0
 25 26  1  0
 26 21  1  0
  2 27  1  0
  3 28  1  0
  7 29  1  0
  7 30  1  0
  8 31  1  0
  8 32  1  0
 10 33  1  0
 11 34  1  0
 14 35  1  0
 15 36  1  0
 15 37  1  0
 16 38  1  0
 16 39  1  0
 18 40  1  1
 19 41  1  0
 19 42  1  0
 20 43  1  6
 22 44  1  0
 22 45  1  0
 23 46  1  0
 23 47  1  0
 24 48  1  0
 24 49  1  0
 25 50  1  0
 25 51  1  0
 26 52  1  0
 26 53  1  0
M  ISO  8  27  14  28  14  29   8  30   8  31   8  32   8  33  14  34  14
M  ISO  8  35  13  36  13  37  13  38  13  39  13  40  13  41  13  42  13
M  ISO  8  43  13  44  13  45  13  46  13  47  13  48  13  49  13  50  13
M  ISO  3  51  13  52  13  53  13
M  END
>  <minimizedAffinity>  (1) 
-5.31637383

>  <minimizedRMSD>  (1) 
2.01136041

$$$$
