
     RDKit          3D

 31 34  0  0  0  0  0  0  0  0999 V2000
   44.9120   34.5870   42.0620 C   0  0  0  0  0  0  0  0  0  0  0  0
   43.8150   35.1410   41.2570 C   0  0  0  0  0  0  0  0  0  0  0  0
   43.9410   33.7030   41.3340 C   0  0  0  0  0  0  0  0  0  0  0  0
   45.0120   34.4160   43.5030 C   0  0  0  0  0  0  0  0  0  0  0  0
   44.5030   35.4170   44.2960 N   0  0  0  0  0  0  0  0  0  0  0  0
   44.5230   35.4280   45.6260 C   0  0  0  0  0  0  0  0  0  0  0  0
   45.0490   34.4470   46.3660 N   0  0  0  0  0  0  0  0  0  0  0  0
   45.5800   33.4090   45.7010 C   0  0  0  0  0  0  0  0  0  0  0  0
   46.1400   32.3510   46.3780 C   0  0  0  0  0  0  0  0  0  0  0  0
   46.6900   31.2600   45.6990 C   0  0  0  0  0  0  0  0  0  0  0  0
   46.6440   31.2940   44.2970 C   0  0  0  0  0  0  0  0  0  0  0  0
   46.0740   32.3760   43.7060 C   0  0  0  0  0  0  0  0  0  0  0  0
   45.5290   33.4570   44.3290 C   0  0  0  0  0  0  0  0  0  0  0  0
   46.3130   34.6830   41.4620 C   0  0  0  0  0  0  0  0  0  0  0  0
   46.5250   33.9230   40.2760 C   0  0  0  0  0  0  0  0  0  0  0  0
   47.8300   33.9470   39.7600 C   0  0  0  0  0  0  0  0  0  0  0  0
   48.7890   34.6690   40.3980 N   0  0  0  0  0  0  0  0  0  0  0  0
   48.5210   35.3660   41.5150 C   0  0  0  0  0  0  0  0  0  0  0  0
   47.3120   35.3800   42.0460 N   0  0  0  0  0  0  0  0  0  0  0  0
   44.0401   35.6574   40.3122 H   0  0  0  0  0  0  0  0  0  0  0  0
   42.9989   35.8502   41.4595 H   0  0  0  0  0  0  0  0  0  0  0  0
   43.2021   33.1149   41.8980 H   0  0  0  0  0  0  0  0  0  0  0  0
   44.0282   32.8881   40.6003 H   0  0  0  0  0  0  0  0  0  0  0  0
   44.0825   36.2918   46.1454 H   0  0  0  0  0  0  0  0  0  0  0  0
   46.1554   32.3636   47.4778 H   0  0  0  0  0  0  0  0  0  0  0  0
   47.1385   30.4132   46.2392 H   0  0  0  0  0  0  0  0  0  0  0  0
   47.0565   30.4705   43.6956 H   0  0  0  0  0  0  0  0  0  0  0  0
   46.0501   32.3792   42.6063 H   0  0  0  0  0  0  0  0  0  0  0  0
   45.7166   33.3530   39.7947 H   0  0  0  0  0  0  0  0  0  0  0  0
   48.0750   33.3858   38.8462 H   0  0  0  0  0  0  0  0  0  0  0  0
   49.3269   35.9379   41.9981 H   0  0  0  0  0  0  0  0  0  0  0  0
  1  4  1  0
  2  3  1  0
  2  1  1  0
  3  1  1  0
  4  5  2  0
  4 13  1  0
  5  6  1  0
  6  7  2  0
  8  7  1  0
  8  9  2  0
 10  9  1  0
 11 10  2  0
 12 11  1  0
 12 13  2  0
 13  8  1  0
 14 19  1  0
 14  1  1  0
 15 14  2  0
 16 15  1  0
 16 17  2  0
 17 18  1  0
 18 19  2  0
  2 20  1  0
  2 21  1  0
  3 22  1  0
  3 23  1  0
  6 24  1  0
  9 25  1  0
 10 26  1  0
 11 27  1  0
 12 28  1  0
 15 29  1  0
 16 30  1  0
 18 31  1  0
M  ISO  8  20  13  21  13  22  13  23  13  24  14  25  14  26  14  27  14
M  ISO  4  28  14  29  14  30  14  31  14
M  END
>  <minimizedAffinity>  (1) 
-4.93649864

>  <minimizedRMSD>  (1) 
4.30566263

$$$$
