
     RDKit          3D

 27 29  0  0  0  0  0  0  0  0999 V2000
   45.5100   35.0550   42.8450 C   0  0  0  0  0  0  0  0  0  0  0  0
   44.9560   35.0900   44.2280 C   0  0  0  0  0  0  0  0  0  0  0  0
   45.1480   36.3380   43.5100 C   0  0  0  0  0  0  0  0  0  0  0  0
   46.9500   34.6770   42.6530 C   0  0  0  0  0  0  0  0  0  0  0  0
   47.7360   35.5430   41.8790 C   0  0  0  0  0  0  0  0  0  0  0  0
   49.0700   35.1930   41.6930 C   0  0  0  0  0  0  0  0  0  0  0  0
   49.5450   34.0600   42.2550 N   0  0  0  0  0  0  0  0  0  0  0  0
   48.7470   33.2550   42.9950 C   0  0  0  0  0  0  0  0  0  0  0  0
   47.4560   33.5700   43.1880 N   0  0  0  0  0  0  0  0  0  0  0  0
   44.7000   34.6850   41.6720 C   0  0  0  0  0  0  0  0  0  0  0  0
   43.6520   35.5500   41.3640 C   0  0  0  0  0  0  0  0  0  0  0  0
   42.8430   35.2970   40.3000 C   0  0  0  0  0  0  0  0  0  0  0  0
   43.0790   34.1620   39.5240 C   0  0  0  0  0  0  0  0  0  0  0  0
   44.1010   33.3000   39.8070 C   0  0  0  0  0  0  0  0  0  0  0  0
   44.9430   33.5430   40.8980 C   0  0  0  0  0  0  0  0  0  0  0  0
   43.9382   34.7195   44.4199 H   0  0  0  0  0  0  0  0  0  0  0  0
   45.2851   34.7004   45.2026 H   0  0  0  0  0  0  0  0  0  0  0  0
   45.9394   37.0344   43.8241 H   0  0  0  0  0  0  0  0  0  0  0  0
   44.4994   37.1874   43.2495 H   0  0  0  0  0  0  0  0  0  0  0  0
   47.3163   36.4592   41.4381 H   0  0  0  0  0  0  0  0  0  0  0  0
   49.7326   35.8340   41.0930 H   0  0  0  0  0  0  0  0  0  0  0  0
   49.1585   32.3374   43.4408 H   0  0  0  0  0  0  0  0  0  0  0  0
   43.4780   36.4417   41.9841 H   0  0  0  0  0  0  0  0  0  0  0  0
   42.0144   35.9778   40.0550 H   0  0  0  0  0  0  0  0  0  0  0  0
   42.4263   33.9558   38.6630 H   0  0  0  0  0  0  0  0  0  0  0  0
   44.2621   32.4135   39.1760 H   0  0  0  0  0  0  0  0  0  0  0  0
   45.7696   32.8588   41.1402 H   0  0  0  0  0  0  0  0  0  0  0  0
  1  3  1  0
  1  2  1  0
  3  2  1  0
  4  1  1  0
  4  9  1  0
  5  4  2  0
  6  5  1  0
  6  7  2  0
  7  8  1  0
  8  9  2  0
 10  1  1  0
 11 10  2  0
 12 11  1  0
 13 14  1  0
 13 12  2  0
 14 15  2  0
 15 10  1  0
  2 16  1  0
  2 17  1  0
  3 18  1  0
  3 19  1  0
  5 20  1  0
  6 21  1  0
  8 22  1  0
 11 23  1  0
 12 24  1  0
 13 25  1  0
 14 26  1  0
 15 27  1  0
M  ISO  8  16  13  17  13  18  13  19  13  20  14  21  14  22  14  23  14
M  ISO  4  24  14  25  14  26  14  27  14
M  END
>  <minimizedAffinity>  (1) 
-4.44002724

>  <minimizedRMSD>  (1) 
3.25461769

$$$$
