
     RDKit          3D

 33 35  0  0  0  0  0  0  0  0999 V2000
   45.0250   35.0130   43.5560 C   0  0  0  0  0  0  0  0  0  0  0  0
   44.7710   35.1720   45.0150 C   0  0  0  0  0  0  0  0  0  0  0  0
   44.7980   36.3640   44.1620 C   0  0  0  0  0  0  0  0  0  0  0  0
   46.3960   34.6310   43.1130 C   0  0  0  0  0  0  0  0  0  0  0  0
   46.9510   35.3890   42.0460 C   0  0  0  0  0  0  0  0  0  0  0  0
   48.2450   35.0450   41.6110 C   0  0  0  0  0  0  0  0  0  0  0  0
   48.8890   34.0270   42.2140 N   0  0  0  0  0  0  0  0  0  0  0  0
   48.3210   33.3260   43.2340 C   0  0  0  0  0  0  0  0  0  0  0  0
   47.1000   33.6360   43.6600 N   0  0  0  0  0  0  0  0  0  0  0  0
   43.9650   34.6030   42.5840 C   0  0  0  0  0  0  0  0  0  0  0  0
   43.9120   35.5140   41.3680 C   0  0  0  0  0  0  0  0  0  0  0  0
   42.5040   35.3260   40.8080 C   0  0  0  0  0  0  0  0  0  0  0  0
   42.4630   33.9190   40.2600 C   0  0  0  0  0  0  0  0  0  0  0  0
   43.6370   33.0800   40.6420 C   0  0  0  0  0  0  0  0  0  0  0  0
   44.0720   33.2060   42.0750 C   0  0  0  0  0  0  0  0  0  0  0  0
   43.8189   34.8284   45.4456 H   0  0  0  0  0  0  0  0  0  0  0  0
   45.2997   34.8642   45.9292 H   0  0  0  0  0  0  0  0  0  0  0  0
   45.6316   37.0773   44.2414 H   0  0  0  0  0  0  0  0  0  0  0  0
   44.1039   37.1949   43.9676 H   0  0  0  0  0  0  0  0  0  0  0  0
   46.3911   36.2123   41.5784 H   0  0  0  0  0  0  0  0  0  0  0  0
   48.7234   35.5996   40.7903 H   0  0  0  0  0  0  0  0  0  0  0  0
   48.8738   32.5009   43.7069 H   0  0  0  0  0  0  0  0  0  0  0  0
   43.0488   34.6814   43.1877 H   0  0  0  0  0  0  0  0  0  0  0  0
   44.0773   36.5616   41.6599 H   0  0  0  0  0  0  0  0  0  0  0  0
   44.6907   35.2710   40.6300 H   0  0  0  0  0  0  0  0  0  0  0  0
   41.7555   35.4487   41.6047 H   0  0  0  0  0  0  0  0  0  0  0  0
   42.2750   36.0699   40.0307 H   0  0  0  0  0  0  0  0  0  0  0  0
   42.4230   33.9772   39.1623 H   0  0  0  0  0  0  0  0  0  0  0  0
   41.5747   33.4363   40.6934 H   0  0  0  0  0  0  0  0  0  0  0  0
   43.3783   32.0272   40.4558 H   0  0  0  0  0  0  0  0  0  0  0  0
   44.4803   33.4384   40.0335 H   0  0  0  0  0  0  0  0  0  0  0  0
   43.4374   32.5553   42.6947 H   0  0  0  0  0  0  0  0  0  0  0  0
   45.1302   32.9107   42.1300 H   0  0  0  0  0  0  0  0  0  0  0  0
  1  3  1  0
  1  2  1  0
  3  2  1  0
  4  1  1  0
  4  9  1  0
  5  4  2  0
  6  5  1  0
  6  7  2  0
  7  8  1  0
  8  9  2  0
 10  1  1  0
 11 10  1  0
 12 11  1  0
 13 14  1  0
 13 12  1  0
 14 15  1  0
 15 10  1  0
  2 16  1  0
  2 17  1  0
  3 18  1  0
  3 19  1  0
  5 20  1  0
  6 21  1  0
  8 22  1  0
 10 23  1  0
 11 24  1  0
 11 25  1  0
 12 26  1  0
 12 27  1  0
 13 28  1  0
 13 29  1  0
 14 30  1  0
 14 31  1  0
 15 32  1  0
 15 33  1  0
M  ISO  8  16  13  17  13  18  13  19  13  20  14  21  14  22  14  23  13
M  ISO  8  24  13  25  13  26  13  27  13  28  13  29  13  30  13  31  13
M  ISO  2  32  13  33  13
M  END
>  <minimizedAffinity>  (1) 
-4.29363203

>  <minimizedRMSD>  (1) 
2.49853396

$$$$
