
     RDKit          3D

 23 25  0  0  0  0  0  0  0  0999 V2000
   44.8780   35.1900   43.1100 C   0  0  0  0  0  0  0  0  0  0  0  0
   44.2690   35.9720   44.2240 C   0  0  0  0  0  0  0  0  0  0  0  0
   45.2580   36.6170   43.3530 C   0  0  0  0  0  0  0  0  0  0  0  0
   45.8420   34.1040   43.4250 C   0  0  0  0  0  0  0  0  0  0  0  0
   47.1730   34.2670   43.0090 C   0  0  0  0  0  0  0  0  0  0  0  0
   48.0800   33.2380   43.3010 C   0  0  0  0  0  0  0  0  0  0  0  0
   47.6340   32.1340   43.9690 N   0  0  0  0  0  0  0  0  0  0  0  0
   46.3500   32.0220   44.3480 C   0  0  0  0  0  0  0  0  0  0  0  0
   45.4690   32.9990   44.0760 N   0  0  0  0  0  0  0  0  0  0  0  0
   44.0180   34.8920   41.9060 C   0  0  0  0  0  0  0  0  0  0  0  0
   42.7320   35.2880   41.8430 C   0  0  0  0  0  0  0  0  0  0  0  0
   42.1700   34.6740   40.1840 S   0  0  0  0  0  0  0  0  0  0  0  0
   43.9070   33.9590   39.8970 C   0  0  0  0  0  0  0  0  0  0  0  0
   44.4510   34.2400   40.8550 N   0  0  0  0  0  0  0  0  0  0  0  0
   43.2121   36.2720   44.1690 H   0  0  0  0  0  0  0  0  0  0  0  0
   44.1740   35.8253   45.3100 H   0  0  0  0  0  0  0  0  0  0  0  0
   46.2573   36.8601   43.7431 H   0  0  0  0  0  0  0  0  0  0  0  0
   45.2732   37.5305   42.7404 H   0  0  0  0  0  0  0  0  0  0  0  0
   47.4937   35.1718   42.4719 H   0  0  0  0  0  0  0  0  0  0  0  0
   49.1340   33.3191   42.9967 H   0  0  0  0  0  0  0  0  0  0  0  0
   46.0170   31.1221   44.8859 H   0  0  0  0  0  0  0  0  0  0  0  0
   42.1528   35.8431   42.5956 H   0  0  0  0  0  0  0  0  0  0  0  0
   44.2900   33.4110   39.0235 H   0  0  0  0  0  0  0  0  0  0  0  0
  1  3  1  0
  1  4  1  0
  1  2  1  0
  3  2  1  0
  4  9  2  0
  5  6  2  0
  5  4  1  0
  6  7  1  0
  7  8  2  0
  9  8  1  0
 10  1  1  0
 11 10  2  0
 12 11  1  0
 13 12  1  0
 13 14  2  0
 14 10  1  0
  2 15  1  0
  2 16  1  0
  3 17  1  0
  3 18  1  0
  5 19  1  0
  6 20  1  0
  8 21  1  0
 11 22  1  0
 13 23  1  0
M  ISO  8  15  13  16  13  17  13  18  13  19  14  20  14  21  14  22  14
M  ISO  1  23  14
M  END
>  <minimizedAffinity>  (1) 
-3.64681435

>  <minimizedRMSD>  (1) 
2.15793514

$$$$
