
     RDKit          3D

 30 32  0  0  1  0  0  0  0  0999 V2000
   44.9890   35.4380   43.2690 C   0  0  0  0  0  0  0  0  0  0  0  0
   44.5550   35.7800   44.6710 C   0  0  0  0  0  0  0  0  0  0  0  0
   44.9560   36.8280   43.7250 C   0  0  0  0  0  0  0  0  0  0  0  0
   46.2810   34.7150   43.1040 C   0  0  0  0  0  0  0  0  0  0  0  0
   47.2370   35.1980   42.1590 C   0  0  0  0  0  0  0  0  0  0  0  0
   48.4400   34.5490   41.9820 C   0  0  0  0  0  0  0  0  0  0  0  0
   48.6630   33.4470   42.7400 N   0  0  0  0  0  0  0  0  0  0  0  0
   47.7320   32.9960   43.6460 C   0  0  0  0  0  0  0  0  0  0  0  0
   46.5590   33.6250   43.8210 N   0  0  0  0  0  0  0  0  0  0  0  0
   43.9860   34.8230   42.5130 O   0  0  0  0  0  0  0  0  0  0  0  0
   44.0110   34.8570   40.1970 N   0  0  0  0  0  0  0  0  0  0  0  0
   42.9020   33.9520   39.8560 C   0  0  0  0  0  0  0  0  0  0  0  0
   41.7570   34.9640   39.9960 C   0  0  0  0  0  0  0  0  0  0  0  0
   42.0350   35.4320   41.4090 C   0  0  0  0  0  0  0  0  0  0  0  0
   43.5690   35.5190   41.4150 C   0  0  1  0  0  0  0  0  0  0  0  0
   43.5002   35.6743   44.9647 H   0  0  0  0  0  0  0  0  0  0  0  0
   44.8627   35.4775   45.6829 H   0  0  0  0  0  0  0  0  0  0  0  0
   45.8989   37.3722   43.8824 H   0  0  0  0  0  0  0  0  0  0  0  0
   44.4797   37.7463   43.3511 H   0  0  0  0  0  0  0  0  0  0  0  0
   47.0109   36.0969   41.5666 H   0  0  0  0  0  0  0  0  0  0  0  0
   49.1859   34.9090   41.2581 H   0  0  0  0  0  0  0  0  0  0  0  0
   47.9538   32.0982   44.2417 H   0  0  0  0  0  0  0  0  0  0  0  0
   44.1676   35.5428   39.4446 H   0  0  0  0  0  0  0  0  0  0  0  0
   42.8107   33.1173   40.5666 H   0  0  0  0  0  0  0  0  0  0  0  0
   42.9775   33.4364   38.8873 H   0  0  0  0  0  0  0  0  0  0  0  0
   41.8372   35.7828   39.2659 H   0  0  0  0  0  0  0  0  0  0  0  0
   40.7469   34.5671   39.8165 H   0  0  0  0  0  0  0  0  0  0  0  0
   41.5774   36.4133   41.6033 H   0  0  0  0  0  0  0  0  0  0  0  0
   41.6232   34.7715   42.1862 H   0  0  0  0  0  0  0  0  0  0  0  0
   43.9604   36.5463   41.4520 H   0  0  0  0  0  0  0  0  0  0  0  0
  1  3  1  0
  1  2  1  0
  3  2  1  0
  4  1  1  0
  4  9  1  0
  5  4  2  0
  6  5  1  0
  6  7  2  0
  7  8  1  0
  8  9  2  0
 10  1  1  0
 11 15  1  0
 12 13  1  0
 12 11  1  0
 13 14  1  0
 14 15  1  0
 15 10  1  0
  2 16  1  0
  2 17  1  0
  3 18  1  0
  3 19  1  0
  5 20  1  0
  6 21  1  0
  8 22  1  0
 11 23  1  0
 12 24  1  0
 12 25  1  0
 13 26  1  0
 13 27  1  0
 14 28  1  0
 14 29  1  0
 15 30  1  1
M  ISO  8  16  13  17  13  18  13  19  13  20  14  21  14  22  14  23   5
M  ISO  7  24  13  25  13  26  13  27  13  28  13  29  13  30  13
M  END
>  <minimizedAffinity>  (1) 
-4.46056652

>  <minimizedRMSD>  (1) 
2.33623433

$$$$
