
     RDKit          3D

 17 18  0  0  0  0  0  0  0  0999 V2000
   44.5070   35.8250   44.6800 C   0  0  0  0  0  0  0  0  0  0  0  0
   45.1760   35.6920   43.4540 C   0  0  0  0  0  0  0  0  0  0  0  0
   46.1020   34.6390   43.3420 C   0  0  0  0  0  0  0  0  0  0  0  0
   46.3010   33.8160   44.4040 N   0  0  0  0  0  0  0  0  0  0  0  0
   45.6330   33.9790   45.5710 C   0  0  0  0  0  0  0  0  0  0  0  0
   44.7460   34.9730   45.7090 N   0  0  0  0  0  0  0  0  0  0  0  0
   45.8250   33.1290   46.6990 N   0  0  0  0  0  0  0  0  0  0  0  0
   46.9880   32.4310   46.7230 C   0  0  0  0  0  0  0  0  0  0  0  0
   46.9730   31.6770   47.8890 C   0  0  0  0  0  0  0  0  0  0  0  0
   45.8270   31.9240   48.5390 N   0  0  0  0  0  0  0  0  0  0  0  0
   45.1250   32.8080   47.8160 C   0  0  0  0  0  0  0  0  0  0  0  0
   43.7746   36.6355   44.8097 H   0  0  0  0  0  0  0  0  0  0  0  0
   44.9849   36.3804   42.6176 H   0  0  0  0  0  0  0  0  0  0  0  0
   46.6582   34.4840   42.4057 H   0  0  0  0  0  0  0  0  0  0  0  0
   47.7865   32.4572   45.9669 H   0  0  0  0  0  0  0  0  0  0  0  0
   47.7671   30.9929   48.2227 H   0  0  0  0  0  0  0  0  0  0  0  0
   44.1372   33.2098   48.0858 H   0  0  0  0  0  0  0  0  0  0  0  0
  1  6  2  0
  2  1  1  0
  3  2  2  0
  3  4  1  0
  4  5  2  0
  5  6  1  0
  5  7  1  0
  7  8  1  0
  7 11  1  0
  8  9  2  0
  9 10  1  0
 11 10  2  0
  1 12  1  0
  2 13  1  0
  3 14  1  0
  8 15  1  0
  9 16  1  0
 11 17  1  0
M  ISO  6  12  14  13  14  14  14  15  14  16  14  17  14
M  END
>  <minimizedAffinity>  (1) 
-4.16361427

>  <minimizedRMSD>  (1) 
0.407682598

$$$$
