
     RDKit          3D

 33 35  0  0  0  0  0  0  0  0999 V2000
   45.0560   35.3020   43.2320 C   0  0  0  0  0  0  0  0  0  0  0  0
   44.6990   35.9510   44.5470 C   0  0  0  0  0  0  0  0  0  0  0  0
   45.0090   36.7610   43.3500 C   0  0  0  0  0  0  0  0  0  0  0  0
   46.3350   34.5690   43.1320 C   0  0  0  0  0  0  0  0  0  0  0  0
   47.3760   35.1000   42.3100 C   0  0  0  0  0  0  0  0  0  0  0  0
   48.5790   34.4390   42.1950 C   0  0  0  0  0  0  0  0  0  0  0  0
   48.7250   33.2770   42.8920 N   0  0  0  0  0  0  0  0  0  0  0  0
   47.7070   32.8010   43.6670 C   0  0  0  0  0  0  0  0  0  0  0  0
   46.5320   33.4380   43.7850 N   0  0  0  0  0  0  0  0  0  0  0  0
   43.9890   34.5510   42.7030 O   0  0  0  0  0  0  0  0  0  0  0  0
   41.4720   33.7870   41.6890 N   0  0  0  0  0  0  0  0  0  0  0  0
   42.1150   32.9980   40.6370 C   0  0  0  0  0  0  0  0  0  0  0  0
   43.6050   33.0730   40.9060 C   0  0  0  0  0  0  0  0  0  0  0  0
   44.0210   34.4810   41.3210 C   0  0  0  0  0  0  0  0  0  0  0  0
   42.9960   35.4660   40.7800 C   0  0  0  0  0  0  0  0  0  0  0  0
   41.6100   35.1780   41.2980 C   0  0  0  0  0  0  0  0  0  0  0  0
   43.6686   35.8988   44.9284 H   0  0  0  0  0  0  0  0  0  0  0  0
   45.0781   35.8965   45.5782 H   0  0  0  0  0  0  0  0  0  0  0  0
   45.9426   37.3415   43.3113 H   0  0  0  0  0  0  0  0  0  0  0  0
   44.4824   37.5586   42.8054 H   0  0  0  0  0  0  0  0  0  0  0  0
   47.2158   36.0424   41.7657 H   0  0  0  0  0  0  0  0  0  0  0  0
   49.3900   34.8336   41.5653 H   0  0  0  0  0  0  0  0  0  0  0  0
   47.8557   31.8593   44.2157 H   0  0  0  0  0  0  0  0  0  0  0  0
   40.4762   33.5352   41.7652 H   0  0  0  0  0  0  0  0  0  0  0  0
   41.8840   33.4203   39.6479 H   0  0  0  0  0  0  0  0  0  0  0  0
   41.7581   31.9575   40.6402 H   0  0  0  0  0  0  0  0  0  0  0  0
   43.8595   32.3710   41.7138 H   0  0  0  0  0  0  0  0  0  0  0  0
   44.1394   32.8105   39.9811 H   0  0  0  0  0  0  0  0  0  0  0  0
   45.0252   34.7137   40.9370 H   0  0  0  0  0  0  0  0  0  0  0  0
   42.9857   35.4010   39.6820 H   0  0  0  0  0  0  0  0  0  0  0  0
   43.2822   36.4737   41.1155 H   0  0  0  0  0  0  0  0  0  0  0  0
   41.4139   35.8170   42.1716 H   0  0  0  0  0  0  0  0  0  0  0  0
   40.8885   35.3861   40.4941 H   0  0  0  0  0  0  0  0  0  0  0  0
  1  3  1  0
  1  2  1  0
  3  2  1  0
  4  1  1  0
  4  9  1  0
  5  4  2  0
  6  5  1  0
  6  7  2  0
  7  8  1  0
  8  9  2  0
 10  1  1  0
 12 13  1  0
 12 11  1  0
 13 14  1  0
 14 10  1  0
 15 16  1  0
 15 14  1  0
 16 11  1  0
  2 17  1  0
  2 18  1  0
  3 19  1  0
  3 20  1  0
  5 21  1  0
  6 22  1  0
  8 23  1  0
 11 24  1  0
 12 25  1  0
 12 26  1  0
 13 27  1  0
 13 28  1  0
 14 29  1  0
 15 30  1  0
 15 31  1  0
 16 32  1  0
 16 33  1  0
M  ISO  8  17  13  18  13  19  13  20  13  21  14  22  14  23  14  24   5
M  ISO  8  25  13  26  13  27  13  28  13  29  13  30  13  31  13  32  13
M  ISO  1  33  13
M  END
>  <minimizedAffinity>  (1) 
-4.34973764

>  <minimizedRMSD>  (1) 
2.96676254

$$$$
