
     RDKit          3D

 26 28  0  0  0  0  0  0  0  0999 V2000
   45.0710   35.2390   43.1750 C   0  0  0  0  0  0  0  0  0  0  0  0
   44.7210   35.9030   44.4780 C   0  0  0  0  0  0  0  0  0  0  0  0
   44.9060   36.6980   43.2510 C   0  0  0  0  0  0  0  0  0  0  0  0
   46.3950   34.6060   43.0110 C   0  0  0  0  0  0  0  0  0  0  0  0
   47.3320   35.1750   42.1110 C   0  0  0  0  0  0  0  0  0  0  0  0
   48.5760   34.5900   41.9480 C   0  0  0  0  0  0  0  0  0  0  0  0
   48.8340   33.4780   42.6770 N   0  0  0  0  0  0  0  0  0  0  0  0
   47.9180   32.9490   43.5360 C   0  0  0  0  0  0  0  0  0  0  0  0
   46.7170   33.5170   43.6900 N   0  0  0  0  0  0  0  0  0  0  0  0
   44.0330   34.3870   42.7290 O   0  0  0  0  0  0  0  0  0  0  0  0
   43.2180   34.6960   41.6730 C   0  0  0  0  0  0  0  0  0  0  0  0
   43.7040   34.2990   40.4370 C   0  0  0  0  0  0  0  0  0  0  0  0
   42.9840   34.5460   39.2620 C   0  0  0  0  0  0  0  0  0  0  0  0
   41.7920   35.1880   39.3750 N   0  0  0  0  0  0  0  0  0  0  0  0
   41.3500   35.5610   40.5970 C   0  0  0  0  0  0  0  0  0  0  0  0
   42.0280   35.3330   41.7350 N   0  0  0  0  0  0  0  0  0  0  0  0
   43.7167   35.7783   44.9091 H   0  0  0  0  0  0  0  0  0  0  0  0
   45.1507   35.9150   45.4905 H   0  0  0  0  0  0  0  0  0  0  0  0
   45.7844   37.3527   43.1519 H   0  0  0  0  0  0  0  0  0  0  0  0
   44.2908   37.4319   42.7098 H   0  0  0  0  0  0  0  0  0  0  0  0
   47.0705   36.0801   41.5432 H   0  0  0  0  0  0  0  0  0  0  0  0
   49.3219   35.0097   41.2570 H   0  0  0  0  0  0  0  0  0  0  0  0
   48.1692   32.0445   44.1093 H   0  0  0  0  0  0  0  0  0  0  0  0
   44.6725   33.7807   40.3783 H   0  0  0  0  0  0  0  0  0  0  0  0
   43.3700   34.2312   38.2813 H   0  0  0  0  0  0  0  0  0  0  0  0
   40.3822   36.0796   40.6636 H   0  0  0  0  0  0  0  0  0  0  0  0
  1  3  1  0
  1  2  1  0
  3  2  1  0
  4  1  1  0
  4  9  1  0
  5  4  2  0
  6  5  1  0
  6  7  2  0
  7  8  1  0
  8  9  2  0
 10  1  1  0
 11 16  1  0
 11 10  1  0
 12 11  2  0
 13 14  2  0
 13 12  1  0
 14 15  1  0
 15 16  2  0
  2 17  1  0
  2 18  1  0
  3 19  1  0
  3 20  1  0
  5 21  1  0
  6 22  1  0
  8 23  1  0
 12 24  1  0
 13 25  1  0
 15 26  1  0
M  ISO  8  17  13  18  13  19  13  20  13  21  14  22  14  23  14  24  14
M  ISO  2  25  14  26  14
M  END
>  <minimizedAffinity>  (1) 
-4.23735046

>  <minimizedRMSD>  (1) 
3.44030499

$$$$
