
     RDKit          3D

 33 36  0  0  0  0  0  0  0  0999 V2000
   42.5520   34.9950   40.9210 O   0  0  0  0  0  0  0  0  0  0  0  0
   41.7810   35.0570   39.7740 C   0  0  0  0  0  0  0  0  0  0  0  0
   41.9620   35.8760   38.6490 C   0  0  0  0  0  0  0  0  0  0  0  0
   41.1470   35.8310   37.5690 C   0  0  0  0  0  0  0  0  0  0  0  0
   40.1140   34.9610   37.5700 C   0  0  0  0  0  0  0  0  0  0  0  0
   39.9240   34.1590   38.6620 C   0  0  0  0  0  0  0  0  0  0  0  0
   40.7360   34.1900   39.7750 C   0  0  0  0  0  0  0  0  0  0  0  0
   40.0440   33.2150   40.6230 C   0  0  0  0  0  0  0  0  0  0  0  0
   40.4010   32.4570   41.6550 N   0  0  0  0  0  0  0  0  0  0  0  0
   39.4580   31.6240   41.9760 O   0  0  0  0  0  0  0  0  0  0  0  0
   38.4640   31.8150   41.1610 C   0  0  0  0  0  0  0  0  0  0  0  0
   38.8320   32.7960   40.3320 N   0  0  0  0  0  0  0  0  0  0  0  0
   43.6170   34.1250   41.1830 C   0  0  0  0  0  0  0  0  0  0  0  0
   44.6030   34.0110   40.0270 C   0  0  0  0  0  0  0  0  0  0  0  0
   43.8550   32.8420   40.4900 C   0  0  0  0  0  0  0  0  0  0  0  0
   44.2000   34.3330   42.5240 C   0  0  0  0  0  0  0  0  0  0  0  0
   44.8850   33.2970   43.2040 C   0  0  0  0  0  0  0  0  0  0  0  0
   45.4180   33.5040   44.4660 C   0  0  0  0  0  0  0  0  0  0  0  0
   45.2560   34.7350   45.0140 N   0  0  0  0  0  0  0  0  0  0  0  0
   44.5950   35.7130   44.3410 C   0  0  0  0  0  0  0  0  0  0  0  0
   44.0980   35.4820   43.1370 N   0  0  0  0  0  0  0  0  0  0  0  0
   42.8027   36.5854   38.6445 H   0  0  0  0  0  0  0  0  0  0  0  0
   41.3229   36.4908   36.7066 H   0  0  0  0  0  0  0  0  0  0  0  0
   39.4359   34.8982   36.7062 H   0  0  0  0  0  0  0  0  0  0  0  0
   39.0801   33.4535   38.6510 H   0  0  0  0  0  0  0  0  0  0  0  0
   37.5061   31.2743   41.1549 H   0  0  0  0  0  0  0  0  0  0  0  0
   45.6844   34.0842   40.2145 H   0  0  0  0  0  0  0  0  0  0  0  0
   44.7388   34.5206   39.0617 H   0  0  0  0  0  0  0  0  0  0  0  0
   43.0667   32.4143   39.8530 H   0  0  0  0  0  0  0  0  0  0  0  0
   44.1436   31.8351   40.8259 H   0  0  0  0  0  0  0  0  0  0  0  0
   44.9956   32.3137   42.7234 H   0  0  0  0  0  0  0  0  0  0  0  0
   45.9503   32.7040   45.0014 H   0  0  0  0  0  0  0  0  0  0  0  0
   44.4722   36.7046   44.8010 H   0  0  0  0  0  0  0  0  0  0  0  0
  1 13  1  0
  2  7  1  0
  2  1  1  0
  3  2  2  0
  4  5  2  0
  4  3  1  0
  5  6  1  0
  6  7  2  0
  7  8  1  0
  8  9  2  0
  9 10  1  0
 11 10  1  0
 12  8  1  0
 12 11  2  0
 13 16  1  0
 14 15  1  0
 14 13  1  0
 15 13  1  0
 16 21  1  0
 16 17  2  0
 17 18  1  0
 18 19  2  0
 20 19  1  0
 21 20  2  0
  3 22  1  0
  4 23  1  0
  5 24  1  0
  6 25  1  0
 11 26  1  0
 14 27  1  0
 14 28  1  0
 15 29  1  0
 15 30  1  0
 17 31  1  0
 18 32  1  0
 20 33  1  0
M  ISO  8  22  14  23  14  24  14  25  14  26  14  27  13  28  13  29  13
M  ISO  4  30  13  31  14  32  14  33  14
M  END
>  <minimizedAffinity>  (1) 
-5.27330542

>  <minimizedRMSD>  (1) 
2.57063627

$$$$
