
     RDKit          3D

 40 42  0  0  0  0  0  0  0  0999 V2000
   43.5680   34.1440   41.0500 C   0  0  0  0  0  0  0  0  0  0  0  0
   44.5580   33.9870   39.9100 C   0  0  0  0  0  0  0  0  0  0  0  0
   43.7560   32.8460   40.3700 C   0  0  0  0  0  0  0  0  0  0  0  0
   44.1530   34.3390   42.3850 C   0  0  0  0  0  0  0  0  0  0  0  0
   44.8080   33.2720   43.0740 C   0  0  0  0  0  0  0  0  0  0  0  0
   45.3390   33.4610   44.3430 C   0  0  0  0  0  0  0  0  0  0  0  0
   45.2020   34.7050   44.8900 N   0  0  0  0  0  0  0  0  0  0  0  0
   44.5660   35.7130   44.1990 C   0  0  0  0  0  0  0  0  0  0  0  0
   44.0800   35.4810   42.9940 N   0  0  0  0  0  0  0  0  0  0  0  0
   42.5310   35.0480   40.8090 O   0  0  0  0  0  0  0  0  0  0  0  0
   41.7300   35.1260   39.6720 C   0  0  0  0  0  0  0  0  0  0  0  0
   42.0070   35.7870   38.4590 C   0  0  0  0  0  0  0  0  0  0  0  0
   41.1630   35.7640   37.4250 C   0  0  0  0  0  0  0  0  0  0  0  0
   40.0340   35.0740   37.6100 C   0  0  0  0  0  0  0  0  0  0  0  0
   39.7260   34.4330   38.7580 C   0  0  0  0  0  0  0  0  0  0  0  0
   40.5190   34.4200   39.8190 C   0  0  0  0  0  0  0  0  0  0  0  0
   39.7780   33.6040   40.8130 C   0  0  0  0  0  0  0  0  0  0  0  0
   40.3910   32.1740   41.0660 C   0  0  0  0  0  0  0  0  0  0  0  0
   40.0550   34.1330   42.2040 C   0  0  0  0  0  0  0  0  0  0  0  0
   38.4350   33.1460   40.4320 C   0  0  0  0  0  0  0  0  0  0  0  0
   45.6393   34.0180   40.1097 H   0  0  0  0  0  0  0  0  0  0  0  0
   44.7249   34.4871   38.9446 H   0  0  0  0  0  0  0  0  0  0  0  0
   42.9573   32.4477   39.7270 H   0  0  0  0  0  0  0  0  0  0  0  0
   43.9975   31.8294   40.7138 H   0  0  0  0  0  0  0  0  0  0  0  0
   44.8927   32.2868   42.5921 H   0  0  0  0  0  0  0  0  0  0  0  0
   45.8460   32.6473   44.8823 H   0  0  0  0  0  0  0  0  0  0  0  0
   44.4633   36.7105   44.6512 H   0  0  0  0  0  0  0  0  0  0  0  0
   42.9519   36.3415   38.3605 H   0  0  0  0  0  0  0  0  0  0  0  0
   41.3834   36.2810   36.4794 H   0  0  0  0  0  0  0  0  0  0  0  0
   39.3141   35.0252   36.7797 H   0  0  0  0  0  0  0  0  0  0  0  0
   38.7685   33.8946   38.8149 H   0  0  0  0  0  0  0  0  0  0  0  0
   40.4680   31.9944   42.1485 H   0  0  0  0  0  0  0  0  0  0  0  0
   39.7409   31.4110   40.6130 H   0  0  0  0  0  0  0  0  0  0  0  0
   41.3919   32.1187   40.6130 H   0  0  0  0  0  0  0  0  0  0  0  0
   39.6800   33.4169   42.9500 H   0  0  0  0  0  0  0  0  0  0  0  0
   41.1388   34.2666   42.3364 H   0  0  0  0  0  0  0  0  0  0  0  0
   39.5475   35.0999   42.3364 H   0  0  0  0  0  0  0  0  0  0  0  0
   37.8453   32.9449   41.3385 H   0  0  0  0  0  0  0  0  0  0  0  0
   37.9372   33.9252   39.8361 H   0  0  0  0  0  0  0  0  0  0  0  0
   38.5170   32.2250   39.8361 H   0  0  0  0  0  0  0  0  0  0  0  0
  1  4  1  0
  2  3  1  0
  2  1  1  0
  3  1  1  0
  4  9  1  0
  4  5  2  0
  5  6  1  0
  6  7  2  0
  8  7  1  0
  9  8  2  0
 10  1  1  0
 11 16  1  0
 11 10  1  0
 12 11  2  0
 13 14  2  0
 13 12  1  0
 14 15  1  0
 15 16  2  0
 16 17  1  0
 17 18  1  0
 17 19  1  0
 20 17  1  0
  2 21  1  0
  2 22  1  0
  3 23  1  0
  3 24  1  0
  5 25  1  0
  6 26  1  0
  8 27  1  0
 12 28  1  0
 13 29  1  0
 14 30  1  0
 15 31  1  0
 18 32  1  0
 18 33  1  0
 18 34  1  0
 19 35  1  0
 19 36  1  0
 19 37  1  0
 20 38  1  0
 20 39  1  0
 20 40  1  0
M  ISO  8  21  13  22  13  23  13  24  13  25  14  26  14  27  14  28  14
M  ISO  8  29  14  30  14  31  14  32   8  33   8  34   8  35   8  36   8
M  ISO  4  37   8  38   8  39   8  40   8
M  END
>  <minimizedAffinity>  (1) 
-5.09601355

>  <minimizedRMSD>  (1) 
2.08237433

$$$$
