
     RDKit          3D

 35 38  0  0  0  0  0  0  0  0999 V2000
   43.7800   34.1780   41.2930 C   0  0  0  0  0  0  0  0  0  0  0  0
   44.8100   34.2530   40.1680 C   0  0  0  0  0  0  0  0  0  0  0  0
   44.1740   32.9800   40.5410 C   0  0  0  0  0  0  0  0  0  0  0  0
   44.2800   34.3980   42.6640 C   0  0  0  0  0  0  0  0  0  0  0  0
   44.9580   33.3530   43.3530 C   0  0  0  0  0  0  0  0  0  0  0  0
   45.4200   33.5590   44.6470 C   0  0  0  0  0  0  0  0  0  0  0  0
   45.2000   34.7770   45.2100 N   0  0  0  0  0  0  0  0  0  0  0  0
   44.5420   35.7670   44.5200 C   0  0  0  0  0  0  0  0  0  0  0  0
   44.1090   35.5470   43.2840 N   0  0  0  0  0  0  0  0  0  0  0  0
   42.6330   34.9320   41.0270 O   0  0  0  0  0  0  0  0  0  0  0  0
   41.8570   34.9330   39.8860 C   0  0  0  0  0  0  0  0  0  0  0  0
   41.8940   35.8210   38.8260 C   0  0  0  0  0  0  0  0  0  0  0  0
   41.0690   35.7010   37.7490 C   0  0  0  0  0  0  0  0  0  0  0  0
   40.1780   34.6730   37.7110 C   0  0  0  0  0  0  0  0  0  0  0  0
   40.1280   33.7840   38.7550 C   0  0  0  0  0  0  0  0  0  0  0  0
   40.9510   33.8980   39.8410 C   0  0  0  0  0  0  0  0  0  0  0  0
   40.5670   32.7860   40.6760 N   0  0  0  0  0  0  0  0  0  0  0  0
   40.7900   31.4900   40.3630 C   0  0  0  0  0  0  0  0  0  0  0  0
   40.2640   30.7120   41.3990 C   0  0  0  0  0  0  0  0  0  0  0  0
   39.7440   31.5880   42.2980 N   0  0  0  0  0  0  0  0  0  0  0  0
   39.9180   32.8340   41.8780 C   0  0  0  0  0  0  0  0  0  0  0  0
   45.8706   34.4308   40.3991 H   0  0  0  0  0  0  0  0  0  0  0  0
   44.9201   34.8345   39.2408 H   0  0  0  0  0  0  0  0  0  0  0  0
   43.4554   32.5104   39.8532 H   0  0  0  0  0  0  0  0  0  0  0  0
   44.5597   31.9912   40.8301 H   0  0  0  0  0  0  0  0  0  0  0  0
   45.1162   32.3821   42.8607 H   0  0  0  0  0  0  0  0  0  0  0  0
   45.9455   32.7644   45.1969 H   0  0  0  0  0  0  0  0  0  0  0  0
   44.3734   36.7455   44.9935 H   0  0  0  0  0  0  0  0  0  0  0  0
   42.6140   36.6521   38.8539 H   0  0  0  0  0  0  0  0  0  0  0  0
   41.1221   36.4244   36.9220 H   0  0  0  0  0  0  0  0  0  0  0  0
   39.5033   34.5557   36.8502 H   0  0  0  0  0  0  0  0  0  0  0  0
   39.4051   32.9558   38.7172 H   0  0  0  0  0  0  0  0  0  0  0  0
   41.2930   31.1160   39.4591 H   0  0  0  0  0  0  0  0  0  0  0  0
   40.2700   29.6144   41.4714 H   0  0  0  0  0  0  0  0  0  0  0  0
   39.5968   33.7451   42.4041 H   0  0  0  0  0  0  0  0  0  0  0  0
  1  4  1  0
  2  3  1  0
  2  1  1  0
  3  1  1  0
  4  9  1  0
  4  5  2  0
  5  6  1  0
  6  7  2  0
  8  7  1  0
  9  8  2  0
 10  1  1  0
 11 10  1  0
 12 11  2  0
 13 12  1  0
 14 13  2  0
 14 15  1  0
 15 16  2  0
 16 11  1  0
 16 17  1  0
 17 21  1  0
 18 17  1  0
 18 19  2  0
 19 20  1  0
 21 20  2  0
  2 22  1  0
  2 23  1  0
  3 24  1  0
  3 25  1  0
  5 26  1  0
  6 27  1  0
  8 28  1  0
 12 29  1  0
 13 30  1  0
 14 31  1  0
 15 32  1  0
 18 33  1  0
 19 34  1  0
 21 35  1  0
M  ISO  8  22  13  23  13  24  13  25  13  26  14  27  14  28  14  29  14
M  ISO  6  30  14  31  14  32  14  33  14  34  14  35  14
M  END
>  <minimizedAffinity>  (1) 
-4.93198109

>  <minimizedRMSD>  (1) 
2.56218815

$$$$
