
     RDKit          3D

 29 31  0  0  0  0  0  0  0  0999 V2000
   43.7320   34.1920   41.1000 C   0  0  0  0  0  0  0  0  0  0  0  0
   44.7680   33.8530   40.0340 C   0  0  0  0  0  0  0  0  0  0  0  0
   43.8040   32.8500   40.4870 C   0  0  0  0  0  0  0  0  0  0  0  0
   44.2420   34.3940   42.4700 C   0  0  0  0  0  0  0  0  0  0  0  0
   44.8940   33.3360   43.1660 C   0  0  0  0  0  0  0  0  0  0  0  0
   45.3620   33.5470   44.4610 C   0  0  0  0  0  0  0  0  0  0  0  0
   45.1650   34.7850   45.0060 N   0  0  0  0  0  0  0  0  0  0  0  0
   44.5360   35.7770   44.3110 C   0  0  0  0  0  0  0  0  0  0  0  0
   44.1020   35.5470   43.0800 N   0  0  0  0  0  0  0  0  0  0  0  0
   42.8400   35.1900   40.7100 O   0  0  0  0  0  0  0  0  0  0  0  0
   41.8570   35.1170   39.7460 C   0  0  0  0  0  0  0  0  0  0  0  0
   41.8810   35.5330   38.4210 C   0  0  0  0  0  0  0  0  0  0  0  0
   40.8160   35.3770   37.5930 C   0  0  0  0  0  0  0  0  0  0  0  0
   39.6910   34.7930   38.0810 C   0  0  0  0  0  0  0  0  0  0  0  0
   39.6250   34.3680   39.3850 C   0  0  0  0  0  0  0  0  0  0  0  0
   40.6950   34.5240   40.2250 C   0  0  0  0  0  0  0  0  0  0  0  0
   40.0950   33.8290   41.7810 S   0  0  0  0  0  0  0  0  0  0  0  0
   45.8299   33.7605   40.3057 H   0  0  0  0  0  0  0  0  0  0  0  0
   45.0570   34.2770   39.0610 H   0  0  0  0  0  0  0  0  0  0  0  0
   43.0043   32.5197   39.8077 H   0  0  0  0  0  0  0  0  0  0  0  0
   43.8960   31.8308   40.8905 H   0  0  0  0  0  0  0  0  0  0  0  0
   45.0274   32.3567   42.6831 H   0  0  0  0  0  0  0  0  0  0  0  0
   45.8699   32.7491   45.0227 H   0  0  0  0  0  0  0  0  0  0  0  0
   44.3896   36.7652   44.7715 H   0  0  0  0  0  0  0  0  0  0  0  0
   42.7940   36.0050   38.0289 H   0  0  0  0  0  0  0  0  0  0  0  0
   40.8635   35.7168   36.5479 H   0  0  0  0  0  0  0  0  0  0  0  0
   38.8204   34.6586   37.4222 H   0  0  0  0  0  0  0  0  0  0  0  0
   38.7035   33.8976   39.7585 H   0  0  0  0  0  0  0  0  0  0  0  0
   40.6703   34.4954   42.8307 H   0  0  0  0  0  0  0  0  0  0  0  0
  1  4  1  0
  2  3  1  0
  2  1  1  0
  3  1  1  0
  4  9  1  0
  4  5  2  0
  5  6  1  0
  6  7  2  0
  8  7  1  0
  9  8  2  0
 10  1  1  0
 11 16  1  0
 11 10  1  0
 12 11  2  0
 13 14  2  0
 13 12  1  0
 14 15  1  0
 15 16  2  0
 16 17  1  0
  2 18  1  0
  2 19  1  0
  3 20  1  0
  3 21  1  0
  5 22  1  0
  6 23  1  0
  8 24  1  0
 12 25  1  0
 13 26  1  0
 14 27  1  0
 15 28  1  0
 17 29  1  0
M  ISO  8  18  13  19  13  20  13  21  13  22  14  23  14  24  14  25  14
M  ISO  4  26  14  27  14  28  14  29  11
M  END
>  <minimizedAffinity>  (1) 
-4.76246119

>  <minimizedRMSD>  (1) 
1.28233194

$$$$
