
     RDKit          3D

 47 50  0  0  0  0  0  0  0  0999 V2000
   41.7490   35.1280   39.6800 C   0  0  0  0  0  0  0  0  0  0  0  0
   42.0320   35.8010   38.4670 C   0  0  0  0  0  0  0  0  0  0  0  0
   41.2020   35.7800   37.4460 C   0  0  0  0  0  0  0  0  0  0  0  0
   40.0780   35.0850   37.6400 C   0  0  0  0  0  0  0  0  0  0  0  0
   39.7460   34.4270   38.7690 C   0  0  0  0  0  0  0  0  0  0  0  0
   40.5520   34.4080   39.8380 C   0  0  0  0  0  0  0  0  0  0  0  0
   42.5560   35.0740   40.8210 O   0  0  0  0  0  0  0  0  0  0  0  0
   43.6100   34.1680   41.0490 C   0  0  0  0  0  0  0  0  0  0  0  0
   44.6010   34.0510   39.9210 C   0  0  0  0  0  0  0  0  0  0  0  0
   43.8110   32.9000   40.3470 C   0  0  0  0  0  0  0  0  0  0  0  0
   44.1650   34.3760   42.4000 C   0  0  0  0  0  0  0  0  0  0  0  0
   44.8180   33.3120   43.0920 C   0  0  0  0  0  0  0  0  0  0  0  0
   45.3470   33.4640   44.3570 C   0  0  0  0  0  0  0  0  0  0  0  0
   45.2080   34.6960   44.9100 N   0  0  0  0  0  0  0  0  0  0  0  0
   44.5730   35.7150   44.2290 C   0  0  0  0  0  0  0  0  0  0  0  0
   44.0900   35.5020   43.0220 N   0  0  0  0  0  0  0  0  0  0  0  0
   39.8450   33.5610   40.8400 C   0  0  0  0  0  0  0  0  0  0  0  0
   40.4950   32.1680   41.0120 C   0  0  0  0  0  0  0  0  0  0  0  0
   40.0810   34.1390   42.1910 C   0  0  0  0  0  0  0  0  0  0  0  0
   38.4860   33.1600   40.4680 C   0  0  0  0  0  0  0  0  0  0  0  0
   38.2350   31.7660   40.2340 N   0  0  0  0  0  0  0  0  0  0  0  0
   37.7060   30.9230   41.1730 C   0  0  0  0  0  0  0  0  0  0  0  0
   37.5360   29.6470   40.6850 C   0  0  0  0  0  0  0  0  0  0  0  0
   37.9690   29.7030   39.4110 N   0  0  0  0  0  0  0  0  0  0  0  0
   38.3710   30.9330   39.1580 C   0  0  0  0  0  0  0  0  0  0  0  0
   42.9755   36.3591   38.3751 H   0  0  0  0  0  0  0  0  0  0  0  0
   41.4185   36.2980   36.5001 H   0  0  0  0  0  0  0  0  0  0  0  0
   39.3612   35.0461   36.8065 H   0  0  0  0  0  0  0  0  0  0  0  0
   38.7865   33.8910   38.8131 H   0  0  0  0  0  0  0  0  0  0  0  0
   45.6807   34.0872   40.1282 H   0  0  0  0  0  0  0  0  0  0  0  0
   44.7696   34.5760   38.9692 H   0  0  0  0  0  0  0  0  0  0  0  0
   43.0194   32.5100   39.6902 H   0  0  0  0  0  0  0  0  0  0  0  0
   44.0592   31.8777   40.6686 H   0  0  0  0  0  0  0  0  0  0  0  0
   44.9027   32.3330   42.5975 H   0  0  0  0  0  0  0  0  0  0  0  0
   45.8494   32.6395   44.8840 H   0  0  0  0  0  0  0  0  0  0  0  0
   44.4701   36.7062   44.6948 H   0  0  0  0  0  0  0  0  0  0  0  0
   40.6003   31.9423   42.0834 H   0  0  0  0  0  0  0  0  0  0  0  0
   39.8596   31.4058   40.5374 H   0  0  0  0  0  0  0  0  0  0  0  0
   41.4874   32.1653   40.5374 H   0  0  0  0  0  0  0  0  0  0  0  0
   39.7833   33.4098   42.9589 H   0  0  0  0  0  0  0  0  0  0  0  0
   41.1486   34.3777   42.3063 H   0  0  0  0  0  0  0  0  0  0  0  0
   39.4856   35.0567   42.3063 H   0  0  0  0  0  0  0  0  0  0  0  0
   37.8165   33.4812   41.2795 H   0  0  0  0  0  0  0  0  0  0  0  0
   38.3161   33.6375   39.4917 H   0  0  0  0  0  0  0  0  0  0  0  0
   37.4470   31.2289   42.1974 H   0  0  0  0  0  0  0  0  0  0  0  0
   37.1344   28.7730   41.2188 H   0  0  0  0  0  0  0  0  0  0  0  0
   38.7727   31.2546   38.1858 H   0  0  0  0  0  0  0  0  0  0  0  0
  1  6  1  0
  1  7  1  0
  2  1  2  0
  3  4  2  0
  3  2  1  0
  4  5  1  0
  5  6  2  0
  6 17  1  0
  7  8  1  0
  8 11  1  0
  9 10  1  0
  9  8  1  0
 10  8  1  0
 11 16  1  0
 11 12  2  0
 12 13  1  0
 13 14  2  0
 15 14  1  0
 16 15  2  0
 17 18  1  0
 17 19  1  0
 20 17  1  0
 21 20  1  0
 21 22  1  0
 23 22  2  0
 24 23  1  0
 25 24  2  0
 25 21  1  0
  2 26  1  0
  3 27  1  0
  4 28  1  0
  5 29  1  0
  9 30  1  0
  9 31  1  0
 10 32  1  0
 10 33  1  0
 12 34  1  0
 13 35  1  0
 15 36  1  0
 18 37  1  0
 18 38  1  0
 18 39  1  0
 19 40  1  0
 19 41  1  0
 19 42  1  0
 20 43  1  0
 20 44  1  0
 22 45  1  0
 23 46  1  0
 25 47  1  0
M  ISO  8  26  14  27  14  28  14  29  14  30  13  31  13  32  13  33  13
M  ISO  8  34  14  35  14  36  14  37   8  38   8  39   8  40   8  41   8
M  ISO  6  42   8  43   8  44   8  45  14  46  14  47  14
M  END
>  <minimizedAffinity>  (1) 
-5.49275923

>  <minimizedRMSD>  (1) 
1.29518092

$$$$
