
     RDKit          3D

 41 43  0  0  0  0  0  0  0  0999 V2000
   41.7370   35.1880   39.5750 C   0  0  0  0  0  0  0  0  0  0  0  0
   42.0600   35.8670   38.3780 C   0  0  0  0  0  0  0  0  0  0  0  0
   41.2510   35.8840   37.3420 C   0  0  0  0  0  0  0  0  0  0  0  0
   40.1060   35.2240   37.5020 C   0  0  0  0  0  0  0  0  0  0  0  0
   39.7270   34.5610   38.6100 C   0  0  0  0  0  0  0  0  0  0  0  0
   40.5090   34.5020   39.6960 C   0  0  0  0  0  0  0  0  0  0  0  0
   42.5070   35.0860   40.7420 O   0  0  0  0  0  0  0  0  0  0  0  0
   43.5410   34.1540   40.9560 C   0  0  0  0  0  0  0  0  0  0  0  0
   44.5180   33.9940   39.8230 C   0  0  0  0  0  0  0  0  0  0  0  0
   43.6930   32.8700   40.2580 C   0  0  0  0  0  0  0  0  0  0  0  0
   44.1160   34.3450   42.2980 C   0  0  0  0  0  0  0  0  0  0  0  0
   44.7660   33.2700   42.9790 C   0  0  0  0  0  0  0  0  0  0  0  0
   45.3090   33.4280   44.2370 C   0  0  0  0  0  0  0  0  0  0  0  0
   45.1940   34.6630   44.8000 N   0  0  0  0  0  0  0  0  0  0  0  0
   44.5630   35.6830   44.1270 C   0  0  0  0  0  0  0  0  0  0  0  0
   44.0620   35.4730   42.9250 N   0  0  0  0  0  0  0  0  0  0  0  0
   39.7510   33.6950   40.6610 C   0  0  0  0  0  0  0  0  0  0  0  0
   40.3150   32.2250   40.8040 C   0  0  0  0  0  0  0  0  0  0  0  0
   40.0280   34.1470   42.0540 C   0  0  0  0  0  0  0  0  0  0  0  0
   38.3900   33.2770   40.2780 C   0  0  0  0  0  0  0  0  0  0  0  0
   37.8840   32.3460   41.1340 O   0  0  0  0  0  0  0  0  0  0  0  0
   43.0205   36.3990   38.3112 H   0  0  0  0  0  0  0  0  0  0  0  0
   41.5027   36.4073   36.4077 H   0  0  0  0  0  0  0  0  0  0  0  0
   39.4072   35.2203   36.6525 H   0  0  0  0  0  0  0  0  0  0  0  0
   38.7505   34.0548   38.6243 H   0  0  0  0  0  0  0  0  0  0  0  0
   45.5997   33.9944   40.0230 H   0  0  0  0  0  0  0  0  0  0  0  0
   44.6970   34.5080   38.8671 H   0  0  0  0  0  0  0  0  0  0  0  0
   42.8844   32.5039   39.6082 H   0  0  0  0  0  0  0  0  0  0  0  0
   43.9078   31.8412   40.5826 H   0  0  0  0  0  0  0  0  0  0  0  0
   44.8352   32.2890   42.4862 H   0  0  0  0  0  0  0  0  0  0  0  0
   45.8094   32.5990   44.7590 H   0  0  0  0  0  0  0  0  0  0  0  0
   44.4759   36.6760   44.5921 H   0  0  0  0  0  0  0  0  0  0  0  0
   40.4122   31.9717   41.8700 H   0  0  0  0  0  0  0  0  0  0  0  0
   39.6241   31.5185   40.3207 H   0  0  0  0  0  0  0  0  0  0  0  0
   41.3012   32.1620   40.3207 H   0  0  0  0  0  0  0  0  0  0  0  0
   39.5897   33.4318   42.7656 H   0  0  0  0  0  0  0  0  0  0  0  0
   41.1152   34.2021   42.2123 H   0  0  0  0  0  0  0  0  0  0  0  0
   39.5836   35.1407   42.2123 H   0  0  0  0  0  0  0  0  0  0  0  0
   37.7326   34.1590   40.2830 H   0  0  0  0  0  0  0  0  0  0  0  0
   38.4416   32.8260   39.2760 H   0  0  0  0  0  0  0  0  0  0  0  0
   38.0415   32.6358   42.0674 H   0  0  0  0  0  0  0  0  0  0  0  0
  1  6  1  0
  1  7  1  0
  2  1  2  0
  3  4  2  0
  3  2  1  0
  4  5  1  0
  5  6  2  0
  6 17  1  0
  7  8  1  0
  8 11  1  0
  9 10  1  0
  9  8  1  0
 10  8  1  0
 11 16  1  0
 11 12  2  0
 12 13  1  0
 13 14  2  0
 15 14  1  0
 16 15  2  0
 17 18  1  0
 17 19  1  0
 20 17  1  0
 20 21  1  0
  2 22  1  0
  3 23  1  0
  4 24  1  0
  5 25  1  0
  9 26  1  0
  9 27  1  0
 10 28  1  0
 10 29  1  0
 12 30  1  0
 13 31  1  0
 15 32  1  0
 18 33  1  0
 18 34  1  0
 18 35  1  0
 19 36  1  0
 19 37  1  0
 19 38  1  0
 20 39  1  0
 20 40  1  0
 21 41  1  0
M  ISO  8  22  14  23  14  24  14  25  14  26  13  27  13  28  13  29  13
M  ISO  8  30  14  31  14  32  14  33   8  34   8  35   8  36   8  37   8
M  ISO  4  38   8  39   8  40   8  41   3
M  END
>  <minimizedAffinity>  (1) 
-5.4767952

>  <minimizedRMSD>  (1) 
0.422206849

$$$$
