
     RDKit          3D

 50 53  0  0  0  0  0  0  0  0999 V2000
   42.4950   34.6820   41.4280 C   0  0  0  0  0  0  0  0  0  0  0  0
   41.6090   35.7280   41.7820 C   0  0  0  0  0  0  0  0  0  0  0  0
   40.6710   36.1630   40.9690 C   0  0  0  0  0  0  0  0  0  0  0  0
   40.6150   35.5420   39.7910 C   0  0  0  0  0  0  0  0  0  0  0  0
   41.4180   34.5380   39.3850 C   0  0  0  0  0  0  0  0  0  0  0  0
   42.3920   34.0620   40.1730 C   0  0  0  0  0  0  0  0  0  0  0  0
   43.5350   34.1440   42.1990 O   0  0  0  0  0  0  0  0  0  0  0  0
   44.6950   34.8390   42.6010 C   0  0  0  0  0  0  0  0  0  0  0  0
   44.6850   35.3450   44.0210 C   0  0  0  0  0  0  0  0  0  0  0  0
   44.7820   36.2690   42.9060 C   0  0  0  0  0  0  0  0  0  0  0  0
   45.8930   34.0890   42.1790 C   0  0  0  0  0  0  0  0  0  0  0  0
   46.9790   34.7470   41.5310 C   0  0  0  0  0  0  0  0  0  0  0  0
   48.1120   34.0750   41.1190 C   0  0  0  0  0  0  0  0  0  0  0  0
   48.1360   32.7400   41.3690 N   0  0  0  0  0  0  0  0  0  0  0  0
   47.0780   32.1260   41.9960 C   0  0  0  0  0  0  0  0  0  0  0  0
   46.0220   32.8180   42.3660 N   0  0  0  0  0  0  0  0  0  0  0  0
   43.0420   33.0000   39.3670 C   0  0  0  0  0  0  0  0  0  0  0  0
   44.5540   33.2510   39.0840 C   0  0  0  0  0  0  0  0  0  0  0  0
   43.1960   31.7660   40.2040 C   0  0  0  0  0  0  0  0  0  0  0  0
   42.5800   32.8680   37.9820 C   0  0  0  0  0  0  0  0  0  0  0  0
   42.0340   31.5450   37.5900 C   0  0  0  0  0  0  0  0  0  0  0  0
   40.6650   31.3320   37.7700 C   0  0  0  0  0  0  0  0  0  0  0  0
   39.9480   30.1980   37.4580 C   0  0  0  0  0  0  0  0  0  0  0  0
   40.6630   29.1570   36.9070 C   0  0  0  0  0  0  0  0  0  0  0  0
   42.0160   29.2930   36.6990 C   0  0  0  0  0  0  0  0  0  0  0  0
   42.6960   30.4440   37.0250 C   0  0  0  0  0  0  0  0  0  0  0  0
   41.7087   36.1940   42.7734 H   0  0  0  0  0  0  0  0  0  0  0  0
   39.9843   36.9782   41.2409 H   0  0  0  0  0  0  0  0  0  0  0  0
   39.8422   35.8799   39.0848 H   0  0  0  0  0  0  0  0  0  0  0  0
   41.2707   34.1006   38.3865 H   0  0  0  0  0  0  0  0  0  0  0  0
   43.7625   35.2954   44.6181 H   0  0  0  0  0  0  0  0  0  0  0  0
   45.2781   35.1466   44.9259 H   0  0  0  0  0  0  0  0  0  0  0  0
   45.7245   36.8069   42.7261 H   0  0  0  0  0  0  0  0  0  0  0  0
   44.2071   37.1534   42.5940 H   0  0  0  0  0  0  0  0  0  0  0  0
   46.9115   35.8304   41.3528 H   0  0  0  0  0  0  0  0  0  0  0  0
   48.9454   34.5895   40.6183 H   0  0  0  0  0  0  0  0  0  0  0  0
   47.1147   31.0440   42.1906 H   0  0  0  0  0  0  0  0  0  0  0  0
   45.0955   33.3409   40.0373 H   0  0  0  0  0  0  0  0  0  0  0  0
   44.9639   32.4086   38.5075 H   0  0  0  0  0  0  0  0  0  0  0  0
   44.6697   34.1806   38.5075 H   0  0  0  0  0  0  0  0  0  0  0  0
   43.1620   32.0388   41.2691 H   0  0  0  0  0  0  0  0  0  0  0  0
   42.3783   31.0656   39.9786 H   0  0  0  0  0  0  0  0  0  0  0  0
   44.1608   31.2881   39.9786 H   0  0  0  0  0  0  0  0  0  0  0  0
   41.7906   33.6167   37.8201 H   0  0  0  0  0  0  0  0  0  0  0  0
   43.4770   33.0087   37.3610 H   0  0  0  0  0  0  0  0  0  0  0  0
   40.0955   32.1636   38.2105 H   0  0  0  0  0  0  0  0  0  0  0  0
   38.8652   30.1274   37.6386 H   0  0  0  0  0  0  0  0  0  0  0  0
   40.1539   28.2208   36.6345 H   0  0  0  0  0  0  0  0  0  0  0  0
   42.5730   28.4535   36.2573 H   0  0  0  0  0  0  0  0  0  0  0  0
   43.7786   30.5022   36.8393 H   0  0  0  0  0  0  0  0  0  0  0  0
  1  2  2  0
  1  7  1  0
  3  2  1  0
  4  3  2  0
  5  4  1  0
  5  6  2  0
  6  1  1  0
  7  8  1  0
  8 10  1  0
  8  9  1  0
 10  9  1  0
 11 16  1  0
 11  8  1  0
 12 11  2  0
 13 14  2  0
 13 12  1  0
 14 15  1  0
 15 16  2  0
 17  6  1  0
 17 19  1  0
 18 17  1  0
 20 17  1  0
 21 22  2  0
 21 20  1  0
 23 22  1  0
 24 23  2  0
 25 24  1  0
 25 26  2  0
 26 21  1  0
  2 27  1  0
  3 28  1  0
  4 29  1  0
  5 30  1  0
  9 31  1  0
  9 32  1  0
 10 33  1  0
 10 34  1  0
 12 35  1  0
 13 36  1  0
 15 37  1  0
 18 38  1  0
 18 39  1  0
 18 40  1  0
 19 41  1  0
 19 42  1  0
 19 43  1  0
 20 44  1  0
 20 45  1  0
 22 46  1  0
 23 47  1  0
 24 48  1  0
 25 49  1  0
 26 50  1  0
M  ISO  8  27  14  28  14  29  14  30  14  31  13  32  13  33  13  34  13
M  ISO  8  35  14  36  14  37  14  38   8  39   8  40   8  41   8  42   8
M  ISO  8  43   8  44   8  45   8  46  14  47  14  48  14  49  14  50  14
M  END
>  <minimizedAffinity>  (1) 
-4.68532228

>  <minimizedRMSD>  (1) 
4.63941336

$$$$
