
     RDKit          3D

 30 32  0  0  0  0  0  0  0  0999 V2000
   46.2490   31.7490   46.2260 C   0  0  0  0  0  0  0  0  0  0  0  0
   45.9080   33.0620   46.0050 C   0  0  0  0  0  0  0  0  0  0  0  0
   46.3770   33.7550   44.9040 C   0  0  0  0  0  0  0  0  0  0  0  0
   47.2040   33.1410   43.9970 C   0  0  0  0  0  0  0  0  0  0  0  0
   47.5670   31.8340   44.1850 C   0  0  0  0  0  0  0  0  0  0  0  0
   47.0800   31.1580   45.3020 C   0  0  0  0  0  0  0  0  0  0  0  0
   47.4850   34.5120   40.6050 C   0  0  0  0  0  0  0  0  0  0  0  0
   48.6610   35.3060   40.6970 C   0  0  0  0  0  0  0  0  0  0  0  0
   49.3200   35.3450   41.9240 C   0  0  0  0  0  0  0  0  0  0  0  0
   48.8240   34.6300   42.9800 N   0  0  0  0  0  0  0  0  0  0  0  0
   47.6900   33.8790   42.8470 C   0  0  0  0  0  0  0  0  0  0  0  0
   47.0380   33.8270   41.6740 N   0  0  0  0  0  0  0  0  0  0  0  0
   45.6540   30.9170   47.6360 S   0  0  0  0  0  0  0  0  0  0  0  0
   44.6140   31.7640   48.3200 O   0  0  0  0  0  0  0  0  0  0  0  0
   46.8060   30.6280   48.5760 O   0  0  0  0  0  0  0  0  0  0  0  0
   44.8840   29.4340   47.1450 C   0  0  0  0  0  0  0  0  0  0  0  0
   45.0750   28.1860   47.7420 C   0  0  0  0  0  0  0  0  0  0  0  0
   44.3390   27.2370   47.1360 N   0  0  0  0  0  0  0  0  0  0  0  0
   43.6690   27.8800   46.1380 C   0  0  0  0  0  0  0  0  0  0  0  0
   44.0180   29.1860   46.1750 N   0  0  0  0  0  0  0  0  0  0  0  0
   45.2469   33.5733   46.7202 H   0  0  0  0  0  0  0  0  0  0  0  0
   46.0854   34.8050   44.7542 H   0  0  0  0  0  0  0  0  0  0  0  0
   48.2301   31.3276   43.4682 H   0  0  0  0  0  0  0  0  0  0  0  0
   47.3721   30.1081   45.4514 H   0  0  0  0  0  0  0  0  0  0  0  0
   46.9364   34.4571   39.6531 H   0  0  0  0  0  0  0  0  0  0  0  0
   49.0371   35.8694   39.8303 H   0  0  0  0  0  0  0  0  0  0  0  0
   50.2331   35.9467   42.0430 H   0  0  0  0  0  0  0  0  0  0  0  0
   45.7415   28.0026   48.5977 H   0  0  0  0  0  0  0  0  0  0  0  0
   42.9678   27.4178   45.4276 H   0  0  0  0  0  0  0  0  0  0  0  0
   43.6546   29.9001   45.5278 H   0  0  0  0  0  0  0  0  0  0  0  0
  1 13  1  0
  2  1  2  0
  3  2  1  0
  4  5  1  0
  4  3  2  0
  5  6  2  0
  6  1  1  0
  7  8  2  0
  7 12  1  0
  8  9  1  0
  9 10  2  0
 11 10  1  0
 11  4  1  0
 12 11  2  0
 13 14  2  0
 13 15  2  0
 16 13  1  0
 16 17  2  0
 18 17  1  0
 19 20  1  0
 19 18  2  0
 20 16  1  0
  2 21  1  0
  3 22  1  0
  5 23  1  0
  6 24  1  0
  7 25  1  0
  8 26  1  0
  9 27  1  0
 17 28  1  0
 19 29  1  0
 20 30  1  0
M  ISO  8  21  14  22  14  23  14  24  14  25  14  26  14  27  14  28  14
M  ISO  2  29  14  30   9
M  END
>  <minimizedAffinity>  (1) 
-5.20573187

>  <minimizedRMSD>  (1) 
3.10756254

$$$$
