
     RDKit          3D

 44 48  0  0  0  0  0  0  0  0999 V2000
   46.4590   31.8520   45.0100 S   0  0  0  0  0  0  0  0  0  0  0  0
   45.4710   30.7250   44.8280 O   0  0  0  0  0  0  0  0  0  0  0  0
   45.7280   33.1860   44.9970 O   0  0  0  0  0  0  0  0  0  0  0  0
   47.2500   31.6120   46.5460 C   0  0  0  0  0  0  0  0  0  0  0  0
   47.3640   32.4780   47.6210 C   0  0  0  0  0  0  0  0  0  0  0  0
   48.0830   31.8450   48.6280 C   0  0  0  0  0  0  0  0  0  0  0  0
   48.3680   30.6410   48.1230 N   0  0  0  0  0  0  0  0  0  0  0  0
   47.8900   30.4770   46.9020 N   0  0  0  0  0  0  0  0  0  0  0  0
   49.1000   29.6100   48.7820 C   0  0  0  0  0  0  0  0  0  0  0  0
   48.9660   28.3820   48.2380 N   0  0  0  0  0  0  0  0  0  0  0  0
   49.6170   27.3100   48.7770 C   0  0  0  0  0  0  0  0  0  0  0  0
   50.4130   27.4630   49.8710 N   0  0  0  0  0  0  0  0  0  0  0  0
   50.5700   28.6850   50.4430 C   0  0  0  0  0  0  0  0  0  0  0  0
   51.3620   28.9020   51.5540 C   0  0  0  0  0  0  0  0  0  0  0  0
   51.5170   30.1450   52.1290 C   0  0  0  0  0  0  0  0  0  0  0  0
   50.8180   31.1930   51.5210 C   0  0  0  0  0  0  0  0  0  0  0  0
   50.0080   31.0380   50.4060 C   0  0  0  0  0  0  0  0  0  0  0  0
   49.9080   29.7630   49.8920 C   0  0  0  0  0  0  0  0  0  0  0  0
   47.6330   31.8450   43.7380 C   0  0  0  0  0  0  0  0  0  0  0  0
   48.0890   30.6330   43.2510 C   0  0  0  0  0  0  0  0  0  0  0  0
   49.0290   30.5530   42.2340 C   0  0  0  0  0  0  0  0  0  0  0  0
   49.5290   31.7150   41.6870 C   0  0  0  0  0  0  0  0  0  0  0  0
   49.1000   32.9210   42.1450 C   0  0  0  0  0  0  0  0  0  0  0  0
   48.1530   32.9780   43.1700 C   0  0  0  0  0  0  0  0  0  0  0  0
   52.7340   31.4560   39.9080 C   0  0  0  0  0  0  0  0  0  0  0  0
   52.3270   31.4950   38.5550 C   0  0  0  0  0  0  0  0  0  0  0  0
   50.9640   31.6090   38.2870 C   0  0  0  0  0  0  0  0  0  0  0  0
   50.0710   31.6780   39.3230 N   0  0  0  0  0  0  0  0  0  0  0  0
   50.5130   31.6370   40.6240 C   0  0  0  0  0  0  0  0  0  0  0  0
   51.8130   31.5290   40.8830 N   0  0  0  0  0  0  0  0  0  0  0  0
   46.9536   33.4974   47.6696 H   0  0  0  0  0  0  0  0  0  0  0  0
   48.3555   32.2443   49.6161 H   0  0  0  0  0  0  0  0  0  0  0  0
   49.4976   26.3148   48.3239 H   0  0  0  0  0  0  0  0  0  0  0  0
   51.8914   28.0464   51.9986 H   0  0  0  0  0  0  0  0  0  0  0  0
   52.1523   30.3034   53.0130 H   0  0  0  0  0  0  0  0  0  0  0  0
   50.9166   32.1999   51.9529 H   0  0  0  0  0  0  0  0  0  0  0  0
   49.4737   31.8875   49.9557 H   0  0  0  0  0  0  0  0  0  0  0  0
   47.6933   29.7026   43.6843 H   0  0  0  0  0  0  0  0  0  0  0  0
   49.3713   29.5736   41.8684 H   0  0  0  0  0  0  0  0  0  0  0  0
   49.4977   33.8495   41.7094 H   0  0  0  0  0  0  0  0  0  0  0  0
   47.8151   33.9605   43.5314 H   0  0  0  0  0  0  0  0  0  0  0  0
   53.8006   31.3662   40.1615 H   0  0  0  0  0  0  0  0  0  0  0  0
   53.0627   31.4372   37.7393 H   0  0  0  0  0  0  0  0  0  0  0  0
   50.6069   31.6434   37.2472 H   0  0  0  0  0  0  0  0  0  0  0  0
  1  4  1  0
  2  1  2  0
  3  1  2  0
  4  8  2  0
  4  5  1  0
  5  6  2  0
  7  6  1  0
  7  9  1  0
  8  7  1  0
  9 18  2  0
 10 11  2  0
 10  9  1  0
 11 12  1  0
 12 13  2  0
 13 14  1  0
 14 15  2  0
 16 15  1  0
 17 16  2  0
 18 17  1  0
 18 13  1  0
 19  1  1  0
 20 19  2  0
 21 20  1  0
 22 23  1  0
 22 21  2  0
 23 24  2  0
 24 19  1  0
 25 30  2  0
 26 25  1  0
 27 26  2  0
 27 28  1  0
 28 29  2  0
 29 30  1  0
 29 22  1  0
  5 31  1  0
  6 32  1  0
 11 33  1  0
 14 34  1  0
 15 35  1  0
 16 36  1  0
 17 37  1  0
 20 38  1  0
 21 39  1  0
 23 40  1  0
 24 41  1  0
 25 42  1  0
 26 43  1  0
 27 44  1  0
M  ISO  8  31  14  32  14  33  14  34  14  35  14  36  14  37  14  38  14
M  ISO  6  39  14  40  14  41  14  42  14  43  14  44  14
M  END
>  <minimizedAffinity>  (1) 
-5.97714663

>  <minimizedRMSD>  (1) 
5.42559385

$$$$
