
     RDKit          3D

 37 40  0  0  0  0  0  0  0  0999 V2000
   46.3270   32.4130   46.0520 C   0  0  0  0  0  0  0  0  0  0  0  0
   45.8440   33.6080   45.5630 C   0  0  0  0  0  0  0  0  0  0  0  0
   46.2510   34.1210   44.3450 C   0  0  0  0  0  0  0  0  0  0  0  0
   47.1630   33.4370   43.5800 C   0  0  0  0  0  0  0  0  0  0  0  0
   47.6650   32.2420   44.0350 C   0  0  0  0  0  0  0  0  0  0  0  0
   47.2440   31.7400   45.2660 C   0  0  0  0  0  0  0  0  0  0  0  0
   47.5520   33.9530   39.9760 C   0  0  0  0  0  0  0  0  0  0  0  0
   48.4360   35.0480   39.9170 C   0  0  0  0  0  0  0  0  0  0  0  0
   48.8770   35.5830   41.1260 C   0  0  0  0  0  0  0  0  0  0  0  0
   48.4410   35.0320   42.2980 N   0  0  0  0  0  0  0  0  0  0  0  0
   47.5880   33.9760   42.3030 C   0  0  0  0  0  0  0  0  0  0  0  0
   47.1560   33.4500   41.1560 N   0  0  0  0  0  0  0  0  0  0  0  0
   45.7690   31.8310   47.5910 S   0  0  0  0  0  0  0  0  0  0  0  0
   44.5710   32.6180   48.0420 O   0  0  0  0  0  0  0  0  0  0  0  0
   46.9000   31.9520   48.5940 O   0  0  0  0  0  0  0  0  0  0  0  0
   45.2740   30.1560   47.4540 C   0  0  0  0  0  0  0  0  0  0  0  0
   44.7250   29.5010   46.3540 C   0  0  0  0  0  0  0  0  0  0  0  0
   44.4940   28.1700   46.7240 C   0  0  0  0  0  0  0  0  0  0  0  0
   44.9060   28.0970   47.9900 N   0  0  0  0  0  0  0  0  0  0  0  0
   45.3620   29.2470   48.4280 N   0  0  0  0  0  0  0  0  0  0  0  0
   44.3910   25.1960   50.0520 N   0  0  0  0  0  0  0  0  0  0  0  0
   44.0950   26.4590   49.7800 N   0  0  0  0  0  0  0  0  0  0  0  0
   44.8190   26.8680   48.7060 C   0  0  0  0  0  0  0  0  0  0  0  0
   45.6140   25.7980   48.2820 C   0  0  0  0  0  0  0  0  0  0  0  0
   45.3100   24.7560   49.1670 C   0  0  0  0  0  0  0  0  0  0  0  0
   45.1119   34.1711   46.1604 H   0  0  0  0  0  0  0  0  0  0  0  0
   45.8434   35.0785   43.9886 H   0  0  0  0  0  0  0  0  0  0  0  0
   48.3956   31.6837   43.4312 H   0  0  0  0  0  0  0  0  0  0  0  0
   47.6526   30.7825   45.6214 H   0  0  0  0  0  0  0  0  0  0  0  0
   47.1812   33.5040   39.0428 H   0  0  0  0  0  0  0  0  0  0  0  0
   48.7656   35.4648   38.9539 H   0  0  0  0  0  0  0  0  0  0  0  0
   49.5680   36.4388   41.1367 H   0  0  0  0  0  0  0  0  0  0  0  0
   44.5114   29.9483   45.3720 H   0  0  0  0  0  0  0  0  0  0  0  0
   44.0678   27.3647   46.1077 H   0  0  0  0  0  0  0  0  0  0  0  0
   43.9844   24.6390   50.8170 H   0  0  0  0  0  0  0  0  0  0  0  0
   46.3214   25.7792   47.4398 H   0  0  0  0  0  0  0  0  0  0  0  0
   45.7474   23.7470   49.1445 H   0  0  0  0  0  0  0  0  0  0  0  0
  1 13  1  0
  2  1  2  0
  3  2  1  0
  4  5  1  0
  4  3  2  0
  5  6  2  0
  6  1  1  0
  7 12  2  0
  8  7  1  0
  8  9  2  0
  9 10  1  0
 10 11  2  0
 11  4  1  0
 12 11  1  0
 13 14  2  0
 13 15  2  0
 16 13  1  0
 16 20  2  0
 17 18  2  0
 17 16  1  0
 18 19  1  0
 19 20  1  0
 19 23  1  0
 22 21  1  0
 23 22  2  0
 24 23  1  0
 24 25  2  0
 25 21  1  0
  2 26  1  0
  3 27  1  0
  5 28  1  0
  6 29  1  0
  7 30  1  0
  8 31  1  0
  9 32  1  0
 17 33  1  0
 18 34  1  0
 21 35  1  0
 24 36  1  0
 25 37  1  0
M  ISO  8  26  14  27  14  28  14  29  14  30  14  31  14  32  14  33  14
M  ISO  4  34  14  35   9  36  14  37  14
M  END
>  <minimizedAffinity>  (1) 
-5.93861198

>  <minimizedRMSD>  (1) 
0.913501382

$$$$
