
     RDKit          3D

 38 41  0  0  0  0  0  0  0  0999 V2000
   46.2870   31.6740   46.3120 C   0  0  0  0  0  0  0  0  0  0  0  0
   45.9410   32.9830   46.0930 C   0  0  0  0  0  0  0  0  0  0  0  0
   46.3760   33.6920   44.9900 C   0  0  0  0  0  0  0  0  0  0  0  0
   47.1850   33.0860   44.0650 C   0  0  0  0  0  0  0  0  0  0  0  0
   47.5540   31.7780   44.2460 C   0  0  0  0  0  0  0  0  0  0  0  0
   47.1060   31.0790   45.3650 C   0  0  0  0  0  0  0  0  0  0  0  0
   47.4090   34.4930   40.6930 C   0  0  0  0  0  0  0  0  0  0  0  0
   48.5900   35.2470   40.7430 C   0  0  0  0  0  0  0  0  0  0  0  0
   49.2980   35.2540   41.9640 C   0  0  0  0  0  0  0  0  0  0  0  0
   48.8080   34.5390   43.0180 N   0  0  0  0  0  0  0  0  0  0  0  0
   47.6440   33.8190   42.9090 C   0  0  0  0  0  0  0  0  0  0  0  0
   46.9760   33.8090   41.7660 N   0  0  0  0  0  0  0  0  0  0  0  0
   45.6970   30.8570   47.7240 S   0  0  0  0  0  0  0  0  0  0  0  0
   44.5460   31.6040   48.3200 O   0  0  0  0  0  0  0  0  0  0  0  0
   46.8380   30.7220   48.7250 O   0  0  0  0  0  0  0  0  0  0  0  0
   45.1130   29.2610   47.2880 C   0  0  0  0  0  0  0  0  0  0  0  0
   44.1620   28.9050   46.3530 C   0  0  0  0  0  0  0  0  0  0  0  0
   44.0150   27.5200   46.3410 C   0  0  0  0  0  0  0  0  0  0  0  0
   44.8910   27.1160   47.2760 N   0  0  0  0  0  0  0  0  0  0  0  0
   45.5530   28.1160   47.8520 N   0  0  0  0  0  0  0  0  0  0  0  0
   45.1890   25.7880   47.7120 C   0  0  0  0  0  0  0  0  0  0  0  0
   45.5510   25.6760   49.0400 C   0  0  0  0  0  0  0  0  0  0  0  0
   45.8500   24.3910   49.5030 C   0  0  0  0  0  0  0  0  0  0  0  0
   45.7970   23.2790   48.7120 N   0  0  0  0  0  0  0  0  0  0  0  0
   45.4300   23.4660   47.4090 C   0  0  0  0  0  0  0  0  0  0  0  0
   45.1270   24.6930   46.8980 N   0  0  0  0  0  0  0  0  0  0  0  0
   45.2921   33.4878   46.8238 H   0  0  0  0  0  0  0  0  0  0  0  0
   46.0735   34.7409   44.8546 H   0  0  0  0  0  0  0  0  0  0  0  0
   48.2025   31.2814   43.5092 H   0  0  0  0  0  0  0  0  0  0  0  0
   47.4094   30.0303   45.5001 H   0  0  0  0  0  0  0  0  0  0  0  0
   46.8271   34.4607   39.7601 H   0  0  0  0  0  0  0  0  0  0  0  0
   48.9493   35.8089   39.8683 H   0  0  0  0  0  0  0  0  0  0  0  0
   50.2313   35.8275   42.0645 H   0  0  0  0  0  0  0  0  0  0  0  0
   43.6055   29.6075   45.7151 H   0  0  0  0  0  0  0  0  0  0  0  0
   43.3460   26.9074   45.7188 H   0  0  0  0  0  0  0  0  0  0  0  0
   45.6016   26.5540   49.7007 H   0  0  0  0  0  0  0  0  0  0  0  0
   46.1424   24.2698   50.5565 H   0  0  0  0  0  0  0  0  0  0  0  0
   45.3769   22.5905   46.7452 H   0  0  0  0  0  0  0  0  0  0  0  0
  1 13  1  0
  2  1  2  0
  3  2  1  0
  4  5  1  0
  4  3  2  0
  5  6  2  0
  6  1  1  0
  7  8  2  0
  7 12  1  0
  8  9  1  0
  9 10  2  0
 11 10  1  0
 11  4  1  0
 12 11  2  0
 13 14  2  0
 13 15  2  0
 16 13  1  0
 16 20  2  0
 17 16  1  0
 18 17  2  0
 18 19  1  0
 19 21  1  0
 19 20  1  0
 21 22  2  0
 22 23  1  0
 24 23  2  0
 25 24  1  0
 26 25  2  0
 26 21  1  0
  2 27  1  0
  3 28  1  0
  5 29  1  0
  6 30  1  0
  7 31  1  0
  8 32  1  0
  9 33  1  0
 17 34  1  0
 18 35  1  0
 22 36  1  0
 23 37  1  0
 25 38  1  0
M  ISO  8  27  14  28  14  29  14  30  14  31  14  32  14  33  14  34  14
M  ISO  4  35  14  36  14  37  14  38  14
M  END
>  <minimizedAffinity>  (1) 
-5.66596127

>  <minimizedRMSD>  (1) 
2.27247405

$$$$
