
     RDKit          3D

 36 39  0  0  0  0  0  0  0  0999 V2000
   46.3060   31.7280   46.3010 C   0  0  0  0  0  0  0  0  0  0  0  0
   45.9520   33.0280   46.0590 C   0  0  0  0  0  0  0  0  0  0  0  0
   46.3840   33.7230   44.9530 C   0  0  0  0  0  0  0  0  0  0  0  0
   47.2030   33.1080   44.0390 C   0  0  0  0  0  0  0  0  0  0  0  0
   47.5840   31.8080   44.2370 C   0  0  0  0  0  0  0  0  0  0  0  0
   47.1290   31.1320   45.3710 C   0  0  0  0  0  0  0  0  0  0  0  0
   47.4020   34.4570   40.6330 C   0  0  0  0  0  0  0  0  0  0  0  0
   48.5700   35.2460   40.6850 C   0  0  0  0  0  0  0  0  0  0  0  0
   49.2610   35.2920   41.8980 C   0  0  0  0  0  0  0  0  0  0  0  0
   48.7950   34.5870   42.9730 N   0  0  0  0  0  0  0  0  0  0  0  0
   47.6580   33.8370   42.8720 C   0  0  0  0  0  0  0  0  0  0  0  0
   46.9810   33.7810   41.7140 N   0  0  0  0  0  0  0  0  0  0  0  0
   45.7170   30.9180   47.7300 S   0  0  0  0  0  0  0  0  0  0  0  0
   44.5540   31.6620   48.3060 O   0  0  0  0  0  0  0  0  0  0  0  0
   46.8690   30.8310   48.7250 O   0  0  0  0  0  0  0  0  0  0  0  0
   45.1770   29.3200   47.3140 C   0  0  0  0  0  0  0  0  0  0  0  0
   44.2120   28.9240   46.3850 C   0  0  0  0  0  0  0  0  0  0  0  0
   44.1310   27.5250   46.4110 C   0  0  0  0  0  0  0  0  0  0  0  0
   45.0380   27.1570   47.3400 N   0  0  0  0  0  0  0  0  0  0  0  0
   45.6570   28.1860   47.8780 N   0  0  0  0  0  0  0  0  0  0  0  0
   45.3120   25.7860   47.7120 C   0  0  0  0  0  0  0  0  0  0  0  0
   45.3820   24.8070   46.7270 C   0  0  0  0  0  0  0  0  0  0  0  0
   45.7390   23.3190   47.7240 S   0  0  0  0  0  0  0  0  0  0  0  0
   45.7290   24.3180   49.3460 C   0  0  0  0  0  0  0  0  0  0  0  0
   45.4640   25.6640   49.0140 N   0  0  0  0  0  0  0  0  0  0  0  0
   45.2949   33.5381   46.7787 H   0  0  0  0  0  0  0  0  0  0  0  0
   46.0743   34.7676   44.8017 H   0  0  0  0  0  0  0  0  0  0  0  0
   48.2397   31.3028   43.5125 H   0  0  0  0  0  0  0  0  0  0  0  0
   47.4383   30.0880   45.5269 H   0  0  0  0  0  0  0  0  0  0  0  0
   46.8293   34.3948   39.6959 H   0  0  0  0  0  0  0  0  0  0  0  0
   48.9229   35.8033   39.8047 H   0  0  0  0  0  0  0  0  0  0  0  0
   50.1774   35.8936   41.9882 H   0  0  0  0  0  0  0  0  0  0  0  0
   43.6190   29.5935   45.7446 H   0  0  0  0  0  0  0  0  0  0  0  0
   43.4771   26.8751   45.8109 H   0  0  0  0  0  0  0  0  0  0  0  0
   45.2560   24.9031   45.6385 H   0  0  0  0  0  0  0  0  0  0  0  0
   45.8988   23.9187   50.3568 H   0  0  0  0  0  0  0  0  0  0  0  0
  1 13  1  0
  2  1  2  0
  3  2  1  0
  4  5  1  0
  4  3  2  0
  5  6  2  0
  6  1  1  0
  7  8  2  0
  7 12  1  0
  8  9  1  0
  9 10  2  0
 11 10  1  0
 11  4  1  0
 12 11  2  0
 13 14  2  0
 13 15  2  0
 16 13  1  0
 16 20  2  0
 17 18  2  0
 17 16  1  0
 18 19  1  0
 19 21  1  0
 19 20  1  0
 21 25  1  0
 22 21  2  0
 22 23  1  0
 23 24  1  0
 25 24  2  0
  2 26  1  0
  3 27  1  0
  5 28  1  0
  6 29  1  0
  7 30  1  0
  8 31  1  0
  9 32  1  0
 17 33  1  0
 18 34  1  0
 22 35  1  0
 24 36  1  0
M  ISO  8  26  14  27  14  28  14  29  14  30  14  31  14  32  14  33  14
M  ISO  3  34  14  35  14  36  14
M  END
>  <minimizedAffinity>  (1) 
-5.49904394

>  <minimizedRMSD>  (1) 
2.04974461

$$$$
