
     RDKit          3D

 36 38  0  0  0  0  0  0  0  0999 V2000
   46.2950   31.7520   46.3550 C   0  0  0  0  0  0  0  0  0  0  0  0
   45.8900   33.0400   46.0840 C   0  0  0  0  0  0  0  0  0  0  0  0
   46.3120   33.7230   44.9640 C   0  0  0  0  0  0  0  0  0  0  0  0
   47.1700   33.1120   44.0780 C   0  0  0  0  0  0  0  0  0  0  0  0
   47.5920   31.8350   44.3160 C   0  0  0  0  0  0  0  0  0  0  0  0
   47.1500   31.1600   45.4600 C   0  0  0  0  0  0  0  0  0  0  0  0
   47.3560   34.4310   40.6630 C   0  0  0  0  0  0  0  0  0  0  0  0
   48.5450   35.1980   40.6990 C   0  0  0  0  0  0  0  0  0  0  0  0
   49.2600   35.2410   41.9140 C   0  0  0  0  0  0  0  0  0  0  0  0
   48.7770   34.5490   42.9820 N   0  0  0  0  0  0  0  0  0  0  0  0
   47.6210   33.8210   42.8980 C   0  0  0  0  0  0  0  0  0  0  0  0
   46.9440   33.7770   41.7580 N   0  0  0  0  0  0  0  0  0  0  0  0
   45.7180   30.9540   47.7900 S   0  0  0  0  0  0  0  0  0  0  0  0
   44.6010   31.7650   48.4160 O   0  0  0  0  0  0  0  0  0  0  0  0
   46.8630   30.7830   48.7620 O   0  0  0  0  0  0  0  0  0  0  0  0
   45.0450   29.4040   47.3770 C   0  0  0  0  0  0  0  0  0  0  0  0
   44.4120   28.9960   46.2060 C   0  0  0  0  0  0  0  0  0  0  0  0
   44.0370   27.6600   46.3320 C   0  0  0  0  0  0  0  0  0  0  0  0
   44.4600   27.3330   47.5650 N   0  0  0  0  0  0  0  0  0  0  0  0
   45.0470   28.3260   48.1920 N   0  0  0  0  0  0  0  0  0  0  0  0
   44.3130   26.0300   48.2020 C   0  0  0  0  0  0  0  0  0  0  0  0
   44.0480   26.1670   49.6960 C   0  0  0  0  0  0  0  0  0  0  0  0
   45.2064   33.5407   46.7854 H   0  0  0  0  0  0  0  0  0  0  0  0
   45.9652   34.7504   44.7791 H   0  0  0  0  0  0  0  0  0  0  0  0
   48.2762   31.3391   43.6118 H   0  0  0  0  0  0  0  0  0  0  0  0
   47.4958   30.1324   45.6455 H   0  0  0  0  0  0  0  0  0  0  0  0
   46.7690   34.3715   39.7346 H   0  0  0  0  0  0  0  0  0  0  0  0
   48.8990   35.7415   39.8106 H   0  0  0  0  0  0  0  0  0  0  0  0
   50.1900   35.8225   41.9969 H   0  0  0  0  0  0  0  0  0  0  0  0
   44.2361   29.6274   45.3226 H   0  0  0  0  0  0  0  0  0  0  0  0
   43.5189   27.0251   45.5982 H   0  0  0  0  0  0  0  0  0  0  0  0
   43.4705   25.4974   47.7367 H   0  0  0  0  0  0  0  0  0  0  0  0
   45.2510   25.4715   48.0671 H   0  0  0  0  0  0  0  0  0  0  0  0
   44.8876   25.7329   50.2586 H   0  0  0  0  0  0  0  0  0  0  0  0
   43.9450   27.2313   49.9540 H   0  0  0  0  0  0  0  0  0  0  0  0
   43.1200   25.6357   49.9540 H   0  0  0  0  0  0  0  0  0  0  0  0
  1 13  1  0
  2  1  2  0
  3  2  1  0
  4  5  1  0
  4  3  2  0
  5  6  2  0
  6  1  1  0
  7  8  2  0
  7 12  1  0
  8  9  1  0
  9 10  2  0
 11 10  1  0
 11  4  1  0
 12 11  2  0
 13 14  2  0
 13 15  2  0
 16 13  1  0
 16 20  2  0
 17 18  2  0
 17 16  1  0
 18 19  1  0
 19 20  1  0
 19 21  1  0
 21 22  1  0
  2 23  1  0
  3 24  1  0
  5 25  1  0
  6 26  1  0
  7 27  1  0
  8 28  1  0
  9 29  1  0
 17 30  1  0
 18 31  1  0
 21 32  1  0
 21 33  1  0
 22 34  1  0
 22 35  1  0
 22 36  1  0
M  ISO  8  23  14  24  14  25  14  26  14  27  14  28  14  29  14  30  14
M  ISO  6  31  14  32   8  33   8  34   8  35   8  36   8
M  END
>  <minimizedAffinity>  (1) 
-5.41028357

>  <minimizedRMSD>  (1) 
1.57062638

$$$$
