
     RDKit          3D

 20 21  0  0  1  0  0  0  0  0999 V2000
   46.1620   34.8930   43.2700 O   0  0  0  0  0  0  0  0  0  0  0  0
   46.7410   34.6780   42.0420 C   0  0  0  0  0  0  0  0  0  0  0  0
   47.9780   35.3410   41.8990 C   0  0  0  0  0  0  0  0  0  0  0  0
   48.6540   35.1920   40.6770 C   0  0  0  0  0  0  0  0  0  0  0  0
   48.0880   34.4350   39.7200 N   0  0  0  0  0  0  0  0  0  0  0  0
   46.9150   33.8280   39.9050 C   0  0  0  0  0  0  0  0  0  0  0  0
   46.2340   33.9430   41.0580 N   0  0  0  0  0  0  0  0  0  0  0  0
   44.8700   35.4890   43.4030 C   0  0  2  0  0  0  0  0  0  0  0  0
   44.9080   36.8040   44.1410 C   0  0  0  0  0  0  0  0  0  0  0  0
   44.3290   35.5760   44.7790 C   0  0  2  0  0  0  0  0  0  0  0  0
   45.0260   34.9310   45.8630 N   0  0  0  0  0  0  0  0  0  0  0  0
   48.3968   35.9510   42.7130 H   0  0  0  0  0  0  0  0  0  0  0  0
   49.6235   35.6828   40.5065 H   0  0  0  0  0  0  0  0  0  0  0  0
   46.4939   33.2173   39.0928 H   0  0  0  0  0  0  0  0  0  0  0  0
   44.4642   35.1196   42.4496 H   0  0  0  0  0  0  0  0  0  0  0  0
   45.8663   37.2115   44.4954 H   0  0  0  0  0  0  0  0  0  0  0  0
   44.5520   37.8254   43.9412 H   0  0  0  0  0  0  0  0  0  0  0  0
   43.3649   35.3322   45.2491 H   0  0  0  0  0  0  0  0  0  0  0  0
   44.6559   35.2735   46.7612 H   0  0  0  0  0  0  0  0  0  0  0  0
   44.8889   33.9120   45.8013 H   0  0  0  0  0  0  0  0  0  0  0  0
  1  8  1  0
  2  1  1  0
  3  2  2  0
  4  3  1  0
  5  6  1  0
  5  4  2  0
  6  7  2  0
  7  2  1  0
  8  9  1  0
  8 10  1  0
  9 10  1  0
 10 11  1  0
  3 12  1  0
  4 13  1  0
  6 14  1  0
  8 15  1  6
  9 16  1  0
  9 17  1  0
 10 18  1  6
 11 19  1  0
 11 20  1  0
M  ISO  8  12  14  13  14  14  14  15  13  16  13  17  13  18  13  19   5
M  ISO  1  20   5
M  END
>  <minimizedAffinity>  (1) 
-3.61676455

>  <minimizedRMSD>  (1) 
0.557316363

$$$$
