
     RDKit          3D

 21 22  0  0  1  0  0  0  0  0999 V2000
   46.1920   35.0550   43.0360 O   0  0  0  0  0  0  0  0  0  0  0  0
   46.7740   34.7590   41.8270 C   0  0  0  0  0  0  0  0  0  0  0  0
   48.0290   35.3810   41.6610 C   0  0  0  0  0  0  0  0  0  0  0  0
   48.7040   35.1390   40.4440 C   0  0  0  0  0  0  0  0  0  0  0  0
   48.1330   34.3420   39.5190 N   0  0  0  0  0  0  0  0  0  0  0  0
   46.9300   33.7780   39.7460 C   0  0  0  0  0  0  0  0  0  0  0  0
   46.2480   33.9800   40.8870 N   0  0  0  0  0  0  0  0  0  0  0  0
   44.9230   35.7030   43.1260 C   0  0  2  0  0  0  0  0  0  0  0  0
   44.9720   36.9680   43.9470 C   0  0  0  0  0  0  0  0  0  0  0  0
   44.2950   35.7430   44.4650 C   0  0  2  0  0  0  0  0  0  0  0  0
   44.8470   34.9430   45.6040 C   0  0  0  0  0  0  0  0  0  0  0  0
   48.4614   36.0238   42.4419 H   0  0  0  0  0  0  0  0  0  0  0  0
   49.6860   35.5965   40.2530 H   0  0  0  0  0  0  0  0  0  0  0  0
   46.4916   33.1309   38.9720 H   0  0  0  0  0  0  0  0  0  0  0  0
   44.5655   35.4069   42.1287 H   0  0  0  0  0  0  0  0  0  0  0  0
   45.9217   37.3033   44.3892 H   0  0  0  0  0  0  0  0  0  0  0  0
   44.6799   38.0166   43.7883 H   0  0  0  0  0  0  0  0  0  0  0  0
   43.2903   35.5339   44.8610 H   0  0  0  0  0  0  0  0  0  0  0  0
   44.5341   35.3964   46.5561 H   0  0  0  0  0  0  0  0  0  0  0  0
   44.4669   33.9124   45.5463 H   0  0  0  0  0  0  0  0  0  0  0  0
   45.9454   34.9325   45.5463 H   0  0  0  0  0  0  0  0  0  0  0  0
  1  8  1  0
  2  1  1  0
  3  2  2  0
  4  3  1  0
  5  6  1  0
  5  4  2  0
  6  7  2  0
  7  2  1  0
  8  9  1  0
  8 10  1  0
  9 10  1  0
 10 11  1  0
  3 12  1  0
  4 13  1  0
  6 14  1  0
  8 15  1  6
  9 16  1  0
  9 17  1  0
 10 18  1  6
 11 19  1  0
 11 20  1  0
 11 21  1  0
M  ISO  8  12  14  13  14  14  14  15  13  16  13  17  13  18  13  19   8
M  ISO  2  20   8  21   8
M  END
>  <minimizedAffinity>  (1) 
-3.49259639

>  <minimizedRMSD>  (1) 
0.773463786

$$$$
