
     RDKit          3D

 28 30  0  0  1  0  0  0  0  0999 V2000
   45.1160   34.6930   41.2780 C   0  0  2  0  0  0  0  0  0  0  0  0
   46.5600   34.3720   41.4910 C   0  0  0  0  0  0  0  0  0  0  0  0
   45.8860   35.2950   42.4100 C   0  0  2  0  0  0  0  0  0  0  0  0
   45.5460   34.9880   43.7660 N   0  0  0  0  0  0  0  0  0  0  0  0
   45.9760   33.9800   44.5080 N   0  0  0  0  0  0  0  0  0  0  0  0
   45.4200   34.0430   45.7270 C   0  0  0  0  0  0  0  0  0  0  0  0
   44.5940   35.1760   45.7180 C   0  0  0  0  0  0  0  0  0  0  0  0
   44.6800   35.7720   44.4640 C   0  0  0  0  0  0  0  0  0  0  0  0
   44.2360   33.6290   41.6730 O   0  0  0  0  0  0  0  0  0  0  0  0
   42.9150   33.6390   41.3600 C   0  0  0  0  0  0  0  0  0  0  0  0
   42.2940   32.3900   41.6200 C   0  0  0  0  0  0  0  0  0  0  0  0
   40.9310   32.2540   41.3460 C   0  0  0  0  0  0  0  0  0  0  0  0
   40.2670   33.3210   40.8430 N   0  0  0  0  0  0  0  0  0  0  0  0
   40.8960   34.4810   40.6120 C   0  0  0  0  0  0  0  0  0  0  0  0
   42.1790   34.6220   40.8670 N   0  0  0  0  0  0  0  0  0  0  0  0
   40.1390   35.6370   40.0580 C   0  0  0  0  0  0  0  0  0  0  0  0
   40.7520   36.1570   38.9350 F   0  0  0  0  0  0  0  0  0  0  0  0
   38.8610   35.2040   39.8220 F   0  0  0  0  0  0  0  0  0  0  0  0
   40.0920   36.6600   40.9820 F   0  0  0  0  0  0  0  0  0  0  0  0
   44.5044   35.0826   40.4508 H   0  0  0  0  0  0  0  0  0  0  0  0
   46.8535   33.3702   41.8377 H   0  0  0  0  0  0  0  0  0  0  0  0
   47.4645   34.4240   40.8672 H   0  0  0  0  0  0  0  0  0  0  0  0
   46.1241   36.3086   42.7647 H   0  0  0  0  0  0  0  0  0  0  0  0
   45.5796   33.3471   46.5638 H   0  0  0  0  0  0  0  0  0  0  0  0
   43.9820   35.5329   46.5595 H   0  0  0  0  0  0  0  0  0  0  0  0
   44.1623   36.6772   44.1139 H   0  0  0  0  0  0  0  0  0  0  0  0
   42.8726   31.5481   42.0280 H   0  0  0  0  0  0  0  0  0  0  0  0
   40.4103   31.3035   41.5343 H   0  0  0  0  0  0  0  0  0  0  0  0
  1  2  1  0
  1  9  1  0
  1  3  1  0
  2  3  1  0
  3  4  1  0
  4  8  1  0
  4  5  1  0
  5  6  2  0
  7  6  1  0
  8  7  2  0
 10 11  2  0
 10  9  1  0
 12 11  1  0
 13 12  2  0
 14 13  1  0
 14 15  2  0
 15 10  1  0
 16 14  1  0
 16 19  1  0
 17 16  1  0
 18 16  1  0
  1 20  1  6
  2 21  1  0
  2 22  1  0
  3 23  1  1
  6 24  1  0
  7 25  1  0
  8 26  1  0
 11 27  1  0
 12 28  1  0
M  ISO  8  20  13  21  13  22  13  23  13  24  14  25  14  26  14  27  14
M  ISO  1  28  14
M  END
>  <minimizedAffinity>  (1) 
-5.49480915

>  <minimizedRMSD>  (1) 
6.06688547

$$$$
