
     RDKit          3D

 30 33  0  0  1  0  0  0  0  0999 V2000
   48.4770   34.5590   42.5190 C   0  0  2  0  0  0  0  0  0  0  0  0
   48.8660   35.6580   41.5850 C   0  0  0  0  0  0  0  0  0  0  0  0
   49.1080   34.2650   41.1950 C   0  0  2  0  0  0  0  0  0  0  0  0
   48.3880   33.5540   40.1820 N   0  0  0  0  0  0  0  0  0  0  0  0
   47.5950   34.0640   39.2550 N   0  0  0  0  0  0  0  0  0  0  0  0
   47.1010   33.0790   38.4890 C   0  0  0  0  0  0  0  0  0  0  0  0
   47.6390   31.8860   38.9940 C   0  0  0  0  0  0  0  0  0  0  0  0
   48.4690   32.1970   40.0860 C   0  0  0  0  0  0  0  0  0  0  0  0
   47.0610   34.3120   42.5530 O   0  0  0  0  0  0  0  0  0  0  0  0
   46.3490   34.3810   43.7060 C   0  0  0  0  0  0  0  0  0  0  0  0
   45.3720   35.4100   43.6610 C   0  0  0  0  0  0  0  0  0  0  0  0
   44.5550   35.6060   44.7800 C   0  0  0  0  0  0  0  0  0  0  0  0
   44.7400   34.7970   45.8550 N   0  0  0  0  0  0  0  0  0  0  0  0
   45.6790   33.8410   45.8410 C   0  0  0  0  0  0  0  0  0  0  0  0
   46.4530   33.6450   44.7970 N   0  0  0  0  0  0  0  0  0  0  0  0
   45.8410   32.9950   47.0210 C   0  0  0  0  0  0  0  0  0  0  0  0
   47.0650   32.5320   47.3450 N   0  0  0  0  0  0  0  0  0  0  0  0
   46.9700   31.7970   48.4380 O   0  0  0  0  0  0  0  0  0  0  0  0
   45.7100   31.7630   48.8440 C   0  0  0  0  0  0  0  0  0  0  0  0
   44.9810   32.5130   47.9650 N   0  0  0  0  0  0  0  0  0  0  0  0
   48.6902   34.3001   43.5666 H   0  0  0  0  0  0  0  0  0  0  0  0
   48.0880   36.2432   41.0730 H   0  0  0  0  0  0  0  0  0  0  0  0
   49.4926   36.5583   41.6678 H   0  0  0  0  0  0  0  0  0  0  0  0
   49.9999   33.7332   40.8320 H   0  0  0  0  0  0  0  0  0  0  0  0
   46.4132   33.1856   37.6372 H   0  0  0  0  0  0  0  0  0  0  0  0
   47.4444   30.8769   38.6019 H   0  0  0  0  0  0  0  0  0  0  0  0
   49.0485   31.5060   40.7158 H   0  0  0  0  0  0  0  0  0  0  0  0
   45.2597   36.0395   42.7660 H   0  0  0  0  0  0  0  0  0  0  0  0
   43.7856   36.3921   44.7887 H   0  0  0  0  0  0  0  0  0  0  0  0
   45.3225   31.2302   49.7249 H   0  0  0  0  0  0  0  0  0  0  0  0
  1  9  1  0
  2  1  1  0
  3  2  1  0
  3  1  1  0
  4  3  1  0
  5  4  1  0
  6  7  1  0
  6  5  2  0
  7  8  2  0
  8  4  1  0
  9 10  1  0
 10 15  1  0
 11 10  2  0
 11 12  1  0
 12 13  2  0
 14 13  1  0
 14 16  1  0
 15 14  2  0
 16 17  2  0
 16 20  1  0
 17 18  1  0
 18 19  1  0
 20 19  2  0
  1 21  1  1
  2 22  1  0
  2 23  1  0
  3 24  1  1
  6 25  1  0
  7 26  1  0
  8 27  1  0
 11 28  1  0
 12 29  1  0
 19 30  1  0
M  ISO  8  21  13  22  13  23  13  24  13  25  14  26  14  27  14  28  14
M  ISO  2  29  14  30  14
M  END
>  <minimizedAffinity>  (1) 
-5.30528212

>  <minimizedRMSD>  (1) 
3.65179753

$$$$
