
     RDKit          3D

 27 29  0  0  1  0  0  0  0  0999 V2000
   47.0890   31.3210   44.1050 C   0  0  2  0  0  0  0  0  0  0  0  0
   48.1310   30.3370   44.5250 C   0  0  0  0  0  0  0  0  0  0  0  0
   47.9330   30.6070   43.0960 C   0  0  2  0  0  0  0  0  0  0  0  0
   48.8420   31.3340   42.2630 N   0  0  0  0  0  0  0  0  0  0  0  0
   50.1060   31.6380   42.5180 N   0  0  0  0  0  0  0  0  0  0  0  0
   50.6170   32.3350   41.4900 C   0  0  0  0  0  0  0  0  0  0  0  0
   49.5860   32.4570   40.5490 C   0  0  0  0  0  0  0  0  0  0  0  0
   48.4520   31.8150   41.0490 C   0  0  0  0  0  0  0  0  0  0  0  0
   47.4550   32.6830   44.3080 O   0  0  0  0  0  0  0  0  0  0  0  0
   46.5290   33.6700   44.4220 C   0  0  0  0  0  0  0  0  0  0  0  0
   46.4310   34.4480   43.2450 C   0  0  0  0  0  0  0  0  0  0  0  0
   45.5170   35.5060   43.2090 C   0  0  0  0  0  0  0  0  0  0  0  0
   44.7660   35.7290   44.3190 N   0  0  0  0  0  0  0  0  0  0  0  0
   44.8930   34.9650   45.4140 C   0  0  0  0  0  0  0  0  0  0  0  0
   45.7530   33.9710   45.4480 N   0  0  0  0  0  0  0  0  0  0  0  0
   44.1290   35.1560   46.6110 N   0  0  0  0  0  0  0  0  0  0  0  0
   46.0110   31.4488   44.2828 H   0  0  0  0  0  0  0  0  0  0  0  0
   49.0447   30.6873   45.0274 H   0  0  0  0  0  0  0  0  0  0  0  0
   48.1325   29.4305   45.1480 H   0  0  0  0  0  0  0  0  0  0  0  0
   47.7650   29.9539   42.2270 H   0  0  0  0  0  0  0  0  0  0  0  0
   51.6397   32.7307   41.4040 H   0  0  0  0  0  0  0  0  0  0  0  0
   49.6582   32.9719   39.5796 H   0  0  0  0  0  0  0  0  0  0  0  0
   47.4660   31.7189   40.5710 H   0  0  0  0  0  0  0  0  0  0  0  0
   47.0629   34.2248   42.3727 H   0  0  0  0  0  0  0  0  0  0  0  0
   45.4099   36.1355   42.3133 H   0  0  0  0  0  0  0  0  0  0  0  0
   44.2738   34.5341   47.4191 H   0  0  0  0  0  0  0  0  0  0  0  0
   43.4350   35.9153   46.6633 H   0  0  0  0  0  0  0  0  0  0  0  0
  1  9  1  0
  1  2  1  0
  3  1  1  0
  3  2  1  0
  4  5  1  0
  4  3  1  0
  6  5  2  0
  7  8  2  0
  7  6  1  0
  8  4  1  0
  9 10  1  0
 10 15  1  0
 11 10  2  0
 12 11  1  0
 12 13  2  0
 13 14  1  0
 14 15  2  0
 14 16  1  0
  1 17  1  6
  2 18  1  0
  2 19  1  0
  3 20  1  6
  6 21  1  0
  7 22  1  0
  8 23  1  0
 11 24  1  0
 12 25  1  0
 16 26  1  0
 16 27  1  0
M  ISO  8  17  13  18  13  19  13  20  13  21  14  22  14  23  14  24  14
M  ISO  1  25  14
M  END
>  <minimizedAffinity>  (1) 
-4.25039196

>  <minimizedRMSD>  (1) 
0.490390509

$$$$
