
     RDKit          3D

 32 34  0  0  1  0  0  0  0  0999 V2000
   48.4260   31.2100   43.6360 O   0  0  0  0  0  0  0  0  0  0  0  0
   47.1800   31.7050   43.4120 C   0  0  0  0  0  0  0  0  0  0  0  0
   46.5190   31.0090   42.3660 C   0  0  0  0  0  0  0  0  0  0  0  0
   45.2270   31.3960   42.0120 C   0  0  0  0  0  0  0  0  0  0  0  0
   44.6640   32.4290   42.6940 N   0  0  0  0  0  0  0  0  0  0  0  0
   45.3270   33.0580   43.6760 C   0  0  0  0  0  0  0  0  0  0  0  0
   46.5440   32.6970   44.0110 N   0  0  0  0  0  0  0  0  0  0  0  0
   44.7190   34.1410   44.3820 N   0  0  0  0  0  0  0  0  0  0  0  0
   45.0250   34.4360   45.7400 C   0  0  0  0  0  0  0  0  0  0  0  0
   45.9190   33.6650   46.2610 N   0  0  0  0  0  0  0  0  0  0  0  0
   44.4080   35.4800   46.4620 N   0  0  0  0  0  0  0  0  0  0  0  0
   46.2820   33.7060   47.2210 H   0  0  0  0  0  0  0  0  0  0  0  0
   48.6840   29.8020   43.6620 C   0  0  2  0  0  0  0  0  0  0  0  0
   50.0230   29.4510   44.2300 C   0  0  0  0  0  0  0  0  0  0  0  0
   49.8180   29.3790   42.7790 C   0  0  2  0  0  0  0  0  0  0  0  0
   50.3810   30.2850   41.8260 N   0  0  0  0  0  0  0  0  0  0  0  0
   51.4040   31.1100   42.0000 N   0  0  0  0  0  0  0  0  0  0  0  0
   51.6220   31.7950   40.8650 C   0  0  0  0  0  0  0  0  0  0  0  0
   50.6640   31.3520   39.9450 C   0  0  0  0  0  0  0  0  0  0  0  0
   49.8660   30.3790   40.5680 C   0  0  0  0  0  0  0  0  0  0  0  0
   47.0174   30.1789   41.8439 H   0  0  0  0  0  0  0  0  0  0  0  0
   44.6809   30.8823   41.2071 H   0  0  0  0  0  0  0  0  0  0  0  0
   44.0331   34.7307   43.8893 H   0  0  0  0  0  0  0  0  0  0  0  0
   44.6673   35.6502   47.4442 H   0  0  0  0  0  0  0  0  0  0  0  0
   43.6984   36.0717   46.0067 H   0  0  0  0  0  0  0  0  0  0  0  0
   47.6467   29.4731   43.8227 H   0  0  0  0  0  0  0  0  0  0  0  0
   50.6618   30.2394   44.6547 H   0  0  0  0  0  0  0  0  0  0  0  0
   50.3773   28.7466   44.9970 H   0  0  0  0  0  0  0  0  0  0  0  0
   50.0007   28.5908   42.0338 H   0  0  0  0  0  0  0  0  0  0  0  0
   52.3994   32.5539   40.6926 H   0  0  0  0  0  0  0  0  0  0  0  0
   50.5550   31.7063   38.9093 H   0  0  0  0  0  0  0  0  0  0  0  0
   49.0203   29.8213   40.1394 H   0  0  0  0  0  0  0  0  0  0  0  0
  1 13  1  0
  2  1  1  0
  2  7  1  0
  3  2  2  0
  4  3  1  0
  4  5  2  0
  5  6  1  0
  6  7  2  0
  6  8  1  0
  8  9  1  0
  9 10  2  0
  9 11  1  0
 10 12  1  0
 13 14  1  0
 15 13  1  0
 15 14  1  0
 16 17  1  0
 16 15  1  0
 18 17  2  0
 19 20  2  0
 19 18  1  0
 20 16  1  0
  3 21  1  0
  4 22  1  0
  8 23  1  0
 11 24  1  0
 11 25  1  0
 13 26  1  1
 14 27  1  0
 14 28  1  0
 15 29  1  6
 18 30  1  0
 19 31  1  0
 20 32  1  0
M  ISO  8  21  14  22  14  26  13  27  13  28  13  29  13  30  14  31  14
M  ISO  1  32  14
M  END
>  <minimizedAffinity>  (1) 
-4.10355425

>  <minimizedRMSD>  (1) 
2.84416246

$$$$
