
     RDKit          3D

 33 35  0  0  1  0  0  0  0  0999 V2000
   47.7050   35.0000   41.1090 C   0  0  2  0  0  0  0  0  0  0  0  0
   48.9380   35.7110   41.4460 C   0  0  0  0  0  0  0  0  0  0  0  0
   49.6610   34.8900   42.5120 C   0  0  0  0  0  0  0  0  0  0  0  0
   48.8720   33.6280   42.7100 C   0  0  0  0  0  0  0  0  0  0  0  0
   47.5130   33.9650   42.2510 C   0  0  1  0  0  0  0  0  0  0  0  0
   47.6980   34.2080   39.8660 C   0  0  0  0  0  0  0  0  0  0  0  0
   48.4690   34.6370   38.7730 C   0  0  0  0  0  0  0  0  0  0  0  0
   48.4860   33.8790   37.6020 C   0  0  0  0  0  0  0  0  0  0  0  0
   47.7290   32.7380   37.5990 N   0  0  0  0  0  0  0  0  0  0  0  0
   46.9940   32.3490   38.6730 C   0  0  0  0  0  0  0  0  0  0  0  0
   46.9800   33.0810   39.7960 N   0  0  0  0  0  0  0  0  0  0  0  0
   46.5490   34.4140   43.2510 C   0  0  0  0  0  0  0  0  0  0  0  0
   46.3230   33.8200   44.4760 C   0  0  0  0  0  0  0  0  0  0  0  0
   45.4160   34.2360   45.4280 C   0  0  0  0  0  0  0  0  0  0  0  0
   44.6510   35.3340   45.1680 C   0  0  0  0  0  0  0  0  0  0  0  0
   44.7920   36.0050   43.9780 C   0  0  0  0  0  0  0  0  0  0  0  0
   45.7190   35.5310   43.0730 C   0  0  0  0  0  0  0  0  0  0  0  0
   46.9344   35.7738   40.9771 H   0  0  0  0  0  0  0  0  0  0  0  0
   49.5720   35.8088   40.5524 H   0  0  0  0  0  0  0  0  0  0  0  0
   48.7145   36.7215   41.8188 H   0  0  0  0  0  0  0  0  0  0  0  0
   50.6800   34.6487   42.1753 H   0  0  0  0  0  0  0  0  0  0  0  0
   49.7392   35.4538   43.4533 H   0  0  0  0  0  0  0  0  0  0  0  0
   49.2929   32.8083   42.1092 H   0  0  0  0  0  0  0  0  0  0  0  0
   48.8870   33.2857   43.7553 H   0  0  0  0  0  0  0  0  0  0  0  0
   47.0304   33.0322   41.9240 H   0  0  0  0  0  0  0  0  0  0  0  0
   49.0558   35.5650   38.8400 H   0  0  0  0  0  0  0  0  0  0  0  0
   49.0775   34.1825   36.7256 H   0  0  0  0  0  0  0  0  0  0  0  0
   46.4034   31.4225   38.6207 H   0  0  0  0  0  0  0  0  0  0  0  0
   46.9234   32.9301   44.7159 H   0  0  0  0  0  0  0  0  0  0  0  0
   45.3119   33.6924   46.3786 H   0  0  0  0  0  0  0  0  0  0  0  0
   43.9199   35.6830   45.9122 H   0  0  0  0  0  0  0  0  0  0  0  0
   44.1840   36.8937   43.7533 H   0  0  0  0  0  0  0  0  0  0  0  0
   45.8164   36.0794   42.1244 H   0  0  0  0  0  0  0  0  0  0  0  0
  1  2  1  0
  1  5  1  0
  2  3  1  0
  3  4  1  0
  5  4  1  0
  5 12  1  0
  6  1  1  0
  7  6  2  0
  8  7  1  0
  9  8  2  0
  9 10  1  0
 10 11  2  0
 11  6  1  0
 12 13  2  0
 13 14  1  0
 15 14  2  0
 16 15  1  0
 17 12  1  0
 17 16  2  0
  1 18  1  6
  2 19  1  0
  2 20  1  0
  3 21  1  0
  3 22  1  0
  4 23  1  0
  4 24  1  0
  5 25  1  6
  7 26  1  0
  8 27  1  0
 10 28  1  0
 13 29  1  0
 14 30  1  0
 15 31  1  0
 16 32  1  0
 17 33  1  0
M  ISO  8  18  13  19  13  20  13  21  13  22  13  23  13  24  13  25  13
M  ISO  8  26  14  27  14  28  14  29  14  30  14  31  14  32  14  33  14
M  END
>  <minimizedAffinity>  (1) 
-5.9276433

>  <minimizedRMSD>  (1) 
3.58787036

$$$$
