
     RDKit          3D

 26 28  0  0  1  0  0  0  0  0999 V2000
   47.7610   30.9350   43.6240 C   0  0  2  0  0  0  0  0  0  0  0  0
   48.7010   29.8910   44.1280 C   0  0  0  0  0  0  0  0  0  0  0  0
   48.5860   30.1160   42.6810 C   0  0  2  0  0  0  0  0  0  0  0  0
   49.5890   30.7330   41.8670 N   0  0  0  0  0  0  0  0  0  0  0  0
   50.8180   31.0800   42.2260 N   0  0  0  0  0  0  0  0  0  0  0  0
   51.4510   31.6320   41.1780 C   0  0  0  0  0  0  0  0  0  0  0  0
   50.5420   31.6160   40.1140 C   0  0  0  0  0  0  0  0  0  0  0  0
   49.3450   31.0370   40.5630 C   0  0  0  0  0  0  0  0  0  0  0  0
   48.2370   32.2770   43.8030 O   0  0  0  0  0  0  0  0  0  0  0  0
   47.4620   33.3510   43.4950 C   0  0  0  0  0  0  0  0  0  0  0  0
   47.8020   33.9020   42.2360 C   0  0  0  0  0  0  0  0  0  0  0  0
   47.0980   35.0140   41.7700 C   0  0  0  0  0  0  0  0  0  0  0  0
   46.1100   35.5140   42.5610 N   0  0  0  0  0  0  0  0  0  0  0  0
   45.8290   34.9530   43.7470 C   0  0  0  0  0  0  0  0  0  0  0  0
   46.4850   33.9070   44.1950 N   0  0  0  0  0  0  0  0  0  0  0  0
   44.5230   35.5990   44.8160 S   0  0  0  0  0  0  0  0  0  0  0  0
   46.6899   31.1556   43.7427 H   0  0  0  0  0  0  0  0  0  0  0  0
   49.6179   30.1889   44.6577 H   0  0  0  0  0  0  0  0  0  0  0  0
   48.6031   29.0140   44.7847 H   0  0  0  0  0  0  0  0  0  0  0  0
   48.4007   29.4447   41.8295 H   0  0  0  0  0  0  0  0  0  0  0  0
   52.4802   32.0199   41.1596 H   0  0  0  0  0  0  0  0  0  0  0  0
   50.7332   31.9931   39.0985 H   0  0  0  0  0  0  0  0  0  0  0  0
   48.4206   30.8676   39.9914 H   0  0  0  0  0  0  0  0  0  0  0  0
   48.6094   33.4603   41.6335 H   0  0  0  0  0  0  0  0  0  0  0  0
   47.3338   35.4701   40.7972 H   0  0  0  0  0  0  0  0  0  0  0  0
   44.8778   35.4235   46.1276 H   0  0  0  0  0  0  0  0  0  0  0  0
  1  9  1  0
  1  2  1  0
  3  1  1  0
  3  2  1  0
  4  5  1  0
  4  3  1  0
  6  5  2  0
  7  8  2  0
  7  6  1  0
  8  4  1  0
 10  9  1  0
 10 15  1  0
 11 10  2  0
 12 11  1  0
 12 13  2  0
 13 14  1  0
 14 15  2  0
 14 16  1  0
  1 17  1  6
  2 18  1  0
  2 19  1  0
  3 20  1  6
  6 21  1  0
  7 22  1  0
  8 23  1  0
 11 24  1  0
 12 25  1  0
 16 26  1  0
M  ISO  8  17  13  18  13  19  13  20  13  21  14  22  14  23  14  24  14
M  ISO  2  25  14  26  11
M  END
>  <minimizedAffinity>  (1) 
-3.05842781

>  <minimizedRMSD>  (1) 
1.83414638

$$$$
