
     RDKit          3D

 26 28  0  0  1  0  0  0  0  0999 V2000
   46.8840   31.4910   44.0930 C   0  0  2  0  0  0  0  0  0  0  0  0
   47.9210   30.5280   44.5650 C   0  0  0  0  0  0  0  0  0  0  0  0
   47.7370   30.7340   43.1240 C   0  0  2  0  0  0  0  0  0  0  0  0
   48.6590   31.4190   42.2690 N   0  0  0  0  0  0  0  0  0  0  0  0
   49.9280   31.7140   42.5180 N   0  0  0  0  0  0  0  0  0  0  0  0
   50.4460   32.3630   41.4640 C   0  0  0  0  0  0  0  0  0  0  0  0
   49.4220   32.4680   40.5150 C   0  0  0  0  0  0  0  0  0  0  0  0
   48.2680   31.8570   41.0390 C   0  0  0  0  0  0  0  0  0  0  0  0
   47.2590   32.8660   44.2460 O   0  0  0  0  0  0  0  0  0  0  0  0
   46.3290   33.8360   44.4630 C   0  0  0  0  0  0  0  0  0  0  0  0
   46.1360   34.6420   43.3140 C   0  0  0  0  0  0  0  0  0  0  0  0
   45.2060   35.6870   43.3740 C   0  0  0  0  0  0  0  0  0  0  0  0
   44.5340   35.8750   44.5350 N   0  0  0  0  0  0  0  0  0  0  0  0
   44.7590   35.0800   45.5920 C   0  0  0  0  0  0  0  0  0  0  0  0
   45.6270   34.0970   45.5520 N   0  0  0  0  0  0  0  0  0  0  0  0
   44.0800   35.2460   46.8140 O   0  0  0  0  0  0  0  0  0  0  0  0
   45.8040   31.6269   44.2517 H   0  0  0  0  0  0  0  0  0  0  0  0
   48.8299   30.9006   45.0601 H   0  0  0  0  0  0  0  0  0  0  0  0
   47.9165   29.6499   45.2275 H   0  0  0  0  0  0  0  0  0  0  0  0
   47.5744   30.0456   42.2816 H   0  0  0  0  0  0  0  0  0  0  0  0
   51.4749   32.7393   41.3648 H   0  0  0  0  0  0  0  0  0  0  0  0
   49.5054   32.9466   39.5281 H   0  0  0  0  0  0  0  0  0  0  0  0
   47.2800   31.7562   40.5660 H   0  0  0  0  0  0  0  0  0  0  0  0
   46.7057   34.4506   42.3927 H   0  0  0  0  0  0  0  0  0  0  0  0
   45.0264   36.3360   42.5042 H   0  0  0  0  0  0  0  0  0  0  0  0
   44.2718   34.6402   47.5731 H   0  0  0  0  0  0  0  0  0  0  0  0
  1  9  1  0
  1  2  1  0
  3  1  1  0
  3  2  1  0
  4  5  1  0
  4  3  1  0
  6  5  2  0
  7  8  2  0
  7  6  1  0
  8  4  1  0
  9 10  1  0
 10 15  2  0
 11 12  2  0
 11 10  1  0
 12 13  1  0
 13 14  2  0
 14 16  1  0
 15 14  1  0
  1 17  1  6
  2 18  1  0
  2 19  1  0
  3 20  1  6
  6 21  1  0
  7 22  1  0
  8 23  1  0
 11 24  1  0
 12 25  1  0
 16 26  1  0
M  ISO  8  17  13  18  13  19  13  20  13  21  14  22  14  23  14  24  14
M  ISO  2  25  14  26   3
M  END
>  <minimizedAffinity>  (1) 
-4.38721418

>  <minimizedRMSD>  (1) 
0.350662678

$$$$
