
     RDKit          3D

 29 31  0  0  1  0  0  0  0  0999 V2000
   46.8450   32.8510   39.4330 C   0  0  2  0  0  0  0  0  0  0  0  0
   47.9610   31.8830   39.5200 C   0  0  0  0  0  0  0  0  0  0  0  0
   48.2700   33.3090   39.5130 C   0  0  2  0  0  0  0  0  0  0  0  0
   48.7350   34.0790   40.6200 N   0  0  0  0  0  0  0  0  0  0  0  0
   49.2710   33.6280   41.7340 N   0  0  0  0  0  0  0  0  0  0  0  0
   49.5820   34.6590   42.5360 C   0  0  0  0  0  0  0  0  0  0  0  0
   49.2010   35.8210   41.8450 C   0  0  0  0  0  0  0  0  0  0  0  0
   48.6550   35.4490   40.6080 C   0  0  0  0  0  0  0  0  0  0  0  0
   46.1190   33.0430   40.6650 O   0  0  0  0  0  0  0  0  0  0  0  0
   44.9960   33.8010   40.6910 C   0  0  0  0  0  0  0  0  0  0  0  0
   45.0530   34.7700   41.7330 C   0  0  0  0  0  0  0  0  0  0  0  0
   43.9700   35.6420   41.9040 C   0  0  0  0  0  0  0  0  0  0  0  0
   42.9200   35.5180   41.0670 N   0  0  0  0  0  0  0  0  0  0  0  0
   42.9090   34.5830   40.0920 C   0  0  0  0  0  0  0  0  0  0  0  0
   43.9210   33.7780   39.9420 N   0  0  0  0  0  0  0  0  0  0  0  0
   41.8300   34.4440   39.2200 O   0  0  0  0  0  0  0  0  0  0  0  0
   41.3580   35.5150   38.4270 C   0  0  0  0  0  0  0  0  0  0  0  0
   42.4300   36.0920   37.7650 F   0  0  0  0  0  0  0  0  0  0  0  0
   40.5560   34.9120   37.4480 F   0  0  0  0  0  0  0  0  0  0  0  0
   40.6220   36.3850   39.1630 F   0  0  0  0  0  0  0  0  0  0  0  0
   45.9959   33.0033   38.7504 H   0  0  0  0  0  0  0  0  0  0  0  0
   48.1056   31.2972   40.4397 H   0  0  0  0  0  0  0  0  0  0  0  0
   48.2828   31.0225   38.9150 H   0  0  0  0  0  0  0  0  0  0  0  0
   48.9594   33.9214   38.9133 H   0  0  0  0  0  0  0  0  0  0  0  0
   50.0425   34.6046   43.5335 H   0  0  0  0  0  0  0  0  0  0  0  0
   49.3124   36.8516   42.2130 H   0  0  0  0  0  0  0  0  0  0  0  0
   48.2571   36.1006   39.8161 H   0  0  0  0  0  0  0  0  0  0  0  0
   45.9317   34.8327   42.3918 H   0  0  0  0  0  0  0  0  0  0  0  0
   43.9759   36.4045   42.6968 H   0  0  0  0  0  0  0  0  0  0  0  0
  1  3  1  0
  1  2  1  0
  1  9  1  0
  3  2  1  0
  3  4  1  0
  4  5  1  0
  5  6  2  0
  7  6  1  0
  8  4  1  0
  8  7  2  0
  9 10  1  0
 10 11  2  0
 11 12  1  0
 13 12  2  0
 14 13  1  0
 15 14  2  0
 15 10  1  0
 16 14  1  0
 17 20  1  0
 17 16  1  0
 18 17  1  0
 19 17  1  0
  1 21  1  6
  2 22  1  0
  2 23  1  0
  3 24  1  6
  6 25  1  0
  7 26  1  0
  8 27  1  0
 11 28  1  0
 12 29  1  0
M  ISO  8  21  13  22  13  23  13  24  13  25  14  26  14  27  14  28  14
M  ISO  1  29  14
M  END
>  <minimizedAffinity>  (1) 
-4.85131788

>  <minimizedRMSD>  (1) 
6.16250467

$$$$
