
     RDKit          3D

 38 40  0  0  1  0  0  0  0  0999 V2000
   46.2830   31.7240   42.1500 C   0  0  2  0  0  0  0  0  0  0  0  0
   46.2700   31.9160   43.6170 C   0  0  0  0  0  0  0  0  0  0  0  0
   47.5540   31.6600   42.9560 C   0  0  2  0  0  0  0  0  0  0  0  0
   48.5980   32.6100   42.7610 N   0  0  0  0  0  0  0  0  0  0  0  0
   48.5810   33.8980   43.0710 N   0  0  0  0  0  0  0  0  0  0  0  0
   49.7550   34.4500   42.7290 C   0  0  0  0  0  0  0  0  0  0  0  0
   50.5370   33.4170   42.1710 C   0  0  0  0  0  0  0  0  0  0  0  0
   49.7840   32.2300   42.1950 C   0  0  0  0  0  0  0  0  0  0  0  0
   46.1680   32.9200   41.3740 O   0  0  0  0  0  0  0  0  0  0  0  0
   45.0650   33.7000   41.4350 C   0  0  0  0  0  0  0  0  0  0  0  0
   45.3560   34.9180   42.1170 C   0  0  0  0  0  0  0  0  0  0  0  0
   44.3230   35.8610   42.2800 C   0  0  0  0  0  0  0  0  0  0  0  0
   43.1060   35.5570   41.7770 N   0  0  0  0  0  0  0  0  0  0  0  0
   42.8990   34.3870   41.1430 C   0  0  0  0  0  0  0  0  0  0  0  0
   43.8430   33.5050   40.9840 N   0  0  0  0  0  0  0  0  0  0  0  0
   41.6420   34.0600   40.6170 O   0  0  0  0  0  0  0  0  0  0  0  0
   40.9100   34.8720   39.7640 C   0  0  0  0  0  0  0  0  0  0  0  0
   40.3290   36.1020   40.4160 C   0  0  0  0  0  0  0  0  0  0  0  0
   39.7880   34.1480   39.0570 C   0  0  0  0  0  0  0  0  0  0  0  0
   41.8690   35.3430   38.6690 C   0  0  0  0  0  0  0  0  0  0  0  0
   45.7462   31.0670   41.4499 H   0  0  0  0  0  0  0  0  0  0  0  0
   46.0604   32.9115   44.0353 H   0  0  0  0  0  0  0  0  0  0  0  0
   45.7263   31.4452   44.4493 H   0  0  0  0  0  0  0  0  0  0  0  0
   48.3621   30.9361   43.1372 H   0  0  0  0  0  0  0  0  0  0  0  0
   50.0499   35.5018   42.8583 H   0  0  0  0  0  0  0  0  0  0  0  0
   51.5610   33.5222   41.7833 H   0  0  0  0  0  0  0  0  0  0  0  0
   50.0791   31.2309   41.8418 H   0  0  0  0  0  0  0  0  0  0  0  0
   46.3651   35.1166   42.5072 H   0  0  0  0  0  0  0  0  0  0  0  0
   44.5008   36.8140   42.7998 H   0  0  0  0  0  0  0  0  0  0  0  0
   40.3792   35.9957   41.5097 H   0  0  0  0  0  0  0  0  0  0  0  0
   40.9042   36.9872   40.1069 H   0  0  0  0  0  0  0  0  0  0  0  0
   39.2799   36.2200   40.1069 H   0  0  0  0  0  0  0  0  0  0  0  0
   39.1080   33.7092   39.8020 H   0  0  0  0  0  0  0  0  0  0  0  0
   39.2326   34.8585   38.4272 H   0  0  0  0  0  0  0  0  0  0  0  0
   40.2066   33.3492   38.4272 H   0  0  0  0  0  0  0  0  0  0  0  0
   42.7651   35.7831   39.1308 H   0  0  0  0  0  0  0  0  0  0  0  0
   42.1616   34.4861   38.0444 H   0  0  0  0  0  0  0  0  0  0  0  0
   41.3698   36.0984   38.0444 H   0  0  0  0  0  0  0  0  0  0  0  0
  1  3  1  0
  1  2  1  0
  3  2  1  0
  4  3  1  0
  4  5  1  0
  6  5  2  0
  7  8  2  0
  7  6  1  0
  8  4  1  0
  9 10  1  0
  9  1  1  0
 10 11  2  0
 11 12  1  0
 13 12  2  0
 14 13  1  0
 15 14  2  0
 15 10  1  0
 16 14  1  0
 17 18  1  0
 17 16  1  0
 19 17  1  0
 20 17  1  0
  1 21  1  1
  2 22  1  0
  2 23  1  0
  3 24  1  1
  6 25  1  0
  7 26  1  0
  8 27  1  0
 11 28  1  0
 12 29  1  0
 18 30  1  0
 18 31  1  0
 18 32  1  0
 19 33  1  0
 19 34  1  0
 19 35  1  0
 20 36  1  0
 20 37  1  0
 20 38  1  0
M  ISO  8  21  13  22  13  23  13  24  13  25  14  26  14  27  14  28  14
M  ISO  8  29  14  30   8  31   8  32   8  33   8  34   8  35   8  36   8
M  ISO  2  37   8  38   8
M  END
>  <minimizedAffinity>  (1) 
-4.41217709

>  <minimizedRMSD>  (1) 
5.19519758

$$$$
