
     RDKit          3D

 36 39  0  0  1  0  0  0  0  0999 V2000
   48.2650   31.5940   43.6720 C   0  0  0  0  0  0  0  0  0  0  0  0
   49.1410   30.9980   42.7470 C   0  0  0  0  0  0  0  0  0  0  0  0
   49.4970   31.7300   41.6150 C   0  0  0  0  0  0  0  0  0  0  0  0
   48.9810   32.9810   41.4620 N   0  0  0  0  0  0  0  0  0  0  0  0
   48.1450   33.4950   42.3850 C   0  0  0  0  0  0  0  0  0  0  0  0
   47.8190   32.8040   43.4380 N   0  0  0  0  0  0  0  0  0  0  0  0
   48.0000   30.7730   44.7290 O   0  0  0  0  0  0  0  0  0  0  0  0
   46.6740   30.4060   45.0910 C   0  0  2  0  0  0  0  0  0  0  0  0
   46.0070   31.3460   46.0250 C   0  0  0  0  0  0  0  0  0  0  0  0
   46.5140   30.0840   46.5480 C   0  0  2  0  0  0  0  0  0  0  0  0
   47.6560   29.9180   47.3950 N   0  0  0  0  0  0  0  0  0  0  0  0
   48.2510   30.8400   48.1240 N   0  0  0  0  0  0  0  0  0  0  0  0
   49.2840   30.3000   48.7780 C   0  0  0  0  0  0  0  0  0  0  0  0
   49.3190   28.9400   48.4190 C   0  0  0  0  0  0  0  0  0  0  0  0
   48.2620   28.7000   47.5240 C   0  0  0  0  0  0  0  0  0  0  0  0
   47.6170   34.7770   42.2250 O   0  0  0  0  0  0  0  0  0  0  0  0
   46.2460   34.9670   42.1550 C   0  0  0  0  0  0  0  0  0  0  0  0
   45.5240   34.4770   41.0850 C   0  0  0  0  0  0  0  0  0  0  0  0
   44.1620   34.6040   40.9050 C   0  0  0  0  0  0  0  0  0  0  0  0
   43.4760   35.2780   41.8810 C   0  0  0  0  0  0  0  0  0  0  0  0
   44.1360   35.7990   42.9870 C   0  0  0  0  0  0  0  0  0  0  0  0
   45.4970   35.6390   43.1070 C   0  0  0  0  0  0  0  0  0  0  0  0
   49.5338   29.9838   42.9119 H   0  0  0  0  0  0  0  0  0  0  0  0
   50.1790   31.3068   40.8628 H   0  0  0  0  0  0  0  0  0  0  0  0
   46.4078   29.9264   44.1375 H   0  0  0  0  0  0  0  0  0  0  0  0
   46.5032   32.2890   46.2978 H   0  0  0  0  0  0  0  0  0  0  0  0
   45.0290   31.8492   46.0427 H   0  0  0  0  0  0  0  0  0  0  0  0
   46.0559   29.2898   47.1557 H   0  0  0  0  0  0  0  0  0  0  0  0
   49.9720   30.8174   49.4628 H   0  0  0  0  0  0  0  0  0  0  0  0
   50.0458   28.1954   48.7760 H   0  0  0  0  0  0  0  0  0  0  0  0
   47.9865   27.7516   47.0397 H   0  0  0  0  0  0  0  0  0  0  0  0
   46.0843   33.9376   40.3071 H   0  0  0  0  0  0  0  0  0  0  0  0
   43.6533   34.1859   40.0238 H   0  0  0  0  0  0  0  0  0  0  0  0
   42.3878   35.4084   41.7876 H   0  0  0  0  0  0  0  0  0  0  0  0
   43.5726   36.3372   43.7635 H   0  0  0  0  0  0  0  0  0  0  0  0
   46.0068   36.0581   43.9870 H   0  0  0  0  0  0  0  0  0  0  0  0
  1  7  1  0
  2  1  2  0
  3  2  1  0
  4  3  2  0
  4  5  1  0
  5  6  2  0
  6  1  1  0
  7  8  1  0
  8  9  1  0
  8 10  1  0
  9 10  1  0
 10 11  1  0
 11 15  1  0
 11 12  1  0
 12 13  2  0
 14 13  1  0
 15 14  2  0
 16  5  1  0
 17 16  1  0
 17 22  1  0
 18 17  2  0
 19 18  1  0
 19 20  2  0
 20 21  1  0
 21 22  2  0
  2 23  1  0
  3 24  1  0
  8 25  1  6
  9 26  1  0
  9 27  1  0
 10 28  1  6
 13 29  1  0
 14 30  1  0
 15 31  1  0
 18 32  1  0
 19 33  1  0
 20 34  1  0
 21 35  1  0
 22 36  1  0
M  ISO  8  23  14  24  14  25  13  26  13  27  13  28  13  29  14  30  14
M  ISO  6  31  14  32  14  33  14  34  14  35  14  36  14
M  END
>  <minimizedAffinity>  (1) 
-4.14200163

>  <minimizedRMSD>  (1) 
5.94508076

$$$$
