
     RDKit          3D

 36 39  0  0  1  0  0  0  0  0999 V2000
   47.9460   32.3210   43.5450 C   0  0  0  0  0  0  0  0  0  0  0  0
   48.0590   30.9250   43.7400 C   0  0  0  0  0  0  0  0  0  0  0  0
   48.5900   30.1450   42.7170 C   0  0  0  0  0  0  0  0  0  0  0  0
   48.9750   30.7560   41.5730 N   0  0  0  0  0  0  0  0  0  0  0  0
   48.8450   32.0910   41.4390 C   0  0  0  0  0  0  0  0  0  0  0  0
   48.3480   32.8480   42.3910 N   0  0  0  0  0  0  0  0  0  0  0  0
   47.4120   32.9420   44.6300 O   0  0  0  0  0  0  0  0  0  0  0  0
   45.9990   32.8720   44.9060 C   0  0  2  0  0  0  0  0  0  0  0  0
   45.5320   33.8460   45.9210 C   0  0  0  0  0  0  0  0  0  0  0  0
   45.6730   32.4230   46.3010 C   0  0  2  0  0  0  0  0  0  0  0  0
   46.7020   31.9360   47.1620 N   0  0  0  0  0  0  0  0  0  0  0  0
   47.5030   32.6080   47.9660 N   0  0  0  0  0  0  0  0  0  0  0  0
   48.3310   31.7540   48.5980 C   0  0  0  0  0  0  0  0  0  0  0  0
   48.0130   30.4770   48.1500 C   0  0  0  0  0  0  0  0  0  0  0  0
   46.9690   30.5980   47.2300 C   0  0  0  0  0  0  0  0  0  0  0  0
   49.2410   32.7340   40.2610 O   0  0  0  0  0  0  0  0  0  0  0  0
   48.5440   32.6990   39.0920 C   0  0  0  0  0  0  0  0  0  0  0  0
   48.1110   31.5600   38.4260 C   0  0  0  0  0  0  0  0  0  0  0  0
   47.4050   31.6520   37.2380 C   0  0  0  0  0  0  0  0  0  0  0  0
   47.1360   32.9200   36.7190 C   0  0  0  0  0  0  0  0  0  0  0  0
   47.5590   34.0780   37.3680 C   0  0  0  0  0  0  0  0  0  0  0  0
   48.2640   33.9340   38.5570 C   0  0  0  0  0  0  0  0  0  0  0  0
   47.7329   30.4636   44.6838 H   0  0  0  0  0  0  0  0  0  0  0  0
   48.6943   29.0564   42.8359 H   0  0  0  0  0  0  0  0  0  0  0  0
   45.6801   32.5827   43.8938 H   0  0  0  0  0  0  0  0  0  0  0  0
   46.2312   34.5926   46.3257 H   0  0  0  0  0  0  0  0  0  0  0  0
   44.7147   34.5807   45.9679 H   0  0  0  0  0  0  0  0  0  0  0  0
   44.9997   31.6883   46.7666 H   0  0  0  0  0  0  0  0  0  0  0  0
   49.1099   32.0168   49.3289 H   0  0  0  0  0  0  0  0  0  0  0  0
   48.4965   29.5400   48.4636 H   0  0  0  0  0  0  0  0  0  0  0  0
   46.4686   29.7887   46.6781 H   0  0  0  0  0  0  0  0  0  0  0  0
   48.3323   30.5689   38.8487 H   0  0  0  0  0  0  0  0  0  0  0  0
   47.0638   30.7464   36.7151 H   0  0  0  0  0  0  0  0  0  0  0  0
   46.5770   33.0067   35.7756 H   0  0  0  0  0  0  0  0  0  0  0  0
   47.3421   35.0734   36.9530 H   0  0  0  0  0  0  0  0  0  0  0  0
   48.6082   34.8351   39.0858 H   0  0  0  0  0  0  0  0  0  0  0  0
  1  2  2  0
  1  7  1  0
  3  2  1  0
  4  3  2  0
  5  4  1  0
  5  6  2  0
  6  1  1  0
  7  8  1  0
  8  9  1  0
  8 10  1  0
  9 10  1  0
 10 11  1  0
 11 15  1  0
 11 12  1  0
 12 13  2  0
 14 13  1  0
 15 14  2  0
 16  5  1  0
 17 16  1  0
 18 17  2  0
 19 18  1  0
 20 19  2  0
 20 21  1  0
 21 22  2  0
 22 17  1  0
  2 23  1  0
  3 24  1  0
  8 25  1  6
  9 26  1  0
  9 27  1  0
 10 28  1  6
 13 29  1  0
 14 30  1  0
 15 31  1  0
 18 32  1  0
 19 33  1  0
 20 34  1  0
 21 35  1  0
 22 36  1  0
M  ISO  8  23  14  24  14  25  13  26  13  27  13  28  13  29  14  30  14
M  ISO  6  31  14  32  14  33  14  34  14  35  14  36  14
M  END
>  <minimizedAffinity>  (1) 
-3.92708969

>  <minimizedRMSD>  (1) 
7.90437794

$$$$
