
     RDKit          3D

 45 48  0  0  1  0  0  0  0  0999 V2000
   46.3020   34.3240   43.6440 C   0  0  0  0  0  0  0  0  0  0  0  0
   45.6370   35.4840   43.2210 C   0  0  0  0  0  0  0  0  0  0  0  0
   44.7070   36.0880   44.0850 C   0  0  0  0  0  0  0  0  0  0  0  0
   44.5010   35.5170   45.2870 N   0  0  0  0  0  0  0  0  0  0  0  0
   45.1650   34.3990   45.6550 C   0  0  0  0  0  0  0  0  0  0  0  0
   46.0240   33.8480   44.8450 N   0  0  0  0  0  0  0  0  0  0  0  0
   47.1710   33.8490   42.7130 O   0  0  0  0  0  0  0  0  0  0  0  0
   48.5710   33.7190   42.9870 C   0  0  2  0  0  0  0  0  0  0  0  0
   49.3530   34.9240   42.5940 C   0  0  0  0  0  0  0  0  0  0  0  0
   49.4470   33.6970   41.7760 C   0  0  2  0  0  0  0  0  0  0  0  0
   48.8610   33.5640   40.4760 N   0  0  0  0  0  0  0  0  0  0  0  0
   48.2390   34.4720   39.7590 N   0  0  0  0  0  0  0  0  0  0  0  0
   47.8330   33.9690   38.5990 C   0  0  0  0  0  0  0  0  0  0  0  0
   48.2380   32.6330   38.5940 C   0  0  0  0  0  0  0  0  0  0  0  0
   48.8950   32.3880   39.8020 C   0  0  0  0  0  0  0  0  0  0  0  0
   44.9460   33.8170   46.8970 O   0  0  0  0  0  0  0  0  0  0  0  0
   45.7270   32.7030   47.3320 C   0  0  0  0  0  0  0  0  0  0  0  0
   44.9780   31.9230   48.3640 C   0  0  0  0  0  0  0  0  0  0  0  0
   45.6340   30.6140   48.6980 C   0  0  0  0  0  0  0  0  0  0  0  0
   45.1400   29.4530   47.8890 C   0  0  0  0  0  0  0  0  0  0  0  0
   46.3890   28.6730   47.4610 C   0  0  0  0  0  0  0  0  0  0  0  0
   47.5640   29.5810   47.6740 C   0  0  0  0  0  0  0  0  0  0  0  0
   47.1240   30.6420   48.6580 C   0  0  0  0  0  0  0  0  0  0  0  0
   45.8398   35.9143   42.2292 H   0  0  0  0  0  0  0  0  0  0  0  0
   44.1648   36.9981   43.7886 H   0  0  0  0  0  0  0  0  0  0  0  0
   48.4761   33.0908   43.8850 H   0  0  0  0  0  0  0  0  0  0  0  0
   48.8343   35.8093   42.1975 H   0  0  0  0  0  0  0  0  0  0  0  0
   50.0805   35.5749   43.1010 H   0  0  0  0  0  0  0  0  0  0  0  0
   50.2931   33.0959   41.4116 H   0  0  0  0  0  0  0  0  0  0  0  0
   47.2880   34.4979   37.8032 H   0  0  0  0  0  0  0  0  0  0  0  0
   48.0703   31.9058   37.7859 H   0  0  0  0  0  0  0  0  0  0  0  0
   49.3448   31.4413   40.1359 H   0  0  0  0  0  0  0  0  0  0  0  0
   45.9447   32.0531   46.4717 H   0  0  0  0  0  0  0  0  0  0  0  0
   46.6666   33.0708   47.7701 H   0  0  0  0  0  0  0  0  0  0  0  0
   44.9126   32.5268   49.2811 H   0  0  0  0  0  0  0  0  0  0  0  0
   43.9840   31.6977   47.9501 H   0  0  0  0  0  0  0  0  0  0  0  0
   45.3254   30.4607   49.7426 H   0  0  0  0  0  0  0  0  0  0  0  0
   44.4816   28.8158   48.4977 H   0  0  0  0  0  0  0  0  0  0  0  0
   44.5567   29.7880   47.0186 H   0  0  0  0  0  0  0  0  0  0  0  0
   46.3149   28.3929   46.3999 H   0  0  0  0  0  0  0  0  0  0  0  0
   46.4952   27.7477   48.0463 H   0  0  0  0  0  0  0  0  0  0  0  0
   48.4121   29.0129   48.0838 H   0  0  0  0  0  0  0  0  0  0  0  0
   47.8902   30.0332   46.7258 H   0  0  0  0  0  0  0  0  0  0  0  0
   47.5321   30.4234   49.6558 H   0  0  0  0  0  0  0  0  0  0  0  0
   47.4883   31.6339   48.3522 H   0  0  0  0  0  0  0  0  0  0  0  0
  1  6  1  0
  2  1  2  0
  2  3  1  0
  3  4  2  0
  4  5  1  0
  5 16  1  0
  6  5  2  0
  7  8  1  0
  7  1  1  0
  9  8  1  0
 10  9  1  0
 10  8  1  0
 11 10  1  0
 12 11  1  0
 13 12  2  0
 14 13  1  0
 14 15  2  0
 15 11  1  0
 16 17  1  0
 17 18  1  0
 18 19  1  0
 20 19  1  0
 21 22  1  0
 21 20  1  0
 22 23  1  0
 23 19  1  0
  2 24  1  0
  3 25  1  0
  8 26  1  1
  9 27  1  0
  9 28  1  0
 10 29  1  1
 13 30  1  0
 14 31  1  0
 15 32  1  0
 17 33  1  0
 17 34  1  0
 18 35  1  0
 18 36  1  0
 19 37  1  0
 20 38  1  0
 20 39  1  0
 21 40  1  0
 21 41  1  0
 22 42  1  0
 22 43  1  0
 23 44  1  0
 23 45  1  0
M  ISO  8  24  14  25  14  26  13  27  13  28  13  29  13  30  14  31  14
M  ISO  8  32  14  33   8  34   8  35   8  36   8  37  13  38  13  39  13
M  ISO  6  40  13  41  13  42  13  43  13  44  13  45  13
M  END
>  <minimizedAffinity>  (1) 
-5.45260334

>  <minimizedRMSD>  (1) 
1.46670389

$$$$
