
     RDKit          3D

 39 42  0  0  1  0  0  0  0  0999 V2000
   46.3130   34.3520   43.6840 C   0  0  0  0  0  0  0  0  0  0  0  0
   45.5900   35.5090   43.3360 C   0  0  0  0  0  0  0  0  0  0  0  0
   44.6710   36.0260   44.2770 C   0  0  0  0  0  0  0  0  0  0  0  0
   44.5360   35.3730   45.4670 N   0  0  0  0  0  0  0  0  0  0  0  0
   45.2580   34.2740   45.7310 C   0  0  0  0  0  0  0  0  0  0  0  0
   46.1010   33.8060   44.8610 N   0  0  0  0  0  0  0  0  0  0  0  0
   47.1570   33.9740   42.6870 O   0  0  0  0  0  0  0  0  0  0  0  0
   48.5620   33.8080   42.9200 C   0  0  2  0  0  0  0  0  0  0  0  0
   49.3770   34.9550   42.4290 C   0  0  0  0  0  0  0  0  0  0  0  0
   49.3910   33.6780   41.6830 C   0  0  2  0  0  0  0  0  0  0  0  0
   48.7540   33.4950   40.4130 N   0  0  0  0  0  0  0  0  0  0  0  0
   48.2090   34.3970   39.6330 N   0  0  0  0  0  0  0  0  0  0  0  0
   47.7170   33.8320   38.5290 C   0  0  0  0  0  0  0  0  0  0  0  0
   47.9820   32.4670   38.6420 C   0  0  0  0  0  0  0  0  0  0  0  0
   48.6470   32.2660   39.8530 C   0  0  0  0  0  0  0  0  0  0  0  0
   45.1110   33.6140   46.9510 O   0  0  0  0  0  0  0  0  0  0  0  0
   45.7110   32.3330   47.1780 C   0  0  0  0  0  0  0  0  0  0  0  0
   46.3360   32.2900   48.5490 C   0  0  0  0  0  0  0  0  0  0  0  0
   47.3490   31.1970   48.6160 C   0  0  0  0  0  0  0  0  0  0  0  0
   48.6030   31.3120   49.1770 C   0  0  0  0  0  0  0  0  0  0  0  0
   49.1700   30.0490   49.0010 C   0  0  0  0  0  0  0  0  0  0  0  0
   48.2680   29.2570   48.3670 N   0  0  0  0  0  0  0  0  0  0  0  0
   47.1790   29.9570   48.1400 N   0  0  0  0  0  0  0  0  0  0  0  0
   45.7361   35.9961   42.3606 H   0  0  0  0  0  0  0  0  0  0  0  0
   44.0819   36.9284   44.0563 H   0  0  0  0  0  0  0  0  0  0  0  0
   48.4755   33.2403   43.8582 H   0  0  0  0  0  0  0  0  0  0  0  0
   48.8800   35.8367   41.9983 H   0  0  0  0  0  0  0  0  0  0  0  0
   50.1482   35.6032   42.8706 H   0  0  0  0  0  0  0  0  0  0  0  0
   50.1975   33.0202   41.3269 H   0  0  0  0  0  0  0  0  0  0  0  0
   47.2058   34.3398   37.6978 H   0  0  0  0  0  0  0  0  0  0  0  0
   47.7155   31.6903   37.9101 H   0  0  0  0  0  0  0  0  0  0  0  0
   49.0076   31.3120   40.2651 H   0  0  0  0  0  0  0  0  0  0  0  0
   44.9400   31.5519   47.1049 H   0  0  0  0  0  0  0  0  0  0  0  0
   46.4905   32.1611   46.4212 H   0  0  0  0  0  0  0  0  0  0  0  0
   46.8255   33.2531   48.7562 H   0  0  0  0  0  0  0  0  0  0  0  0
   45.5517   32.1006   49.2967 H   0  0  0  0  0  0  0  0  0  0  0  0
   49.0529   32.1955   49.6535 H   0  0  0  0  0  0  0  0  0  0  0  0
   50.1777   29.7464   49.3218 H   0  0  0  0  0  0  0  0  0  0  0  0
   48.4130   28.2710   48.1070 H   0  0  0  0  0  0  0  0  0  0  0  0
  1  6  1  0
  2  1  2  0
  2  3  1  0
  3  4  2  0
  4  5  1  0
  5 16  1  0
  6  5  2  0
  7  8  1  0
  7  1  1  0
  9  8  1  0
 10  9  1  0
 10  8  1  0
 11 10  1  0
 12 11  1  0
 13 14  1  0
 13 12  2  0
 14 15  2  0
 15 11  1  0
 16 17  1  0
 17 18  1  0
 18 19  1  0
 19 20  1  0
 21 20  2  0
 22 21  1  0
 23 22  1  0
 23 19  2  0
  2 24  1  0
  3 25  1  0
  8 26  1  1
  9 27  1  0
  9 28  1  0
 10 29  1  1
 13 30  1  0
 14 31  1  0
 15 32  1  0
 17 33  1  0
 17 34  1  0
 18 35  1  0
 18 36  1  0
 20 37  1  0
 21 38  1  0
 22 39  1  0
M  ISO  8  24  14  25  14  26  13  27  13  28  13  29  13  30  14  31  14
M  ISO  8  32  14  33   8  34   8  35   8  36   8  37  14  38  14  39   9
M  END
>  <minimizedAffinity>  (1) 
-5.44219017

>  <minimizedRMSD>  (1) 
1.2358458

$$$$
