
     RDKit          3D

 42 45  0  0  1  0  0  0  0  0999 V2000
   46.3220   34.2480   43.6980 C   0  0  0  0  0  0  0  0  0  0  0  0
   45.6450   35.4110   43.2730 C   0  0  0  0  0  0  0  0  0  0  0  0
   44.7220   36.0110   44.1430 C   0  0  0  0  0  0  0  0  0  0  0  0
   44.5280   35.4340   45.3630 N   0  0  0  0  0  0  0  0  0  0  0  0
   45.2040   34.3250   45.7100 C   0  0  0  0  0  0  0  0  0  0  0  0
   46.0580   33.7720   44.8990 N   0  0  0  0  0  0  0  0  0  0  0  0
   47.1820   33.7830   42.7530 O   0  0  0  0  0  0  0  0  0  0  0  0
   48.5910   33.6870   43.0060 C   0  0  2  0  0  0  0  0  0  0  0  0
   49.3380   34.9090   42.6000 C   0  0  0  0  0  0  0  0  0  0  0  0
   49.4490   33.6820   41.7840 C   0  0  2  0  0  0  0  0  0  0  0  0
   48.8490   33.5350   40.4910 N   0  0  0  0  0  0  0  0  0  0  0  0
   48.2070   34.4290   39.7800 N   0  0  0  0  0  0  0  0  0  0  0  0
   47.7940   33.9100   38.6230 C   0  0  0  0  0  0  0  0  0  0  0  0
   48.2190   32.5800   38.6240 C   0  0  0  0  0  0  0  0  0  0  0  0
   48.8930   32.3540   39.8270 C   0  0  0  0  0  0  0  0  0  0  0  0
   44.9990   33.7380   46.9640 O   0  0  0  0  0  0  0  0  0  0  0  0
   45.8900   32.7530   47.4740 C   0  0  0  0  0  0  0  0  0  0  0  0
   45.1110   31.6880   48.2250 C   0  0  0  0  0  0  0  0  0  0  0  0
   45.2270   30.3740   47.5460 C   0  0  0  0  0  0  0  0  0  0  0  0
   45.5660   30.1750   46.2200 C   0  0  0  0  0  0  0  0  0  0  0  0
   45.6440   28.8980   45.6980 C   0  0  0  0  0  0  0  0  0  0  0  0
   45.3850   27.7850   46.4740 C   0  0  0  0  0  0  0  0  0  0  0  0
   45.0400   27.9270   47.8080 C   0  0  0  0  0  0  0  0  0  0  0  0
   44.9810   29.2250   48.2670 C   0  0  0  0  0  0  0  0  0  0  0  0
   45.8373   35.8392   42.2782 H   0  0  0  0  0  0  0  0  0  0  0  0
   44.1725   36.9178   43.8501 H   0  0  0  0  0  0  0  0  0  0  0  0
   48.5240   33.0587   43.9064 H   0  0  0  0  0  0  0  0  0  0  0  0
   48.7930   35.7807   42.2088 H   0  0  0  0  0  0  0  0  0  0  0  0
   50.0569   35.5784   43.0951 H   0  0  0  0  0  0  0  0  0  0  0  0
   50.3027   33.0979   41.4098 H   0  0  0  0  0  0  0  0  0  0  0  0
   47.2327   34.4249   37.8294 H   0  0  0  0  0  0  0  0  0  0  0  0
   48.0534   31.8440   37.8234 H   0  0  0  0  0  0  0  0  0  0  0  0
   49.3601   31.4168   40.1637 H   0  0  0  0  0  0  0  0  0  0  0  0
   46.4336   32.2863   46.6393 H   0  0  0  0  0  0  0  0  0  0  0  0
   46.6026   33.2318   48.1617 H   0  0  0  0  0  0  0  0  0  0  0  0
   45.5097   31.6026   49.2466 H   0  0  0  0  0  0  0  0  0  0  0  0
   44.0506   31.9792   48.2512 H   0  0  0  0  0  0  0  0  0  0  0  0
   45.7754   31.0412   45.5751 H   0  0  0  0  0  0  0  0  0  0  0  0
   45.9184   28.7648   44.6411 H   0  0  0  0  0  0  0  0  0  0  0  0
   45.4531   26.7807   46.0303 H   0  0  0  0  0  0  0  0  0  0  0  0
   44.8279   27.0637   48.4559 H   0  0  0  0  0  0  0  0  0  0  0  0
   44.7078   29.3589   49.3241 H   0  0  0  0  0  0  0  0  0  0  0  0
  1  6  1  0
  2  1  2  0
  2  3  1  0
  3  4  2  0
  4  5  1  0
  5 16  1  0
  6  5  2  0
  7  8  1  0
  7  1  1  0
  9  8  1  0
 10  9  1  0
 10  8  1  0
 11 10  1  0
 12 11  1  0
 13 14  1  0
 13 12  2  0
 14 15  2  0
 15 11  1  0
 16 17  1  0
 17 18  1  0
 19 18  1  0
 19 24  1  0
 20 19  2  0
 21 20  1  0
 21 22  2  0
 22 23  1  0
 23 24  2  0
  2 25  1  0
  3 26  1  0
  8 27  1  1
  9 28  1  0
  9 29  1  0
 10 30  1  1
 13 31  1  0
 14 32  1  0
 15 33  1  0
 17 34  1  0
 17 35  1  0
 18 36  1  0
 18 37  1  0
 20 38  1  0
 21 39  1  0
 22 40  1  0
 23 41  1  0
 24 42  1  0
M  ISO  8  25  14  26  14  27  13  28  13  29  13  30  13  31  14  32  14
M  ISO  8  33  14  34   8  35   8  36   8  37   8  38  14  39  14  40  14
M  ISO  2  41  14  42  14
M  END
>  <minimizedAffinity>  (1) 
-5.36412573

>  <minimizedRMSD>  (1) 
2.91441488

$$$$
