
     RDKit          3D

 42 45  0  0  1  0  0  0  0  0999 V2000
   46.3270   34.2660   43.6870 C   0  0  0  0  0  0  0  0  0  0  0  0
   45.6460   35.4290   43.2630 C   0  0  0  0  0  0  0  0  0  0  0  0
   44.7190   36.0150   44.1440 C   0  0  0  0  0  0  0  0  0  0  0  0
   44.5280   35.4290   45.3630 N   0  0  0  0  0  0  0  0  0  0  0  0
   45.2070   34.3240   45.7050 C   0  0  0  0  0  0  0  0  0  0  0  0
   46.0690   33.7780   44.8860 N   0  0  0  0  0  0  0  0  0  0  0  0
   47.1840   33.8180   42.7390 O   0  0  0  0  0  0  0  0  0  0  0  0
   48.5910   33.7040   42.9970 C   0  0  2  0  0  0  0  0  0  0  0  0
   49.3610   34.9130   42.5940 C   0  0  0  0  0  0  0  0  0  0  0  0
   49.4540   33.6850   41.7790 C   0  0  2  0  0  0  0  0  0  0  0  0
   48.8560   33.5480   40.4830 N   0  0  0  0  0  0  0  0  0  0  0  0
   48.2250   34.4530   39.7740 N   0  0  0  0  0  0  0  0  0  0  0  0
   47.8110   33.9420   38.6140 C   0  0  0  0  0  0  0  0  0  0  0  0
   48.2210   32.6080   38.6120 C   0  0  0  0  0  0  0  0  0  0  0  0
   48.8900   32.3700   39.8140 C   0  0  0  0  0  0  0  0  0  0  0  0
   45.0060   33.7310   46.9520 O   0  0  0  0  0  0  0  0  0  0  0  0
   45.9040   32.7350   47.4530 C   0  0  0  0  0  0  0  0  0  0  0  0
   45.1300   31.6710   48.1900 C   0  0  0  0  0  0  0  0  0  0  0  0
   45.2320   30.3590   47.5370 C   0  0  0  0  0  0  0  0  0  0  0  0
   45.5640   30.1910   46.2090 C   0  0  0  0  0  0  0  0  0  0  0  0
   45.6370   28.9220   45.6780 C   0  0  0  0  0  0  0  0  0  0  0  0
   45.3810   27.8170   46.4590 C   0  0  0  0  0  0  0  0  0  0  0  0
   45.0420   27.9410   47.8010 C   0  0  0  0  0  0  0  0  0  0  0  0
   44.9760   29.2320   48.3130 C   0  0  0  0  0  0  0  0  0  0  0  0
   45.8355   35.8645   42.2708 H   0  0  0  0  0  0  0  0  0  0  0  0
   44.1631   36.9204   43.8590 H   0  0  0  0  0  0  0  0  0  0  0  0
   48.5093   33.0786   43.8982 H   0  0  0  0  0  0  0  0  0  0  0  0
   48.8329   35.7941   42.2006 H   0  0  0  0  0  0  0  0  0  0  0  0
   50.0894   35.5698   43.0921 H   0  0  0  0  0  0  0  0  0  0  0  0
   50.2994   33.0868   41.4083 H   0  0  0  0  0  0  0  0  0  0  0  0
   47.2585   34.4656   37.8199 H   0  0  0  0  0  0  0  0  0  0  0  0
   48.0483   31.8765   37.8088 H   0  0  0  0  0  0  0  0  0  0  0  0
   49.3475   31.4268   40.1472 H   0  0  0  0  0  0  0  0  0  0  0  0
   46.4455   32.2761   46.6126 H   0  0  0  0  0  0  0  0  0  0  0  0
   46.6194   33.2062   48.1430 H   0  0  0  0  0  0  0  0  0  0  0  0
   45.5258   31.5894   49.2131 H   0  0  0  0  0  0  0  0  0  0  0  0
   44.0701   31.9653   48.1935 H   0  0  0  0  0  0  0  0  0  0  0  0
   45.7697   31.0670   45.5762 H   0  0  0  0  0  0  0  0  0  0  0  0
   45.9026   28.7899   44.6188 H   0  0  0  0  0  0  0  0  0  0  0  0
   45.4463   26.8145   46.0109 H   0  0  0  0  0  0  0  0  0  0  0  0
   44.8359   27.0607   48.4276 H   0  0  0  0  0  0  0  0  0  0  0  0
   44.7113   29.3681   49.3720 H   0  0  0  0  0  0  0  0  0  0  0  0
  1  6  1  0
  2  1  2  0
  2  3  1  0
  3  4  2  0
  4  5  1  0
  5 16  1  0
  6  5  2  0
  7  8  1  0
  7  1  1  0
  9  8  1  0
 10  9  1  0
 10  8  1  0
 11 10  1  0
 12 11  1  0
 13 12  2  0
 14 13  1  0
 14 15  2  0
 15 11  1  0
 16 17  1  0
 17 18  1  0
 19 18  1  0
 19 24  1  0
 20 19  2  0
 21 20  1  0
 21 22  2  0
 22 23  1  0
 23 24  2  0
  2 25  1  0
  3 26  1  0
  8 27  1  1
  9 28  1  0
  9 29  1  0
 10 30  1  1
 13 31  1  0
 14 32  1  0
 15 33  1  0
 17 34  1  0
 17 35  1  0
 18 36  1  0
 18 37  1  0
 20 38  1  0
 21 39  1  0
 22 40  1  0
 23 41  1  0
 24 42  1  0
M  ISO  8  25  14  26  14  27  13  28  13  29  13  30  13  31  14  32  14
M  ISO  8  33  14  34   8  35   8  36   8  37   8  38  14  39  14  40  14
M  ISO  2  41  14  42  14
M  END
>  <minimizedAffinity>  (1) 
-5.35372829

>  <minimizedRMSD>  (1) 
2.89548993

$$$$
