
     RDKit          3D

 19 19  0  0  0  0  0  0  0  0999 V2000
   47.1320   34.8700   42.0010 C   0  0  0  0  0  0  0  0  0  0  0  0
   48.2770   35.3600   41.9760 O   0  0  0  0  0  0  0  0  0  0  0  0
   46.5100   34.2270   40.8960 N   0  0  0  0  0  0  0  0  0  0  0  0
   47.3700   34.2210   39.7650 C   0  0  0  0  0  0  0  0  0  0  0  0
   48.5170   34.6100   39.4350 N   0  0  0  0  0  0  0  0  0  0  0  0
   46.9420   33.6170   38.5230 N   0  0  0  0  0  0  0  0  0  0  0  0
   49.2090   35.1000   39.9950 H   0  0  0  0  0  0  0  0  0  0  0  0
   44.5620   35.9650   44.4640 C   0  0  0  0  0  0  0  0  0  0  0  0
   45.3600   35.9400   43.3090 C   0  0  0  0  0  0  0  0  0  0  0  0
   46.3010   34.9100   43.1950 C   0  0  0  0  0  0  0  0  0  0  0  0
   46.3940   33.9930   44.2050 N   0  0  0  0  0  0  0  0  0  0  0  0
   45.6050   34.0670   45.2840 C   0  0  0  0  0  0  0  0  0  0  0  0
   44.6870   35.0460   45.4250 N   0  0  0  0  0  0  0  0  0  0  0  0
   45.5638   33.8204   40.9131 H   0  0  0  0  0  0  0  0  0  0  0  0
   47.5707   33.6163   37.7071 H   0  0  0  0  0  0  0  0  0  0  0  0
   46.0084   33.1874   38.4541 H   0  0  0  0  0  0  0  0  0  0  0  0
   43.8138   36.7629   44.5805 H   0  0  0  0  0  0  0  0  0  0  0  0
   45.2498   36.7015   42.5229 H   0  0  0  0  0  0  0  0  0  0  0  0
   45.7076   33.3104   46.0759 H   0  0  0  0  0  0  0  0  0  0  0  0
  1 10  1  0
  2  1  2  0
  3  1  1  0
  4  3  1  0
  5  4  2  0
  5  7  1  0
  6  4  1  0
  8 13  2  0
  9  8  1  0
 10  9  2  0
 10 11  1  0
 11 12  2  0
 12 13  1  0
  3 14  1  0
  6 15  1  0
  6 16  1  0
  8 17  1  0
  9 18  1  0
 12 19  1  0
M  ISO  3  17  14  18  14  19  14
M  END
>  <minimizedAffinity>  (1) 
-4.47397041

>  <minimizedRMSD>  (1) 
0.316935241

$$$$
