
     RDKit          3D

 22 23  0  0  0  0  0  0  0  0999 V2000
   47.6090   35.0660   41.8120 C   0  0  0  0  0  0  0  0  0  0  0  0
   48.6680   35.7310   41.8580 O   0  0  0  0  0  0  0  0  0  0  0  0
   44.7620   35.6200   44.1310 C   0  0  0  0  0  0  0  0  0  0  0  0
   45.6370   35.8070   43.0250 C   0  0  0  0  0  0  0  0  0  0  0  0
   46.6910   34.9170   42.9240 C   0  0  0  0  0  0  0  0  0  0  0  0
   46.8400   33.9460   43.8430 N   0  0  0  0  0  0  0  0  0  0  0  0
   45.9850   33.7970   44.8880 C   0  0  0  0  0  0  0  0  0  0  0  0
   44.9310   34.6450   45.0350 N   0  0  0  0  0  0  0  0  0  0  0  0
   47.2790   34.3960   40.5570 C   0  0  0  0  0  0  0  0  0  0  0  0
   48.1400   34.4340   39.4850 C   0  0  0  0  0  0  0  0  0  0  0  0
   47.8980   33.8280   38.2700 C   0  0  0  0  0  0  0  0  0  0  0  0
   46.6860   33.1460   38.1820 C   0  0  0  0  0  0  0  0  0  0  0  0
   45.7750   33.0670   39.2160 C   0  0  0  0  0  0  0  0  0  0  0  0
   46.0990   33.7060   40.4050 C   0  0  0  0  0  0  0  0  0  0  0  0
   43.9098   36.3053   44.2494 H   0  0  0  0  0  0  0  0  0  0  0  0
   45.4841   36.6130   42.2923 H   0  0  0  0  0  0  0  0  0  0  0  0
   46.1450   32.9890   45.6170 H   0  0  0  0  0  0  0  0  0  0  0  0
   49.0847   34.9845   39.6048 H   0  0  0  0  0  0  0  0  0  0  0  0
   48.6091   33.8792   37.4323 H   0  0  0  0  0  0  0  0  0  0  0  0
   46.4415   32.6422   37.2352 H   0  0  0  0  0  0  0  0  0  0  0  0
   44.8283   32.5186   39.1022 H   0  0  0  0  0  0  0  0  0  0  0  0
   45.3935   33.6593   41.2477 H   0  0  0  0  0  0  0  0  0  0  0  0
  1  2  2  0
  1  5  1  0
  3  8  2  0
  4  3  1  0
  5  4  2  0
  5  6  1  0
  6  7  2  0
  7  8  1  0
  9  1  1  0
 10  9  2  0
 11 10  1  0
 12 11  2  0
 12 13  1  0
 13 14  2  0
 14  9  1  0
  3 15  1  0
  4 16  1  0
  7 17  1  0
 10 18  1  0
 11 19  1  0
 12 20  1  0
 13 21  1  0
 14 22  1  0
M  ISO  8  15  14  16  14  17  14  18  14  19  14  20  14  21  14  22  14
M  END
>  <minimizedAffinity>  (1) 
-4.43523455

>  <minimizedRMSD>  (1) 
1.15889621

$$$$
