
     RDKit          3D

 28 29  0  0  0  0  0  0  0  0999 V2000
   44.6980   36.0070   44.2050 C   0  0  0  0  0  0  0  0  0  0  0  0
   45.6260   35.6200   43.2240 C   0  0  0  0  0  0  0  0  0  0  0  0
   46.4000   34.5070   43.5000 C   0  0  0  0  0  0  0  0  0  0  0  0
   46.2360   33.8550   44.6680 N   0  0  0  0  0  0  0  0  0  0  0  0
   45.3290   34.2540   45.5980 C   0  0  0  0  0  0  0  0  0  0  0  0
   44.5510   35.3450   45.3610 N   0  0  0  0  0  0  0  0  0  0  0  0
   47.3760   34.0810   42.4940 C   0  0  0  0  0  0  0  0  0  0  0  0
   48.4960   33.6040   42.7990 O   0  0  0  0  0  0  0  0  0  0  0  0
   46.9360   34.2560   41.0840 C   0  0  0  0  0  0  0  0  0  0  0  0
   46.2590   32.9720   40.6620 C   0  0  0  0  0  0  0  0  0  0  0  0
   45.7500   33.2640   39.2590 C   0  0  0  0  0  0  0  0  0  0  0  0
   46.9400   33.2700   38.3610 C   0  0  0  0  0  0  0  0  0  0  0  0
   48.2100   33.7650   38.9690 C   0  0  0  0  0  0  0  0  0  0  0  0
   48.0340   34.6660   40.1500 C   0  0  0  0  0  0  0  0  0  0  0  0
   44.0670   36.8882   44.0170 H   0  0  0  0  0  0  0  0  0  0  0  0
   45.7323   36.1758   42.2807 H   0  0  0  0  0  0  0  0  0  0  0  0
   45.2240   33.6963   46.5403 H   0  0  0  0  0  0  0  0  0  0  0  0
   46.2308   35.0984   41.0286 H   0  0  0  0  0  0  0  0  0  0  0  0
   46.9760   32.1379   40.6514 H   0  0  0  0  0  0  0  0  0  0  0  0
   45.4537   32.6740   41.3495 H   0  0  0  0  0  0  0  0  0  0  0  0
   45.0415   32.4840   38.9434 H   0  0  0  0  0  0  0  0  0  0  0  0
   45.2240   34.2294   39.2232 H   0  0  0  0  0  0  0  0  0  0  0  0
   46.7076   33.9099   37.4970 H   0  0  0  0  0  0  0  0  0  0  0  0
   47.1236   32.2170   38.1013 H   0  0  0  0  0  0  0  0  0  0  0  0
   48.7981   32.8924   39.2896 H   0  0  0  0  0  0  0  0  0  0  0  0
   48.7090   34.3659   38.1944 H   0  0  0  0  0  0  0  0  0  0  0  0
   48.9779   34.6814   40.7146 H   0  0  0  0  0  0  0  0  0  0  0  0
   47.7555   35.6532   39.7527 H   0  0  0  0  0  0  0  0  0  0  0  0
  1  6  2  0
  2  3  2  0
  2  1  1  0
  3  4  1  0
  4  5  2  0
  6  5  1  0
  7  8  2  0
  7  3  1  0
  9  7  1  0
 10  9  1  0
 11 10  1  0
 12 13  1  0
 12 11  1  0
 13 14  1  0
 14  9  1  0
  1 15  1  0
  2 16  1  0
  5 17  1  0
  9 18  1  0
 10 19  1  0
 10 20  1  0
 11 21  1  0
 11 22  1  0
 12 23  1  0
 12 24  1  0
 13 25  1  0
 13 26  1  0
 14 27  1  0
 14 28  1  0
M  ISO  8  15  14  16  14  17  14  18  13  19  13  20  13  21  13  22  13
M  ISO  6  23  13  24  13  25  13  26  13  27  13  28  13
M  END
>  <minimizedAffinity>  (1) 
-4.29807997

>  <minimizedRMSD>  (1) 
1.16939604

$$$$
