
     RDKit          3D

 27 28  0  0  0  0  0  0  0  0999 V2000
   44.6570   36.0210   44.3060 C   0  0  0  0  0  0  0  0  0  0  0  0
   45.5030   36.0230   43.1630 C   0  0  0  0  0  0  0  0  0  0  0  0
   46.4110   34.9590   43.0490 C   0  0  0  0  0  0  0  0  0  0  0  0
   46.4170   34.0250   44.0190 N   0  0  0  0  0  0  0  0  0  0  0  0
   45.6040   34.0560   45.0860 C   0  0  0  0  0  0  0  0  0  0  0  0
   44.7140   35.0630   45.2330 N   0  0  0  0  0  0  0  0  0  0  0  0
   47.2690   34.9750   41.8750 C   0  0  0  0  0  0  0  0  0  0  0  0
   48.2940   35.6890   41.7980 O   0  0  0  0  0  0  0  0  0  0  0  0
   46.9370   34.1460   40.7640 N   0  0  0  0  0  0  0  0  0  0  0  0
   47.9690   33.6110   39.8950 C   0  0  0  0  0  0  0  0  0  0  0  0
   47.3940   33.6200   38.4910 C   0  0  0  0  0  0  0  0  0  0  0  0
   46.1920   32.7490   38.3410 C   0  0  0  0  0  0  0  0  0  0  0  0
   45.4920   32.5150   39.6450 C   0  0  0  0  0  0  0  0  0  0  0  0
   45.5500   33.8100   40.4640 C   0  0  0  0  0  0  0  0  0  0  0  0
   43.9304   36.8375   44.4302 H   0  0  0  0  0  0  0  0  0  0  0  0
   45.4484   36.8190   42.4058 H   0  0  0  0  0  0  0  0  0  0  0  0
   45.6618   33.2600   45.8430 H   0  0  0  0  0  0  0  0  0  0  0  0
   48.8696   34.2410   39.9413 H   0  0  0  0  0  0  0  0  0  0  0  0
   48.2600   32.5950   40.2002 H   0  0  0  0  0  0  0  0  0  0  0  0
   47.1116   34.6520   38.2358 H   0  0  0  0  0  0  0  0  0  0  0  0
   48.1694   33.2246   37.8184 H   0  0  0  0  0  0  0  0  0  0  0  0
   45.4904   33.2315   37.6446 H   0  0  0  0  0  0  0  0  0  0  0  0
   46.5291   31.7735   37.9606 H   0  0  0  0  0  0  0  0  0  0  0  0
   44.4434   32.2392   39.4596 H   0  0  0  0  0  0  0  0  0  0  0  0
   45.9807   31.6974   40.1952 H   0  0  0  0  0  0  0  0  0  0  0  0
   45.0934   34.6274   39.8866 H   0  0  0  0  0  0  0  0  0  0  0  0
   45.0000   33.6676   41.4060 H   0  0  0  0  0  0  0  0  0  0  0  0
  1  6  2  0
  2  1  1  0
  3  2  2  0
  3  4  1  0
  4  5  2  0
  5  6  1  0
  7  3  1  0
  8  7  2  0
  9  7  1  0
 10  9  1  0
 11 10  1  0
 12 11  1  0
 12 13  1  0
 13 14  1  0
 14  9  1  0
  1 15  1  0
  2 16  1  0
  5 17  1  0
 10 18  1  0
 10 19  1  0
 11 20  1  0
 11 21  1  0
 12 22  1  0
 12 23  1  0
 13 24  1  0
 13 25  1  0
 14 26  1  0
 14 27  1  0
M  ISO  8  15  14  16  14  17  14  18  13  19  13  20  13  21  13  22  13
M  ISO  5  23  13  24  13  25  13  26  13  27  13
M  END
>  <minimizedAffinity>  (1) 
-4.28201866

>  <minimizedRMSD>  (1) 
0.482573599

$$$$
