
     RDKit          3D

 29 31  0  0  1  0  0  0  0  0999 V2000
   47.3930   33.8420   42.3190 C   0  0  2  0  0  0  0  0  0  0  0  0
   48.7300   33.6130   42.8790 C   0  0  0  0  0  0  0  0  0  0  0  0
   49.6440   34.7240   42.3570 C   0  0  0  0  0  0  0  0  0  0  0  0
   48.7950   35.6710   41.5700 C   0  0  0  0  0  0  0  0  0  0  0  0
   47.6150   34.8750   41.1770 C   0  0  1  0  0  0  0  0  0  0  0  0
   46.4000   34.4710   43.2130 C   0  0  0  0  0  0  0  0  0  0  0  0
   46.1400   33.9030   44.4680 C   0  0  0  0  0  0  0  0  0  0  0  0
   45.2260   34.5120   45.3270 C   0  0  0  0  0  0  0  0  0  0  0  0
   44.6290   35.6600   44.8630 N   0  0  0  0  0  0  0  0  0  0  0  0
   44.8950   36.1850   43.6540 C   0  0  0  0  0  0  0  0  0  0  0  0
   45.7810   35.5920   42.8250 N   0  0  0  0  0  0  0  0  0  0  0  0
   47.7070   34.1980   39.8580 C   0  0  0  0  0  0  0  0  0  0  0  0
   47.0880   32.9920   39.7210 C   0  0  0  0  0  0  0  0  0  0  0  0
   47.4810   32.5510   37.9180 S   0  0  0  0  0  0  0  0  0  0  0  0
   48.4230   34.1370   37.7380 C   0  0  0  0  0  0  0  0  0  0  0  0
   48.3190   34.6020   38.7590 N   0  0  0  0  0  0  0  0  0  0  0  0
   46.9896   32.8542   42.0515 H   0  0  0  0  0  0  0  0  0  0  0  0
   48.6878   33.6466   43.9777 H   0  0  0  0  0  0  0  0  0  0  0  0
   49.1112   32.6254   42.5802 H   0  0  0  0  0  0  0  0  0  0  0  0
   50.1130   35.2520   43.2004 H   0  0  0  0  0  0  0  0  0  0  0  0
   50.4431   34.3051   41.7277 H   0  0  0  0  0  0  0  0  0  0  0  0
   48.4955   36.5299   42.1886 H   0  0  0  0  0  0  0  0  0  0  0  0
   49.3274   36.0847   40.7008 H   0  0  0  0  0  0  0  0  0  0  0  0
   46.7658   35.5614   41.0443 H   0  0  0  0  0  0  0  0  0  0  0  0
   46.6551   32.9804   44.7739 H   0  0  0  0  0  0  0  0  0  0  0  0
   44.9958   34.0974   46.3195 H   0  0  0  0  0  0  0  0  0  0  0  0
   44.3857   37.1070   43.3369 H   0  0  0  0  0  0  0  0  0  0  0  0
   46.5102   32.4218   40.4633 H   0  0  0  0  0  0  0  0  0  0  0  0
   48.9513   34.5267   36.8554 H   0  0  0  0  0  0  0  0  0  0  0  0
  1  2  1  0
  1  6  1  0
  3  2  1  0
  4  3  1  0
  5  4  1  0
  5  1  1  0
  6  7  2  0
  7  8  1  0
  9  8  2  0
 10  9  1  0
 11  6  1  0
 11 10  2  0
 12  5  1  0
 13 12  2  0
 14 13  1  0
 15 14  1  0
 15 16  2  0
 16 12  1  0
  1 17  1  6
  2 18  1  0
  2 19  1  0
  3 20  1  0
  3 21  1  0
  4 22  1  0
  4 23  1  0
  5 24  1  6
  7 25  1  0
  8 26  1  0
 10 27  1  0
 13 28  1  0
 15 29  1  0
M  ISO  8  17  13  18  13  19  13  20  13  21  13  22  13  23  13  24  13
M  ISO  5  25  14  26  14  27  14  28  14  29  14
M  END
>  <minimizedAffinity>  (1) 
-5.47639036

>  <minimizedRMSD>  (1) 
4.4479537

$$$$
