
     RDKit          3D

 24 25  0  0  0  0  0  0  0  0999 V2000
   44.5810   35.8830   44.4030 C   0  0  0  0  0  0  0  0  0  0  0  0
   45.3680   35.9310   43.2420 C   0  0  0  0  0  0  0  0  0  0  0  0
   46.3580   34.9480   43.1030 C   0  0  0  0  0  0  0  0  0  0  0  0
   46.4880   34.0220   44.0980 N   0  0  0  0  0  0  0  0  0  0  0  0
   45.7070   34.0200   45.1920 C   0  0  0  0  0  0  0  0  0  0  0  0
   44.7460   34.9520   45.3520 N   0  0  0  0  0  0  0  0  0  0  0  0
   47.1870   34.9740   41.9130 C   0  0  0  0  0  0  0  0  0  0  0  0
   48.2290   35.6650   41.8520 O   0  0  0  0  0  0  0  0  0  0  0  0
   46.9290   34.2470   40.7130 N   0  0  0  0  0  0  0  0  0  0  0  0
   47.9610   34.0790   39.7060 C   0  0  0  0  0  0  0  0  0  0  0  0
   48.0170   32.5620   39.6630 C   0  0  0  0  0  0  0  0  0  0  0  0
   46.5490   32.2630   39.4350 C   0  0  0  0  0  0  0  0  0  0  0  0
   45.9020   33.5080   40.0030 C   0  0  0  0  0  0  0  0  0  0  0  0
   43.7960   36.6414   44.5394 H   0  0  0  0  0  0  0  0  0  0  0  0
   45.2150   36.7050   42.4755 H   0  0  0  0  0  0  0  0  0  0  0  0
   45.8534   33.2505   45.9643 H   0  0  0  0  0  0  0  0  0  0  0  0
   47.6639   34.5072   38.7373 H   0  0  0  0  0  0  0  0  0  0  0  0
   48.9164   34.5788   39.9238 H   0  0  0  0  0  0  0  0  0  0  0  0
   48.6432   32.1979   38.8351 H   0  0  0  0  0  0  0  0  0  0  0  0
   48.4594   32.0848   40.5499 H   0  0  0  0  0  0  0  0  0  0  0  0
   46.3235   32.1443   38.3649 H   0  0  0  0  0  0  0  0  0  0  0  0
   46.2032   31.3254   39.8947 H   0  0  0  0  0  0  0  0  0  0  0  0
   45.4916   34.1231   39.1886 H   0  0  0  0  0  0  0  0  0  0  0  0
   45.0773   33.2418   40.6805 H   0  0  0  0  0  0  0  0  0  0  0  0
  1  6  2  0
  2  1  1  0
  3  2  2  0
  3  4  1  0
  4  5  2  0
  5  6  1  0
  7  3  1  0
  8  7  2  0
  9  7  1  0
 10  9  1  0
 11 10  1  0
 12 11  1  0
 12 13  1  0
 13  9  1  0
  1 14  1  0
  2 15  1  0
  5 16  1  0
 10 17  1  0
 10 18  1  0
 11 19  1  0
 11 20  1  0
 12 21  1  0
 12 22  1  0
 13 23  1  0
 13 24  1  0
M  ISO  8  14  14  15  14  16  14  17  13  18  13  19  13  20  13  21  13
M  ISO  3  22  13  23  13  24  13
M  END
>  <minimizedAffinity>  (1) 
-4.15904045

>  <minimizedRMSD>  (1) 
0.382297546

$$$$
