
     RDKit          3D

 25 26  0  0  0  0  0  0  0  0999 V2000
   44.5530   35.8720   44.3410 C   0  0  0  0  0  0  0  0  0  0  0  0
   45.3830   35.8860   43.2090 C   0  0  0  0  0  0  0  0  0  0  0  0
   46.3900   34.9420   43.1140 C   0  0  0  0  0  0  0  0  0  0  0  0
   46.5110   34.0490   44.1390 N   0  0  0  0  0  0  0  0  0  0  0  0
   45.7030   34.0600   45.2080 C   0  0  0  0  0  0  0  0  0  0  0  0
   44.7130   34.9680   45.3270 N   0  0  0  0  0  0  0  0  0  0  0  0
   47.2650   34.9320   41.9570 C   0  0  0  0  0  0  0  0  0  0  0  0
   48.3760   35.5090   41.9530 O   0  0  0  0  0  0  0  0  0  0  0  0
   46.9000   34.2310   40.6980 C   0  0  0  0  0  0  0  0  0  0  0  0
   46.8800   32.7170   40.9340 C   0  0  0  0  0  0  0  0  0  0  0  0
   47.2410   32.1730   39.5590 C   0  0  0  0  0  0  0  0  0  0  0  0
   48.3510   33.0860   39.1170 C   0  0  0  0  0  0  0  0  0  0  0  0
   48.0030   34.4420   39.6920 C   0  0  0  0  0  0  0  0  0  0  0  0
   43.7503   36.6193   44.4253 H   0  0  0  0  0  0  0  0  0  0  0  0
   45.2358   36.6319   42.4141 H   0  0  0  0  0  0  0  0  0  0  0  0
   45.8500   33.3145   46.0033 H   0  0  0  0  0  0  0  0  0  0  0  0
   45.9248   34.6118   40.3604 H   0  0  0  0  0  0  0  0  0  0  0  0
   47.6241   32.4209   41.6881 H   0  0  0  0  0  0  0  0  0  0  0  0
   45.9201   32.3426   41.3191 H   0  0  0  0  0  0  0  0  0  0  0  0
   47.5879   31.1312   39.6242 H   0  0  0  0  0  0  0  0  0  0  0  0
   46.3901   32.1548   38.8621 H   0  0  0  0  0  0  0  0  0  0  0  0
   49.3172   32.7368   39.5102 H   0  0  0  0  0  0  0  0  0  0  0  0
   48.4464   33.1164   38.0216 H   0  0  0  0  0  0  0  0  0  0  0  0
   48.8837   34.8795   40.1849 H   0  0  0  0  0  0  0  0  0  0  0  0
   47.6801   35.1312   38.8979 H   0  0  0  0  0  0  0  0  0  0  0  0
  1  6  2  0
  2  1  1  0
  3  2  2  0
  3  4  1  0
  4  5  2  0
  5  6  1  0
  7  3  1  0
  8  7  2  0
  9 10  1  0
  9  7  1  0
 11 10  1  0
 12 11  1  0
 12 13  1  0
 13  9  1  0
  1 14  1  0
  2 15  1  0
  5 16  1  0
  9 17  1  0
 10 18  1  0
 10 19  1  0
 11 20  1  0
 11 21  1  0
 12 22  1  0
 12 23  1  0
 13 24  1  0
 13 25  1  0
M  ISO  8  14  14  15  14  16  14  17  13  18  13  19  13  20  13  21  13
M  ISO  4  22  13  23  13  24  13  25  13
M  END
>  <minimizedAffinity>  (1) 
-4.09866285

>  <minimizedRMSD>  (1) 
0.483122557

$$$$
