
     RDKit          3D

 19 20  0  0  0  0  0  0  0  0999 V2000
   44.6780   35.8450   44.3280 C   0  0  0  0  0  0  0  0  0  0  0  0
   45.5300   35.9060   43.1870 C   0  0  0  0  0  0  0  0  0  0  0  0
   46.4980   34.9250   43.0580 C   0  0  0  0  0  0  0  0  0  0  0  0
   46.6050   33.9650   43.9930 N   0  0  0  0  0  0  0  0  0  0  0  0
   45.7830   33.9250   45.0720 C   0  0  0  0  0  0  0  0  0  0  0  0
   44.8110   34.8650   45.2500 N   0  0  0  0  0  0  0  0  0  0  0  0
   47.3480   35.0020   41.8880 C   0  0  0  0  0  0  0  0  0  0  0  0
   48.4270   35.6730   41.8570 O   0  0  0  0  0  0  0  0  0  0  0  0
   46.9540   34.2720   40.6710 C   0  0  0  0  0  0  0  0  0  0  0  0
   47.6590   34.0710   39.5710 C   0  0  0  0  0  0  0  0  0  0  0  0
   47.1850   33.3750   38.5020 C   0  0  0  0  0  0  0  0  0  0  0  0
   45.8010   32.8820   38.7370 C   0  0  0  0  0  0  0  0  0  0  0  0
   45.4260   33.5150   40.4670 S   0  0  0  0  0  0  0  0  0  0  0  0
   43.8980   36.6092   44.4609 H   0  0  0  0  0  0  0  0  0  0  0  0
   45.4223   36.7032   42.4367 H   0  0  0  0  0  0  0  0  0  0  0  0
   45.9025   33.1222   45.8144 H   0  0  0  0  0  0  0  0  0  0  0  0
   48.6764   34.4857   39.5172 H   0  0  0  0  0  0  0  0  0  0  0  0
   47.7549   33.1986   37.5779 H   0  0  0  0  0  0  0  0  0  0  0  0
   45.1577   32.2939   38.0659 H   0  0  0  0  0  0  0  0  0  0  0  0
  1  6  2  0
  2  1  1  0
  3  2  2  0
  3  4  1  0
  4  5  2  0
  5  6  1  0
  7  3  1  0
  8  7  2  0
  9  7  1  0
 10  9  2  0
 11 12  2  0
 11 10  1  0
 12 13  1  0
 13  9  1  0
  1 14  1  0
  2 15  1  0
  5 16  1  0
 10 17  1  0
 11 18  1  0
 12 19  1  0
M  ISO  6  14  14  15  14  16  14  17  14  18  14  19  14
M  END
>  <minimizedAffinity>  (1) 
-4.04865742

>  <minimizedRMSD>  (1) 
0.775580585

$$$$
