
     RDKit          3D

 17 18  0  0  0  0  0  0  0  0999 V2000
   44.5930   36.0260   44.5140 C   0  0  0  0  0  0  0  0  0  0  0  0
   45.3370   36.0200   43.3140 C   0  0  0  0  0  0  0  0  0  0  0  0
   46.2240   34.9510   43.1290 C   0  0  0  0  0  0  0  0  0  0  0  0
   46.3040   34.0100   44.1050 N   0  0  0  0  0  0  0  0  0  0  0  0
   45.5780   34.0530   45.2300 C   0  0  0  0  0  0  0  0  0  0  0  0
   44.7020   35.0800   45.4460 N   0  0  0  0  0  0  0  0  0  0  0  0
   47.0070   34.9120   41.9060 C   0  0  0  0  0  0  0  0  0  0  0  0
   48.1250   35.4630   41.7970 O   0  0  0  0  0  0  0  0  0  0  0  0
   46.4650   34.1970   40.7500 C   0  0  0  0  0  0  0  0  0  0  0  0
   45.1700   33.9260   40.5060 N   0  0  0  0  0  0  0  0  0  0  0  0
   45.0810   33.2780   39.3880 O   0  0  0  0  0  0  0  0  0  0  0  0
   46.2650   33.0940   38.8550 C   0  0  0  0  0  0  0  0  0  0  0  0
   47.1480   33.6730   39.7110 N   0  0  0  0  0  0  0  0  0  0  0  0
   43.8885   36.8526   44.6881 H   0  0  0  0  0  0  0  0  0  0  0  0
   45.2259   36.8149   42.5618 H   0  0  0  0  0  0  0  0  0  0  0  0
   45.6872   33.2587   45.9831 H   0  0  0  0  0  0  0  0  0  0  0  0
   46.4957   32.5782   37.9112 H   0  0  0  0  0  0  0  0  0  0  0  0
  1  6  2  0
  2  1  1  0
  3  2  2  0
  3  4  1  0
  4  5  2  0
  5  6  1  0
  7  3  1  0
  8  7  2  0
  9  7  1  0
 10  9  2  0
 11 10  1  0
 12 11  1  0
 12 13  2  0
 13  9  1  0
  1 14  1  0
  2 15  1  0
  5 16  1  0
 12 17  1  0
M  ISO  4  14  14  15  14  16  14  17  14
M  END
>  <minimizedAffinity>  (1) 
-3.98860979

>  <minimizedRMSD>  (1) 
0.365287542

$$$$
