
     RDKit          3D

 31 33  0  0  1  0  0  0  0  0999 V2000
   47.2910   34.8550   41.2550 C   0  0  2  0  0  0  0  0  0  0  0  0
   48.5410   35.4880   41.6850 C   0  0  0  0  0  0  0  0  0  0  0  0
   49.1760   34.5850   42.7440 C   0  0  0  0  0  0  0  0  0  0  0  0
   48.3330   33.3340   42.8350 C   0  0  0  0  0  0  0  0  0  0  0  0
   47.0050   33.7840   42.3440 C   0  0  1  0  0  0  0  0  0  0  0  0
   47.3080   34.1160   39.9820 C   0  0  0  0  0  0  0  0  0  0  0  0
   48.2650   34.4610   39.0090 C   0  0  0  0  0  0  0  0  0  0  0  0
   48.3120   33.7570   37.8070 C   0  0  0  0  0  0  0  0  0  0  0  0
   47.3910   32.7480   37.6580 N   0  0  0  0  0  0  0  0  0  0  0  0
   46.4880   32.4380   38.6020 C   0  0  0  0  0  0  0  0  0  0  0  0
   46.4450   33.1200   39.7590 N   0  0  0  0  0  0  0  0  0  0  0  0
   46.1580   34.3800   43.4110 C   0  0  0  0  0  0  0  0  0  0  0  0
   45.4200   35.5500   43.2150 C   0  0  0  0  0  0  0  0  0  0  0  0
   44.6870   35.9700   44.3050 C   0  0  0  0  0  0  0  0  0  0  0  0
   44.6760   35.3060   45.4750 N   0  0  0  0  0  0  0  0  0  0  0  0
   45.3890   34.1920   45.6380 C   0  0  0  0  0  0  0  0  0  0  0  0
   46.1200   33.7470   44.5980 N   0  0  0  0  0  0  0  0  0  0  0  0
   46.5628   35.6677   41.1165 H   0  0  0  0  0  0  0  0  0  0  0  0
   49.2212   35.5960   40.8273 H   0  0  0  0  0  0  0  0  0  0  0  0
   48.3454   36.4888   42.0975 H   0  0  0  0  0  0  0  0  0  0  0  0
   50.2036   34.3254   42.4497 H   0  0  0  0  0  0  0  0  0  0  0  0
   49.2179   35.0969   43.7167 H   0  0  0  0  0  0  0  0  0  0  0  0
   48.7403   32.5364   42.1963 H   0  0  0  0  0  0  0  0  0  0  0  0
   48.2973   32.9104   43.8495 H   0  0  0  0  0  0  0  0  0  0  0  0
   46.4454   32.9175   41.9617 H   0  0  0  0  0  0  0  0  0  0  0  0
   48.9724   35.2823   39.1964 H   0  0  0  0  0  0  0  0  0  0  0  0
   49.0448   33.9955   37.0221 H   0  0  0  0  0  0  0  0  0  0  0  0
   45.7764   31.6177   38.4266 H   0  0  0  0  0  0  0  0  0  0  0  0
   45.4234   36.0966   42.2604 H   0  0  0  0  0  0  0  0  0  0  0  0
   44.0859   36.8867   44.2139 H   0  0  0  0  0  0  0  0  0  0  0  0
   45.3807   33.6508   46.5956 H   0  0  0  0  0  0  0  0  0  0  0  0
  1  2  1  0
  1  5  1  0
  2  3  1  0
  3  4  1  0
  5  4  1  0
  5 12  1  0
  6  1  1  0
  7  6  2  0
  8  7  1  0
  9  8  2  0
  9 10  1  0
 10 11  2  0
 11  6  1  0
 12 17  1  0
 13 12  2  0
 13 14  1  0
 14 15  2  0
 15 16  1  0
 17 16  2  0
  1 18  1  6
  2 19  1  0
  2 20  1  0
  3 21  1  0
  3 22  1  0
  4 23  1  0
  4 24  1  0
  5 25  1  6
  7 26  1  0
  8 27  1  0
 10 28  1  0
 13 29  1  0
 14 30  1  0
 16 31  1  0
M  ISO  8  18  13  19  13  20  13  21  13  22  13  23  13  24  13  25  13
M  ISO  6  26  14  27  14  28  14  29  14  30  14  31  14
M  END
>  <minimizedAffinity>  (1) 
-5.44017935

>  <minimizedRMSD>  (1) 
3.59130645

$$$$
