
     RDKit          3D

 29 31  0  0  1  0  0  0  0  0999 V2000
   46.9040   33.4350   41.3900 C   0  0  2  0  0  0  0  0  0  0  0  0
   45.8020   34.2290   40.7690 C   0  0  0  0  0  0  0  0  0  0  0  0
   46.5800   34.7990   41.9090 C   0  0  1  0  0  0  0  0  0  0  0  0
   45.9730   34.8050   43.2710 C   0  0  0  0  0  0  0  0  0  0  0  0
   46.3500   33.8400   44.1800 C   0  0  0  0  0  0  0  0  0  0  0  0
   45.8250   33.7890   45.4630 C   0  0  0  0  0  0  0  0  0  0  0  0
   44.8960   34.7700   45.7790 C   0  0  0  0  0  0  0  0  0  0  0  0
   44.5060   35.7450   44.8840 C   0  0  0  0  0  0  0  0  0  0  0  0
   45.0350   35.7850   43.6110 C   0  0  0  0  0  0  0  0  0  0  0  0
   48.2310   33.3670   40.6790 C   0  0  0  0  0  0  0  0  0  0  0  0
   49.2580   33.3490   41.4170 O   0  0  0  0  0  0  0  0  0  0  0  0
   48.3450   32.1480   37.1800 C   0  0  0  0  0  0  0  0  0  0  0  0
   48.2930   32.1190   38.6160 C   0  0  0  0  0  0  0  0  0  0  0  0
   48.2800   33.3330   39.2350 C   0  0  0  0  0  0  0  0  0  0  0  0
   48.3150   34.4710   38.4920 N   0  0  0  0  0  0  0  0  0  0  0  0
   48.3640   34.4670   37.1450 C   0  0  0  0  0  0  0  0  0  0  0  0
   48.3790   33.2910   36.4750 N   0  0  0  0  0  0  0  0  0  0  0  0
   46.9583   32.4102   41.7859 H   0  0  0  0  0  0  0  0  0  0  0  0
   45.9254   34.6433   39.7575 H   0  0  0  0  0  0  0  0  0  0  0  0
   44.7352   34.0526   40.5669 H   0  0  0  0  0  0  0  0  0  0  0  0
   47.1064   35.7538   42.0550 H   0  0  0  0  0  0  0  0  0  0  0  0
   47.0915   33.0856   43.8782 H   0  0  0  0  0  0  0  0  0  0  0  0
   46.1270   33.0173   46.1863 H   0  0  0  0  0  0  0  0  0  0  0  0
   44.4518   34.7704   46.7853 H   0  0  0  0  0  0  0  0  0  0  0  0
   43.7651   36.4986   45.1892 H   0  0  0  0  0  0  0  0  0  0  0  0
   44.7307   36.5584   42.8904 H   0  0  0  0  0  0  0  0  0  0  0  0
   48.3575   31.1928   36.6346 H   0  0  0  0  0  0  0  0  0  0  0  0
   48.2654   31.1753   39.1805 H   0  0  0  0  0  0  0  0  0  0  0  0
   48.3917   35.4172   36.5915 H   0  0  0  0  0  0  0  0  0  0  0  0
  1  3  1  0
  2  1  1  0
  2  3  1  0
  3  4  1  0
  4  9  1  0
  4  5  2  0
  5  6  1  0
  6  7  2  0
  8  7  1  0
  9  8  2  0
 10  1  1  0
 10 11  2  0
 12 13  2  0
 13 14  1  0
 14 10  1  0
 15 14  2  0
 16 15  1  0
 17 16  2  0
 17 12  1  0
  1 18  1  1
  2 19  1  0
  2 20  1  0
  3 21  1  6
  5 22  1  0
  6 23  1  0
  7 24  1  0
  8 25  1  0
  9 26  1  0
 12 27  1  0
 13 28  1  0
 16 29  1  0
M  ISO  8  18  13  19  13  20  13  21  13  22  14  23  14  24  14  25  14
M  ISO  4  26  14  27  14  28  14  29  14
M  END
>  <minimizedAffinity>  (1) 
-4.87013817

>  <minimizedRMSD>  (1) 
6.63447428

$$$$
