
     RDKit          3D

 32 34  0  0  1  0  0  0  0  0999 V2000
   46.3560   34.1510   40.7610 C   0  0  2  0  0  0  0  0  0  0  0  0
   46.6550   32.6900   40.6650 C   0  0  0  0  0  0  0  0  0  0  0  0
   47.4300   33.6630   39.8380 C   0  0  1  0  0  0  0  0  0  0  0  0
   47.1600   33.7630   38.3510 C   0  0  0  0  0  0  0  0  0  0  0  0
   47.0540   32.3740   37.7790 C   0  0  0  0  0  0  0  0  0  0  0  0
   47.7150   32.3980   36.4400 C   0  0  0  0  0  0  0  0  0  0  0  0
   48.7830   33.4530   36.5790 C   0  0  0  0  0  0  0  0  0  0  0  0
   48.3290   34.3880   37.6580 C   0  0  0  0  0  0  0  0  0  0  0  0
   46.8970   34.9170   41.9430 C   0  0  0  0  0  0  0  0  0  0  0  0
   48.0160   35.4720   41.7870 O   0  0  0  0  0  0  0  0  0  0  0  0
   44.5340   36.0030   44.5700 C   0  0  0  0  0  0  0  0  0  0  0  0
   45.2490   36.0030   43.3380 C   0  0  0  0  0  0  0  0  0  0  0  0
   46.1360   34.9790   43.1730 C   0  0  0  0  0  0  0  0  0  0  0  0
   46.2900   34.0480   44.1510 N   0  0  0  0  0  0  0  0  0  0  0  0
   45.5960   34.0760   45.3120 C   0  0  0  0  0  0  0  0  0  0  0  0
   44.6950   35.0730   45.5380 N   0  0  0  0  0  0  0  0  0  0  0  0
   45.4249   34.7318   40.6859 H   0  0  0  0  0  0  0  0  0  0  0  0
   47.1418   32.1724   41.5047 H   0  0  0  0  0  0  0  0  0  0  0  0
   46.0624   31.7882   40.4517 H   0  0  0  0  0  0  0  0  0  0  0  0
   48.5028   33.8599   39.6953 H   0  0  0  0  0  0  0  0  0  0  0  0
   46.2420   34.3519   38.2079 H   0  0  0  0  0  0  0  0  0  0  0  0
   47.5627   31.6549   38.4379 H   0  0  0  0  0  0  0  0  0  0  0  0
   46.0015   32.0668   37.6902 H   0  0  0  0  0  0  0  0  0  0  0  0
   46.9957   32.6710   35.6538 H   0  0  0  0  0  0  0  0  0  0  0  0
   48.1231   31.4180   36.1518 H   0  0  0  0  0  0  0  0  0  0  0  0
   49.7402   32.9885   36.8583 H   0  0  0  0  0  0  0  0  0  0  0  0
   48.9349   33.9887   35.6303 H   0  0  0  0  0  0  0  0  0  0  0  0
   49.1450   34.5521   38.3772 H   0  0  0  0  0  0  0  0  0  0  0  0
   48.0427   35.3585   37.2265 H   0  0  0  0  0  0  0  0  0  0  0  0
   43.8062   36.8091   44.7445 H   0  0  0  0  0  0  0  0  0  0  0  0
   45.0964   36.7766   42.5710 H   0  0  0  0  0  0  0  0  0  0  0  0
   45.7585   33.2966   46.0710 H   0  0  0  0  0  0  0  0  0  0  0  0
  1  9  1  0
  2  1  1  0
  3  2  1  0
  3  1  1  0
  4  3  1  0
  5  4  1  0
  6  7  1  0
  6  5  1  0
  7  8  1  0
  8  4  1  0
  9 13  1  0
 10  9  2  0
 11 16  2  0
 12 11  1  0
 13 12  2  0
 13 14  1  0
 14 15  2  0
 15 16  1  0
  1 17  1  6
  2 18  1  0
  2 19  1  0
  3 20  1  6
  4 21  1  0
  5 22  1  0
  5 23  1  0
  6 24  1  0
  6 25  1  0
  7 26  1  0
  7 27  1  0
  8 28  1  0
  8 29  1  0
 11 30  1  0
 12 31  1  0
 15 32  1  0
M  ISO  8  17  13  18  13  19  13  20  13  21  13  22  13  23  13  24  13
M  ISO  8  25  13  26  13  27  13  28  13  29  13  30  14  31  14  32  14
M  END
>  <minimizedAffinity>  (1) 
-4.66492939

>  <minimizedRMSD>  (1) 
1.06526577

$$$$
