
     RDKit          3D

 31 32  0  0  1  0  0  0  0  0999 V2000
   46.5220   34.7190   42.1510 C   0  0  0  0  0  0  0  0  0  0  0  0
   47.5690   35.3160   41.8330 O   0  0  0  0  0  0  0  0  0  0  0  0
   44.4550   35.9180   44.9720 C   0  0  0  0  0  0  0  0  0  0  0  0
   45.0670   35.8620   43.6730 C   0  0  0  0  0  0  0  0  0  0  0  0
   45.8940   34.8070   43.4460 C   0  0  0  0  0  0  0  0  0  0  0  0
   46.0990   33.8860   44.4210 N   0  0  0  0  0  0  0  0  0  0  0  0
   45.5140   33.9590   45.6340 C   0  0  0  0  0  0  0  0  0  0  0  0
   44.6780   34.9840   45.9270 N   0  0  0  0  0  0  0  0  0  0  0  0
   45.9610   33.8810   41.0610 C   0  0  2  0  0  0  0  0  0  0  0  0
   46.5760   32.6340   40.6020 C   0  0  0  0  0  0  0  0  0  0  0  0
   46.6310   33.8700   39.7770 C   0  0  2  0  0  0  0  0  0  0  0  0
   47.9990   34.1730   39.3680 C   0  0  0  0  0  0  0  0  0  0  0  0
   48.7360   35.1990   40.2150 C   0  0  0  0  0  0  0  0  0  0  0  0
   48.8160   32.9090   39.8040 C   0  0  0  0  0  0  0  0  0  0  0  0
   48.3010   34.2690   37.9070 C   0  0  0  0  0  0  0  0  0  0  0  0
   43.7774   36.7540   45.2001 H   0  0  0  0  0  0  0  0  0  0  0  0
   44.8774   36.6282   42.9068 H   0  0  0  0  0  0  0  0  0  0  0  0
   45.7163   33.1839   46.3878 H   0  0  0  0  0  0  0  0  0  0  0  0
   44.9532   34.1168   41.4336 H   0  0  0  0  0  0  0  0  0  0  0  0
   47.4855   32.2533   41.0897 H   0  0  0  0  0  0  0  0  0  0  0  0
   46.2329   31.6006   40.4458 H   0  0  0  0  0  0  0  0  0  0  0  0
   46.2835   34.3591   38.8550 H   0  0  0  0  0  0  0  0  0  0  0  0
   48.5767   34.9773   41.2806 H   0  0  0  0  0  0  0  0  0  0  0  0
   49.8116   35.1569   39.9885 H   0  0  0  0  0  0  0  0  0  0  0  0
   48.3527   36.2049   39.9885 H   0  0  0  0  0  0  0  0  0  0  0  0
   48.8505   32.8556   40.9022 H   0  0  0  0  0  0  0  0  0  0  0  0
   48.3312   32.0045   39.4080 H   0  0  0  0  0  0  0  0  0  0  0  0
   49.8398   32.9796   39.4080 H   0  0  0  0  0  0  0  0  0  0  0  0
   49.3410   34.5996   37.7685 H   0  0  0  0  0  0  0  0  0  0  0  0
   48.1642   33.2831   37.4387 H   0  0  0  0  0  0  0  0  0  0  0  0
   47.6200   34.9950   37.4387 H   0  0  0  0  0  0  0  0  0  0  0  0
  1  5  1  0
  2  1  2  0
  3  8  2  0
  4  3  1  0
  5  4  2  0
  5  6  1  0
  6  7  2  0
  7  8  1  0
  9  1  1  0
 10  9  1  0
 11 10  1  0
 11  9  1  0
 12 11  1  0
 12 14  1  0
 12 13  1  0
 15 12  1  0
  3 16  1  0
  4 17  1  0
  7 18  1  0
  9 19  1  6
 10 20  1  0
 10 21  1  0
 11 22  1  6
 13 23  1  0
 13 24  1  0
 13 25  1  0
 14 26  1  0
 14 27  1  0
 14 28  1  0
 15 29  1  0
 15 30  1  0
 15 31  1  0
M  ISO  8  16  14  17  14  18  14  19  13  20  13  21  13  22  13  23   8
M  ISO  8  24   8  25   8  26   8  27   8  28   8  29   8  30   8  31   8
M  END
>  <minimizedAffinity>  (1) 
-4.52784061

>  <minimizedRMSD>  (1) 
1.02122486

$$$$
