
     RDKit          3D

 24 26  0  0  1  0  0  0  0  0999 V2000
   46.7800   34.2480   40.6970 C   0  0  2  0  0  0  0  0  0  0  0  0
   46.8310   32.7550   40.7340 C   0  0  0  0  0  0  0  0  0  0  0  0
   47.9210   33.5140   40.0640 C   0  0  1  0  0  0  0  0  0  0  0  0
   48.0210   33.4930   38.5720 C   0  0  0  0  0  0  0  0  0  0  0  0
   48.4540   34.4830   37.7750 N   0  0  0  0  0  0  0  0  0  0  0  0
   48.4090   34.1270   36.5320 O   0  0  0  0  0  0  0  0  0  0  0  0
   47.9580   32.9240   36.4740 C   0  0  0  0  0  0  0  0  0  0  0  0
   47.6990   32.4860   37.7400 N   0  0  0  0  0  0  0  0  0  0  0  0
   47.1770   35.0100   41.9370 C   0  0  0  0  0  0  0  0  0  0  0  0
   48.2700   35.6410   41.8650 O   0  0  0  0  0  0  0  0  0  0  0  0
   44.5590   35.8590   44.4160 C   0  0  0  0  0  0  0  0  0  0  0  0
   45.3590   35.9310   43.2250 C   0  0  0  0  0  0  0  0  0  0  0  0
   46.3370   34.9870   43.1100 C   0  0  0  0  0  0  0  0  0  0  0  0
   46.5080   34.0560   44.0850 N   0  0  0  0  0  0  0  0  0  0  0  0
   45.7340   34.0160   45.2000 C   0  0  0  0  0  0  0  0  0  0  0  0
   44.7470   34.9290   45.3670 N   0  0  0  0  0  0  0  0  0  0  0  0
   46.0067   34.9665   40.3876 H   0  0  0  0  0  0  0  0  0  0  0  0
   47.0268   32.2355   41.6836 H   0  0  0  0  0  0  0  0  0  0  0  0
   46.1482   31.9473   40.4317 H   0  0  0  0  0  0  0  0  0  0  0  0
   49.0165   33.5401   40.1595 H   0  0  0  0  0  0  0  0  0  0  0  0
   47.8057   32.3423   35.5529 H   0  0  0  0  0  0  0  0  0  0  0  0
   43.7566   36.5984   44.5555 H   0  0  0  0  0  0  0  0  0  0  0  0
   45.1935   36.6986   42.4547 H   0  0  0  0  0  0  0  0  0  0  0  0
   45.9078   33.2450   45.9650 H   0  0  0  0  0  0  0  0  0  0  0  0
  1  2  1  0
  1  9  1  0
  3  1  1  0
  3  2  1  0
  4  3  1  0
  5  4  2  0
  6  5  1  0
  7  6  1  0
  7  8  2  0
  8  4  1  0
  9 13  1  0
 10  9  2  0
 11 16  2  0
 12 11  1  0
 13 12  2  0
 13 14  1  0
 14 15  2  0
 15 16  1  0
  1 17  1  6
  2 18  1  0
  2 19  1  0
  3 20  1  1
  7 21  1  0
 11 22  1  0
 12 23  1  0
 15 24  1  0
M  ISO  8  17  13  18  13  19  13  20  13  21  14  22  14  23  14  24  14
M  END
>  <minimizedAffinity>  (1) 
-4.51180124

>  <minimizedRMSD>  (1) 
1.00733924

$$$$
