
     RDKit          3D

 22 23  0  0  1  0  0  0  0  0999 V2000
   47.3980   35.0600   41.8690 C   0  0  0  0  0  0  0  0  0  0  0  0
   48.5010   35.6720   41.8820 O   0  0  0  0  0  0  0  0  0  0  0  0
   44.6640   35.6990   44.2890 C   0  0  0  0  0  0  0  0  0  0  0  0
   45.4990   35.8470   43.1290 C   0  0  0  0  0  0  0  0  0  0  0  0
   46.5240   34.9600   43.0090 C   0  0  0  0  0  0  0  0  0  0  0  0
   46.6950   34.0120   43.9640 N   0  0  0  0  0  0  0  0  0  0  0  0
   45.9040   33.8870   45.0440 C   0  0  0  0  0  0  0  0  0  0  0  0
   44.8690   34.7430   45.2130 N   0  0  0  0  0  0  0  0  0  0  0  0
   47.0100   34.4040   40.5650 C   0  0  2  0  0  0  0  0  0  0  0  0
   47.2030   32.9290   40.4310 C   0  0  0  0  0  0  0  0  0  0  0  0
   48.1880   33.8610   39.8120 C   0  0  1  0  0  0  0  0  0  0  0  0
   48.1380   34.0880   38.3350 C   0  0  0  0  0  0  0  0  0  0  0  0
   47.3450   33.4450   37.5820 O   0  0  0  0  0  0  0  0  0  0  0  0
   48.9640   35.0190   37.7200 O   0  0  0  0  0  0  0  0  0  0  0  0
   43.8236   36.3952   44.4270 H   0  0  0  0  0  0  0  0  0  0  0  0
   45.3198   36.6328   42.3804 H   0  0  0  0  0  0  0  0  0  0  0  0
   46.0962   33.0960   45.7839 H   0  0  0  0  0  0  0  0  0  0  0  0
   46.1573   35.0702   40.3673 H   0  0  0  0  0  0  0  0  0  0  0  0
   47.4896   32.3308   41.3085 H   0  0  0  0  0  0  0  0  0  0  0  0
   46.5858   32.0961   40.0631 H   0  0  0  0  0  0  0  0  0  0  0  0
   49.2837   33.9435   39.8642 H   0  0  0  0  0  0  0  0  0  0  0  0
   48.9148   35.1537   36.7404 H   0  0  0  0  0  0  0  0  0  0  0  0
  1  2  2  0
  1  5  1  0
  3  8  2  0
  4  3  1  0
  5  4  2  0
  5  6  1  0
  6  7  2  0
  7  8  1  0
  9  1  1  0
 10  9  1  0
 11 10  1  0
 11  9  1  0
 12 11  1  0
 13 12  2  0
 14 12  1  0
  3 15  1  0
  4 16  1  0
  7 17  1  0
  9 18  1  6
 10 19  1  0
 10 20  1  0
 11 21  1  1
 14 22  1  0
M  ISO  8  15  14  16  14  17  14  18  13  19  13  20  13  21  13  22   3
M  END
>  <minimizedAffinity>  (1) 
-4.49110985

>  <minimizedRMSD>  (1) 
0.571523905

$$$$
