
     RDKit          3D

 26 28  0  0  1  0  0  0  0  0999 V2000
   46.2240   34.2290   40.7910 C   0  0  2  0  0  0  0  0  0  0  0  0
   45.6230   32.8710   40.9370 C   0  0  0  0  0  0  0  0  0  0  0  0
   46.9760   33.0270   40.3290 C   0  0  2  0  0  0  0  0  0  0  0  0
   48.0500   32.4770   41.1000 N   0  0  0  0  0  0  0  0  0  0  0  0
   48.0920   31.7440   42.2540 C   0  0  0  0  0  0  0  0  0  0  0  0
   49.3960   31.4470   42.5980 C   0  0  0  0  0  0  0  0  0  0  0  0
   50.1960   31.9810   41.6750 N   0  0  0  0  0  0  0  0  0  0  0  0
   49.3800   32.5850   40.8000 C   0  0  0  0  0  0  0  0  0  0  0  0
   46.8250   34.8930   42.0010 C   0  0  0  0  0  0  0  0  0  0  0  0
   47.9710   35.3960   41.8430 O   0  0  0  0  0  0  0  0  0  0  0  0
   44.4930   35.8950   44.7020 C   0  0  0  0  0  0  0  0  0  0  0  0
   45.1820   35.9120   43.4420 C   0  0  0  0  0  0  0  0  0  0  0  0
   46.1020   34.9260   43.2500 C   0  0  0  0  0  0  0  0  0  0  0  0
   46.3090   34.0130   44.2270 N   0  0  0  0  0  0  0  0  0  0  0  0
   45.6560   34.0110   45.4050 C   0  0  0  0  0  0  0  0  0  0  0  0
   44.7260   34.9660   45.6610 N   0  0  0  0  0  0  0  0  0  0  0  0
   45.8549   35.1689   40.3547 H   0  0  0  0  0  0  0  0  0  0  0  0
   45.5170   32.4208   41.9350 H   0  0  0  0  0  0  0  0  0  0  0  0
   44.6792   32.4002   40.6245 H   0  0  0  0  0  0  0  0  0  0  0  0
   47.4762   32.7870   39.3792 H   0  0  0  0  0  0  0  0  0  0  0  0
   47.2076   31.4334   42.8296 H   0  0  0  0  0  0  0  0  0  0  0  0
   49.7178   30.8713   43.4784 H   0  0  0  0  0  0  0  0  0  0  0  0
   49.7492   33.1228   39.9143 H   0  0  0  0  0  0  0  0  0  0  0  0
   43.7404   36.6729   44.8981 H   0  0  0  0  0  0  0  0  0  0  0  0
   44.9788   36.6761   42.6772 H   0  0  0  0  0  0  0  0  0  0  0  0
   45.8755   33.2385   46.1567 H   0  0  0  0  0  0  0  0  0  0  0  0
  1  2  1  0
  1  9  1  0
  3  1  1  0
  3  2  1  0
  3  4  1  0
  4  5  1  0
  5  6  2  0
  7  6  1  0
  8  4  1  0
  8  7  2  0
  9 13  1  0
 10  9  2  0
 11 16  2  0
 12 11  1  0
 13 12  2  0
 13 14  1  0
 14 15  2  0
 15 16  1  0
  1 17  1  6
  2 18  1  0
  2 19  1  0
  3 20  1  6
  5 21  1  0
  6 22  1  0
  8 23  1  0
 11 24  1  0
 12 25  1  0
 15 26  1  0
M  ISO  8  17  13  18  13  19  13  20  13  21  14  22  14  23  14  24  14
M  ISO  2  25  14  26  14
M  END
>  <minimizedAffinity>  (1) 
-4.12268782

>  <minimizedRMSD>  (1) 
2.43707466

$$$$
