
     RDKit          3D

 34 36  0  0  1  0  0  0  0  0999 V2000
   48.9470   34.7790   41.1250 C   0  0  2  0  0  0  0  0  0  0  0  0
   48.9350   35.1540   42.5630 C   0  0  0  0  0  0  0  0  0  0  0  0
   47.6920   35.2700   41.7510 C   0  0  2  0  0  0  0  0  0  0  0  0
   46.6110   34.4060   42.1800 N   0  0  0  0  0  0  0  0  0  0  0  0
   45.5750   34.3340   41.1550 C   0  0  0  0  0  0  0  0  0  0  0  0
   44.1850   34.2420   41.6970 C   0  0  0  0  0  0  0  0  0  0  0  0
   43.8330   35.4820   42.5120 C   0  0  0  0  0  0  0  0  0  0  0  0
   45.1330   36.0370   43.1320 C   0  0  0  0  0  0  0  0  0  0  0  0
   45.9750   34.8200   43.4130 C   0  0  0  0  0  0  0  0  0  0  0  0
   48.9130   33.3520   40.6870 C   0  0  0  0  0  0  0  0  0  0  0  0
   48.4160   33.1720   39.5680 O   0  0  0  0  0  0  0  0  0  0  0  0
   51.2340   31.0770   42.4460 C   0  0  0  0  0  0  0  0  0  0  0  0
   50.7750   32.1190   41.6000 C   0  0  0  0  0  0  0  0  0  0  0  0
   49.4260   32.3100   41.5400 C   0  0  0  0  0  0  0  0  0  0  0  0
   48.5990   31.5160   42.2730 N   0  0  0  0  0  0  0  0  0  0  0  0
   49.0660   30.5220   43.0770 C   0  0  0  0  0  0  0  0  0  0  0  0
   50.4120   30.2960   43.1680 N   0  0  0  0  0  0  0  0  0  0  0  0
   49.6106   35.0617   40.2945 H   0  0  0  0  0  0  0  0  0  0  0  0
   49.0169   34.3751   43.3354 H   0  0  0  0  0  0  0  0  0  0  0  0
   49.5198   35.8402   43.1933 H   0  0  0  0  0  0  0  0  0  0  0  0
   46.9762   36.0406   41.4288 H   0  0  0  0  0  0  0  0  0  0  0  0
   45.7636   33.4450   40.5352 H   0  0  0  0  0  0  0  0  0  0  0  0
   45.6304   35.2713   40.5819 H   0  0  0  0  0  0  0  0  0  0  0  0
   43.4778   34.1492   40.8596 H   0  0  0  0  0  0  0  0  0  0  0  0
   44.1224   33.3617   42.3536 H   0  0  0  0  0  0  0  0  0  0  0  0
   43.3789   36.2409   41.8579 H   0  0  0  0  0  0  0  0  0  0  0  0
   43.1142   35.2246   43.3039 H   0  0  0  0  0  0  0  0  0  0  0  0
   45.6442   36.7071   42.4252 H   0  0  0  0  0  0  0  0  0  0  0  0
   44.9410   36.6278   44.0398 H   0  0  0  0  0  0  0  0  0  0  0  0
   45.3378   34.0077   43.7926 H   0  0  0  0  0  0  0  0  0  0  0  0
   46.7379   35.0563   44.1694 H   0  0  0  0  0  0  0  0  0  0  0  0
   52.3173   30.8991   42.5147 H   0  0  0  0  0  0  0  0  0  0  0  0
   51.4726   32.7421   41.0211 H   0  0  0  0  0  0  0  0  0  0  0  0
   48.3627   29.9019   43.6522 H   0  0  0  0  0  0  0  0  0  0  0  0
  1  3  1  0
  1  2  1  0
  3  4  1  0
  3  2  1  0
  4  9  1  0
  5  6  1  0
  5  4  1  0
  6  7  1  0
  7  8  1  0
  8  9  1  0
 10  1  1  0
 10 14  1  0
 11 10  2  0
 12 17  2  0
 13 12  1  0
 14 13  2  0
 14 15  1  0
 15 16  2  0
 16 17  1  0
  1 18  1  6
  2 19  1  0
  2 20  1  0
  3 21  1  6
  5 22  1  0
  5 23  1  0
  6 24  1  0
  6 25  1  0
  7 26  1  0
  7 27  1  0
  8 28  1  0
  8 29  1  0
  9 30  1  0
  9 31  1  0
 12 32  1  0
 13 33  1  0
 16 34  1  0
M  ISO  8  18  13  19  13  20  13  21  13  22  13  23  13  24  13  25  13
M  ISO  8  26  13  27  13  28  13  29  13  30  13  31  13  32  14  33  14
M  ISO  1  34  14
M  END
>  <minimizedAffinity>  (1) 
-3.91293669

>  <minimizedRMSD>  (1) 
5.18117666

$$$$
