
     RDKit          3D

 32 34  0  0  1  0  0  0  0  0999 V2000
   47.0480   33.2870   41.7260 C   0  0  2  0  0  0  0  0  0  0  0  0
   48.2200   33.3150   42.6780 C   0  0  0  0  0  0  0  0  0  0  0  0
   48.3370   33.8750   41.3350 C   0  0  1  0  0  0  0  0  0  0  0  0
   48.7140   33.3050   40.0610 N   0  0  0  0  0  0  0  0  0  0  0  0
   47.8910   33.6860   39.0770 C   0  0  0  0  0  0  0  0  0  0  0  0
   48.0920   33.2390   37.7700 C   0  0  0  0  0  0  0  0  0  0  0  0
   49.1580   32.3880   37.4900 C   0  0  0  0  0  0  0  0  0  0  0  0
   49.4450   31.9170   36.3610 O   0  0  0  0  0  0  0  0  0  0  0  0
   49.9380   32.0490   38.5290 N   0  0  0  0  0  0  0  0  0  0  0  0
   49.7410   32.4820   39.7830 C   0  0  0  0  0  0  0  0  0  0  0  0
   50.4520   32.1830   40.7740 O   0  0  0  0  0  0  0  0  0  0  0  0
   48.6930   35.3220   41.3740 C   0  0  0  0  0  0  0  0  0  0  0  0
   47.8900   36.1210   42.1840 F   0  0  0  0  0  0  0  0  0  0  0  0
   49.9530   35.4330   41.9730 F   0  0  0  0  0  0  0  0  0  0  0  0
   48.9130   35.9230   40.1410 F   0  0  0  0  0  0  0  0  0  0  0  0
   45.8850   34.1710   41.9200 C   0  0  0  0  0  0  0  0  0  0  0  0
   45.3440   34.5520   40.8650 O   0  0  0  0  0  0  0  0  0  0  0  0
   44.4600   35.9900   44.8040 C   0  0  0  0  0  0  0  0  0  0  0  0
   44.8400   35.7220   43.4440 C   0  0  0  0  0  0  0  0  0  0  0  0
   45.4530   34.5410   43.2330 C   0  0  0  0  0  0  0  0  0  0  0  0
   45.6630   33.7030   44.2980 N   0  0  0  0  0  0  0  0  0  0  0  0
   45.2990   33.9730   45.5620 C   0  0  0  0  0  0  0  0  0  0  0  0
   44.6800   35.1480   45.8290 N   0  0  0  0  0  0  0  0  0  0  0  0
   46.3810   32.5006   41.3430 H   0  0  0  0  0  0  0  0  0  0  0  0
   48.2038   33.9802   43.5539 H   0  0  0  0  0  0  0  0  0  0  0  0
   48.7708   32.5633   43.2625 H   0  0  0  0  0  0  0  0  0  0  0  0
   47.0487   34.3574   39.3001 H   0  0  0  0  0  0  0  0  0  0  0  0
   47.4122   33.5572   36.9659 H   0  0  0  0  0  0  0  0  0  0  0  0
   50.7341   31.4197   38.3527 H   0  0  0  0  0  0  0  0  0  0  0  0
   43.9574   36.9443   45.0200 H   0  0  0  0  0  0  0  0  0  0  0  0
   44.6433   36.4342   42.6291 H   0  0  0  0  0  0  0  0  0  0  0  0
   45.5002   33.2516   46.3677 H   0  0  0  0  0  0  0  0  0  0  0  0
  1 16  1  0
  1  2  1  0
  3 12  1  1
  3  1  1  0
  3  2  1  0
  4  3  1  0
  5  4  1  0
  6  5  2  0
  7  6  1  0
  7  9  1  0
  8  7  2  0
  9 10  1  0
 10  4  1  0
 10 11  2  0
 12 14  1  0
 12 13  1  0
 15 12  1  0
 16 20  1  0
 17 16  2  0
 18 23  2  0
 19 18  1  0
 20 19  2  0
 20 21  1  0
 21 22  2  0
 22 23  1  0
  1 24  1  6
  2 25  1  0
  2 26  1  0
  5 27  1  0
  6 28  1  0
  9 29  1  0
 18 30  1  0
 19 31  1  0
 22 32  1  0
M  ISO  8  24  13  25  13  26  13  27  14  28  14  29   9  30  14  31  14
M  ISO  1  32  14
M  END
>  <minimizedAffinity>  (1) 
-5.90433359

>  <minimizedRMSD>  (1) 
3.38918018

$$$$
