
     RDKit          3D

 38 41  0  0  1  0  0  0  0  0999 V2000
   46.2380   34.1350   40.9370 C   0  0  2  0  0  0  0  0  0  0  0  0
   45.6660   32.7490   41.1220 C   0  0  0  0  0  0  0  0  0  0  0  0
   46.9470   32.9250   40.4900 C   0  0  1  0  0  0  0  0  0  0  0  0
   47.3600   33.1890   39.0840 C   0  0  0  0  0  0  0  0  0  0  0  0
   48.1930   34.2800   38.8120 C   0  0  0  0  0  0  0  0  0  0  0  0
   48.6380   34.6050   37.5460 C   0  0  0  0  0  0  0  0  0  0  0  0
   48.2060   33.7710   36.5380 C   0  0  0  0  0  0  0  0  0  0  0  0
   47.3870   32.6760   36.7160 C   0  0  0  0  0  0  0  0  0  0  0  0
   46.9860   31.8770   35.6610 C   0  0  0  0  0  0  0  0  0  0  0  0
   46.1600   30.7940   35.9090 C   0  0  0  0  0  0  0  0  0  0  0  0
   45.7490   30.5250   37.2030 C   0  0  0  0  0  0  0  0  0  0  0  0
   46.1720   31.3460   38.2270 C   0  0  0  0  0  0  0  0  0  0  0  0
   46.9870   32.4220   38.0110 C   0  0  0  0  0  0  0  0  0  0  0  0
   48.0550   32.2540   41.2260 C   0  0  0  0  0  0  0  0  0  0  0  0
   47.7420   31.8520   42.5220 F   0  0  0  0  0  0  0  0  0  0  0  0
   48.3270   31.0450   40.5840 F   0  0  0  0  0  0  0  0  0  0  0  0
   49.2970   32.8630   41.1660 F   0  0  0  0  0  0  0  0  0  0  0  0
   46.7480   34.9080   42.0730 C   0  0  0  0  0  0  0  0  0  0  0  0
   47.8430   35.4680   41.8640 O   0  0  0  0  0  0  0  0  0  0  0  0
   44.4630   35.9560   44.7840 C   0  0  0  0  0  0  0  0  0  0  0  0
   45.1290   35.9730   43.5050 C   0  0  0  0  0  0  0  0  0  0  0  0
   46.0140   34.9790   43.3040 C   0  0  0  0  0  0  0  0  0  0  0  0
   46.2180   34.0480   44.2930 N   0  0  0  0  0  0  0  0  0  0  0  0
   45.5840   34.0550   45.4780 C   0  0  0  0  0  0  0  0  0  0  0  0
   44.6810   35.0300   45.7420 N   0  0  0  0  0  0  0  0  0  0  0  0
   45.8894   35.0719   40.4780 H   0  0  0  0  0  0  0  0  0  0  0  0
   45.6043   32.3086   42.1281 H   0  0  0  0  0  0  0  0  0  0  0  0
   44.7237   32.2522   40.8476 H   0  0  0  0  0  0  0  0  0  0  0  0
   48.5108   34.9136   39.6531 H   0  0  0  0  0  0  0  0  0  0  0  0
   49.2915   35.4691   37.3556 H   0  0  0  0  0  0  0  0  0  0  0  0
   48.5395   33.9955   35.5141 H   0  0  0  0  0  0  0  0  0  0  0  0
   47.3194   32.0993   34.6366 H   0  0  0  0  0  0  0  0  0  0  0  0
   45.8314   30.1494   35.0804 H   0  0  0  0  0  0  0  0  0  0  0  0
   45.0931   29.6670   37.4119 H   0  0  0  0  0  0  0  0  0  0  0  0
   45.8421   31.1275   39.2534 H   0  0  0  0  0  0  0  0  0  0  0  0
   43.7298   36.7490   44.9926 H   0  0  0  0  0  0  0  0  0  0  0  0
   44.9279   36.7442   42.7469 H   0  0  0  0  0  0  0  0  0  0  0  0
   45.7961   33.2769   46.2261 H   0  0  0  0  0  0  0  0  0  0  0  0
  1  2  1  0
  1 18  1  0
  3  1  1  0
  3  2  1  0
  3 14  1  1
  4  3  1  0
  5  4  2  0
  6  5  1  0
  7  8  1  0
  7  6  2  0
  8 13  2  0
  9 10  2  0
  9  8  1  0
 10 11  1  0
 11 12  2  0
 13 12  1  0
 13  4  1  0
 14 15  1  0
 16 14  1  0
 17 14  1  0
 18 22  1  0
 19 18  2  0
 20 25  2  0
 21 20  1  0
 22 21  2  0
 22 23  1  0
 23 24  2  0
 24 25  1  0
  1 26  1  6
  2 27  1  0
  2 28  1  0
  5 29  1  0
  6 30  1  0
  7 31  1  0
  9 32  1  0
 10 33  1  0
 11 34  1  0
 12 35  1  0
 20 36  1  0
 21 37  1  0
 24 38  1  0
M  ISO  8  26  13  27  13  28  13  29  14  30  14  31  14  32  14  33  14
M  ISO  5  34  14  35  14  36  14  37  14  38  14
M  END
>  <minimizedAffinity>  (1) 
-5.53846169

>  <minimizedRMSD>  (1) 
3.06882143

$$$$
