
     RDKit          3D

 29 30  0  0  1  0  0  0  0  0999 V2000
   46.0620   33.8040   41.0710 C   0  0  2  0  0  0  0  0  0  0  0  0
   46.7040   32.4470   40.9510 C   0  0  0  0  0  0  0  0  0  0  0  0
   46.9460   33.4770   39.9440 C   0  0  1  0  0  0  0  0  0  0  0  0
   46.2460   33.8290   38.7260 N   0  0  0  0  0  0  0  0  0  0  0  0
   45.5770   32.9700   37.8160 C   0  0  0  0  0  0  0  0  0  0  0  0
   46.1200   31.8020   37.7630 N   0  0  0  0  0  0  0  0  0  0  0  0
   44.4590   33.6080   37.1760 N   0  0  0  0  0  0  0  0  0  0  0  0
   45.7980   31.0180   37.1690 H   0  0  0  0  0  0  0  0  0  0  0  0
   48.3960   33.8010   39.8320 C   0  0  0  0  0  0  0  0  0  0  0  0
   49.1940   33.3940   40.8940 F   0  0  0  0  0  0  0  0  0  0  0  0
   48.9060   33.0820   38.7470 F   0  0  0  0  0  0  0  0  0  0  0  0
   48.6860   35.1080   39.4540 F   0  0  0  0  0  0  0  0  0  0  0  0
   46.5160   34.7850   42.0710 C   0  0  0  0  0  0  0  0  0  0  0  0
   47.4840   35.4930   41.7080 O   0  0  0  0  0  0  0  0  0  0  0  0
   44.4720   35.9000   44.9440 C   0  0  0  0  0  0  0  0  0  0  0  0
   45.0470   35.9060   43.6180 C   0  0  0  0  0  0  0  0  0  0  0  0
   45.8750   34.8800   43.3450 C   0  0  0  0  0  0  0  0  0  0  0  0
   46.1010   33.9380   44.3120 N   0  0  0  0  0  0  0  0  0  0  0  0
   45.5580   33.9480   45.5370 C   0  0  0  0  0  0  0  0  0  0  0  0
   44.7150   34.9580   45.8730 N   0  0  0  0  0  0  0  0  0  0  0  0
   45.0286   34.1578   41.2007 H   0  0  0  0  0  0  0  0  0  0  0  0
   47.5065   32.1530   41.6435 H   0  0  0  0  0  0  0  0  0  0  0  0
   46.3405   31.4089   40.9356 H   0  0  0  0  0  0  0  0  0  0  0  0
   46.2320   34.8315   38.4900 H   0  0  0  0  0  0  0  0  0  0  0  0
   43.8912   33.0875   36.4922 H   0  0  0  0  0  0  0  0  0  0  0  0
   44.2258   34.5856   37.4012 H   0  0  0  0  0  0  0  0  0  0  0  0
   43.7901   36.7206   45.2114 H   0  0  0  0  0  0  0  0  0  0  0  0
   44.8238   36.6936   42.8833 H   0  0  0  0  0  0  0  0  0  0  0  0
   45.7913   33.1511   46.2585 H   0  0  0  0  0  0  0  0  0  0  0  0
  1 13  1  0
  2  1  1  0
  3  4  1  6
  3  2  1  0
  3  1  1  0
  5  4  1  0
  6  5  2  0
  7  5  1  0
  8  6  1  0
  9  3  1  0
  9 10  1  0
 11  9  1  0
 12  9  1  0
 13 17  1  0
 14 13  2  0
 15 20  2  0
 16 15  1  0
 17 16  2  0
 17 18  1  0
 18 19  2  0
 19 20  1  0
  1 21  1  6
  2 22  1  0
  2 23  1  0
  4 24  1  0
  7 25  1  0
  7 26  1  0
 15 27  1  0
 16 28  1  0
 19 29  1  0
M  ISO  6  21  13  22  13  23  13  27  14  28  14  29  14
M  END
>  <minimizedAffinity>  (1) 
-5.02830839

>  <minimizedRMSD>  (1) 
0.668999314

$$$$
