
     RDKit          3D

 29 31  0  0  1  0  0  0  0  0999 V2000
   46.2740   33.3040   41.3990 C   0  0  2  0  0  0  0  0  0  0  0  0
   47.1990   32.1240   41.4980 C   0  0  0  0  0  0  0  0  0  0  0  0
   47.2010   32.9710   40.3080 C   0  0  1  0  0  0  0  0  0  0  0  0
   46.4100   32.9170   39.0520 C   0  0  0  0  0  0  0  0  0  0  0  0
   45.1240   33.1540   38.9540 C   0  0  0  0  0  0  0  0  0  0  0  0
   44.4050   33.0990   37.7920 C   0  0  0  0  0  0  0  0  0  0  0  0
   45.2260   32.7520   36.6850 C   0  0  0  0  0  0  0  0  0  0  0  0
   46.9440   32.5300   37.3780 S   0  0  0  0  0  0  0  0  0  0  0  0
   48.5380   33.5840   40.0770 C   0  0  0  0  0  0  0  0  0  0  0  0
   49.3530   33.7030   41.1980 F   0  0  0  0  0  0  0  0  0  0  0  0
   49.2590   32.7220   39.2430 F   0  0  0  0  0  0  0  0  0  0  0  0
   48.5390   34.7570   39.3300 F   0  0  0  0  0  0  0  0  0  0  0  0
   46.4880   34.5300   42.1780 C   0  0  0  0  0  0  0  0  0  0  0  0
   47.2580   35.3530   41.6460 O   0  0  0  0  0  0  0  0  0  0  0  0
   44.4790   35.8800   44.9730 C   0  0  0  0  0  0  0  0  0  0  0  0
   45.0580   35.7860   43.6510 C   0  0  0  0  0  0  0  0  0  0  0  0
   45.8480   34.7150   43.4430 C   0  0  0  0  0  0  0  0  0  0  0  0
   46.0420   33.8180   44.4610 N   0  0  0  0  0  0  0  0  0  0  0  0
   45.4950   33.9220   45.6820 C   0  0  0  0  0  0  0  0  0  0  0  0
   44.6910   34.9770   45.9560 N   0  0  0  0  0  0  0  0  0  0  0  0
   45.1886   33.4419   41.5127 H   0  0  0  0  0  0  0  0  0  0  0  0
   48.0510   32.1479   42.1934 H   0  0  0  0  0  0  0  0  0  0  0  0
   47.0747   31.0482   41.6907 H   0  0  0  0  0  0  0  0  0  0  0  0
   44.5832   33.4166   39.8752 H   0  0  0  0  0  0  0  0  0  0  0  0
   43.3255   33.2985   37.7227 H   0  0  0  0  0  0  0  0  0  0  0  0
   44.9133   32.6379   35.6366 H   0  0  0  0  0  0  0  0  0  0  0  0
   43.8267   36.7383   45.1916 H   0  0  0  0  0  0  0  0  0  0  0  0
   44.8666   36.5366   42.8700 H   0  0  0  0  0  0  0  0  0  0  0  0
   45.6969   33.1607   46.4499 H   0  0  0  0  0  0  0  0  0  0  0  0
  1  2  1  0
  1 13  1  0
  3  9  1  6
  3  1  1  0
  3  2  1  0
  4  3  1  0
  5  4  2  0
  6  5  1  0
  7  8  1  0
  7  6  2  0
  8  4  1  0
  9 10  1  0
 11  9  1  0
 12  9  1  0
 13 17  1  0
 14 13  2  0
 15 20  2  0
 16 15  1  0
 17 16  2  0
 17 18  1  0
 18 19  2  0
 19 20  1  0
  1 21  1  6
  2 22  1  0
  2 23  1  0
  5 24  1  0
  6 25  1  0
  7 26  1  0
 15 27  1  0
 16 28  1  0
 19 29  1  0
M  ISO  8  21  13  22  13  23  13  24  14  25  14  26  14  27  14  28  14
M  ISO  1  29  14
M  END
>  <minimizedAffinity>  (1) 
-4.5201726

>  <minimizedRMSD>  (1) 
1.41799366

$$$$
