
     RDKit          3D

 31 32  0  0  1  0  0  0  0  0999 V2000
   46.1750   33.3900   41.2590 C   0  0  2  0  0  0  0  0  0  0  0  0
   47.0350   32.1530   41.2430 C   0  0  0  0  0  0  0  0  0  0  0  0
   47.0340   33.0750   40.1120 C   0  0  2  0  0  0  0  0  0  0  0  0
   48.3920   33.6250   39.8470 C   0  0  0  0  0  0  0  0  0  0  0  0
   49.2930   33.5400   40.9080 F   0  0  0  0  0  0  0  0  0  0  0  0
   48.9900   32.8310   38.8630 F   0  0  0  0  0  0  0  0  0  0  0  0
   48.4310   34.8810   39.2570 F   0  0  0  0  0  0  0  0  0  0  0  0
   46.1620   33.1530   38.8790 C   0  0  0  0  0  0  0  0  0  0  0  0
   44.7240   33.3160   39.3650 C   0  0  0  0  0  0  0  0  0  0  0  0
   46.2080   31.8740   38.0710 C   0  0  0  0  0  0  0  0  0  0  0  0
   46.5020   34.5520   42.1010 C   0  0  0  0  0  0  0  0  0  0  0  0
   47.3560   35.3240   41.6160 O   0  0  0  0  0  0  0  0  0  0  0  0
   44.4860   35.8710   44.9080 C   0  0  0  0  0  0  0  0  0  0  0  0
   45.0590   35.7910   43.5830 C   0  0  0  0  0  0  0  0  0  0  0  0
   45.8670   34.7320   43.3700 C   0  0  0  0  0  0  0  0  0  0  0  0
   46.0790   33.8390   44.3880 N   0  0  0  0  0  0  0  0  0  0  0  0
   45.5360   33.9350   45.6120 C   0  0  0  0  0  0  0  0  0  0  0  0
   44.7160   34.9760   45.8890 N   0  0  0  0  0  0  0  0  0  0  0  0
   45.1053   33.5811   41.4299 H   0  0  0  0  0  0  0  0  0  0  0  0
   47.9157   32.0845   41.8985 H   0  0  0  0  0  0  0  0  0  0  0  0
   46.8574   31.0753   41.3736 H   0  0  0  0  0  0  0  0  0  0  0  0
   46.5139   33.9830   38.2487 H   0  0  0  0  0  0  0  0  0  0  0  0
   44.7067   33.3180   40.4649 H   0  0  0  0  0  0  0  0  0  0  0  0
   44.3158   34.2662   38.9902 H   0  0  0  0  0  0  0  0  0  0  0  0
   44.1134   32.4813   38.9902 H   0  0  0  0  0  0  0  0  0  0  0  0
   46.2390   31.0109   38.7522 H   0  0  0  0  0  0  0  0  0  0  0  0
   45.3116   31.8085   37.4368 H   0  0  0  0  0  0  0  0  0  0  0  0
   47.1068   31.8731   37.4368 H   0  0  0  0  0  0  0  0  0  0  0  0
   43.8191   36.7172   45.1298 H   0  0  0  0  0  0  0  0  0  0  0  0
   44.8510   36.5399   42.8046 H   0  0  0  0  0  0  0  0  0  0  0  0
   45.7544   33.1780   46.3796 H   0  0  0  0  0  0  0  0  0  0  0  0
  1 11  1  0
  2  1  1  0
  3  8  1  6
  3  2  1  0
  3  1  1  0
  4  3  1  0
  4  5  1  0
  6  4  1  0
  7  4  1  0
  8  9  1  0
 10  8  1  0
 11 15  1  0
 12 11  2  0
 13 18  2  0
 14 13  1  0
 15 14  2  0
 15 16  1  0
 16 17  2  0
 17 18  1  0
  1 19  1  6
  2 20  1  0
  2 21  1  0
  8 22  1  0
  9 23  1  0
  9 24  1  0
  9 25  1  0
 10 26  1  0
 10 27  1  0
 10 28  1  0
 13 29  1  0
 14 30  1  0
 17 31  1  0
M  ISO  8  19  13  20  13  21  13  22   8  23   8  24   8  25   8  26   8
M  ISO  5  27   8  28   8  29  14  30  14  31  14
M  END
>  <minimizedAffinity>  (1) 
-4.29688597

>  <minimizedRMSD>  (1) 
0.94729507

$$$$
