
     RDKit          3D

 29 31  0  0  1  0  0  0  0  0999 V2000
   48.4660   32.8130   42.2590 C   0  0  2  0  0  0  0  0  0  0  0  0
   47.8180   31.9340   41.2250 C   0  0  0  0  0  0  0  0  0  0  0  0
   47.6130   33.3830   41.2080 C   0  0  1  0  0  0  0  0  0  0  0  0
   46.6230   34.2190   41.8500 N   0  0  0  0  0  0  0  0  0  0  0  0
   46.6960   35.3570   42.5570 N   0  0  0  0  0  0  0  0  0  0  0  0
   45.4570   35.7140   42.9280 C   0  0  0  0  0  0  0  0  0  0  0  0
   44.5580   34.7670   42.4390 C   0  0  0  0  0  0  0  0  0  0  0  0
   45.3350   33.8470   41.7680 C   0  0  0  0  0  0  0  0  0  0  0  0
   48.0800   33.9790   39.9270 C   0  0  0  0  0  0  0  0  0  0  0  0
   48.9660   33.2030   39.1810 F   0  0  0  0  0  0  0  0  0  0  0  0
   46.9710   34.0990   39.0820 F   0  0  0  0  0  0  0  0  0  0  0  0
   48.5250   35.2940   40.0000 F   0  0  0  0  0  0  0  0  0  0  0  0
   49.9110   33.0930   42.2450 C   0  0  0  0  0  0  0  0  0  0  0  0
   50.2120   34.2710   42.4960 O   0  0  0  0  0  0  0  0  0  0  0  0
   52.0350   30.0770   42.4380 C   0  0  0  0  0  0  0  0  0  0  0  0
   51.0650   31.0550   42.8330 C   0  0  0  0  0  0  0  0  0  0  0  0
   50.8510   32.0550   41.9520 C   0  0  0  0  0  0  0  0  0  0  0  0
   51.5570   32.0640   40.7760 N   0  0  0  0  0  0  0  0  0  0  0  0
   52.4630   31.1350   40.4250 C   0  0  0  0  0  0  0  0  0  0  0  0
   52.7170   30.1090   41.2720 N   0  0  0  0  0  0  0  0  0  0  0  0
   48.4893   32.8178   43.3587 H   0  0  0  0  0  0  0  0  0  0  0  0
   48.4298   31.4540   40.4470 H   0  0  0  0  0  0  0  0  0  0  0  0
   47.1615   31.0517   41.2493 H   0  0  0  0  0  0  0  0  0  0  0  0
   45.1946   36.6041   43.5186 H   0  0  0  0  0  0  0  0  0  0  0  0
   43.4650   34.7563   42.5621 H   0  0  0  0  0  0  0  0  0  0  0  0
   44.9605   32.9523   41.2490 H   0  0  0  0  0  0  0  0  0  0  0  0
   52.2377   29.2457   43.1293 H   0  0  0  0  0  0  0  0  0  0  0  0
   50.5295   30.9947   43.7920 H   0  0  0  0  0  0  0  0  0  0  0  0
   52.9911   31.2071   39.4627 H   0  0  0  0  0  0  0  0  0  0  0  0
  2  1  1  0
  3  9  1  6
  3  2  1  0
  3  4  1  0
  3  1  1  0
  4  5  1  0
  5  6  2  0
  7  6  1  0
  8  4  1  0
  8  7  2  0
  9 12  1  0
 10  9  1  0
 11  9  1  0
 13  1  1  0
 13 14  2  0
 15 16  2  0
 17 13  1  0
 17 16  1  0
 18 17  2  0
 19 18  1  0
 19 20  2  0
 20 15  1  0
  1 21  1  1
  2 22  1  0
  2 23  1  0
  6 24  1  0
  7 25  1  0
  8 26  1  0
 15 27  1  0
 16 28  1  0
 19 29  1  0
M  ISO  8  21  13  22  13  23  13  24  14  25  14  26  14  27  14  28  14
M  ISO  1  29  14
M  END
>  <minimizedAffinity>  (1) 
-4.24326658

>  <minimizedRMSD>  (1) 
5.34468174

$$$$
