
     RDKit          3D

 33 35  0  0  1  0  0  0  0  0999 V2000
   46.9140   31.8020   40.8100 C   0  0  2  0  0  0  0  0  0  0  0  0
   46.5720   32.6180   42.0310 C   0  0  0  0  0  0  0  0  0  0  0  0
   47.6510   33.0330   41.1350 C   0  0  1  0  0  0  0  0  0  0  0  0
   49.0600   32.7080   41.1090 N   0  0  0  0  0  0  0  0  0  0  0  0
   49.3760   32.0150   40.0050 C   0  0  0  0  0  0  0  0  0  0  0  0
   50.6880   31.5890   39.7640 C   0  0  0  0  0  0  0  0  0  0  0  0
   51.6560   31.9090   40.7060 C   0  0  0  0  0  0  0  0  0  0  0  0
   53.0050   31.5030   40.5110 N   0  0  0  0  0  0  0  0  0  0  0  0
   51.2860   32.6070   41.7950 N   0  0  0  0  0  0  0  0  0  0  0  0
   50.0190   33.0030   42.0050 C   0  0  0  0  0  0  0  0  0  0  0  0
   49.6000   33.6550   42.9950 O   0  0  0  0  0  0  0  0  0  0  0  0
   47.3990   34.3860   40.5680 C   0  0  0  0  0  0  0  0  0  0  0  0
   48.3910   35.3340   40.7940 F   0  0  0  0  0  0  0  0  0  0  0  0
   47.3820   34.2660   39.1750 F   0  0  0  0  0  0  0  0  0  0  0  0
   46.1380   34.9180   40.8220 F   0  0  0  0  0  0  0  0  0  0  0  0
   46.0400   31.7840   39.6260 C   0  0  0  0  0  0  0  0  0  0  0  0
   46.6100   31.4740   38.5630 O   0  0  0  0  0  0  0  0  0  0  0  0
   42.4270   31.6910   40.3990 C   0  0  0  0  0  0  0  0  0  0  0  0
   43.7960   31.2680   40.3560 C   0  0  0  0  0  0  0  0  0  0  0  0
   44.6500   32.1110   39.7400 C   0  0  0  0  0  0  0  0  0  0  0  0
   44.1620   33.2790   39.2150 N   0  0  0  0  0  0  0  0  0  0  0  0
   42.8730   33.6570   39.2650 C   0  0  0  0  0  0  0  0  0  0  0  0
   41.9710   32.8490   39.8720 N   0  0  0  0  0  0  0  0  0  0  0  0
   47.1615   30.7446   40.6349 H   0  0  0  0  0  0  0  0  0  0  0  0
   45.6335   33.1907   42.0668 H   0  0  0  0  0  0  0  0  0  0  0  0
   46.4857   32.4139   43.1085 H   0  0  0  0  0  0  0  0  0  0  0  0
   48.5890   31.7766   39.2744 H   0  0  0  0  0  0  0  0  0  0  0  0
   50.9431   31.0196   38.8581 H   0  0  0  0  0  0  0  0  0  0  0  0
   53.7211   31.7419   41.2117 H   0  0  0  0  0  0  0  0  0  0  0  0
   53.2659   30.9701   39.6691 H   0  0  0  0  0  0  0  0  0  0  0  0
   41.7000   31.0298   40.8933 H   0  0  0  0  0  0  0  0  0  0  0  0
   44.1288   30.3168   40.7971 H   0  0  0  0  0  0  0  0  0  0  0  0
   42.5546   34.6106   38.8186 H   0  0  0  0  0  0  0  0  0  0  0  0
  1  3  1  0
  1  2  1  0
  3 12  1  6
  3  2  1  0
  4  3  1  0
  4 10  1  0
  5  4  1  0
  6  5  2  0
  6  7  1  0
  7  9  2  0
  8  7  1  0
  9 10  1  0
 10 11  2  0
 12 13  1  0
 12 15  1  0
 14 12  1  0
 16 20  1  0
 16  1  1  0
 17 16  2  0
 19 18  2  0
 20 19  1  0
 21 22  1  0
 21 20  2  0
 22 23  2  0
 23 18  1  0
  1 24  1  1
  2 25  1  0
  2 26  1  0
  5 27  1  0
  6 28  1  0
  8 29  1  0
  8 30  1  0
 18 31  1  0
 19 32  1  0
 22 33  1  0
M  ISO  8  24  13  25  13  26  13  27  14  28  14  31  14  32  14  33  14
M  END
>  <minimizedAffinity>  (1) 
-4.20531702

>  <minimizedRMSD>  (1) 
5.76353407

$$$$
