
     RDKit          3D

 24 25  0  0  1  0  0  0  0  0999 V2000
   46.8600   34.2520   40.7020 C   0  0  2  0  0  0  0  0  0  0  0  0
   46.3590   32.8350   40.7850 C   0  0  0  0  0  0  0  0  0  0  0  0
   47.7080   33.1180   40.3000 C   0  0  2  0  0  0  0  0  0  0  0  0
   48.7410   32.4510   41.1390 C   0  0  0  0  0  0  0  0  0  0  0  0
   48.3080   31.9770   42.3740 F   0  0  0  0  0  0  0  0  0  0  0  0
   49.1450   31.2910   40.4720 F   0  0  0  0  0  0  0  0  0  0  0  0
   49.9450   33.1370   41.2690 F   0  0  0  0  0  0  0  0  0  0  0  0
   48.2070   33.4010   38.9730 N   0  0  0  0  0  0  0  0  0  0  0  0
   47.2150   35.0170   41.9090 C   0  0  0  0  0  0  0  0  0  0  0  0
   48.2910   35.6310   41.8370 O   0  0  0  0  0  0  0  0  0  0  0  0
   44.5670   35.8310   44.3560 C   0  0  0  0  0  0  0  0  0  0  0  0
   45.3590   35.9240   43.1640 C   0  0  0  0  0  0  0  0  0  0  0  0
   46.3510   35.0150   43.0540 C   0  0  0  0  0  0  0  0  0  0  0  0
   46.5270   34.0940   44.0560 N   0  0  0  0  0  0  0  0  0  0  0  0
   45.7720   34.0260   45.1660 C   0  0  0  0  0  0  0  0  0  0  0  0
   44.7620   34.9120   45.3340 N   0  0  0  0  0  0  0  0  0  0  0  0
   46.4850   35.1752   40.2360 H   0  0  0  0  0  0  0  0  0  0  0  0
   46.2143   32.3578   41.7655 H   0  0  0  0  0  0  0  0  0  0  0  0
   45.4866   32.2910   40.3938 H   0  0  0  0  0  0  0  0  0  0  0  0
   49.1009   33.9079   39.0432 H   0  0  0  0  0  0  0  0  0  0  0  0
   48.3527   32.5168   38.4652 H   0  0  0  0  0  0  0  0  0  0  0  0
   43.7471   36.5528   44.4855 H   0  0  0  0  0  0  0  0  0  0  0  0
   45.1709   36.6844   42.3917 H   0  0  0  0  0  0  0  0  0  0  0  0
   45.9723   33.2594   45.9291 H   0  0  0  0  0  0  0  0  0  0  0  0
  1  2  1  0
  1  9  1  0
  3  8  1  6
  3  1  1  0
  3  2  1  0
  3  4  1  0
  4  7  1  0
  4  5  1  0
  6  4  1  0
  9 13  1  0
 10  9  2  0
 11 16  2  0
 12 11  1  0
 13 12  2  0
 13 14  1  0
 14 15  2  0
 15 16  1  0
  1 17  1  6
  2 18  1  0
  2 19  1  0
  8 20  1  0
  8 21  1  0
 11 22  1  0
 12 23  1  0
 15 24  1  0
M  ISO  8  17  13  18  13  19  13  20   5  21   5  22  14  23  14  24  14
M  END
>  <minimizedAffinity>  (1) 
-4.18490934

>  <minimizedRMSD>  (1) 
1.64742911

$$$$
