
     RDKit          3D

 30 32  0  0  1  0  0  0  0  0999 V2000
   47.3200   35.0180   41.2630 C   0  0  2  0  0  0  0  0  0  0  0  0
   48.6430   35.4670   41.7030 C   0  0  0  0  0  0  0  0  0  0  0  0
   49.0600   34.5880   42.8780 C   0  0  0  0  0  0  0  0  0  0  0  0
   48.0180   33.5190   43.0430 C   0  0  0  0  0  0  0  0  0  0  0  0
   46.8100   34.1140   42.4230 C   0  0  1  0  0  0  0  0  0  0  0  0
   47.2590   34.1630   40.0660 C   0  0  0  0  0  0  0  0  0  0  0  0
   48.2460   34.2920   39.0740 C   0  0  0  0  0  0  0  0  0  0  0  0
   48.2110   33.4700   37.9500 C   0  0  0  0  0  0  0  0  0  0  0  0
   47.1830   32.5620   37.8870 N   0  0  0  0  0  0  0  0  0  0  0  0
   46.2460   32.4590   38.8610 C   0  0  0  0  0  0  0  0  0  0  0  0
   46.2870   33.2530   39.9370 N   0  0  0  0  0  0  0  0  0  0  0  0
   45.9220   34.8620   43.3080 C   0  0  0  0  0  0  0  0  0  0  0  0
   45.4470   34.4720   44.5190 C   0  0  0  0  0  0  0  0  0  0  0  0
   44.6320   35.4660   45.0440 C   0  0  0  0  0  0  0  0  0  0  0  0
   44.6330   36.4540   44.1200 N   0  0  0  0  0  0  0  0  0  0  0  0
   45.3810   36.1020   43.1160 N   0  0  0  0  0  0  0  0  0  0  0  0
   46.7521   35.9270   41.0157 H   0  0  0  0  0  0  0  0  0  0  0  0
   49.3669   35.3634   40.8813 H   0  0  0  0  0  0  0  0  0  0  0  0
   48.6124   36.5248   42.0031 H   0  0  0  0  0  0  0  0  0  0  0  0
   50.0383   34.1287   42.6732 H   0  0  0  0  0  0  0  0  0  0  0  0
   49.1443   35.1879   43.7962 H   0  0  0  0  0  0  0  0  0  0  0  0
   48.3144   32.5972   42.5209 H   0  0  0  0  0  0  0  0  0  0  0  0
   47.8626   33.2308   44.0931 H   0  0  0  0  0  0  0  0  0  0  0  0
   46.1695   33.2847   42.0883 H   0  0  0  0  0  0  0  0  0  0  0  0
   49.0445   35.0405   39.1849 H   0  0  0  0  0  0  0  0  0  0  0  0
   48.9672   33.5444   37.1546 H   0  0  0  0  0  0  0  0  0  0  0  0
   45.4425   31.7139   38.7656 H   0  0  0  0  0  0  0  0  0  0  0  0
   45.6736   33.5139   45.0096 H   0  0  0  0  0  0  0  0  0  0  0  0
   44.0991   35.4529   46.0062 H   0  0  0  0  0  0  0  0  0  0  0  0
   44.1219   37.3447   44.1991 H   0  0  0  0  0  0  0  0  0  0  0  0
  1  2  1  0
  1  5  1  0
  2  3  1  0
  3  4  1  0
  5  4  1  0
  5 12  1  0
  6  1  1  0
  7  6  2  0
  8  7  1  0
  9  8  2  0
  9 10  1  0
 10 11  2  0
 11  6  1  0
 12 13  1  0
 13 14  2  0
 15 14  1  0
 16 12  2  0
 16 15  1  0
  1 17  1  6
  2 18  1  0
  2 19  1  0
  3 20  1  0
  3 21  1  0
  4 22  1  0
  4 23  1  0
  5 24  1  6
  7 25  1  0
  8 26  1  0
 10 27  1  0
 13 28  1  0
 14 29  1  0
 15 30  1  0
M  ISO  8  17  13  18  13  19  13  20  13  21  13  22  13  23  13  24  13
M  ISO  6  25  14  26  14  27  14  28  14  29  14  30   9
M  END
>  <minimizedAffinity>  (1) 
-5.17913198

>  <minimizedRMSD>  (1) 
3.05398202

$$$$
