
     RDKit          3D

 24 25  0  0  0  0  0  0  0  0999 V2000
   44.7680   35.1610   45.4700 C   0  0  0  0  0  0  0  0  0  0  0  0
   44.4990   36.1110   44.4750 C   0  0  0  0  0  0  0  0  0  0  0  0
   45.1400   35.9500   43.2340 C   0  0  0  0  0  0  0  0  0  0  0  0
   45.9810   34.8970   43.0520 N   0  0  0  0  0  0  0  0  0  0  0  0
   46.2160   33.9940   44.0500 C   0  0  0  0  0  0  0  0  0  0  0  0
   45.6110   34.1420   45.2250 N   0  0  0  0  0  0  0  0  0  0  0  0
   47.0920   32.8870   43.8770 N   0  0  0  0  0  0  0  0  0  0  0  0
   47.9960   32.9900   42.8710 C   0  0  0  0  0  0  0  0  0  0  0  0
   48.7210   31.7940   42.9150 C   0  0  0  0  0  0  0  0  0  0  0  0
   48.2450   31.0260   43.9190 N   0  0  0  0  0  0  0  0  0  0  0  0
   47.2480   31.6920   44.5100 C   0  0  0  0  0  0  0  0  0  0  0  0
   46.4270   31.3250   45.6000 N   0  0  0  0  0  0  0  0  0  0  0  0
   46.6580   31.9440   46.8590 C   0  0  0  0  0  0  0  0  0  0  0  0
   46.9970   33.1840   46.9560 N   0  0  0  0  0  0  0  0  0  0  0  0
   46.5230   31.2110   48.0960 N   0  0  0  0  0  0  0  0  0  0  0  0
   47.1100   33.7680   46.1130 H   0  0  0  0  0  0  0  0  0  0  0  0
   44.2875   35.2493   46.4556 H   0  0  0  0  0  0  0  0  0  0  0  0
   43.8124   36.9507   44.6582 H   0  0  0  0  0  0  0  0  0  0  0  0
   44.9632   36.6678   42.4194 H   0  0  0  0  0  0  0  0  0  0  0  0
   48.1299   33.8298   42.1733 H   0  0  0  0  0  0  0  0  0  0  0  0
   49.5462   31.5227   42.2402 H   0  0  0  0  0  0  0  0  0  0  0  0
   45.6793   30.6260   45.4852 H   0  0  0  0  0  0  0  0  0  0  0  0
   46.6959   31.6823   48.9954 H   0  0  0  0  0  0  0  0  0  0  0  0
   46.2538   30.2169   48.0788 H   0  0  0  0  0  0  0  0  0  0  0  0
  2  1  2  0
  3  2  1  0
  4  3  2  0
  4  5  1  0
  5  6  2  0
  6  1  1  0
  7  5  1  0
  7 11  1  0
  8  9  2  0
  8  7  1  0
  9 10  1  0
 10 11  2  0
 11 12  1  0
 12 13  1  0
 13 14  2  0
 13 15  1  0
 16 14  1  0
  1 17  1  0
  2 18  1  0
  3 19  1  0
  8 20  1  0
  9 21  1  0
 12 22  1  0
 15 23  1  0
 15 24  1  0
M  ISO  5  17  14  18  14  19  14  20  14  21  14
M  END
>  <minimizedAffinity>  (1) 
-4.94060278

>  <minimizedRMSD>  (1) 
3.56795597

$$$$
