
     RDKit          3D

 38 40  0  0  1  0  0  0  0  0999 V2000
   47.0180   33.2170   41.7130 C   0  0  2  0  0  0  0  0  0  0  0  0
   48.2180   33.2160   42.5720 C   0  0  0  0  0  0  0  0  0  0  0  0
   48.3190   33.8060   41.2550 C   0  0  2  0  0  0  0  0  0  0  0  0
   48.6630   35.2410   41.2580 C   0  0  0  0  0  0  0  0  0  0  0  0
   47.9090   36.0490   42.0800 F   0  0  0  0  0  0  0  0  0  0  0  0
   49.9560   35.3400   41.8000 F   0  0  0  0  0  0  0  0  0  0  0  0
   48.8440   35.8150   40.0030 F   0  0  0  0  0  0  0  0  0  0  0  0
   48.6650   33.1680   39.9480 C   0  0  0  0  0  0  0  0  0  0  0  0
   49.2050   31.7930   40.0010 C   0  0  0  0  0  0  0  0  0  0  0  0
   50.6380   31.6130   39.7850 C   0  0  0  0  0  0  0  0  0  0  0  0
   51.7690   31.4270   40.5430 C   0  0  0  0  0  0  0  0  0  0  0  0
   53.0390   31.3070   40.0690 C   0  0  0  0  0  0  0  0  0  0  0  0
   53.2830   31.3690   38.7130 C   0  0  0  0  0  0  0  0  0  0  0  0
   52.2030   31.5540   37.8760 C   0  0  0  0  0  0  0  0  0  0  0  0
   50.9170   31.6720   38.4070 C   0  0  0  0  0  0  0  0  0  0  0  0
   45.8760   34.1110   41.9020 C   0  0  0  0  0  0  0  0  0  0  0  0
   45.3150   34.4610   40.8610 O   0  0  0  0  0  0  0  0  0  0  0  0
   45.2060   34.1050   45.5470 C   0  0  0  0  0  0  0  0  0  0  0  0
   45.6550   33.6370   44.2620 C   0  0  0  0  0  0  0  0  0  0  0  0
   45.4780   34.5070   43.2260 C   0  0  0  0  0  0  0  0  0  0  0  0
   44.9100   35.7160   43.4630 N   0  0  0  0  0  0  0  0  0  0  0  0
   44.4970   36.1350   44.6730 C   0  0  0  0  0  0  0  0  0  0  0  0
   44.6430   35.3150   45.7530 N   0  0  0  0  0  0  0  0  0  0  0  0
   46.3148   32.4329   41.3958 H   0  0  0  0  0  0  0  0  0  0  0  0
   48.2516   33.8611   43.4623 H   0  0  0  0  0  0  0  0  0  0  0  0
   48.7774   32.4352   43.1081 H   0  0  0  0  0  0  0  0  0  0  0  0
   47.7506   33.1433   39.3371 H   0  0  0  0  0  0  0  0  0  0  0  0
   49.4788   33.7816   39.5341 H   0  0  0  0  0  0  0  0  0  0  0  0
   48.9701   31.3869   40.9960 H   0  0  0  0  0  0  0  0  0  0  0  0
   48.7312   31.2776   39.1525 H   0  0  0  0  0  0  0  0  0  0  0  0
   51.6355   31.3698   41.6334 H   0  0  0  0  0  0  0  0  0  0  0  0
   53.8739   31.1600   40.7699 H   0  0  0  0  0  0  0  0  0  0  0  0
   54.3034   31.2742   38.3132 H   0  0  0  0  0  0  0  0  0  0  0  0
   52.3548   31.6087   36.7879 H   0  0  0  0  0  0  0  0  0  0  0  0
   50.0776   31.8188   37.7114 H   0  0  0  0  0  0  0  0  0  0  0  0
   45.3288   33.4374   46.4126 H   0  0  0  0  0  0  0  0  0  0  0  0
   46.1101   32.6450   44.1245 H   0  0  0  0  0  0  0  0  0  0  0  0
   44.0452   37.1310   44.7903 H   0  0  0  0  0  0  0  0  0  0  0  0
  1 16  1  0
  1  2  1  0
  3  8  1  6
  3  4  1  0
  3  1  1  0
  3  2  1  0
  4  6  1  0
  4  5  1  0
  7  4  1  0
  8  9  1  0
 10  9  1  0
 10 11  2  0
 12 11  1  0
 13 12  2  0
 14 15  2  0
 14 13  1  0
 15 10  1  0
 16 20  1  0
 17 16  2  0
 18 23  2  0
 19 18  1  0
 20 21  1  0
 20 19  2  0
 21 22  2  0
 22 23  1  0
  1 24  1  6
  2 25  1  0
  2 26  1  0
  8 27  1  0
  8 28  1  0
  9 29  1  0
  9 30  1  0
 11 31  1  0
 12 32  1  0
 13 33  1  0
 14 34  1  0
 15 35  1  0
 18 36  1  0
 19 37  1  0
 22 38  1  0
M  ISO  8  24  13  25  13  26  13  27   8  28   8  29   8  30   8  31  14
M  ISO  7  32  14  33  14  34  14  35  14  36  14  37  14  38  14
M  END
>  <minimizedAffinity>  (1) 
-5.51396275

>  <minimizedRMSD>  (1) 
1.48481965

$$$$
