
     RDKit          3D

 42 45  0  0  1  0  0  0  0  0999 V2000
   43.5430   30.9800   41.4230 C   0  0  2  0  0  0  0  0  0  0  0  0
   43.6580   32.1990   42.2450 C   0  0  0  0  0  0  0  0  0  0  0  0
   43.2530   32.3420   40.8660 C   0  0  2  0  0  0  0  0  0  0  0  0
   41.9110   32.9290   40.6880 C   0  0  0  0  0  0  0  0  0  0  0  0
   41.0860   32.3090   39.7770 F   0  0  0  0  0  0  0  0  0  0  0  0
   41.2310   32.7620   41.9080 F   0  0  0  0  0  0  0  0  0  0  0  0
   41.8790   34.3140   40.5430 F   0  0  0  0  0  0  0  0  0  0  0  0
   44.0980   32.5020   39.6380 C   0  0  0  0  0  0  0  0  0  0  0  0
   45.4930   32.0140   39.7330 C   0  0  0  0  0  0  0  0  0  0  0  0
   46.4690   32.9160   40.2400 N   0  0  0  0  0  0  0  0  0  0  0  0
   47.0680   33.6130   39.2160 C   0  0  0  0  0  0  0  0  0  0  0  0
   47.9990   34.4990   39.6630 N   0  0  0  0  0  0  0  0  0  0  0  0
   48.0480   34.4190   40.9980 C   0  0  0  0  0  0  0  0  0  0  0  0
   48.6860   34.9460   42.0760 C   0  0  0  0  0  0  0  0  0  0  0  0
   49.5480   35.8300   41.8400 O   0  0  0  0  0  0  0  0  0  0  0  0
   48.3850   34.5190   43.3230 N   0  0  0  0  0  0  0  0  0  0  0  0
   47.4560   33.5640   43.5970 C   0  0  0  0  0  0  0  0  0  0  0  0
   47.2070   33.1790   44.9410 N   0  0  0  0  0  0  0  0  0  0  0  0
   46.8500   33.0680   42.5320 N   0  0  0  0  0  0  0  0  0  0  0  0
   47.1090   33.4550   41.2730 C   0  0  0  0  0  0  0  0  0  0  0  0
   42.4460   30.0210   41.5290 C   0  0  0  0  0  0  0  0  0  0  0  0
   42.0110   29.6110   40.4520 O   0  0  0  0  0  0  0  0  0  0  0  0
   42.1920   28.4820   44.8940 C   0  0  0  0  0  0  0  0  0  0  0  0
   42.7650   28.8650   43.6290 C   0  0  0  0  0  0  0  0  0  0  0  0
   41.9610   29.6150   42.8210 C   0  0  0  0  0  0  0  0  0  0  0  0
   40.7140   29.9430   43.2450 N   0  0  0  0  0  0  0  0  0  0  0  0
   40.1960   29.5750   44.4330 C   0  0  0  0  0  0  0  0  0  0  0  0
   40.9500   28.8240   45.2860 N   0  0  0  0  0  0  0  0  0  0  0  0
   44.2202   30.1371   41.2209 H   0  0  0  0  0  0  0  0  0  0  0  0
   42.9303   32.3849   43.0487 H   0  0  0  0  0  0  0  0  0  0  0  0
   44.4587   32.6375   42.8586 H   0  0  0  0  0  0  0  0  0  0  0  0
   43.6067   31.9553   38.8196 H   0  0  0  0  0  0  0  0  0  0  0  0
   44.1774   33.5871   39.4761 H   0  0  0  0  0  0  0  0  0  0  0  0
   45.4894   31.1298   40.3874 H   0  0  0  0  0  0  0  0  0  0  0  0
   45.7968   31.8265   38.6926 H   0  0  0  0  0  0  0  0  0  0  0  0
   46.8215   33.4698   38.1536 H   0  0  0  0  0  0  0  0  0  0  0  0
   48.8902   34.9429   44.1142 H   0  0  0  0  0  0  0  0  0  0  0  0
   46.5033   32.4557   45.1476 H   0  0  0  0  0  0  0  0  0  0  0  0
   47.7300   33.6230   45.7092 H   0  0  0  0  0  0  0  0  0  0  0  0
   42.8037   27.8759   45.5784 H   0  0  0  0  0  0  0  0  0  0  0  0
   43.7834   28.5722   43.3339 H   0  0  0  0  0  0  0  0  0  0  0  0
   39.1758   29.8770   44.7120 H   0  0  0  0  0  0  0  0  0  0  0  0
  1 21  1  0
  1  2  1  0
  3  8  1  6
  3  1  1  0
  3  2  1  0
  4  3  1  0
  4  6  1  0
  5  4  1  0
  7  4  1  0
  8  9  1  0
  9 10  1  0
 10 20  1  0
 11 12  2  0
 11 10  1  0
 12 13  1  0
 13 20  2  0
 13 14  1  0
 14 16  1  0
 15 14  2  0
 16 17  1  0
 17 18  1  0
 19 17  2  0
 20 19  1  0
 21 25  1  0
 22 21  2  0
 23 28  2  0
 24 23  1  0
 25 26  1  0
 25 24  2  0
 26 27  2  0
 27 28  1  0
  1 29  1  6
  2 30  1  0
  2 31  1  0
  8 32  1  0
  8 33  1  0
  9 34  1  0
  9 35  1  0
 11 36  1  0
 16 37  1  0
 18 38  1  0
 18 39  1  0
 23 40  1  0
 24 41  1  0
 27 42  1  0
M  ISO  8  29  13  30  13  31  13  32   8  33   8  34   8  35   8  36  14
M  ISO  4  37   9  40  14  41  14  42  14
M  END
>  <minimizedAffinity>  (1) 
-4.74772644

>  <minimizedRMSD>  (1) 
6.18161869

$$$$
