
     RDKit          3D

 36 38  0  0  1  0  0  0  0  0999 V2000
   47.0090   33.1970   41.7080 C   0  0  2  0  0  0  0  0  0  0  0  0
   48.1780   33.1800   42.5440 C   0  0  0  0  0  0  0  0  0  0  0  0
   48.3430   33.7950   41.2610 C   0  0  2  0  0  0  0  0  0  0  0  0
   48.6780   35.2090   41.2330 C   0  0  0  0  0  0  0  0  0  0  0  0
   47.9650   36.0320   42.0640 F   0  0  0  0  0  0  0  0  0  0  0  0
   49.9920   35.2980   41.7550 F   0  0  0  0  0  0  0  0  0  0  0  0
   48.8450   35.7760   39.9730 F   0  0  0  0  0  0  0  0  0  0  0  0
   48.7240   33.1430   39.9600 C   0  0  0  0  0  0  0  0  0  0  0  0
   49.1850   31.7320   40.0180 C   0  0  0  0  0  0  0  0  0  0  0  0
   50.5970   31.5930   39.7360 N   0  0  0  0  0  0  0  0  0  0  0  0
   51.3730   31.4060   38.6710 C   0  0  0  0  0  0  0  0  0  0  0  0
   52.7190   31.3470   39.0040 C   0  0  0  0  0  0  0  0  0  0  0  0
   52.7770   31.5050   40.3270 N   0  0  0  0  0  0  0  0  0  0  0  0
   51.5120   31.6520   40.7570 C   0  0  0  0  0  0  0  0  0  0  0  0
   45.8750   34.1190   41.8430 C   0  0  0  0  0  0  0  0  0  0  0  0
   45.3060   34.4000   40.8000 O   0  0  0  0  0  0  0  0  0  0  0  0
   44.9050   34.2430   45.4220 C   0  0  0  0  0  0  0  0  0  0  0  0
   45.3170   33.7060   44.1610 C   0  0  0  0  0  0  0  0  0  0  0  0
   45.4930   34.6190   43.1430 C   0  0  0  0  0  0  0  0  0  0  0  0
   45.2750   35.9220   43.3870 N   0  0  0  0  0  0  0  0  0  0  0  0
   44.8860   36.4120   44.5830 C   0  0  0  0  0  0  0  0  0  0  0  0
   44.6910   35.5560   45.6390 N   0  0  0  0  0  0  0  0  0  0  0  0
   44.6910   37.7920   44.7060 O   0  0  0  0  0  0  0  0  0  0  0  0
   46.2976   32.4123   41.4111 H   0  0  0  0  0  0  0  0  0  0  0  0
   48.2017   33.8069   43.4476 H   0  0  0  0  0  0  0  0  0  0  0  0
   48.7164   32.3753   43.0661 H   0  0  0  0  0  0  0  0  0  0  0  0
   47.8429   33.1766   39.3023 H   0  0  0  0  0  0  0  0  0  0  0  0
   49.5948   33.7117   39.6018 H   0  0  0  0  0  0  0  0  0  0  0  0
   48.9872   31.3385   41.0260 H   0  0  0  0  0  0  0  0  0  0  0  0
   48.6359   31.1716   39.2470 H   0  0  0  0  0  0  0  0  0  0  0  0
   50.9911   31.3092   37.6440 H   0  0  0  0  0  0  0  0  0  0  0  0
   53.5653   31.1999   38.3169 H   0  0  0  0  0  0  0  0  0  0  0  0
   51.2399   31.8031   41.8121 H   0  0  0  0  0  0  0  0  0  0  0  0
   44.7548   33.5462   46.2598 H   0  0  0  0  0  0  0  0  0  0  0  0
   45.4834   32.6288   44.0128 H   0  0  0  0  0  0  0  0  0  0  0  0
   44.4057   38.1763   45.5726 H   0  0  0  0  0  0  0  0  0  0  0  0
  1 15  1  0
  1  2  1  0
  3  8  1  6
  3  1  1  0
  3  2  1  0
  4  3  1  0
  4  6  1  0
  4  5  1  0
  7  4  1  0
  8  9  1  0
 10  9  1  0
 10 14  1  0
 11 12  2  0
 11 10  1  0
 12 13  1  0
 13 14  2  0
 15 19  1  0
 16 15  2  0
 17 22  2  0
 18 17  1  0
 19 20  1  0
 19 18  2  0
 20 21  2  0
 21 23  1  0
 21 22  1  0
  1 24  1  6
  2 25  1  0
  2 26  1  0
  8 27  1  0
  8 28  1  0
  9 29  1  0
  9 30  1  0
 11 31  1  0
 12 32  1  0
 14 33  1  0
 17 34  1  0
 18 35  1  0
 23 36  1  0
M  ISO  8  24  13  25  13  26  13  27   8  28   8  29   8  30   8  31  14
M  ISO  5  32  14  33  14  34  14  35  14  36   3
M  END
>  <minimizedAffinity>  (1) 
-5.13490152

>  <minimizedRMSD>  (1) 
0.272867918

$$$$
