
     RDKit          3D

 33 35  0  0  1  0  0  0  0  0999 V2000
   47.1700   34.3700   43.2110 C   0  0  1  0  0  0  0  0  0  0  0  0
   48.6410   34.3450   42.8220 C   0  0  0  0  0  0  0  0  0  0  0  0
   48.6660   35.0450   41.4790 C   0  0  0  0  0  0  0  0  0  0  0  0
   47.3630   34.6300   40.8260 C   0  0  0  0  0  0  0  0  0  0  0  0
   46.5150   33.9870   41.9200 C   0  0  2  0  0  0  0  0  0  0  0  0
   47.1880   31.2560   45.2190 C   0  0  0  0  0  0  0  0  0  0  0  0
   46.4370   31.6170   46.3440 C   0  0  0  0  0  0  0  0  0  0  0  0
   45.9340   32.9190   46.4080 C   0  0  0  0  0  0  0  0  0  0  0  0
   46.1990   33.7620   45.3780 N   0  0  0  0  0  0  0  0  0  0  0  0
   46.9240   33.3850   44.3090 C   0  0  0  0  0  0  0  0  0  0  0  0
   47.4110   32.1400   44.2390 N   0  0  0  0  0  0  0  0  0  0  0  0
   45.1320   34.3580   41.8090 N   0  0  0  0  0  0  0  0  0  0  0  0
   44.2150   33.6120   41.1850 C   0  0  0  0  0  0  0  0  0  0  0  0
   42.8940   34.0380   41.1170 C   0  0  0  0  0  0  0  0  0  0  0  0
   42.4750   35.2350   41.6840 C   0  0  0  0  0  0  0  0  0  0  0  0
   41.2660   35.5180   41.5630 O   0  0  0  0  0  0  0  0  0  0  0  0
   43.4290   35.9410   42.2940 N   0  0  0  0  0  0  0  0  0  0  0  0
   44.6920   35.5260   42.3550 C   0  0  0  0  0  0  0  0  0  0  0  0
   45.4900   36.2930   42.9610 O   0  0  0  0  0  0  0  0  0  0  0  0
   46.7953   35.3262   43.6050 H   0  0  0  0  0  0  0  0  0  0  0  0
   49.2515   34.8873   43.5590 H   0  0  0  0  0  0  0  0  0  0  0  0
   49.0551   33.3268   42.7811 H   0  0  0  0  0  0  0  0  0  0  0  0
   48.7088   36.1366   41.6076 H   0  0  0  0  0  0  0  0  0  0  0  0
   49.5463   34.7755   40.8770 H   0  0  0  0  0  0  0  0  0  0  0  0
   46.8476   35.5099   40.4136 H   0  0  0  0  0  0  0  0  0  0  0  0
   47.5394   33.9296   39.9964 H   0  0  0  0  0  0  0  0  0  0  0  0
   46.4798   32.8905   41.8402 H   0  0  0  0  0  0  0  0  0  0  0  0
   47.5979   30.2383   45.1398 H   0  0  0  0  0  0  0  0  0  0  0  0
   46.2484   30.8968   47.1538 H   0  0  0  0  0  0  0  0  0  0  0  0
   45.3386   33.2521   47.2709 H   0  0  0  0  0  0  0  0  0  0  0  0
   44.5072   32.6572   40.7235 H   0  0  0  0  0  0  0  0  0  0  0  0
   42.1570   33.4076   40.5979 H   0  0  0  0  0  0  0  0  0  0  0  0
   43.1791   36.8386   42.7330 H   0  0  0  0  0  0  0  0  0  0  0  0
  1 10  1  0
  2  1  1  0
  3  2  1  0
  4  3  1  0
  4  5  1  0
  5  1  1  0
  6  7  2  0
  7  8  1  0
  9  8  2  0
 10  9  1  0
 11 10  2  0
 11  6  1  0
 12  5  1  0
 12 18  1  0
 13 12  1  0
 14 13  2  0
 14 15  1  0
 15 17  1  0
 16 15  2  0
 17 18  1  0
 18 19  2  0
  1 20  1  1
  2 21  1  0
  2 22  1  0
  3 23  1  0
  3 24  1  0
  4 25  1  0
  4 26  1  0
  5 27  1  6
  6 28  1  0
  7 29  1  0
  8 30  1  0
 13 31  1  0
 14 32  1  0
 17 33  1  0
M  ISO  8  20  13  21  13  22  13  23  13  24  13  25  13  26  13  27  13
M  ISO  6  28  14  29  14  30  14  31  14  32  14  33   9
M  END
>  <minimizedAffinity>  (1) 
-5.62977505

>  <minimizedRMSD>  (1) 
2.4512372

$$$$
