
     RDKit          3D

 34 36  0  0  1  0  0  0  0  0999 V2000
   46.5530   35.1830   42.0130 C   0  0  1  0  0  0  0  0  0  0  0  0
   48.0690   35.2710   42.0320 C   0  0  0  0  0  0  0  0  0  0  0  0
   48.5130   35.0530   40.6070 C   0  0  0  0  0  0  0  0  0  0  0  0
   47.4300   34.1880   40.0010 C   0  0  0  0  0  0  0  0  0  0  0  0
   46.3120   34.0820   41.0360 C   0  0  2  0  0  0  0  0  0  0  0  0
   45.0400   34.0790   40.3930 N   0  0  0  0  0  0  0  0  0  0  0  0
   44.0330   34.9280   40.5260 C   0  0  0  0  0  0  0  0  0  0  0  0
   42.8420   34.8110   39.8370 C   0  0  0  0  0  0  0  0  0  0  0  0
   42.6960   33.7490   38.9630 C   0  0  0  0  0  0  0  0  0  0  0  0
   41.4720   33.6400   38.2640 N   0  0  0  0  0  0  0  0  0  0  0  0
   43.7150   32.9060   38.8410 N   0  0  0  0  0  0  0  0  0  0  0  0
   44.8830   33.0360   39.5280 C   0  0  0  0  0  0  0  0  0  0  0  0
   45.7040   32.1210   39.2520 O   0  0  0  0  0  0  0  0  0  0  0  0
   46.0000   33.5670   45.2930 C   0  0  0  0  0  0  0  0  0  0  0  0
   45.0210   34.4010   45.8720 C   0  0  0  0  0  0  0  0  0  0  0  0
   44.5580   35.5140   45.1270 C   0  0  0  0  0  0  0  0  0  0  0  0
   45.0920   35.6990   43.9020 N   0  0  0  0  0  0  0  0  0  0  0  0
   46.0250   34.8950   43.3630 C   0  0  0  0  0  0  0  0  0  0  0  0
   46.4660   33.8380   44.0690 N   0  0  0  0  0  0  0  0  0  0  0  0
   46.0430   36.1140   41.7247 H   0  0  0  0  0  0  0  0  0  0  0  0
   48.3905   36.2617   42.3857 H   0  0  0  0  0  0  0  0  0  0  0  0
   48.5086   34.5254   42.7108 H   0  0  0  0  0  0  0  0  0  0  0  0
   48.5896   36.0114   40.0727 H   0  0  0  0  0  0  0  0  0  0  0  0
   49.5062   34.5842   40.5454 H   0  0  0  0  0  0  0  0  0  0  0  0
   47.0486   34.6509   39.0789 H   0  0  0  0  0  0  0  0  0  0  0  0
   47.8211   33.1930   39.7423 H   0  0  0  0  0  0  0  0  0  0  0  0
   46.3106   33.1339   41.5938 H   0  0  0  0  0  0  0  0  0  0  0  0
   44.1513   35.7713   41.2223 H   0  0  0  0  0  0  0  0  0  0  0  0
   42.0322   35.5418   39.9792 H   0  0  0  0  0  0  0  0  0  0  0  0
   41.3233   32.8635   37.6038 H   0  0  0  0  0  0  0  0  0  0  0  0
   40.7289   34.3371   38.4149 H   0  0  0  0  0  0  0  0  0  0  0  0
   46.3794   32.6956   45.8469 H   0  0  0  0  0  0  0  0  0  0  0  0
   44.6264   34.1926   46.8774 H   0  0  0  0  0  0  0  0  0  0  0  0
   43.7962   36.1975   45.5301 H   0  0  0  0  0  0  0  0  0  0  0  0
  1  2  1  0
  1 18  1  0
  3  2  1  0
  4  3  1  0
  4  5  1  0
  5  1  1  0
  6  7  1  0
  6  5  1  0
  8  7  2  0
  9  8  1  0
 10  9  1  0
 11  9  2  0
 11 12  1  0
 12  6  1  0
 13 12  2  0
 14 15  2  0
 16 15  1  0
 17 16  2  0
 18 17  1  0
 18 19  2  0
 19 14  1  0
  1 20  1  6
  2 21  1  0
  2 22  1  0
  3 23  1  0
  3 24  1  0
  4 25  1  0
  4 26  1  0
  5 27  1  1
  7 28  1  0
  8 29  1  0
 10 30  1  0
 10 31  1  0
 14 32  1  0
 15 33  1  0
 16 34  1  0
M  ISO  8  20  13  21  13  22  13  23  13  24  13  25  13  26  13  27  13
M  ISO  5  28  14  29  14  32  14  33  14  34  14
M  END
>  <minimizedAffinity>  (1) 
-5.57249451

>  <minimizedRMSD>  (1) 
0.282657146

$$$$
