
     RDKit          3D

 36 38  0  0  1  0  0  0  0  0999 V2000
   46.4080   35.0670   42.0830 C   0  0  1  0  0  0  0  0  0  0  0  0
   47.9340   35.2720   42.0630 C   0  0  0  0  0  0  0  0  0  0  0  0
   48.3760   35.0010   40.6550 C   0  0  0  0  0  0  0  0  0  0  0  0
   47.2840   34.1380   40.0620 C   0  0  0  0  0  0  0  0  0  0  0  0
   46.2480   33.9290   41.1540 C   0  0  2  0  0  0  0  0  0  0  0  0
   46.0550   33.4970   45.4070 C   0  0  0  0  0  0  0  0  0  0  0  0
   45.1040   34.3230   46.0310 C   0  0  0  0  0  0  0  0  0  0  0  0
   44.5910   35.4130   45.3050 C   0  0  0  0  0  0  0  0  0  0  0  0
   45.0410   35.6150   44.0340 N   0  0  0  0  0  0  0  0  0  0  0  0
   45.9540   34.8040   43.4640 C   0  0  0  0  0  0  0  0  0  0  0  0
   46.4410   33.7650   44.1610 N   0  0  0  0  0  0  0  0  0  0  0  0
   44.8660   33.7350   40.5930 C   0  0  0  0  0  0  0  0  0  0  0  0
   44.1390   32.7480   41.4760 C   0  0  0  0  0  0  0  0  0  0  0  0
   42.6790   33.1430   41.4000 C   0  0  0  0  0  0  0  0  0  0  0  0
   42.6350   34.5860   40.9450 C   0  0  0  0  0  0  0  0  0  0  0  0
   44.0820   35.0120   40.8180 C   0  0  0  0  0  0  0  0  0  0  0  0
   45.7993   35.9291   41.7729 H   0  0  0  0  0  0  0  0  0  0  0  0
   48.1835   36.3045   42.3486 H   0  0  0  0  0  0  0  0  0  0  0  0
   48.4371   34.6025   42.7762 H   0  0  0  0  0  0  0  0  0  0  0  0
   48.4741   35.9413   40.0927 H   0  0  0  0  0  0  0  0  0  0  0  0
   49.3587   34.5082   40.6177 H   0  0  0  0  0  0  0  0  0  0  0  0
   46.8276   34.6447   39.1989 H   0  0  0  0  0  0  0  0  0  0  0  0
   47.6874   33.1766   39.7113 H   0  0  0  0  0  0  0  0  0  0  0  0
   46.4029   32.9929   41.7105 H   0  0  0  0  0  0  0  0  0  0  0  0
   46.4775   32.6351   45.9443 H   0  0  0  0  0  0  0  0  0  0  0  0
   44.7699   34.1223   47.0596 H   0  0  0  0  0  0  0  0  0  0  0  0
   43.8447   36.0863   45.7519 H   0  0  0  0  0  0  0  0  0  0  0  0
   44.9421   33.4314   39.5385 H   0  0  0  0  0  0  0  0  0  0  0  0
   44.2804   31.7222   41.1048 H   0  0  0  0  0  0  0  0  0  0  0  0
   44.5157   32.7676   42.5093 H   0  0  0  0  0  0  0  0  0  0  0  0
   42.1514   32.5027   40.6777 H   0  0  0  0  0  0  0  0  0  0  0  0
   42.1884   33.0240   42.3773 H   0  0  0  0  0  0  0  0  0  0  0  0
   42.1231   34.6681   39.9748 H   0  0  0  0  0  0  0  0  0  0  0  0
   42.0822   35.2213   41.6527 H   0  0  0  0  0  0  0  0  0  0  0  0
   44.4174   35.5109   41.7392 H   0  0  0  0  0  0  0  0  0  0  0  0
   44.2244   35.7269   39.9942 H   0  0  0  0  0  0  0  0  0  0  0  0
  1 10  1  0
  2  1  1  0
  3  2  1  0
  4  3  1  0
  4  5  1  0
  5  1  1  0
  6  7  2  0
  8  7  1  0
  9  8  2  0
 10  9  1  0
 10 11  2  0
 11  6  1  0
 12 16  1  0
 12  5  1  0
 12 13  1  0
 14 13  1  0
 15 14  1  0
 16 15  1  0
  1 17  1  6
  2 18  1  0
  2 19  1  0
  3 20  1  0
  3 21  1  0
  4 22  1  0
  4 23  1  0
  5 24  1  1
  6 25  1  0
  7 26  1  0
  8 27  1  0
 12 28  1  0
 13 29  1  0
 13 30  1  0
 14 31  1  0
 14 32  1  0
 15 33  1  0
 15 34  1  0
 16 35  1  0
 16 36  1  0
M  ISO  8  17  13  18  13  19  13  20  13  21  13  22  13  23  13  24  13
M  ISO  8  25  14  26  14  27  14  28  13  29  13  30  13  31  13  32  13
M  ISO  4  33  13  34  13  35  13  36  13
M  END
>  <minimizedAffinity>  (1) 
-5.09311438

>  <minimizedRMSD>  (1) 
0.406786054

$$$$
