
     RDKit          3D

 32 33  0  0  1  0  0  0  0  0999 V2000
   47.7270   34.8820   41.2730 C   0  0  2  0  0  0  0  0  0  0  0  0
   48.9130   35.6760   41.5710 C   0  0  0  0  0  0  0  0  0  0  0  0
   49.8630   34.8080   42.3980 C   0  0  0  0  0  0  0  0  0  0  0  0
   49.2340   33.4370   42.4900 C   0  0  0  0  0  0  0  0  0  0  0  0
   47.7860   33.7130   42.2740 C   0  0  1  0  0  0  0  0  0  0  0  0
   47.6340   34.2590   39.9400 C   0  0  0  0  0  0  0  0  0  0  0  0
   48.4770   34.7390   38.9000 C   0  0  0  0  0  0  0  0  0  0  0  0
   48.4060   34.1380   37.6470 C   0  0  0  0  0  0  0  0  0  0  0  0
   47.5090   33.1050   37.5030 N   0  0  0  0  0  0  0  0  0  0  0  0
   46.7250   32.6730   38.5040 C   0  0  0  0  0  0  0  0  0  0  0  0
   46.7890   33.2490   39.7140 N   0  0  0  0  0  0  0  0  0  0  0  0
   47.2280   34.0600   43.5990 C   0  0  0  0  0  0  0  0  0  0  0  0
   47.1850   32.7850   44.4170 C   0  0  0  0  0  0  0  0  0  0  0  0
   45.8890   34.6930   43.6450 C   0  0  0  0  0  0  0  0  0  0  0  0
   46.8723   35.5723   41.3270 H   0  0  0  0  0  0  0  0  0  0  0  0
   49.4040   35.9805   40.6350 H   0  0  0  0  0  0  0  0  0  0  0  0
   48.6373   36.5826   42.1297 H   0  0  0  0  0  0  0  0  0  0  0  0
   50.8433   34.7424   41.9033 H   0  0  0  0  0  0  0  0  0  0  0  0
   50.0202   35.2378   43.3983 H   0  0  0  0  0  0  0  0  0  0  0  0
   49.6289   32.7685   41.7108 H   0  0  0  0  0  0  0  0  0  0  0  0
   49.4394   32.9308   43.4447 H   0  0  0  0  0  0  0  0  0  0  0  0
   47.2067   32.8712   41.8669 H   0  0  0  0  0  0  0  0  0  0  0  0
   49.1730   35.5709   39.0830 H   0  0  0  0  0  0  0  0  0  0  0  0
   49.0374   34.4731   36.8110 H   0  0  0  0  0  0  0  0  0  0  0  0
   46.0259   31.8416   38.3308 H   0  0  0  0  0  0  0  0  0  0  0  0
   47.8961   34.8413   43.9905 H   0  0  0  0  0  0  0  0  0  0  0  0
   47.1935   33.0360   45.4879 H   0  0  0  0  0  0  0  0  0  0  0  0
   46.2675   32.2270   44.1784 H   0  0  0  0  0  0  0  0  0  0  0  0
   48.0628   32.1665   44.1784 H   0  0  0  0  0  0  0  0  0  0  0  0
   45.5868   34.8359   44.6930 H   0  0  0  0  0  0  0  0  0  0  0  0
   45.9270   35.6685   43.1381 H   0  0  0  0  0  0  0  0  0  0  0  0
   45.1593   34.0445   43.1381 H   0  0  0  0  0  0  0  0  0  0  0  0
  1  2  1  0
  1  5  1  0
  2  3  1  0
  3  4  1  0
  5  4  1  0
  5 12  1  0
  6  1  1  0
  7  6  2  0
  8  7  1  0
  9  8  2  0
  9 10  1  0
 10 11  2  0
 11  6  1  0
 12 14  1  0
 12 13  1  0
  1 15  1  1
  2 16  1  0
  2 17  1  0
  3 18  1  0
  3 19  1  0
  4 20  1  0
  4 21  1  0
  5 22  1  6
  7 23  1  0
  8 24  1  0
 10 25  1  0
 12 26  1  0
 13 27  1  0
 13 28  1  0
 13 29  1  0
 14 30  1  0
 14 31  1  0
 14 32  1  0
M  ISO  8  15  13  16  13  17  13  18  13  19  13  20  13  21  13  22  13
M  ISO  8  23  14  24  14  25  14  26   8  27   8  28   8  29   8  30   8
M  ISO  2  31   8  32   8
M  END
>  <minimizedAffinity>  (1) 
-4.50992537

>  <minimizedRMSD>  (1) 
3.54943585

$$$$
