
     RDKit          3D

 26 27  0  0  1  0  0  0  0  0999 V2000
   46.5750   35.1290   41.9930 C   0  0  1  0  0  0  0  0  0  0  0  0
   48.0770   35.3520   42.0390 C   0  0  0  0  0  0  0  0  0  0  0  0
   48.5400   35.1440   40.6200 C   0  0  0  0  0  0  0  0  0  0  0  0
   47.5570   34.1410   40.0410 C   0  0  0  0  0  0  0  0  0  0  0  0
   46.4560   33.9510   41.0750 C   0  0  2  0  0  0  0  0  0  0  0  0
   46.0480   33.5670   45.3070 C   0  0  0  0  0  0  0  0  0  0  0  0
   45.0700   34.4080   45.8830 C   0  0  0  0  0  0  0  0  0  0  0  0
   44.6030   35.5000   45.1260 C   0  0  0  0  0  0  0  0  0  0  0  0
   45.1240   35.6760   43.8880 N   0  0  0  0  0  0  0  0  0  0  0  0
   46.0590   34.8520   43.3660 C   0  0  0  0  0  0  0  0  0  0  0  0
   46.5150   33.8030   44.0780 N   0  0  0  0  0  0  0  0  0  0  0  0
   45.1320   34.1030   40.3800 C   0  0  0  0  0  0  0  0  0  0  0  0
   44.0630   34.5650   40.8730 O   0  0  0  0  0  0  0  0  0  0  0  0
   45.0550   33.7000   39.0600 O   0  0  0  0  0  0  0  0  0  0  0  0
   45.9871   35.9896   41.6411 H   0  0  0  0  0  0  0  0  0  0  0  0
   48.3071   36.3735   42.3760 H   0  0  0  0  0  0  0  0  0  0  0  0
   48.5768   34.6707   42.7432 H   0  0  0  0  0  0  0  0  0  0  0  0
   48.5072   36.0891   40.0581 H   0  0  0  0  0  0  0  0  0  0  0  0
   49.5795   34.7881   40.5676 H   0  0  0  0  0  0  0  0  0  0  0  0
   47.1319   34.5268   39.1027 H   0  0  0  0  0  0  0  0  0  0  0  0
   48.0554   33.1862   39.8176 H   0  0  0  0  0  0  0  0  0  0  0  0
   46.5312   32.9783   41.5832 H   0  0  0  0  0  0  0  0  0  0  0  0
   46.4296   32.7074   45.8775 H   0  0  0  0  0  0  0  0  0  0  0  0
   44.6839   34.2153   46.8948 H   0  0  0  0  0  0  0  0  0  0  0  0
   43.8418   36.1860   45.5261 H   0  0  0  0  0  0  0  0  0  0  0  0
   45.8538   33.3281   38.6086 H   0  0  0  0  0  0  0  0  0  0  0  0
  1  2  1  0
  1 10  1  0
  3  2  1  0
  4  3  1  0
  4  5  1  0
  5  1  1  0
  6  7  2  0
  8  7  1  0
  9  8  2  0
 10  9  1  0
 10 11  2  0
 11  6  1  0
 12 13  2  0
 12  5  1  0
 14 12  1  0
  1 15  1  6
  2 16  1  0
  2 17  1  0
  3 18  1  0
  3 19  1  0
  4 20  1  0
  4 21  1  0
  5 22  1  1
  6 23  1  0
  7 24  1  0
  8 25  1  0
 14 26  1  0
M  ISO  8  15  13  16  13  17  13  18  13  19  13  20  13  21  13  22  13
M  ISO  4  23  14  24  14  25  14  26   3
M  END
>  <minimizedAffinity>  (1) 
-4.7690959

>  <minimizedRMSD>  (1) 
0.244744495

$$$$
