
     RDKit          3D

 25 26  0  0  1  0  0  0  0  0999 V2000
   46.6800   35.2430   41.8580 C   0  0  1  0  0  0  0  0  0  0  0  0
   48.1970   35.2830   41.9290 C   0  0  0  0  0  0  0  0  0  0  0  0
   48.6250   35.1330   40.4860 C   0  0  0  0  0  0  0  0  0  0  0  0
   47.5790   34.1930   39.8880 C   0  0  0  0  0  0  0  0  0  0  0  0
   46.4450   34.1170   40.8970 C   0  0  2  0  0  0  0  0  0  0  0  0
   45.9720   33.7450   45.1590 C   0  0  0  0  0  0  0  0  0  0  0  0
   44.9760   34.6130   45.6640 C   0  0  0  0  0  0  0  0  0  0  0  0
   44.5640   35.6900   44.8770 C   0  0  0  0  0  0  0  0  0  0  0  0
   45.1480   35.8350   43.6700 N   0  0  0  0  0  0  0  0  0  0  0  0
   46.0930   35.0050   43.1990 C   0  0  0  0  0  0  0  0  0  0  0  0
   46.5110   33.9530   43.9440 N   0  0  0  0  0  0  0  0  0  0  0  0
   45.1860   34.2300   40.2320 N   0  0  0  0  0  0  0  0  0  0  0  0
   46.2077   36.1807   41.5299 H   0  0  0  0  0  0  0  0  0  0  0  0
   48.5456   36.2400   42.3445 H   0  0  0  0  0  0  0  0  0  0  0  0
   48.6149   34.5026   42.5820 H   0  0  0  0  0  0  0  0  0  0  0  0
   48.6165   36.1056   39.9722 H   0  0  0  0  0  0  0  0  0  0  0  0
   49.6498   34.7461   40.3856 H   0  0  0  0  0  0  0  0  0  0  0  0
   47.2111   34.5922   38.9313 H   0  0  0  0  0  0  0  0  0  0  0  0
   48.0037   33.1980   39.6891 H   0  0  0  0  0  0  0  0  0  0  0  0
   46.4215   33.1553   41.4305 H   0  0  0  0  0  0  0  0  0  0  0  0
   46.3092   32.8916   45.7656 H   0  0  0  0  0  0  0  0  0  0  0  0
   44.5348   34.4429   46.6572 H   0  0  0  0  0  0  0  0  0  0  0  0
   43.7935   36.3925   45.2275 H   0  0  0  0  0  0  0  0  0  0  0  0
   44.4331   34.2976   40.9316 H   0  0  0  0  0  0  0  0  0  0  0  0
   45.1837   35.0746   39.6424 H   0  0  0  0  0  0  0  0  0  0  0  0
  1  2  1  0
  1 10  1  0
  3  2  1  0
  4  3  1  0
  4  5  1  0
  5  1  1  0
  6  7  2  0
  8  7  1  0
  9  8  2  0
 10  9  1  0
 10 11  2  0
 11  6  1  0
 12  5  1  0
  1 13  1  6
  2 14  1  0
  2 15  1  0
  3 16  1  0
  3 17  1  0
  4 18  1  0
  4 19  1  0
  5 20  1  1
  6 21  1  0
  7 22  1  0
  8 23  1  0
 12 24  1  0
 12 25  1  0
M  ISO  8  13  13  14  13  15  13  16  13  17  13  18  13  19  13  20  13
M  ISO  5  21  14  22  14  23  14  24   5  25   5
M  END
>  <minimizedAffinity>  (1) 
-4.69184828

>  <minimizedRMSD>  (1) 
0.0529277734

$$$$
