
     RDKit          3D

 37 40  0  0  1  0  0  0  0  0999 V2000
   45.5030   33.9010   42.7150 C   0  0  2  0  0  0  0  0  0  0  0  0
   46.6210   34.7780   42.3950 C   0  0  0  0  0  0  0  0  0  0  0  0
   47.5000   34.0580   41.3690 C   0  0  0  0  0  0  0  0  0  0  0  0
   46.8210   32.7650   41.0220 C   0  0  0  0  0  0  0  0  0  0  0  0
   45.9510   32.5040   42.2170 C   0  0  1  0  0  0  0  0  0  0  0  0
   46.6870   31.8560   43.3210 C   0  0  0  0  0  0  0  0  0  0  0  0
   47.5890   30.9190   42.8950 N   0  0  0  0  0  0  0  0  0  0  0  0
   48.3640   30.2130   43.7040 C   0  0  0  0  0  0  0  0  0  0  0  0
   48.2950   30.3890   45.0350 N   0  0  0  0  0  0  0  0  0  0  0  0
   47.4300   31.2930   45.5290 C   0  0  0  0  0  0  0  0  0  0  0  0
   47.2750   31.5560   46.8750 C   0  0  0  0  0  0  0  0  0  0  0  0
   46.3550   32.5110   47.3260 C   0  0  0  0  0  0  0  0  0  0  0  0
   45.5610   33.2300   46.4230 C   0  0  0  0  0  0  0  0  0  0  0  0
   45.7140   32.9680   45.0780 C   0  0  0  0  0  0  0  0  0  0  0  0
   46.6310   32.0220   44.6750 C   0  0  0  0  0  0  0  0  0  0  0  0
   44.2150   34.1610   42.0630 C   0  0  0  0  0  0  0  0  0  0  0  0
   43.8770   35.4790   41.7170 C   0  0  0  0  0  0  0  0  0  0  0  0
   42.6610   35.7300   41.0790 C   0  0  0  0  0  0  0  0  0  0  0  0
   41.8600   34.6400   40.8270 N   0  0  0  0  0  0  0  0  0  0  0  0
   42.2160   33.3830   41.1730 C   0  0  0  0  0  0  0  0  0  0  0  0
   43.3760   33.1650   41.7790 N   0  0  0  0  0  0  0  0  0  0  0  0
   45.3082   34.0343   43.7894 H   0  0  0  0  0  0  0  0  0  0  0  0
   46.2472   35.7217   41.9712 H   0  0  0  0  0  0  0  0  0  0  0  0
   47.1993   35.0106   43.3014 H   0  0  0  0  0  0  0  0  0  0  0  0
   47.6099   34.6784   40.4673 H   0  0  0  0  0  0  0  0  0  0  0  0
   48.5026   33.8709   41.7809 H   0  0  0  0  0  0  0  0  0  0  0  0
   46.2164   32.8694   40.1090 H   0  0  0  0  0  0  0  0  0  0  0  0
   47.5280   31.9478   40.8159 H   0  0  0  0  0  0  0  0  0  0  0  0
   45.1245   31.8369   41.9310 H   0  0  0  0  0  0  0  0  0  0  0  0
   49.0678   29.4788   43.2848 H   0  0  0  0  0  0  0  0  0  0  0  0
   47.8849   31.0058   47.6066 H   0  0  0  0  0  0  0  0  0  0  0  0
   46.2544   32.6993   48.4051 H   0  0  0  0  0  0  0  0  0  0  0  0
   44.8381   33.9802   46.7760 H   0  0  0  0  0  0  0  0  0  0  0  0
   45.1101   33.5087   44.3344 H   0  0  0  0  0  0  0  0  0  0  0  0
   44.5643   36.3066   41.9466 H   0  0  0  0  0  0  0  0  0  0  0  0
   42.3584   36.7479   40.7922 H   0  0  0  0  0  0  0  0  0  0  0  0
   41.5440   32.5406   40.9522 H   0  0  0  0  0  0  0  0  0  0  0  0
  2  1  1  0
  3  2  1  0
  4  3  1  0
  4  5  1  0
  5  1  1  0
  5  6  1  0
  6 15  1  0
  7  6  2  0
  7  8  1  0
  8  9  2  0
  9 10  1  0
 10 11  2  0
 11 12  1  0
 13 12  2  0
 14 13  1  0
 15 14  2  0
 15 10  1  0
 16  1  1  0
 17 16  2  0
 18 17  1  0
 19 18  2  0
 19 20  1  0
 20 21  2  0
 21 16  1  0
  1 22  1  1
  2 23  1  0
  2 24  1  0
  3 25  1  0
  3 26  1  0
  4 27  1  0
  4 28  1  0
  5 29  1  6
  8 30  1  0
 11 31  1  0
 12 32  1  0
 13 33  1  0
 14 34  1  0
 17 35  1  0
 18 36  1  0
 20 37  1  0
M  ISO  8  22  13  23  13  24  13  25  13  26  13  27  13  28  13  29  13
M  ISO  8  30  14  31  14  32  14  33  14  34  14  35  14  36  14  37  14
M  END
>  <minimizedAffinity>  (1) 
-4.32710314

>  <minimizedRMSD>  (1) 
5.76038837

$$$$
