
     RDKit          3D

 30 32  0  0  1  0  0  0  0  0999 V2000
   46.6820   35.0530   42.0780 C   0  0  1  0  0  0  0  0  0  0  0  0
   48.0890   34.4980   42.0750 C   0  0  0  0  0  0  0  0  0  0  0  0
   48.4270   34.2270   40.6390 C   0  0  0  0  0  0  0  0  0  0  0  0
   47.0870   33.9680   39.9760 C   0  0  0  0  0  0  0  0  0  0  0  0
   46.0070   34.3240   40.9970 C   0  0  1  0  0  0  0  0  0  0  0  0
   44.5180   35.5920   45.0190 C   0  0  0  0  0  0  0  0  0  0  0  0
   44.9230   34.5880   45.9020 C   0  0  0  0  0  0  0  0  0  0  0  0
   45.9440   33.7320   45.4800 C   0  0  0  0  0  0  0  0  0  0  0  0
   46.4960   33.9090   44.2400 N   0  0  0  0  0  0  0  0  0  0  0  0
   46.0620   34.9010   43.4250 C   0  0  0  0  0  0  0  0  0  0  0  0
   45.0830   35.7270   43.8200 N   0  0  0  0  0  0  0  0  0  0  0  0
   45.2800   33.1420   41.3940 N   0  0  0  0  0  0  0  0  0  0  0  0
   43.9700   33.1330   41.7030 C   0  0  0  0  0  0  0  0  0  0  0  0
   43.5710   31.8490   42.0420 C   0  0  0  0  0  0  0  0  0  0  0  0
   44.6860   31.0770   41.9270 N   0  0  0  0  0  0  0  0  0  0  0  0
   45.6980   31.8550   41.5420 C   0  0  0  0  0  0  0  0  0  0  0  0
   46.6208   36.1355   41.8925 H   0  0  0  0  0  0  0  0  0  0  0  0
   48.7896   35.2318   42.5000 H   0  0  0  0  0  0  0  0  0  0  0  0
   48.1617   33.5848   42.6839 H   0  0  0  0  0  0  0  0  0  0  0  0
   48.9235   35.0975   40.1854 H   0  0  0  0  0  0  0  0  0  0  0  0
   49.1207   33.3810   40.5249 H   0  0  0  0  0  0  0  0  0  0  0  0
   46.9813   34.5967   39.0796 H   0  0  0  0  0  0  0  0  0  0  0  0
   47.0004   32.9169   39.6633 H   0  0  0  0  0  0  0  0  0  0  0  0
   45.2234   34.9807   40.5911 H   0  0  0  0  0  0  0  0  0  0  0  0
   43.7175   36.2841   45.3193 H   0  0  0  0  0  0  0  0  0  0  0  0
   44.4561   34.4755   46.8916 H   0  0  0  0  0  0  0  0  0  0  0  0
   46.3001   32.9249   46.1371 H   0  0  0  0  0  0  0  0  0  0  0  0
   43.3125   34.0147   41.6887 H   0  0  0  0  0  0  0  0  0  0  0  0
   42.5640   31.5227   42.3412 H   0  0  0  0  0  0  0  0  0  0  0  0
   46.7265   31.5058   41.3683 H   0  0  0  0  0  0  0  0  0  0  0  0
  1 10  1  0
  2  1  1  0
  3  2  1  0
  4  3  1  0
  4  5  1  0
  5 12  1  0
  5  1  1  0
  6  7  2  0
  8  7  1  0
  9  8  2  0
 10 11  2  0
 10  9  1  0
 11  6  1  0
 12 16  1  0
 12 13  1  0
 13 14  2  0
 15 14  1  0
 16 15  2  0
  1 17  1  6
  2 18  1  0
  2 19  1  0
  3 20  1  0
  3 21  1  0
  4 22  1  0
  4 23  1  0
  5 24  1  6
  6 25  1  0
  7 26  1  0
  8 27  1  0
 13 28  1  0
 14 29  1  0
 16 30  1  0
M  ISO  8  17  13  18  13  19  13  20  13  21  13  22  13  23  13  24  13
M  ISO  6  25  14  26  14  27  14  28  14  29  14  30  14
M  END
>  <minimizedAffinity>  (1) 
-4.32082701

>  <minimizedRMSD>  (1) 
1.60634673

$$$$
