
     RDKit          3D

 32 33  0  0  1  0  0  0  0  0999 V2000
   46.7390   34.9360   42.0490 C   0  0  1  0  0  0  0  0  0  0  0  0
   48.1860   35.4330   42.0640 C   0  0  0  0  0  0  0  0  0  0  0  0
   48.6470   35.3670   40.6350 C   0  0  0  0  0  0  0  0  0  0  0  0
   47.8200   34.2610   40.0210 C   0  0  0  0  0  0  0  0  0  0  0  0
   46.8090   33.8180   41.0890 C   0  0  2  0  0  0  0  0  0  0  0  0
   46.6100   33.1600   45.2840 C   0  0  0  0  0  0  0  0  0  0  0  0
   45.5670   33.8040   45.9520 C   0  0  0  0  0  0  0  0  0  0  0  0
   44.9120   34.8460   45.2910 C   0  0  0  0  0  0  0  0  0  0  0  0
   45.3470   35.1450   44.0520 N   0  0  0  0  0  0  0  0  0  0  0  0
   46.3520   34.5180   43.4190 C   0  0  0  0  0  0  0  0  0  0  0  0
   46.9770   33.5210   44.0570 N   0  0  0  0  0  0  0  0  0  0  0  0
   45.5020   33.4280   40.4390 C   0  0  0  0  0  0  0  0  0  0  0  0
   45.7760   33.0830   38.9970 C   0  0  0  0  0  0  0  0  0  0  0  0
   44.4610   34.4950   40.5870 C   0  0  0  0  0  0  0  0  0  0  0  0
   45.9801   35.6766   41.7563 H   0  0  0  0  0  0  0  0  0  0  0  0
   48.2337   36.4670   42.4361 H   0  0  0  0  0  0  0  0  0  0  0  0
   48.8199   34.8250   42.7262 H   0  0  0  0  0  0  0  0  0  0  0  0
   48.4610   36.3221   40.1220 H   0  0  0  0  0  0  0  0  0  0  0  0
   49.7272   35.1765   40.5525 H   0  0  0  0  0  0  0  0  0  0  0  0
   47.2918   34.6327   39.1306 H   0  0  0  0  0  0  0  0  0  0  0  0
   48.4561   33.4204   39.7067 H   0  0  0  0  0  0  0  0  0  0  0  0
   47.1020   32.9098   41.6362 H   0  0  0  0  0  0  0  0  0  0  0  0
   47.1403   32.3356   45.7832 H   0  0  0  0  0  0  0  0  0  0  0  0
   45.2702   33.5006   46.9668 H   0  0  0  0  0  0  0  0  0  0  0  0
   44.0819   35.3951   45.7594 H   0  0  0  0  0  0  0  0  0  0  0  0
   45.0838   32.5465   40.9470 H   0  0  0  0  0  0  0  0  0  0  0  0
   46.4595   32.2224   38.9494 H   0  0  0  0  0  0  0  0  0  0  0  0
   44.8309   32.8289   38.4948 H   0  0  0  0  0  0  0  0  0  0  0  0
   46.2375   33.9460   38.4948 H   0  0  0  0  0  0  0  0  0  0  0  0
   44.2778   34.6828   41.6552 H   0  0  0  0  0  0  0  0  0  0  0  0
   44.8133   35.4200   40.1072 H   0  0  0  0  0  0  0  0  0  0  0  0
   43.5276   34.1656   40.1072 H   0  0  0  0  0  0  0  0  0  0  0  0
  1  2  1  0
  1 10  1  0
  3  2  1  0
  4  3  1  0
  4  5  1  0
  5  1  1  0
  6  7  2  0
  8  7  1  0
  9  8  2  0
 10  9  1  0
 10 11  2  0
 11  6  1  0
 12 14  1  0
 12  5  1  0
 13 12  1  0
  1 15  1  6
  2 16  1  0
  2 17  1  0
  3 18  1  0
  3 19  1  0
  4 20  1  0
  4 21  1  0
  5 22  1  1
  6 23  1  0
  7 24  1  0
  8 25  1  0
 12 26  1  0
 13 27  1  0
 13 28  1  0
 13 29  1  0
 14 30  1  0
 14 31  1  0
 14 32  1  0
M  ISO  8  15  13  16  13  17  13  18  13  19  13  20  13  21  13  22  13
M  ISO  8  23  14  24  14  25  14  26   8  27   8  28   8  29   8  30   8
M  ISO  2  31   8  32   8
M  END
>  <minimizedAffinity>  (1) 
-4.58271551

>  <minimizedRMSD>  (1) 
0.741318703

$$$$
