
     RDKit          3D

 46 49  0  0  1  0  0  0  0  0999 V2000
   46.5420   34.9400   42.0470 C   0  0  1  0  0  0  0  0  0  0  0  0
   48.0220   35.3580   42.0430 C   0  0  0  0  0  0  0  0  0  0  0  0
   48.4660   35.2310   40.6260 C   0  0  0  0  0  0  0  0  0  0  0  0
   47.5870   34.1340   40.0560 C   0  0  0  0  0  0  0  0  0  0  0  0
   46.5600   33.7930   41.1370 C   0  0  2  0  0  0  0  0  0  0  0  0
   46.3280   33.3130   45.3550 C   0  0  0  0  0  0  0  0  0  0  0  0
   45.3410   34.0640   46.0010 C   0  0  0  0  0  0  0  0  0  0  0  0
   44.7530   35.1240   45.3080 C   0  0  0  0  0  0  0  0  0  0  0  0
   45.2160   35.3030   44.0710 N   0  0  0  0  0  0  0  0  0  0  0  0
   46.1530   34.6010   43.4360 C   0  0  0  0  0  0  0  0  0  0  0  0
   46.7040   33.5950   44.1090 N   0  0  0  0  0  0  0  0  0  0  0  0
   45.2260   33.4260   40.5110 C   0  0  2  0  0  0  0  0  0  0  0  0
   45.4790   33.0730   39.0750 C   0  0  0  0  0  0  0  0  0  0  0  0
   44.2190   34.5070   40.6780 C   0  0  0  0  0  0  0  0  0  0  0  0
   42.8600   33.8830   40.7070 C   0  0  0  0  0  0  0  0  0  0  0  0
   42.3930   32.9460   41.5510 N   0  0  0  0  0  0  0  0  0  0  0  0
   41.1450   32.4600   41.4780 C   0  0  0  0  0  0  0  0  0  0  0  0
   40.2770   32.8870   40.5420 N   0  0  0  0  0  0  0  0  0  0  0  0
   40.6880   33.8260   39.6640 C   0  0  0  0  0  0  0  0  0  0  0  0
   39.8090   34.2680   38.7050 C   0  0  0  0  0  0  0  0  0  0  0  0
   40.1580   35.2240   37.7750 C   0  0  0  0  0  0  0  0  0  0  0  0
   41.4470   35.7470   37.8280 C   0  0  0  0  0  0  0  0  0  0  0  0
   42.3290   35.3050   38.7890 C   0  0  0  0  0  0  0  0  0  0  0  0
   41.9850   34.3480   39.7210 C   0  0  0  0  0  0  0  0  0  0  0  0
   45.8126   35.6983   41.7261 H   0  0  0  0  0  0  0  0  0  0  0  0
   48.1293   36.3969   42.3882 H   0  0  0  0  0  0  0  0  0  0  0  0
   48.6251   34.7330   42.7180 H   0  0  0  0  0  0  0  0  0  0  0  0
   48.3123   36.1753   40.0832 H   0  0  0  0  0  0  0  0  0  0  0  0
   49.5377   34.9987   40.5401 H   0  0  0  0  0  0  0  0  0  0  0  0
   47.0785   34.4885   39.1473 H   0  0  0  0  0  0  0  0  0  0  0  0
   48.1821   33.2508   39.7807 H   0  0  0  0  0  0  0  0  0  0  0  0
   46.8171   32.8965   41.7203 H   0  0  0  0  0  0  0  0  0  0  0  0
   46.8023   32.4743   45.8856 H   0  0  0  0  0  0  0  0  0  0  0  0
   45.0352   33.8254   47.0303 H   0  0  0  0  0  0  0  0  0  0  0  0
   43.9706   35.7602   45.7475 H   0  0  0  0  0  0  0  0  0  0  0  0
   44.7879   32.5569   41.0236 H   0  0  0  0  0  0  0  0  0  0  0  0
   46.1191   32.1799   39.0243 H   0  0  0  0  0  0  0  0  0  0  0  0
   44.5217   32.8669   38.5739 H   0  0  0  0  0  0  0  0  0  0  0  0
   45.9817   33.9134   38.5739 H   0  0  0  0  0  0  0  0  0  0  0  0
   44.4021   35.0434   41.6207 H   0  0  0  0  0  0  0  0  0  0  0  0
   44.2897   35.2225   39.8455 H   0  0  0  0  0  0  0  0  0  0  0  0
   40.8234   31.6947   42.1998 H   0  0  0  0  0  0  0  0  0  0  0  0
   38.7938   33.8454   38.6784 H   0  0  0  0  0  0  0  0  0  0  0  0
   39.4397   35.5632   37.0141 H   0  0  0  0  0  0  0  0  0  0  0  0
   41.7608   36.5125   37.1031 H   0  0  0  0  0  0  0  0  0  0  0  0
   43.3433   35.7300   38.8142 H   0  0  0  0  0  0  0  0  0  0  0  0
  1 10  1  0
  2  1  1  0
  3  2  1  0
  4  3  1  0
  4  5  1  0
  5  1  1  0
  6  7  2  0
  8  7  1  0
  9  8  2  0
 10  9  1  0
 10 11  2  0
 11  6  1  0
 12 14  1  0
 12  5  1  0
 13 12  1  0
 14 15  1  0
 15 16  2  0
 17 16  1  0
 18 17  2  0
 19 24  2  0
 19 18  1  0
 20 19  1  0
 21 22  1  0
 21 20  2  0
 22 23  2  0
 23 24  1  0
 24 15  1  0
  1 25  1  6
  2 26  1  0
  2 27  1  0
  3 28  1  0
  3 29  1  0
  4 30  1  0
  4 31  1  0
  5 32  1  1
  6 33  1  0
  7 34  1  0
  8 35  1  0
 12 36  1  1
 13 37  1  0
 13 38  1  0
 13 39  1  0
 14 40  1  0
 14 41  1  0
 17 42  1  0
 20 43  1  0
 21 44  1  0
 22 45  1  0
 23 46  1  0
M  ISO  8  25  13  26  13  27  13  28  13  29  13  30  13  31  13  32  13
M  ISO  8  33  14  34  14  35  14  36   8  37   8  38   8  39   8  40   8
M  ISO  6  41   8  42  14  43  14  44  14  45  14  46  14
M  END
>  <minimizedAffinity>  (1) 
-6.79513454

>  <minimizedRMSD>  (1) 
1.29746616

$$$$
