
     RDKit          3D

 45 47  0  0  1  0  0  0  0  0999 V2000
   46.5230   35.0050   42.1550 C   0  0  1  0  0  0  0  0  0  0  0  0
   48.0270   35.2260   42.0990 C   0  0  0  0  0  0  0  0  0  0  0  0
   48.4150   35.0620   40.6590 C   0  0  0  0  0  0  0  0  0  0  0  0
   47.3650   34.1500   40.0740 C   0  0  0  0  0  0  0  0  0  0  0  0
   46.3430   33.9010   41.1790 C   0  0  2  0  0  0  0  0  0  0  0  0
   46.3200   33.3340   45.4420 C   0  0  0  0  0  0  0  0  0  0  0  0
   45.3310   34.0480   46.1010 C   0  0  0  0  0  0  0  0  0  0  0  0
   44.7360   35.0970   45.4170 C   0  0  0  0  0  0  0  0  0  0  0  0
   45.1760   35.3250   44.1770 N   0  0  0  0  0  0  0  0  0  0  0  0
   46.1230   34.6530   43.5280 C   0  0  0  0  0  0  0  0  0  0  0  0
   46.6850   33.6450   44.2010 N   0  0  0  0  0  0  0  0  0  0  0  0
   44.9500   33.7700   40.6010 C   0  0  2  0  0  0  0  0  0  0  0  0
   45.0710   33.2010   39.2230 C   0  0  0  0  0  0  0  0  0  0  0  0
   44.1870   35.0340   40.6480 C   0  0  0  0  0  0  0  0  0  0  0  0
   40.0560   33.9820   40.1330 C   0  0  0  0  0  0  0  0  0  0  0  0
   40.7830   33.4630   41.2110 C   0  0  0  0  0  0  0  0  0  0  0  0
   42.1000   33.8660   41.2790 C   0  0  0  0  0  0  0  0  0  0  0  0
   42.7540   34.7250   40.3860 C   0  0  0  0  0  0  0  0  0  0  0  0
   41.9890   35.2040   39.3460 C   0  0  0  0  0  0  0  0  0  0  0  0
   40.6590   34.8310   39.2310 C   0  0  0  0  0  0  0  0  0  0  0  0
   38.3910   33.5180   39.9850 S   0  0  0  0  0  0  0  0  0  0  0  0
   38.1030   32.2550   40.7830 O   0  0  0  0  0  0  0  0  0  0  0  0
   38.1090   33.2160   38.5470 O   0  0  0  0  0  0  0  0  0  0  0  0
   45.9017   35.8782   41.9068 H   0  0  0  0  0  0  0  0  0  0  0  0
   48.2781   36.2379   42.4498 H   0  0  0  0  0  0  0  0  0  0  0  0
   48.5633   34.5150   42.7446 H   0  0  0  0  0  0  0  0  0  0  0  0
   48.4128   36.0344   40.1447 H   0  0  0  0  0  0  0  0  0  0  0  0
   49.4289   34.6499   40.5483 H   0  0  0  0  0  0  0  0  0  0  0  0
   46.8818   34.6313   39.2109 H   0  0  0  0  0  0  0  0  0  0  0  0
   47.8086   33.2067   39.7226 H   0  0  0  0  0  0  0  0  0  0  0  0
   46.4934   32.9450   41.7019 H   0  0  0  0  0  0  0  0  0  0  0  0
   46.8122   32.4945   45.9549 H   0  0  0  0  0  0  0  0  0  0  0  0
   45.0298   33.7920   47.1275 H   0  0  0  0  0  0  0  0  0  0  0  0
   43.9433   35.7092   45.8718 H   0  0  0  0  0  0  0  0  0  0  0  0
   44.3571   33.0825   41.2222 H   0  0  0  0  0  0  0  0  0  0  0  0
   45.2994   32.1270   39.2885 H   0  0  0  0  0  0  0  0  0  0  0  0
   44.1228   33.3420   38.6835 H   0  0  0  0  0  0  0  0  0  0  0  0
   45.8798   33.7156   38.6835 H   0  0  0  0  0  0  0  0  0  0  0  0
   44.2925   35.4955   41.6409 H   0  0  0  0  0  0  0  0  0  0  0  0
   44.5681   35.7352   39.8910 H   0  0  0  0  0  0  0  0  0  0  0  0
   40.3358   32.7826   41.9506 H   0  0  0  0  0  0  0  0  0  0  0  0
   42.6957   33.4746   42.1168 H   0  0  0  0  0  0  0  0  0  0  0  0
   42.4343   35.8841   38.6049 H   0  0  0  0  0  0  0  0  0  0  0  0
   40.0660   35.2255   38.3927 H   0  0  0  0  0  0  0  0  0  0  0  0
   37.6116   34.5418   40.4555 H   0  0  0  0  0  0  0  0  0  0  0  0
  1 10  1  0
  2  1  1  0
  3  2  1  0
  4  3  1  0
  4  5  1  0
  5  1  1  0
  6  7  2  0
  8  7  1  0
  9  8  2  0
 10  9  1  0
 10 11  2  0
 11  6  1  0
 12 14  1  0
 12  5  1  0
 13 12  1  0
 15 16  2  0
 16 17  1  0
 18 14  1  0
 18 17  2  0
 19 18  1  0
 20 19  2  0
 20 15  1  0
 21 15  1  0
 21 22  2  0
 23 21  2  0
  1 24  1  6
  2 25  1  0
  2 26  1  0
  3 27  1  0
  3 28  1  0
  4 29  1  0
  4 30  1  0
  5 31  1  1
  6 32  1  0
  7 33  1  0
  8 34  1  0
 12 35  1  1
 13 36  1  0
 13 37  1  0
 13 38  1  0
 14 39  1  0
 14 40  1  0
 16 41  1  0
 17 42  1  0
 19 43  1  0
 20 44  1  0
 21 45  1  0
M  ISO  8  24  13  25  13  26  13  27  13  28  13  29  13  30  13  31  13
M  ISO  8  32  14  33  14  34  14  35   8  36   8  37   8  38   8  39   8
M  ISO  6  40   8  41  14  42  14  43  14  44  14  45  11
M  END
>  <minimizedAffinity>  (1) 
-6.1838913

>  <minimizedRMSD>  (1) 
1.21531808

$$$$
