
     RDKit          3D

 37 39  0  0  1  0  0  0  0  0999 V2000
   46.1210   34.8920   41.8890 C   0  0  2  0  0  0  0  0  0  0  0  0
   45.8360   35.6230   43.1240 C   0  0  0  0  0  0  0  0  0  0  0  0
   45.0030   34.7050   44.0140 C   0  0  0  0  0  0  0  0  0  0  0  0
   44.9190   33.3730   43.3480 C   0  0  0  0  0  0  0  0  0  0  0  0
   45.1510   33.6850   41.8990 C   0  0  1  0  0  0  0  0  0  0  0  0
   47.4710   34.2910   41.7660 C   0  0  0  0  0  0  0  0  0  0  0  0
   48.5220   34.8020   42.5390 C   0  0  0  0  0  0  0  0  0  0  0  0
   49.7860   34.2280   42.4420 C   0  0  0  0  0  0  0  0  0  0  0  0
   49.9150   33.1720   41.5710 N   0  0  0  0  0  0  0  0  0  0  0  0
   48.8920   32.6980   40.8390 C   0  0  0  0  0  0  0  0  0  0  0  0
   47.6710   33.2580   40.9370 N   0  0  0  0  0  0  0  0  0  0  0  0
   43.9770   33.8750   41.1390 N   0  0  0  0  0  0  0  0  0  0  0  0
   42.8860   33.0020   41.4930 C   0  0  0  0  0  0  0  0  0  0  0  0
   42.1460   32.6800   40.2170 C   0  0  0  0  0  0  0  0  0  0  0  0
   42.4590   33.6240   39.1580 N   0  0  0  0  0  0  0  0  0  0  0  0
   42.4970   34.9910   39.6630 C   0  0  0  0  0  0  0  0  0  0  0  0
   43.5770   35.1640   40.7380 C   0  0  0  0  0  0  0  0  0  0  0  0
   46.0260   35.6218   41.0714 H   0  0  0  0  0  0  0  0  0  0  0  0
   46.7761   35.8866   43.6307 H   0  0  0  0  0  0  0  0  0  0  0  0
   45.2917   36.5542   42.9081 H   0  0  0  0  0  0  0  0  0  0  0  0
   45.4839   34.6012   44.9978 H   0  0  0  0  0  0  0  0  0  0  0  0
   43.9966   35.1239   44.1610 H   0  0  0  0  0  0  0  0  0  0  0  0
   45.6937   32.6929   43.7318 H   0  0  0  0  0  0  0  0  0  0  0  0
   43.9590   32.8667   43.5268 H   0  0  0  0  0  0  0  0  0  0  0  0
   45.5923   32.8195   41.3831 H   0  0  0  0  0  0  0  0  0  0  0  0
   48.3493   35.6505   43.2174 H   0  0  0  0  0  0  0  0  0  0  0  0
   50.6373   34.5996   43.0313 H   0  0  0  0  0  0  0  0  0  0  0  0
   49.0527   31.8497   40.1575 H   0  0  0  0  0  0  0  0  0  0  0  0
   43.2735   32.0786   41.9482 H   0  0  0  0  0  0  0  0  0  0  0  0
   42.2187   33.4839   42.2227 H   0  0  0  0  0  0  0  0  0  0  0  0
   42.4280   31.6691   39.8875 H   0  0  0  0  0  0  0  0  0  0  0  0
   41.0672   32.7427   40.4226 H   0  0  0  0  0  0  0  0  0  0  0  0
   41.7388   33.5569   38.4247 H   0  0  0  0  0  0  0  0  0  0  0  0
   42.7111   35.6745   38.8281 H   0  0  0  0  0  0  0  0  0  0  0  0
   41.5206   35.2187   40.1154 H   0  0  0  0  0  0  0  0  0  0  0  0
   44.4356   35.7132   40.3244 H   0  0  0  0  0  0  0  0  0  0  0  0
   43.1877   35.7354   41.5936 H   0  0  0  0  0  0  0  0  0  0  0  0
  1  5  1  0
  1  2  1  0
  2  3  1  0
  4  3  1  0
  5  4  1  0
  6  1  1  0
  6  7  2  0
  8  7  1  0
  9  8  2  0
 10 11  2  0
 10  9  1  0
 11  6  1  0
 12 13  1  0
 12  5  1  0
 14 13  1  0
 15 16  1  0
 15 14  1  0
 16 17  1  0
 17 12  1  0
  1 18  1  6
  2 19  1  0
  2 20  1  0
  3 21  1  0
  3 22  1  0
  4 23  1  0
  4 24  1  0
  5 25  1  6
  7 26  1  0
  8 27  1  0
 10 28  1  0
 13 29  1  0
 13 30  1  0
 14 31  1  0
 14 32  1  0
 15 33  1  0
 16 34  1  0
 16 35  1  0
 17 36  1  0
 17 37  1  0
M  ISO  8  18  13  19  13  20  13  21  13  22  13  23  13  24  13  25  13
M  ISO  8  26  14  27  14  28  14  29  13  30  13  31  13  32  13  33   5
M  ISO  4  34  13  35  13  36  13  37  13
M  END
>  <minimizedAffinity>  (1) 
-4.25268269

>  <minimizedRMSD>  (1) 
4.71833134

$$$$
