
     RDKit          3D

 40 42  0  0  1  0  0  0  0  0999 V2000
   46.4630   34.9610   42.0930 C   0  0  1  0  0  0  0  0  0  0  0  0
   47.9680   35.2240   42.0360 C   0  0  0  0  0  0  0  0  0  0  0  0
   48.3500   35.0600   40.5940 C   0  0  0  0  0  0  0  0  0  0  0  0
   47.3280   34.0890   40.0400 C   0  0  0  0  0  0  0  0  0  0  0  0
   46.3100   33.8250   41.1670 C   0  0  2  0  0  0  0  0  0  0  0  0
   46.3160   33.3240   45.4050 C   0  0  0  0  0  0  0  0  0  0  0  0
   45.3390   34.0610   46.0730 C   0  0  0  0  0  0  0  0  0  0  0  0
   44.7370   35.1090   45.3920 C   0  0  0  0  0  0  0  0  0  0  0  0
   45.1610   35.3140   44.1420 N   0  0  0  0  0  0  0  0  0  0  0  0
   46.0890   34.6270   43.4840 C   0  0  0  0  0  0  0  0  0  0  0  0
   46.6550   33.6210   44.1610 N   0  0  0  0  0  0  0  0  0  0  0  0
   44.9420   33.6390   40.5870 C   0  0  2  0  0  0  0  0  0  0  0  0
   45.0610   33.1920   39.1610 C   0  0  0  0  0  0  0  0  0  0  0  0
   44.0800   34.8500   40.7310 C   0  0  0  0  0  0  0  0  0  0  0  0
   42.6780   34.3800   41.0290 C   0  0  0  0  0  0  0  0  0  0  0  0
   41.6460   35.3220   41.1340 C   0  0  0  0  0  0  0  0  0  0  0  0
   40.3730   34.8950   41.4040 C   0  0  0  0  0  0  0  0  0  0  0  0
   40.0640   33.6080   41.5750 N   0  0  0  0  0  0  0  0  0  0  0  0
   41.0820   32.7200   41.4670 C   0  0  0  0  0  0  0  0  0  0  0  0
   42.3440   33.1050   41.2030 N   0  0  0  0  0  0  0  0  0  0  0  0
   45.8192   35.8071   41.8108 H   0  0  0  0  0  0  0  0  0  0  0  0
   48.1931   36.2444   42.3795 H   0  0  0  0  0  0  0  0  0  0  0  0
   48.5272   34.5358   42.6869 H   0  0  0  0  0  0  0  0  0  0  0  0
   48.2975   36.0234   40.0657 H   0  0  0  0  0  0  0  0  0  0  0  0
   49.3812   34.6969   40.4728 H   0  0  0  0  0  0  0  0  0  0  0  0
   46.8221   34.5282   39.1676 H   0  0  0  0  0  0  0  0  0  0  0  0
   47.8073   33.1543   39.7133 H   0  0  0  0  0  0  0  0  0  0  0  0
   46.4802   32.8927   41.7255 H   0  0  0  0  0  0  0  0  0  0  0  0
   46.8106   32.4861   45.9180 H   0  0  0  0  0  0  0  0  0  0  0  0
   45.0544   33.8190   47.1076 H   0  0  0  0  0  0  0  0  0  0  0  0
   43.9577   35.7333   45.8534 H   0  0  0  0  0  0  0  0  0  0  0  0
   44.4298   32.8542   41.1630 H   0  0  0  0  0  0  0  0  0  0  0  0
   45.3439   32.1294   39.1322 H   0  0  0  0  0  0  0  0  0  0  0  0
   44.0953   33.3283   38.6522 H   0  0  0  0  0  0  0  0  0  0  0  0
   45.8311   33.7904   38.6522 H   0  0  0  0  0  0  0  0  0  0  0  0
   44.4487   35.4767   41.5564 H   0  0  0  0  0  0  0  0  0  0  0  0
   44.0985   35.4488   39.8085 H   0  0  0  0  0  0  0  0  0  0  0  0
   41.8561   36.3935   41.0009 H   0  0  0  0  0  0  0  0  0  0  0  0
   39.5716   35.6443   41.4832 H   0  0  0  0  0  0  0  0  0  0  0  0
   40.8696   31.6489   41.5996 H   0  0  0  0  0  0  0  0  0  0  0  0
  1 10  1  0
  2  1  1  0
  3  2  1  0
  4  3  1  0
  4  5  1  0
  5  1  1  0
  6  7  2  0
  8  7  1  0
  9  8  2  0
 10  9  1  0
 10 11  2  0
 11  6  1  0
 12 14  1  0
 12  5  1  0
 13 12  1  0
 14 15  1  0
 15 16  2  0
 15 20  1  0
 16 17  1  0
 17 18  2  0
 19 18  1  0
 20 19  2  0
  1 21  1  6
  2 22  1  0
  2 23  1  0
  3 24  1  0
  3 25  1  0
  4 26  1  0
  4 27  1  0
  5 28  1  1
  6 29  1  0
  7 30  1  0
  8 31  1  0
 12 32  1  1
 13 33  1  0
 13 34  1  0
 13 35  1  0
 14 36  1  0
 14 37  1  0
 16 38  1  0
 17 39  1  0
 19 40  1  0
M  ISO  8  21  13  22  13  23  13  24  13  25  13  26  13  27  13  28  13
M  ISO  8  29  14  30  14  31  14  32   8  33   8  34   8  35   8  36   8
M  ISO  4  37   8  38  14  39  14  40  14
M  END
>  <minimizedAffinity>  (1) 
-5.63766813

>  <minimizedRMSD>  (1) 
1.36703861

$$$$
