
     RDKit          3D

 46 48  0  0  1  0  0  0  0  0999 V2000
   46.3900   35.0120   41.9230 C   0  0  1  0  0  0  0  0  0  0  0  0
   47.8830   35.3300   41.9410 C   0  0  0  0  0  0  0  0  0  0  0  0
   48.3810   35.0040   40.5710 C   0  0  0  0  0  0  0  0  0  0  0  0
   47.4220   33.9660   40.0450 C   0  0  0  0  0  0  0  0  0  0  0  0
   46.3340   33.7800   41.1280 C   0  0  2  0  0  0  0  0  0  0  0  0
   45.8850   33.6750   45.3270 C   0  0  0  0  0  0  0  0  0  0  0  0
   44.9660   34.5520   45.8820 C   0  0  0  0  0  0  0  0  0  0  0  0
   44.5140   35.6160   45.0840 C   0  0  0  0  0  0  0  0  0  0  0  0
   45.0230   35.6810   43.8490 N   0  0  0  0  0  0  0  0  0  0  0  0
   45.9060   34.8360   43.3170 C   0  0  0  0  0  0  0  0  0  0  0  0
   46.3290   33.8260   44.0850 N   0  0  0  0  0  0  0  0  0  0  0  0
   45.0160   33.4770   40.4590 C   0  0  2  0  0  0  0  0  0  0  0  0
   45.2720   32.9300   39.0910 C   0  0  0  0  0  0  0  0  0  0  0  0
   44.1140   34.6760   40.4260 C   0  0  0  0  0  0  0  0  0  0  0  0
   42.7230   34.3660   40.5540 N   0  0  0  0  0  0  0  0  0  0  0  0
   42.0630   34.2980   39.2850 C   0  0  0  0  0  0  0  0  0  0  0  0
   41.2700   35.4930   38.8900 C   0  0  0  0  0  0  0  0  0  0  0  0
   40.3400   35.7900   39.9470 N   0  0  0  0  0  0  0  0  0  0  0  0
   40.9760   35.9810   41.2160 C   0  0  0  0  0  0  0  0  0  0  0  0
   41.9780   34.9260   41.5990 C   0  0  0  0  0  0  0  0  0  0  0  0
   45.7476   35.7963   41.4962 H   0  0  0  0  0  0  0  0  0  0  0  0
   48.0459   36.3945   42.1653 H   0  0  0  0  0  0  0  0  0  0  0  0
   48.4122   34.7532   42.7138 H   0  0  0  0  0  0  0  0  0  0  0  0
   48.3702   35.8995   39.9323 H   0  0  0  0  0  0  0  0  0  0  0  0
   49.4188   34.6394   40.5840 H   0  0  0  0  0  0  0  0  0  0  0  0
   46.9667   34.3116   39.1052 H   0  0  0  0  0  0  0  0  0  0  0  0
   47.9393   33.0181   39.8357 H   0  0  0  0  0  0  0  0  0  0  0  0
   46.4823   32.9260   41.8052 H   0  0  0  0  0  0  0  0  0  0  0  0
   46.2555   32.8333   45.9305 H   0  0  0  0  0  0  0  0  0  0  0  0
   44.6032   34.4193   46.9119 H   0  0  0  0  0  0  0  0  0  0  0  0
   43.7846   36.3521   45.4530 H   0  0  0  0  0  0  0  0  0  0  0  0
   44.4842   32.7171   41.0504 H   0  0  0  0  0  0  0  0  0  0  0  0
   45.7369   31.9366   39.1744 H   0  0  0  0  0  0  0  0  0  0  0  0
   44.3202   32.8448   38.5461 H   0  0  0  0  0  0  0  0  0  0  0  0
   45.9472   33.6062   38.5461 H   0  0  0  0  0  0  0  0  0  0  0  0
   44.3965   35.3433   41.2536 H   0  0  0  0  0  0  0  0  0  0  0  0
   44.2446   35.1433   39.4388 H   0  0  0  0  0  0  0  0  0  0  0  0
   42.8322   34.1368   38.5153 H   0  0  0  0  0  0  0  0  0  0  0  0
   41.3340   33.4794   39.3769 H   0  0  0  0  0  0  0  0  0  0  0  0
   41.9418   36.3500   38.7345 H   0  0  0  0  0  0  0  0  0  0  0  0
   40.7276   35.2944   37.9538 H   0  0  0  0  0  0  0  0  0  0  0  0
   39.8299   36.6509   39.7028 H   0  0  0  0  0  0  0  0  0  0  0  0
   41.4953   36.9504   41.1932 H   0  0  0  0  0  0  0  0  0  0  0  0
   40.1753   35.9271   41.9684 H   0  0  0  0  0  0  0  0  0  0  0  0
   41.4318   34.1102   42.0952 H   0  0  0  0  0  0  0  0  0  0  0  0
   42.7116   35.4384   42.2388 H   0  0  0  0  0  0  0  0  0  0  0  0
  1  2  1  0
  1 10  1  0
  3  2  1  0
  4  3  1  0
  4  5  1  0
  5  1  1  0
  6  7  2  0
  8  7  1  0
  9  8  2  0
 10  9  1  0
 10 11  2  0
 11  6  1  0
 12  5  1  0
 13 12  1  0
 14 12  1  0
 14 15  1  0
 15 20  1  0
 16 15  1  0
 17 16  1  0
 17 18  1  0
 18 19  1  0
 19 20  1  0
  1 21  1  6
  2 22  1  0
  2 23  1  0
  3 24  1  0
  3 25  1  0
  4 26  1  0
  4 27  1  0
  5 28  1  1
  6 29  1  0
  7 30  1  0
  8 31  1  0
 12 32  1  1
 13 33  1  0
 13 34  1  0
 13 35  1  0
 14 36  1  0
 14 37  1  0
 16 38  1  0
 16 39  1  0
 17 40  1  0
 17 41  1  0
 18 42  1  0
 19 43  1  0
 19 44  1  0
 20 45  1  0
 20 46  1  0
M  ISO  8  21  13  22  13  23  13  24  13  25  13  26  13  27  13  28  13
M  ISO  8  29  14  30  14  31  14  32   8  33   8  34   8  35   8  36   8
M  ISO  8  37   8  38  13  39  13  40  13  41  13  42   5  43  13  44  13
M  ISO  2  45  13  46  13
M  END
>  <minimizedAffinity>  (1) 
-5.5437355

>  <minimizedRMSD>  (1) 
1.04674006

$$$$
