
     RDKit          3D

 39 41  0  0  1  0  0  0  0  0999 V2000
   46.4450   34.9620   42.1170 C   0  0  1  0  0  0  0  0  0  0  0  0
   47.9520   35.1570   42.0330 C   0  0  0  0  0  0  0  0  0  0  0  0
   48.3040   34.9770   40.5910 C   0  0  0  0  0  0  0  0  0  0  0  0
   47.2200   34.0900   40.0410 C   0  0  0  0  0  0  0  0  0  0  0  0
   46.2220   33.8230   41.1910 C   0  0  2  0  0  0  0  0  0  0  0  0
   46.2930   33.3490   45.4430 C   0  0  0  0  0  0  0  0  0  0  0  0
   45.3210   34.0820   46.1050 C   0  0  0  0  0  0  0  0  0  0  0  0
   44.7190   35.1240   45.4150 C   0  0  0  0  0  0  0  0  0  0  0  0
   45.1460   35.3160   44.1640 N   0  0  0  0  0  0  0  0  0  0  0  0
   46.0800   34.6170   43.5200 C   0  0  0  0  0  0  0  0  0  0  0  0
   46.6480   33.6230   44.1930 N   0  0  0  0  0  0  0  0  0  0  0  0
   44.8320   33.7230   40.6190 C   0  0  2  0  0  0  0  0  0  0  0  0
   44.9100   33.1960   39.2170 C   0  0  0  0  0  0  0  0  0  0  0  0
   44.0590   34.9930   40.7190 C   0  0  0  0  0  0  0  0  0  0  0  0
   42.6440   34.6270   41.1000 C   0  0  0  0  0  0  0  0  0  0  0  0
   41.5210   35.4290   41.1540 C   0  0  0  0  0  0  0  0  0  0  0  0
   40.4780   34.6220   41.5570 C   0  0  0  0  0  0  0  0  0  0  0  0
   40.9420   33.3840   41.7420 N   0  0  0  0  0  0  0  0  0  0  0  0
   42.2180   33.3940   41.4710 N   0  0  0  0  0  0  0  0  0  0  0  0
   45.8426   35.8432   41.8512 H   0  0  0  0  0  0  0  0  0  0  0  0
   48.2275   36.1666   42.3718 H   0  0  0  0  0  0  0  0  0  0  0  0
   48.4899   34.4432   42.6742 H   0  0  0  0  0  0  0  0  0  0  0  0
   48.3139   35.9459   40.0703 H   0  0  0  0  0  0  0  0  0  0  0  0
   49.3054   34.5415   40.4583 H   0  0  0  0  0  0  0  0  0  0  0  0
   46.7085   34.5926   39.2069 H   0  0  0  0  0  0  0  0  0  0  0  0
   47.6411   33.1471   39.6620 H   0  0  0  0  0  0  0  0  0  0  0  0
   46.3597   32.8758   41.7331 H   0  0  0  0  0  0  0  0  0  0  0  0
   46.7845   32.5165   45.9678 H   0  0  0  0  0  0  0  0  0  0  0  0
   45.0368   33.8459   47.1411 H   0  0  0  0  0  0  0  0  0  0  0  0
   43.9391   35.7526   45.8695 H   0  0  0  0  0  0  0  0  0  0  0  0
   44.2596   33.0109   41.2316 H   0  0  0  0  0  0  0  0  0  0  0  0
   45.0710   32.1081   39.2426 H   0  0  0  0  0  0  0  0  0  0  0  0
   43.9696   33.4152   38.6901 H   0  0  0  0  0  0  0  0  0  0  0  0
   45.7466   33.6782   38.6901 H   0  0  0  0  0  0  0  0  0  0  0  0
   44.5003   35.6429   41.4890 H   0  0  0  0  0  0  0  0  0  0  0  0
   44.0773   35.5370   39.7631 H   0  0  0  0  0  0  0  0  0  0  0  0
   41.4687   36.5027   40.9209 H   0  0  0  0  0  0  0  0  0  0  0  0
   39.4365   34.9448   41.7020 H   0  0  0  0  0  0  0  0  0  0  0  0
   40.3915   32.5677   42.0444 H   0  0  0  0  0  0  0  0  0  0  0  0
  1 10  1  0
  2  1  1  0
  3  2  1  0
  4  3  1  0
  4  5  1  0
  5  1  1  0
  6  7  2  0
  8  7  1  0
  9  8  2  0
 10  9  1  0
 10 11  2  0
 11  6  1  0
 12 14  1  0
 12  5  1  0
 13 12  1  0
 14 15  1  0
 15 16  1  0
 15 19  2  0
 16 17  2  0
 17 18  1  0
 19 18  1  0
  1 20  1  6
  2 21  1  0
  2 22  1  0
  3 23  1  0
  3 24  1  0
  4 25  1  0
  4 26  1  0
  5 27  1  1
  6 28  1  0
  7 29  1  0
  8 30  1  0
 12 31  1  1
 13 32  1  0
 13 33  1  0
 13 34  1  0
 14 35  1  0
 14 36  1  0
 16 37  1  0
 17 38  1  0
 18 39  1  0
M  ISO  8  20  13  21  13  22  13  23  13  24  13  25  13  26  13  27  13
M  ISO  8  28  14  29  14  30  14  31   8  32   8  33   8  34   8  35   8
M  ISO  4  36   8  37  14  38  14  39   9
M  END
>  <minimizedAffinity>  (1) 
-5.53050947

>  <minimizedRMSD>  (1) 
1.36323011

$$$$
