
     RDKit          3D

 39 41  0  0  1  0  0  0  0  0999 V2000
   46.4480   34.9630   42.1120 C   0  0  1  0  0  0  0  0  0  0  0  0
   47.9610   35.1760   42.0300 C   0  0  0  0  0  0  0  0  0  0  0  0
   48.3050   35.0430   40.5850 C   0  0  0  0  0  0  0  0  0  0  0  0
   47.2670   34.0760   40.0430 C   0  0  0  0  0  0  0  0  0  0  0  0
   46.2540   33.8370   41.1670 C   0  0  2  0  0  0  0  0  0  0  0  0
   46.3230   33.3180   45.4270 C   0  0  0  0  0  0  0  0  0  0  0  0
   45.3360   34.0680   46.0900 C   0  0  0  0  0  0  0  0  0  0  0  0
   44.7200   35.1310   45.4050 C   0  0  0  0  0  0  0  0  0  0  0  0
   45.1610   35.3080   44.1600 N   0  0  0  0  0  0  0  0  0  0  0  0
   46.0910   34.6130   43.5120 C   0  0  0  0  0  0  0  0  0  0  0  0
   46.6630   33.6130   44.1750 N   0  0  0  0  0  0  0  0  0  0  0  0
   44.8670   33.6430   40.6280 C   0  0  2  0  0  0  0  0  0  0  0  0
   44.9830   33.1950   39.1930 C   0  0  0  0  0  0  0  0  0  0  0  0
   44.0580   34.8960   40.7360 C   0  0  0  0  0  0  0  0  0  0  0  0
   42.6400   34.5210   40.9480 C   0  0  0  0  0  0  0  0  0  0  0  0
   41.6350   35.5830   41.0240 C   0  0  0  0  0  0  0  0  0  0  0  0
   40.3840   35.1220   41.2190 C   0  0  0  0  0  0  0  0  0  0  0  0
   40.0710   33.7630   41.3380 C   0  0  0  0  0  0  0  0  0  0  0  0
   41.7730   33.0090   41.1500 S   0  0  0  0  0  0  0  0  0  0  0  0
   45.8215   35.8306   41.8576 H   0  0  0  0  0  0  0  0  0  0  0  0
   48.2286   36.1774   42.3982 H   0  0  0  0  0  0  0  0  0  0  0  0
   48.5092   34.4499   42.6482 H   0  0  0  0  0  0  0  0  0  0  0  0
   48.2354   36.0157   40.0762 H   0  0  0  0  0  0  0  0  0  0  0  0
   49.3343   34.6884   40.4276 H   0  0  0  0  0  0  0  0  0  0  0  0
   46.7645   34.5119   39.1669 H   0  0  0  0  0  0  0  0  0  0  0  0
   47.7347   33.1321   39.7264 H   0  0  0  0  0  0  0  0  0  0  0  0
   46.4123   32.8952   41.7128 H   0  0  0  0  0  0  0  0  0  0  0  0
   46.8166   32.4831   45.9459 H   0  0  0  0  0  0  0  0  0  0  0  0
   45.0508   33.8281   47.1249 H   0  0  0  0  0  0  0  0  0  0  0  0
   43.9412   35.7620   45.8581 H   0  0  0  0  0  0  0  0  0  0  0  0
   44.3425   32.8793   41.2210 H   0  0  0  0  0  0  0  0  0  0  0  0
   45.2586   32.1305   39.1623 H   0  0  0  0  0  0  0  0  0  0  0  0
   44.0180   33.3387   38.6849 H   0  0  0  0  0  0  0  0  0  0  0  0
   45.7570   33.7889   38.6849 H   0  0  0  0  0  0  0  0  0  0  0  0
   44.4145   35.4962   41.5861 H   0  0  0  0  0  0  0  0  0  0  0  0
   44.1580   35.4907   39.8160 H   0  0  0  0  0  0  0  0  0  0  0  0
   41.8773   36.6519   40.9311 H   0  0  0  0  0  0  0  0  0  0  0  0
   39.5648   35.8529   41.2884 H   0  0  0  0  0  0  0  0  0  0  0  0
   39.0980   33.2753   41.4973 H   0  0  0  0  0  0  0  0  0  0  0  0
  1 10  1  0
  2  1  1  0
  3  2  1  0
  4  3  1  0
  4  5  1  0
  5  1  1  0
  6  7  2  0
  8  7  1  0
  9  8  2  0
 10  9  1  0
 10 11  2  0
 11  6  1  0
 12 14  1  0
 12  5  1  0
 13 12  1  0
 14 15  1  0
 15 16  2  0
 15 19  1  0
 16 17  1  0
 17 18  2  0
 19 18  1  0
  1 20  1  6
  2 21  1  0
  2 22  1  0
  3 23  1  0
  3 24  1  0
  4 25  1  0
  4 26  1  0
  5 27  1  1
  6 28  1  0
  7 29  1  0
  8 30  1  0
 12 31  1  1
 13 32  1  0
 13 33  1  0
 13 34  1  0
 14 35  1  0
 14 36  1  0
 16 37  1  0
 17 38  1  0
 18 39  1  0
M  ISO  8  20  13  21  13  22  13  23  13  24  13  25  13  26  13  27  13
M  ISO  8  28  14  29  14  30  14  31   8  32   8  33   8  34   8  35   8
M  ISO  4  36   8  37  14  38  14  39  14
M  END
>  <minimizedAffinity>  (1) 
-5.51235247

>  <minimizedRMSD>  (1) 
1.13849938

$$$$
