
     RDKit          3D

 38 40  0  0  1  0  0  0  0  0999 V2000
   46.4120   35.0000   42.0630 C   0  0  1  0  0  0  0  0  0  0  0  0
   47.9220   35.1940   42.0310 C   0  0  0  0  0  0  0  0  0  0  0  0
   48.3250   34.9900   40.5950 C   0  0  0  0  0  0  0  0  0  0  0  0
   47.2860   34.0410   40.0440 C   0  0  0  0  0  0  0  0  0  0  0  0
   46.2470   33.8310   41.1620 C   0  0  2  0  0  0  0  0  0  0  0  0
   46.0720   33.5050   45.4140 C   0  0  0  0  0  0  0  0  0  0  0  0
   45.1180   34.3240   46.0270 C   0  0  0  0  0  0  0  0  0  0  0  0
   44.5960   35.3890   45.2830 C   0  0  0  0  0  0  0  0  0  0  0  0
   45.0710   35.5140   44.0410 N   0  0  0  0  0  0  0  0  0  0  0  0
   45.9770   34.7360   43.4570 C   0  0  0  0  0  0  0  0  0  0  0  0
   46.4760   33.7230   44.1600 N   0  0  0  0  0  0  0  0  0  0  0  0
   44.8880   33.6570   40.5560 C   0  0  2  0  0  0  0  0  0  0  0  0
   45.0270   33.2190   39.1290 C   0  0  0  0  0  0  0  0  0  0  0  0
   44.0280   34.8650   40.6690 C   0  0  0  0  0  0  0  0  0  0  0  0
   42.6570   34.3540   40.9770 C   0  0  0  0  0  0  0  0  0  0  0  0
   41.4730   35.3240   41.0040 C   0  0  0  0  0  0  0  0  0  0  0  0
   40.1250   34.1540   41.4260 S   0  0  0  0  0  0  0  0  0  0  0  0
   41.2770   32.6460   41.4950 C   0  0  0  0  0  0  0  0  0  0  0  0
   42.5210   33.0590   41.2210 N   0  0  0  0  0  0  0  0  0  0  0  0
   45.8079   35.8615   41.7424 H   0  0  0  0  0  0  0  0  0  0  0  0
   48.1861   36.2087   42.3637 H   0  0  0  0  0  0  0  0  0  0  0  0
   48.4374   34.4915   42.7025 H   0  0  0  0  0  0  0  0  0  0  0  0
   48.3103   35.9439   40.0474 H   0  0  0  0  0  0  0  0  0  0  0  0
   49.3470   34.5947   40.4985 H   0  0  0  0  0  0  0  0  0  0  0  0
   46.8055   34.4778   39.1561 H   0  0  0  0  0  0  0  0  0  0  0  0
   47.7409   33.0867   39.7400 H   0  0  0  0  0  0  0  0  0  0  0  0
   46.3850   32.9153   41.7558 H   0  0  0  0  0  0  0  0  0  0  0  0
   46.4990   32.6624   45.9776 H   0  0  0  0  0  0  0  0  0  0  0  0
   44.7887   34.1374   47.0598 H   0  0  0  0  0  0  0  0  0  0  0  0
   43.8437   36.0779   45.6946 H   0  0  0  0  0  0  0  0  0  0  0  0
   44.3711   32.8768   41.1340 H   0  0  0  0  0  0  0  0  0  0  0  0
   45.3596   32.1710   39.0979 H   0  0  0  0  0  0  0  0  0  0  0  0
   44.0556   33.3107   38.6210 H   0  0  0  0  0  0  0  0  0  0  0  0
   45.7678   33.8540   38.6210 H   0  0  0  0  0  0  0  0  0  0  0  0
   44.3860   35.5170   41.4794 H   0  0  0  0  0  0  0  0  0  0  0  0
   44.0421   35.4629   39.7458 H   0  0  0  0  0  0  0  0  0  0  0  0
   41.4402   36.4085   40.8228 H   0  0  0  0  0  0  0  0  0  0  0  0
   40.9749   31.6127   41.7208 H   0  0  0  0  0  0  0  0  0  0  0  0
  1 10  1  0
  2  1  1  0
  3  2  1  0
  4  3  1  0
  4  5  1  0
  5  1  1  0
  6  7  2  0
  8  7  1  0
  9  8  2  0
 10  9  1  0
 10 11  2  0
 11  6  1  0
 12 14  1  0
 12  5  1  0
 13 12  1  0
 14 15  1  0
 15 16  2  0
 15 19  1  0
 16 17  1  0
 17 18  1  0
 19 18  2  0
  1 20  1  6
  2 21  1  0
  2 22  1  0
  3 23  1  0
  3 24  1  0
  4 25  1  0
  4 26  1  0
  5 27  1  1
  6 28  1  0
  7 29  1  0
  8 30  1  0
 12 31  1  1
 13 32  1  0
 13 33  1  0
 13 34  1  0
 14 35  1  0
 14 36  1  0
 16 37  1  0
 18 38  1  0
M  ISO  8  20  13  21  13  22  13  23  13  24  13  25  13  26  13  27  13
M  ISO  8  28  14  29  14  30  14  31   8  32   8  33   8  34   8  35   8
M  ISO  3  36   8  37  14  38  14
M  END
>  <minimizedAffinity>  (1) 
-5.30126238

>  <minimizedRMSD>  (1) 
1.30745316

$$$$
