
     RDKit          3D

 33 34  0  0  1  0  0  0  0  0999 V2000
   46.4620   34.9560   42.1160 C   0  0  1  0  0  0  0  0  0  0  0  0
   47.9620   35.1910   42.0350 C   0  0  0  0  0  0  0  0  0  0  0  0
   48.3160   35.0380   40.5930 C   0  0  0  0  0  0  0  0  0  0  0  0
   47.2820   34.0880   40.0490 C   0  0  0  0  0  0  0  0  0  0  0  0
   46.2750   33.8100   41.1890 C   0  0  2  0  0  0  0  0  0  0  0  0
   46.3220   33.3270   45.4370 C   0  0  0  0  0  0  0  0  0  0  0  0
   45.3480   34.0560   46.1020 C   0  0  0  0  0  0  0  0  0  0  0  0
   44.7410   35.1020   45.4160 C   0  0  0  0  0  0  0  0  0  0  0  0
   45.1650   35.3020   44.1630 N   0  0  0  0  0  0  0  0  0  0  0  0
   46.1000   34.6050   43.5190 C   0  0  0  0  0  0  0  0  0  0  0  0
   46.6800   33.6020   44.1810 N   0  0  0  0  0  0  0  0  0  0  0  0
   44.8960   33.6550   40.6090 C   0  0  2  0  0  0  0  0  0  0  0  0
   44.9970   33.1990   39.1860 C   0  0  0  0  0  0  0  0  0  0  0  0
   44.0700   34.9100   40.7370 C   0  0  0  0  0  0  0  0  0  0  0  0
   42.9700   34.7140   39.8660 O   0  0  0  0  0  0  0  0  0  0  0  0
   45.8357   35.8198   41.8485 H   0  0  0  0  0  0  0  0  0  0  0  0
   48.2114   36.2032   42.3861 H   0  0  0  0  0  0  0  0  0  0  0  0
   48.5190   34.4843   42.6676 H   0  0  0  0  0  0  0  0  0  0  0  0
   48.2642   36.0071   40.0751 H   0  0  0  0  0  0  0  0  0  0  0  0
   49.3413   34.6656   40.4515 H   0  0  0  0  0  0  0  0  0  0  0  0
   46.7649   34.5437   39.1917 H   0  0  0  0  0  0  0  0  0  0  0  0
   47.7509   33.1544   39.7047 H   0  0  0  0  0  0  0  0  0  0  0  0
   46.4297   32.8714   41.7413 H   0  0  0  0  0  0  0  0  0  0  0  0
   46.8155   32.4954   45.9613 H   0  0  0  0  0  0  0  0  0  0  0  0
   45.0651   33.8150   47.1373 H   0  0  0  0  0  0  0  0  0  0  0  0
   43.9604   35.7265   45.8751 H   0  0  0  0  0  0  0  0  0  0  0  0
   44.3653   32.8880   41.1921 H   0  0  0  0  0  0  0  0  0  0  0  0
   45.2348   32.1253   39.1610 H   0  0  0  0  0  0  0  0  0  0  0  0
   44.0383   33.3742   38.6759 H   0  0  0  0  0  0  0  0  0  0  0  0
   45.7921   33.7626   38.6759 H   0  0  0  0  0  0  0  0  0  0  0  0
   43.7244   35.0417   41.7730 H   0  0  0  0  0  0  0  0  0  0  0  0
   44.6453   35.8118   40.4804 H   0  0  0  0  0  0  0  0  0  0  0  0
   42.1488   34.5677   40.3993 H   0  0  0  0  0  0  0  0  0  0  0  0
  1 10  1  0
  2  1  1  0
  3  2  1  0
  4  3  1  0
  4  5  1  0
  5  1  1  0
  6  7  2  0
  8  7  1  0
  9  8  2  0
 10  9  1  0
 10 11  2  0
 11  6  1  0
 12 14  1  0
 12  5  1  0
 13 12  1  0
 15 14  1  0
  1 16  1  6
  2 17  1  0
  2 18  1  0
  3 19  1  0
  3 20  1  0
  4 21  1  0
  4 22  1  0
  5 23  1  1
  6 24  1  0
  7 25  1  0
  8 26  1  0
 12 27  1  1
 13 28  1  0
 13 29  1  0
 13 30  1  0
 14 31  1  0
 14 32  1  0
 15 33  1  0
M  ISO  8  16  13  17  13  18  13  19  13  20  13  21  13  22  13  23  13
M  ISO  8  24  14  25  14  26  14  27   8  28   8  29   8  30   8  31   8
M  ISO  2  32   8  33   3
M  END
>  <minimizedAffinity>  (1) 
-4.50969315

>  <minimizedRMSD>  (1) 
0.502734661

$$$$
