
     RDKit          3D

 25 26  0  0  1  0  0  0  0  0999 V2000
   45.6180   35.2950   42.1090 C   0  0  2  0  0  0  0  0  0  0  0  0
   46.7430   34.4740   41.6680 C   0  0  0  0  0  0  0  0  0  0  0  0
   47.2390   33.6780   42.8730 C   0  0  0  0  0  0  0  0  0  0  0  0
   46.2890   33.9610   44.0160 C   0  0  0  0  0  0  0  0  0  0  0  0
   45.7290   35.2870   43.6490 C   0  0  2  0  0  0  0  0  0  0  0  0
   44.2660   34.8160   41.7910 C   0  0  0  0  0  0  0  0  0  0  0  0
   44.0260   33.4340   41.6890 C   0  0  0  0  0  0  0  0  0  0  0  0
   42.7410   32.9800   41.4000 C   0  0  0  0  0  0  0  0  0  0  0  0
   41.7700   33.9330   41.2280 N   0  0  0  0  0  0  0  0  0  0  0  0
   42.0330   35.2640   41.3330 C   0  0  0  0  0  0  0  0  0  0  0  0
   43.2680   35.6800   41.6090 N   0  0  0  0  0  0  0  0  0  0  0  0
   44.4970   35.6140   44.3450 C   0  0  0  0  0  0  0  0  0  0  0  0
   44.4790   35.4580   45.5670 O   0  0  0  0  0  0  0  0  0  0  0  0
   45.7027   36.2615   41.5906 H   0  0  0  0  0  0  0  0  0  0  0  0
   46.4162   33.7865   40.8739 H   0  0  0  0  0  0  0  0  0  0  0  0
   47.5481   35.1077   41.2677 H   0  0  0  0  0  0  0  0  0  0  0  0
   47.2396   32.6029   42.6405 H   0  0  0  0  0  0  0  0  0  0  0  0
   48.2665   33.9683   43.1374 H   0  0  0  0  0  0  0  0  0  0  0  0
   45.4987   33.1981   44.0740 H   0  0  0  0  0  0  0  0  0  0  0  0
   46.7748   33.9485   45.0028 H   0  0  0  0  0  0  0  0  0  0  0  0
   46.3941   36.0979   43.9809 H   0  0  0  0  0  0  0  0  0  0  0  0
   44.8469   32.7168   41.8363 H   0  0  0  0  0  0  0  0  0  0  0  0
   42.5157   31.9068   41.3138 H   0  0  0  0  0  0  0  0  0  0  0  0
   41.2253   35.9969   41.1899 H   0  0  0  0  0  0  0  0  0  0  0  0
   43.6152   35.9861   43.8028 H   0  0  0  0  0  0  0  0  0  0  0  0
  1  5  1  0
  2  1  1  0
  2  3  1  0
  3  4  1  0
  5  4  1  0
  5 12  1  0
  6  1  1  0
  7  6  2  0
  8  7  1  0
  9 10  1  0
  9  8  2  0
 10 11  2  0
 11  6  1  0
 12 13  2  0
  1 14  1  6
  2 15  1  0
  2 16  1  0
  3 17  1  0
  3 18  1  0
  4 19  1  0
  4 20  1  0
  5 21  1  6
  7 22  1  0
  8 23  1  0
 10 24  1  0
 12 25  1  0
M  ISO  8  14  13  15  13  16  13  17  13  18  13  19  13  20  13  21  13
M  ISO  4  22  14  23  14  24  14  25   6
M  END
>  <minimizedAffinity>  (1) 
-3.90552783

>  <minimizedRMSD>  (1) 
2.66589499

$$$$
