
     RDKit          3D

 24 25  0  0  1  0  0  0  0  0999 V2000
   46.8390   34.8760   42.1290 C   0  0  2  0  0  0  0  0  0  0  0  0
   47.8530   34.4140   43.0730 C   0  0  0  0  0  0  0  0  0  0  0  0
   47.2300   33.3230   43.9490 C   0  0  0  0  0  0  0  0  0  0  0  0
   45.8330   33.0890   43.4360 C   0  0  0  0  0  0  0  0  0  0  0  0
   45.5030   34.3450   42.7250 C   0  0  1  0  0  0  0  0  0  0  0  0
   46.8840   34.3390   40.7610 C   0  0  0  0  0  0  0  0  0  0  0  0
   48.0710   34.5020   39.9950 C   0  0  0  0  0  0  0  0  0  0  0  0
   48.1100   33.9750   38.7050 C   0  0  0  0  0  0  0  0  0  0  0  0
   46.9930   33.3260   38.2540 N   0  0  0  0  0  0  0  0  0  0  0  0
   45.8740   33.1890   39.0190 C   0  0  0  0  0  0  0  0  0  0  0  0
   45.8270   33.6940   40.2590 N   0  0  0  0  0  0  0  0  0  0  0  0
   44.8290   35.5490   43.9120 S   0  0  0  0  0  0  0  0  0  0  0  0
   46.9807   35.9618   42.0240 H   0  0  0  0  0  0  0  0  0  0  0  0
   48.7137   34.0044   42.5240 H   0  0  0  0  0  0  0  0  0  0  0  0
   48.1999   35.2505   43.6974 H   0  0  0  0  0  0  0  0  0  0  0  0
   47.8194   32.3971   43.8752 H   0  0  0  0  0  0  0  0  0  0  0  0
   47.2136   33.6300   45.0052 H   0  0  0  0  0  0  0  0  0  0  0  0
   45.8067   32.2309   42.7483 H   0  0  0  0  0  0  0  0  0  0  0  0
   45.1187   32.8543   44.2389 H   0  0  0  0  0  0  0  0  0  0  0  0
   44.7542   34.1825   41.9358 H   0  0  0  0  0  0  0  0  0  0  0  0
   48.9399   35.0326   40.4115 H   0  0  0  0  0  0  0  0  0  0  0  0
   49.0049   34.0770   38.0735 H   0  0  0  0  0  0  0  0  0  0  0  0
   44.9998   32.6581   38.6142 H   0  0  0  0  0  0  0  0  0  0  0  0
   45.0714   35.1161   45.1890 H   0  0  0  0  0  0  0  0  0  0  0  0
  1  5  1  0
  1  2  1  0
  2  3  1  0
  4  3  1  0
  5  4  1  0
  5 12  1  0
  6  1  1  0
  7  6  2  0
  8  7  1  0
  9  8  2  0
  9 10  1  0
 10 11  2  0
 11  6  1  0
  1 13  1  6
  2 14  1  0
  2 15  1  0
  3 16  1  0
  3 17  1  0
  4 18  1  0
  4 19  1  0
  5 20  1  6
  7 21  1  0
  8 22  1  0
 10 23  1  0
 12 24  1  0
M  ISO  8  13  13  14  13  15  13  16  13  17  13  18  13  19  13  20  13
M  ISO  4  21  14  22  14  23  14  24  11
M  END
>  <minimizedAffinity>  (1) 
-3.64384532

>  <minimizedRMSD>  (1) 
3.20221043

$$$$
