
     RDKit          3D

 33 36  0  0  0  0  0  0  0  0999 V2000
   46.9820   34.8150   42.0170 C   0  0  0  0  0  0  0  0  0  0  0  0
   48.2070   35.3730   41.7870 C   0  0  0  0  0  0  0  0  0  0  0  0
   48.4900   34.9930   40.4760 C   0  0  0  0  0  0  0  0  0  0  0  0
   47.4330   34.2310   39.9820 C   0  0  0  0  0  0  0  0  0  0  0  0
   46.5800   34.1780   40.9700 O   0  0  0  0  0  0  0  0  0  0  0  0
   47.4890   33.7150   38.6310 C   0  0  0  0  0  0  0  0  0  0  0  0
   48.5990   33.8640   37.8160 C   0  0  0  0  0  0  0  0  0  0  0  0
   48.6860   33.3890   36.5350 C   0  0  0  0  0  0  0  0  0  0  0  0
   47.6280   32.7110   35.9700 C   0  0  0  0  0  0  0  0  0  0  0  0
   46.4950   32.5310   36.7320 C   0  0  0  0  0  0  0  0  0  0  0  0
   45.4540   31.8570   36.1610 C   0  0  0  0  0  0  0  0  0  0  0  0
   44.2860   31.6360   36.8590 C   0  0  0  0  0  0  0  0  0  0  0  0
   44.2130   32.1280   38.1650 C   0  0  0  0  0  0  0  0  0  0  0  0
   45.2990   32.7970   38.6760 C   0  0  0  0  0  0  0  0  0  0  0  0
   46.4630   33.0300   38.0180 C   0  0  0  0  0  0  0  0  0  0  0  0
   44.5200   36.0040   44.5560 C   0  0  0  0  0  0  0  0  0  0  0  0
   45.2780   35.9430   43.3650 C   0  0  0  0  0  0  0  0  0  0  0  0
   46.1960   34.8890   43.2360 C   0  0  0  0  0  0  0  0  0  0  0  0
   46.3200   33.9830   44.2420 N   0  0  0  0  0  0  0  0  0  0  0  0
   45.5660   34.0820   45.3740 C   0  0  0  0  0  0  0  0  0  0  0  0
   44.6830   35.0780   45.5230 N   0  0  0  0  0  0  0  0  0  0  0  0
   48.8218   35.9765   42.4710 H   0  0  0  0  0  0  0  0  0  0  0  0
   49.4026   35.2533   39.9198 H   0  0  0  0  0  0  0  0  0  0  0  0
   49.4683   34.3995   38.2252 H   0  0  0  0  0  0  0  0  0  0  0  0
   49.6058   33.5496   35.9535 H   0  0  0  0  0  0  0  0  0  0  0  0
   47.6865   32.3252   34.9415 H   0  0  0  0  0  0  0  0  0  0  0  0
   45.5486   31.4853   35.1300 H   0  0  0  0  0  0  0  0  0  0  0  0
   43.4437   31.0932   36.4054 H   0  0  0  0  0  0  0  0  0  0  0  0
   43.3062   31.9829   38.7705 H   0  0  0  0  0  0  0  0  0  0  0  0
   45.2182   33.1758   39.7055 H   0  0  0  0  0  0  0  0  0  0  0  0
   43.7898   36.8147   44.6959 H   0  0  0  0  0  0  0  0  0  0  0  0
   45.1535   36.6926   42.5696 H   0  0  0  0  0  0  0  0  0  0  0  0
   45.6843   33.3357   46.1734 H   0  0  0  0  0  0  0  0  0  0  0  0
  1 18  1  0
  2  1  2  0
  3  2  1  0
  4  3  2  0
  4  5  1  0
  5  1  1  0
  6  4  1  0
  7  6  2  0
  8  7  1  0
  9  8  2  0
  9 10  1  0
 10 15  2  0
 11 10  1  0
 11 12  2  0
 12 13  1  0
 13 14  2  0
 15  6  1  0
 15 14  1  0
 16 21  2  0
 17 16  1  0
 18 17  2  0
 18 19  1  0
 19 20  2  0
 20 21  1  0
  2 22  1  0
  3 23  1  0
  7 24  1  0
  8 25  1  0
  9 26  1  0
 11 27  1  0
 12 28  1  0
 13 29  1  0
 14 30  1  0
 16 31  1  0
 17 32  1  0
 20 33  1  0
M  ISO  8  22  14  23  14  24  14  25  14  26  14  27  14  28  14  29  14
M  ISO  4  30  14  31  14  32  14  33  14
M  END
>  <minimizedAffinity>  (1) 
-6.04044914

>  <minimizedRMSD>  (1) 
0.230620161

$$$$
