
     RDKit          3D

 27 29  0  0  0  0  0  0  0  0999 V2000
   47.0670   34.8640   42.0030 C   0  0  0  0  0  0  0  0  0  0  0  0
   48.2680   35.4900   41.7960 C   0  0  0  0  0  0  0  0  0  0  0  0
   48.6180   35.1200   40.5110 C   0  0  0  0  0  0  0  0  0  0  0  0
   47.6150   34.2940   40.0110 C   0  0  0  0  0  0  0  0  0  0  0  0
   46.6940   34.1650   40.9500 O   0  0  0  0  0  0  0  0  0  0  0  0
   44.5310   35.9950   44.5090 C   0  0  0  0  0  0  0  0  0  0  0  0
   45.3240   35.9600   43.3250 C   0  0  0  0  0  0  0  0  0  0  0  0
   46.2460   34.9160   43.2050 C   0  0  0  0  0  0  0  0  0  0  0  0
   46.3460   34.0010   44.1990 N   0  0  0  0  0  0  0  0  0  0  0  0
   45.5670   34.0710   45.3130 C   0  0  0  0  0  0  0  0  0  0  0  0
   44.6710   35.0610   45.4590 N   0  0  0  0  0  0  0  0  0  0  0  0
   47.6030   33.6920   38.6950 C   0  0  0  0  0  0  0  0  0  0  0  0
   46.7800   32.6290   38.3890 C   0  0  0  0  0  0  0  0  0  0  0  0
   46.7120   32.0000   37.1550 C   0  0  0  0  0  0  0  0  0  0  0  0
   47.5730   32.5430   36.1980 C   0  0  0  0  0  0  0  0  0  0  0  0
   48.4190   33.6060   36.4500 C   0  0  0  0  0  0  0  0  0  0  0  0
   48.4310   34.1830   37.7060 C   0  0  0  0  0  0  0  0  0  0  0  0
   48.8242   36.1365   42.4907 H   0  0  0  0  0  0  0  0  0  0  0  0
   49.5299   35.4250   39.9767 H   0  0  0  0  0  0  0  0  0  0  0  0
   43.7939   36.8002   44.6445 H   0  0  0  0  0  0  0  0  0  0  0  0
   45.2151   36.7220   42.5392 H   0  0  0  0  0  0  0  0  0  0  0  0
   45.6721   33.3102   46.1005 H   0  0  0  0  0  0  0  0  0  0  0  0
   46.1252   32.2496   39.1873 H   0  0  0  0  0  0  0  0  0  0  0  0
   46.0423   31.1521   36.9487 H   0  0  0  0  0  0  0  0  0  0  0  0
   47.5776   32.1009   35.1908 H   0  0  0  0  0  0  0  0  0  0  0  0
   49.0778   33.9901   35.6573 H   0  0  0  0  0  0  0  0  0  0  0  0
   49.0988   35.0313   37.9167 H   0  0  0  0  0  0  0  0  0  0  0  0
  1  8  1  0
  2  1  2  0
  3  2  1  0
  4  3  2  0
  4  5  1  0
  5  1  1  0
  6 11  2  0
  7  6  1  0
  8  7  2  0
  8  9  1  0
  9 10  2  0
 10 11  1  0
 12  4  1  0
 13 12  2  0
 14 13  1  0
 15 16  1  0
 15 14  2  0
 16 17  2  0
 17 12  1  0
  2 18  1  0
  3 19  1  0
  6 20  1  0
  7 21  1  0
 10 22  1  0
 13 23  1  0
 14 24  1  0
 15 25  1  0
 16 26  1  0
 17 27  1  0
M  ISO  8  18  14  19  14  20  14  21  14  22  14  23  14  24  14  25  14
M  ISO  2  26  14  27  14
M  END
>  <minimizedAffinity>  (1) 
-5.54192972

>  <minimizedRMSD>  (1) 
0.758393764

$$$$
