
     RDKit          3D

 31 33  0  0  0  0  0  0  0  0999 V2000
   46.9340   34.7350   42.0190 C   0  0  0  0  0  0  0  0  0  0  0  0
   48.1110   35.3900   41.7210 C   0  0  0  0  0  0  0  0  0  0  0  0
   48.4540   34.9230   40.4670 C   0  0  0  0  0  0  0  0  0  0  0  0
   47.4630   34.0040   40.0620 C   0  0  0  0  0  0  0  0  0  0  0  0
   46.5680   33.9370   41.0470 O   0  0  0  0  0  0  0  0  0  0  0  0
   44.5250   36.0290   44.5500 C   0  0  0  0  0  0  0  0  0  0  0  0
   45.2730   35.9290   43.3500 C   0  0  0  0  0  0  0  0  0  0  0  0
   46.1560   34.8670   43.2370 C   0  0  0  0  0  0  0  0  0  0  0  0
   46.2660   33.9750   44.2650 N   0  0  0  0  0  0  0  0  0  0  0  0
   45.5240   34.1140   45.3970 C   0  0  0  0  0  0  0  0  0  0  0  0
   44.6640   35.1310   45.5380 N   0  0  0  0  0  0  0  0  0  0  0  0
   47.3640   33.2680   38.8760 N   0  0  0  0  0  0  0  0  0  0  0  0
   46.2620   32.5640   38.2200 C   0  0  0  0  0  0  0  0  0  0  0  0
   46.0400   33.2940   36.9120 C   0  0  0  0  0  0  0  0  0  0  0  0
   47.2330   33.0900   36.1180 N   0  0  0  0  0  0  0  0  0  0  0  0
   48.4060   33.7170   36.7020 C   0  0  0  0  0  0  0  0  0  0  0  0
   48.5780   33.1660   38.1070 C   0  0  0  0  0  0  0  0  0  0  0  0
   48.6533   36.1188   42.3412 H   0  0  0  0  0  0  0  0  0  0  0  0
   49.3419   35.2156   39.8873 H   0  0  0  0  0  0  0  0  0  0  0  0
   43.8154   36.8603   44.6742 H   0  0  0  0  0  0  0  0  0  0  0  0
   45.1571   36.6651   42.5408 H   0  0  0  0  0  0  0  0  0  0  0  0
   45.6321   33.3798   46.2089 H   0  0  0  0  0  0  0  0  0  0  0  0
   46.5327   31.5142   38.0337 H   0  0  0  0  0  0  0  0  0  0  0  0
   45.3549   32.5545   38.8421 H   0  0  0  0  0  0  0  0  0  0  0  0
   45.1626   32.8825   36.3916 H   0  0  0  0  0  0  0  0  0  0  0  0
   45.8541   34.3648   37.0815 H   0  0  0  0  0  0  0  0  0  0  0  0
   47.0779   33.4885   35.1810 H   0  0  0  0  0  0  0  0  0  0  0  0
   49.2948   33.4836   36.0974 H   0  0  0  0  0  0  0  0  0  0  0  0
   48.2825   34.8097   36.7310 H   0  0  0  0  0  0  0  0  0  0  0  0
   48.8692   32.1073   38.0407 H   0  0  0  0  0  0  0  0  0  0  0  0
   49.3535   33.7594   38.6135 H   0  0  0  0  0  0  0  0  0  0  0  0
  1  8  1  0
  2  1  2  0
  3  2  1  0
  4  3  2  0
  4  5  1  0
  5  1  1  0
  6 11  2  0
  7  6  1  0
  8  7  2  0
  8  9  1  0
  9 10  2  0
 10 11  1  0
 12  4  1  0
 13 12  1  0
 14 13  1  0
 15 16  1  0
 15 14  1  0
 16 17  1  0
 17 12  1  0
  2 18  1  0
  3 19  1  0
  6 20  1  0
  7 21  1  0
 10 22  1  0
 13 23  1  0
 13 24  1  0
 14 25  1  0
 14 26  1  0
 15 27  1  0
 16 28  1  0
 16 29  1  0
 17 30  1  0
 17 31  1  0
M  ISO  8  18  14  19  14  20  14  21  14  22  14  23  13  24  13  25  13
M  ISO  6  26  13  27   5  28  13  29  13  30  13  31  13
M  END
>  <minimizedAffinity>  (1) 
-5.46047163

>  <minimizedRMSD>  (1) 
0.432091802

$$$$
