
     RDKit          3D

 24 26  0  0  0  0  0  0  0  0999 V2000
   47.2060   34.9170   41.9690 C   0  0  0  0  0  0  0  0  0  0  0  0
   48.4090   35.5560   41.8140 C   0  0  0  0  0  0  0  0  0  0  0  0
   48.7990   35.2500   40.5260 C   0  0  0  0  0  0  0  0  0  0  0  0
   47.8170   34.4420   39.9600 C   0  0  0  0  0  0  0  0  0  0  0  0
   46.8570   34.2610   40.8780 O   0  0  0  0  0  0  0  0  0  0  0  0
   44.5570   35.8790   44.4090 C   0  0  0  0  0  0  0  0  0  0  0  0
   45.3730   35.9050   43.2480 C   0  0  0  0  0  0  0  0  0  0  0  0
   46.3600   34.9120   43.1480 C   0  0  0  0  0  0  0  0  0  0  0  0
   46.4770   34.0070   44.1340 N   0  0  0  0  0  0  0  0  0  0  0  0
   45.6730   34.0190   45.2300 C   0  0  0  0  0  0  0  0  0  0  0  0
   44.7140   34.9590   45.3630 N   0  0  0  0  0  0  0  0  0  0  0  0
   47.6940   33.8370   38.6780 N   0  0  0  0  0  0  0  0  0  0  0  0
   48.5080   34.3220   37.7300 N   0  0  0  0  0  0  0  0  0  0  0  0
   48.2760   33.6530   36.5740 C   0  0  0  0  0  0  0  0  0  0  0  0
   47.2800   32.7200   36.8180 C   0  0  0  0  0  0  0  0  0  0  0  0
   46.9360   32.8600   38.1480 C   0  0  0  0  0  0  0  0  0  0  0  0
   48.9434   36.1738   42.5507 H   0  0  0  0  0  0  0  0  0  0  0  0
   49.7234   35.5856   40.0333 H   0  0  0  0  0  0  0  0  0  0  0  0
   43.7715   36.6401   44.5260 H   0  0  0  0  0  0  0  0  0  0  0  0
   45.2385   36.6659   42.4651 H   0  0  0  0  0  0  0  0  0  0  0  0
   45.8049   33.2579   46.0132 H   0  0  0  0  0  0  0  0  0  0  0  0
   48.7866   33.8205   35.6142 H   0  0  0  0  0  0  0  0  0  0  0  0
   46.8497   32.0100   36.0963 H   0  0  0  0  0  0  0  0  0  0  0  0
   46.1737   32.2738   38.6820 H   0  0  0  0  0  0  0  0  0  0  0  0
  1  8  1  0
  2  1  2  0
  3  2  1  0
  4  3  2  0
  4  5  1  0
  5  1  1  0
  6 11  2  0
  7  6  1  0
  8  7  2  0
  8  9  1  0
  9 10  2  0
 10 11  1  0
 12  4  1  0
 13 12  1  0
 14 15  1  0
 14 13  2  0
 15 16  2  0
 16 12  1  0
  2 17  1  0
  3 18  1  0
  6 19  1  0
  7 20  1  0
 10 21  1  0
 14 22  1  0
 15 23  1  0
 16 24  1  0
M  ISO  8  17  14  18  14  19  14  20  14  21  14  22  14  23  14  24  14
M  END
>  <minimizedAffinity>  (1) 
-5.24433804

>  <minimizedRMSD>  (1) 
0.735333264

$$$$
