
     RDKit          3D

 23 24  0  0  0  0  0  0  0  0999 V2000
   47.0580   34.8190   41.9120 C   0  0  0  0  0  0  0  0  0  0  0  0
   48.2750   35.4280   41.6990 C   0  0  0  0  0  0  0  0  0  0  0  0
   48.5980   35.0470   40.3910 C   0  0  0  0  0  0  0  0  0  0  0  0
   47.5690   34.2450   39.9080 C   0  0  0  0  0  0  0  0  0  0  0  0
   46.6650   34.1390   40.8670 O   0  0  0  0  0  0  0  0  0  0  0  0
   44.5690   35.9710   44.4490 C   0  0  0  0  0  0  0  0  0  0  0  0
   45.3420   35.9130   43.2620 C   0  0  0  0  0  0  0  0  0  0  0  0
   46.2620   34.8840   43.1250 C   0  0  0  0  0  0  0  0  0  0  0  0
   46.3820   33.9790   44.1290 N   0  0  0  0  0  0  0  0  0  0  0  0
   45.6210   34.0630   45.2620 C   0  0  0  0  0  0  0  0  0  0  0  0
   44.7280   35.0540   45.4040 N   0  0  0  0  0  0  0  0  0  0  0  0
   47.5980   33.6690   38.5410 C   0  0  0  0  0  0  0  0  0  0  0  0
   48.4150   34.5290   37.6040 C   0  0  0  0  0  0  0  0  0  0  0  0
   48.8529   36.0603   42.3891 H   0  0  0  0  0  0  0  0  0  0  0  0
   49.5070   35.3321   39.8411 H   0  0  0  0  0  0  0  0  0  0  0  0
   43.8333   36.7777   44.5831 H   0  0  0  0  0  0  0  0  0  0  0  0
   45.2154   36.6652   42.4695 H   0  0  0  0  0  0  0  0  0  0  0  0
   45.7415   33.3153   46.0598 H   0  0  0  0  0  0  0  0  0  0  0  0
   48.0419   32.6635   38.5844 H   0  0  0  0  0  0  0  0  0  0  0  0
   46.5669   33.6210   38.1607 H   0  0  0  0  0  0  0  0  0  0  0  0
   49.0559   35.2037   38.1905 H   0  0  0  0  0  0  0  0  0  0  0  0
   49.0429   33.8860   36.9698 H   0  0  0  0  0  0  0  0  0  0  0  0
   47.7406   35.1232   36.9698 H   0  0  0  0  0  0  0  0  0  0  0  0
  1  8  1  0
  2  1  2  0
  3  2  1  0
  4  3  2  0
  4  5  1  0
  5  1  1  0
  6 11  2  0
  7  6  1  0
  8  7  2  0
  8  9  1  0
  9 10  2  0
 10 11  1  0
 12  4  1  0
 13 12  1  0
  2 14  1  0
  3 15  1  0
  6 16  1  0
  7 17  1  0
 10 18  1  0
 12 19  1  0
 12 20  1  0
 13 21  1  0
 13 22  1  0
 13 23  1  0
M  ISO  8  14  14  15  14  16  14  17  14  18  14  19   8  20   8  21   8
M  ISO  2  22   8  23   8
M  END
>  <minimizedAffinity>  (1) 
-4.90030336

>  <minimizedRMSD>  (1) 
0.215208247

$$$$
