
     RDKit          3D

 41 44  0  0  0  0  0  0  0  0999 V2000
   46.9410   34.6990   41.8160 C   0  0  0  0  0  0  0  0  0  0  0  0
   48.1950   35.2500   41.5530 C   0  0  0  0  0  0  0  0  0  0  0  0
   48.4310   34.8690   40.2360 C   0  0  0  0  0  0  0  0  0  0  0  0
   47.3350   34.1300   39.7880 C   0  0  0  0  0  0  0  0  0  0  0  0
   46.4650   34.0570   40.7800 O   0  0  0  0  0  0  0  0  0  0  0  0
   44.5790   35.8470   44.4510 C   0  0  0  0  0  0  0  0  0  0  0  0
   45.2770   35.7950   43.2050 C   0  0  0  0  0  0  0  0  0  0  0  0
   46.2070   34.7930   43.0620 C   0  0  0  0  0  0  0  0  0  0  0  0
   46.3980   33.9320   44.0970 N   0  0  0  0  0  0  0  0  0  0  0  0
   45.7200   34.0100   45.2620 C   0  0  0  0  0  0  0  0  0  0  0  0
   44.8100   34.9720   45.4310 N   0  0  0  0  0  0  0  0  0  0  0  0
   46.0130   33.0460   46.2700 N   0  0  0  0  0  0  0  0  0  0  0  0
   45.2700   33.2610   47.3930 C   0  0  0  0  0  0  0  0  0  0  0  0
   45.3840   32.4460   48.5120 C   0  0  0  0  0  0  0  0  0  0  0  0
   46.3020   31.4050   48.4040 C   0  0  0  0  0  0  0  0  0  0  0  0
   46.4780   30.5230   49.5090 N   0  0  0  0  0  0  0  0  0  0  0  0
   47.0170   31.2160   47.2950 N   0  0  0  0  0  0  0  0  0  0  0  0
   46.8830   32.0260   46.2240 C   0  0  0  0  0  0  0  0  0  0  0  0
   47.5080   31.9340   45.1350 O   0  0  0  0  0  0  0  0  0  0  0  0
   47.1840   33.5580   38.4960 N   0  0  0  0  0  0  0  0  0  0  0  0
   46.3200   32.5380   38.3560 C   0  0  0  0  0  0  0  0  0  0  0  0
   46.1420   31.9530   37.1240 C   0  0  0  0  0  0  0  0  0  0  0  0
   46.8570   32.4270   36.0400 C   0  0  0  0  0  0  0  0  0  0  0  0
   46.6840   31.8820   34.9180 O   0  0  0  0  0  0  0  0  0  0  0  0
   47.7140   33.4590   36.2380 N   0  0  0  0  0  0  0  0  0  0  0  0
   47.8730   34.0190   37.4620 C   0  0  0  0  0  0  0  0  0  0  0  0
   48.6840   34.9760   37.5850 O   0  0  0  0  0  0  0  0  0  0  0  0
   45.1830   30.8260   37.0330 C   0  0  0  0  0  0  0  0  0  0  0  0
   48.8386   35.8402   42.2219 H   0  0  0  0  0  0  0  0  0  0  0  0
   49.3288   35.1093   39.6477 H   0  0  0  0  0  0  0  0  0  0  0  0
   43.8267   36.6342   44.6070 H   0  0  0  0  0  0  0  0  0  0  0  0
   45.0800   36.5199   42.4014 H   0  0  0  0  0  0  0  0  0  0  0  0
   44.5615   34.1022   47.4133 H   0  0  0  0  0  0  0  0  0  0  0  0
   44.7890   32.6119   49.4222 H   0  0  0  0  0  0  0  0  0  0  0  0
   47.1529   29.7474   49.4465 H   0  0  0  0  0  0  0  0  0  0  0  0
   45.9303   30.6609   50.3704 H   0  0  0  0  0  0  0  0  0  0  0  0
   45.7557   32.1713   39.2261 H   0  0  0  0  0  0  0  0  0  0  0  0
   48.2553   33.8249   35.4418 H   0  0  0  0  0  0  0  0  0  0  0  0
   44.9046   30.4988   38.0456 H   0  0  0  0  0  0  0  0  0  0  0  0
   44.2824   31.1536   36.4929 H   0  0  0  0  0  0  0  0  0  0  0  0
   45.6505   29.9895   36.4929 H   0  0  0  0  0  0  0  0  0  0  0  0
  1  8  1  0
  2  1  2  0
  3  2  1  0
  4  3  2  0
  4  5  1  0
  5  1  1  0
  6 11  2  0
  7  6  1  0
  8  7  2  0
  8  9  1  0
  9 10  2  0
 10 11  1  0
 10 12  1  0
 12 13  1  0
 13 14  2  0
 15 14  1  0
 15 16  1  0
 17 15  2  0
 18 12  1  0
 18 17  1  0
 19 18  2  0
 20  4  1  0
 21 20  1  0
 22 21  2  0
 23 25  1  0
 23 22  1  0
 24 23  2  0
 25 26  1  0
 26 27  2  0
 26 20  1  0
 28 22  1  0
  2 29  1  0
  3 30  1  0
  6 31  1  0
  7 32  1  0
 13 33  1  0
 14 34  1  0
 16 35  1  0
 16 36  1  0
 21 37  1  0
 25 38  1  0
 28 39  1  0
 28 40  1  0
 28 41  1  0
M  ISO  8  29  14  30  14  31  14  32  14  33  14  34  14  37  14  38   9
M  ISO  3  39   8  40   8  41   8
M  END
>  <minimizedAffinity>  (1) 
-8.33853245

>  <minimizedRMSD>  (1) 
0.248442665

$$$$
