
     RDKit          3D

 43 46  0  0  0  0  0  0  0  0999 V2000
   47.1240   34.4200   41.8270 C   0  0  0  0  0  0  0  0  0  0  0  0
   48.1900   35.2490   41.4780 C   0  0  0  0  0  0  0  0  0  0  0  0
   48.3540   34.9870   40.1190 C   0  0  0  0  0  0  0  0  0  0  0  0
   47.4160   34.0500   39.7360 C   0  0  0  0  0  0  0  0  0  0  0  0
   46.6980   33.7430   40.8120 O   0  0  0  0  0  0  0  0  0  0  0  0
   47.2400   33.5110   38.4380 N   0  0  0  0  0  0  0  0  0  0  0  0
   46.3720   32.4970   38.2760 C   0  0  0  0  0  0  0  0  0  0  0  0
   46.1690   31.9400   37.0240 C   0  0  0  0  0  0  0  0  0  0  0  0
   46.8730   32.4450   35.9500 C   0  0  0  0  0  0  0  0  0  0  0  0
   46.6680   31.9170   34.8260 O   0  0  0  0  0  0  0  0  0  0  0  0
   47.7260   33.4570   36.1780 N   0  0  0  0  0  0  0  0  0  0  0  0
   47.9140   33.9920   37.4070 C   0  0  0  0  0  0  0  0  0  0  0  0
   48.7280   34.9380   37.5410 O   0  0  0  0  0  0  0  0  0  0  0  0
   45.1890   30.8290   36.9340 C   0  0  0  0  0  0  0  0  0  0  0  0
   44.9300   34.9390   44.7780 C   0  0  0  0  0  0  0  0  0  0  0  0
   45.4590   35.0980   43.4720 C   0  0  0  0  0  0  0  0  0  0  0  0
   46.5340   34.3000   43.1610 C   0  0  0  0  0  0  0  0  0  0  0  0
   47.0290   33.4260   44.0790 N   0  0  0  0  0  0  0  0  0  0  0  0
   46.4770   33.3160   45.3270 C   0  0  0  0  0  0  0  0  0  0  0  0
   45.4310   34.0730   45.6690 N   0  0  0  0  0  0  0  0  0  0  0  0
   48.1390   30.6020   48.0080 C   0  0  0  0  0  0  0  0  0  0  0  0
   47.9730   30.1910   46.6860 C   0  0  0  0  0  0  0  0  0  0  0  0
   47.4140   31.1070   45.7900 C   0  0  0  0  0  0  0  0  0  0  0  0
   47.0610   32.3570   46.2590 C   0  0  0  0  0  0  0  0  0  0  0  0
   47.2450   32.7170   47.5790 C   0  0  0  0  0  0  0  0  0  0  0  0
   47.7950   31.8370   48.4900 C   0  0  0  0  0  0  0  0  0  0  0  0
   48.8410   29.4570   49.1420 S   0  0  0  0  0  0  0  0  0  0  0  0
   49.3580   30.2510   50.3140 O   0  0  0  0  0  0  0  0  0  0  0  0
   49.9560   28.7170   48.4780 O   0  0  0  0  0  0  0  0  0  0  0  0
   48.7603   35.9390   42.1173 H   0  0  0  0  0  0  0  0  0  0  0  0
   49.1052   35.4495   39.4619 H   0  0  0  0  0  0  0  0  0  0  0  0
   45.8193   32.1071   39.1435 H   0  0  0  0  0  0  0  0  0  0  0  0
   48.2590   33.8418   35.3851 H   0  0  0  0  0  0  0  0  0  0  0  0
   44.9053   30.5074   37.9469 H   0  0  0  0  0  0  0  0  0  0  0  0
   44.2941   31.1722   36.3942 H   0  0  0  0  0  0  0  0  0  0  0  0
   45.6412   29.9840   36.3942 H   0  0  0  0  0  0  0  0  0  0  0  0
   44.0681   35.5554   45.0733 H   0  0  0  0  0  0  0  0  0  0  0  0
   45.0357   35.8149   42.7530 H   0  0  0  0  0  0  0  0  0  0  0  0
   48.2708   29.1835   46.3602 H   0  0  0  0  0  0  0  0  0  0  0  0
   47.2588   30.8380   44.7347 H   0  0  0  0  0  0  0  0  0  0  0  0
   46.9482   33.7228   47.9110 H   0  0  0  0  0  0  0  0  0  0  0  0
   47.9483   32.1125   49.5439 H   0  0  0  0  0  0  0  0  0  0  0  0
   47.9139   28.5395   49.5611 H   0  0  0  0  0  0  0  0  0  0  0  0
  1 17  1  0
  2  1  2  0
  3  2  1  0
  4  3  2  0
  4  5  1  0
  5  1  1  0
  6  4  1  0
  7  6  1  0
  8  7  2  0
  9 11  1  0
  9  8  1  0
 10  9  2  0
 11 12  1  0
 12 13  2  0
 12  6  1  0
 14  8  1  0
 15 20  2  0
 16 15  1  0
 17 16  2  0
 17 18  1  0
 18 19  2  0
 19 20  1  0
 19 24  1  0
 21 26  2  0
 21 27  1  0
 22 21  1  0
 23 24  1  0
 23 22  2  0
 24 25  2  0
 25 26  1  0
 27 28  2  0
 29 27  2  0
  2 30  1  0
  3 31  1  0
  7 32  1  0
 11 33  1  0
 14 34  1  0
 14 35  1  0
 14 36  1  0
 15 37  1  0
 16 38  1  0
 22 39  1  0
 23 40  1  0
 25 41  1  0
 26 42  1  0
 27 43  1  0
M  ISO  8  30  14  31  14  32  14  33   9  34   8  35   8  36   8  37  14
M  ISO  6  38  14  39  14  40  14  41  14  42  14  43  11
M  END
>  <minimizedAffinity>  (1) 
-6.69290972

>  <minimizedRMSD>  (1) 
1.3859812

$$$$
