
     RDKit          3D

 42 44  0  0  0  0  0  0  0  0999 V2000
   46.8670   34.6270   42.1690 C   0  0  0  0  0  0  0  0  0  0  0  0
   48.1270   35.1630   41.9170 C   0  0  0  0  0  0  0  0  0  0  0  0
   48.3550   34.8300   40.5820 C   0  0  0  0  0  0  0  0  0  0  0  0
   47.2360   34.1250   40.1200 C   0  0  0  0  0  0  0  0  0  0  0  0
   46.3720   34.0320   41.1140 O   0  0  0  0  0  0  0  0  0  0  0  0
   47.0740   33.6070   38.8080 N   0  0  0  0  0  0  0  0  0  0  0  0
   46.1550   32.6430   38.6210 C   0  0  0  0  0  0  0  0  0  0  0  0
   45.9490   32.0970   37.3720 C   0  0  0  0  0  0  0  0  0  0  0  0
   46.7110   32.5620   36.3110 C   0  0  0  0  0  0  0  0  0  0  0  0
   46.5210   32.0600   35.1710 O   0  0  0  0  0  0  0  0  0  0  0  0
   47.6200   33.5330   36.5610 N   0  0  0  0  0  0  0  0  0  0  0  0
   47.7990   34.0490   37.7980 C   0  0  0  0  0  0  0  0  0  0  0  0
   48.6610   34.9500   37.9550 O   0  0  0  0  0  0  0  0  0  0  0  0
   44.9160   31.0410   37.2470 C   0  0  0  0  0  0  0  0  0  0  0  0
   44.5760   35.7490   44.8770 C   0  0  0  0  0  0  0  0  0  0  0  0
   45.2690   35.7330   43.6250 C   0  0  0  0  0  0  0  0  0  0  0  0
   46.1400   34.6870   43.4230 C   0  0  0  0  0  0  0  0  0  0  0  0
   46.2880   33.7530   44.4010 N   0  0  0  0  0  0  0  0  0  0  0  0
   45.6150   33.8050   45.5660 C   0  0  0  0  0  0  0  0  0  0  0  0
   44.7550   34.8050   45.8080 N   0  0  0  0  0  0  0  0  0  0  0  0
   45.9550   32.6590   46.4740 C   0  0  0  0  0  0  0  0  0  0  0  0
   45.8600   31.3430   45.7220 C   0  0  0  0  0  0  0  0  0  0  0  0
   47.3630   32.7620   47.0170 C   0  0  0  0  0  0  0  0  0  0  0  0
   45.0110   32.6340   47.6720 C   0  0  0  0  0  0  0  0  0  0  0  0
   48.7840   35.7156   42.6047 H   0  0  0  0  0  0  0  0  0  0  0  0
   49.2529   35.0768   39.9965 H   0  0  0  0  0  0  0  0  0  0  0  0
   45.5606   32.2859   39.4749 H   0  0  0  0  0  0  0  0  0  0  0  0
   48.1939   33.8905   35.7840 H   0  0  0  0  0  0  0  0  0  0  0  0
   44.5994   30.7173   38.2495 H   0  0  0  0  0  0  0  0  0  0  0  0
   44.0490   31.4391   36.6994 H   0  0  0  0  0  0  0  0  0  0  0  0
   45.3331   30.1830   36.6994 H   0  0  0  0  0  0  0  0  0  0  0  0
   43.8702   36.5676   45.0814 H   0  0  0  0  0  0  0  0  0  0  0  0
   45.1139   36.5139   42.8659 H   0  0  0  0  0  0  0  0  0  0  0  0
   45.8001   30.5131   46.4415 H   0  0  0  0  0  0  0  0  0  0  0  0
   44.9597   31.3460   45.0899 H   0  0  0  0  0  0  0  0  0  0  0  0
   46.7514   31.2167   45.0899 H   0  0  0  0  0  0  0  0  0  0  0  0
   47.3330   32.7598   48.1166 H   0  0  0  0  0  0  0  0  0  0  0  0
   47.9555   31.9048   46.6646 H   0  0  0  0  0  0  0  0  0  0  0  0
   47.8244   33.6963   46.6646 H   0  0  0  0  0  0  0  0  0  0  0  0
   45.5983   32.6496   48.6020 H   0  0  0  0  0  0  0  0  0  0  0  0
   44.3532   33.5150   47.6390 H   0  0  0  0  0  0  0  0  0  0  0  0
   44.4008   31.7194   47.6390 H   0  0  0  0  0  0  0  0  0  0  0  0
  1 17  1  0
  2  1  2  0
  3  2  1  0
  4  3  2  0
  4  5  1  0
  5  1  1  0
  6  4  1  0
  7  6  1  0
  8  7  2  0
  9 11  1  0
  9  8  1  0
 10  9  2  0
 11 12  1  0
 12 13  2  0
 12  6  1  0
 14  8  1  0
 15 20  2  0
 16 15  1  0
 17 16  2  0
 17 18  1  0
 18 19  2  0
 19 20  1  0
 19 21  1  0
 21 23  1  0
 21 24  1  0
 22 21  1  0
  2 25  1  0
  3 26  1  0
  7 27  1  0
 11 28  1  0
 14 29  1  0
 14 30  1  0
 14 31  1  0
 15 32  1  0
 16 33  1  0
 22 34  1  0
 22 35  1  0
 22 36  1  0
 23 37  1  0
 23 38  1  0
 23 39  1  0
 24 40  1  0
 24 41  1  0
 24 42  1  0
M  ISO  8  25  14  26  14  27  14  28   9  29   8  30   8  31   8  32  14
M  ISO  8  33  14  34   8  35   8  36   8  37   8  38   8  39   8  40   8
M  ISO  2  41   8  42   8
M  END
>  <minimizedAffinity>  (1) 
-6.31787109

>  <minimizedRMSD>  (1) 
0.372534037

$$$$
