
     RDKit          3D

 29 30  0  0  1  0  0  0  0  0999 V2000
   47.7880   34.8930   41.3820 C   0  0  2  0  0  0  0  0  0  0  0  0
   49.0100   35.6400   41.6740 C   0  0  0  0  0  0  0  0  0  0  0  0
   49.9610   34.7010   42.4150 C   0  0  0  0  0  0  0  0  0  0  0  0
   49.3220   33.3320   42.4310 C   0  0  0  0  0  0  0  0  0  0  0  0
   47.8750   33.6360   42.2950 C   0  0  1  0  0  0  0  0  0  0  0  0
   47.6170   34.3710   40.0170 C   0  0  0  0  0  0  0  0  0  0  0  0
   48.5040   34.7840   39.0080 C   0  0  0  0  0  0  0  0  0  0  0  0
   48.3620   34.2800   37.7150 C   0  0  0  0  0  0  0  0  0  0  0  0
   47.3340   33.3890   37.5150 N   0  0  0  0  0  0  0  0  0  0  0  0
   46.4970   33.0120   38.5070 C   0  0  0  0  0  0  0  0  0  0  0  0
   46.6380   33.5010   39.7550 N   0  0  0  0  0  0  0  0  0  0  0  0
   47.3070   34.0240   43.6440 C   0  0  0  0  0  0  0  0  0  0  0  0
   45.9470   34.6390   43.4440 C   0  0  0  0  0  0  0  0  0  0  0  0
   46.9538   35.5937   41.5338 H   0  0  0  0  0  0  0  0  0  0  0  0
   49.4742   35.9806   40.7367 H   0  0  0  0  0  0  0  0  0  0  0  0
   48.7843   36.5241   42.2883 H   0  0  0  0  0  0  0  0  0  0  0  0
   50.9289   34.6582   41.8941 H   0  0  0  0  0  0  0  0  0  0  0  0
   50.1398   35.0584   43.4398 H   0  0  0  0  0  0  0  0  0  0  0  0
   49.6780   32.7199   41.5892 H   0  0  0  0  0  0  0  0  0  0  0  0
   49.5598   32.7536   43.3360 H   0  0  0  0  0  0  0  0  0  0  0  0
   47.3270   32.7696   41.8961 H   0  0  0  0  0  0  0  0  0  0  0  0
   49.3062   35.5011   39.2367 H   0  0  0  0  0  0  0  0  0  0  0  0
   49.0363   34.5793   36.8991 H   0  0  0  0  0  0  0  0  0  0  0  0
   45.6896   32.2962   38.2928 H   0  0  0  0  0  0  0  0  0  0  0  0
   47.2178   33.1294   44.2779 H   0  0  0  0  0  0  0  0  0  0  0  0
   47.9743   34.7482   44.1342 H   0  0  0  0  0  0  0  0  0  0  0  0
   45.4904   34.8455   44.4232 H   0  0  0  0  0  0  0  0  0  0  0  0
   46.0487   35.5787   42.8814 H   0  0  0  0  0  0  0  0  0  0  0  0
   45.3085   33.9420   42.8814 H   0  0  0  0  0  0  0  0  0  0  0  0
  1  2  1  0
  1  5  1  0
  2  3  1  0
  3  4  1  0
  5  4  1  0
  5 12  1  0
  6  1  1  0
  7  6  2  0
  8  7  1  0
  9  8  2  0
  9 10  1  0
 10 11  2  0
 11  6  1  0
 13 12  1  0
  1 14  1  1
  2 15  1  0
  2 16  1  0
  3 17  1  0
  3 18  1  0
  4 19  1  0
  4 20  1  0
  5 21  1  6
  7 22  1  0
  8 23  1  0
 10 24  1  0
 12 25  1  0
 12 26  1  0
 13 27  1  0
 13 28  1  0
 13 29  1  0
M  ISO  8  14  13  15  13  16  13  17  13  18  13  19  13  20  13  21  13
M  ISO  8  22  14  23  14  24  14  25   8  26   8  27   8  28   8  29   8
M  END
>  <minimizedAffinity>  (1) 
-4.27233887

>  <minimizedRMSD>  (1) 
3.50759864

$$$$
