
     RDKit          3D

 44 48  0  0  0  0  0  0  0  0999 V2000
   46.8870   34.7420   41.9300 C   0  0  0  0  0  0  0  0  0  0  0  0
   48.1800   35.2280   41.7050 C   0  0  0  0  0  0  0  0  0  0  0  0
   48.4440   34.8150   40.4010 C   0  0  0  0  0  0  0  0  0  0  0  0
   47.3100   34.1190   39.9340 C   0  0  0  0  0  0  0  0  0  0  0  0
   46.4130   34.1080   40.8920 O   0  0  0  0  0  0  0  0  0  0  0  0
   44.5010   36.0450   44.4620 C   0  0  0  0  0  0  0  0  0  0  0  0
   45.2340   35.9280   43.2360 C   0  0  0  0  0  0  0  0  0  0  0  0
   46.1220   34.8970   43.1530 C   0  0  0  0  0  0  0  0  0  0  0  0
   46.2570   34.0580   44.2130 N   0  0  0  0  0  0  0  0  0  0  0  0
   45.5580   34.1850   45.3570 C   0  0  0  0  0  0  0  0  0  0  0  0
   44.6670   35.1900   45.4840 N   0  0  0  0  0  0  0  0  0  0  0  0
   45.8150   33.2200   46.3730 N   0  0  0  0  0  0  0  0  0  0  0  0
   45.1670   33.1620   47.5390 N   0  0  0  0  0  0  0  0  0  0  0  0
   45.6350   32.1440   48.2770 C   0  0  0  0  0  0  0  0  0  0  0  0
   46.6480   31.5000   47.5460 C   0  0  0  0  0  0  0  0  0  0  0  0
   46.7290   32.2070   46.3580 C   0  0  0  0  0  0  0  0  0  0  0  0
   47.1900   33.5420   38.6480 N   0  0  0  0  0  0  0  0  0  0  0  0
   46.3750   32.4860   38.5200 C   0  0  0  0  0  0  0  0  0  0  0  0
   46.2060   31.8670   37.3030 C   0  0  0  0  0  0  0  0  0  0  0  0
   46.8900   32.3510   36.2090 C   0  0  0  0  0  0  0  0  0  0  0  0
   46.7270   31.7750   35.0950 O   0  0  0  0  0  0  0  0  0  0  0  0
   47.7000   33.4180   36.3830 N   0  0  0  0  0  0  0  0  0  0  0  0
   47.8450   34.0070   37.6020 C   0  0  0  0  0  0  0  0  0  0  0  0
   48.6140   34.9960   37.7030 O   0  0  0  0  0  0  0  0  0  0  0  0
   45.2950   30.6880   37.2390 C   0  0  0  0  0  0  0  0  0  0  0  0
   43.9740   30.9830   37.8410 C   0  0  0  0  0  0  0  0  0  0  0  0
   43.3720   30.4690   38.9720 C   0  0  0  0  0  0  0  0  0  0  0  0
   42.1570   31.1230   39.0210 C   0  0  0  0  0  0  0  0  0  0  0  0
   42.0510   31.9920   37.9540 C   0  0  0  0  0  0  0  0  0  0  0  0
   43.1550   31.8640   37.2940 O   0  0  0  0  0  0  0  0  0  0  0  0
   48.8279   35.7959   42.3889 H   0  0  0  0  0  0  0  0  0  0  0  0
   49.3704   34.9988   39.8371 H   0  0  0  0  0  0  0  0  0  0  0  0
   43.7759   36.8652   44.5697 H   0  0  0  0  0  0  0  0  0  0  0  0
   45.0876   36.6336   42.4050 H   0  0  0  0  0  0  0  0  0  0  0  0
   45.2860   31.8620   49.2813 H   0  0  0  0  0  0  0  0  0  0  0  0
   47.2446   30.6273   47.8502 H   0  0  0  0  0  0  0  0  0  0  0  0
   47.4213   31.9866   45.5321 H   0  0  0  0  0  0  0  0  0  0  0  0
   45.8336   32.1089   39.4002 H   0  0  0  0  0  0  0  0  0  0  0  0
   48.2188   33.7939   35.5765 H   0  0  0  0  0  0  0  0  0  0  0  0
   45.1516   30.4051   36.1857 H   0  0  0  0  0  0  0  0  0  0  0  0
   45.7557   29.8673   37.8084 H   0  0  0  0  0  0  0  0  0  0  0  0
   43.7671   29.7159   39.6697 H   0  0  0  0  0  0  0  0  0  0  0  0
   41.3889   30.9739   39.7942 H   0  0  0  0  0  0  0  0  0  0  0  0
   41.2054   32.6539   37.7156 H   0  0  0  0  0  0  0  0  0  0  0  0
  1  8  1  0
  2  1  2  0
  3  2  1  0
  4  3  2  0
  4  5  1  0
  5  1  1  0
  6 11  2  0
  7  6  1  0
  8  7  2  0
  8  9  1  0
  9 10  2  0
 10 11  1  0
 10 12  1  0
 12 13  1  0
 13 14  2  0
 15 14  1  0
 16 12  1  0
 16 15  2  0
 17  4  1  0
 18 17  1  0
 19 18  2  0
 20 22  1  0
 20 19  1  0
 21 20  2  0
 22 23  1  0
 23 24  2  0
 23 17  1  0
 25 19  1  0
 25 26  1  0
 26 27  2  0
 27 28  1  0
 29 28  2  0
 30 26  1  0
 30 29  1  0
  2 31  1  0
  3 32  1  0
  6 33  1  0
  7 34  1  0
 14 35  1  0
 15 36  1  0
 16 37  1  0
 18 38  1  0
 22 39  1  0
 25 40  1  0
 25 41  1  0
 27 42  1  0
 28 43  1  0
 29 44  1  0
M  ISO  8  31  14  32  14  33  14  34  14  35  14  36  14  37  14  38  14
M  ISO  6  39   9  40   8  41   8  42  14  43  14  44  14
M  END
>  <minimizedAffinity>  (1) 
-7.27693367

>  <minimizedRMSD>  (1) 
0.998642266

$$$$
