
     RDKit          3D

 43 47  0  0  0  0  0  0  0  0999 V2000
   46.9970   34.7880   41.9360 C   0  0  0  0  0  0  0  0  0  0  0  0
   48.2560   35.3430   41.7150 C   0  0  0  0  0  0  0  0  0  0  0  0
   48.5670   34.9210   40.4320 C   0  0  0  0  0  0  0  0  0  0  0  0
   47.5100   34.1550   39.9580 C   0  0  0  0  0  0  0  0  0  0  0  0
   46.5830   34.1020   40.9030 O   0  0  0  0  0  0  0  0  0  0  0  0
   44.5030   36.0110   44.4080 C   0  0  0  0  0  0  0  0  0  0  0  0
   45.2710   35.9230   43.2030 C   0  0  0  0  0  0  0  0  0  0  0  0
   46.1890   34.9180   43.1440 C   0  0  0  0  0  0  0  0  0  0  0  0
   46.3330   34.0710   44.1930 N   0  0  0  0  0  0  0  0  0  0  0  0
   45.5920   34.1780   45.3210 C   0  0  0  0  0  0  0  0  0  0  0  0
   44.6690   35.1550   45.4300 N   0  0  0  0  0  0  0  0  0  0  0  0
   45.8630   33.2070   46.3390 N   0  0  0  0  0  0  0  0  0  0  0  0
   45.1710   33.1320   47.4780 N   0  0  0  0  0  0  0  0  0  0  0  0
   45.6410   32.1340   48.2380 C   0  0  0  0  0  0  0  0  0  0  0  0
   46.6870   31.5410   47.5480 C   0  0  0  0  0  0  0  0  0  0  0  0
   46.8180   32.2300   46.3430 C   0  0  0  0  0  0  0  0  0  0  0  0
   47.4460   33.5410   38.6840 N   0  0  0  0  0  0  0  0  0  0  0  0
   46.7850   32.3640   38.5860 C   0  0  0  0  0  0  0  0  0  0  0  0
   46.6810   31.7100   37.3820 C   0  0  0  0  0  0  0  0  0  0  0  0
   47.2690   32.2800   36.2670 C   0  0  0  0  0  0  0  0  0  0  0  0
   47.1730   31.6780   35.1610 O   0  0  0  0  0  0  0  0  0  0  0  0
   47.9210   33.4620   36.4170 N   0  0  0  0  0  0  0  0  0  0  0  0
   47.9980   34.0690   37.6190 C   0  0  0  0  0  0  0  0  0  0  0  0
   48.6150   35.1590   37.6920 O   0  0  0  0  0  0  0  0  0  0  0  0
   45.9460   30.4280   37.3390 C   0  0  0  0  0  0  0  0  0  0  0  0
   44.5740   30.6110   36.9730 N   0  0  0  0  0  0  0  0  0  0  0  0
   43.5120   31.1760   37.5730 C   0  0  0  0  0  0  0  0  0  0  0  0
   42.4060   31.0860   36.7840 N   0  0  0  0  0  0  0  0  0  0  0  0
   42.7890   30.4570   35.6820 C   0  0  0  0  0  0  0  0  0  0  0  0
   44.0860   30.1780   35.8070 N   0  0  0  0  0  0  0  0  0  0  0  0
   48.8573   35.9652   42.3942 H   0  0  0  0  0  0  0  0  0  0  0  0
   49.4919   35.1529   39.8835 H   0  0  0  0  0  0  0  0  0  0  0  0
   43.7503   36.8078   44.5003 H   0  0  0  0  0  0  0  0  0  0  0  0
   45.1278   36.6279   42.3707 H   0  0  0  0  0  0  0  0  0  0  0  0
   45.2654   31.8388   49.2289 H   0  0  0  0  0  0  0  0  0  0  0  0
   47.2966   30.6902   47.8863 H   0  0  0  0  0  0  0  0  0  0  0  0
   47.5501   32.0260   45.5478 H   0  0  0  0  0  0  0  0  0  0  0  0
   46.3244   31.9246   39.4831 H   0  0  0  0  0  0  0  0  0  0  0  0
   48.3645   33.9026   35.5984 H   0  0  0  0  0  0  0  0  0  0  0  0
   46.4257   29.7677   36.6016 H   0  0  0  0  0  0  0  0  0  0  0  0
   45.9741   29.9851   38.3455 H   0  0  0  0  0  0  0  0  0  0  0  0
   43.5336   31.6472   38.5667 H   0  0  0  0  0  0  0  0  0  0  0  0
   42.1516   30.2100   34.8202 H   0  0  0  0  0  0  0  0  0  0  0  0
  1  8  1  0
  2  1  2  0
  3  2  1  0
  4  3  2  0
  4  5  1  0
  5  1  1  0
  6 11  2  0
  7  6  1  0
  8  7  2  0
  8  9  1  0
  9 10  2  0
 10 11  1  0
 10 12  1  0
 12 16  1  0
 12 13  1  0
 13 14  2  0
 15 14  1  0
 16 15  2  0
 17  4  1  0
 18 17  1  0
 19 18  2  0
 20 22  1  0
 20 19  1  0
 21 20  2  0
 22 23  1  0
 23 24  2  0
 23 17  1  0
 25 19  1  0
 26 25  1  0
 26 27  1  0
 28 27  2  0
 29 30  2  0
 29 28  1  0
 30 26  1  0
  2 31  1  0
  3 32  1  0
  6 33  1  0
  7 34  1  0
 14 35  1  0
 15 36  1  0
 16 37  1  0
 18 38  1  0
 22 39  1  0
 25 40  1  0
 25 41  1  0
 27 42  1  0
 29 43  1  0
M  ISO  8  31  14  32  14  33  14  34  14  35  14  36  14  37  14  38  14
M  ISO  5  39   9  40   8  41   8  42  14  43  14
M  END
>  <minimizedAffinity>  (1) 
-7.25769854

>  <minimizedRMSD>  (1) 
1.33574867

$$$$
