
     RDKit          3D

 29 30  0  0  0  0  0  0  0  0999 V2000
   46.1280   33.6610   42.0310 C   0  0  0  0  0  0  0  0  0  0  0  0
   44.4530   35.8770   44.6160 C   0  0  0  0  0  0  0  0  0  0  0  0
   44.9060   35.4210   43.3640 C   0  0  0  0  0  0  0  0  0  0  0  0
   45.6160   34.2160   43.2890 C   0  0  0  0  0  0  0  0  0  0  0  0
   45.8360   33.5360   44.4490 N   0  0  0  0  0  0  0  0  0  0  0  0
   45.3870   33.9970   45.6430 C   0  0  0  0  0  0  0  0  0  0  0  0
   44.7060   35.1520   45.7300 N   0  0  0  0  0  0  0  0  0  0  0  0
   45.3600   34.3210   40.8910 C   0  0  0  0  0  0  0  0  0  0  0  0
   45.7680   32.1820   41.9660 C   0  0  0  0  0  0  0  0  0  0  0  0
   47.5900   33.7500   41.8300 C   0  0  0  0  0  0  0  0  0  0  0  0
   48.2630   34.9670   42.3760 C   0  0  0  0  0  0  0  0  0  0  0  0
   49.0010   35.7790   41.3020 C   0  0  0  0  0  0  0  0  0  0  0  0
   49.7310   35.1050   42.4220 C   0  0  0  0  0  0  0  0  0  0  0  0
   43.8940   36.8216   44.6888 H   0  0  0  0  0  0  0  0  0  0  0  0
   44.7046   36.0049   42.4538 H   0  0  0  0  0  0  0  0  0  0  0  0
   45.5837   33.4154   46.5557 H   0  0  0  0  0  0  0  0  0  0  0  0
   44.5873   34.9851   41.3056 H   0  0  0  0  0  0  0  0  0  0  0  0
   46.0547   34.9082   40.2725 H   0  0  0  0  0  0  0  0  0  0  0  0
   44.8840   33.5459   40.2725 H   0  0  0  0  0  0  0  0  0  0  0  0
   45.6709   31.7831   42.9865 H   0  0  0  0  0  0  0  0  0  0  0  0
   44.8139   32.0600   41.4323 H   0  0  0  0  0  0  0  0  0  0  0  0
   46.5593   31.6351   41.4323 H   0  0  0  0  0  0  0  0  0  0  0  0
   48.0476   32.8715   42.3084 H   0  0  0  0  0  0  0  0  0  0  0  0
   47.7324   33.8015   40.7405 H   0  0  0  0  0  0  0  0  0  0  0  0
   47.4950   35.1109   43.1503 H   0  0  0  0  0  0  0  0  0  0  0  0
   49.0838   35.3944   40.2748 H   0  0  0  0  0  0  0  0  0  0  0  0
   48.9376   36.8033   40.9060 H   0  0  0  0  0  0  0  0  0  0  0  0
   50.1955   35.7132   43.2122 H   0  0  0  0  0  0  0  0  0  0  0  0
   50.5652   34.3895   42.4699 H   0  0  0  0  0  0  0  0  0  0  0  0
  1  4  1  0
  2  7  2  0
  3  2  1  0
  4  3  2  0
  4  5  1  0
  5  6  2  0
  6  7  1  0
  8  1  1  0
  9  1  1  0
 10  1  1  0
 10 11  1  0
 11 13  1  0
 12 11  1  0
 12 13  1  0
  2 14  1  0
  3 15  1  0
  6 16  1  0
  8 17  1  0
  8 18  1  0
  8 19  1  0
  9 20  1  0
  9 21  1  0
  9 22  1  0
 10 23  1  0
 10 24  1  0
 11 25  1  0
 12 26  1  0
 12 27  1  0
 13 28  1  0
 13 29  1  0
M  ISO  8  14  14  15  14  16  14  17   8  18   8  19   8  20   8  21   8
M  ISO  8  22   8  23   8  24   8  25  13  26  13  27  13  28  13  29  13
M  END
>  <minimizedAffinity>  (1) 
-4.4088707

>  <minimizedRMSD>  (1) 
1.62044919

$$$$
