
     RDKit          3D

 29 30  0  0  0  0  0  0  0  0999 V2000
   46.8080   33.9690   41.0850 C   0  0  0  0  0  0  0  0  0  0  0  0
   46.7110   33.1080   37.3910 C   0  0  0  0  0  0  0  0  0  0  0  0
   46.3160   33.1210   38.7540 C   0  0  0  0  0  0  0  0  0  0  0  0
   47.1140   33.8810   39.6500 C   0  0  0  0  0  0  0  0  0  0  0  0
   48.1900   34.5420   39.1640 N   0  0  0  0  0  0  0  0  0  0  0  0
   48.5280   34.5000   37.8500 C   0  0  0  0  0  0  0  0  0  0  0  0
   47.7950   33.7910   36.9770 N   0  0  0  0  0  0  0  0  0  0  0  0
   47.6780   35.0510   41.6870 C   0  0  0  0  0  0  0  0  0  0  0  0
   47.2270   32.6660   41.7500 C   0  0  0  0  0  0  0  0  0  0  0  0
   45.3710   34.2000   41.4260 C   0  0  0  0  0  0  0  0  0  0  0  0
   45.1660   34.6840   42.7580 N   0  0  0  0  0  0  0  0  0  0  0  0
   44.8600   35.9670   43.0270 C   0  0  0  0  0  0  0  0  0  0  0  0
   44.7370   36.0730   44.3940 C   0  0  0  0  0  0  0  0  0  0  0  0
   44.9660   34.8690   44.9400 N   0  0  0  0  0  0  0  0  0  0  0  0
   45.2270   34.0300   43.9310 C   0  0  0  0  0  0  0  0  0  0  0  0
   46.1228   32.5314   36.6619 H   0  0  0  0  0  0  0  0  0  0  0  0
   45.4312   32.5672   39.1011 H   0  0  0  0  0  0  0  0  0  0  0  0
   49.4113   35.0524   37.4970 H   0  0  0  0  0  0  0  0  0  0  0  0
   47.6303   34.9916   42.7844 H   0  0  0  0  0  0  0  0  0  0  0  0
   48.7180   34.9111   41.3571 H   0  0  0  0  0  0  0  0  0  0  0  0
   47.3181   36.0367   41.3571 H   0  0  0  0  0  0  0  0  0  0  0  0
   47.1892   32.7835   42.8431 H   0  0  0  0  0  0  0  0  0  0  0  0
   46.5423   31.8614   41.4438 H   0  0  0  0  0  0  0  0  0  0  0  0
   48.2524   32.4112   41.4438 H   0  0  0  0  0  0  0  0  0  0  0  0
   44.9612   34.9385   40.7213 H   0  0  0  0  0  0  0  0  0  0  0  0
   44.8636   33.2265   41.3561 H   0  0  0  0  0  0  0  0  0  0  0  0
   44.7325   36.7769   42.2937 H   0  0  0  0  0  0  0  0  0  0  0  0
   44.4918   36.9919   44.9467 H   0  0  0  0  0  0  0  0  0  0  0  0
   45.4579   32.9605   44.0447 H   0  0  0  0  0  0  0  0  0  0  0  0
  1 10  1  0
  1  8  1  0
  1  9  1  0
  2  3  2  0
  3  4  1  0
  4  1  1  0
  5  4  2  0
  6  5  1  0
  7  2  1  0
  7  6  2  0
 10 11  1  0
 11 12  1  0
 11 15  1  0
 12 13  2  0
 13 14  1  0
 15 14  2  0
  2 16  1  0
  3 17  1  0
  6 18  1  0
  8 19  1  0
  8 20  1  0
  8 21  1  0
  9 22  1  0
  9 23  1  0
  9 24  1  0
 10 25  1  0
 10 26  1  0
 12 27  1  0
 13 28  1  0
 15 29  1  0
M  ISO  8  16  14  17  14  18  14  19   8  20   8  21   8  22   8  23   8
M  ISO  6  24   8  25   8  26   8  27  14  28  14  29  14
M  END
>  <minimizedAffinity>  (1) 
-4.0793047

>  <minimizedRMSD>  (1) 
5.32297659

$$$$
