
     RDKit          3D

 30 31  0  0  0  0  0  0  0  0999 V2000
   48.1800   34.7730   41.8270 C   0  0  0  0  0  0  0  0  0  0  0  0
   48.1370   33.7510   38.1620 C   0  0  0  0  0  0  0  0  0  0  0  0
   48.1350   34.5840   39.2950 C   0  0  0  0  0  0  0  0  0  0  0  0
   48.1740   34.0070   40.5740 C   0  0  0  0  0  0  0  0  0  0  0  0
   48.2110   32.6400   40.6560 N   0  0  0  0  0  0  0  0  0  0  0  0
   48.2100   31.8580   39.5320 C   0  0  0  0  0  0  0  0  0  0  0  0
   48.1740   32.4100   38.3090 N   0  0  0  0  0  0  0  0  0  0  0  0
   49.2150   35.8700   41.6940 C   0  0  0  0  0  0  0  0  0  0  0  0
   48.6400   33.8750   42.9540 C   0  0  0  0  0  0  0  0  0  0  0  0
   46.8480   35.3360   42.2200 C   0  0  0  0  0  0  0  0  0  0  0  0
   45.7420   34.3570   42.0600 C   0  0  0  0  0  0  0  0  0  0  0  0
   44.8590   34.4040   40.9980 C   0  0  0  0  0  0  0  0  0  0  0  0
   43.9020   33.4240   41.0140 C   0  0  0  0  0  0  0  0  0  0  0  0
   43.7710   32.4660   41.9470 N   0  0  0  0  0  0  0  0  0  0  0  0
   44.6540   32.4600   42.9630 C   0  0  0  0  0  0  0  0  0  0  0  0
   45.6260   33.4050   43.0060 N   0  0  0  0  0  0  0  0  0  0  0  0
   48.1084   34.1928   37.1550 H   0  0  0  0  0  0  0  0  0  0  0  0
   48.1032   35.6775   39.1800 H   0  0  0  0  0  0  0  0  0  0  0  0
   48.2391   30.7630   39.6326 H   0  0  0  0  0  0  0  0  0  0  0  0
   49.5282   36.2019   42.6949 H   0  0  0  0  0  0  0  0  0  0  0  0
   50.0877   35.4862   41.1452 H   0  0  0  0  0  0  0  0  0  0  0  0
   48.7811   36.7189   41.1452 H   0  0  0  0  0  0  0  0  0  0  0  0
   48.3992   34.3450   43.9189 H   0  0  0  0  0  0  0  0  0  0  0  0
   48.1283   32.9040   42.8813 H   0  0  0  0  0  0  0  0  0  0  0  0
   49.7270   33.7229   42.8813 H   0  0  0  0  0  0  0  0  0  0  0  0
   46.8941   35.6456   43.2745 H   0  0  0  0  0  0  0  0  0  0  0  0
   46.6376   36.1867   41.5551 H   0  0  0  0  0  0  0  0  0  0  0  0
   44.9196   35.1649   40.2059 H   0  0  0  0  0  0  0  0  0  0  0  0
   43.1751   33.4211   40.1884 H   0  0  0  0  0  0  0  0  0  0  0  0
   44.5879   31.6956   43.7512 H   0  0  0  0  0  0  0  0  0  0  0  0
  1 10  1  0
  1  9  1  0
  2  7  2  0
  2  3  1  0
  3  4  2  0
  4  5  1  0
  4  1  1  0
  6  5  2  0
  7  6  1  0
  8  1  1  0
 11 10  1  0
 11 16  2  0
 12 13  2  0
 12 11  1  0
 13 14  1  0
 14 15  2  0
 15 16  1  0
  2 17  1  0
  3 18  1  0
  6 19  1  0
  8 20  1  0
  8 21  1  0
  8 22  1  0
  9 23  1  0
  9 24  1  0
  9 25  1  0
 10 26  1  0
 10 27  1  0
 12 28  1  0
 13 29  1  0
 15 30  1  0
M  ISO  8  17  14  18  14  19  14  20   8  21   8  22   8  23   8  24   8
M  ISO  6  25   8  26   8  27   8  28  14  29  14  30  14
M  END
>  <minimizedAffinity>  (1) 
-4.01906919

>  <minimizedRMSD>  (1) 
5.519104

$$$$
