
     RDKit          3D

 40 43  0  0  0  0  0  0  0  0999 V2000
   47.2040   34.5200   41.3080 C   0  0  0  0  0  0  0  0  0  0  0  0
   48.3420   33.6340   41.3470 C   0  0  0  0  0  0  0  0  0  0  0  0
   48.9540   33.3450   42.5600 C   0  0  0  0  0  0  0  0  0  0  0  0
   49.9750   32.5170   42.3360 N   0  0  0  0  0  0  0  0  0  0  0  0
   50.0590   32.2520   41.0340 C   0  0  0  0  0  0  0  0  0  0  0  0
   49.0560   32.9450   40.4670 N   0  0  0  0  0  0  0  0  0  0  0  0
   50.1050   31.7070   36.1390 N   0  0  0  0  0  0  0  0  0  0  0  0
   51.0070   31.2220   37.0230 C   0  0  0  0  0  0  0  0  0  0  0  0
   50.6230   31.6310   38.2560 N   0  0  0  0  0  0  0  0  0  0  0  0
   49.4830   32.3640   38.0970 C   0  0  0  0  0  0  0  0  0  0  0  0
   48.7240   32.9870   39.0620 C   0  0  0  0  0  0  0  0  0  0  0  0
   47.6220   33.6730   38.7240 N   0  0  0  0  0  0  0  0  0  0  0  0
   47.3050   33.7160   37.3980 C   0  0  0  0  0  0  0  0  0  0  0  0
   48.0430   33.1080   36.4460 N   0  0  0  0  0  0  0  0  0  0  0  0
   49.1540   32.4140   36.7580 C   0  0  0  0  0  0  0  0  0  0  0  0
   45.9050   34.0350   41.7880 C   0  0  0  0  0  0  0  0  0  0  0  0
   44.4730   35.9590   44.7380 C   0  0  0  0  0  0  0  0  0  0  0  0
   44.8270   35.6490   43.4170 C   0  0  0  0  0  0  0  0  0  0  0  0
   45.5010   34.4340   43.1450 C   0  0  0  0  0  0  0  0  0  0  0  0
   45.7710   33.6240   44.1970 N   0  0  0  0  0  0  0  0  0  0  0  0
   45.4280   33.9300   45.4600 C   0  0  0  0  0  0  0  0  0  0  0  0
   44.7860   35.0850   45.7310 N   0  0  0  0  0  0  0  0  0  0  0  0
   44.7960   34.4640   40.8370 C   0  0  0  0  0  0  0  0  0  0  0  0
   45.9360   32.5110   41.7230 C   0  0  0  0  0  0  0  0  0  0  0  0
   47.4618   35.4018   41.9129 H   0  0  0  0  0  0  0  0  0  0  0  0
   47.0402   34.6899   40.2336 H   0  0  0  0  0  0  0  0  0  0  0  0
   48.6474   33.7344   43.5420 H   0  0  0  0  0  0  0  0  0  0  0  0
   50.7919   31.6048   40.5301 H   0  0  0  0  0  0  0  0  0  0  0  0
   50.1456   31.5518   35.1216 H   0  0  0  0  0  0  0  0  0  0  0  0
   51.8888   30.6091   36.7847 H   0  0  0  0  0  0  0  0  0  0  0  0
   46.4068   34.2717   37.0908 H   0  0  0  0  0  0  0  0  0  0  0  0
   43.9484   36.8981   44.9679 H   0  0  0  0  0  0  0  0  0  0  0  0
   44.5832   36.3435   42.5995 H   0  0  0  0  0  0  0  0  0  0  0  0
   45.6721   33.2350   46.2769 H   0  0  0  0  0  0  0  0  0  0  0  0
   43.9248   34.8010   41.4179 H   0  0  0  0  0  0  0  0  0  0  0  0
   45.1550   35.2881   40.2030 H   0  0  0  0  0  0  0  0  0  0  0  0
   44.5070   33.6128   40.2030 H   0  0  0  0  0  0  0  0  0  0  0  0
   45.9443   32.1006   42.7435 H   0  0  0  0  0  0  0  0  0  0  0  0
   45.0450   32.1486   41.1893 H   0  0  0  0  0  0  0  0  0  0  0  0
   46.8410   32.1851   41.1893 H   0  0  0  0  0  0  0  0  0  0  0  0
  1  2  1  0
  1 16  1  0
  2  3  2  0
  4  3  1  0
  5  4  2  0
  6  5  1  0
  6  2  1  0
  7 15  1  0
  7  8  1  0
  8  9  2  0
 10  9  1  0
 10 11  2  0
 11  6  1  0
 12 11  1  0
 13 12  2  0
 14 15  2  0
 14 13  1  0
 15 10  1  0
 16 19  1  0
 17 22  2  0
 18 17  1  0
 19 18  2  0
 19 20  1  0
 20 21  2  0
 21 22  1  0
 23 16  1  0
 24 16  1  0
  1 25  1  0
  1 26  1  0
  3 27  1  0
  5 28  1  0
  7 29  1  0
  8 30  1  0
 13 31  1  0
 17 32  1  0
 18 33  1  0
 21 34  1  0
 23 35  1  0
 23 36  1  0
 23 37  1  0
 24 38  1  0
 24 39  1  0
 24 40  1  0
M  ISO  8  25   8  26   8  27  14  28  14  29   9  30  14  31  14  32  14
M  ISO  8  33  14  34  14  35   8  36   8  37   8  38   8  39   8  40   8
M  END
>  <minimizedAffinity>  (1) 
-5.45018387

>  <minimizedRMSD>  (1) 
0.980196595

$$$$
