
     RDKit          3D

 44 46  0  0  0  0  0  0  0  0999 V2000
   45.9160   34.1330   41.9020 C   0  0  0  0  0  0  0  0  0  0  0  0
   44.4280   36.0370   44.8420 C   0  0  0  0  0  0  0  0  0  0  0  0
   44.8010   35.7450   43.5180 C   0  0  0  0  0  0  0  0  0  0  0  0
   45.4830   34.5310   43.2550 C   0  0  0  0  0  0  0  0  0  0  0  0
   45.7430   33.7050   44.3030 N   0  0  0  0  0  0  0  0  0  0  0  0
   45.3780   34.0050   45.5620 C   0  0  0  0  0  0  0  0  0  0  0  0
   44.7280   35.1560   45.8330 N   0  0  0  0  0  0  0  0  0  0  0  0
   44.7630   34.4170   40.9530 C   0  0  0  0  0  0  0  0  0  0  0  0
   46.1190   32.6290   41.8880 C   0  0  0  0  0  0  0  0  0  0  0  0
   47.1470   34.7510   41.3910 C   0  0  0  0  0  0  0  0  0  0  0  0
   48.3660   33.9890   41.3790 C   0  0  0  0  0  0  0  0  0  0  0  0
   49.3080   34.1390   42.3960 C   0  0  0  0  0  0  0  0  0  0  0  0
   50.3350   33.3240   42.1320 N   0  0  0  0  0  0  0  0  0  0  0  0
   50.1080   32.6590   41.0090 C   0  0  0  0  0  0  0  0  0  0  0  0
   48.9080   33.0840   40.5760 N   0  0  0  0  0  0  0  0  0  0  0  0
   49.7640   33.8050   37.1880 N   0  0  0  0  0  0  0  0  0  0  0  0
   48.6970   34.5410   37.7880 C   0  0  0  0  0  0  0  0  0  0  0  0
   47.6870   33.7350   38.5270 C   0  0  0  0  0  0  0  0  0  0  0  0
   48.2720   32.6140   39.3670 C   0  0  0  0  0  0  0  0  0  0  0  0
   49.2900   31.8460   38.5920 C   0  0  0  0  0  0  0  0  0  0  0  0
   49.5870   32.3820   37.2180 C   0  0  0  0  0  0  0  0  0  0  0  0
   43.8971   36.9720   45.0743 H   0  0  0  0  0  0  0  0  0  0  0  0
   44.5679   36.4453   42.7024 H   0  0  0  0  0  0  0  0  0  0  0  0
   45.6114   33.3057   46.3784 H   0  0  0  0  0  0  0  0  0  0  0  0
   43.8562   34.6404   41.5342 H   0  0  0  0  0  0  0  0  0  0  0  0
   45.0140   35.2802   40.3190 H   0  0  0  0  0  0  0  0  0  0  0  0
   44.5844   33.5360   40.3190 H   0  0  0  0  0  0  0  0  0  0  0  0
   46.1693   32.2562   42.9217 H   0  0  0  0  0  0  0  0  0  0  0  0
   45.2773   32.1502   41.3661 H   0  0  0  0  0  0  0  0  0  0  0  0
   47.0575   32.3905   41.3661 H   0  0  0  0  0  0  0  0  0  0  0  0
   46.9471   35.0523   40.3521 H   0  0  0  0  0  0  0  0  0  0  0  0
   47.3515   35.5568   42.1113 H   0  0  0  0  0  0  0  0  0  0  0  0
   49.2216   34.8100   43.2634 H   0  0  0  0  0  0  0  0  0  0  0  0
   50.7632   31.9157   40.5313 H   0  0  0  0  0  0  0  0  0  0  0  0
   50.6349   34.0327   37.6886 H   0  0  0  0  0  0  0  0  0  0  0  0
   49.1384   35.2588   38.4951 H   0  0  0  0  0  0  0  0  0  0  0  0
   48.1527   35.0093   36.9547 H   0  0  0  0  0  0  0  0  0  0  0  0
   47.1295   34.4094   39.1936 H   0  0  0  0  0  0  0  0  0  0  0  0
   47.0492   33.2585   37.7680 H   0  0  0  0  0  0  0  0  0  0  0  0
   47.4176   31.9774   39.6404 H   0  0  0  0  0  0  0  0  0  0  0  0
   50.2274   31.8466   39.1675 H   0  0  0  0  0  0  0  0  0  0  0  0
   48.8666   30.8417   38.4430 H   0  0  0  0  0  0  0  0  0  0  0  0
   48.7504   32.1205   36.5533 H   0  0  0  0  0  0  0  0  0  0  0  0
   50.5348   31.9298   36.8908 H   0  0  0  0  0  0  0  0  0  0  0  0
  1  4  1  0
  2  7  2  0
  3  2  1  0
  4  3  2  0
  4  5  1  0
  5  6  2  0
  6  7  1  0
  8  1  1  0
  9  1  1  0
 10  1  1  0
 11 10  1  0
 11 12  2  0
 13 12  1  0
 14 13  2  0
 15 14  1  0
 15 11  1  0
 16 21  1  0
 16 17  1  0
 17 18  1  0
 18 19  1  0
 19 15  1  0
 20 19  1  0
 21 20  1  0
  2 22  1  0
  3 23  1  0
  6 24  1  0
  8 25  1  0
  8 26  1  0
  8 27  1  0
  9 28  1  0
  9 29  1  0
  9 30  1  0
 10 31  1  0
 10 32  1  0
 12 33  1  0
 14 34  1  0
 16 35  1  0
 17 36  1  0
 17 37  1  0
 18 38  1  0
 18 39  1  0
 19 40  1  0
 20 41  1  0
 20 42  1  0
 21 43  1  0
 21 44  1  0
M  ISO  8  22  14  23  14  24  14  25   8  26   8  27   8  28   8  29   8
M  ISO  8  30   8  31   8  32   8  33  14  34  14  35   5  36  13  37  13
M  ISO  7  38  13  39  13  40  13  41  13  42  13  43  13  44  13
M  END
>  <minimizedAffinity>  (1) 
-5.41518593

>  <minimizedRMSD>  (1) 
0.843477905

$$$$
