
     RDKit          3D

 42 44  0  0  0  0  0  0  0  0999 V2000
   47.4830   34.7540   41.6210 C   0  0  0  0  0  0  0  0  0  0  0  0
   48.6890   33.9670   41.6060 C   0  0  0  0  0  0  0  0  0  0  0  0
   49.5870   34.0480   42.6760 C   0  0  0  0  0  0  0  0  0  0  0  0
   50.6140   33.2340   42.4140 N   0  0  0  0  0  0  0  0  0  0  0  0
   50.4340   32.6360   41.2480 C   0  0  0  0  0  0  0  0  0  0  0  0
   49.2600   33.1030   40.7850 N   0  0  0  0  0  0  0  0  0  0  0  0
   47.4790   32.1690   37.0400 C   0  0  0  0  0  0  0  0  0  0  0  0
   47.7340   33.4660   37.3790 C   0  0  0  0  0  0  0  0  0  0  0  0
   48.3130   33.7040   38.6060 C   0  0  0  0  0  0  0  0  0  0  0  0
   48.6670   32.7260   39.5460 C   0  0  0  0  0  0  0  0  0  0  0  0
   48.3820   31.4360   39.1410 C   0  0  0  0  0  0  0  0  0  0  0  0
   47.8020   31.1770   37.9160 C   0  0  0  0  0  0  0  0  0  0  0  0
   46.7460   31.8330   35.4920 S   0  0  0  0  0  0  0  0  0  0  0  0
   45.4620   32.6410   35.4430 O   0  0  0  0  0  0  0  0  0  0  0  0
   47.6670   32.3820   34.4310 O   0  0  0  0  0  0  0  0  0  0  0  0
   46.2260   34.1320   42.0410 C   0  0  0  0  0  0  0  0  0  0  0  0
   44.4450   36.1020   44.7650 C   0  0  0  0  0  0  0  0  0  0  0  0
   44.9540   35.7720   43.4990 C   0  0  0  0  0  0  0  0  0  0  0  0
   45.6600   34.5540   43.3370 C   0  0  0  0  0  0  0  0  0  0  0  0
   45.8170   33.7480   44.4220 N   0  0  0  0  0  0  0  0  0  0  0  0
   45.3150   34.0910   45.6350 C   0  0  0  0  0  0  0  0  0  0  0  0
   44.6440   35.2390   45.8050 N   0  0  0  0  0  0  0  0  0  0  0  0
   45.1550   34.3590   40.9850 C   0  0  0  0  0  0  0  0  0  0  0  0
   46.4580   32.6250   42.0900 C   0  0  0  0  0  0  0  0  0  0  0  0
   47.3303   35.1264   40.5973 H   0  0  0  0  0  0  0  0  0  0  0  0
   47.6735   35.5072   42.3997 H   0  0  0  0  0  0  0  0  0  0  0  0
   49.4685   34.6717   43.5743 H   0  0  0  0  0  0  0  0  0  0  0  0
   51.1021   31.9109   40.7603 H   0  0  0  0  0  0  0  0  0  0  0  0
   47.4859   34.2923   36.6965 H   0  0  0  0  0  0  0  0  0  0  0  0
   48.5151   34.7522   38.8713 H   0  0  0  0  0  0  0  0  0  0  0  0
   48.6229   30.5968   39.8101 H   0  0  0  0  0  0  0  0  0  0  0  0
   47.5933   30.1336   37.6372 H   0  0  0  0  0  0  0  0  0  0  0  0
   46.5191   30.4948   35.3061 H   0  0  0  0  0  0  0  0  0  0  0  0
   43.8940   37.0418   44.9173 H   0  0  0  0  0  0  0  0  0  0  0  0
   44.8069   36.4493   42.6448 H   0  0  0  0  0  0  0  0  0  0  0  0
   45.4608   33.4168   46.4919 H   0  0  0  0  0  0  0  0  0  0  0  0
   44.1925   34.5630   41.4769 H   0  0  0  0  0  0  0  0  0  0  0  0
   45.4352   35.2177   40.3572 H   0  0  0  0  0  0  0  0  0  0  0  0
   45.0628   33.4605   40.3572 H   0  0  0  0  0  0  0  0  0  0  0  0
   46.5087   32.2957   43.1383 H   0  0  0  0  0  0  0  0  0  0  0  0
   45.6286   32.1097   41.5835 H   0  0  0  0  0  0  0  0  0  0  0  0
   47.4040   32.3830   41.5835 H   0  0  0  0  0  0  0  0  0  0  0  0
  1 16  1  0
  2  1  1  0
  2  3  2  0
  4  3  1  0
  5  4  2  0
  6  5  1  0
  6  2  1  0
  7  8  2  0
  7 12  1  0
  8  9  1  0
  9 10  2  0
 10  6  1  0
 11 10  1  0
 12 11  2  0
 13  7  1  0
 14 13  2  0
 15 13  2  0
 16 24  1  0
 16 19  1  0
 17 22  2  0
 18 17  1  0
 19 18  2  0
 19 20  1  0
 20 21  2  0
 21 22  1  0
 23 16  1  0
  1 25  1  0
  1 26  1  0
  3 27  1  0
  5 28  1  0
  8 29  1  0
  9 30  1  0
 11 31  1  0
 12 32  1  0
 13 33  1  0
 17 34  1  0
 18 35  1  0
 21 36  1  0
 23 37  1  0
 23 38  1  0
 23 39  1  0
 24 40  1  0
 24 41  1  0
 24 42  1  0
M  ISO  8  25   8  26   8  27  14  28  14  29  14  30  14  31  14  32  14
M  ISO  8  33  11  34  14  35  14  36  14  37   8  38   8  39   8  40   8
M  ISO  2  41   8  42   8
M  END
>  <minimizedAffinity>  (1) 
-5.24057913

>  <minimizedRMSD>  (1) 
1.10631192

$$$$
