
     RDKit          3D

 34 36  0  0  0  0  0  0  0  0999 V2000
   46.3770   33.9710   41.9780 C   0  0  0  0  0  0  0  0  0  0  0  0
   44.5300   36.0760   44.5500 C   0  0  0  0  0  0  0  0  0  0  0  0
   45.0730   35.6810   43.3150 C   0  0  0  0  0  0  0  0  0  0  0  0
   45.7780   34.4590   43.2300 C   0  0  0  0  0  0  0  0  0  0  0  0
   45.8980   33.7120   44.3620 N   0  0  0  0  0  0  0  0  0  0  0  0
   45.3600   34.1220   45.5380 C   0  0  0  0  0  0  0  0  0  0  0  0
   44.6950   35.2740   45.6280 N   0  0  0  0  0  0  0  0  0  0  0  0
   45.4320   34.3340   40.8450 C   0  0  0  0  0  0  0  0  0  0  0  0
   46.3990   32.4430   42.0260 C   0  0  0  0  0  0  0  0  0  0  0  0
   47.7350   34.4130   41.6600 C   0  0  0  0  0  0  0  0  0  0  0  0
   48.7040   33.4460   41.2070 C   0  0  0  0  0  0  0  0  0  0  0  0
   49.6350   32.9110   42.1010 C   0  0  0  0  0  0  0  0  0  0  0  0
   50.4040   32.0550   41.4290 N   0  0  0  0  0  0  0  0  0  0  0  0
   50.0330   31.9990   40.1590 C   0  0  0  0  0  0  0  0  0  0  0  0
   49.0010   32.8520   40.0550 N   0  0  0  0  0  0  0  0  0  0  0  0
   48.2610   33.1360   38.8670 C   0  0  0  0  0  0  0  0  0  0  0  0
   48.3300   34.3100   38.2130 N   0  0  0  0  0  0  0  0  0  0  0  0
   47.5550   34.2820   37.1770 O   0  0  0  0  0  0  0  0  0  0  0  0
   46.9890   33.1040   37.1550 C   0  0  0  0  0  0  0  0  0  0  0  0
   47.4090   32.3520   38.2040 N   0  0  0  0  0  0  0  0  0  0  0  0
   43.9787   37.0237   44.6392 H   0  0  0  0  0  0  0  0  0  0  0  0
   44.9506   36.3157   42.4250 H   0  0  0  0  0  0  0  0  0  0  0  0
   45.4745   33.4929   46.4330 H   0  0  0  0  0  0  0  0  0  0  0  0
   44.4820   34.6989   41.2626 H   0  0  0  0  0  0  0  0  0  0  0  0
   45.8870   35.1214   40.2261 H   0  0  0  0  0  0  0  0  0  0  0  0
   45.2429   33.4445   40.2261 H   0  0  0  0  0  0  0  0  0  0  0  0
   46.4038   32.1091   43.0741 H   0  0  0  0  0  0  0  0  0  0  0  0
   45.5065   32.0473   41.5192 H   0  0  0  0  0  0  0  0  0  0  0  0
   47.3026   32.0732   41.5192 H   0  0  0  0  0  0  0  0  0  0  0  0
   47.6481   35.1742   40.8707 H   0  0  0  0  0  0  0  0  0  0  0  0
   48.1339   34.7471   42.6292 H   0  0  0  0  0  0  0  0  0  0  0  0
   49.7184   33.1536   43.1707 H   0  0  0  0  0  0  0  0  0  0  0  0
   50.4753   31.3853   39.3604 H   0  0  0  0  0  0  0  0  0  0  0  0
   46.2714   32.7684   36.3918 H   0  0  0  0  0  0  0  0  0  0  0  0
  1  9  1  0
  1  4  1  0
  2  7  2  0
  3  2  1  0
  4  3  2  0
  4  5  1  0
  5  6  2  0
  6  7  1  0
  8  1  1  0
 10  1  1  0
 11 10  1  0
 11 12  2  0
 13 12  1  0
 14 13  2  0
 15 14  1  0
 15 11  1  0
 16 15  1  0
 17 16  2  0
 18 17  1  0
 19 18  1  0
 19 20  2  0
 20 16  1  0
  2 21  1  0
  3 22  1  0
  6 23  1  0
  8 24  1  0
  8 25  1  0
  8 26  1  0
  9 27  1  0
  9 28  1  0
  9 29  1  0
 10 30  1  0
 10 31  1  0
 12 32  1  0
 14 33  1  0
 19 34  1  0
M  ISO  8  21  14  22  14  23  14  24   8  25   8  26   8  27   8  28   8
M  ISO  6  29   8  30   8  31   8  32  14  33  14  34  14
M  END
>  <minimizedAffinity>  (1) 
-5.02684927

>  <minimizedRMSD>  (1) 
1.19788134

$$$$
