
     RDKit          3D

 42 44  0  0  0  0  0  0  0  0999 V2000
   46.4150   33.9710   42.1040 C   0  0  0  0  0  0  0  0  0  0  0  0
   44.4620   35.9720   44.6800 C   0  0  0  0  0  0  0  0  0  0  0  0
   45.0250   35.6100   43.4490 C   0  0  0  0  0  0  0  0  0  0  0  0
   45.7910   34.4230   43.3560 C   0  0  0  0  0  0  0  0  0  0  0  0
   45.9390   33.6900   44.4860 N   0  0  0  0  0  0  0  0  0  0  0  0
   45.3950   34.0460   45.6640 C   0  0  0  0  0  0  0  0  0  0  0  0
   44.6630   35.1770   45.7620 N   0  0  0  0  0  0  0  0  0  0  0  0
   45.4770   34.3470   40.9670 C   0  0  0  0  0  0  0  0  0  0  0  0
   46.4670   32.4470   42.1100 C   0  0  0  0  0  0  0  0  0  0  0  0
   47.7660   34.4570   41.8180 C   0  0  0  0  0  0  0  0  0  0  0  0
   48.7900   33.5080   41.4610 C   0  0  0  0  0  0  0  0  0  0  0  0
   49.7050   33.0630   42.4100 C   0  0  0  0  0  0  0  0  0  0  0  0
   50.5350   32.2080   41.8160 N   0  0  0  0  0  0  0  0  0  0  0  0
   50.2150   32.0690   40.5300 C   0  0  0  0  0  0  0  0  0  0  0  0
   49.1530   32.8700   40.3480 N   0  0  0  0  0  0  0  0  0  0  0  0
   48.4560   33.0460   39.0960 C   0  0  0  0  0  0  0  0  0  0  0  0
   48.4840   34.5110   38.6430 C   0  0  0  0  0  0  0  0  0  0  0  0
   48.0900   34.3720   37.1740 C   0  0  0  0  0  0  0  0  0  0  0  0
   48.2650   32.9250   36.8040 C   0  0  0  0  0  0  0  0  0  0  0  0
   49.1770   32.4110   37.9260 C   0  0  0  0  0  0  0  0  0  0  0  0
   43.8635   36.8906   44.7688 H   0  0  0  0  0  0  0  0  0  0  0  0
   44.8731   36.2429   42.5622 H   0  0  0  0  0  0  0  0  0  0  0  0
   45.5470   33.4134   46.5510 H   0  0  0  0  0  0  0  0  0  0  0  0
   44.5314   34.7261   41.3819 H   0  0  0  0  0  0  0  0  0  0  0  0
   45.9448   35.1271   40.3485 H   0  0  0  0  0  0  0  0  0  0  0  0
   45.2765   33.4598   40.3485 H   0  0  0  0  0  0  0  0  0  0  0  0
   46.4794   32.0846   43.1485 H   0  0  0  0  0  0  0  0  0  0  0  0
   45.5820   32.0479   41.5929 H   0  0  0  0  0  0  0  0  0  0  0  0
   47.3772   32.1091   41.5929 H   0  0  0  0  0  0  0  0  0  0  0  0
   47.6822   35.1694   40.9841 H   0  0  0  0  0  0  0  0  0  0  0  0
   48.1086   34.8643   42.7807 H   0  0  0  0  0  0  0  0  0  0  0  0
   49.7371   33.3650   43.4672 H   0  0  0  0  0  0  0  0  0  0  0  0
   50.7126   31.4358   39.7807 H   0  0  0  0  0  0  0  0  0  0  0  0
   47.4608   32.6245   39.3007 H   0  0  0  0  0  0  0  0  0  0  0  0
   47.7565   35.1196   39.2001 H   0  0  0  0  0  0  0  0  0  0  0  0
   49.4467   35.0171   38.8073 H   0  0  0  0  0  0  0  0  0  0  0  0
   47.0412   34.6729   37.0346 H   0  0  0  0  0  0  0  0  0  0  0  0
   48.7148   35.0168   36.5385 H   0  0  0  0  0  0  0  0  0  0  0  0
   47.3010   32.3952   36.7995 H   0  0  0  0  0  0  0  0  0  0  0  0
   48.6778   32.7741   35.7956 H   0  0  0  0  0  0  0  0  0  0  0  0
   49.1828   31.3127   37.9872 H   0  0  0  0  0  0  0  0  0  0  0  0
   50.2450   32.6557   37.8284 H   0  0  0  0  0  0  0  0  0  0  0  0
  1  9  1  0
  1  4  1  0
  2  7  2  0
  3  2  1  0
  4  3  2  0
  4  5  1  0
  5  6  2  0
  6  7  1  0
  8  1  1  0
 10  1  1  0
 11 10  1  0
 11 12  2  0
 13 12  1  0
 14 13  2  0
 15 14  1  0
 15 11  1  0
 16 15  1  0
 17 16  1  0
 18 17  1  0
 19 18  1  0
 19 20  1  0
 20 16  1  0
  2 21  1  0
  3 22  1  0
  6 23  1  0
  8 24  1  0
  8 25  1  0
  8 26  1  0
  9 27  1  0
  9 28  1  0
  9 29  1  0
 10 30  1  0
 10 31  1  0
 12 32  1  0
 14 33  1  0
 16 34  1  0
 17 35  1  0
 17 36  1  0
 18 37  1  0
 18 38  1  0
 19 39  1  0
 19 40  1  0
 20 41  1  0
 20 42  1  0
M  ISO  8  21  14  22  14  23  14  24   8  25   8  26   8  27   8  28   8
M  ISO  8  29   8  30   8  31   8  32  14  33  14  34  13  35  13  36  13
M  ISO  6  37  13  38  13  39  13  40  13  41  13  42  13
M  END
>  <minimizedAffinity>  (1) 
-4.98318291

>  <minimizedRMSD>  (1) 
0.89726615

$$$$
