
     RDKit          3D

 32 33  0  0  0  0  0  0  0  0999 V2000
   46.2290   34.0770   42.0980 C   0  0  0  0  0  0  0  0  0  0  0  0
   44.4420   36.0010   44.8500 C   0  0  0  0  0  0  0  0  0  0  0  0
   44.9430   35.6860   43.5840 C   0  0  0  0  0  0  0  0  0  0  0  0
   45.6760   34.4720   43.4080 C   0  0  0  0  0  0  0  0  0  0  0  0
   45.8440   33.6900   44.4850 N   0  0  0  0  0  0  0  0  0  0  0  0
   45.3480   34.0230   45.6970 C   0  0  0  0  0  0  0  0  0  0  0  0
   44.6580   35.1590   45.8770 N   0  0  0  0  0  0  0  0  0  0  0  0
   45.2350   34.4960   41.0300 C   0  0  0  0  0  0  0  0  0  0  0  0
   46.2880   32.5480   42.0780 C   0  0  0  0  0  0  0  0  0  0  0  0
   47.5680   34.5630   41.7590 C   0  0  0  0  0  0  0  0  0  0  0  0
   48.6000   33.6260   41.4060 C   0  0  0  0  0  0  0  0  0  0  0  0
   49.4650   33.1310   42.3810 C   0  0  0  0  0  0  0  0  0  0  0  0
   50.3180   32.2900   41.7880 N   0  0  0  0  0  0  0  0  0  0  0  0
   50.0520   32.2130   40.4860 C   0  0  0  0  0  0  0  0  0  0  0  0
   49.0090   33.0330   40.2910 N   0  0  0  0  0  0  0  0  0  0  0  0
   48.3770   33.2670   39.0130 C   0  0  0  0  0  0  0  0  0  0  0  0
   47.1110   32.8220   38.8910 F   0  0  0  0  0  0  0  0  0  0  0  0
   48.3180   34.6630   38.8900 F   0  0  0  0  0  0  0  0  0  0  0  0
   49.2440   32.8740   38.0120 F   0  0  0  0  0  0  0  0  0  0  0  0
   43.8751   36.9307   45.0058 H   0  0  0  0  0  0  0  0  0  0  0  0
   44.7753   36.3638   42.7340 H   0  0  0  0  0  0  0  0  0  0  0  0
   45.5131   33.3503   46.5515 H   0  0  0  0  0  0  0  0  0  0  0  0
   44.3225   34.8806   41.5090 H   0  0  0  0  0  0  0  0  0  0  0  0
   45.6800   35.2831   40.4035 H   0  0  0  0  0  0  0  0  0  0  0  0
   44.9822   33.6279   40.4035 H   0  0  0  0  0  0  0  0  0  0  0  0
   46.3027   32.1681   43.1102 H   0  0  0  0  0  0  0  0  0  0  0  0
   45.4044   32.1538   41.5547 H   0  0  0  0  0  0  0  0  0  0  0  0
   47.1994   32.2230   41.5547 H   0  0  0  0  0  0  0  0  0  0  0  0
   47.4521   35.2461   40.9046 H   0  0  0  0  0  0  0  0  0  0  0  0
   47.9289   34.9961   42.7035 H   0  0  0  0  0  0  0  0  0  0  0  0
   49.4484   33.3876   43.4505 H   0  0  0  0  0  0  0  0  0  0  0  0
   50.5754   31.6069   39.7319 H   0  0  0  0  0  0  0  0  0  0  0  0
  1  4  1  0
  2  7  2  0
  3  2  1  0
  4  3  2  0
  4  5  1  0
  5  6  2  0
  6  7  1  0
  8  1  1  0
  9  1  1  0
 10  1  1  0
 11 10  1  0
 11 12  2  0
 13 12  1  0
 14 13  2  0
 15 14  1  0
 15 11  1  0
 16 15  1  0
 17 16  1  0
 18 16  1  0
 19 16  1  0
  2 20  1  0
  3 21  1  0
  6 22  1  0
  8 23  1  0
  8 24  1  0
  8 25  1  0
  9 26  1  0
  9 27  1  0
  9 28  1  0
 10 29  1  0
 10 30  1  0
 12 31  1  0
 14 32  1  0
M  ISO  8  20  14  21  14  22  14  23   8  24   8  25   8  26   8  27   8
M  ISO  5  28   8  29   8  30   8  31  14  32  14
M  END
>  <minimizedAffinity>  (1) 
-4.57098627

>  <minimizedRMSD>  (1) 
0.950774431

$$$$
