
     RDKit          3D

 21 22  0  0  0  0  0  0  0  0999 V2000
   44.4910   35.9360   44.4860 C   0  0  0  0  0  0  0  0  0  0  0  0
   45.0740   35.8680   43.2040 C   0  0  0  0  0  0  0  0  0  0  0  0
   46.0160   34.8630   42.9420 C   0  0  0  0  0  0  0  0  0  0  0  0
   46.3190   34.0020   43.9450 N   0  0  0  0  0  0  0  0  0  0  0  0
   45.7450   34.0860   45.1680 C   0  0  0  0  0  0  0  0  0  0  0  0
   44.8420   35.0420   45.4380 N   0  0  0  0  0  0  0  0  0  0  0  0
   46.0480   33.1950   46.2350 N   0  0  0  0  0  0  0  0  0  0  0  0
   47.0460   32.2980   46.1150 C   0  0  0  0  0  0  0  0  0  0  0  0
   47.2820   31.4620   47.1980 C   0  0  0  0  0  0  0  0  0  0  0  0
   46.5340   31.5310   48.3560 C   0  0  0  0  0  0  0  0  0  0  0  0
   46.7810   30.6700   49.4640 N   0  0  0  0  0  0  0  0  0  0  0  0
   45.5480   32.4480   48.4150 N   0  0  0  0  0  0  0  0  0  0  0  0
   45.2970   33.2800   47.3700 C   0  0  0  0  0  0  0  0  0  0  0  0
   44.3740   34.1470   47.4100 O   0  0  0  0  0  0  0  0  0  0  0  0
   43.7500   36.7169   44.7120 H   0  0  0  0  0  0  0  0  0  0  0  0
   44.7947   36.5907   42.4231 H   0  0  0  0  0  0  0  0  0  0  0  0
   46.4937   34.7758   41.9550 H   0  0  0  0  0  0  0  0  0  0  0  0
   47.6487   32.2308   45.1973 H   0  0  0  0  0  0  0  0  0  0  0  0
   48.0916   30.7203   47.1310 H   0  0  0  0  0  0  0  0  0  0  0  0
   46.2048   30.7467   50.3143 H   0  0  0  0  0  0  0  0  0  0  0  0
   47.5358   29.9709   49.4147 H   0  0  0  0  0  0  0  0  0  0  0  0
  1  6  2  0
  2  1  1  0
  3  2  2  0
  3  4  1  0
  4  5  2  0
  5  6  1  0
  5  7  1  0
  7 13  1  0
  8  7  1  0
  8  9  2  0
  9 10  1  0
 10 12  2  0
 10 11  1  0
 13 14  2  0
 13 12  1  0
  1 15  1  0
  2 16  1  0
  3 17  1  0
  8 18  1  0
  9 19  1  0
 11 20  1  0
 11 21  1  0
M  ISO  5  15  14  16  14  17  14  18  14  19  14
M  END
>  <minimizedAffinity>  (1) 
-5.24087143

>  <minimizedRMSD>  (1) 
0.94864589

$$$$
