
     RDKit          3D

 45 48  0  0  1  0  0  0  0  0999 V2000
   48.4020   33.5720   41.1380 C   0  0  2  0  0  0  0  0  0  0  0  0
   48.7840   34.7870   41.8140 C   0  0  0  0  0  0  0  0  0  0  0  0
   50.1610   34.5440   42.4540 C   0  0  0  0  0  0  0  0  0  0  0  0
   50.6250   33.1700   42.0370 C   0  0  0  0  0  0  0  0  0  0  0  0
   49.3290   32.4930   41.7380 C   0  0  1  0  0  0  0  0  0  0  0  0
   48.5990   33.4580   39.6700 C   0  0  0  0  0  0  0  0  0  0  0  0
   48.2680   34.5540   38.8700 C   0  0  0  0  0  0  0  0  0  0  0  0
   48.4420   34.4800   37.5000 C   0  0  0  0  0  0  0  0  0  0  0  0
   48.9410   33.3070   37.0150 N   0  0  0  0  0  0  0  0  0  0  0  0
   49.2550   32.2600   37.8070 C   0  0  0  0  0  0  0  0  0  0  0  0
   49.0840   32.3340   39.1400 N   0  0  0  0  0  0  0  0  0  0  0  0
   48.7430   31.9420   42.9970 C   0  0  0  0  0  0  0  0  0  0  0  0
   47.2490   31.9950   42.9110 C   0  0  0  0  0  0  0  0  0  0  0  0
   46.6710   32.4420   44.2530 C   0  0  0  0  0  0  0  0  0  0  0  0
   46.9070   31.6790   45.3770 C   0  0  0  0  0  0  0  0  0  0  0  0
   46.4270   32.0310   46.6180 C   0  0  0  0  0  0  0  0  0  0  0  0
   45.6920   33.1670   46.7590 C   0  0  0  0  0  0  0  0  0  0  0  0
   45.4460   33.9410   45.6480 C   0  0  0  0  0  0  0  0  0  0  0  0
   44.6930   35.1160   45.7350 C   0  0  0  0  0  0  0  0  0  0  0  0
   44.4330   35.9000   44.6420 C   0  0  0  0  0  0  0  0  0  0  0  0
   44.9220   35.5390   43.3840 C   0  0  0  0  0  0  0  0  0  0  0  0
   45.6630   34.3780   43.3090 C   0  0  0  0  0  0  0  0  0  0  0  0
   45.9260   33.5880   44.4060 C   0  0  0  0  0  0  0  0  0  0  0  0
   47.3137   33.4989   41.2806 H   0  0  0  0  0  0  0  0  0  0  0  0
   48.8456   35.6151   41.0926 H   0  0  0  0  0  0  0  0  0  0  0  0
   48.0416   35.0550   42.5801 H   0  0  0  0  0  0  0  0  0  0  0  0
   50.8760   35.3031   42.1039 H   0  0  0  0  0  0  0  0  0  0  0  0
   50.0937   34.6117   43.5499 H   0  0  0  0  0  0  0  0  0  0  0  0
   51.2682   33.2169   41.1459 H   0  0  0  0  0  0  0  0  0  0  0  0
   51.2346   32.6548   42.7940 H   0  0  0  0  0  0  0  0  0  0  0  0
   49.4619   31.6548   41.0381 H   0  0  0  0  0  0  0  0  0  0  0  0
   47.8707   35.4720   39.3276 H   0  0  0  0  0  0  0  0  0  0  0  0
   48.1915   35.3216   36.8374 H   0  0  0  0  0  0  0  0  0  0  0  0
   49.6542   31.3381   37.3590 H   0  0  0  0  0  0  0  0  0  0  0  0
   49.0669   30.8989   43.1275 H   0  0  0  0  0  0  0  0  0  0  0  0
   49.0845   32.5394   43.8552 H   0  0  0  0  0  0  0  0  0  0  0  0
   46.9530   32.7099   42.1291 H   0  0  0  0  0  0  0  0  0  0  0  0
   46.8629   30.9953   42.6631 H   0  0  0  0  0  0  0  0  0  0  0  0
   47.4993   30.7573   45.2785 H   0  0  0  0  0  0  0  0  0  0  0  0
   46.6368   31.3966   47.4918 H   0  0  0  0  0  0  0  0  0  0  0  0
   45.3011   33.4618   47.7440 H   0  0  0  0  0  0  0  0  0  0  0  0
   44.2959   35.4212   46.7143 H   0  0  0  0  0  0  0  0  0  0  0  0
   43.8368   36.8175   44.7553 H   0  0  0  0  0  0  0  0  0  0  0  0
   44.7249   36.1533   42.4930 H   0  0  0  0  0  0  0  0  0  0  0  0
   46.0610   34.0699   42.3309 H   0  0  0  0  0  0  0  0  0  0  0  0
  1  5  1  0
  1  2  1  0
  2  3  1  0
  4  3  1  0
  5  4  1  0
  5 12  1  0
  6  1  1  0
  7  6  2  0
  8  7  1  0
  9  8  2  0
  9 10  1  0
 10 11  2  0
 11  6  1  0
 13 12  1  0
 13 14  1  0
 14 23  1  0
 14 15  2  0
 15 16  1  0
 16 17  2  0
 18 19  2  0
 18 17  1  0
 20 19  1  0
 21 20  2  0
 22 21  1  0
 22 23  2  0
 23 18  1  0
  1 24  1  6
  2 25  1  0
  2 26  1  0
  3 27  1  0
  3 28  1  0
  4 29  1  0
  4 30  1  0
  5 31  1  6
  7 32  1  0
  8 33  1  0
 10 34  1  0
 12 35  1  0
 12 36  1  0
 13 37  1  0
 13 38  1  0
 15 39  1  0
 16 40  1  0
 17 41  1  0
 19 42  1  0
 20 43  1  0
 21 44  1  0
 22 45  1  0
M  ISO  8  24  13  25  13  26  13  27  13  28  13  29  13  30  13  31  13
M  ISO  8  32  14  33  14  34  14  35   8  36   8  37   8  38   8  39  14
M  ISO  6  40  14  41  14  42  14  43  14  44  14  45  14
M  END
>  <minimizedAffinity>  (1) 
-6.22842216

>  <minimizedRMSD>  (1) 
2.36460233

$$$$
