
     RDKit          3D

 35 38  0  0  0  0  0  0  0  0999 V2000
   44.9360   35.7720   44.1270 C   0  0  0  0  0  0  0  0  0  0  0  0
   45.6970   35.5710   42.9690 C   0  0  0  0  0  0  0  0  0  0  0  0
   46.6110   34.4950   42.9490 C   0  0  0  0  0  0  0  0  0  0  0  0
   46.7080   33.7130   44.0430 N   0  0  0  0  0  0  0  0  0  0  0  0
   45.9560   33.9330   45.1540 C   0  0  0  0  0  0  0  0  0  0  0  0
   45.0770   34.9570   45.1920 N   0  0  0  0  0  0  0  0  0  0  0  0
   46.0360   33.1280   46.3210 N   0  0  0  0  0  0  0  0  0  0  0  0
   46.9720   32.1810   46.4370 C   0  0  0  0  0  0  0  0  0  0  0  0
   46.9860   31.4400   47.6040 C   0  0  0  0  0  0  0  0  0  0  0  0
   46.0820   31.6490   48.6140 C   0  0  0  0  0  0  0  0  0  0  0  0
   46.0840   30.8930   49.8180 N   0  0  0  0  0  0  0  0  0  0  0  0
   45.1520   32.6200   48.4460 N   0  0  0  0  0  0  0  0  0  0  0  0
   45.1310   33.3560   47.3020 C   0  0  0  0  0  0  0  0  0  0  0  0
   44.2660   34.2720   47.1290 O   0  0  0  0  0  0  0  0  0  0  0  0
   47.9660   30.3720   47.8480 C   0  0  0  0  0  0  0  0  0  0  0  0
   48.0890   29.0360   47.4590 C   0  0  0  0  0  0  0  0  0  0  0  0
   49.2000   28.5300   47.9820 N   0  0  0  0  0  0  0  0  0  0  0  0
   49.8450   29.4800   48.7200 C   0  0  0  0  0  0  0  0  0  0  0  0
   51.0120   29.4860   49.4570 C   0  0  0  0  0  0  0  0  0  0  0  0
   51.4720   30.5940   50.1330 C   0  0  0  0  0  0  0  0  0  0  0  0
   50.7150   31.7440   50.0580 C   0  0  0  0  0  0  0  0  0  0  0  0
   49.5500   31.7460   49.3250 C   0  0  0  0  0  0  0  0  0  0  0  0
   49.0740   30.6230   48.6340 C   0  0  0  0  0  0  0  0  0  0  0  0
   44.2162   36.6028   44.1684 H   0  0  0  0  0  0  0  0  0  0  0  0
   45.5858   36.2337   42.0981 H   0  0  0  0  0  0  0  0  0  0  0  0
   47.2299   34.2992   42.0610 H   0  0  0  0  0  0  0  0  0  0  0  0
   47.7026   31.9984   45.6352 H   0  0  0  0  0  0  0  0  0  0  0  0
   45.3844   31.0865   50.5488 H   0  0  0  0  0  0  0  0  0  0  0  0
   46.7850   30.1517   49.9595 H   0  0  0  0  0  0  0  0  0  0  0  0
   47.3786   28.4899   46.8209 H   0  0  0  0  0  0  0  0  0  0  0  0
   49.5271   27.5623   47.8500 H   0  0  0  0  0  0  0  0  0  0  0  0
   51.6038   28.5601   49.5068 H   0  0  0  0  0  0  0  0  0  0  0  0
   52.4076   30.5628   50.7107 H   0  0  0  0  0  0  0  0  0  0  0  0
   51.0405   32.6552   50.5813 H   0  0  0  0  0  0  0  0  0  0  0  0
   48.9631   32.6752   49.2791 H   0  0  0  0  0  0  0  0  0  0  0  0
  1  6  2  0
  2  1  1  0
  3  2  2  0
  3  4  1  0
  4  5  2  0
  5  6  1  0
  5  7  1  0
  7  8  1  0
  7 13  1  0
  8  9  2  0
  9 15  1  0
  9 10  1  0
 10 11  1  0
 12 10  2  0
 13 12  1  0
 14 13  2  0
 15 23  1  0
 16 15  2  0
 16 17  1  0
 17 18  1  0
 18 19  2  0
 19 20  1  0
 21 20  2  0
 22 21  1  0
 23 18  1  0
 23 22  2  0
  1 24  1  0
  2 25  1  0
  3 26  1  0
  8 27  1  0
 11 28  1  0
 11 29  1  0
 16 30  1  0
 17 31  1  0
 19 32  1  0
 20 33  1  0
 21 34  1  0
 22 35  1  0
M  ISO  8  24  14  25  14  26  14  27  14  30  14  31   9  32  14  33  14
M  ISO  2  34  14  35  14
M  END
>  <minimizedAffinity>  (1) 
-6.50431013

>  <minimizedRMSD>  (1) 
0.748877585

$$$$
