
     RDKit          3D

 34 37  0  0  0  0  0  0  0  0999 V2000
   44.8040   35.8540   44.1610 C   0  0  0  0  0  0  0  0  0  0  0  0
   45.5550   35.6810   42.9880 C   0  0  0  0  0  0  0  0  0  0  0  0
   46.4950   34.6550   42.9220 C   0  0  0  0  0  0  0  0  0  0  0  0
   46.6280   33.8750   44.0130 N   0  0  0  0  0  0  0  0  0  0  0  0
   45.9030   34.0480   45.1390 C   0  0  0  0  0  0  0  0  0  0  0  0
   44.9900   35.0360   45.2160 N   0  0  0  0  0  0  0  0  0  0  0  0
   46.0270   33.2370   46.3050 N   0  0  0  0  0  0  0  0  0  0  0  0
   47.0180   32.3390   46.3800 C   0  0  0  0  0  0  0  0  0  0  0  0
   47.0800   31.5820   47.5440 C   0  0  0  0  0  0  0  0  0  0  0  0
   46.1840   31.7310   48.5720 C   0  0  0  0  0  0  0  0  0  0  0  0
   46.2930   30.9310   49.7420 N   0  0  0  0  0  0  0  0  0  0  0  0
   45.2120   32.6520   48.4310 N   0  0  0  0  0  0  0  0  0  0  0  0
   45.1270   33.4040   47.3080 C   0  0  0  0  0  0  0  0  0  0  0  0
   44.2240   34.2740   47.1530 O   0  0  0  0  0  0  0  0  0  0  0  0
   48.1530   30.6330   47.5870 N   0  0  0  0  0  0  0  0  0  0  0  0
   48.3670   29.6490   46.6680 C   0  0  0  0  0  0  0  0  0  0  0  0
   49.4600   28.9270   46.9990 N   0  0  0  0  0  0  0  0  0  0  0  0
   49.9730   29.4460   48.1520 C   0  0  0  0  0  0  0  0  0  0  0  0
   51.0660   29.0950   48.9140 C   0  0  0  0  0  0  0  0  0  0  0  0
   51.3330   29.8030   50.0260 N   0  0  0  0  0  0  0  0  0  0  0  0
   50.5080   30.8180   50.3270 C   0  0  0  0  0  0  0  0  0  0  0  0
   49.4350   31.1720   49.5890 N   0  0  0  0  0  0  0  0  0  0  0  0
   49.1330   30.4920   48.4710 C   0  0  0  0  0  0  0  0  0  0  0  0
   51.8380   27.9910   48.4540 N   0  0  0  0  0  0  0  0  0  0  0  0
   44.0595   36.6616   44.2197 H   0  0  0  0  0  0  0  0  0  0  0  0
   45.4026   36.3499   42.1281 H   0  0  0  0  0  0  0  0  0  0  0  0
   47.1017   34.4889   42.0196 H   0  0  0  0  0  0  0  0  0  0  0  0
   47.7439   32.2077   45.5640 H   0  0  0  0  0  0  0  0  0  0  0  0
   45.6171   31.0476   50.5104 H   0  0  0  0  0  0  0  0  0  0  0  0
   47.0479   30.2347   49.8213 H   0  0  0  0  0  0  0  0  0  0  0  0
   47.7392   29.4685   45.7830 H   0  0  0  0  0  0  0  0  0  0  0  0
   50.7206   31.4001   51.2358 H   0  0  0  0  0  0  0  0  0  0  0  0
   52.6661   27.6850   48.9846 H   0  0  0  0  0  0  0  0  0  0  0  0
   51.5685   27.4982   47.5906 H   0  0  0  0  0  0  0  0  0  0  0  0
  1  6  2  0
  2  1  1  0
  3  2  2  0
  3  4  1  0
  4  5  2  0
  5  6  1  0
  5  7  1  0
  7  8  1  0
  7 13  1  0
  8  9  2  0
  9 15  1  0
  9 10  1  0
 10 11  1  0
 12 10  2  0
 13 12  1  0
 14 13  2  0
 15 23  1  0
 16 17  2  0
 16 15  1  0
 17 18  1  0
 18 23  2  0
 18 19  1  0
 19 20  2  0
 20 21  1  0
 22 21  2  0
 23 22  1  0
 24 19  1  0
  1 25  1  0
  2 26  1  0
  3 27  1  0
  8 28  1  0
 11 29  1  0
 11 30  1  0
 16 31  1  0
 21 32  1  0
 24 33  1  0
 24 34  1  0
M  ISO  6  25  14  26  14  27  14  28  14  31  14  32  14
M  END
>  <minimizedAffinity>  (1) 
-6.25228882

>  <minimizedRMSD>  (1) 
1.08626187

$$$$
