
     RDKit          3D

 31 33  0  0  0  0  0  0  0  0999 V2000
   44.6420   35.9390   44.3720 C   0  0  0  0  0  0  0  0  0  0  0  0
   45.3070   35.8290   43.1430 C   0  0  0  0  0  0  0  0  0  0  0  0
   46.2310   34.8000   42.9660 C   0  0  0  0  0  0  0  0  0  0  0  0
   46.4410   33.9510   44.0040 N   0  0  0  0  0  0  0  0  0  0  0  0
   45.7910   34.0690   45.1850 C   0  0  0  0  0  0  0  0  0  0  0  0
   44.8950   35.0630   45.3640 N   0  0  0  0  0  0  0  0  0  0  0  0
   45.9940   33.1910   46.2860 N   0  0  0  0  0  0  0  0  0  0  0  0
   46.9570   32.2660   46.2420 C   0  0  0  0  0  0  0  0  0  0  0  0
   47.1020   31.4440   47.3460 C   0  0  0  0  0  0  0  0  0  0  0  0
   46.2990   31.5570   48.4530 C   0  0  0  0  0  0  0  0  0  0  0  0
   46.4480   30.7140   49.5860 N   0  0  0  0  0  0  0  0  0  0  0  0
   45.3540   32.5050   48.4330 N   0  0  0  0  0  0  0  0  0  0  0  0
   45.1880   33.3270   47.3650 C   0  0  0  0  0  0  0  0  0  0  0  0
   44.2910   34.2340   47.3340 O   0  0  0  0  0  0  0  0  0  0  0  0
   48.1560   30.4370   47.2850 C   0  0  0  0  0  0  0  0  0  0  0  0
   49.1720   30.3120   48.2100 C   0  0  0  0  0  0  0  0  0  0  0  0
   50.1560   29.3510   48.1270 C   0  0  0  0  0  0  0  0  0  0  0  0
   50.1420   28.4620   47.0740 C   0  0  0  0  0  0  0  0  0  0  0  0
   49.1410   28.5570   46.1300 C   0  0  0  0  0  0  0  0  0  0  0  0
   48.1600   29.5310   46.2310 C   0  0  0  0  0  0  0  0  0  0  0  0
   43.9096   36.7449   44.5275 H   0  0  0  0  0  0  0  0  0  0  0  0
   45.1032   36.5429   42.3313 H   0  0  0  0  0  0  0  0  0  0  0  0
   46.7723   34.6801   42.0159 H   0  0  0  0  0  0  0  0  0  0  0  0
   47.6093   32.1618   45.3625 H   0  0  0  0  0  0  0  0  0  0  0  0
   45.8259   30.8290   50.3988 H   0  0  0  0  0  0  0  0  0  0  0  0
   47.1781   29.9876   49.5949 H   0  0  0  0  0  0  0  0  0  0  0  0
   49.1978   31.0146   49.0560 H   0  0  0  0  0  0  0  0  0  0  0  0
   50.9438   29.2940   48.8926 H   0  0  0  0  0  0  0  0  0  0  0  0
   50.9183   27.6875   46.9876 H   0  0  0  0  0  0  0  0  0  0  0  0
   49.1209   27.8511   45.2866 H   0  0  0  0  0  0  0  0  0  0  0  0
   47.3725   29.5878   45.4651 H   0  0  0  0  0  0  0  0  0  0  0  0
  1  6  2  0
  2  1  1  0
  3  2  2  0
  3  4  1  0
  4  5  2  0
  5  6  1  0
  5  7  1  0
  7 13  1  0
  8  7  1  0
  8  9  2  0
  9 10  1  0
 10 11  1  0
 12 10  2  0
 13 12  1  0
 14 13  2  0
 15  9  1  0
 15 16  2  0
 17 16  1  0
 18 17  2  0
 19 20  2  0
 19 18  1  0
 20 15  1  0
  1 21  1  0
  2 22  1  0
  3 23  1  0
  8 24  1  0
 11 25  1  0
 11 26  1  0
 16 27  1  0
 17 28  1  0
 18 29  1  0
 19 30  1  0
 20 31  1  0
M  ISO  8  21  14  22  14  23  14  24  14  27  14  28  14  29  14  30  14
M  ISO  1  31  14
M  END
>  <minimizedAffinity>  (1) 
-5.84915352

>  <minimizedRMSD>  (1) 
0.292104155

$$$$
