
     RDKit          3D

 28 30  0  0  0  0  0  0  0  0999 V2000
   44.6560   35.9380   44.3800 C   0  0  0  0  0  0  0  0  0  0  0  0
   45.3240   35.8080   43.1340 C   0  0  0  0  0  0  0  0  0  0  0  0
   46.2330   34.7680   42.9600 C   0  0  0  0  0  0  0  0  0  0  0  0
   46.4400   33.9210   43.9950 N   0  0  0  0  0  0  0  0  0  0  0  0
   45.7910   34.0600   45.1810 C   0  0  0  0  0  0  0  0  0  0  0  0
   44.9080   35.0570   45.3760 N   0  0  0  0  0  0  0  0  0  0  0  0
   45.9950   33.1820   46.2760 N   0  0  0  0  0  0  0  0  0  0  0  0
   46.9510   32.2480   46.2450 C   0  0  0  0  0  0  0  0  0  0  0  0
   47.0810   31.4330   47.3560 C   0  0  0  0  0  0  0  0  0  0  0  0
   46.2910   31.5420   48.4640 C   0  0  0  0  0  0  0  0  0  0  0  0
   46.4330   30.7030   49.5980 N   0  0  0  0  0  0  0  0  0  0  0  0
   45.3550   32.4970   48.4320 N   0  0  0  0  0  0  0  0  0  0  0  0
   45.1900   33.3230   47.3580 C   0  0  0  0  0  0  0  0  0  0  0  0
   44.2920   34.2310   47.3400 O   0  0  0  0  0  0  0  0  0  0  0  0
   48.1370   30.4080   47.3070 C   0  0  0  0  0  0  0  0  0  0  0  0
   48.3750   29.3670   46.4040 C   0  0  0  0  0  0  0  0  0  0  0  0
   49.4730   28.6010   46.6850 C   0  0  0  0  0  0  0  0  0  0  0  0
   50.2460   28.8630   47.7640 C   0  0  0  0  0  0  0  0  0  0  0  0
   49.4560   30.2750   48.5130 S   0  0  0  0  0  0  0  0  0  0  0  0
   43.9346   36.7537   44.5357 H   0  0  0  0  0  0  0  0  0  0  0  0
   45.1262   36.5186   42.3180 H   0  0  0  0  0  0  0  0  0  0  0  0
   46.7681   34.6383   42.0077 H   0  0  0  0  0  0  0  0  0  0  0  0
   47.6085   32.1318   45.3708 H   0  0  0  0  0  0  0  0  0  0  0  0
   45.8115   30.8253   50.4102 H   0  0  0  0  0  0  0  0  0  0  0  0
   47.1577   29.9711   49.6097 H   0  0  0  0  0  0  0  0  0  0  0  0
   47.7286   29.1785   45.5341 H   0  0  0  0  0  0  0  0  0  0  0  0
   49.7311   27.7602   46.0244 H   0  0  0  0  0  0  0  0  0  0  0  0
   51.1483   28.3308   48.0997 H   0  0  0  0  0  0  0  0  0  0  0  0
  1  6  2  0
  2  1  1  0
  3  2  2  0
  3  4  1  0
  4  5  2  0
  5  6  1  0
  5  7  1  0
  7 13  1  0
  8  7  1  0
  8  9  2  0
  9 10  1  0
 10 11  1  0
 12 10  2  0
 13 12  1  0
 14 13  2  0
 15  9  1  0
 15 19  1  0
 16 17  1  0
 16 15  2  0
 17 18  2  0
 18 19  1  0
  1 20  1  0
  2 21  1  0
  3 22  1  0
  8 23  1  0
 11 24  1  0
 11 25  1  0
 16 26  1  0
 17 27  1  0
 18 28  1  0
M  ISO  7  20  14  21  14  22  14  23  14  26  14  27  14  28  14
M  END
>  <minimizedAffinity>  (1) 
-5.62589407

>  <minimizedRMSD>  (1) 
0.340168178

$$$$
