
     RDKit          3D

 36 37  0  0  1  0  0  0  0  0999 V2000
   47.8050   34.8670   41.1530 C   0  0  2  0  0  0  0  0  0  0  0  0
   48.9130   35.7160   41.5060 C   0  0  0  0  0  0  0  0  0  0  0  0
   49.8770   34.8800   42.3620 C   0  0  0  0  0  0  0  0  0  0  0  0
   49.3310   33.4710   42.4250 C   0  0  0  0  0  0  0  0  0  0  0  0
   47.8920   33.6880   42.1560 C   0  0  1  0  0  0  0  0  0  0  0  0
   47.7750   34.2410   39.8170 C   0  0  0  0  0  0  0  0  0  0  0  0
   48.5400   34.7850   38.7910 C   0  0  0  0  0  0  0  0  0  0  0  0
   48.5450   34.2160   37.5320 C   0  0  0  0  0  0  0  0  0  0  0  0
   47.7620   33.1060   37.3730 N   0  0  0  0  0  0  0  0  0  0  0  0
   47.0240   32.5870   38.3770 C   0  0  0  0  0  0  0  0  0  0  0  0
   47.0270   33.1500   39.6000 N   0  0  0  0  0  0  0  0  0  0  0  0
   47.1750   34.0760   43.4160 C   0  0  0  0  0  0  0  0  0  0  0  0
   45.7140   34.3140   43.1160 C   0  0  0  0  0  0  0  0  0  0  0  0
   44.9130   34.3430   44.3010 N   0  0  0  0  0  0  0  0  0  0  0  0
   44.6150   35.4710   45.1070 C   0  0  0  0  0  0  0  0  0  0  0  0
   44.6170   36.5700   44.3810 N   0  0  0  0  0  0  0  0  0  0  0  0
   44.3540   35.4170   46.5060 N   0  0  0  0  0  0  0  0  0  0  0  0
   44.4060   37.4450   44.8960 H   0  0  0  0  0  0  0  0  0  0  0  0
   46.9204   35.5206   41.1675 H   0  0  0  0  0  0  0  0  0  0  0  0
   49.4239   36.0652   40.5966 H   0  0  0  0  0  0  0  0  0  0  0  0
   48.5646   36.5985   42.0626 H   0  0  0  0  0  0  0  0  0  0  0  0
   50.8768   34.8743   41.9033 H   0  0  0  0  0  0  0  0  0  0  0  0
   49.9632   35.3056   43.3727 H   0  0  0  0  0  0  0  0  0  0  0  0
   49.7891   32.8299   41.6575 H   0  0  0  0  0  0  0  0  0  0  0  0
   49.5325   32.9588   43.3774 H   0  0  0  0  0  0  0  0  0  0  0  0
   47.4308   32.7703   41.7622 H   0  0  0  0  0  0  0  0  0  0  0  0
   49.1492   35.6802   38.9844 H   0  0  0  0  0  0  0  0  0  0  0  0
   49.1428   34.6308   36.7071 H   0  0  0  0  0  0  0  0  0  0  0  0
   46.4117   31.6918   38.1935 H   0  0  0  0  0  0  0  0  0  0  0  0
   47.2697   33.2667   44.1549 H   0  0  0  0  0  0  0  0  0  0  0  0
   47.6195   34.9977   43.8197 H   0  0  0  0  0  0  0  0  0  0  0  0
   45.6122   35.2784   42.5968 H   0  0  0  0  0  0  0  0  0  0  0  0
   45.3593   33.4812   42.4910 H   0  0  0  0  0  0  0  0  0  0  0  0
   44.5079   33.4451   44.6021 H   0  0  0  0  0  0  0  0  0  0  0  0
   44.1445   36.2819   47.0246 H   0  0  0  0  0  0  0  0  0  0  0  0
   44.3747   34.5130   46.9992 H   0  0  0  0  0  0  0  0  0  0  0  0
  1  2  1  0
  1  5  1  0
  2  3  1  0
  3  4  1  0
  5  4  1  0
  5 12  1  0
  6  1  1  0
  7  6  2  0
  8  7  1  0
  9  8  2  0
  9 10  1  0
 10 11  2  0
 11  6  1  0
 13 12  1  0
 13 14  1  0
 14 15  1  0
 15 17  1  0
 16 18  1  0
 16 15  2  0
  1 19  1  1
  2 20  1  0
  2 21  1  0
  3 22  1  0
  3 23  1  0
  4 24  1  0
  4 25  1  0
  5 26  1  6
  7 27  1  0
  8 28  1  0
 10 29  1  0
 12 30  1  0
 12 31  1  0
 13 32  1  0
 13 33  1  0
 14 34  1  0
 17 35  1  0
 17 36  1  0
M  ISO  8  19  13  20  13  21  13  22  13  23  13  24  13  25  13  26  13
M  ISO  7  27  14  28  14  29  14  30   8  31   8  32   8  33   8
M  END
>  <minimizedAffinity>  (1) 
-5.98955822

>  <minimizedRMSD>  (1) 
2.16093135

$$$$
