
     RDKit          3D

 33 34  0  0  0  0  0  0  0  0999 V2000
   44.7270   35.9210   44.2970 C   0  0  0  0  0  0  0  0  0  0  0  0
   45.2690   35.6860   43.0060 C   0  0  0  0  0  0  0  0  0  0  0  0
   46.0350   34.5260   42.7840 C   0  0  0  0  0  0  0  0  0  0  0  0
   46.2150   33.6840   43.8290 N   0  0  0  0  0  0  0  0  0  0  0  0
   45.6870   33.9310   45.0470 C   0  0  0  0  0  0  0  0  0  0  0  0
   44.9600   35.0250   45.2770 N   0  0  0  0  0  0  0  0  0  0  0  0
   45.8690   33.0500   46.1640 N   0  0  0  0  0  0  0  0  0  0  0  0
   46.7010   32.0060   46.0760 C   0  0  0  0  0  0  0  0  0  0  0  0
   46.8380   31.1910   47.1790 C   0  0  0  0  0  0  0  0  0  0  0  0
   46.1500   31.4320   48.3390 C   0  0  0  0  0  0  0  0  0  0  0  0
   46.2670   30.6150   49.4910 N   0  0  0  0  0  0  0  0  0  0  0  0
   45.3340   32.4900   48.3660 N   0  0  0  0  0  0  0  0  0  0  0  0
   45.1680   33.3160   47.3080 C   0  0  0  0  0  0  0  0  0  0  0  0
   44.4080   34.3200   47.3050 O   0  0  0  0  0  0  0  0  0  0  0  0
   47.7540   30.0480   47.0680 C   0  0  0  0  0  0  0  0  0  0  0  0
   48.3440   29.9210   45.6790 C   0  0  0  0  0  0  0  0  0  0  0  0
   47.0850   28.7150   47.3400 C   0  0  0  0  0  0  0  0  0  0  0  0
   48.9130   30.1410   48.0400 C   0  0  0  0  0  0  0  0  0  0  0  0
   44.1259   36.8208   44.4947 H   0  0  0  0  0  0  0  0  0  0  0  0
   45.0926   36.4015   42.1893 H   0  0  0  0  0  0  0  0  0  0  0  0
   46.4715   34.3114   41.7974 H   0  0  0  0  0  0  0  0  0  0  0  0
   47.2596   31.8039   45.1502 H   0  0  0  0  0  0  0  0  0  0  0  0
   45.7272   30.8399   50.3389 H   0  0  0  0  0  0  0  0  0  0  0  0
   46.8919   29.7963   49.4804 H   0  0  0  0  0  0  0  0  0  0  0  0
   49.4167   29.6901   45.7560 H   0  0  0  0  0  0  0  0  0  0  0  0
   47.8329   29.1123   45.1361 H   0  0  0  0  0  0  0  0  0  0  0  0
   48.2109   30.8684   45.1361 H   0  0  0  0  0  0  0  0  0  0  0  0
   47.0067   28.5589   48.4260 H   0  0  0  0  0  0  0  0  0  0  0  0
   46.0787   28.7123   46.8957 H   0  0  0  0  0  0  0  0  0  0  0  0
   47.6842   27.9066   46.8957 H   0  0  0  0  0  0  0  0  0  0  0  0
   48.5304   30.1103   49.0709 H   0  0  0  0  0  0  0  0  0  0  0  0
   49.5968   29.2948   47.8773 H   0  0  0  0  0  0  0  0  0  0  0  0
   49.4531   31.0854   47.8773 H   0  0  0  0  0  0  0  0  0  0  0  0
  1  6  2  0
  2  1  1  0
  3  2  2  0
  3  4  1  0
  4  5  2  0
  5  6  1  0
  5  7  1  0
  7 13  1  0
  8  7  1  0
  8  9  2  0
  9 10  1  0
 10 12  2  0
 10 11  1  0
 13 12  1  0
 14 13  2  0
 15  9  1  0
 15 17  1  0
 15 18  1  0
 16 15  1  0
  1 19  1  0
  2 20  1  0
  3 21  1  0
  8 22  1  0
 11 23  1  0
 11 24  1  0
 16 25  1  0
 16 26  1  0
 16 27  1  0
 17 28  1  0
 17 29  1  0
 17 30  1  0
 18 31  1  0
 18 32  1  0
 18 33  1  0
M  ISO  8  19  14  20  14  21  14  22  14  25   8  26   8  27   8  28   8
M  ISO  5  29   8  30   8  31   8  32   8  33   8
M  END
>  <minimizedAffinity>  (1) 
-5.43086767

>  <minimizedRMSD>  (1) 
0.721348643

$$$$
