
     RDKit          3D

 24 25  0  0  0  0  0  0  0  0999 V2000
   44.7410   35.9290   44.3080 C   0  0  0  0  0  0  0  0  0  0  0  0
   45.3550   35.7420   43.0600 C   0  0  0  0  0  0  0  0  0  0  0  0
   46.1960   34.6390   42.8860 C   0  0  0  0  0  0  0  0  0  0  0  0
   46.3820   33.7980   43.9320 N   0  0  0  0  0  0  0  0  0  0  0  0
   45.7820   33.9950   45.1280 C   0  0  0  0  0  0  0  0  0  0  0  0
   44.9680   35.0530   45.3110 N   0  0  0  0  0  0  0  0  0  0  0  0
   45.9460   33.1430   46.2510 N   0  0  0  0  0  0  0  0  0  0  0  0
   46.8670   32.1630   46.2260 C   0  0  0  0  0  0  0  0  0  0  0  0
   46.9690   31.3750   47.3550 C   0  0  0  0  0  0  0  0  0  0  0  0
   46.1870   31.5490   48.4690 C   0  0  0  0  0  0  0  0  0  0  0  0
   46.2910   30.7420   49.6250 N   0  0  0  0  0  0  0  0  0  0  0  0
   45.2810   32.5480   48.4360 N   0  0  0  0  0  0  0  0  0  0  0  0
   45.1520   33.3490   47.3350 C   0  0  0  0  0  0  0  0  0  0  0  0
   44.3060   34.2920   47.2860 O   0  0  0  0  0  0  0  0  0  0  0  0
   47.9600   30.3040   47.3560 C   0  0  0  0  0  0  0  0  0  0  0  0
   48.4190   29.8190   46.2890 O   0  0  0  0  0  0  0  0  0  0  0  0
   48.4550   29.7580   48.5330 O   0  0  0  0  0  0  0  0  0  0  0  0
   44.0747   36.7892   44.4695 H   0  0  0  0  0  0  0  0  0  0  0  0
   45.1782   36.4487   42.2358 H   0  0  0  0  0  0  0  0  0  0  0  0
   46.6950   34.4581   41.9226 H   0  0  0  0  0  0  0  0  0  0  0  0
   47.5084   31.9973   45.3478 H   0  0  0  0  0  0  0  0  0  0  0  0
   45.6772   30.9184   50.4331 H   0  0  0  0  0  0  0  0  0  0  0  0
   46.9806   29.9776   49.6591 H   0  0  0  0  0  0  0  0  0  0  0  0
   49.1271   29.0320   48.4976 H   0  0  0  0  0  0  0  0  0  0  0  0
  1  6  2  0
  2  1  1  0
  3  2  2  0
  3  4  1  0
  4  5  2  0
  5  6  1  0
  5  7  1  0
  7 13  1  0
  8  7  1  0
  8  9  2  0
  9 15  1  0
  9 10  1  0
 10 11  1  0
 12 10  2  0
 13 12  1  0
 14 13  2  0
 15 17  1  0
 16 15  2  0
  1 18  1  0
  2 19  1  0
  3 20  1  0
  8 21  1  0
 11 22  1  0
 11 23  1  0
 17 24  1  0
M  ISO  5  18  14  19  14  20  14  21  14  24   3
M  END
>  <minimizedAffinity>  (1) 
-5.39460182

>  <minimizedRMSD>  (1) 
0.379004627

$$$$
