
     RDKit          3D

 24 25  0  0  0  0  0  0  0  0999 V2000
   44.6030   35.8930   44.4150 C   0  0  0  0  0  0  0  0  0  0  0  0
   45.1870   35.7660   43.1470 C   0  0  0  0  0  0  0  0  0  0  0  0
   46.0790   34.7110   42.9020 C   0  0  0  0  0  0  0  0  0  0  0  0
   46.3210   33.8680   43.9260 N   0  0  0  0  0  0  0  0  0  0  0  0
   45.7580   33.9940   45.1400 C   0  0  0  0  0  0  0  0  0  0  0  0
   44.8970   35.0070   45.3890 N   0  0  0  0  0  0  0  0  0  0  0  0
   46.0040   33.1150   46.2260 N   0  0  0  0  0  0  0  0  0  0  0  0
   46.9460   32.1650   46.1340 C   0  0  0  0  0  0  0  0  0  0  0  0
   47.1400   31.3410   47.2210 C   0  0  0  0  0  0  0  0  0  0  0  0
   46.3930   31.4770   48.3820 C   0  0  0  0  0  0  0  0  0  0  0  0
   46.6010   30.6200   49.5000 N   0  0  0  0  0  0  0  0  0  0  0  0
   45.4520   32.4550   48.4250 N   0  0  0  0  0  0  0  0  0  0  0  0
   45.2630   33.2630   47.3580 C   0  0  0  0  0  0  0  0  0  0  0  0
   44.3870   34.1850   47.3750 O   0  0  0  0  0  0  0  0  0  0  0  0
   48.1840   30.2750   47.1410 C   0  0  0  0  0  0  0  0  0  0  0  0
   43.9031   36.7173   44.6164 H   0  0  0  0  0  0  0  0  0  0  0  0
   44.9481   36.4869   42.3513 H   0  0  0  0  0  0  0  0  0  0  0  0
   46.5582   34.5780   41.9208 H   0  0  0  0  0  0  0  0  0  0  0  0
   47.5452   32.0473   45.2191 H   0  0  0  0  0  0  0  0  0  0  0  0
   46.0349   30.7387   50.3523 H   0  0  0  0  0  0  0  0  0  0  0  0
   47.3175   29.8814   49.4564 H   0  0  0  0  0  0  0  0  0  0  0  0
   48.4790   29.9737   48.1570 H   0  0  0  0  0  0  0  0  0  0  0  0
   47.7791   29.4048   46.6036 H   0  0  0  0  0  0  0  0  0  0  0  0
   49.0624   30.6617   46.6036 H   0  0  0  0  0  0  0  0  0  0  0  0
  1  6  2  0
  2  1  1  0
  3  2  2  0
  3  4  1  0
  4  5  2  0
  5  6  1  0
  5  7  1  0
  7 13  1  0
  8  7  1  0
  8  9  2  0
  9 10  1  0
 10 12  2  0
 10 11  1  0
 13 14  2  0
 13 12  1  0
 15  9  1  0
  1 16  1  0
  2 17  1  0
  3 18  1  0
  8 19  1  0
 11 20  1  0
 11 21  1  0
 15 22  1  0
 15 23  1  0
 15 24  1  0
M  ISO  7  16  14  17  14  18  14  19  14  22   8  23   8  24   8
M  END
>  <minimizedAffinity>  (1) 
-5.38558626

>  <minimizedRMSD>  (1) 
0.147863016

$$$$
