
     RDKit          3D

 22 23  0  0  0  0  0  0  0  0999 V2000
   44.6490   35.9260   44.4120 C   0  0  0  0  0  0  0  0  0  0  0  0
   45.1890   35.7740   43.1290 C   0  0  0  0  0  0  0  0  0  0  0  0
   46.0200   34.6840   42.8770 C   0  0  0  0  0  0  0  0  0  0  0  0
   46.2550   33.8340   43.9000 N   0  0  0  0  0  0  0  0  0  0  0  0
   45.7340   33.9880   45.1280 C   0  0  0  0  0  0  0  0  0  0  0  0
   44.9340   35.0260   45.3880 N   0  0  0  0  0  0  0  0  0  0  0  0
   45.9680   33.1040   46.2210 N   0  0  0  0  0  0  0  0  0  0  0  0
   46.9050   32.1360   46.0990 C   0  0  0  0  0  0  0  0  0  0  0  0
   47.0910   31.3050   47.1950 C   0  0  0  0  0  0  0  0  0  0  0  0
   46.3560   31.4550   48.3580 C   0  0  0  0  0  0  0  0  0  0  0  0
   46.5600   30.5950   49.4650 N   0  0  0  0  0  0  0  0  0  0  0  0
   45.4340   32.4420   48.4140 N   0  0  0  0  0  0  0  0  0  0  0  0
   45.2330   33.2660   47.3590 C   0  0  0  0  0  0  0  0  0  0  0  0
   44.3790   34.2000   47.3770 O   0  0  0  0  0  0  0  0  0  0  0  0
   48.3270   30.0290   47.0350 S   0  0  0  0  0  0  0  0  0  0  0  0
   43.9902   36.7794   44.6305 H   0  0  0  0  0  0  0  0  0  0  0  0
   44.9617   36.5009   42.3353 H   0  0  0  0  0  0  0  0  0  0  0  0
   46.4666   34.5224   41.8848 H   0  0  0  0  0  0  0  0  0  0  0  0
   47.4910   32.0134   45.1762 H   0  0  0  0  0  0  0  0  0  0  0  0
   46.0047   30.7199   50.3234 H   0  0  0  0  0  0  0  0  0  0  0  0
   47.2637   29.8447   49.4115 H   0  0  0  0  0  0  0  0  0  0  0  0
   48.7241   29.6191   48.2805 H   0  0  0  0  0  0  0  0  0  0  0  0
  1  6  2  0
  2  1  1  0
  3  2  2  0
  3  4  1  0
  4  5  2  0
  5  6  1  0
  5  7  1  0
  7 13  1  0
  8  7  1  0
  8  9  2  0
  9 10  1  0
 10 12  2  0
 10 11  1  0
 13 14  2  0
 13 12  1  0
 15  9  1  0
  1 16  1  0
  2 17  1  0
  3 18  1  0
  8 19  1  0
 11 20  1  0
 11 21  1  0
 15 22  1  0
M  ISO  5  16  14  17  14  18  14  19  14  22  11
M  END
>  <minimizedAffinity>  (1) 
-5.21857882

>  <minimizedRMSD>  (1) 
0.191018671

$$$$
