
     RDKit          3D

 46 49  0  0  1  0  0  0  0  0999 V2000
   44.6720   36.0370   44.3600 C   0  0  0  0  0  0  0  0  0  0  0  0
   45.1750   35.8300   43.0670 C   0  0  0  0  0  0  0  0  0  0  0  0
   45.9310   34.6880   42.8040 C   0  0  0  0  0  0  0  0  0  0  0  0
   46.1450   33.8230   43.8250 N   0  0  0  0  0  0  0  0  0  0  0  0
   45.6560   34.0340   45.0640 C   0  0  0  0  0  0  0  0  0  0  0  0
   44.9250   35.1320   45.3290 N   0  0  0  0  0  0  0  0  0  0  0  0
   45.8630   33.1410   46.1530 N   0  0  0  0  0  0  0  0  0  0  0  0
   46.7140   32.1270   46.0530 C   0  0  0  0  0  0  0  0  0  0  0  0
   46.8760   31.2890   47.1230 C   0  0  0  0  0  0  0  0  0  0  0  0
   46.1780   31.4830   48.2840 C   0  0  0  0  0  0  0  0  0  0  0  0
   46.3330   30.6750   49.4350 N   0  0  0  0  0  0  0  0  0  0  0  0
   45.3090   32.5320   48.3610 N   0  0  0  0  0  0  0  0  0  0  0  0
   45.1500   33.3660   47.2900 C   0  0  0  0  0  0  0  0  0  0  0  0
   44.3560   34.3470   47.3200 O   0  0  0  0  0  0  0  0  0  0  0  0
   47.7580   30.1060   47.1040 C   0  0  1  0  0  0  0  0  0  0  0  0
   48.8140   30.1700   48.1770 C   0  0  0  0  0  0  0  0  0  0  0  0
   46.9510   28.8700   47.2670 C   0  0  0  0  0  0  0  0  0  0  0  0
   45.9580   28.4750   46.3130 C   0  0  0  0  0  0  0  0  0  0  0  0
   45.6790   28.7380   45.0030 C   0  0  0  0  0  0  0  0  0  0  0  0
   44.6440   28.2540   44.2340 C   0  0  0  0  0  0  0  0  0  0  0  0
   43.7860   27.3990   44.8480 C   0  0  0  0  0  0  0  0  0  0  0  0
   43.9660   27.0550   46.1680 C   0  0  0  0  0  0  0  0  0  0  0  0
   43.0420   26.1710   46.6750 C   0  0  0  0  0  0  0  0  0  0  0  0
   43.1530   25.7590   47.9800 C   0  0  0  0  0  0  0  0  0  0  0  0
   44.1840   26.2400   48.7480 C   0  0  0  0  0  0  0  0  0  0  0  0
   45.0680   27.1180   48.1770 C   0  0  0  0  0  0  0  0  0  0  0  0
   45.0260   27.5830   46.8680 C   0  0  0  0  0  0  0  0  0  0  0  0
   44.0740   36.9329   44.5833 H   0  0  0  0  0  0  0  0  0  0  0  0
   44.9753   36.5605   42.2692 H   0  0  0  0  0  0  0  0  0  0  0  0
   46.3400   34.4958   41.8011 H   0  0  0  0  0  0  0  0  0  0  0  0
   47.2803   31.9628   45.1244 H   0  0  0  0  0  0  0  0  0  0  0  0
   45.7783   30.8711   50.2804 H   0  0  0  0  0  0  0  0  0  0  0  0
   47.0006   29.8906   49.4275 H   0  0  0  0  0  0  0  0  0  0  0  0
   48.2711   30.0922   46.1311 H   0  0  0  0  0  0  0  0  0  0  0  0
   48.3338   30.1409   49.1662 H   0  0  0  0  0  0  0  0  0  0  0  0
   49.4939   29.3114   48.0740 H   0  0  0  0  0  0  0  0  0  0  0  0
   49.3852   31.1044   48.0740 H   0  0  0  0  0  0  0  0  0  0  0  0
   47.6699   28.0393   47.3234 H   0  0  0  0  0  0  0  0  0  0  0  0
   46.3383   29.1115   48.1480 H   0  0  0  0  0  0  0  0  0  0  0  0
   46.3709   29.4261   44.4954 H   0  0  0  0  0  0  0  0  0  0  0  0
   44.5192   28.5441   43.1803 H   0  0  0  0  0  0  0  0  0  0  0  0
   42.9399   26.9779   44.2852 H   0  0  0  0  0  0  0  0  0  0  0  0
   42.2233   25.7983   46.0419 H   0  0  0  0  0  0  0  0  0  0  0  0
   42.4249   25.0523   48.4047 H   0  0  0  0  0  0  0  0  0  0  0  0
   44.2980   25.9282   49.7967 H   0  0  0  0  0  0  0  0  0  0  0  0
   45.8855   27.4885   48.8129 H   0  0  0  0  0  0  0  0  0  0  0  0
  1  6  2  0
  2  1  1  0
  3  2  2  0
  3  4  1  0
  4  5  2  0
  5  6  1  0
  5  7  1  0
  7 13  1  0
  8  7  1  0
  8  9  2  0
  9 10  1  0
 10 12  2  0
 10 11  1  0
 13 14  2  0
 13 12  1  0
 15  9  1  0
 15 17  1  0
 15 16  1  0
 18 27  1  0
 18 17  1  0
 19 18  2  0
 20 21  2  0
 20 19  1  0
 21 22  1  0
 22 23  1  0
 22 27  2  0
 23 24  2  0
 24 25  1  0
 26 25  2  0
 27 26  1  0
  1 28  1  0
  2 29  1  0
  3 30  1  0
  8 31  1  0
 11 32  1  0
 11 33  1  0
 15 34  1  6
 16 35  1  0
 16 36  1  0
 16 37  1  0
 17 38  1  0
 17 39  1  0
 19 40  1  0
 20 41  1  0
 21 42  1  0
 23 43  1  0
 24 44  1  0
 25 45  1  0
 26 46  1  0
M  ISO  8  28  14  29  14  30  14  31  14  34   8  35   8  36   8  37   8
M  ISO  8  38   8  39   8  40  14  41  14  42  14  43  14  44  14  45  14
M  ISO  1  46  14
M  END
>  <minimizedAffinity>  (1) 
-6.66726589

>  <minimizedRMSD>  (1) 
0.932715654

$$$$
