
     RDKit          3D

 44 47  0  0  1  0  0  0  0  0999 V2000
   48.0010   30.1590   47.2570 C   0  0  1  0  0  0  0  0  0  0  0  0
   44.6340   35.9050   44.4150 C   0  0  0  0  0  0  0  0  0  0  0  0
   45.1970   35.7430   43.1410 C   0  0  0  0  0  0  0  0  0  0  0  0
   46.0480   34.6520   42.9020 C   0  0  0  0  0  0  0  0  0  0  0  0
   46.2850   33.7980   43.9270 N   0  0  0  0  0  0  0  0  0  0  0  0
   45.7310   33.9720   45.1520 C   0  0  0  0  0  0  0  0  0  0  0  0
   44.9160   35.0170   45.3810 N   0  0  0  0  0  0  0  0  0  0  0  0
   45.9570   33.0920   46.2410 N   0  0  0  0  0  0  0  0  0  0  0  0
   46.8580   32.1120   46.1540 C   0  0  0  0  0  0  0  0  0  0  0  0
   47.0200   31.2910   47.2480 C   0  0  0  0  0  0  0  0  0  0  0  0
   46.2980   31.4520   48.3870 C   0  0  0  0  0  0  0  0  0  0  0  0
   46.4550   30.6340   49.5290 N   0  0  0  0  0  0  0  0  0  0  0  0
   45.3900   32.4620   48.4320 N   0  0  0  0  0  0  0  0  0  0  0  0
   45.2150   33.2850   47.3640 C   0  0  0  0  0  0  0  0  0  0  0  0
   44.3830   34.2290   47.3830 O   0  0  0  0  0  0  0  0  0  0  0  0
   49.1620   30.4230   48.1500 C   0  0  0  0  0  0  0  0  0  0  0  0
   47.2720   28.9240   47.6820 C   0  0  0  0  0  0  0  0  0  0  0  0
   46.4290   28.3120   46.6270 C   0  0  0  0  0  0  0  0  0  0  0  0
   46.7790   28.5940   45.3370 N   0  0  0  0  0  0  0  0  0  0  0  0
   46.1210   28.0910   44.2780 C   0  0  0  0  0  0  0  0  0  0  0  0
   45.0650   27.2690   44.4300 N   0  0  0  0  0  0  0  0  0  0  0  0
   44.6850   26.9640   45.6800 C   0  0  0  0  0  0  0  0  0  0  0  0
   43.6070   26.1320   45.9060 C   0  0  0  0  0  0  0  0  0  0  0  0
   43.2340   25.8420   47.2230 C   0  0  0  0  0  0  0  0  0  0  0  0
   43.9180   26.3670   48.2970 C   0  0  0  0  0  0  0  0  0  0  0  0
   44.9910   27.1950   48.0610 C   0  0  0  0  0  0  0  0  0  0  0  0
   45.3480   27.4720   46.7780 C   0  0  0  0  0  0  0  0  0  0  0  0
   48.4178   30.0354   46.2465 H   0  0  0  0  0  0  0  0  0  0  0  0
   43.9658   36.7541   44.6212 H   0  0  0  0  0  0  0  0  0  0  0  0
   44.9747   36.4618   42.3386 H   0  0  0  0  0  0  0  0  0  0  0  0
   46.5073   34.4957   41.9148 H   0  0  0  0  0  0  0  0  0  0  0  0
   47.4514   31.9646   45.2396 H   0  0  0  0  0  0  0  0  0  0  0  0
   45.8792   30.8025   50.3662 H   0  0  0  0  0  0  0  0  0  0  0  0
   47.1452   29.8695   49.5239 H   0  0  0  0  0  0  0  0  0  0  0  0
   48.8413   30.3501   49.1997 H   0  0  0  0  0  0  0  0  0  0  0  0
   49.9506   29.6812   47.9552 H   0  0  0  0  0  0  0  0  0  0  0  0
   49.5523   31.4328   47.9552 H   0  0  0  0  0  0  0  0  0  0  0  0
   48.0157   28.1794   48.0021 H   0  0  0  0  0  0  0  0  0  0  0  0
   46.5898   29.2267   48.4901 H   0  0  0  0  0  0  0  0  0  0  0  0
   46.4529   28.3570   43.2636 H   0  0  0  0  0  0  0  0  0  0  0  0
   43.0483   25.7024   45.0614 H   0  0  0  0  0  0  0  0  0  0  0  0
   42.3748   25.1796   47.4048 H   0  0  0  0  0  0  0  0  0  0  0  0
   43.6115   26.1283   49.3261 H   0  0  0  0  0  0  0  0  0  0  0  0
   45.5541   27.6283   48.9007 H   0  0  0  0  0  0  0  0  0  0  0  0
  1 17  1  0
  1 16  1  0
  2  7  2  0
  3  2  1  0
  4  3  2  0
  4  5  1  0
  5  6  2  0
  6  7  1  0
  6  8  1  0
  8 14  1  0
  9  8  1  0
  9 10  2  0
 10  1  1  0
 10 11  1  0
 11 13  2  0
 11 12  1  0
 14 15  2  0
 14 13  1  0
 18 27  1  0
 18 17  1  0
 19 18  2  0
 20 21  2  0
 20 19  1  0
 21 22  1  0
 22 23  1  0
 22 27  2  0
 23 24  2  0
 24 25  1  0
 26 25  2  0
 27 26  1  0
  1 28  1  6
  2 29  1  0
  3 30  1  0
  4 31  1  0
  9 32  1  0
 12 33  1  0
 12 34  1  0
 16 35  1  0
 16 36  1  0
 16 37  1  0
 17 38  1  0
 17 39  1  0
 20 40  1  0
 23 41  1  0
 24 42  1  0
 25 43  1  0
 26 44  1  0
M  ISO  8  28   8  29  14  30  14  31  14  32  14  35   8  36   8  37   8
M  ISO  7  38   8  39   8  40  14  41  14  42  14  43  14  44  14
M  END
>  <minimizedAffinity>  (1) 
-6.21336794

>  <minimizedRMSD>  (1) 
1.24630582

$$$$
