
     RDKit          3D

 39 41  0  0  1  0  0  0  0  0999 V2000
   44.6600   35.9870   44.3360 C   0  0  0  0  0  0  0  0  0  0  0  0
   45.2380   35.8000   43.0610 C   0  0  0  0  0  0  0  0  0  0  0  0
   46.0500   34.6920   42.8480 C   0  0  0  0  0  0  0  0  0  0  0  0
   46.2490   33.8430   43.8840 N   0  0  0  0  0  0  0  0  0  0  0  0
   45.6940   34.0330   45.0930 C   0  0  0  0  0  0  0  0  0  0  0  0
   44.8970   35.1050   45.3250 N   0  0  0  0  0  0  0  0  0  0  0  0
   45.8890   33.1660   46.2050 N   0  0  0  0  0  0  0  0  0  0  0  0
   46.7760   32.1610   46.1270 C   0  0  0  0  0  0  0  0  0  0  0  0
   46.9360   31.3650   47.2460 C   0  0  0  0  0  0  0  0  0  0  0  0
   46.2280   31.5820   48.3860 C   0  0  0  0  0  0  0  0  0  0  0  0
   46.3930   30.7850   49.5440 N   0  0  0  0  0  0  0  0  0  0  0  0
   45.3410   32.6060   48.4250 N   0  0  0  0  0  0  0  0  0  0  0  0
   45.1680   33.4020   47.3340 C   0  0  0  0  0  0  0  0  0  0  0  0
   44.3580   34.3590   47.3240 O   0  0  0  0  0  0  0  0  0  0  0  0
   47.8690   30.2110   47.2660 C   0  0  1  0  0  0  0  0  0  0  0  0
   48.9760   30.3730   48.2420 C   0  0  0  0  0  0  0  0  0  0  0  0
   47.0430   28.9720   47.5640 C   0  0  0  0  0  0  0  0  0  0  0  0
   46.0610   28.7490   46.4660 C   0  0  0  0  0  0  0  0  0  0  0  0
   44.6910   28.6990   46.7110 C   0  0  0  0  0  0  0  0  0  0  0  0
   43.7210   28.4980   45.7600 C   0  0  0  0  0  0  0  0  0  0  0  0
   44.1810   28.3380   44.4690 C   0  0  0  0  0  0  0  0  0  0  0  0
   45.5380   28.3900   44.2460 C   0  0  0  0  0  0  0  0  0  0  0  0
   46.4710   28.5880   45.1960 N   0  0  0  0  0  0  0  0  0  0  0  0
   44.0133   36.8572   44.5217 H   0  0  0  0  0  0  0  0  0  0  0  0
   45.0488   36.5189   42.2502 H   0  0  0  0  0  0  0  0  0  0  0  0
   46.5164   34.5105   41.8684 H   0  0  0  0  0  0  0  0  0  0  0  0
   47.3529   31.9781   45.2085 H   0  0  0  0  0  0  0  0  0  0  0  0
   45.8370   30.9821   50.3884 H   0  0  0  0  0  0  0  0  0  0  0  0
   47.0691   30.0079   49.5423 H   0  0  0  0  0  0  0  0  0  0  0  0
   48.3660   30.1286   46.2881 H   0  0  0  0  0  0  0  0  0  0  0  0
   48.5748   30.3143   49.2645 H   0  0  0  0  0  0  0  0  0  0  0  0
   49.7167   29.5737   48.0923 H   0  0  0  0  0  0  0  0  0  0  0  0
   49.4566   31.3510   48.0923 H   0  0  0  0  0  0  0  0  0  0  0  0
   47.7079   28.0993   47.6431 H   0  0  0  0  0  0  0  0  0  0  0  0
   46.5041   29.1121   48.5127 H   0  0  0  0  0  0  0  0  0  0  0  0
   44.3588   28.8313   47.7512 H   0  0  0  0  0  0  0  0  0  0  0  0
   42.6503   28.4667   46.0103 H   0  0  0  0  0  0  0  0  0  0  0  0
   43.4797   28.1728   43.6378 H   0  0  0  0  0  0  0  0  0  0  0  0
   45.8874   28.2597   43.2111 H   0  0  0  0  0  0  0  0  0  0  0  0
  1  6  2  0
  2  1  1  0
  3  2  2  0
  3  4  1  0
  4  5  2  0
  5  6  1  0
  5  7  1  0
  7 13  1  0
  8  7  1  0
  8  9  2  0
  9 15  1  0
  9 10  1  0
 10 12  2  0
 10 11  1  0
 13 12  1  0
 14 13  2  0
 15 17  1  0
 15 16  1  0
 18 19  2  0
 18 17  1  0
 20 19  1  0
 21 20  2  0
 22 21  1  0
 22 23  2  0
 23 18  1  0
  1 24  1  0
  2 25  1  0
  3 26  1  0
  8 27  1  0
 11 28  1  0
 11 29  1  0
 15 30  1  6
 16 31  1  0
 16 32  1  0
 16 33  1  0
 17 34  1  0
 17 35  1  0
 19 36  1  0
 20 37  1  0
 21 38  1  0
 22 39  1  0
M  ISO  8  24  14  25  14  26  14  27  14  30   8  31   8  32   8  33   8
M  ISO  6  34   8  35   8  36  14  37  14  38  14  39  14
M  END
>  <minimizedAffinity>  (1) 
-5.70753193

>  <minimizedRMSD>  (1) 
0.577064335

$$$$
