
     RDKit          3D

 37 38  0  0  1  0  0  0  0  0999 V2000
   44.6110   35.8730   44.4200 C   0  0  0  0  0  0  0  0  0  0  0  0
   45.2210   35.7400   43.1590 C   0  0  0  0  0  0  0  0  0  0  0  0
   46.1260   34.7080   42.9560 C   0  0  0  0  0  0  0  0  0  0  0  0
   46.3750   33.8760   43.9940 N   0  0  0  0  0  0  0  0  0  0  0  0
   45.7830   34.0130   45.1970 C   0  0  0  0  0  0  0  0  0  0  0  0
   44.8980   35.0150   45.4120 N   0  0  0  0  0  0  0  0  0  0  0  0
   46.0270   33.1550   46.3040 N   0  0  0  0  0  0  0  0  0  0  0  0
   47.0170   32.2460   46.2450 C   0  0  0  0  0  0  0  0  0  0  0  0
   47.2040   31.4470   47.3550 C   0  0  0  0  0  0  0  0  0  0  0  0
   46.4300   31.5610   48.4690 C   0  0  0  0  0  0  0  0  0  0  0  0
   46.6200   30.7660   49.6260 N   0  0  0  0  0  0  0  0  0  0  0  0
   45.4380   32.4940   48.4870 N   0  0  0  0  0  0  0  0  0  0  0  0
   45.2340   33.2950   47.4020 C   0  0  0  0  0  0  0  0  0  0  0  0
   44.3310   34.1700   47.3740 O   0  0  0  0  0  0  0  0  0  0  0  0
   48.2440   30.4000   47.4100 C   0  0  1  0  0  0  0  0  0  0  0  0
   49.2660   30.6290   48.4560 C   0  0  0  0  0  0  0  0  0  0  0  0
   47.5620   29.0620   47.6250 C   0  0  0  0  0  0  0  0  0  0  0  0
   46.4940   28.8580   46.6540 N   0  0  0  0  0  0  0  0  0  0  0  0
   45.3650   28.2470   47.2620 C   0  0  0  0  0  0  0  0  0  0  0  0
   44.9550   28.1280   48.4760 N   0  0  0  0  0  0  0  0  0  0  0  0
   44.3670   27.5710   46.4650 N   0  0  0  0  0  0  0  0  0  0  0  0
   45.5430   28.5560   49.2190 H   0  0  0  0  0  0  0  0  0  0  0  0
   43.8924   36.6874   44.5946 H   0  0  0  0  0  0  0  0  0  0  0  0
   44.9841   36.4431   42.3469 H   0  0  0  0  0  0  0  0  0  0  0  0
   46.6240   34.5708   41.9848 H   0  0  0  0  0  0  0  0  0  0  0  0
   47.6499   32.1439   45.3511 H   0  0  0  0  0  0  0  0  0  0  0  0
   46.0063   30.8916   50.4436 H   0  0  0  0  0  0  0  0  0  0  0  0
   47.3718   30.0624   49.6496 H   0  0  0  0  0  0  0  0  0  0  0  0
   48.7895   30.4215   46.4550 H   0  0  0  0  0  0  0  0  0  0  0  0
   48.8040   30.5255   49.4489 H   0  0  0  0  0  0  0  0  0  0  0  0
   50.0731   29.8894   48.3482 H   0  0  0  0  0  0  0  0  0  0  0  0
   49.6803   31.6423   48.3482 H   0  0  0  0  0  0  0  0  0  0  0  0
   48.3049   28.2581   47.5168 H   0  0  0  0  0  0  0  0  0  0  0  0
   47.1250   29.0496   48.6344 H   0  0  0  0  0  0  0  0  0  0  0  0
   46.5505   29.1217   45.6599 H   0  0  0  0  0  0  0  0  0  0  0  0
   43.5540   27.1328   46.9210 H   0  0  0  0  0  0  0  0  0  0  0  0
   44.4687   27.5273   45.4410 H   0  0  0  0  0  0  0  0  0  0  0  0
  1  6  2  0
  2  1  1  0
  3  2  2  0
  3  4  1  0
  4  5  2  0
  5  6  1  0
  5  7  1  0
  7 13  1  0
  8  7  1  0
  8  9  2  0
  9 15  1  0
  9 10  1  0
 10 12  2  0
 10 11  1  0
 13 12  1  0
 14 13  2  0
 15 17  1  0
 15 16  1  0
 18 19  1  0
 18 17  1  0
 19 20  2  0
 20 22  1  0
 21 19  1  0
  1 23  1  0
  2 24  1  0
  3 25  1  0
  8 26  1  0
 11 27  1  0
 11 28  1  0
 15 29  1  6
 16 30  1  0
 16 31  1  0
 16 32  1  0
 17 33  1  0
 17 34  1  0
 18 35  1  0
 21 36  1  0
 21 37  1  0
M  ISO  8  23  14  24  14  25  14  26  14  29   8  30   8  31   8  32   8
M  ISO  2  33   8  34   8
M  END
>  <minimizedAffinity>  (1) 
-5.68768072

>  <minimizedRMSD>  (1) 
0.559755027

$$$$
