
     RDKit          3D

 43 45  0  0  1  0  0  0  0  0999 V2000
   44.6590   35.9550   44.3060 C   0  0  0  0  0  0  0  0  0  0  0  0
   45.2570   35.7710   43.0510 C   0  0  0  0  0  0  0  0  0  0  0  0
   46.1160   34.6730   42.8510 C   0  0  0  0  0  0  0  0  0  0  0  0
   46.3140   33.8510   43.9020 N   0  0  0  0  0  0  0  0  0  0  0  0
   45.7320   34.0390   45.1060 C   0  0  0  0  0  0  0  0  0  0  0  0
   44.9090   35.0870   45.3050 N   0  0  0  0  0  0  0  0  0  0  0  0
   45.9310   33.1740   46.2180 N   0  0  0  0  0  0  0  0  0  0  0  0
   46.8240   32.1850   46.1530 C   0  0  0  0  0  0  0  0  0  0  0  0
   46.9590   31.3790   47.2700 C   0  0  0  0  0  0  0  0  0  0  0  0
   46.2220   31.5700   48.3950 C   0  0  0  0  0  0  0  0  0  0  0  0
   46.3490   30.7670   49.5540 N   0  0  0  0  0  0  0  0  0  0  0  0
   45.3200   32.5920   48.4210 N   0  0  0  0  0  0  0  0  0  0  0  0
   45.1730   33.3980   47.3290 C   0  0  0  0  0  0  0  0  0  0  0  0
   44.3510   34.3540   47.3110 O   0  0  0  0  0  0  0  0  0  0  0  0
   47.9080   30.2420   47.3090 C   0  0  1  0  0  0  0  0  0  0  0  0
   48.9370   30.3720   48.3750 C   0  0  0  0  0  0  0  0  0  0  0  0
   47.1170   28.9750   47.5160 C   0  0  0  0  0  0  0  0  0  0  0  0
   46.1500   28.6740   46.4060 C   0  0  0  0  0  0  0  0  0  0  0  0
   44.7830   28.4610   47.0250 C   0  0  0  0  0  0  0  0  0  0  0  0
   44.0020   27.7030   45.9950 C   0  0  0  0  0  0  0  0  0  0  0  0
   45.0200   26.8060   45.3700 C   0  0  0  0  0  0  0  0  0  0  0  0
   46.3980   27.3790   45.7020 C   0  0  0  0  0  0  0  0  0  0  0  0
   43.9857   36.8084   44.4745 H   0  0  0  0  0  0  0  0  0  0  0  0
   45.0573   36.4769   42.2313 H   0  0  0  0  0  0  0  0  0  0  0  0
   46.6035   34.4938   41.8814 H   0  0  0  0  0  0  0  0  0  0  0  0
   47.4280   32.0171   45.2491 H   0  0  0  0  0  0  0  0  0  0  0  0
   45.7633   30.9578   50.3795 H   0  0  0  0  0  0  0  0  0  0  0  0
   47.0271   29.9919   49.5718 H   0  0  0  0  0  0  0  0  0  0  0  0
   48.4540   30.2251   46.3542 H   0  0  0  0  0  0  0  0  0  0  0  0
   48.4532   30.3109   49.3610 H   0  0  0  0  0  0  0  0  0  0  0  0
   49.6720   29.5596   48.2762 H   0  0  0  0  0  0  0  0  0  0  0  0
   49.4468   31.3417   48.2762 H   0  0  0  0  0  0  0  0  0  0  0  0
   47.8228   28.1353   47.5979 H   0  0  0  0  0  0  0  0  0  0  0  0
   46.5211   29.1158   48.4298 H   0  0  0  0  0  0  0  0  0  0  0  0
   46.2462   29.5138   45.7021 H   0  0  0  0  0  0  0  0  0  0  0  0
   44.8662   27.8770   47.9535 H   0  0  0  0  0  0  0  0  0  0  0  0
   44.2988   29.4119   47.2921 H   0  0  0  0  0  0  0  0  0  0  0  0
   43.1982   27.1171   46.4647 H   0  0  0  0  0  0  0  0  0  0  0  0
   43.5072   28.3607   45.2652 H   0  0  0  0  0  0  0  0  0  0  0  0
   44.8773   26.7773   44.2797 H   0  0  0  0  0  0  0  0  0  0  0  0
   44.9226   25.7800   45.7545 H   0  0  0  0  0  0  0  0  0  0  0  0
   46.9510   26.6887   46.3560 H   0  0  0  0  0  0  0  0  0  0  0  0
   47.0020   27.5244   44.7942 H   0  0  0  0  0  0  0  0  0  0  0  0
  1  6  2  0
  2  1  1  0
  3  2  2  0
  3  4  1  0
  4  5  2  0
  5  6  1  0
  5  7  1  0
  7 13  1  0
  8  7  1  0
  8  9  2  0
  9 15  1  0
  9 10  1  0
 10 12  2  0
 10 11  1  0
 13 12  1  0
 14 13  2  0
 15 17  1  0
 15 16  1  0
 18 19  1  0
 18 17  1  0
 20 19  1  0
 21 22  1  0
 21 20  1  0
 22 18  1  0
  1 23  1  0
  2 24  1  0
  3 25  1  0
  8 26  1  0
 11 27  1  0
 11 28  1  0
 15 29  1  6
 16 30  1  0
 16 31  1  0
 16 32  1  0
 17 33  1  0
 17 34  1  0
 18 35  1  0
 19 36  1  0
 19 37  1  0
 20 38  1  0
 20 39  1  0
 21 40  1  0
 21 41  1  0
 22 42  1  0
 22 43  1  0
M  ISO  8  23  14  24  14  25  14  26  14  29   8  30   8  31   8  32   8
M  ISO  8  33   8  34   8  35  13  36  13  37  13  38  13  39  13  40  13
M  ISO  3  41  13  42  13  43  13
M  END
>  <minimizedAffinity>  (1) 
-5.62513113

>  <minimizedRMSD>  (1) 
0.706622839

$$$$
