
     RDKit          3D

 46 49  0  0  0  0  0  0  0  0999 V2000
   46.6060   34.6680   42.1390 C   0  0  0  0  0  0  0  0  0  0  0  0
   47.7910   35.3380   41.9610 C   0  0  0  0  0  0  0  0  0  0  0  0
   48.5320   35.2230   40.7810 C   0  0  0  0  0  0  0  0  0  0  0  0
   48.0470   34.3970   39.7480 C   0  0  0  0  0  0  0  0  0  0  0  0
   46.8460   33.7250   39.9420 C   0  0  0  0  0  0  0  0  0  0  0  0
   46.1530   33.8760   41.1300 C   0  0  0  0  0  0  0  0  0  0  0  0
   44.9270   33.1720   41.2900 N   0  0  0  0  0  0  0  0  0  0  0  0
   44.7560   31.9330   41.8300 C   0  0  0  0  0  0  0  0  0  0  0  0
   43.5100   31.3910   41.9130 C   0  0  0  0  0  0  0  0  0  0  0  0
   42.4130   32.0660   41.4630 C   0  0  0  0  0  0  0  0  0  0  0  0
   41.2510   31.5560   41.5440 O   0  0  0  0  0  0  0  0  0  0  0  0
   42.6090   33.3160   40.9210 N   0  0  0  0  0  0  0  0  0  0  0  0
   43.8230   33.8440   40.8400 C   0  0  0  0  0  0  0  0  0  0  0  0
   43.8920   34.9950   40.3260 O   0  0  0  0  0  0  0  0  0  0  0  0
   41.4310   34.0360   40.4400 C   0  0  0  0  0  0  0  0  0  0  0  0
   40.3190   34.0410   41.4590 C   0  0  0  0  0  0  0  0  0  0  0  0
   39.0390   33.6750   40.7220 C   0  0  0  0  0  0  0  0  0  0  0  0
   38.8670   34.6480   39.5880 C   0  0  0  0  0  0  0  0  0  0  0  0
   39.9330   34.3770   38.5660 C   0  0  0  0  0  0  0  0  0  0  0  0
   40.9890   33.4430   39.1220 C   0  0  0  0  0  0  0  0  0  0  0  0
   44.4290   35.9790   44.9260 C   0  0  0  0  0  0  0  0  0  0  0  0
   45.0440   35.8970   43.6760 C   0  0  0  0  0  0  0  0  0  0  0  0
   45.9090   34.8550   43.4040 C   0  0  0  0  0  0  0  0  0  0  0  0
   46.1390   33.9290   44.3800 N   0  0  0  0  0  0  0  0  0  0  0  0
   45.5240   34.0330   45.5940 C   0  0  0  0  0  0  0  0  0  0  0  0
   44.6930   35.0260   45.8670 N   0  0  0  0  0  0  0  0  0  0  0  0
   48.1677   35.9828   42.7687 H   0  0  0  0  0  0  0  0  0  0  0  0
   49.4793   35.7692   40.6610 H   0  0  0  0  0  0  0  0  0  0  0  0
   48.6070   34.2862   38.8077 H   0  0  0  0  0  0  0  0  0  0  0  0
   46.4464   33.0732   39.1511 H   0  0  0  0  0  0  0  0  0  0  0  0
   45.6258   31.3699   42.1994 H   0  0  0  0  0  0  0  0  0  0  0  0
   43.3852   30.3898   42.3512 H   0  0  0  0  0  0  0  0  0  0  0  0
   41.6990   35.0910   40.2814 H   0  0  0  0  0  0  0  0  0  0  0  0
   40.5256   33.3021   42.2473 H   0  0  0  0  0  0  0  0  0  0  0  0
   40.2286   35.0277   41.9368 H   0  0  0  0  0  0  0  0  0  0  0  0
   39.1139   32.6507   40.3281 H   0  0  0  0  0  0  0  0  0  0  0  0
   38.1765   33.7225   41.4031 H   0  0  0  0  0  0  0  0  0  0  0  0
   37.8741   34.5167   39.1331 H   0  0  0  0  0  0  0  0  0  0  0  0
   38.9523   35.6800   39.9590 H   0  0  0  0  0  0  0  0  0  0  0  0
   40.4073   35.3272   38.2794 H   0  0  0  0  0  0  0  0  0  0  0  0
   39.4679   33.9007   37.6903 H   0  0  0  0  0  0  0  0  0  0  0  0
   40.5654   32.4400   39.2789 H   0  0  0  0  0  0  0  0  0  0  0  0
   41.8355   33.3391   38.4273 H   0  0  0  0  0  0  0  0  0  0  0  0
   43.7375   36.8044   45.1511 H   0  0  0  0  0  0  0  0  0  0  0  0
   44.8406   36.6596   42.9098 H   0  0  0  0  0  0  0  0  0  0  0  0
   45.7239   33.2732   46.3639 H   0  0  0  0  0  0  0  0  0  0  0  0
  1 23  1  0
  2  1  2  0
  3  2  1  0
  4  5  1  0
  4  3  2  0
  5  6  2  0
  6  7  1  0
  6  1  1  0
  7  8  1  0
  8  9  2  0
 10 11  2  0
 10  9  1  0
 12 10  1  0
 13 12  1  0
 13  7  1  0
 14 13  2  0
 15 12  1  0
 15 16  1  0
 17 16  1  0
 18 17  1  0
 19 20  1  0
 19 18  1  0
 20 15  1  0
 21 26  2  0
 22 21  1  0
 23 22  2  0
 23 24  1  0
 24 25  2  0
 25 26  1  0
  2 27  1  0
  3 28  1  0
  4 29  1  0
  5 30  1  0
  8 31  1  0
  9 32  1  0
 15 33  1  0
 16 34  1  0
 16 35  1  0
 17 36  1  0
 17 37  1  0
 18 38  1  0
 18 39  1  0
 19 40  1  0
 19 41  1  0
 20 42  1  0
 20 43  1  0
 21 44  1  0
 22 45  1  0
 25 46  1  0
M  ISO  8  27  14  28  14  29  14  30  14  31  14  32  14  33  13  34  13
M  ISO  8  35  13  36  13  37  13  38  13  39  13  40  13  41  13  42  13
M  ISO  4  43  13  44  14  45  14  46  14
M  END
>  <minimizedAffinity>  (1) 
-7.54959345

>  <minimizedRMSD>  (1) 
0.75408113

$$$$
