
     RDKit          3D

 41 45  0  0  0  0  0  0  0  0999 V2000
   44.9980   33.0330   41.3850 N   0  0  0  0  0  0  0  0  0  0  0  0
   44.8660   31.8350   41.9980 C   0  0  0  0  0  0  0  0  0  0  0  0
   43.6220   31.2540   42.1090 C   0  0  0  0  0  0  0  0  0  0  0  0
   42.4920   31.8730   41.6010 C   0  0  0  0  0  0  0  0  0  0  0  0
   41.3780   31.2980   41.7300 O   0  0  0  0  0  0  0  0  0  0  0  0
   42.6690   33.0850   40.9870 N   0  0  0  0  0  0  0  0  0  0  0  0
   43.8840   33.6380   40.8860 C   0  0  0  0  0  0  0  0  0  0  0  0
   43.8880   34.7590   40.2920 O   0  0  0  0  0  0  0  0  0  0  0  0
   46.6240   34.6310   42.1700 C   0  0  0  0  0  0  0  0  0  0  0  0
   47.7810   35.3250   41.9490 C   0  0  0  0  0  0  0  0  0  0  0  0
   48.5300   35.1890   40.7840 C   0  0  0  0  0  0  0  0  0  0  0  0
   48.0700   34.2980   39.7910 C   0  0  0  0  0  0  0  0  0  0  0  0
   46.8890   33.5860   40.0080 C   0  0  0  0  0  0  0  0  0  0  0  0
   46.1920   33.7640   41.1860 C   0  0  0  0  0  0  0  0  0  0  0  0
   44.4370   36.0120   44.9130 C   0  0  0  0  0  0  0  0  0  0  0  0
   45.0580   35.8970   43.6740 C   0  0  0  0  0  0  0  0  0  0  0  0
   45.9220   34.8500   43.4250 C   0  0  0  0  0  0  0  0  0  0  0  0
   46.1410   33.9450   44.4230 N   0  0  0  0  0  0  0  0  0  0  0  0
   45.5220   34.0770   45.6320 C   0  0  0  0  0  0  0  0  0  0  0  0
   44.6880   35.0850   45.8770 N   0  0  0  0  0  0  0  0  0  0  0  0
   39.1960   33.4520   37.9050 N   0  0  0  0  0  0  0  0  0  0  0  0
   40.0300   32.4380   37.5740 C   0  0  0  0  0  0  0  0  0  0  0  0
   41.0250   32.3770   38.5060 N   0  0  0  0  0  0  0  0  0  0  0  0
   40.7490   33.3520   39.3570 C   0  0  0  0  0  0  0  0  0  0  0  0
   41.4790   33.6840   40.4790 C   0  0  0  0  0  0  0  0  0  0  0  0
   41.0360   34.7260   41.2400 N   0  0  0  0  0  0  0  0  0  0  0  0
   39.9210   35.4070   40.9020 C   0  0  0  0  0  0  0  0  0  0  0  0
   39.2040   35.0850   39.8050 N   0  0  0  0  0  0  0  0  0  0  0  0
   39.6210   34.0540   39.0320 C   0  0  0  0  0  0  0  0  0  0  0  0
   45.7506   31.3252   42.4074 H   0  0  0  0  0  0  0  0  0  0  0  0
   43.5242   30.2799   42.6106 H   0  0  0  0  0  0  0  0  0  0  0  0
   48.1348   36.0201   42.7247 H   0  0  0  0  0  0  0  0  0  0  0  0
   49.4579   35.7620   40.6407 H   0  0  0  0  0  0  0  0  0  0  0  0
   48.6355   34.1660   38.8568 H   0  0  0  0  0  0  0  0  0  0  0  0
   46.5161   32.8872   39.2447 H   0  0  0  0  0  0  0  0  0  0  0  0
   43.7481   36.8461   45.1123 H   0  0  0  0  0  0  0  0  0  0  0  0
   44.8600   36.6428   42.8901 H   0  0  0  0  0  0  0  0  0  0  0  0
   45.7163   33.3350   46.4204 H   0  0  0  0  0  0  0  0  0  0  0  0
   38.3577   33.7236   37.3718 H   0  0  0  0  0  0  0  0  0  0  0  0
   39.9236   31.7759   36.7020 H   0  0  0  0  0  0  0  0  0  0  0  0
   39.5892   36.2433   41.5349 H   0  0  0  0  0  0  0  0  0  0  0  0
  1  2  1  0
  2  3  2  0
  4  5  2  0
  4  3  1  0
  6  4  1  0
  7  6  1  0
  7  1  1  0
  8  7  2  0
  9 17  1  0
 10  9  2  0
 11 10  1  0
 12 13  1  0
 12 11  2  0
 13 14  2  0
 14  1  1  0
 14  9  1  0
 15 20  2  0
 16 15  1  0
 17 16  2  0
 17 18  1  0
 18 19  2  0
 19 20  1  0
 21 29  1  0
 22 21  1  0
 22 23  2  0
 23 24  1  0
 24 25  1  0
 25  6  1  0
 25 26  2  0
 27 26  1  0
 28 27  2  0
 29 24  2  0
 29 28  1  0
  2 30  1  0
  3 31  1  0
 10 32  1  0
 11 33  1  0
 12 34  1  0
 13 35  1  0
 15 36  1  0
 16 37  1  0
 19 38  1  0
 21 39  1  0
 22 40  1  0
 27 41  1  0
M  ISO  8  30  14  31  14  32  14  33  14  34  14  35  14  36  14  37  14
M  ISO  4  38  14  39   9  40  14  41  14
M  END
>  <minimizedAffinity>  (1) 
-7.27707577

>  <minimizedRMSD>  (1) 
1.10264802

$$$$
