
     RDKit          3D

 37 40  0  0  0  0  0  0  0  0999 V2000
   46.5370   34.6420   42.1190 C   0  0  0  0  0  0  0  0  0  0  0  0
   47.7620   35.2250   41.9380 C   0  0  0  0  0  0  0  0  0  0  0  0
   48.4820   35.0770   40.7500 C   0  0  0  0  0  0  0  0  0  0  0  0
   47.9360   34.3130   39.7190 C   0  0  0  0  0  0  0  0  0  0  0  0
   46.6910   33.7150   39.8930 C   0  0  0  0  0  0  0  0  0  0  0  0
   46.0200   33.8940   41.0900 C   0  0  0  0  0  0  0  0  0  0  0  0
   44.7570   33.2810   41.2520 N   0  0  0  0  0  0  0  0  0  0  0  0
   44.5110   32.0410   41.7570 C   0  0  0  0  0  0  0  0  0  0  0  0
   43.2190   31.5930   41.8470 C   0  0  0  0  0  0  0  0  0  0  0  0
   42.1510   32.3580   41.4420 C   0  0  0  0  0  0  0  0  0  0  0  0
   40.9770   31.8970   41.5460 O   0  0  0  0  0  0  0  0  0  0  0  0
   42.4420   33.6050   40.9370 N   0  0  0  0  0  0  0  0  0  0  0  0
   43.7040   34.0280   40.8550 C   0  0  0  0  0  0  0  0  0  0  0  0
   43.8190   35.1960   40.3690 O   0  0  0  0  0  0  0  0  0  0  0  0
   41.2920   34.3890   40.5170 C   0  0  0  0  0  0  0  0  0  0  0  0
   40.9830   35.5860   41.4440 C   0  0  0  0  0  0  0  0  0  0  0  0
   40.0400   34.4480   41.2710 C   0  0  0  0  0  0  0  0  0  0  0  0
   44.4430   36.0310   44.9340 C   0  0  0  0  0  0  0  0  0  0  0  0
   45.0400   35.9290   43.6680 C   0  0  0  0  0  0  0  0  0  0  0  0
   45.8660   34.8520   43.3880 C   0  0  0  0  0  0  0  0  0  0  0  0
   46.0670   33.9280   44.3630 N   0  0  0  0  0  0  0  0  0  0  0  0
   45.4750   34.0500   45.5840 C   0  0  0  0  0  0  0  0  0  0  0  0
   44.6800   35.0770   45.8680 N   0  0  0  0  0  0  0  0  0  0  0  0
   48.1921   35.8276   42.7516 H   0  0  0  0  0  0  0  0  0  0  0  0
   49.4649   35.5559   40.6296 H   0  0  0  0  0  0  0  0  0  0  0  0
   48.4853   34.1838   38.7748 H   0  0  0  0  0  0  0  0  0  0  0  0
   46.2467   33.1085   39.0900 H   0  0  0  0  0  0  0  0  0  0  0  0
   45.3431   31.4034   42.0903 H   0  0  0  0  0  0  0  0  0  0  0  0
   43.0306   30.5895   42.2563 H   0  0  0  0  0  0  0  0  0  0  0  0
   41.4922   34.1806   39.4556 H   0  0  0  0  0  0  0  0  0  0  0  0
   41.5323   35.7149   42.3883 H   0  0  0  0  0  0  0  0  0  0  0  0
   40.9325   36.6794   41.3347 H   0  0  0  0  0  0  0  0  0  0  0  0
   39.0926   34.6070   40.7351 H   0  0  0  0  0  0  0  0  0  0  0  0
   39.5432   33.7610   41.9718 H   0  0  0  0  0  0  0  0  0  0  0  0
   43.7855   36.8814   45.1676 H   0  0  0  0  0  0  0  0  0  0  0  0
   44.8537   36.6980   42.9038 H   0  0  0  0  0  0  0  0  0  0  0  0
   45.6586   33.2829   46.3507 H   0  0  0  0  0  0  0  0  0  0  0  0
  1 20  1  0
  2  1  2  0
  3  2  1  0
  4  5  1  0
  4  3  2  0
  5  6  2  0
  6  7  1  0
  6  1  1  0
  7  8  1  0
  8  9  2  0
 10 11  2  0
 10  9  1  0
 12 10  1  0
 13 12  1  0
 13  7  1  0
 14 13  2  0
 15 12  1  0
 15 17  1  0
 15 16  1  0
 17 16  1  0
 18 23  2  0
 19 18  1  0
 20 19  2  0
 20 21  1  0
 21 22  2  0
 22 23  1  0
  2 24  1  0
  3 25  1  0
  4 26  1  0
  5 27  1  0
  8 28  1  0
  9 29  1  0
 15 30  1  0
 16 31  1  0
 16 32  1  0
 17 33  1  0
 17 34  1  0
 18 35  1  0
 19 36  1  0
 22 37  1  0
M  ISO  8  24  14  25  14  26  14  27  14  28  14  29  14  30  13  31  13
M  ISO  6  32  13  33  13  34  13  35  14  36  14  37  14
M  END
>  <minimizedAffinity>  (1) 
-6.59123087

>  <minimizedRMSD>  (1) 
0.398072243

$$$$
