
     RDKit          3D

 53 58  0  0  0  0  0  0  0  0999 V2000
   46.5730   34.7170   42.1810 C   0  0  0  0  0  0  0  0  0  0  0  0
   47.7670   35.3390   42.0130 C   0  0  0  0  0  0  0  0  0  0  0  0
   48.5220   35.1870   40.8340 C   0  0  0  0  0  0  0  0  0  0  0  0
   48.0110   34.3660   39.8130 C   0  0  0  0  0  0  0  0  0  0  0  0
   46.7860   33.7280   39.9820 C   0  0  0  0  0  0  0  0  0  0  0  0
   46.1050   33.9220   41.1600 C   0  0  0  0  0  0  0  0  0  0  0  0
   44.8490   33.2560   41.3180 N   0  0  0  0  0  0  0  0  0  0  0  0
   44.6370   31.9980   41.7810 C   0  0  0  0  0  0  0  0  0  0  0  0
   43.3610   31.5090   41.8700 C   0  0  0  0  0  0  0  0  0  0  0  0
   42.2770   32.2640   41.5010 C   0  0  0  0  0  0  0  0  0  0  0  0
   41.1130   31.7760   41.6000 O   0  0  0  0  0  0  0  0  0  0  0  0
   42.5240   33.5220   41.0420 N   0  0  0  0  0  0  0  0  0  0  0  0
   43.7650   34.0000   40.9550 C   0  0  0  0  0  0  0  0  0  0  0  0
   43.8610   35.1850   40.5100 O   0  0  0  0  0  0  0  0  0  0  0  0
   41.3720   34.2830   40.6690 C   0  0  0  0  0  0  0  0  0  0  0  0
   41.3120   35.6240   41.0040 C   0  0  0  0  0  0  0  0  0  0  0  0
   40.0980   36.1290   40.5290 C   0  0  0  0  0  0  0  0  0  0  0  0
   39.4690   35.0770   39.9240 N   0  0  0  0  0  0  0  0  0  0  0  0
   40.2290   34.0080   40.0160 N   0  0  0  0  0  0  0  0  0  0  0  0
   44.4380   36.0760   44.9680 C   0  0  0  0  0  0  0  0  0  0  0  0
   45.0530   35.9860   43.7260 C   0  0  0  0  0  0  0  0  0  0  0  0
   45.8680   34.9360   43.4350 C   0  0  0  0  0  0  0  0  0  0  0  0
   46.0430   33.9860   44.4250 N   0  0  0  0  0  0  0  0  0  0  0  0
   45.4380   34.0800   45.6360 C   0  0  0  0  0  0  0  0  0  0  0  0
   44.6510   35.1210   45.8820 N   0  0  0  0  0  0  0  0  0  0  0  0
   45.7970   32.9430   46.4800 C   0  0  0  0  0  0  0  0  0  0  0  0
   45.3570   32.8310   47.7760 C   0  0  0  0  0  0  0  0  0  0  0  0
   45.6710   31.7710   48.6170 C   0  0  0  0  0  0  0  0  0  0  0  0
   46.4600   30.7560   48.1750 C   0  0  0  0  0  0  0  0  0  0  0  0
   46.9240   30.8170   46.8980 C   0  0  0  0  0  0  0  0  0  0  0  0
   47.7260   29.7890   46.4450 C   0  0  0  0  0  0  0  0  0  0  0  0
   48.2320   29.7760   45.1780 C   0  0  0  0  0  0  0  0  0  0  0  0
   47.9030   30.8520   44.3480 C   0  0  0  0  0  0  0  0  0  0  0  0
   47.1010   31.8580   44.8370 C   0  0  0  0  0  0  0  0  0  0  0  0
   46.5870   31.8810   46.1110 C   0  0  0  0  0  0  0  0  0  0  0  0
   48.1556   35.9789   42.8190 H   0  0  0  0  0  0  0  0  0  0  0  0
   49.4886   35.6984   40.7145 H   0  0  0  0  0  0  0  0  0  0  0  0
   48.5793   34.2282   38.8813 H   0  0  0  0  0  0  0  0  0  0  0  0
   46.3726   33.0839   39.1919 H   0  0  0  0  0  0  0  0  0  0  0  0
   45.4891   31.3720   42.0844 H   0  0  0  0  0  0  0  0  0  0  0  0
   43.2018   30.4876   42.2459 H   0  0  0  0  0  0  0  0  0  0  0  0
   42.0820   36.1915   41.5471 H   0  0  0  0  0  0  0  0  0  0  0  0
   39.7259   37.1599   40.6228 H   0  0  0  0  0  0  0  0  0  0  0  0
   38.5461   35.1156   39.4683 H   0  0  0  0  0  0  0  0  0  0  0  0
   43.7800   36.9266   45.1994 H   0  0  0  0  0  0  0  0  0  0  0  0
   44.8801   36.7687   42.9726 H   0  0  0  0  0  0  0  0  0  0  0  0
   44.7153   33.6313   48.1733 H   0  0  0  0  0  0  0  0  0  0  0  0
   45.2796   31.7528   49.6449 H   0  0  0  0  0  0  0  0  0  0  0  0
   46.7155   29.9105   48.8307 H   0  0  0  0  0  0  0  0  0  0  0  0
   47.9638   28.9572   47.1243 H   0  0  0  0  0  0  0  0  0  0  0  0
   48.8716   28.9539   44.8245 H   0  0  0  0  0  0  0  0  0  0  0  0
   48.2809   30.8940   43.3158 H   0  0  0  0  0  0  0  0  0  0  0  0
   46.8565   32.6951   44.1666 H   0  0  0  0  0  0  0  0  0  0  0  0
  1 22  1  0
  2  1  2  0
  3  2  1  0
  4  5  1  0
  4  3  2  0
  5  6  2  0
  6  7  1  0
  6  1  1  0
  7  8  1  0
  8  9  2  0
 10 11  2  0
 10  9  1  0
 12 10  1  0
 13 12  1  0
 13  7  1  0
 14 13  2  0
 15 16  1  0
 15 12  1  0
 17 16  2  0
 18 19  1  0
 18 17  1  0
 19 15  2  0
 20 25  2  0
 21 20  1  0
 22 21  2  0
 22 23  1  0
 23 24  2  0
 24 25  1  0
 24 26  1  0
 26 27  2  0
 27 28  1  0
 29 28  2  0
 30 29  1  0
 31 30  2  0
 32 31  1  0
 33 34  1  0
 33 32  2  0
 34 35  2  0
 35 26  1  0
 35 30  1  0
  2 36  1  0
  3 37  1  0
  4 38  1  0
  5 39  1  0
  8 40  1  0
  9 41  1  0
 16 42  1  0
 17 43  1  0
 18 44  1  0
 20 45  1  0
 21 46  1  0
 27 47  1  0
 28 48  1  0
 29 49  1  0
 31 50  1  0
 32 51  1  0
 33 52  1  0
 34 53  1  0
M  ISO  8  36  14  37  14  38  14  39  14  40  14  41  14  42  14  43  14
M  ISO  8  44   9  45  14  46  14  47  14  48  14  49  14  50  14  51  14
M  ISO  2  52  14  53  14
M  END
>  <minimizedAffinity>  (1) 
-9.60948753

>  <minimizedRMSD>  (1) 
0.351598591

$$$$
