
     RDKit          3D

 51 56  0  0  0  0  0  0  0  0999 V2000
   46.5820   34.6620   42.1800 C   0  0  0  0  0  0  0  0  0  0  0  0
   47.7900   35.2810   42.0150 C   0  0  0  0  0  0  0  0  0  0  0  0
   48.5220   35.1530   40.8200 C   0  0  0  0  0  0  0  0  0  0  0  0
   47.9970   34.3740   39.7840 C   0  0  0  0  0  0  0  0  0  0  0  0
   46.7670   33.7410   39.9500 C   0  0  0  0  0  0  0  0  0  0  0  0
   46.0960   33.9030   41.1410 C   0  0  0  0  0  0  0  0  0  0  0  0
   44.8360   33.2480   41.2960 N   0  0  0  0  0  0  0  0  0  0  0  0
   44.6040   31.9910   41.7440 C   0  0  0  0  0  0  0  0  0  0  0  0
   43.3220   31.5120   41.8330 C   0  0  0  0  0  0  0  0  0  0  0  0
   42.2430   32.2890   41.4720 C   0  0  0  0  0  0  0  0  0  0  0  0
   41.0850   31.8000   41.5730 O   0  0  0  0  0  0  0  0  0  0  0  0
   42.5100   33.5460   41.0270 N   0  0  0  0  0  0  0  0  0  0  0  0
   43.7500   34.0040   40.9430 C   0  0  0  0  0  0  0  0  0  0  0  0
   43.8690   35.1930   40.5130 O   0  0  0  0  0  0  0  0  0  0  0  0
   41.3640   34.3180   40.6640 C   0  0  0  0  0  0  0  0  0  0  0  0
   41.3200   35.6510   41.0170 C   0  0  0  0  0  0  0  0  0  0  0  0
   40.1160   36.1700   40.5520 C   0  0  0  0  0  0  0  0  0  0  0  0
   39.4730   35.1380   39.9340 N   0  0  0  0  0  0  0  0  0  0  0  0
   40.2210   34.0500   40.0070 N   0  0  0  0  0  0  0  0  0  0  0  0
   44.4560   35.9920   45.0050 C   0  0  0  0  0  0  0  0  0  0  0  0
   45.0680   35.9000   43.7610 C   0  0  0  0  0  0  0  0  0  0  0  0
   45.8970   34.8500   43.4460 C   0  0  0  0  0  0  0  0  0  0  0  0
   46.0950   33.8940   44.4110 N   0  0  0  0  0  0  0  0  0  0  0  0
   45.4830   34.0020   45.6310 C   0  0  0  0  0  0  0  0  0  0  0  0
   44.6830   35.0290   45.9160 N   0  0  0  0  0  0  0  0  0  0  0  0
   45.7390   32.9480   46.6080 C   0  0  0  0  0  0  0  0  0  0  0  0
   45.2620   32.9090   47.9020 C   0  0  0  0  0  0  0  0  0  0  0  0
   45.7140   31.7740   48.5030 N   0  0  0  0  0  0  0  0  0  0  0  0
   46.4640   31.1210   47.5780 C   0  0  0  0  0  0  0  0  0  0  0  0
   47.1370   29.9230   47.7040 C   0  0  0  0  0  0  0  0  0  0  0  0
   47.8720   29.3840   46.6430 C   0  0  0  0  0  0  0  0  0  0  0  0
   47.8970   30.1090   45.4470 C   0  0  0  0  0  0  0  0  0  0  0  0
   47.2210   31.3050   45.3330 C   0  0  0  0  0  0  0  0  0  0  0  0
   46.5110   31.8200   46.3700 C   0  0  0  0  0  0  0  0  0  0  0  0
   48.1982   35.8919   42.8336 H   0  0  0  0  0  0  0  0  0  0  0  0
   49.4922   35.6579   40.7026 H   0  0  0  0  0  0  0  0  0  0  0  0
   48.5531   34.2615   38.8416 H   0  0  0  0  0  0  0  0  0  0  0  0
   46.3405   33.1240   39.1453 H   0  0  0  0  0  0  0  0  0  0  0  0
   45.4487   31.3507   42.0381 H   0  0  0  0  0  0  0  0  0  0  0  0
   43.1521   30.4888   42.1993 H   0  0  0  0  0  0  0  0  0  0  0  0
   42.0964   36.2034   41.5666 H   0  0  0  0  0  0  0  0  0  0  0  0
   39.7555   37.2035   40.6607 H   0  0  0  0  0  0  0  0  0  0  0  0
   38.5496   35.1969   39.4814 H   0  0  0  0  0  0  0  0  0  0  0  0
   43.7958   36.8396   45.2412 H   0  0  0  0  0  0  0  0  0  0  0  0
   44.8851   36.6846   43.0120 H   0  0  0  0  0  0  0  0  0  0  0  0
   44.6214   33.6702   48.3713 H   0  0  0  0  0  0  0  0  0  0  0  0
   45.5245   31.4704   49.4688 H   0  0  0  0  0  0  0  0  0  0  0  0
   47.0946   29.3800   48.6597 H   0  0  0  0  0  0  0  0  0  0  0  0
   48.4084   28.4291   46.7449 H   0  0  0  0  0  0  0  0  0  0  0  0
   48.4627   29.7202   44.5874 H   0  0  0  0  0  0  0  0  0  0  0  0
   47.2574   31.8546   44.3808 H   0  0  0  0  0  0  0  0  0  0  0  0
  1 22  1  0
  2  1  2  0
  3  2  1  0
  4  5  1  0
  4  3  2  0
  5  6  2  0
  6  7  1  0
  6  1  1  0
  7  8  1  0
  8  9  2  0
 10 11  2  0
 10  9  1  0
 12 10  1  0
 13 12  1  0
 13  7  1  0
 14 13  2  0
 15 16  1  0
 15 12  1  0
 17 16  2  0
 18 19  1  0
 18 17  1  0
 19 15  2  0
 20 25  2  0
 21 20  1  0
 22 21  2  0
 22 23  1  0
 23 24  2  0
 24 25  1  0
 24 26  1  0
 26 27  2  0
 27 28  1  0
 29 30  2  0
 29 28  1  0
 31 30  1  0
 32 31  2  0
 33 32  1  0
 33 34  2  0
 34 26  1  0
 34 29  1  0
  2 35  1  0
  3 36  1  0
  4 37  1  0
  5 38  1  0
  8 39  1  0
  9 40  1  0
 16 41  1  0
 17 42  1  0
 18 43  1  0
 20 44  1  0
 21 45  1  0
 27 46  1  0
 28 47  1  0
 30 48  1  0
 31 49  1  0
 32 50  1  0
 33 51  1  0
M  ISO  8  35  14  36  14  37  14  38  14  39  14  40  14  41  14  42  14
M  ISO  8  43   9  44  14  45  14  46  14  47   9  48  14  49  14  50  14
M  ISO  1  51  14
M  END
>  <minimizedAffinity>  (1) 
-9.18790817

>  <minimizedRMSD>  (1) 
0.329699367

$$$$
