
     RDKit          3D

 37 39  0  0  1  0  0  0  0  0999 V2000
   47.7940   34.9840   41.1070 C   0  0  2  0  0  0  0  0  0  0  0  0
   48.9980   35.6700   41.5020 C   0  0  0  0  0  0  0  0  0  0  0  0
   49.7780   34.7140   42.4230 C   0  0  0  0  0  0  0  0  0  0  0  0
   49.0140   33.4170   42.4840 C   0  0  0  0  0  0  0  0  0  0  0  0
   47.6400   33.8320   42.1430 C   0  0  1  0  0  0  0  0  0  0  0  0
   47.7070   34.3310   39.8020 C   0  0  0  0  0  0  0  0  0  0  0  0
   48.5570   34.7710   38.7800 C   0  0  0  0  0  0  0  0  0  0  0  0
   48.5180   34.1770   37.5300 C   0  0  0  0  0  0  0  0  0  0  0  0
   47.6200   33.1630   37.3710 N   0  0  0  0  0  0  0  0  0  0  0  0
   46.8090   32.7480   38.3620 C   0  0  0  0  0  0  0  0  0  0  0  0
   46.8520   33.3290   39.5730 N   0  0  0  0  0  0  0  0  0  0  0  0
   46.9560   34.4050   43.3530 C   0  0  0  0  0  0  0  0  0  0  0  0
   45.8330   35.2670   42.9540 C   0  0  0  0  0  0  0  0  0  0  0  0
   44.6710   34.5730   42.3470 C   0  0  0  0  0  0  0  0  0  0  0  0
   43.8610   35.4480   41.6230 C   0  0  0  0  0  0  0  0  0  0  0  0
   42.7200   34.9890   40.9790 C   0  0  0  0  0  0  0  0  0  0  0  0
   42.3480   33.6940   41.0230 N   0  0  0  0  0  0  0  0  0  0  0  0
   43.1580   32.8640   41.7360 C   0  0  0  0  0  0  0  0  0  0  0  0
   44.2670   33.2930   42.3660 N   0  0  0  0  0  0  0  0  0  0  0  0
   47.0360   35.7794   41.0546 H   0  0  0  0  0  0  0  0  0  0  0  0
   49.6008   35.9164   40.6155 H   0  0  0  0  0  0  0  0  0  0  0  0
   48.7620   36.6106   42.0212 H   0  0  0  0  0  0  0  0  0  0  0  0
   50.7843   34.5379   42.0152 H   0  0  0  0  0  0  0  0  0  0  0  0
   49.8851   35.1473   43.4284 H   0  0  0  0  0  0  0  0  0  0  0  0
   49.4026   32.6932   41.7524 H   0  0  0  0  0  0  0  0  0  0  0  0
   49.0879   32.9130   43.4589 H   0  0  0  0  0  0  0  0  0  0  0  0
   47.0558   32.9793   41.7667 H   0  0  0  0  0  0  0  0  0  0  0  0
   49.2607   35.5944   38.9716 H   0  0  0  0  0  0  0  0  0  0  0  0
   49.1748   34.5047   36.7107 H   0  0  0  0  0  0  0  0  0  0  0  0
   46.1034   31.9243   38.1786 H   0  0  0  0  0  0  0  0  0  0  0  0
   46.5763   33.5825   43.9769 H   0  0  0  0  0  0  0  0  0  0  0  0
   47.6820   35.0079   43.9182 H   0  0  0  0  0  0  0  0  0  0  0  0
   45.4791   35.7969   43.8506 H   0  0  0  0  0  0  0  0  0  0  0  0
   46.2285   35.9295   42.1700 H   0  0  0  0  0  0  0  0  0  0  0  0
   44.1292   36.5130   41.5617 H   0  0  0  0  0  0  0  0  0  0  0  0
   42.1011   35.7032   40.4161 H   0  0  0  0  0  0  0  0  0  0  0  0
   42.8949   31.7978   41.7998 H   0  0  0  0  0  0  0  0  0  0  0  0
  1  2  1  0
  1  5  1  0
  2  3  1  0
  3  4  1  0
  5  4  1  0
  5 12  1  0
  6  1  1  0
  7  6  2  0
  8  7  1  0
  9  8  2  0
  9 10  1  0
 10 11  2  0
 11  6  1  0
 13 12  1  0
 14 19  1  0
 14 13  1  0
 15 14  2  0
 16 17  2  0
 16 15  1  0
 17 18  1  0
 18 19  2  0
  1 20  1  6
  2 21  1  0
  2 22  1  0
  3 23  1  0
  3 24  1  0
  4 25  1  0
  4 26  1  0
  5 27  1  6
  7 28  1  0
  8 29  1  0
 10 30  1  0
 12 31  1  0
 12 32  1  0
 13 33  1  0
 13 34  1  0
 15 35  1  0
 16 36  1  0
 18 37  1  0
M  ISO  8  20  13  21  13  22  13  23  13  24  13  25  13  26  13  27  13
M  ISO  8  28  14  29  14  30  14  31   8  32   8  33   8  34   8  35  14
M  ISO  2  36  14  37  14
M  END
>  <minimizedAffinity>  (1) 
-5.17688847

>  <minimizedRMSD>  (1) 
0.961628199

$$$$
