
     RDKit          3D

 44 46  0  0  1  0  0  0  0  0999 V2000
   47.8120   34.9070   41.1940 C   0  0  2  0  0  0  0  0  0  0  0  0
   48.9640   35.6980   41.5440 C   0  0  0  0  0  0  0  0  0  0  0  0
   49.8990   34.8090   42.3840 C   0  0  0  0  0  0  0  0  0  0  0  0
   49.2830   33.4260   42.4340 C   0  0  0  0  0  0  0  0  0  0  0  0
   47.8570   33.7050   42.1910 C   0  0  1  0  0  0  0  0  0  0  0  0
   47.7270   34.2840   39.8570 C   0  0  0  0  0  0  0  0  0  0  0  0
   48.5230   34.8000   38.8330 C   0  0  0  0  0  0  0  0  0  0  0  0
   48.4860   34.2360   37.5690 C   0  0  0  0  0  0  0  0  0  0  0  0
   47.6400   33.1770   37.4130 N   0  0  0  0  0  0  0  0  0  0  0  0
   46.8790   32.6910   38.4060 C   0  0  0  0  0  0  0  0  0  0  0  0
   46.9270   33.2530   39.6350 N   0  0  0  0  0  0  0  0  0  0  0  0
   47.1830   34.1250   43.4640 C   0  0  0  0  0  0  0  0  0  0  0  0
   46.0750   35.0990   43.1640 C   0  0  0  0  0  0  0  0  0  0  0  0
   44.7630   34.5440   43.1280 N   0  0  0  0  0  0  0  0  0  0  0  0
   43.8400   35.4050   42.4670 C   0  0  0  0  0  0  0  0  0  0  0  0
   43.6960   35.1530   40.9850 C   0  0  0  0  0  0  0  0  0  0  0  0
   43.5900   33.7150   40.6070 C   0  0  0  0  0  0  0  0  0  0  0  0
   43.5440   32.8590   41.8360 C   0  0  0  0  0  0  0  0  0  0  0  0
   44.6810   33.1650   42.7910 C   0  0  0  0  0  0  0  0  0  0  0  0
   46.9669   35.6107   41.2201 H   0  0  0  0  0  0  0  0  0  0  0  0
   49.4816   36.0312   40.6324 H   0  0  0  0  0  0  0  0  0  0  0  0
   48.6628   36.5896   42.1135 H   0  0  0  0  0  0  0  0  0  0  0  0
   50.8934   34.7612   41.9161 H   0  0  0  0  0  0  0  0  0  0  0  0
   50.0179   35.2186   43.3979 H   0  0  0  0  0  0  0  0  0  0  0  0
   49.7003   32.7761   41.6508 H   0  0  0  0  0  0  0  0  0  0  0  0
   49.4719   32.8950   43.3786 H   0  0  0  0  0  0  0  0  0  0  0  0
   47.3478   32.8113   41.8010 H   0  0  0  0  0  0  0  0  0  0  0  0
   49.1822   35.6580   39.0310 H   0  0  0  0  0  0  0  0  0  0  0  0
   49.1011   34.6184   36.7411 H   0  0  0  0  0  0  0  0  0  0  0  0
   46.2151   31.8340   38.2198 H   0  0  0  0  0  0  0  0  0  0  0  0
   46.7637   33.2391   43.9634 H   0  0  0  0  0  0  0  0  0  0  0  0
   47.9212   34.6094   44.1201 H   0  0  0  0  0  0  0  0  0  0  0  0
   46.0914   35.8800   43.9385 H   0  0  0  0  0  0  0  0  0  0  0  0
   46.2711   35.4762   42.1495 H   0  0  0  0  0  0  0  0  0  0  0  0
   42.8531   35.2740   42.9348 H   0  0  0  0  0  0  0  0  0  0  0  0
   44.2354   36.4260   42.5727 H   0  0  0  0  0  0  0  0  0  0  0  0
   42.7882   35.6671   40.6363 H   0  0  0  0  0  0  0  0  0  0  0  0
   44.6149   35.5320   40.5138 H   0  0  0  0  0  0  0  0  0  0  0  0
   42.6717   33.5599   40.0216 H   0  0  0  0  0  0  0  0  0  0  0  0
   44.4691   33.4356   40.0077 H   0  0  0  0  0  0  0  0  0  0  0  0
   42.5896   33.0343   42.3540 H   0  0  0  0  0  0  0  0  0  0  0  0
   43.6419   31.8099   41.5202 H   0  0  0  0  0  0  0  0  0  0  0  0
   44.5297   32.5862   43.7141 H   0  0  0  0  0  0  0  0  0  0  0  0
   45.6194   32.8916   42.2863 H   0  0  0  0  0  0  0  0  0  0  0  0
  1  2  1  0
  1  5  1  0
  2  3  1  0
  3  4  1  0
  5  4  1  0
  5 12  1  0
  6  1  1  0
  7  6  2  0
  8  7  1  0
  9  8  2  0
  9 10  1  0
 10 11  2  0
 11  6  1  0
 13 12  1  0
 14 13  1  0
 15 14  1  0
 16 15  1  0
 17 16  1  0
 17 18  1  0
 18 19  1  0
 19 14  1  0
  1 20  1  1
  2 21  1  0
  2 22  1  0
  3 23  1  0
  3 24  1  0
  4 25  1  0
  4 26  1  0
  5 27  1  6
  7 28  1  0
  8 29  1  0
 10 30  1  0
 12 31  1  0
 12 32  1  0
 13 33  1  0
 13 34  1  0
 15 35  1  0
 15 36  1  0
 16 37  1  0
 16 38  1  0
 17 39  1  0
 17 40  1  0
 18 41  1  0
 18 42  1  0
 19 43  1  0
 19 44  1  0
M  ISO  8  20  13  21  13  22  13  23  13  24  13  25  13  26  13  27  13
M  ISO  8  28  14  29  14  30  14  31   8  32   8  33   8  34   8  35  13
M  ISO  8  36  13  37  13  38  13  39  13  40  13  41  13  42  13  43  13
M  ISO  1  44  13
M  END
>  <minimizedAffinity>  (1) 
-5.15404081

>  <minimizedRMSD>  (1) 
0.66491729

$$$$
