
     RDKit          3D

 40 43  0  0  0  0  0  0  0  0999 V2000
   46.5590   34.6890   42.1960 C   0  0  0  0  0  0  0  0  0  0  0  0
   47.7750   35.3060   42.0130 C   0  0  0  0  0  0  0  0  0  0  0  0
   48.5210   35.1610   40.8390 C   0  0  0  0  0  0  0  0  0  0  0  0
   48.0030   34.3550   39.8190 C   0  0  0  0  0  0  0  0  0  0  0  0
   46.7750   33.7260   39.9920 C   0  0  0  0  0  0  0  0  0  0  0  0
   46.0840   33.9060   41.1710 C   0  0  0  0  0  0  0  0  0  0  0  0
   44.8310   33.2540   41.3280 N   0  0  0  0  0  0  0  0  0  0  0  0
   44.5980   32.0080   41.7890 C   0  0  0  0  0  0  0  0  0  0  0  0
   43.3130   31.5310   41.8770 C   0  0  0  0  0  0  0  0  0  0  0  0
   42.2370   32.2910   41.5070 C   0  0  0  0  0  0  0  0  0  0  0  0
   41.0790   31.8090   41.6070 O   0  0  0  0  0  0  0  0  0  0  0  0
   42.5030   33.5500   41.0440 N   0  0  0  0  0  0  0  0  0  0  0  0
   43.7580   34.0140   40.9590 C   0  0  0  0  0  0  0  0  0  0  0  0
   43.8630   35.1930   40.5160 O   0  0  0  0  0  0  0  0  0  0  0  0
   41.3670   34.3130   40.6690 C   0  0  0  0  0  0  0  0  0  0  0  0
   41.3200   35.6540   41.0090 C   0  0  0  0  0  0  0  0  0  0  0  0
   40.1070   36.1630   40.5250 C   0  0  0  0  0  0  0  0  0  0  0  0
   39.4740   35.1250   39.9180 N   0  0  0  0  0  0  0  0  0  0  0  0
   40.2220   34.0470   40.0090 N   0  0  0  0  0  0  0  0  0  0  0  0
   44.4150   36.0820   44.9610 C   0  0  0  0  0  0  0  0  0  0  0  0
   45.0340   35.9660   43.7210 C   0  0  0  0  0  0  0  0  0  0  0  0
   45.8670   34.9050   43.4490 C   0  0  0  0  0  0  0  0  0  0  0  0
   46.0660   33.9750   44.4280 N   0  0  0  0  0  0  0  0  0  0  0  0
   45.4430   34.1120   45.6450 C   0  0  0  0  0  0  0  0  0  0  0  0
   44.6380   35.1400   45.9040 N   0  0  0  0  0  0  0  0  0  0  0  0
   45.6770   33.1010   46.6680 C   0  0  0  0  0  0  0  0  0  0  0  0
   46.7160   32.3960   46.6500 O   0  0  0  0  0  0  0  0  0  0  0  0
   44.7800   32.8710   47.7000 O   0  0  0  0  0  0  0  0  0  0  0  0
   48.1754   35.9369   42.8202 H   0  0  0  0  0  0  0  0  0  0  0  0
   49.4902   35.6676   40.7204 H   0  0  0  0  0  0  0  0  0  0  0  0
   48.5654   34.2195   38.8834 H   0  0  0  0  0  0  0  0  0  0  0  0
   46.3591   33.0910   39.1958 H   0  0  0  0  0  0  0  0  0  0  0  0
   45.4408   31.3711   42.0958 H   0  0  0  0  0  0  0  0  0  0  0  0
   43.1445   30.5117   42.2547 H   0  0  0  0  0  0  0  0  0  0  0  0
   42.0910   36.2156   41.5569 H   0  0  0  0  0  0  0  0  0  0  0  0
   39.7407   37.1961   40.6179 H   0  0  0  0  0  0  0  0  0  0  0  0
   38.5533   35.1746   39.4589 H   0  0  0  0  0  0  0  0  0  0  0  0
   43.7501   36.9325   45.1722 H   0  0  0  0  0  0  0  0  0  0  0  0
   44.8559   36.7300   42.9499 H   0  0  0  0  0  0  0  0  0  0  0  0
   44.9726   32.1752   48.3774 H   0  0  0  0  0  0  0  0  0  0  0  0
  1 22  1  0
  2  1  2  0
  3  2  1  0
  4  5  1  0
  4  3  2  0
  5  6  2  0
  6  7  1  0
  6  1  1  0
  7  8  1  0
  8  9  2  0
 10 11  2  0
 10  9  1  0
 12 10  1  0
 13 12  1  0
 13  7  1  0
 14 13  2  0
 15 16  1  0
 15 12  1  0
 17 16  2  0
 18 19  1  0
 18 17  1  0
 19 15  2  0
 20 25  2  0
 21 20  1  0
 22 21  2  0
 22 23  1  0
 23 24  2  0
 24 25  1  0
 24 26  1  0
 26 28  1  0
 27 26  2  0
  2 29  1  0
  3 30  1  0
  4 31  1  0
  5 32  1  0
  8 33  1  0
  9 34  1  0
 16 35  1  0
 17 36  1  0
 18 37  1  0
 20 38  1  0
 21 39  1  0
 28 40  1  0
M  ISO  8  29  14  30  14  31  14  32  14  33  14  34  14  35  14  36  14
M  ISO  4  37   9  38  14  39  14  40   3
M  END
>  <minimizedAffinity>  (1) 
-8.31774998

>  <minimizedRMSD>  (1) 
0.084724009

$$$$
