
     RDKit          3D

 43 45  0  0  1  0  0  0  0  0999 V2000
   47.7590   34.9020   41.2870 C   0  0  2  0  0  0  0  0  0  0  0  0
   48.9280   35.6780   41.6010 C   0  0  0  0  0  0  0  0  0  0  0  0
   49.8720   34.7900   42.4220 C   0  0  0  0  0  0  0  0  0  0  0  0
   49.2370   33.4110   42.5030 C   0  0  0  0  0  0  0  0  0  0  0  0
   47.8090   33.7090   42.2920 C   0  0  1  0  0  0  0  0  0  0  0  0
   47.6260   34.2660   39.9620 C   0  0  0  0  0  0  0  0  0  0  0  0
   48.4600   34.7120   38.9250 C   0  0  0  0  0  0  0  0  0  0  0  0
   48.3740   34.1330   37.6720 C   0  0  0  0  0  0  0  0  0  0  0  0
   47.4560   33.1330   37.5190 N   0  0  0  0  0  0  0  0  0  0  0  0
   46.6650   32.7220   38.5370 C   0  0  0  0  0  0  0  0  0  0  0  0
   46.7520   33.2880   39.7470 N   0  0  0  0  0  0  0  0  0  0  0  0
   47.1780   34.1630   43.5770 C   0  0  0  0  0  0  0  0  0  0  0  0
   46.4940   32.9990   44.2520 C   0  0  0  0  0  0  0  0  0  0  0  0
   47.1380   32.5450   45.4500 N   0  0  0  0  0  0  0  0  0  0  0  0
   46.3350   32.9290   46.5940 C   0  0  0  0  0  0  0  0  0  0  0  0
   45.7760   31.7270   47.3220 C   0  0  0  0  0  0  0  0  0  0  0  0
   45.1200   30.8080   46.4150 N   0  0  0  0  0  0  0  0  0  0  0  0
   45.9530   30.4120   45.3200 C   0  0  0  0  0  0  0  0  0  0  0  0
   47.2800   31.1220   45.4310 C   0  0  0  0  0  0  0  0  0  0  0  0
   46.9290   35.6228   41.3261 H   0  0  0  0  0  0  0  0  0  0  0  0
   49.4260   35.9968   40.6735 H   0  0  0  0  0  0  0  0  0  0  0  0
   48.6514   36.5766   42.1719 H   0  0  0  0  0  0  0  0  0  0  0  0
   50.8526   34.7247   41.9278 H   0  0  0  0  0  0  0  0  0  0  0  0
   50.0249   35.2086   43.4277 H   0  0  0  0  0  0  0  0  0  0  0  0
   49.6256   32.7469   41.7169 H   0  0  0  0  0  0  0  0  0  0  0  0
   49.4423   32.8867   43.4480 H   0  0  0  0  0  0  0  0  0  0  0  0
   47.2768   32.8184   41.9265 H   0  0  0  0  0  0  0  0  0  0  0  0
   49.1816   35.5216   39.1088 H   0  0  0  0  0  0  0  0  0  0  0  0
   49.0134   34.4616   36.8394 H   0  0  0  0  0  0  0  0  0  0  0  0
   45.9405   31.9117   38.3680 H   0  0  0  0  0  0  0  0  0  0  0  0
   47.9555   34.5655   44.2430 H   0  0  0  0  0  0  0  0  0  0  0  0
   46.4344   34.9439   43.3596 H   0  0  0  0  0  0  0  0  0  0  0  0
   45.4685   33.3041   44.5075 H   0  0  0  0  0  0  0  0  0  0  0  0
   46.5284   32.1604   43.5409 H   0  0  0  0  0  0  0  0  0  0  0  0
   46.9613   33.5063   47.2900 H   0  0  0  0  0  0  0  0  0  0  0  0
   45.4887   33.5296   46.2293 H   0  0  0  0  0  0  0  0  0  0  0  0
   46.5997   31.2017   47.8275 H   0  0  0  0  0  0  0  0  0  0  0  0
   45.0302   32.0826   48.0482 H   0  0  0  0  0  0  0  0  0  0  0  0
   44.8476   29.9657   46.9415 H   0  0  0  0  0  0  0  0  0  0  0  0
   45.4679   30.6830   44.3707 H   0  0  0  0  0  0  0  0  0  0  0  0
   46.1102   29.3236   45.3470 H   0  0  0  0  0  0  0  0  0  0  0  0
   47.7739   30.8040   46.3610 H   0  0  0  0  0  0  0  0  0  0  0  0
   47.8770   30.8567   44.5460 H   0  0  0  0  0  0  0  0  0  0  0  0
  1  2  1  0
  1  5  1  0
  2  3  1  0
  3  4  1  0
  5  4  1  0
  5 12  1  0
  6  1  1  0
  7  6  2  0
  8  7  1  0
  9  8  2  0
  9 10  1  0
 10 11  2  0
 11  6  1  0
 12 13  1  0
 13 14  1  0
 14 15  1  0
 15 16  1  0
 17 16  1  0
 18 19  1  0
 18 17  1  0
 19 14  1  0
  1 20  1  1
  2 21  1  0
  2 22  1  0
  3 23  1  0
  3 24  1  0
  4 25  1  0
  4 26  1  0
  5 27  1  6
  7 28  1  0
  8 29  1  0
 10 30  1  0
 12 31  1  0
 12 32  1  0
 13 33  1  0
 13 34  1  0
 15 35  1  0
 15 36  1  0
 16 37  1  0
 16 38  1  0
 17 39  1  0
 18 40  1  0
 18 41  1  0
 19 42  1  0
 19 43  1  0
M  ISO  8  20  13  21  13  22  13  23  13  24  13  25  13  26  13  27  13
M  ISO  8  28  14  29  14  30  14  31   8  32   8  33   8  34   8  35  13
M  ISO  8  36  13  37  13  38  13  39   5  40  13  41  13  42  13  43  13
M  END
>  <minimizedAffinity>  (1) 
-5.10105038

>  <minimizedRMSD>  (1) 
3.33858514

$$$$
