
     RDKit          3D

 38 41  0  0  0  0  0  0  0  0999 V2000
   46.5960   34.6420   42.1560 C   0  0  0  0  0  0  0  0  0  0  0  0
   47.8000   35.2640   41.9860 C   0  0  0  0  0  0  0  0  0  0  0  0
   48.5220   35.1560   40.7840 C   0  0  0  0  0  0  0  0  0  0  0  0
   47.9880   34.3890   39.7330 C   0  0  0  0  0  0  0  0  0  0  0  0
   46.7560   33.7580   39.9140 C   0  0  0  0  0  0  0  0  0  0  0  0
   46.0950   33.8970   41.1080 C   0  0  0  0  0  0  0  0  0  0  0  0
   44.8330   33.2390   41.2700 N   0  0  0  0  0  0  0  0  0  0  0  0
   44.6080   31.9860   41.7110 C   0  0  0  0  0  0  0  0  0  0  0  0
   43.3270   31.5130   41.8050 C   0  0  0  0  0  0  0  0  0  0  0  0
   42.2500   32.2860   41.4580 C   0  0  0  0  0  0  0  0  0  0  0  0
   41.0830   31.8060   41.5600 O   0  0  0  0  0  0  0  0  0  0  0  0
   42.5080   33.5360   41.0190 N   0  0  0  0  0  0  0  0  0  0  0  0
   43.7620   34.0050   40.9250 C   0  0  0  0  0  0  0  0  0  0  0  0
   43.8710   35.1920   40.5000 O   0  0  0  0  0  0  0  0  0  0  0  0
   41.3720   34.3240   40.6620 C   0  0  0  0  0  0  0  0  0  0  0  0
   41.3320   35.6480   41.0110 C   0  0  0  0  0  0  0  0  0  0  0  0
   40.1190   36.1680   40.5410 C   0  0  0  0  0  0  0  0  0  0  0  0
   39.4700   35.1400   39.9260 N   0  0  0  0  0  0  0  0  0  0  0  0
   40.2150   34.0560   40.0020 N   0  0  0  0  0  0  0  0  0  0  0  0
   44.4800   35.8950   45.0100 C   0  0  0  0  0  0  0  0  0  0  0  0
   45.0720   35.8310   43.7450 C   0  0  0  0  0  0  0  0  0  0  0  0
   45.9240   34.8110   43.4330 C   0  0  0  0  0  0  0  0  0  0  0  0
   46.1750   33.8600   44.3920 N   0  0  0  0  0  0  0  0  0  0  0  0
   45.5890   33.9390   45.6200 C   0  0  0  0  0  0  0  0  0  0  0  0
   44.7480   34.9520   45.9220 N   0  0  0  0  0  0  0  0  0  0  0  0
   45.9290   32.6900   46.8560 S   0  0  0  0  0  0  0  0  0  0  0  0
   48.2150   35.8640   42.8093 H   0  0  0  0  0  0  0  0  0  0  0  0
   49.4906   35.6642   40.6675 H   0  0  0  0  0  0  0  0  0  0  0  0
   48.5329   34.2879   38.7828 H   0  0  0  0  0  0  0  0  0  0  0  0
   46.3186   33.1540   39.1054 H   0  0  0  0  0  0  0  0  0  0  0  0
   45.4539   31.3430   41.9956 H   0  0  0  0  0  0  0  0  0  0  0  0
   43.1581   30.4883   42.1676 H   0  0  0  0  0  0  0  0  0  0  0  0
   42.1090   36.2009   41.5592 H   0  0  0  0  0  0  0  0  0  0  0  0
   39.7610   37.2027   40.6475 H   0  0  0  0  0  0  0  0  0  0  0  0
   38.5462   35.2005   39.4746 H   0  0  0  0  0  0  0  0  0  0  0  0
   43.7946   36.7195   45.2558 H   0  0  0  0  0  0  0  0  0  0  0  0
   44.8501   36.6066   42.9972 H   0  0  0  0  0  0  0  0  0  0  0  0
   45.7815   33.2320   48.1055 H   0  0  0  0  0  0  0  0  0  0  0  0
  1 22  1  0
  2  1  2  0
  3  2  1  0
  4  5  1  0
  4  3  2  0
  5  6  2  0
  6  7  1  0
  6  1  1  0
  7  8  1  0
  8  9  2  0
 10 11  2  0
 10  9  1  0
 12 10  1  0
 13 12  1  0
 13  7  1  0
 14 13  2  0
 15 16  1  0
 15 12  1  0
 17 16  2  0
 18 19  1  0
 18 17  1  0
 19 15  2  0
 20 25  2  0
 21 20  1  0
 22 21  2  0
 22 23  1  0
 23 24  2  0
 24 25  1  0
 24 26  1  0
  2 27  1  0
  3 28  1  0
  4 29  1  0
  5 30  1  0
  8 31  1  0
  9 32  1  0
 16 33  1  0
 17 34  1  0
 18 35  1  0
 20 36  1  0
 21 37  1  0
 26 38  1  0
M  ISO  8  27  14  28  14  29  14  30  14  31  14  32  14  33  14  34  14
M  ISO  4  35   9  36  14  37  14  38  11
M  END
>  <minimizedAffinity>  (1) 
-7.84397554

>  <minimizedRMSD>  (1) 
0.0506986529

$$$$
