
     RDKit          3D

 18 19  0  0  0  0  0  0  0  0999 V2000
   44.4630   35.9560   44.7490 C   0  0  0  0  0  0  0  0  0  0  0  0
   44.7540   35.7240   43.3940 C   0  0  0  0  0  0  0  0  0  0  0  0
   45.4090   34.5290   43.0940 C   0  0  0  0  0  0  0  0  0  0  0  0
   45.7400   33.6470   44.0900 N   0  0  0  0  0  0  0  0  0  0  0  0
   45.4300   33.9330   45.3860 C   0  0  0  0  0  0  0  0  0  0  0  0
   44.7920   35.0900   45.7000 N   0  0  0  0  0  0  0  0  0  0  0  0
   45.7750   34.1520   41.7280 C   0  0  0  0  0  0  0  0  0  0  0  0
   45.2140   33.4600   40.7190 N   0  0  0  0  0  0  0  0  0  0  0  0
   46.0170   33.4410   39.6960 O   0  0  0  0  0  0  0  0  0  0  0  0
   47.1090   34.1150   40.0180 C   0  0  0  0  0  0  0  0  0  0  0  0
   46.9710   34.5640   41.2850 N   0  0  0  0  0  0  0  0  0  0  0  0
   48.3240   34.3680   39.1630 C   0  0  0  0  0  0  0  0  0  0  0  0
   43.9459   36.8851   45.0309 H   0  0  0  0  0  0  0  0  0  0  0  0
   44.4799   36.4464   42.6110 H   0  0  0  0  0  0  0  0  0  0  0  0
   45.6980   33.2228   46.1821 H   0  0  0  0  0  0  0  0  0  0  0  0
   49.1956   34.5495   39.8090 H   0  0  0  0  0  0  0  0  0  0  0  0
   48.5147   33.4903   38.5280 H   0  0  0  0  0  0  0  0  0  0  0  0
   48.1485   35.2489   38.5280 H   0  0  0  0  0  0  0  0  0  0  0  0
  1  6  2  0
  2  1  1  0
  3  2  2  0
  3  4  1  0
  4  5  2  0
  5  6  1  0
  7  3  1  0
  8  7  2  0
  9 10  1  0
  9  8  1  0
 10 11  2  0
 11  7  1  0
 12 10  1  0
  1 13  1  0
  2 14  1  0
  5 15  1  0
 12 16  1  0
 12 17  1  0
 12 18  1  0
M  ISO  6  13  14  14  14  15  14  16   8  17   8  18   8
M  END
>  <minimizedAffinity>  (1) 
-3.7493751

>  <minimizedRMSD>  (1) 
1.23022366

$$$$
