
     RDKit          3D

 31 33  0  0  0  0  0  0  0  0999 V2000
   45.8920   34.9960   42.5500 C   0  0  0  0  0  0  0  0  0  0  0  0
   45.0400   35.4420   43.5060 N   0  0  0  0  0  0  0  0  0  0  0  0
   43.8590   35.6250   42.9740 O   0  0  0  0  0  0  0  0  0  0  0  0
   43.9290   35.3080   41.7020 C   0  0  0  0  0  0  0  0  0  0  0  0
   45.1880   34.9140   41.4240 N   0  0  0  0  0  0  0  0  0  0  0  0
   49.6030   35.0090   42.0210 C   0  0  0  0  0  0  0  0  0  0  0  0
   48.2950   35.4950   42.0230 C   0  0  0  0  0  0  0  0  0  0  0  0
   47.3040   34.6160   42.4920 C   0  0  0  0  0  0  0  0  0  0  0  0
   47.6220   33.3650   42.9180 N   0  0  0  0  0  0  0  0  0  0  0  0
   48.9200   32.9480   42.8910 C   0  0  0  0  0  0  0  0  0  0  0  0
   49.9020   33.7750   42.4420 N   0  0  0  0  0  0  0  0  0  0  0  0
   42.8220   35.3610   40.6940 C   0  0  0  0  0  0  0  0  0  0  0  0
   42.5120   34.0330   40.1980 N   0  0  0  0  0  0  0  0  0  0  0  0
   41.8330   33.2810   41.2060 C   0  0  0  0  0  0  0  0  0  0  0  0
   40.7610   32.4590   40.5700 C   0  0  0  0  0  0  0  0  0  0  0  0
   39.8200   33.2780   39.9650 O   0  0  0  0  0  0  0  0  0  0  0  0
   40.3580   34.0900   38.9820 C   0  0  0  0  0  0  0  0  0  0  0  0
   41.8500   34.0750   38.9330 C   0  0  0  0  0  0  0  0  0  0  0  0
   50.4132   35.6607   41.6622 H   0  0  0  0  0  0  0  0  0  0  0  0
   48.0529   36.5105   41.6764 H   0  0  0  0  0  0  0  0  0  0  0  0
   49.1749   31.9348   43.2351 H   0  0  0  0  0  0  0  0  0  0  0  0
   41.9248   35.7881   41.1659 H   0  0  0  0  0  0  0  0  0  0  0  0
   43.1449   35.9864   39.8486 H   0  0  0  0  0  0  0  0  0  0  0  0
   42.5490   32.6200   41.7162 H   0  0  0  0  0  0  0  0  0  0  0  0
   41.3848   33.9678   41.9391 H   0  0  0  0  0  0  0  0  0  0  0  0
   41.2104   31.8011   39.8115 H   0  0  0  0  0  0  0  0  0  0  0  0
   40.2648   31.8571   41.3456 H   0  0  0  0  0  0  0  0  0  0  0  0
   39.9763   33.7526   38.0071 H   0  0  0  0  0  0  0  0  0  0  0  0
   40.0572   35.1209   39.2202 H   0  0  0  0  0  0  0  0  0  0  0  0
   42.1602   33.1888   38.3599 H   0  0  0  0  0  0  0  0  0  0  0  0
   42.1440   35.0300   38.4729 H   0  0  0  0  0  0  0  0  0  0  0  0
  1  2  2  0
  3  2  1  0
  4  3  1  0
  5  4  2  0
  5  1  1  0
  6  7  2  0
  6 11  1  0
  7  8  1  0
  8  1  1  0
  8  9  2  0
 10  9  1  0
 11 10  2  0
 12  4  1  0
 13 12  1  0
 13 14  1  0
 15 14  1  0
 16 15  1  0
 17 16  1  0
 18 17  1  0
 18 13  1  0
  6 19  1  0
  7 20  1  0
 10 21  1  0
 12 22  1  0
 12 23  1  0
 14 24  1  0
 14 25  1  0
 15 26  1  0
 15 27  1  0
 17 28  1  0
 17 29  1  0
 18 30  1  0
 18 31  1  0
M  ISO  8  19  14  20  14  21  14  22   8  23   8  24  13  25  13  26  13
M  ISO  5  27  13  28  13  29  13  30  13  31  13
M  END
>  <minimizedAffinity>  (1) 
-4.39519596

>  <minimizedRMSD>  (1) 
6.19998503

$$$$
