
     RDKit          3D

 25 27  0  0  0  0  0  0  0  0999 V2000
   47.0790   33.9890   42.5840 C   0  0  0  0  0  0  0  0  0  0  0  0
   47.9160   32.9690   42.3800 N   0  0  0  0  0  0  0  0  0  0  0  0
   48.4670   33.0670   41.2090 O   0  0  0  0  0  0  0  0  0  0  0  0
   47.9940   34.1650   40.6210 C   0  0  0  0  0  0  0  0  0  0  0  0
   47.1280   34.7470   41.4680 N   0  0  0  0  0  0  0  0  0  0  0  0
   44.5530   35.9130   44.5820 C   0  0  0  0  0  0  0  0  0  0  0  0
   45.3590   35.5750   43.4950 C   0  0  0  0  0  0  0  0  0  0  0  0
   46.1840   34.4580   43.6360 C   0  0  0  0  0  0  0  0  0  0  0  0
   46.1660   33.7610   44.8060 N   0  0  0  0  0  0  0  0  0  0  0  0
   45.3650   34.1250   45.8400 C   0  0  0  0  0  0  0  0  0  0  0  0
   44.5560   35.2180   45.7030 N   0  0  0  0  0  0  0  0  0  0  0  0
   48.3330   34.7030   39.2540 C   0  0  0  0  0  0  0  0  0  0  0  0
   48.2720   33.5610   38.2750 C   0  0  0  0  0  0  0  0  0  0  0  0
   48.7110   33.7160   36.8810 C   0  0  0  0  0  0  0  0  0  0  0  0
   47.2560   33.6530   37.2070 C   0  0  0  0  0  0  0  0  0  0  0  0
   43.8924   36.7889   44.5016 H   0  0  0  0  0  0  0  0  0  0  0  0
   45.3451   36.1638   42.5660 H   0  0  0  0  0  0  0  0  0  0  0  0
   45.3671   33.5475   46.7762 H   0  0  0  0  0  0  0  0  0  0  0  0
   47.6075   35.4788   38.9679 H   0  0  0  0  0  0  0  0  0  0  0  0
   49.3385   35.1489   39.2580 H   0  0  0  0  0  0  0  0  0  0  0  0
   48.5417   32.8445   39.0649 H   0  0  0  0  0  0  0  0  0  0  0  0
   49.1952   32.8770   36.3598 H   0  0  0  0  0  0  0  0  0  0  0  0
   49.3586   34.4234   36.3424 H   0  0  0  0  0  0  0  0  0  0  0  0
   46.6307   34.5534   37.1163 H   0  0  0  0  0  0  0  0  0  0  0  0
   46.4076   33.0340   36.8797 H   0  0  0  0  0  0  0  0  0  0  0  0
  1  8  1  0
  2  1  2  0
  3  2  1  0
  4  3  1  0
  4  5  2  0
  5  1  1  0
  6 11  2  0
  7  8  2  0
  7  6  1  0
  8  9  1  0
  9 10  2  0
 11 10  1  0
 12  4  1  0
 13 12  1  0
 14 15  1  0
 14 13  1  0
 15 13  1  0
  6 16  1  0
  7 17  1  0
 10 18  1  0
 12 19  1  0
 12 20  1  0
 13 21  1  0
 14 22  1  0
 14 23  1  0
 15 24  1  0
 15 25  1  0
M  ISO  8  16  14  17  14  18  14  19   8  20   8  21  13  22  13  23  13
M  ISO  2  24  13  25  13
M  END
>  <minimizedAffinity>  (1) 
-4.31475258

>  <minimizedRMSD>  (1) 
1.32628739

$$$$
