
     RDKit          3D

 28 30  0  0  0  0  0  0  0  0999 V2000
   46.0380   33.2900   42.3760 C   0  0  0  0  0  0  0  0  0  0  0  0
   45.5580   32.3990   41.4920 N   0  0  0  0  0  0  0  0  0  0  0  0
   46.5240   31.9960   40.7070 O   0  0  0  0  0  0  0  0  0  0  0  0
   47.6300   32.6100   41.0620 C   0  0  0  0  0  0  0  0  0  0  0  0
   47.3350   33.4120   42.0950 N   0  0  0  0  0  0  0  0  0  0  0  0
   44.4720   35.9840   44.4500 C   0  0  0  0  0  0  0  0  0  0  0  0
   44.9270   35.3330   43.3000 C   0  0  0  0  0  0  0  0  0  0  0  0
   45.5160   34.0880   43.4780 C   0  0  0  0  0  0  0  0  0  0  0  0
   45.6340   33.5450   44.7400 N   0  0  0  0  0  0  0  0  0  0  0  0
   45.1710   34.2290   45.8200 C   0  0  0  0  0  0  0  0  0  0  0  0
   44.5890   35.4520   45.6670 N   0  0  0  0  0  0  0  0  0  0  0  0
   48.9840   32.4510   40.4350 C   0  0  0  0  0  0  0  0  0  0  0  0
   48.8200   32.7080   38.9770 C   0  0  0  0  0  0  0  0  0  0  0  0
   49.0980   31.7900   37.9960 C   0  0  0  0  0  0  0  0  0  0  0  0
   48.9000   32.1620   36.6840 C   0  0  0  0  0  0  0  0  0  0  0  0
   48.4370   33.4070   36.3040 C   0  0  0  0  0  0  0  0  0  0  0  0
   48.1480   34.3540   37.2880 C   0  0  0  0  0  0  0  0  0  0  0  0
   48.3580   33.9510   38.5930 C   0  0  0  0  0  0  0  0  0  0  0  0
   43.9997   36.9721   44.3473 H   0  0  0  0  0  0  0  0  0  0  0  0
   44.8236   35.7848   42.3024 H   0  0  0  0  0  0  0  0  0  0  0  0
   45.2668   33.7920   46.8249 H   0  0  0  0  0  0  0  0  0  0  0  0
   49.6892   33.1749   40.8695 H   0  0  0  0  0  0  0  0  0  0  0  0
   49.3841   31.4421   40.6138 H   0  0  0  0  0  0  0  0  0  0  0  0
   49.4684   30.7857   38.2495 H   0  0  0  0  0  0  0  0  0  0  0  0
   49.1228   31.4275   35.8961 H   0  0  0  0  0  0  0  0  0  0  0  0
   48.2979   33.6488   35.2400 H   0  0  0  0  0  0  0  0  0  0  0  0
   47.7760   35.3590   37.0399 H   0  0  0  0  0  0  0  0  0  0  0  0
   48.1398   34.6782   39.3889 H   0  0  0  0  0  0  0  0  0  0  0  0
  1  8  1  0
  2  1  2  0
  3  4  1  0
  3  2  1  0
  4  5  2  0
  5  1  1  0
  6 11  2  0
  7  8  2  0
  7  6  1  0
  8  9  1  0
  9 10  2  0
 11 10  1  0
 12  4  1  0
 13 12  1  0
 14 13  2  0
 15 14  1  0
 16 15  2  0
 16 17  1  0
 17 18  2  0
 18 13  1  0
  6 19  1  0
  7 20  1  0
 10 21  1  0
 12 22  1  0
 12 23  1  0
 14 24  1  0
 15 25  1  0
 16 26  1  0
 17 27  1  0
 18 28  1  0
M  ISO  8  19  14  20  14  21  14  22   8  23   8  24  14  25  14  26  14
M  ISO  2  27  14  28  14
M  END
>  <minimizedAffinity>  (1) 
-4.23191977

>  <minimizedRMSD>  (1) 
2.19741654

$$$$
