
     RDKit          3D

 30 32  0  0  0  0  0  0  0  0999 V2000
   45.8990   34.2140   41.8270 C   0  0  0  0  0  0  0  0  0  0  0  0
   45.3180   34.0490   40.6200 N   0  0  0  0  0  0  0  0  0  0  0  0
   46.2170   33.6930   39.7490 O   0  0  0  0  0  0  0  0  0  0  0  0
   47.3910   33.6190   40.3620 C   0  0  0  0  0  0  0  0  0  0  0  0
   47.1900   33.9420   41.6490 N   0  0  0  0  0  0  0  0  0  0  0  0
   44.4410   36.0220   44.7660 C   0  0  0  0  0  0  0  0  0  0  0  0
   44.7880   35.7960   43.4250 C   0  0  0  0  0  0  0  0  0  0  0  0
   45.4680   34.5930   43.1800 C   0  0  0  0  0  0  0  0  0  0  0  0
   45.7610   33.7180   44.1800 N   0  0  0  0  0  0  0  0  0  0  0  0
   45.3890   34.0090   45.4640 C   0  0  0  0  0  0  0  0  0  0  0  0
   44.7290   35.1650   45.7400 N   0  0  0  0  0  0  0  0  0  0  0  0
   48.7150   33.2500   39.7680 C   0  0  0  0  0  0  0  0  0  0  0  0
   49.2830   32.1870   40.5530 N   0  0  0  0  0  0  0  0  0  0  0  0
   49.7460   31.0650   39.7780 C   0  0  0  0  0  0  0  0  0  0  0  0
   51.2280   31.3890   39.6200 C   0  0  0  0  0  0  0  0  0  0  0  0
   51.5560   31.7560   41.0720 C   0  0  0  0  0  0  0  0  0  0  0  0
   50.3490   32.6100   41.4040 C   0  0  0  0  0  0  0  0  0  0  0  0
   43.9073   36.9491   45.0220 H   0  0  0  0  0  0  0  0  0  0  0  0
   44.5447   36.5099   42.6242 H   0  0  0  0  0  0  0  0  0  0  0  0
   45.6247   33.3052   46.2758 H   0  0  0  0  0  0  0  0  0  0  0  0
   48.5758   32.9123   38.7304 H   0  0  0  0  0  0  0  0  0  0  0  0
   49.3863   34.1214   39.7689 H   0  0  0  0  0  0  0  0  0  0  0  0
   49.5979   30.1173   40.3164 H   0  0  0  0  0  0  0  0  0  0  0  0
   49.2141   30.9309   38.8246 H   0  0  0  0  0  0  0  0  0  0  0  0
   51.8050   30.5183   39.2753 H   0  0  0  0  0  0  0  0  0  0  0  0
   51.4638   32.1624   38.8742 H   0  0  0  0  0  0  0  0  0  0  0  0
   51.6159   30.8655   41.7150 H   0  0  0  0  0  0  0  0  0  0  0  0
   52.5282   32.2496   41.2178 H   0  0  0  0  0  0  0  0  0  0  0  0
   50.5770   33.6708   41.2229 H   0  0  0  0  0  0  0  0  0  0  0  0
   50.0710   32.4970   42.4623 H   0  0  0  0  0  0  0  0  0  0  0  0
  1  8  1  0
  2  1  2  0
  3  4  1  0
  3  2  1  0
  4  5  2  0
  5  1  1  0
  6 11  2  0
  7  6  1  0
  8  7  2  0
  8  9  1  0
  9 10  2  0
 10 11  1  0
 12  4  1  0
 12 13  1  0
 13 17  1  0
 14 13  1  0
 15 14  1  0
 15 16  1  0
 16 17  1  0
  6 18  1  0
  7 19  1  0
 10 20  1  0
 12 21  1  0
 12 22  1  0
 14 23  1  0
 14 24  1  0
 15 25  1  0
 15 26  1  0
 16 27  1  0
 16 28  1  0
 17 29  1  0
 17 30  1  0
M  ISO  8  18  14  19  14  20  14  21   8  22   8  23  13  24  13  25  13
M  ISO  5  26  13  27  13  28  13  29  13  30  13
M  END
>  <minimizedAffinity>  (1) 
-4.10105562

>  <minimizedRMSD>  (1) 
1.49726796

$$$$
