
     RDKit          3D

 19 20  0  0  0  0  0  0  0  0999 V2000
   45.6690   34.1110   41.7830 C   0  0  0  0  0  0  0  0  0  0  0  0
   45.0830   33.4170   40.7850 N   0  0  0  0  0  0  0  0  0  0  0  0
   45.8760   33.3830   39.7540 O   0  0  0  0  0  0  0  0  0  0  0  0
   46.9840   34.0460   40.0520 C   0  0  0  0  0  0  0  0  0  0  0  0
   46.8510   34.4960   41.3120 N   0  0  0  0  0  0  0  0  0  0  0  0
   44.4440   35.9480   44.8140 C   0  0  0  0  0  0  0  0  0  0  0  0
   44.7060   35.6970   43.4480 C   0  0  0  0  0  0  0  0  0  0  0  0
   45.3370   34.5050   43.1540 C   0  0  0  0  0  0  0  0  0  0  0  0
   45.6910   33.6100   44.1440 N   0  0  0  0  0  0  0  0  0  0  0  0
   45.4010   33.9280   45.4450 C   0  0  0  0  0  0  0  0  0  0  0  0
   44.7860   35.0880   45.7530 N   0  0  0  0  0  0  0  0  0  0  0  0
   48.1760   34.2660   39.1730 C   0  0  0  0  0  0  0  0  0  0  0  0
   48.8760   35.3910   39.5760 O   0  0  0  0  0  0  0  0  0  0  0  0
   43.9424   36.8840   45.1008 H   0  0  0  0  0  0  0  0  0  0  0  0
   44.4225   36.4125   42.6620 H   0  0  0  0  0  0  0  0  0  0  0  0
   45.6734   33.2280   46.2486 H   0  0  0  0  0  0  0  0  0  0  0  0
   47.8396   34.4019   38.1346 H   0  0  0  0  0  0  0  0  0  0  0  0
   48.8379   33.3905   39.2462 H   0  0  0  0  0  0  0  0  0  0  0  0
   48.8993   35.4285   40.5650 H   0  0  0  0  0  0  0  0  0  0  0  0
  1  8  1  0
  2  1  2  0
  3  4  1  0
  3  2  1  0
  4  5  2  0
  5  1  1  0
  6 11  2  0
  7  6  1  0
  8  7  2  0
  8  9  1  0
  9 10  2  0
 10 11  1  0
 12 13  1  0
 12  4  1  0
  6 14  1  0
  7 15  1  0
 10 16  1  0
 12 17  1  0
 12 18  1  0
 13 19  1  0
M  ISO  6  14  14  15  14  16  14  17   8  18   8  19   3
M  END
>  <minimizedAffinity>  (1) 
-4.01736498

>  <minimizedRMSD>  (1) 
0.387970924

$$$$
