
     RDKit          3D

 36 38  0  0  1  0  0  0  0  0999 V2000
   47.7870   34.8800   41.3780 C   0  0  2  0  0  0  0  0  0  0  0  0
   48.9640   35.6530   41.6790 C   0  0  0  0  0  0  0  0  0  0  0  0
   49.9340   34.7280   42.4350 C   0  0  0  0  0  0  0  0  0  0  0  0
   49.3230   33.3600   42.4770 C   0  0  0  0  0  0  0  0  0  0  0  0
   47.8650   33.6330   42.3260 C   0  0  1  0  0  0  0  0  0  0  0  0
   47.6160   34.3040   40.0250 C   0  0  0  0  0  0  0  0  0  0  0  0
   48.4620   34.7360   39.0060 C   0  0  0  0  0  0  0  0  0  0  0  0
   48.3310   34.2090   37.7320 C   0  0  0  0  0  0  0  0  0  0  0  0
   47.3480   33.2690   37.5560 N   0  0  0  0  0  0  0  0  0  0  0  0
   46.5460   32.8710   38.5580 C   0  0  0  0  0  0  0  0  0  0  0  0
   46.6850   33.3950   39.7950 N   0  0  0  0  0  0  0  0  0  0  0  0
   47.2770   34.0620   43.6460 C   0  0  0  0  0  0  0  0  0  0  0  0
   46.4350   32.9870   44.2300 C   0  0  0  0  0  0  0  0  0  0  0  0
   46.7860   32.4280   45.5060 C   0  0  0  0  0  0  0  0  0  0  0  0
   46.8220   32.7400   46.8550 C   0  0  0  0  0  0  0  0  0  0  0  0
   47.2420   31.8280   47.7720 C   0  0  0  0  0  0  0  0  0  0  0  0
   47.6440   30.5280   47.2730 C   0  0  0  0  0  0  0  0  0  0  0  0
   47.3600   30.7640   45.4190 S   0  0  0  0  0  0  0  0  0  0  0  0
   46.9578   35.5942   41.4888 H   0  0  0  0  0  0  0  0  0  0  0  0
   49.4301   36.0081   40.7480 H   0  0  0  0  0  0  0  0  0  0  0  0
   48.7085   36.5328   42.2878 H   0  0  0  0  0  0  0  0  0  0  0  0
   50.9004   34.6904   41.9108 H   0  0  0  0  0  0  0  0  0  0  0  0
   50.1070   35.1032   43.4545 H   0  0  0  0  0  0  0  0  0  0  0  0
   49.6951   32.7363   41.6508 H   0  0  0  0  0  0  0  0  0  0  0  0
   49.5653   32.8075   43.3968 H   0  0  0  0  0  0  0  0  0  0  0  0
   47.3318   32.7445   41.9568 H   0  0  0  0  0  0  0  0  0  0  0  0
   49.2321   35.4938   39.2128 H   0  0  0  0  0  0  0  0  0  0  0  0
   48.9816   34.5278   36.9043 H   0  0  0  0  0  0  0  0  0  0  0  0
   45.7711   32.1134   38.3695 H   0  0  0  0  0  0  0  0  0  0  0  0
   48.0940   34.2976   44.3438 H   0  0  0  0  0  0  0  0  0  0  0  0
   46.6463   34.9472   43.4767 H   0  0  0  0  0  0  0  0  0  0  0  0
   45.4181   33.3948   44.3282 H   0  0  0  0  0  0  0  0  0  0  0  0
   46.5699   32.1462   43.5337 H   0  0  0  0  0  0  0  0  0  0  0  0
   46.5065   33.7394   47.1892 H   0  0  0  0  0  0  0  0  0  0  0  0
   47.2752   32.0664   48.8453 H   0  0  0  0  0  0  0  0  0  0  0  0
   48.0122   29.6482   47.8210 H   0  0  0  0  0  0  0  0  0  0  0  0
  1  2  1  0
  1  5  1  0
  2  3  1  0
  3  4  1  0
  5  4  1  0
  5 12  1  0
  6  1  1  0
  7  6  2  0
  8  7  1  0
  9  8  2  0
  9 10  1  0
 10 11  2  0
 11  6  1  0
 12 13  1  0
 13 14  1  0
 14 15  2  0
 15 16  1  0
 17 16  2  0
 18 14  1  0
 18 17  1  0
  1 19  1  1
  2 20  1  0
  2 21  1  0
  3 22  1  0
  3 23  1  0
  4 24  1  0
  4 25  1  0
  5 26  1  6
  7 27  1  0
  8 28  1  0
 10 29  1  0
 12 30  1  0
 12 31  1  0
 13 32  1  0
 13 33  1  0
 15 34  1  0
 16 35  1  0
 17 36  1  0
M  ISO  8  19  13  20  13  21  13  22  13  23  13  24  13  25  13  26  13
M  ISO  8  27  14  28  14  29  14  30   8  31   8  32   8  33   8  34  14
M  ISO  2  35  14  36  14
M  END
>  <minimizedAffinity>  (1) 
-4.95469332

>  <minimizedRMSD>  (1) 
3.1715169

$$$$
