
     RDKit          3D

 29 31  0  0  0  0  0  0  0  0999 V2000
   43.8190   35.0930   42.2680 C   0  0  0  0  0  0  0  0  0  0  0  0
   44.6630   35.8960   42.9330 N   0  0  0  0  0  0  0  0  0  0  0  0
   45.4350   35.1980   43.7140 O   0  0  0  0  0  0  0  0  0  0  0  0
   45.1060   33.9330   43.5700 C   0  0  0  0  0  0  0  0  0  0  0  0
   44.1060   33.8710   42.6750 N   0  0  0  0  0  0  0  0  0  0  0  0
   40.5030   35.6870   40.6050 C   0  0  0  0  0  0  0  0  0  0  0  0
   41.4430   35.5710   41.6510 C   0  0  0  0  0  0  0  0  0  0  0  0
   42.7500   35.2430   41.2850 C   0  0  0  0  0  0  0  0  0  0  0  0
   43.0660   35.0520   39.9810 N   0  0  0  0  0  0  0  0  0  0  0  0
   42.1300   35.1740   39.0070 C   0  0  0  0  0  0  0  0  0  0  0  0
   40.8480   35.4930   39.3270 N   0  0  0  0  0  0  0  0  0  0  0  0
   45.7100   32.7390   44.2590 C   0  0  0  0  0  0  0  0  0  0  0  0
   46.2930   33.2810   45.8960 S   0  0  0  0  0  0  0  0  0  0  0  0
   45.8250   32.0460   47.1160 C   0  0  0  0  0  0  0  0  0  0  0  0
   45.6620   32.4150   48.4340 C   0  0  0  0  0  0  0  0  0  0  0  0
   45.3000   31.4290   49.3440 C   0  0  0  0  0  0  0  0  0  0  0  0
   45.1210   30.1320   48.8900 C   0  0  0  0  0  0  0  0  0  0  0  0
   45.2950   29.8100   47.5580 C   0  0  0  0  0  0  0  0  0  0  0  0
   45.6590   30.7800   46.6180 C   0  0  0  0  0  0  0  0  0  0  0  0
   39.4608   35.9433   40.8463 H   0  0  0  0  0  0  0  0  0  0  0  0
   41.1603   35.7309   42.7020 H   0  0  0  0  0  0  0  0  0  0  0  0
   42.4092   35.0143   37.9551 H   0  0  0  0  0  0  0  0  0  0  0  0
   44.9525   31.9497   44.3735 H   0  0  0  0  0  0  0  0  0  0  0  0
   46.5444   32.3341   43.6675 H   0  0  0  0  0  0  0  0  0  0  0  0
   45.8135   33.4561   48.7551 H   0  0  0  0  0  0  0  0  0  0  0  0
   45.1579   31.6740   50.4069 H   0  0  0  0  0  0  0  0  0  0  0  0
   44.8352   29.3447   49.6031 H   0  0  0  0  0  0  0  0  0  0  0  0
   45.1444   28.7708   47.2301 H   0  0  0  0  0  0  0  0  0  0  0  0
   45.8020   30.5431   45.5534 H   0  0  0  0  0  0  0  0  0  0  0  0
  1  5  1  0
  1  2  2  0
  2  3  1  0
  4  3  1  0
  4 12  1  0
  5  4  2  0
  6  7  2  0
  8  7  1  0
  8  1  1  0
  9  8  2  0
 10 11  2  0
 10  9  1  0
 11  6  1  0
 12 13  1  0
 13 14  1  0
 14 15  2  0
 15 16  1  0
 17 16  2  0
 18 17  1  0
 19 14  1  0
 19 18  2  0
  6 20  1  0
  7 21  1  0
 10 22  1  0
 12 23  1  0
 12 24  1  0
 15 25  1  0
 16 26  1  0
 17 27  1  0
 18 28  1  0
 19 29  1  0
M  ISO  8  20  14  21  14  22  14  23   8  24   8  25  14  26  14  27  14
M  ISO  2  28  14  29  14
M  END
>  <minimizedAffinity>  (1) 
-5.39140034

>  <minimizedRMSD>  (1) 
8.11592197

$$$$
