
     RDKit          3D

 27 29  0  0  0  0  0  0  0  0999 V2000
   45.8090   34.1530   41.6960 C   0  0  0  0  0  0  0  0  0  0  0  0
   45.1780   33.9880   40.5260 N   0  0  0  0  0  0  0  0  0  0  0  0
   46.0290   33.6450   39.6110 O   0  0  0  0  0  0  0  0  0  0  0  0
   47.2350   33.5780   40.1750 C   0  0  0  0  0  0  0  0  0  0  0  0
   47.0850   33.8960   41.4710 N   0  0  0  0  0  0  0  0  0  0  0  0
   44.4670   35.9760   44.6990 C   0  0  0  0  0  0  0  0  0  0  0  0
   44.7690   35.7330   43.3470 C   0  0  0  0  0  0  0  0  0  0  0  0
   45.4390   34.5220   43.0650 C   0  0  0  0  0  0  0  0  0  0  0  0
   45.7660   33.6520   44.0580 N   0  0  0  0  0  0  0  0  0  0  0  0
   45.4400   33.9570   45.3470 C   0  0  0  0  0  0  0  0  0  0  0  0
   44.7950   35.1110   45.6640 N   0  0  0  0  0  0  0  0  0  0  0  0
   48.5180   33.2210   39.5050 C   0  0  0  0  0  0  0  0  0  0  0  0
   49.2180   31.7890   40.3700 S   0  0  0  0  0  0  0  0  0  0  0  0
   50.8910   31.5910   39.7750 C   0  0  0  0  0  0  0  0  0  0  0  0
   52.0440   31.3340   40.5010 C   0  0  0  0  0  0  0  0  0  0  0  0
   53.2360   31.2210   39.8190 C   0  0  0  0  0  0  0  0  0  0  0  0
   53.2850   31.3560   38.4840 N   0  0  0  0  0  0  0  0  0  0  0  0
   52.1610   31.6060   37.7860 C   0  0  0  0  0  0  0  0  0  0  0  0
   50.9640   31.7240   38.4220 N   0  0  0  0  0  0  0  0  0  0  0  0
   43.9453   36.9056   44.9705 H   0  0  0  0  0  0  0  0  0  0  0  0
   44.4987   36.4458   42.5540 H   0  0  0  0  0  0  0  0  0  0  0  0
   45.7053   33.2525   46.1490 H   0  0  0  0  0  0  0  0  0  0  0  0
   48.3313   32.9667   38.4512 H   0  0  0  0  0  0  0  0  0  0  0  0
   49.2175   34.0693   39.5393 H   0  0  0  0  0  0  0  0  0  0  0  0
   52.0080   31.2230   41.5948 H   0  0  0  0  0  0  0  0  0  0  0  0
   54.1618   31.0170   40.3769 H   0  0  0  0  0  0  0  0  0  0  0  0
   52.2109   31.7157   36.6926 H   0  0  0  0  0  0  0  0  0  0  0  0
  1  8  1  0
  2  1  2  0
  3  4  1  0
  3  2  1  0
  4  5  2  0
  5  1  1  0
  6 11  2  0
  7  6  1  0
  8  7  2  0
  8  9  1  0
  9 10  2  0
 10 11  1  0
 12  4  1  0
 12 13  1  0
 14 13  1  0
 14 15  2  0
 16 15  1  0
 17 16  2  0
 18 19  2  0
 18 17  1  0
 19 14  1  0
  6 20  1  0
  7 21  1  0
 10 22  1  0
 12 23  1  0
 12 24  1  0
 15 25  1  0
 16 26  1  0
 18 27  1  0
M  ISO  8  20  14  21  14  22  14  23   8  24   8  25  14  26  14  27  14
M  END
>  <minimizedAffinity>  (1) 
-4.38203239

>  <minimizedRMSD>  (1) 
1.29837191

$$$$
