
     RDKit          3D

 31 33  0  0  1  0  0  0  0  0999 V2000
   45.5790   34.1700   41.7050 C   0  0  0  0  0  0  0  0  0  0  0  0
   44.8820   33.6660   40.6580 N   0  0  0  0  0  0  0  0  0  0  0  0
   45.6550   33.5350   39.6280 O   0  0  0  0  0  0  0  0  0  0  0  0
   46.8550   33.9420   39.9670 C   0  0  0  0  0  0  0  0  0  0  0  0
   46.8110   34.3400   41.2660 N   0  0  0  0  0  0  0  0  0  0  0  0
   44.4470   35.9960   44.7890 C   0  0  0  0  0  0  0  0  0  0  0  0
   44.6750   35.7490   43.4210 C   0  0  0  0  0  0  0  0  0  0  0  0
   45.2920   34.5340   43.0870 C   0  0  0  0  0  0  0  0  0  0  0  0
   45.6410   33.6600   44.0490 N   0  0  0  0  0  0  0  0  0  0  0  0
   45.4050   33.9330   45.3620 C   0  0  0  0  0  0  0  0  0  0  0  0
   44.8050   35.1080   45.7150 N   0  0  0  0  0  0  0  0  0  0  0  0
   48.1180   33.9970   39.1420 C   0  0  0  0  0  0  0  0  0  0  0  0
   48.2420   32.4540   38.2210 S   0  0  0  0  0  0  0  0  0  0  0  0
   50.7390   32.7550   37.4400 N   0  0  0  0  0  0  0  0  0  0  0  0
   50.9980   31.4900   38.0940 C   0  0  0  0  0  0  0  0  0  0  0  0
   50.5210   30.4250   37.1280 C   0  0  0  0  0  0  0  0  0  0  0  0
   49.6330   31.2030   36.1740 C   0  0  0  0  0  0  0  0  0  0  0  0
   49.4100   32.5210   36.8730 C   0  0  1  0  0  0  0  0  0  0  0  0
   43.9662   36.9362   45.0971 H   0  0  0  0  0  0  0  0  0  0  0  0
   44.3824   36.4761   42.6492 H   0  0  0  0  0  0  0  0  0  0  0  0
   45.6970   33.2087   46.1367 H   0  0  0  0  0  0  0  0  0  0  0  0
   48.0726   34.8464   38.4446 H   0  0  0  0  0  0  0  0  0  0  0  0
   48.9958   34.1281   39.7918 H   0  0  0  0  0  0  0  0  0  0  0  0
   50.7288   33.5329   38.1151 H   0  0  0  0  0  0  0  0  0  0  0  0
   52.0737   31.3739   38.2926 H   0  0  0  0  0  0  0  0  0  0  0  0
   50.4820   31.4203   39.0630 H   0  0  0  0  0  0  0  0  0  0  0  0
   51.3673   29.9665   36.5955 H   0  0  0  0  0  0  0  0  0  0  0  0
   50.0005   29.5921   37.6233 H   0  0  0  0  0  0  0  0  0  0  0  0
   48.6789   30.6795   36.0135 H   0  0  0  0  0  0  0  0  0  0  0  0
   50.0855   31.3237   35.1787 H   0  0  0  0  0  0  0  0  0  0  0  0
   49.0047   33.2796   36.1873 H   0  0  0  0  0  0  0  0  0  0  0  0
  1  8  1  0
  2  1  2  0
  3  4  1  0
  3  2  1  0
  4  5  2  0
  5  1  1  0
  6 11  2  0
  7  6  1  0
  8  7  2  0
  8  9  1  0
  9 10  2  0
 10 11  1  0
 12  4  1  0
 13 12  1  0
 14 15  1  0
 16 15  1  0
 17 18  1  0
 17 16  1  0
 18 14  1  0
 18 13  1  0
  6 19  1  0
  7 20  1  0
 10 21  1  0
 12 22  1  0
 12 23  1  0
 14 24  1  0
 15 25  1  0
 15 26  1  0
 16 27  1  0
 16 28  1  0
 17 29  1  0
 17 30  1  0
 18 31  1  6
M  ISO  8  19  14  20  14  21  14  22   8  23   8  24   5  25  13  26  13
M  ISO  5  27  13  28  13  29  13  30  13  31  13
M  END
>  <minimizedAffinity>  (1) 
-4.25479889

>  <minimizedRMSD>  (1) 
2.64952755

$$$$
