
     RDKit          3D

 26 28  0  0  0  0  0  0  0  0999 V2000
   45.4740   34.1300   41.6370 C   0  0  0  0  0  0  0  0  0  0  0  0
   44.7290   33.6300   40.6180 N   0  0  0  0  0  0  0  0  0  0  0  0
   45.4760   33.4860   39.5630 O   0  0  0  0  0  0  0  0  0  0  0  0
   46.6980   33.8840   39.8770 C   0  0  0  0  0  0  0  0  0  0  0  0
   46.6920   34.2810   41.1590 N   0  0  0  0  0  0  0  0  0  0  0  0
   44.4580   35.9670   44.7440 C   0  0  0  0  0  0  0  0  0  0  0  0
   44.6290   35.7400   43.3590 C   0  0  0  0  0  0  0  0  0  0  0  0
   45.2330   34.5070   43.0340 C   0  0  0  0  0  0  0  0  0  0  0  0
   45.6130   33.6230   43.9740 N   0  0  0  0  0  0  0  0  0  0  0  0
   45.4130   33.9170   45.2960 C   0  0  0  0  0  0  0  0  0  0  0  0
   44.8320   35.0970   45.6660 N   0  0  0  0  0  0  0  0  0  0  0  0
   47.9030   33.9040   38.9860 C   0  0  0  0  0  0  0  0  0  0  0  0
   48.5290   32.2130   38.8640 S   0  0  0  0  0  0  0  0  0  0  0  0
   49.9850   31.9990   39.8430 C   0  0  0  0  0  0  0  0  0  0  0  0
   49.8820   32.4700   41.1560 C   0  0  0  0  0  0  0  0  0  0  0  0
   51.0950   32.2320   41.7940 C   0  0  0  0  0  0  0  0  0  0  0  0
   51.8880   31.6180   40.8200 C   0  0  0  0  0  0  0  0  0  0  0  0
   51.2060   31.5020   39.7020 O   0  0  0  0  0  0  0  0  0  0  0  0
   43.9930   36.9096   45.0686 H   0  0  0  0  0  0  0  0  0  0  0  0
   44.3159   36.4671   42.5953 H   0  0  0  0  0  0  0  0  0  0  0  0
   45.7229   33.1967   46.0674 H   0  0  0  0  0  0  0  0  0  0  0  0
   47.6241   34.2726   37.9878 H   0  0  0  0  0  0  0  0  0  0  0  0
   48.6748   34.5703   39.3989 H   0  0  0  0  0  0  0  0  0  0  0  0
   48.9974   32.9451   41.6051 H   0  0  0  0  0  0  0  0  0  0  0  0
   51.3688   32.4728   42.8318 H   0  0  0  0  0  0  0  0  0  0  0  0
   52.9253   31.2828   40.9668 H   0  0  0  0  0  0  0  0  0  0  0  0
  1  8  1  0
  2  1  2  0
  3  4  1  0
  3  2  1  0
  4  5  2  0
  5  1  1  0
  6 11  2  0
  7  6  1  0
  8  7  2  0
  8  9  1  0
  9 10  2  0
 10 11  1  0
 12  4  1  0
 13 12  1  0
 13 14  1  0
 14 15  2  0
 15 16  1  0
 17 16  2  0
 18 14  1  0
 18 17  1  0
  6 19  1  0
  7 20  1  0
 10 21  1  0
 12 22  1  0
 12 23  1  0
 15 24  1  0
 16 25  1  0
 17 26  1  0
M  ISO  8  19  14  20  14  21  14  22   8  23   8  24  14  25  14  26  14
M  END
>  <minimizedAffinity>  (1) 
-4.21304607

>  <minimizedRMSD>  (1) 
1.0407753

$$$$
