
     RDKit          3D

 32 34  0  0  0  0  0  0  0  0999 V2000
   45.7060   34.1730   41.6600 C   0  0  0  0  0  0  0  0  0  0  0  0
   45.0400   33.9240   40.5260 N   0  0  0  0  0  0  0  0  0  0  0  0
   45.8590   33.6310   39.5650 O   0  0  0  0  0  0  0  0  0  0  0  0
   47.0800   33.6830   40.0540 C   0  0  0  0  0  0  0  0  0  0  0  0
   46.9950   34.0200   41.3610 N   0  0  0  0  0  0  0  0  0  0  0  0
   44.4640   35.9920   44.7090 C   0  0  0  0  0  0  0  0  0  0  0  0
   44.7350   35.7430   43.3500 C   0  0  0  0  0  0  0  0  0  0  0  0
   45.3720   34.5430   43.0370 C   0  0  0  0  0  0  0  0  0  0  0  0
   45.7060   33.6670   44.0200 N   0  0  0  0  0  0  0  0  0  0  0  0
   45.4250   33.9490   45.3070 C   0  0  0  0  0  0  0  0  0  0  0  0
   44.7980   35.1230   45.6510 N   0  0  0  0  0  0  0  0  0  0  0  0
   48.3680   33.4230   39.3380 C   0  0  0  0  0  0  0  0  0  0  0  0
   49.3260   32.2330   40.3060 S   0  0  0  0  0  0  0  0  0  0  0  0
   50.2830   31.1200   39.2650 C   0  0  0  0  0  0  0  0  0  0  0  0
   51.5290   30.6170   39.9780 C   0  0  0  0  0  0  0  0  0  0  0  0
   52.6820   31.3460   39.3300 C   0  0  0  0  0  0  0  0  0  0  0  0
   52.2310   31.6650   37.9170 C   0  0  0  0  0  0  0  0  0  0  0  0
   50.7180   31.7190   37.9620 C   0  0  0  0  0  0  0  0  0  0  0  0
   43.9638   36.9291   44.9947 H   0  0  0  0  0  0  0  0  0  0  0  0
   44.4559   36.4648   42.5682 H   0  0  0  0  0  0  0  0  0  0  0  0
   45.7009   33.2305   46.0929 H   0  0  0  0  0  0  0  0  0  0  0  0
   48.1617   33.0100   38.3396 H   0  0  0  0  0  0  0  0  0  0  0  0
   48.9330   34.3597   39.2224 H   0  0  0  0  0  0  0  0  0  0  0  0
   49.5889   30.2938   39.0514 H   0  0  0  0  0  0  0  0  0  0  0  0
   51.4796   30.8517   41.0515 H   0  0  0  0  0  0  0  0  0  0  0  0
   51.6360   29.5254   39.8949 H   0  0  0  0  0  0  0  0  0  0  0  0
   52.9055   32.2728   39.8787 H   0  0  0  0  0  0  0  0  0  0  0  0
   53.5980   30.7370   39.3337 H   0  0  0  0  0  0  0  0  0  0  0  0
   52.5646   30.8794   37.2231 H   0  0  0  0  0  0  0  0  0  0  0  0
   52.6571   32.6156   37.5638 H   0  0  0  0  0  0  0  0  0  0  0  0
   50.3776   32.7630   37.8966 H   0  0  0  0  0  0  0  0  0  0  0  0
   50.2858   31.1628   37.1171 H   0  0  0  0  0  0  0  0  0  0  0  0
  1  8  1  0
  2  1  2  0
  3  4  1  0
  3  2  1  0
  4  5  2  0
  5  1  1  0
  6 11  2  0
  7  6  1  0
  8  7  2  0
  8  9  1  0
  9 10  2  0
 10 11  1  0
 12  4  1  0
 12 13  1  0
 14 15  1  0
 14 13  1  0
 16 15  1  0
 17 18  1  0
 17 16  1  0
 18 14  1  0
  6 19  1  0
  7 20  1  0
 10 21  1  0
 12 22  1  0
 12 23  1  0
 14 24  1  0
 15 25  1  0
 15 26  1  0
 16 27  1  0
 16 28  1  0
 17 29  1  0
 17 30  1  0
 18 31  1  0
 18 32  1  0
M  ISO  8  19  14  20  14  21  14  22   8  23   8  24  13  25  13  26  13
M  ISO  6  27  13  28  13  29  13  30  13  31  13  32  13
M  END
>  <minimizedAffinity>  (1) 
-4.11064672

>  <minimizedRMSD>  (1) 
0.925412059

$$$$
