
     RDKit          3D

 26 28  0  0  0  0  0  0  0  0999 V2000
   45.5820   34.1440   41.6420 C   0  0  0  0  0  0  0  0  0  0  0  0
   44.9080   33.6000   40.6210 N   0  0  0  0  0  0  0  0  0  0  0  0
   45.6940   33.4940   39.5900 O   0  0  0  0  0  0  0  0  0  0  0  0
   46.8820   33.9650   39.9240 C   0  0  0  0  0  0  0  0  0  0  0  0
   46.8250   34.3740   41.2030 N   0  0  0  0  0  0  0  0  0  0  0  0
   44.4590   35.9660   44.7320 C   0  0  0  0  0  0  0  0  0  0  0  0
   44.6700   35.7390   43.3600 C   0  0  0  0  0  0  0  0  0  0  0  0
   45.2950   34.5190   43.0340 C   0  0  0  0  0  0  0  0  0  0  0  0
   45.6550   33.6510   43.9970 N   0  0  0  0  0  0  0  0  0  0  0  0
   45.4300   33.9160   45.3070 C   0  0  0  0  0  0  0  0  0  0  0  0
   44.8220   35.0960   45.6580 N   0  0  0  0  0  0  0  0  0  0  0  0
   48.0850   34.0350   39.0430 C   0  0  0  0  0  0  0  0  0  0  0  0
   48.7940   32.3780   38.9100 S   0  0  0  0  0  0  0  0  0  0  0  0
   49.7900   31.9720   40.3480 C   0  0  0  0  0  0  0  0  0  0  0  0
   50.1090   32.7450   41.4700 C   0  0  0  0  0  0  0  0  0  0  0  0
   50.8900   32.1590   42.4240 C   0  0  0  0  0  0  0  0  0  0  0  0
   51.3180   30.8940   42.2640 C   0  0  0  0  0  0  0  0  0  0  0  0
   50.6450   30.3060   40.6520 S   0  0  0  0  0  0  0  0  0  0  0  0
   43.9740   36.9022   45.0457 H   0  0  0  0  0  0  0  0  0  0  0  0
   44.3670   36.4660   42.5921 H   0  0  0  0  0  0  0  0  0  0  0  0
   45.7311   33.1939   46.0803 H   0  0  0  0  0  0  0  0  0  0  0  0
   47.7940   34.3955   38.0453 H   0  0  0  0  0  0  0  0  0  0  0  0
   48.8247   34.7289   39.4689 H   0  0  0  0  0  0  0  0  0  0  0  0
   49.7468   33.7780   41.5783 H   0  0  0  0  0  0  0  0  0  0  0  0
   51.1700   32.7229   43.3260 H   0  0  0  0  0  0  0  0  0  0  0  0
   51.9479   30.3211   42.9605 H   0  0  0  0  0  0  0  0  0  0  0  0
  1  8  1  0
  2  1  2  0
  3  4  1  0
  3  2  1  0
  4  5  2  0
  5  1  1  0
  6 11  2  0
  7  6  1  0
  8  7  2  0
  8  9  1  0
  9 10  2  0
 10 11  1  0
 12  4  1  0
 13 12  1  0
 13 14  1  0
 14 18  1  0
 14 15  2  0
 15 16  1  0
 17 16  2  0
 18 17  1  0
  6 19  1  0
  7 20  1  0
 10 21  1  0
 12 22  1  0
 12 23  1  0
 15 24  1  0
 16 25  1  0
 17 26  1  0
M  ISO  8  19  14  20  14  21  14  22   8  23   8  24  14  25  14  26  14
M  END
>  <minimizedAffinity>  (1) 
-4.10732794

>  <minimizedRMSD>  (1) 
0.544614911

$$$$
