
     RDKit          3D

 26 28  0  0  0  0  0  0  0  0999 V2000
   45.6740   34.1350   41.7020 C   0  0  0  0  0  0  0  0  0  0  0  0
   45.0550   33.5260   40.6780 N   0  0  0  0  0  0  0  0  0  0  0  0
   45.8360   33.4530   39.6470 O   0  0  0  0  0  0  0  0  0  0  0  0
   46.9840   34.0160   39.9840 C   0  0  0  0  0  0  0  0  0  0  0  0
   46.8800   34.4380   41.2570 N   0  0  0  0  0  0  0  0  0  0  0  0
   44.4590   35.9810   44.7340 C   0  0  0  0  0  0  0  0  0  0  0  0
   44.7170   35.7230   43.3810 C   0  0  0  0  0  0  0  0  0  0  0  0
   45.3510   34.5110   43.0680 C   0  0  0  0  0  0  0  0  0  0  0  0
   45.6880   33.6390   44.0620 N   0  0  0  0  0  0  0  0  0  0  0  0
   45.4090   33.9480   45.3570 C   0  0  0  0  0  0  0  0  0  0  0  0
   44.7990   35.1140   45.6830 N   0  0  0  0  0  0  0  0  0  0  0  0
   48.2180   34.1840   39.1310 C   0  0  0  0  0  0  0  0  0  0  0  0
   48.8200   32.5300   38.6980 S   0  0  0  0  0  0  0  0  0  0  0  0
   48.3070   32.0650   37.0400 C   0  0  0  0  0  0  0  0  0  0  0  0
   48.5210   32.9830   35.8770 C   0  0  0  0  0  0  0  0  0  0  0  0
   47.1280   32.7100   36.4180 C   0  0  0  0  0  0  0  0  0  0  0  0
   43.9642   36.9217   45.0172 H   0  0  0  0  0  0  0  0  0  0  0  0
   44.4342   36.4408   42.5969 H   0  0  0  0  0  0  0  0  0  0  0  0
   45.6829   33.2400   46.1530 H   0  0  0  0  0  0  0  0  0  0  0  0
   47.9681   34.7426   38.2170 H   0  0  0  0  0  0  0  0  0  0  0  0
   48.9908   34.7436   39.6784 H   0  0  0  0  0  0  0  0  0  0  0  0
   48.5989   31.0270   37.2576 H   0  0  0  0  0  0  0  0  0  0  0  0
   48.8246   32.5775   34.9006 H   0  0  0  0  0  0  0  0  0  0  0  0
   49.1271   33.8811   35.6873 H   0  0  0  0  0  0  0  0  0  0  0  0
   46.5830   33.4983   36.9580 H   0  0  0  0  0  0  0  0  0  0  0  0
   46.1815   32.3519   35.9868 H   0  0  0  0  0  0  0  0  0  0  0  0
  1  8  1  0
  2  1  2  0
  3  4  1  0
  3  2  1  0
  4  5  2  0
  5  1  1  0
  6 11  2  0
  7  6  1  0
  8  7  2  0
  8  9  1  0
  9 10  2  0
 10 11  1  0
 12  4  1  0
 13 12  1  0
 14 13  1  0
 15 16  1  0
 15 14  1  0
 16 14  1  0
  6 17  1  0
  7 18  1  0
 10 19  1  0
 12 20  1  0
 12 21  1  0
 14 22  1  0
 15 23  1  0
 15 24  1  0
 16 25  1  0
 16 26  1  0
M  ISO  8  17  14  18  14  19  14  20   8  21   8  22  13  23  13  24  13
M  ISO  2  25  13  26  13
M  END
>  <minimizedAffinity>  (1) 
-3.82670832

>  <minimizedRMSD>  (1) 
0.728416502

$$$$
