
     RDKit          3D

 45 48  0  0  0  0  0  0  0  0999 V2000
   46.3760   34.0200   40.9870 S   0  0  0  0  0  0  0  0  0  0  0  0
   46.8910   33.1050   42.3810 C   0  0  0  0  0  0  0  0  0  0  0  0
   47.8020   32.0780   42.2310 C   0  0  0  0  0  0  0  0  0  0  0  0
   48.0290   31.5030   43.4530 N   0  0  0  0  0  0  0  0  0  0  0  0
   47.2590   32.1740   44.3560 C   0  0  0  0  0  0  0  0  0  0  0  0
   47.0390   32.0450   45.7280 C   0  0  0  0  0  0  0  0  0  0  0  0
   46.1460   32.8940   46.3670 C   0  0  0  0  0  0  0  0  0  0  0  0
   45.4700   33.8860   45.6520 C   0  0  0  0  0  0  0  0  0  0  0  0
   45.6690   34.0530   44.2820 C   0  0  0  0  0  0  0  0  0  0  0  0
   46.5390   33.1900   43.6870 C   0  0  0  0  0  0  0  0  0  0  0  0
   45.1180   35.3020   43.8110 C   0  0  0  0  0  0  0  0  0  0  0  0
   44.6490   36.4560   44.4910 C   0  0  0  0  0  0  0  0  0  0  0  0
   46.0150   35.9600   42.7600 C   0  0  0  0  0  0  0  0  0  0  0  0
   43.9780   34.8890   42.7300 C   0  0  0  0  0  0  0  0  0  0  0  0
   46.4950   33.0570   39.4300 C   0  0  0  0  0  0  0  0  0  0  0  0
   42.9410   33.1690   38.7240 C   0  0  0  0  0  0  0  0  0  0  0  0
   43.3850   32.2980   37.8180 N   0  0  0  0  0  0  0  0  0  0  0  0
   44.6740   32.1360   37.9310 O   0  0  0  0  0  0  0  0  0  0  0  0
   45.1000   32.8990   38.9120 C   0  0  0  0  0  0  0  0  0  0  0  0
   44.0030   33.5070   39.3590 N   0  0  0  0  0  0  0  0  0  0  0  0
   40.0620   34.6160   40.6430 C   0  0  0  0  0  0  0  0  0  0  0  0
   41.3410   34.0510   40.4190 C   0  0  0  0  0  0  0  0  0  0  0  0
   41.6530   33.7450   39.1040 C   0  0  0  0  0  0  0  0  0  0  0  0
   40.7670   33.9800   38.1000 N   0  0  0  0  0  0  0  0  0  0  0  0
   39.5560   34.5240   38.3890 C   0  0  0  0  0  0  0  0  0  0  0  0
   39.2090   34.8380   39.6510 N   0  0  0  0  0  0  0  0  0  0  0  0
   48.2695   31.7715   41.2836 H   0  0  0  0  0  0  0  0  0  0  0  0
   48.6608   30.7142   43.6519 H   0  0  0  0  0  0  0  0  0  0  0  0
   47.5720   31.2724   46.3016 H   0  0  0  0  0  0  0  0  0  0  0  0
   45.9687   32.7848   47.4471 H   0  0  0  0  0  0  0  0  0  0  0  0
   44.7675   34.5478   46.1798 H   0  0  0  0  0  0  0  0  0  0  0  0
   44.7149   36.2938   45.5770 H   0  0  0  0  0  0  0  0  0  0  0  0
   45.2663   37.3225   44.2115 H   0  0  0  0  0  0  0  0  0  0  0  0
   43.6022   36.6462   44.2115 H   0  0  0  0  0  0  0  0  0  0  0  0
   46.8042   36.5389   43.2621 H   0  0  0  0  0  0  0  0  0  0  0  0
   46.4740   35.1828   42.1313 H   0  0  0  0  0  0  0  0  0  0  0  0
   45.4115   36.6312   42.1313 H   0  0  0  0  0  0  0  0  0  0  0  0
   43.0718   34.5607   43.2601 H   0  0  0  0  0  0  0  0  0  0  0  0
   43.7392   35.7578   42.0989 H   0  0  0  0  0  0  0  0  0  0  0  0
   44.3510   34.0689   42.0989 H   0  0  0  0  0  0  0  0  0  0  0  0
   47.1123   33.5970   38.6970 H   0  0  0  0  0  0  0  0  0  0  0  0
   46.9640   32.0777   39.6063 H   0  0  0  0  0  0  0  0  0  0  0  0
   39.7668   34.8786   41.6696 H   0  0  0  0  0  0  0  0  0  0  0  0
   42.0468   33.8655   41.2421 H   0  0  0  0  0  0  0  0  0  0  0  0
   38.8428   34.7121   37.5729 H   0  0  0  0  0  0  0  0  0  0  0  0
  1  2  1  0
  2 10  1  0
  3  2  2  0
  3  4  1  0
  4  5  1  0
  5  6  2  0
  6  7  1  0
  8  7  2  0
  9  8  1  0
 10  9  2  0
 10  5  1  0
 11  9  1  0
 11 12  1  0
 13 11  1  0
 14 11  1  0
 15  1  1  0
 16 23  1  0
 16 20  1  0
 17 18  1  0
 17 16  2  0
 18 19  1  0
 19 20  2  0
 19 15  1  0
 22 21  2  0
 23 22  1  0
 24 25  1  0
 24 23  2  0
 25 26  2  0
 26 21  1  0
  3 27  1  0
  4 28  1  0
  6 29  1  0
  7 30  1  0
  8 31  1  0
 12 32  1  0
 12 33  1  0
 12 34  1  0
 13 35  1  0
 13 36  1  0
 13 37  1  0
 14 38  1  0
 14 39  1  0
 14 40  1  0
 15 41  1  0
 15 42  1  0
 21 43  1  0
 22 44  1  0
 25 45  1  0
M  ISO  8  27  14  28   9  29  14  30  14  31  14  32   8  33   8  34   8
M  ISO  8  35   8  36   8  37   8  38   8  39   8  40   8  41   8  42   8
M  ISO  3  43  14  44  14  45  14
M  END
>  <minimizedAffinity>  (1) 
-5.31615305

>  <minimizedRMSD>  (1) 
2.07662392

$$$$
