
     RDKit          3D

 25 26  0  0  0  0  0  0  0  0999 V2000
   46.0210   33.8460   44.7950 C   0  0  0  0  0  0  0  0  0  0  0  0
   46.3080   34.3320   43.4990 C   0  0  0  0  0  0  0  0  0  0  0  0
   45.6490   35.4920   43.1210 C   0  0  0  0  0  0  0  0  0  0  0  0
   44.7890   36.0760   43.9950 N   0  0  0  0  0  0  0  0  0  0  0  0
   44.5490   35.5730   45.2220 C   0  0  0  0  0  0  0  0  0  0  0  0
   45.1570   34.4640   45.6290 N   0  0  0  0  0  0  0  0  0  0  0  0
   46.7260   32.6350   45.1560 C   0  0  0  0  0  0  0  0  0  0  0  0
   47.5210   32.0130   44.3710 O   0  0  0  0  0  0  0  0  0  0  0  0
   46.5350   32.0910   46.4560 N   0  0  0  0  0  0  0  0  0  0  0  0
   47.4170   31.0850   47.0180 C   0  0  0  0  0  0  0  0  0  0  0  0
   47.9100   31.6130   48.3420 C   0  0  0  0  0  0  0  0  0  0  0  0
   46.8520   31.8750   49.1750 O   0  0  0  0  0  0  0  0  0  0  0  0
   45.6030   31.7520   48.6150 C   0  0  0  0  0  0  0  0  0  0  0  0
   45.4490   32.5040   47.2970 C   0  0  0  0  0  0  0  0  0  0  0  0
   47.0137   33.8194   42.8288 H   0  0  0  0  0  0  0  0  0  0  0  0
   45.8203   35.9327   42.1278 H   0  0  0  0  0  0  0  0  0  0  0  0
   43.8434   36.0852   45.8926 H   0  0  0  0  0  0  0  0  0  0  0  0
   46.8677   30.1440   47.1686 H   0  0  0  0  0  0  0  0  0  0  0  0
   48.2595   30.8822   46.3405 H   0  0  0  0  0  0  0  0  0  0  0  0
   48.5637   30.8628   48.8109 H   0  0  0  0  0  0  0  0  0  0  0  0
   48.4683   32.5450   48.1695 H   0  0  0  0  0  0  0  0  0  0  0  0
   45.4074   30.6852   48.4318 H   0  0  0  0  0  0  0  0  0  0  0  0
   44.8864   32.1925   49.3238 H   0  0  0  0  0  0  0  0  0  0  0  0
   45.4968   33.5889   47.4720 H   0  0  0  0  0  0  0  0  0  0  0  0
   44.4793   32.2831   46.8271 H   0  0  0  0  0  0  0  0  0  0  0  0
  1  7  1  0
  1  6  1  0
  2  1  2  0
  3  2  1  0
  3  4  2  0
  4  5  1  0
  5  6  2  0
  7  9  1  0
  8  7  2  0
  9 10  1  0
  9 14  1  0
 10 11  1  0
 11 12  1  0
 13 12  1  0
 14 13  1  0
  2 15  1  0
  3 16  1  0
  5 17  1  0
 10 18  1  0
 10 19  1  0
 11 20  1  0
 11 21  1  0
 13 22  1  0
 13 23  1  0
 14 24  1  0
 14 25  1  0
M  ISO  8  15  14  16  14  17  14  18  13  19  13  20  13  21  13  22  13
M  ISO  3  23  13  24  13  25  13
M  END
>  <minimizedAffinity>  (1) 
-4.42157602

>  <minimizedRMSD>  (1) 
5.51801014

$$$$
