
     RDKit          3D

 28 29  0  0  0  0  0  0  0  0999 V2000
   45.5430   34.4010   44.1700 C   0  0  0  0  0  0  0  0  0  0  0  0
   46.6610   33.7370   43.6210 C   0  0  0  0  0  0  0  0  0  0  0  0
   47.3700   32.8490   44.4490 C   0  0  0  0  0  0  0  0  0  0  0  0
   46.9160   32.6970   45.7290 N   0  0  0  0  0  0  0  0  0  0  0  0
   45.8450   33.3510   46.2110 C   0  0  0  0  0  0  0  0  0  0  0  0
   45.1570   34.2030   45.4300 N   0  0  0  0  0  0  0  0  0  0  0  0
   44.8920   35.2800   43.2500 C   0  0  0  0  0  0  0  0  0  0  0  0
   45.2490   36.4690   42.9540 O   0  0  0  0  0  0  0  0  0  0  0  0
   43.6660   34.9310   42.4770 C   0  0  0  0  0  0  0  0  0  0  0  0
   43.6650   35.8310   41.2490 C   0  0  0  0  0  0  0  0  0  0  0  0
   42.7200   35.1790   40.2480 C   0  0  0  0  0  0  0  0  0  0  0  0
   43.4930   34.0080   39.6440 C   0  0  0  0  0  0  0  0  0  0  0  0
   44.4350   33.4050   40.6510 C   0  0  0  0  0  0  0  0  0  0  0  0
   43.8290   33.4930   42.0430 C   0  0  0  0  0  0  0  0  0  0  0  0
   46.9678   33.9088   42.5787 H   0  0  0  0  0  0  0  0  0  0  0  0
   48.2508   32.3011   44.0829 H   0  0  0  0  0  0  0  0  0  0  0  0
   45.5289   33.1882   47.2519 H   0  0  0  0  0  0  0  0  0  0  0  0
   42.7368   35.0575   43.0520 H   0  0  0  0  0  0  0  0  0  0  0  0
   43.3065   36.8368   41.5132 H   0  0  0  0  0  0  0  0  0  0  0  0
   44.6768   35.9431   40.8322 H   0  0  0  0  0  0  0  0  0  0  0  0
   41.8139   34.8178   40.7564 H   0  0  0  0  0  0  0  0  0  0  0  0
   42.3967   35.8913   39.4747 H   0  0  0  0  0  0  0  0  0  0  0  0
   42.7796   33.2387   39.3134 H   0  0  0  0  0  0  0  0  0  0  0  0
   44.0821   34.3796   38.7926 H   0  0  0  0  0  0  0  0  0  0  0  0
   44.6140   32.3498   40.3970 H   0  0  0  0  0  0  0  0  0  0  0  0
   45.3860   33.9576   40.6341 H   0  0  0  0  0  0  0  0  0  0  0  0
   42.8427   33.0060   42.0366 H   0  0  0  0  0  0  0  0  0  0  0  0
   44.5049   32.9898   42.7501 H   0  0  0  0  0  0  0  0  0  0  0  0
  1  6  1  0
  2  1  2  0
  2  3  1  0
  3  4  2  0
  4  5  1  0
  6  5  2  0
  7  1  1  0
  8  7  2  0
  9  7  1  0
 10  9  1  0
 11 10  1  0
 12 11  1  0
 12 13  1  0
 13 14  1  0
 14  9  1  0
  2 15  1  0
  3 16  1  0
  5 17  1  0
  9 18  1  0
 10 19  1  0
 10 20  1  0
 11 21  1  0
 11 22  1  0
 12 23  1  0
 12 24  1  0
 13 25  1  0
 13 26  1  0
 14 27  1  0
 14 28  1  0
M  ISO  8  15  14  16  14  17  14  18  13  19  13  20  13  21  13  22  13
M  ISO  6  23  13  24  13  25  13  26  13  27  13  28  13
M  END
>  <minimizedAffinity>  (1) 
-3.80845571

>  <minimizedRMSD>  (1) 
1.78701985

$$$$
