
     RDKit          3D

 25 26  0  0  0  0  0  0  0  0999 V2000
   46.8740   34.7980   41.6350 C   0  0  0  0  0  0  0  0  0  0  0  0
   46.2580   35.2930   42.7860 C   0  0  0  0  0  0  0  0  0  0  0  0
   44.8630   35.1770   42.8820 C   0  0  0  0  0  0  0  0  0  0  0  0
   44.1980   34.5900   41.8460 N   0  0  0  0  0  0  0  0  0  0  0  0
   44.8430   34.1230   40.7460 C   0  0  0  0  0  0  0  0  0  0  0  0
   46.1650   34.2320   40.6550 N   0  0  0  0  0  0  0  0  0  0  0  0
   48.2990   34.9570   41.6200 C   0  0  0  0  0  0  0  0  0  0  0  0
   48.9380   36.0600   41.6730 O   0  0  0  0  0  0  0  0  0  0  0  0
   49.1120   33.7230   41.5320 C   0  0  0  0  0  0  0  0  0  0  0  0
   48.4510   32.5230   42.1380 C   0  0  0  0  0  0  0  0  0  0  0  0
   49.5920   31.6560   42.6800 C   0  0  0  0  0  0  0  0  0  0  0  0
   50.8600   32.3400   42.1780 C   0  0  0  0  0  0  0  0  0  0  0  0
   50.4150   33.8030   42.3050 C   0  0  0  0  0  0  0  0  0  0  0  0
   46.8465   35.7583   43.5905 H   0  0  0  0  0  0  0  0  0  0  0  0
   44.3225   35.5479   43.7653 H   0  0  0  0  0  0  0  0  0  0  0  0
   44.2720   33.6548   39.9307 H   0  0  0  0  0  0  0  0  0  0  0  0
   49.2588   33.6279   40.4460 H   0  0  0  0  0  0  0  0  0  0  0  0
   47.7778   32.8259   42.9535 H   0  0  0  0  0  0  0  0  0  0  0  0
   47.8398   31.9793   41.4026 H   0  0  0  0  0  0  0  0  0  0  0  0
   49.5728   31.6304   43.7795 H   0  0  0  0  0  0  0  0  0  0  0  0
   49.5192   30.6105   42.3458 H   0  0  0  0  0  0  0  0  0  0  0  0
   51.0899   32.0684   41.1371 H   0  0  0  0  0  0  0  0  0  0  0  0
   51.7820   32.0790   42.7182 H   0  0  0  0  0  0  0  0  0  0  0  0
   51.1310   34.4940   41.8361 H   0  0  0  0  0  0  0  0  0  0  0  0
   50.3322   34.1846   43.3334 H   0  0  0  0  0  0  0  0  0  0  0  0
  1  2  2  0
  2  3  1  0
  4  3  2  0
  5  4  1  0
  6  5  2  0
  6  1  1  0
  7  1  1  0
  7  8  2  0
  9  7  1  0
  9 10  1  0
  9 13  1  0
 10 11  1  0
 12 13  1  0
 12 11  1  0
  2 14  1  0
  3 15  1  0
  5 16  1  0
  9 17  1  0
 10 18  1  0
 10 19  1  0
 11 20  1  0
 11 21  1  0
 12 22  1  0
 12 23  1  0
 13 24  1  0
 13 25  1  0
M  ISO  8  14  14  15  14  16  14  17  13  18  13  19  13  20  13  21  13
M  ISO  4  22  13  23  13  24  13  25  13
M  END
>  <minimizedAffinity>  (1) 
-3.79339004

>  <minimizedRMSD>  (1) 
6.33699179

$$$$
