
     RDKit          3D

 16 16  0  0  0  0  0  0  0  0999 V2000
   46.1900   34.5040   43.6980 C   0  0  0  0  0  0  0  0  0  0  0  0
   46.7270   33.4770   44.4690 C   0  0  0  0  0  0  0  0  0  0  0  0
   46.2150   33.2820   45.7490 C   0  0  0  0  0  0  0  0  0  0  0  0
   45.2150   34.1180   46.1610 N   0  0  0  0  0  0  0  0  0  0  0  0
   44.7310   35.0970   45.3760 C   0  0  0  0  0  0  0  0  0  0  0  0
   45.2100   35.3110   44.1250 N   0  0  0  0  0  0  0  0  0  0  0  0
   46.7940   34.6160   42.3900 C   0  0  0  0  0  0  0  0  0  0  0  0
   46.7260   33.7230   41.4610 O   0  0  0  0  0  0  0  0  0  0  0  0
   47.5310   35.6810   41.9290 O   0  0  0  0  0  0  0  0  0  0  0  0
   48.7900   35.6270   41.3180 C   0  0  0  0  0  0  0  0  0  0  0  0
   48.7460   35.4960   39.9450 F   0  0  0  0  0  0  0  0  0  0  0  0
   49.5120   36.8020   41.5520 F   0  0  0  0  0  0  0  0  0  0  0  0
   49.5070   34.5970   41.9220 F   0  0  0  0  0  0  0  0  0  0  0  0
   47.5326   32.8379   44.0783 H   0  0  0  0  0  0  0  0  0  0  0  0
   46.6002   32.4861   46.4033 H   0  0  0  0  0  0  0  0  0  0  0  0
   43.9255   35.7411   45.7585 H   0  0  0  0  0  0  0  0  0  0  0  0
  1  6  2  0
  1  2  1  0
  2  3  2  0
  3  4  1  0
  5  4  2  0
  6  5  1  0
  7  1  1  0
  8  7  2  0
  9  7  1  0
 10 12  1  0
 10 13  1  0
 10  9  1  0
 11 10  1  0
  2 14  1  0
  3 15  1  0
  5 16  1  0
M  ISO  3  14  14  15  14  16  14
M  END
>  <minimizedAffinity>  (1) 
-4.51260519

>  <minimizedRMSD>  (1) 
4.73167849

$$$$
