
     RDKit          3D

 28 29  0  0  0  0  0  0  0  0999 V2000
   43.9940   34.3250   40.6470 C   0  0  0  0  0  0  0  0  0  0  0  0
   44.7560   33.7100   39.8300 O   0  0  0  0  0  0  0  0  0  0  0  0
   42.7040   34.8800   40.3460 C   0  0  0  0  0  0  0  0  0  0  0  0
   41.9970   35.2780   41.4920 C   0  0  0  0  0  0  0  0  0  0  0  0
   40.7280   35.8330   41.3200 C   0  0  0  0  0  0  0  0  0  0  0  0
   40.2620   35.9520   40.0470 N   0  0  0  0  0  0  0  0  0  0  0  0
   40.9830   35.5540   38.9620 C   0  0  0  0  0  0  0  0  0  0  0  0
   42.2110   35.0140   39.1180 N   0  0  0  0  0  0  0  0  0  0  0  0
   44.6240   34.3650   41.8750 O   0  0  0  0  0  0  0  0  0  0  0  0
   44.7470   34.2160   44.4730 N   0  0  0  0  0  0  0  0  0  0  0  0
   46.1740   33.9810   44.3420 C   0  0  0  0  0  0  0  0  0  0  0  0
   46.6920   34.2210   42.9480 C   0  0  0  0  0  0  0  0  0  0  0  0
   45.7140   35.1590   42.2290 C   0  0  0  0  0  0  0  0  0  0  0  0
   45.3370   36.2100   43.2760 C   0  0  0  0  0  0  0  0  0  0  0  0
   44.4190   35.6160   44.3250 C   0  0  0  0  0  0  0  0  0  0  0  0
   42.4304   35.1560   42.4956 H   0  0  0  0  0  0  0  0  0  0  0  0
   40.1273   36.1618   42.1808 H   0  0  0  0  0  0  0  0  0  0  0  0
   40.5625   35.6732   37.9526 H   0  0  0  0  0  0  0  0  0  0  0  0
   44.2523   33.6788   43.7466 H   0  0  0  0  0  0  0  0  0  0  0  0
   46.7035   34.6545   45.0320 H   0  0  0  0  0  0  0  0  0  0  0  0
   46.3527   32.9216   44.5780 H   0  0  0  0  0  0  0  0  0  0  0  0
   47.6876   34.6863   42.9955 H   0  0  0  0  0  0  0  0  0  0  0  0
   46.7750   33.2686   42.4039 H   0  0  0  0  0  0  0  0  0  0  0  0
   46.1054   35.6544   41.3282 H   0  0  0  0  0  0  0  0  0  0  0  0
   46.2517   36.5783   43.7635 H   0  0  0  0  0  0  0  0  0  0  0  0
   44.8125   37.0366   42.7743 H   0  0  0  0  0  0  0  0  0  0  0  0
   44.5639   36.1356   45.2837 H   0  0  0  0  0  0  0  0  0  0  0  0
   43.3687   35.7294   44.0184 H   0  0  0  0  0  0  0  0  0  0  0  0
  1  9  1  0
  2  1  2  0
  3  1  1  0
  3  4  2  0
  5  4  1  0
  6  5  2  0
  7  8  2  0
  7  6  1  0
  8  3  1  0
  9 13  1  0
 11 10  1  0
 12 11  1  0
 13 12  1  0
 13 14  1  0
 14 15  1  0
 15 10  1  0
  4 16  1  0
  5 17  1  0
  7 18  1  0
 10 19  1  0
 11 20  1  0
 11 21  1  0
 12 22  1  0
 12 23  1  0
 13 24  1  0
 14 25  1  0
 14 26  1  0
 15 27  1  0
 15 28  1  0
M  ISO  8  16  14  17  14  18  14  19   5  20  13  21  13  22  13  23  13
M  ISO  5  24  13  25  13  26  13  27  13  28  13
M  END
>  <minimizedAffinity>  (1) 
-4.37347507

>  <minimizedRMSD>  (1) 
5.65055132

$$$$
