
     RDKit          3D

 22 22  0  0  0  0  0  0  0  0999 V2000
   45.9360   34.6950   43.4030 C   0  0  0  0  0  0  0  0  0  0  0  0
   46.1440   33.7850   44.4200 C   0  0  0  0  0  0  0  0  0  0  0  0
   45.5060   33.9600   45.6410 C   0  0  0  0  0  0  0  0  0  0  0  0
   44.6900   35.0560   45.7560 N   0  0  0  0  0  0  0  0  0  0  0  0
   44.5040   35.9360   44.7360 C   0  0  0  0  0  0  0  0  0  0  0  0
   45.1290   35.7490   43.5680 N   0  0  0  0  0  0  0  0  0  0  0  0
   46.6470   34.4120   42.1880 C   0  0  0  0  0  0  0  0  0  0  0  0
   46.1280   34.4400   41.0070 O   0  0  0  0  0  0  0  0  0  0  0  0
   47.9770   34.0730   42.0890 O   0  0  0  0  0  0  0  0  0  0  0  0
   49.0750   34.8790   42.4200 C   0  0  0  0  0  0  0  0  0  0  0  0
   49.2170   36.0840   41.5250 C   0  0  0  0  0  0  0  0  0  0  0  0
   50.3740   34.0930   42.4250 C   0  0  0  0  0  0  0  0  0  0  0  0
   46.8121   32.9252   44.2639 H   0  0  0  0  0  0  0  0  0  0  0  0
   45.6480   33.2553   46.4736 H   0  0  0  0  0  0  0  0  0  0  0  0
   43.8393   36.8020   44.8714 H   0  0  0  0  0  0  0  0  0  0  0  0
   48.8699   35.2406   43.4384 H   0  0  0  0  0  0  0  0  0  0  0  0
   49.3236   36.9884   42.1419 H   0  0  0  0  0  0  0  0  0  0  0  0
   50.1075   35.9662   40.8900 H   0  0  0  0  0  0  0  0  0  0  0  0
   48.3235   36.1765   40.8900 H   0  0  0  0  0  0  0  0  0  0  0  0
   50.6848   33.9050   43.4633 H   0  0  0  0  0  0  0  0  0  0  0  0
   50.2242   33.1339   41.9077 H   0  0  0  0  0  0  0  0  0  0  0  0
   51.1541   34.6707   41.9077 H   0  0  0  0  0  0  0  0  0  0  0  0
  1  6  2  0
  1  2  1  0
  2  3  2  0
  3  4  1  0
  5  4  2  0
  6  5  1  0
  7  1  1  0
  8  7  2  0
  9  7  1  0
  9 10  1  0
 10 12  1  0
 11 10  1  0
  2 13  1  0
  3 14  1  0
  5 15  1  0
 10 16  1  0
 11 17  1  0
 11 18  1  0
 11 19  1  0
 12 20  1  0
 12 21  1  0
 12 22  1  0
M  ISO  8  13  14  14  14  15  14  16   8  17   8  18   8  19   8  20   8
M  ISO  2  21   8  22   8
M  END
>  <minimizedAffinity>  (1) 
-4.24628973

>  <minimizedRMSD>  (1) 
4.73339128

$$$$
