
     RDKit          3D

 26 27  0  0  0  0  0  0  0  0999 V2000
   47.0930   33.6470   43.8520 C   0  0  0  0  0  0  0  0  0  0  0  0
   48.3060   33.5470   43.1560 C   0  0  0  0  0  0  0  0  0  0  0  0
   48.5010   34.4280   42.0850 C   0  0  0  0  0  0  0  0  0  0  0  0
   47.5100   35.3150   41.7920 N   0  0  0  0  0  0  0  0  0  0  0  0
   46.3570   35.3660   42.5010 C   0  0  0  0  0  0  0  0  0  0  0  0
   46.1610   34.5280   43.5280 N   0  0  0  0  0  0  0  0  0  0  0  0
   46.9760   32.7150   44.9270 C   0  0  0  0  0  0  0  0  0  0  0  0
   47.1310   31.4470   44.8500 O   0  0  0  0  0  0  0  0  0  0  0  0
   46.6790   32.9970   46.2370 O   0  0  0  0  0  0  0  0  0  0  0  0
   46.4610   32.0450   47.2360 C   0  0  0  0  0  0  0  0  0  0  0  0
   47.5780   32.0450   48.2510 C   0  0  0  0  0  0  0  0  0  0  0  0
   46.9840   31.0740   49.2770 C   0  0  0  0  0  0  0  0  0  0  0  0
   45.5080   31.4520   49.3030 C   0  0  0  0  0  0  0  0  0  0  0  0
   45.2560   32.3070   48.0830 C   0  0  0  0  0  0  0  0  0  0  0  0
   49.0710   32.8089   43.4388 H   0  0  0  0  0  0  0  0  0  0  0  0
   49.4298   34.4042   41.4961 H   0  0  0  0  0  0  0  0  0  0  0  0
   45.5799   36.0970   42.2331 H   0  0  0  0  0  0  0  0  0  0  0  0
   46.3621   31.1103   46.6646 H   0  0  0  0  0  0  0  0  0  0  0  0
   48.5196   31.6677   47.8255 H   0  0  0  0  0  0  0  0  0  0  0  0
   47.8532   33.0342   48.6458 H   0  0  0  0  0  0  0  0  0  0  0  0
   47.1180   30.0305   48.9557 H   0  0  0  0  0  0  0  0  0  0  0  0
   47.4639   31.1440   50.2643 H   0  0  0  0  0  0  0  0  0  0  0  0
   44.8843   30.5466   49.2666 H   0  0  0  0  0  0  0  0  0  0  0  0
   45.2554   31.9954   50.2254 H   0  0  0  0  0  0  0  0  0  0  0  0
   45.1860   33.3710   48.3531 H   0  0  0  0  0  0  0  0  0  0  0  0
   44.3090   32.0711   47.5756 H   0  0  0  0  0  0  0  0  0  0  0  0
  1  7  1  0
  2  1  2  0
  3  2  1  0
  4  3  2  0
  4  5  1  0
  5  6  2  0
  6  1  1  0
  7  9  1  0
  8  7  2  0
  9 10  1  0
 10 14  1  0
 10 11  1  0
 11 12  1  0
 12 13  1  0
 14 13  1  0
  2 15  1  0
  3 16  1  0
  5 17  1  0
 10 18  1  0
 11 19  1  0
 11 20  1  0
 12 21  1  0
 12 22  1  0
 13 23  1  0
 13 24  1  0
 14 25  1  0
 14 26  1  0
M  ISO  8  15  14  16  14  17  14  18  13  19  13  20  13  21  13  22  13
M  ISO  4  23  13  24  13  25  13  26  13
M  END
>  <minimizedAffinity>  (1) 
-4.1531868

>  <minimizedRMSD>  (1) 
6.42764664

$$$$
