
     RDKit          3D

 15 15  0  0  0  0  0  0  0  0999 V2000
   45.9280   34.8950   43.3770 C   0  0  0  0  0  0  0  0  0  0  0  0
   46.1640   33.8990   44.3110 C   0  0  0  0  0  0  0  0  0  0  0  0
   45.5170   33.9800   45.5440 C   0  0  0  0  0  0  0  0  0  0  0  0
   44.6880   35.0430   45.7460 N   0  0  0  0  0  0  0  0  0  0  0  0
   44.4880   35.9900   44.8080 C   0  0  0  0  0  0  0  0  0  0  0  0
   45.1090   35.9090   43.6280 N   0  0  0  0  0  0  0  0  0  0  0  0
   46.6500   34.7070   42.1430 C   0  0  0  0  0  0  0  0  0  0  0  0
   46.1340   34.4870   40.9900 O   0  0  0  0  0  0  0  0  0  0  0  0
   48.0370   34.7390   42.0460 O   0  0  0  0  0  0  0  0  0  0  0  0
   48.7680   35.4720   41.1580 C   0  0  0  0  0  0  0  0  0  0  0  0
   49.3440   36.4850   41.5810 O   0  0  0  0  0  0  0  0  0  0  0  0
   46.8449   33.0650   44.0856 H   0  0  0  0  0  0  0  0  0  0  0  0
   45.6695   33.2171   46.3217 H   0  0  0  0  0  0  0  0  0  0  0  0
   43.8113   36.8322   45.0148 H   0  0  0  0  0  0  0  0  0  0  0  0
   48.8439   35.1743   40.1018 H   0  0  0  0  0  0  0  0  0  0  0  0
  1  6  2  0
  1  2  1  0
  2  3  2  0
  3  4  1  0
  5  4  2  0
  6  5  1  0
  7  1  1  0
  8  7  2  0
  9  7  1  0
 10 11  2  0
 10  9  1  0
  2 12  1  0
  3 13  1  0
  5 14  1  0
 10 15  1  0
M  ISO  4  12  14  13  14  14  14  15   6
M  END
>  <minimizedAffinity>  (1) 
-3.77162266

>  <minimizedRMSD>  (1) 
4.00617552

$$$$
