
     RDKit          3D

 16 16  0  0  0  0  0  0  0  0999 V2000
   47.6780   34.0690   42.8120 C   0  0  0  0  0  0  0  0  0  0  0  0
   47.5470   32.9680   41.9830 C   0  0  0  0  0  0  0  0  0  0  0  0
   48.6670   32.4850   41.3170 C   0  0  0  0  0  0  0  0  0  0  0  0
   49.8470   33.1430   41.5300 N   0  0  0  0  0  0  0  0  0  0  0  0
   49.9410   34.2090   42.3420 C   0  0  0  0  0  0  0  0  0  0  0  0
   48.8520   34.6650   42.9790 N   0  0  0  0  0  0  0  0  0  0  0  0
   46.4590   34.4820   43.4480 C   0  0  0  0  0  0  0  0  0  0  0  0
   45.9070   33.8730   44.4400 O   0  0  0  0  0  0  0  0  0  0  0  0
   45.7010   35.5820   43.0960 O   0  0  0  0  0  0  0  0  0  0  0  0
   44.3420   35.6510   43.0080 C   0  0  0  0  0  0  0  0  0  0  0  0
   43.8370   35.6140   41.8580 O   0  0  0  0  0  0  0  0  0  0  0  0
   43.6310   35.7560   44.2160 O   0  0  0  0  0  0  0  0  0  0  0  0
   46.5689   32.4817   41.8531 H   0  0  0  0  0  0  0  0  0  0  0  0
   48.6072   31.6132   40.6489 H   0  0  0  0  0  0  0  0  0  0  0  0
   50.9109   34.7080   42.4846 H   0  0  0  0  0  0  0  0  0  0  0  0
   42.6425   35.8091   44.2055 H   0  0  0  0  0  0  0  0  0  0  0  0
  1  6  2  0
  1  7  1  0
  2  1  1  0
  3  4  1  0
  3  2  2  0
  4  5  2  0
  5  6  1  0
  7  8  2  0
  9  7  1  0
 10  9  1  0
 10 12  1  0
 11 10  2  0
  2 13  1  0
  3 14  1  0
  5 15  1  0
 12 16  1  0
M  ISO  4  13  14  14  14  15  14  16   3
M  END
>  <minimizedAffinity>  (1) 
-3.45226049

>  <minimizedRMSD>  (1) 
3.49990201

$$$$
