
     RDKit          3D

 33 35  0  0  0  0  0  0  0  0999 V2000
   47.9140   34.5640   42.8090 C   0  0  0  0  0  0  0  0  0  0  0  0
   47.5150   33.2090   43.3580 C   0  0  0  0  0  0  0  0  0  0  0  0
   46.5990   33.3500   44.5060 C   0  0  0  0  0  0  0  0  0  0  0  0
   45.8610   34.4510   44.1740 N   0  0  0  0  0  0  0  0  0  0  0  0
   44.9680   35.0180   45.0210 C   0  0  0  0  0  0  0  0  0  0  0  0
   44.7970   34.4740   46.2410 N   0  0  0  0  0  0  0  0  0  0  0  0
   45.4950   33.3780   46.6220 C   0  0  0  0  0  0  0  0  0  0  0  0
   45.3700   32.7020   47.8190 C   0  0  0  0  0  0  0  0  0  0  0  0
   46.1190   31.5510   48.0650 C   0  0  0  0  0  0  0  0  0  0  0  0
   46.9970   31.0660   47.1200 C   0  0  0  0  0  0  0  0  0  0  0  0
   47.1660   31.6960   45.9090 C   0  0  0  0  0  0  0  0  0  0  0  0
   46.3770   32.8440   45.7430 C   0  0  0  0  0  0  0  0  0  0  0  0
   47.4770   34.7280   41.5530 O   0  0  0  0  0  0  0  0  0  0  0  0
   48.2060   34.9260   40.3930 C   0  0  0  0  0  0  0  0  0  0  0  0
   49.0030   35.8310   40.6870 O   0  0  0  0  0  0  0  0  0  0  0  0
   48.0310   34.2090   39.1470 C   0  0  0  0  0  0  0  0  0  0  0  0
   47.3520   33.0230   39.3120 C   0  0  0  0  0  0  0  0  0  0  0  0
   47.2010   32.2520   38.1490 C   0  0  0  0  0  0  0  0  0  0  0  0
   47.7190   32.7240   36.9850 N   0  0  0  0  0  0  0  0  0  0  0  0
   48.3720   33.9070   36.9110 C   0  0  0  0  0  0  0  0  0  0  0  0
   48.5350   34.6670   38.0090 N   0  0  0  0  0  0  0  0  0  0  0  0
   47.4805   35.3501   43.4448 H   0  0  0  0  0  0  0  0  0  0  0  0
   49.0121   34.6278   42.8058 H   0  0  0  0  0  0  0  0  0  0  0  0
   47.0127   32.6342   42.5660 H   0  0  0  0  0  0  0  0  0  0  0  0
   48.4227   32.6883   43.6971 H   0  0  0  0  0  0  0  0  0  0  0  0
   44.3937   35.9058   44.7178 H   0  0  0  0  0  0  0  0  0  0  0  0
   44.6740   33.0739   48.5853 H   0  0  0  0  0  0  0  0  0  0  0  0
   46.0075   31.0245   49.0244 H   0  0  0  0  0  0  0  0  0  0  0  0
   47.5748   30.1559   47.3387 H   0  0  0  0  0  0  0  0  0  0  0  0
   47.8599   31.3312   45.1374 H   0  0  0  0  0  0  0  0  0  0  0  0
   46.9557   32.7021   40.2867 H   0  0  0  0  0  0  0  0  0  0  0  0
   46.6747   31.2865   38.1792 H   0  0  0  0  0  0  0  0  0  0  0  0
   48.7726   34.2498   35.9456 H   0  0  0  0  0  0  0  0  0  0  0  0
  1  2  1  0
  2  3  1  0
  3 12  1  0
  4  3  2  0
  4  5  1  0
  5  6  2  0
  6  7  1  0
  7  8  2  0
  8  9  1  0
 10  9  2  0
 11 10  1  0
 12 11  2  0
 12  7  1  0
 13  1  1  0
 14 15  2  0
 14 13  1  0
 16 17  2  0
 16 14  1  0
 18 17  1  0
 19 18  2  0
 20 19  1  0
 20 21  2  0
 21 16  1  0
  1 22  1  0
  1 23  1  0
  2 24  1  0
  2 25  1  0
  5 26  1  0
  8 27  1  0
  9 28  1  0
 10 29  1  0
 11 30  1  0
 17 31  1  0
 18 32  1  0
 20 33  1  0
M  ISO  8  22   8  23   8  24   8  25   8  26  14  27  14  28  14  29  14
M  ISO  4  30  14  31  14  32  14  33  14
M  END
>  <minimizedAffinity>  (1) 
-5.02111483

>  <minimizedRMSD>  (1) 
7.44445419

$$$$
