
     RDKit          3D

 26 26  0  0  0  0  0  0  0  0999 V2000
   49.4020   35.4190   42.4950 C   0  0  0  0  0  0  0  0  0  0  0  0
   50.0690   34.0950   42.3770 C   0  0  0  0  0  0  0  0  0  0  0  0
   49.3360   32.9100   42.5180 N   0  0  0  0  0  0  0  0  0  0  0  0
   49.5420   32.1340   41.3050 C   0  0  0  0  0  0  0  0  0  0  0  0
   50.2810   32.3340   40.2280 N   0  0  0  0  0  0  0  0  0  0  0  0
   49.0770   30.8970   40.7660 N   0  0  0  0  0  0  0  0  0  0  0  0
   50.8610   33.2060   40.1710 H   0  0  0  0  0  0  0  0  0  0  0  0
   48.2830   35.5170   41.7490 O   0  0  0  0  0  0  0  0  0  0  0  0
   47.0630   34.8630   41.8830 C   0  0  0  0  0  0  0  0  0  0  0  0
   46.8470   34.3480   40.7750 O   0  0  0  0  0  0  0  0  0  0  0  0
   46.2860   34.8430   43.0960 C   0  0  0  0  0  0  0  0  0  0  0  0
   45.3740   35.8690   43.1500 C   0  0  0  0  0  0  0  0  0  0  0  0
   44.6120   35.9120   44.3350 C   0  0  0  0  0  0  0  0  0  0  0  0
   44.8350   34.9560   45.3040 N   0  0  0  0  0  0  0  0  0  0  0  0
   45.7550   33.9860   45.1580 C   0  0  0  0  0  0  0  0  0  0  0  0
   46.4700   33.9520   44.0380 N   0  0  0  0  0  0  0  0  0  0  0  0
   49.1351   35.5836   43.5494 H   0  0  0  0  0  0  0  0  0  0  0  0
   50.1093   36.1761   42.1255 H   0  0  0  0  0  0  0  0  0  0  0  0
   50.5291   34.0629   41.3784 H   0  0  0  0  0  0  0  0  0  0  0  0
   50.7348   34.0770   43.2524 H   0  0  0  0  0  0  0  0  0  0  0  0
   48.7599   32.6391   43.3277 H   0  0  0  0  0  0  0  0  0  0  0  0
   49.4058   30.5817   39.8422 H   0  0  0  0  0  0  0  0  0  0  0  0
   48.4126   30.3196   41.3008 H   0  0  0  0  0  0  0  0  0  0  0  0
   45.2487   36.5973   42.3352 H   0  0  0  0  0  0  0  0  0  0  0  0
   43.8530   36.6940   44.4844 H   0  0  0  0  0  0  0  0  0  0  0  0
   45.9124   33.2371   45.9482 H   0  0  0  0  0  0  0  0  0  0  0  0
  2  1  1  0
  2  3  1  0
  4  3  1  0
  5  4  2  0
  6  4  1  0
  7  5  1  0
  8  9  1  0
  8  1  1  0
  9 11  1  0
 10  9  2  0
 11 12  2  0
 11 16  1  0
 12 13  1  0
 13 14  2  0
 15 14  1  0
 16 15  2  0
  1 17  1  0
  1 18  1  0
  2 19  1  0
  2 20  1  0
  3 21  1  0
  6 22  1  0
  6 23  1  0
 12 24  1  0
 13 25  1  0
 15 26  1  0
M  ISO  7  17   8  18   8  19   8  20   8  24  14  25  14  26  14
M  END
>  <minimizedAffinity>  (1) 
-4.1046586

>  <minimizedRMSD>  (1) 
0.445371509

$$$$
