
     RDKit          3D

 33 34  0  0  0  0  0  0  0  0999 V2000
   45.5880   34.8850   41.7050 C   0  0  0  0  0  0  0  0  0  0  0  0
   44.7020   33.6480   41.5630 C   0  0  0  0  0  0  0  0  0  0  0  0
   43.3150   34.0030   41.7670 N   0  0  0  0  0  0  0  0  0  0  0  0
   42.5120   33.2540   40.7810 C   0  0  0  0  0  0  0  0  0  0  0  0
   41.0760   33.2500   41.2880 C   0  0  0  0  0  0  0  0  0  0  0  0
   40.8420   34.5700   41.8500 N   0  0  0  0  0  0  0  0  0  0  0  0
   41.5810   35.5810   41.1120 C   0  0  0  0  0  0  0  0  0  0  0  0
   43.0620   35.4110   41.3950 C   0  0  0  0  0  0  0  0  0  0  0  0
   46.1220   34.9570   42.9330 O   0  0  0  0  0  0  0  0  0  0  0  0
   46.9370   34.0570   43.6150 C   0  0  0  0  0  0  0  0  0  0  0  0
   46.3510   33.8400   44.6800 O   0  0  0  0  0  0  0  0  0  0  0  0
   48.1860   33.5460   43.1030 C   0  0  0  0  0  0  0  0  0  0  0  0
   49.1100   34.5440   42.8890 C   0  0  0  0  0  0  0  0  0  0  0  0
   50.3310   34.1060   42.3460 C   0  0  0  0  0  0  0  0  0  0  0  0
   50.4990   32.7670   42.0800 N   0  0  0  0  0  0  0  0  0  0  0  0
   49.5360   31.8660   42.3230 C   0  0  0  0  0  0  0  0  0  0  0  0
   48.3530   32.2500   42.8440 N   0  0  0  0  0  0  0  0  0  0  0  0
   44.9813   35.7844   41.5236 H   0  0  0  0  0  0  0  0  0  0  0  0
   46.4051   34.8160   40.9718 H   0  0  0  0  0  0  0  0  0  0  0  0
   44.8249   33.2265   40.5544 H   0  0  0  0  0  0  0  0  0  0  0  0
   44.9979   32.9051   42.3183 H   0  0  0  0  0  0  0  0  0  0  0  0
   42.8852   32.2228   40.6948 H   0  0  0  0  0  0  0  0  0  0  0  0
   42.5762   33.7201   39.7867 H   0  0  0  0  0  0  0  0  0  0  0  0
   40.3791   33.0594   40.4586 H   0  0  0  0  0  0  0  0  0  0  0  0
   40.9172   32.4607   42.0375 H   0  0  0  0  0  0  0  0  0  0  0  0
   39.8357   34.7844   41.8020 H   0  0  0  0  0  0  0  0  0  0  0  0
   41.2565   36.5823   41.4314 H   0  0  0  0  0  0  0  0  0  0  0  0
   41.3920   35.4685   40.0342 H   0  0  0  0  0  0  0  0  0  0  0  0
   43.6423   35.6663   40.4961 H   0  0  0  0  0  0  0  0  0  0  0  0
   43.3652   36.0761   42.2171 H   0  0  0  0  0  0  0  0  0  0  0  0
   48.9092   35.5997   43.1240 H   0  0  0  0  0  0  0  0  0  0  0  0
   51.1389   34.8228   42.1373 H   0  0  0  0  0  0  0  0  0  0  0  0
   49.7126   30.8044   42.0953 H   0  0  0  0  0  0  0  0  0  0  0  0
  1  9  1  0
  2  1  1  0
  2  3  1  0
  4  5  1  0
  4  3  1  0
  5  6  1  0
  7  8  1  0
  7  6  1  0
  8  3  1  0
  9 10  1  0
 10 11  2  0
 12 10  1  0
 13 12  2  0
 14 13  1  0
 15 16  1  0
 15 14  2  0
 16 17  2  0
 17 12  1  0
  1 18  1  0
  1 19  1  0
  2 20  1  0
  2 21  1  0
  4 22  1  0
  4 23  1  0
  5 24  1  0
  5 25  1  0
  6 26  1  0
  7 27  1  0
  7 28  1  0
  8 29  1  0
  8 30  1  0
 13 31  1  0
 14 32  1  0
 16 33  1  0
M  ISO  8  18   8  19   8  20   8  21   8  22  13  23  13  24  13  25  13
M  ISO  8  26   5  27  13  28  13  29  13  30  13  31  14  32  14  33  14
M  END
>  <minimizedAffinity>  (1) 
-3.8677671

>  <minimizedRMSD>  (1) 
7.18648529

$$$$
