
     RDKit          3D

 37 39  0  0  0  0  0  0  0  0999 V2000
   46.0780   34.8510   43.1880 C   0  0  0  0  0  0  0  0  0  0  0  0
   45.2260   35.9260   43.2470 C   0  0  0  0  0  0  0  0  0  0  0  0
   44.5460   36.0240   44.4740 C   0  0  0  0  0  0  0  0  0  0  0  0
   44.7690   35.1110   45.4410 N   0  0  0  0  0  0  0  0  0  0  0  0
   45.6360   34.0760   45.2840 C   0  0  0  0  0  0  0  0  0  0  0  0
   46.2890   33.9670   44.1300 N   0  0  0  0  0  0  0  0  0  0  0  0
   45.8750   33.1090   46.2990 N   0  0  0  0  0  0  0  0  0  0  0  0
   45.1640   33.2300   47.4290 C   0  0  0  0  0  0  0  0  0  0  0  0
   45.3610   32.3090   48.4480 C   0  0  0  0  0  0  0  0  0  0  0  0
   46.3020   31.3040   48.2260 C   0  0  0  0  0  0  0  0  0  0  0  0
   46.5540   30.3310   49.2280 N   0  0  0  0  0  0  0  0  0  0  0  0
   47.0050   31.2150   47.0650 N   0  0  0  0  0  0  0  0  0  0  0  0
   46.7920   32.1320   46.0780 C   0  0  0  0  0  0  0  0  0  0  0  0
   47.3870   32.1410   44.9680 O   0  0  0  0  0  0  0  0  0  0  0  0
   46.7890   34.8110   41.9240 C   0  0  0  0  0  0  0  0  0  0  0  0
   46.5430   34.3000   40.8560 O   0  0  0  0  0  0  0  0  0  0  0  0
   48.0030   35.4190   41.6970 O   0  0  0  0  0  0  0  0  0  0  0  0
   49.2240   35.1800   42.1890 C   0  0  0  0  0  0  0  0  0  0  0  0
   49.4120   33.7610   42.6250 C   0  0  0  0  0  0  0  0  0  0  0  0
   49.9240   32.8930   41.5870 N   0  0  0  0  0  0  0  0  0  0  0  0
   51.1940   32.4860   41.6750 N   0  0  0  0  0  0  0  0  0  0  0  0
   51.5200   31.6830   40.6710 C   0  0  0  0  0  0  0  0  0  0  0  0
   50.4060   31.5460   39.8660 C   0  0  0  0  0  0  0  0  0  0  0  0
   49.4750   32.3160   40.4950 C   0  0  0  0  0  0  0  0  0  0  0  0
   45.0893   36.6376   42.4194 H   0  0  0  0  0  0  0  0  0  0  0  0
   43.8332   36.8442   44.6447 H   0  0  0  0  0  0  0  0  0  0  0  0
   44.4361   34.0463   47.5465 H   0  0  0  0  0  0  0  0  0  0  0  0
   44.7985   32.3691   49.3914 H   0  0  0  0  0  0  0  0  0  0  0  0
   47.2493   29.5894   49.0624 H   0  0  0  0  0  0  0  0  0  0  0  0
   46.0415   30.3665   50.1208 H   0  0  0  0  0  0  0  0  0  0  0  0
   49.9665   35.4086   41.4102 H   0  0  0  0  0  0  0  0  0  0  0  0
   49.3508   35.8163   43.0772 H   0  0  0  0  0  0  0  0  0  0  0  0
   50.1190   33.7481   43.4676 H   0  0  0  0  0  0  0  0  0  0  0  0
   48.4190   33.3772   42.9019 H   0  0  0  0  0  0  0  0  0  0  0  0
   52.5004   31.2113   40.5087 H   0  0  0  0  0  0  0  0  0  0  0  0
   50.2972   30.9585   38.9424 H   0  0  0  0  0  0  0  0  0  0  0  0
   48.4469   32.4426   40.1248 H   0  0  0  0  0  0  0  0  0  0  0  0
  1  2  2  0
  1  6  1  0
  2  3  1  0
  3  4  2  0
  5  4  1  0
  5  7  1  0
  6  5  2  0
  7  8  1  0
  8  9  2  0
 10  9  1  0
 10 11  1  0
 12 10  2  0
 13  7  1  0
 13 12  1  0
 14 13  2  0
 15  1  1  0
 16 15  2  0
 17 15  1  0
 17 18  1  0
 18 19  1  0
 20 21  1  0
 20 19  1  0
 22 21  2  0
 23 24  2  0
 23 22  1  0
 24 20  1  0
  2 25  1  0
  3 26  1  0
  8 27  1  0
  9 28  1  0
 11 29  1  0
 11 30  1  0
 18 31  1  0
 18 32  1  0
 19 33  1  0
 19 34  1  0
 22 35  1  0
 23 36  1  0
 24 37  1  0
M  ISO  8  25  14  26  14  27  14  28  14  31   8  32   8  33   8  34   8
M  ISO  3  35  14  36  14  37  14
M  END
>  <minimizedAffinity>  (1) 
-6.23439789

>  <minimizedRMSD>  (1) 
0.14504084

$$$$
