
     RDKit          3D

 36 38  0  0  0  0  0  0  0  0999 V2000
   47.1720   34.8200   41.7630 C   0  0  0  0  0  0  0  0  0  0  0  0
   47.0160   34.4040   40.6360 O   0  0  0  0  0  0  0  0  0  0  0  0
   46.3210   34.8530   42.9330 C   0  0  0  0  0  0  0  0  0  0  0  0
   45.3290   35.7930   42.8080 C   0  0  0  0  0  0  0  0  0  0  0  0
   44.4980   35.8820   43.9370 C   0  0  0  0  0  0  0  0  0  0  0  0
   44.7280   35.0800   44.9990 N   0  0  0  0  0  0  0  0  0  0  0  0
   45.7370   34.1770   45.0300 C   0  0  0  0  0  0  0  0  0  0  0  0
   46.5370   34.0760   43.9710 N   0  0  0  0  0  0  0  0  0  0  0  0
   45.8770   33.3880   46.2080 N   0  0  0  0  0  0  0  0  0  0  0  0
   46.8450   32.4330   46.0880 C   0  0  0  0  0  0  0  0  0  0  0  0
   47.1300   31.5680   47.1230 C   0  0  0  0  0  0  0  0  0  0  0  0
   46.3940   31.7200   48.2700 C   0  0  0  0  0  0  0  0  0  0  0  0
   46.5920   30.9760   49.2500 O   0  0  0  0  0  0  0  0  0  0  0  0
   45.4430   32.6630   48.3780 N   0  0  0  0  0  0  0  0  0  0  0  0
   45.1790   33.5070   47.3420 C   0  0  0  0  0  0  0  0  0  0  0  0
   44.3130   34.4130   47.3560 O   0  0  0  0  0  0  0  0  0  0  0  0
   48.4550   35.3140   41.7220 O   0  0  0  0  0  0  0  0  0  0  0  0
   49.5890   34.9050   42.2980 C   0  0  0  0  0  0  0  0  0  0  0  0
   49.6200   33.4270   42.5440 C   0  0  0  0  0  0  0  0  0  0  0  0
   50.1190   32.6580   41.4240 N   0  0  0  0  0  0  0  0  0  0  0  0
   51.4060   32.3020   41.4400 N   0  0  0  0  0  0  0  0  0  0  0  0
   51.7200   31.5840   40.3610 C   0  0  0  0  0  0  0  0  0  0  0  0
   50.5860   31.4580   39.5910 C   0  0  0  0  0  0  0  0  0  0  0  0
   49.6460   32.1410   40.3070 C   0  0  0  0  0  0  0  0  0  0  0  0
   45.1974   36.4161   41.9111 H   0  0  0  0  0  0  0  0  0  0  0  0
   43.6652   36.6004   43.9560 H   0  0  0  0  0  0  0  0  0  0  0  0
   47.4088   32.3520   45.1469 H   0  0  0  0  0  0  0  0  0  0  0  0
   47.9079   30.7955   47.0333 H   0  0  0  0  0  0  0  0  0  0  0  0
   44.9077   32.7486   49.2538 H   0  0  0  0  0  0  0  0  0  0  0  0
   50.4310   35.1689   41.6412 H   0  0  0  0  0  0  0  0  0  0  0  0
   49.6599   35.4033   43.2761 H   0  0  0  0  0  0  0  0  0  0  0  0
   50.2665   33.2337   43.4127 H   0  0  0  0  0  0  0  0  0  0  0  0
   48.5807   33.1088   42.7130 H   0  0  0  0  0  0  0  0  0  0  0  0
   52.7104   31.1662   40.1275 H   0  0  0  0  0  0  0  0  0  0  0  0
   50.4664   30.9339   38.6313 H   0  0  0  0  0  0  0  0  0  0  0  0
   48.5998   32.2492   39.9849 H   0  0  0  0  0  0  0  0  0  0  0  0
  1  3  1  0
  2  1  2  0
  3  8  1  0
  4  3  2  0
  4  5  1  0
  5  6  2  0
  6  7  1  0
  7  9  1  0
  8  7  2  0
  9 15  1  0
 10  9  1  0
 10 11  2  0
 11 12  1  0
 12 14  1  0
 12 13  2  0
 15 16  2  0
 15 14  1  0
 17  1  1  0
 17 18  1  0
 18 19  1  0
 20 21  1  0
 20 19  1  0
 22 21  2  0
 23 24  2  0
 23 22  1  0
 24 20  1  0
  4 25  1  0
  5 26  1  0
 10 27  1  0
 11 28  1  0
 14 29  1  0
 18 30  1  0
 18 31  1  0
 19 32  1  0
 19 33  1  0
 22 34  1  0
 23 35  1  0
 24 36  1  0
M  ISO  8  25  14  26  14  27  14  28  14  29   9  30   8  31   8  32   8
M  ISO  4  33   8  34  14  35  14  36  14
M  END
>  <minimizedAffinity>  (1) 
-6.05415821

>  <minimizedRMSD>  (1) 
0.44177407

$$$$
