
     RDKit          3D

 33 34  0  0  0  0  0  0  0  0999 V2000
   47.0320   34.9190   41.8510 C   0  0  0  0  0  0  0  0  0  0  0  0
   46.8870   34.4700   40.7360 O   0  0  0  0  0  0  0  0  0  0  0  0
   46.2220   34.8770   43.0520 C   0  0  0  0  0  0  0  0  0  0  0  0
   45.4270   35.9900   43.1560 C   0  0  0  0  0  0  0  0  0  0  0  0
   44.6450   36.0070   44.3340 C   0  0  0  0  0  0  0  0  0  0  0  0
   44.7410   34.9790   45.2150 N   0  0  0  0  0  0  0  0  0  0  0  0
   45.5670   33.9180   45.0130 C   0  0  0  0  0  0  0  0  0  0  0  0
   46.3050   33.8930   43.9100 N   0  0  0  0  0  0  0  0  0  0  0  0
   45.5830   32.8960   46.0030 N   0  0  0  0  0  0  0  0  0  0  0  0
   45.3130   33.2280   47.3550 C   0  0  0  0  0  0  0  0  0  0  0  0
   44.4620   34.1150   47.6640 N   0  0  0  0  0  0  0  0  0  0  0  0
   45.9820   32.5790   48.4200 N   0  0  0  0  0  0  0  0  0  0  0  0
   43.8720   34.6980   47.0690 H   0  0  0  0  0  0  0  0  0  0  0  0
   48.2530   35.5570   41.7660 O   0  0  0  0  0  0  0  0  0  0  0  0
   49.4700   35.2040   42.1990 C   0  0  0  0  0  0  0  0  0  0  0  0
   49.5440   33.7720   42.6310 C   0  0  0  0  0  0  0  0  0  0  0  0
   50.0310   32.8780   41.6020 N   0  0  0  0  0  0  0  0  0  0  0  0
   51.3070   32.4800   41.6850 N   0  0  0  0  0  0  0  0  0  0  0  0
   51.6090   31.6510   40.6840 C   0  0  0  0  0  0  0  0  0  0  0  0
   50.4800   31.4960   39.9060 C   0  0  0  0  0  0  0  0  0  0  0  0
   49.5560   32.2790   40.5320 C   0  0  0  0  0  0  0  0  0  0  0  0
   45.4005   36.7883   42.3997 H   0  0  0  0  0  0  0  0  0  0  0  0
   43.9639   36.8471   44.5349 H   0  0  0  0  0  0  0  0  0  0  0  0
   45.7893   31.9219   45.7395 H   0  0  0  0  0  0  0  0  0  0  0  0
   45.7699   32.8364   49.3945 H   0  0  0  0  0  0  0  0  0  0  0  0
   46.6810   31.8493   48.2206 H   0  0  0  0  0  0  0  0  0  0  0  0
   50.1917   35.3622   41.3840 H   0  0  0  0  0  0  0  0  0  0  0  0
   49.7002   35.8252   43.0771 H   0  0  0  0  0  0  0  0  0  0  0  0
   50.2189   33.7050   43.4971 H   0  0  0  0  0  0  0  0  0  0  0  0
   48.5185   33.4558   42.8724 H   0  0  0  0  0  0  0  0  0  0  0  0
   52.5854   31.1753   40.5098 H   0  0  0  0  0  0  0  0  0  0  0  0
   50.3554   30.8869   38.9985 H   0  0  0  0  0  0  0  0  0  0  0  0
   48.5210   32.3974   40.1788 H   0  0  0  0  0  0  0  0  0  0  0  0
  1  3  1  0
  2  1  2  0
  3  4  2  0
  3  8  1  0
  4  5  1  0
  5  6  2  0
  7  6  1  0
  7  9  1  0
  8  7  2  0
  9 10  1  0
 10 11  2  0
 10 12  1  0
 13 11  1  0
 14  1  1  0
 14 15  1  0
 15 16  1  0
 17 18  1  0
 17 16  1  0
 19 18  2  0
 20 21  2  0
 20 19  1  0
 21 17  1  0
  4 22  1  0
  5 23  1  0
  9 24  1  0
 12 25  1  0
 12 26  1  0
 15 27  1  0
 15 28  1  0
 16 29  1  0
 16 30  1  0
 19 31  1  0
 20 32  1  0
 21 33  1  0
M  ISO  8  22  14  23  14  27   8  28   8  29   8  30   8  31  14  32  14
M  ISO  1  33  14
M  END
>  <minimizedAffinity>  (1) 
-5.99615383

>  <minimizedRMSD>  (1) 
0.279418796

$$$$
