
     RDKit          3D

 39 41  0  0  0  0  0  0  0  0999 V2000
   46.8010   34.9340   42.0990 C   0  0  0  0  0  0  0  0  0  0  0  0
   46.6580   34.3830   41.0320 O   0  0  0  0  0  0  0  0  0  0  0  0
   46.0990   34.8470   43.3640 C   0  0  0  0  0  0  0  0  0  0  0  0
   45.1680   35.8480   43.4910 C   0  0  0  0  0  0  0  0  0  0  0  0
   44.4880   35.8300   44.7180 C   0  0  0  0  0  0  0  0  0  0  0  0
   44.7910   34.8760   45.6310 N   0  0  0  0  0  0  0  0  0  0  0  0
   45.7290   33.9280   45.4150 C   0  0  0  0  0  0  0  0  0  0  0  0
   46.3860   33.9270   44.2550 N   0  0  0  0  0  0  0  0  0  0  0  0
   45.9800   32.9610   46.4370 N   0  0  0  0  0  0  0  0  0  0  0  0
   45.1920   33.0770   47.6540 C   0  0  0  0  0  0  0  0  0  0  0  0
   45.7130   32.1600   48.7350 C   0  0  0  0  0  0  0  0  0  0  0  0
   47.1120   32.0150   48.5960 O   0  0  0  0  0  0  0  0  0  0  0  0
   47.3260   31.2550   47.4690 C   0  0  0  0  0  0  0  0  0  0  0  0
   46.9800   31.9610   46.1900 C   0  0  0  0  0  0  0  0  0  0  0  0
   47.8760   35.7600   41.8690 O   0  0  0  0  0  0  0  0  0  0  0  0
   49.1860   35.5220   41.7550 C   0  0  0  0  0  0  0  0  0  0  0  0
   49.6240   34.3370   42.5550 C   0  0  0  0  0  0  0  0  0  0  0  0
   50.0370   33.2050   41.7630 N   0  0  0  0  0  0  0  0  0  0  0  0
   51.2650   32.7180   41.9500 N   0  0  0  0  0  0  0  0  0  0  0  0
   51.4950   31.6660   41.1680 C   0  0  0  0  0  0  0  0  0  0  0  0
   50.3560   31.4410   40.4190 C   0  0  0  0  0  0  0  0  0  0  0  0
   49.5150   32.4250   40.8430 C   0  0  0  0  0  0  0  0  0  0  0  0
   44.9737   36.5932   42.7055 H   0  0  0  0  0  0  0  0  0  0  0  0
   43.7165   36.5830   44.9366 H   0  0  0  0  0  0  0  0  0  0  0  0
   45.2377   34.1159   48.0127 H   0  0  0  0  0  0  0  0  0  0  0  0
   44.1553   32.7894   47.4249 H   0  0  0  0  0  0  0  0  0  0  0  0
   45.4851   32.5897   49.7216 H   0  0  0  0  0  0  0  0  0  0  0  0
   45.2315   31.1752   48.6439 H   0  0  0  0  0  0  0  0  0  0  0  0
   48.3895   30.9762   47.4350 H   0  0  0  0  0  0  0  0  0  0  0  0
   46.6645   30.3791   47.5417 H   0  0  0  0  0  0  0  0  0  0  0  0
   46.5936   31.2308   45.4637 H   0  0  0  0  0  0  0  0  0  0  0  0
   47.8828   32.4442   45.7883 H   0  0  0  0  0  0  0  0  0  0  0  0
   49.4205   35.3390   40.6960 H   0  0  0  0  0  0  0  0  0  0  0  0
   49.7207   36.4023   42.1411 H   0  0  0  0  0  0  0  0  0  0  0  0
   50.4709   34.6423   43.1871 H   0  0  0  0  0  0  0  0  0  0  0  0
   48.7502   34.0108   43.1382 H   0  0  0  0  0  0  0  0  0  0  0  0
   52.4253   31.0805   41.1256 H   0  0  0  0  0  0  0  0  0  0  0  0
   50.1734   30.6600   39.6662 H   0  0  0  0  0  0  0  0  0  0  0  0
   48.4950   32.5546   40.4522 H   0  0  0  0  0  0  0  0  0  0  0  0
  1  3  1  0
  2  1  2  0
  3  4  2  0
  3  8  1  0
  4  5  1  0
  5  6  2  0
  7  6  1  0
  7  9  1  0
  8  7  2  0
  9 10  1  0
 10 11  1  0
 12 11  1  0
 13 12  1  0
 14  9  1  0
 14 13  1  0
 15  1  1  0
 16 15  1  0
 16 17  1  0
 18 19  1  0
 18 17  1  0
 20 19  2  0
 21 22  2  0
 21 20  1  0
 22 18  1  0
  4 23  1  0
  5 24  1  0
 10 25  1  0
 10 26  1  0
 11 27  1  0
 11 28  1  0
 13 29  1  0
 13 30  1  0
 14 31  1  0
 14 32  1  0
 16 33  1  0
 16 34  1  0
 17 35  1  0
 17 36  1  0
 20 37  1  0
 21 38  1  0
 22 39  1  0
M  ISO  8  23  14  24  14  25  13  26  13  27  13  28  13  29  13  30  13
M  ISO  8  31  13  32  13  33   8  34   8  35   8  36   8  37  14  38  14
M  ISO  1  39  14
M  END
>  <minimizedAffinity>  (1) 
-5.70821333

>  <minimizedRMSD>  (1) 
0.445526987

$$$$
