
     RDKit          3D

 33 35  0  0  0  0  0  0  0  0999 V2000
   46.7810   34.7810   41.9560 C   0  0  0  0  0  0  0  0  0  0  0  0
   46.5520   34.2170   40.9110 O   0  0  0  0  0  0  0  0  0  0  0  0
   46.0450   34.9030   43.1990 C   0  0  0  0  0  0  0  0  0  0  0  0
   45.2160   36.0030   43.1870 C   0  0  0  0  0  0  0  0  0  0  0  0
   44.5100   36.1680   44.3930 C   0  0  0  0  0  0  0  0  0  0  0  0
   44.6840   35.2970   45.4040 N   0  0  0  0  0  0  0  0  0  0  0  0
   45.5270   34.2400   45.3170 C   0  0  0  0  0  0  0  0  0  0  0  0
   46.2120   34.0520   44.1900 N   0  0  0  0  0  0  0  0  0  0  0  0
   45.6700   33.3330   46.4500 C   0  0  0  0  0  0  0  0  0  0  0  0
   46.5930   32.3120   46.5360 C   0  0  0  0  0  0  0  0  0  0  0  0
   46.4360   31.6850   47.7160 N   0  0  0  0  0  0  0  0  0  0  0  0
   45.4200   32.3330   48.3310 C   0  0  0  0  0  0  0  0  0  0  0  0
   44.9340   33.3450   47.5760 N   0  0  0  0  0  0  0  0  0  0  0  0
   48.0060   35.3520   41.7280 O   0  0  0  0  0  0  0  0  0  0  0  0
   49.2170   35.1120   42.2450 C   0  0  0  0  0  0  0  0  0  0  0  0
   49.4070   33.6850   42.6520 C   0  0  0  0  0  0  0  0  0  0  0  0
   49.9370   32.8450   41.5960 N   0  0  0  0  0  0  0  0  0  0  0  0
   51.2170   32.4650   41.6840 N   0  0  0  0  0  0  0  0  0  0  0  0
   51.5640   31.6860   40.6670 C   0  0  0  0  0  0  0  0  0  0  0  0
   50.4580   31.5390   39.8570 C   0  0  0  0  0  0  0  0  0  0  0  0
   49.5050   32.2780   40.4930 C   0  0  0  0  0  0  0  0  0  0  0  0
   45.1165   36.6805   42.3261 H   0  0  0  0  0  0  0  0  0  0  0  0
   43.8137   37.0115   44.5097 H   0  0  0  0  0  0  0  0  0  0  0  0
   47.3353   32.0529   45.7666 H   0  0  0  0  0  0  0  0  0  0  0  0
   45.0348   32.0684   49.3268 H   0  0  0  0  0  0  0  0  0  0  0  0
   44.1646   33.9876   47.8128 H   0  0  0  0  0  0  0  0  0  0  0  0
   49.9765   35.3654   41.4908 H   0  0  0  0  0  0  0  0  0  0  0  0
   49.3159   35.7282   43.1508 H   0  0  0  0  0  0  0  0  0  0  0  0
   50.1043   33.6560   43.5022 H   0  0  0  0  0  0  0  0  0  0  0  0
   48.4140   33.2889   42.9110 H   0  0  0  0  0  0  0  0  0  0  0  0
   52.5550   31.2385   40.5004 H   0  0  0  0  0  0  0  0  0  0  0  0
   50.3666   30.9645   38.9234 H   0  0  0  0  0  0  0  0  0  0  0  0
   48.4763   32.3884   40.1193 H   0  0  0  0  0  0  0  0  0  0  0  0
  1  3  1  0
  2  1  2  0
  3  8  1  0
  4  3  2  0
  4  5  1  0
  5  6  2  0
  7  6  1  0
  7  9  1  0
  8  7  2  0
  9 10  2  0
  9 13  1  0
 10 11  1  0
 11 12  2  0
 13 12  1  0
 14  1  1  0
 14 15  1  0
 15 16  1  0
 17 18  1  0
 17 16  1  0
 19 18  2  0
 20 21  2  0
 20 19  1  0
 21 17  1  0
  4 22  1  0
  5 23  1  0
 10 24  1  0
 12 25  1  0
 13 26  1  0
 15 27  1  0
 15 28  1  0
 16 29  1  0
 16 30  1  0
 19 31  1  0
 20 32  1  0
 21 33  1  0
M  ISO  8  22  14  23  14  24  14  25  14  26   9  27   8  28   8  29   8
M  ISO  4  30   8  31  14  32  14  33  14
M  END
>  <minimizedAffinity>  (1) 
-5.67818975

>  <minimizedRMSD>  (1) 
0.396402597

$$$$
