
     RDKit          3D

 41 43  0  0  0  0  0  0  0  0999 V2000
   46.6420   34.9110   42.2410 C   0  0  0  0  0  0  0  0  0  0  0  0
   46.4620   34.3820   41.1680 O   0  0  0  0  0  0  0  0  0  0  0  0
   46.0000   34.7800   43.5320 C   0  0  0  0  0  0  0  0  0  0  0  0
   45.1050   35.7990   43.7530 C   0  0  0  0  0  0  0  0  0  0  0  0
   44.4920   35.7170   45.0210 C   0  0  0  0  0  0  0  0  0  0  0  0
   44.7990   34.7190   45.8720 N   0  0  0  0  0  0  0  0  0  0  0  0
   45.7040   33.7580   45.5470 C   0  0  0  0  0  0  0  0  0  0  0  0
   46.3030   33.8020   44.3600 N   0  0  0  0  0  0  0  0  0  0  0  0
   46.0170   32.7110   46.4570 N   0  0  0  0  0  0  0  0  0  0  0  0
   46.7270   31.5170   45.9910 C   0  0  0  0  0  0  0  0  0  0  0  0
   45.9040   30.3050   46.3470 C   0  0  0  0  0  0  0  0  0  0  0  0
   45.5670   30.3190   47.8200 C   0  0  0  0  0  0  0  0  0  0  0  0
   44.8290   31.5840   48.2100 C   0  0  0  0  0  0  0  0  0  0  0  0
   45.6530   32.7800   47.8590 C   0  0  0  0  0  0  0  0  0  0  0  0
   47.6880   35.7620   41.9850 O   0  0  0  0  0  0  0  0  0  0  0  0
   48.9600   35.5400   41.6300 C   0  0  0  0  0  0  0  0  0  0  0  0
   49.6390   34.5280   42.4960 C   0  0  0  0  0  0  0  0  0  0  0  0
   49.9890   33.3040   41.8030 N   0  0  0  0  0  0  0  0  0  0  0  0
   51.1900   32.7750   42.0320 N   0  0  0  0  0  0  0  0  0  0  0  0
   51.3610   31.6460   41.3650 C   0  0  0  0  0  0  0  0  0  0  0  0
   50.2200   31.4000   40.6510 C   0  0  0  0  0  0  0  0  0  0  0  0
   49.4140   32.4570   40.9630 C   0  0  0  0  0  0  0  0  0  0  0  0
   44.8901   36.5918   43.0214 H   0  0  0  0  0  0  0  0  0  0  0  0
   43.7545   36.4771   45.3183 H   0  0  0  0  0  0  0  0  0  0  0  0
   47.7104   31.4550   46.4799 H   0  0  0  0  0  0  0  0  0  0  0  0
   46.8757   31.5665   44.9022 H   0  0  0  0  0  0  0  0  0  0  0  0
   44.9731   30.3127   45.7610 H   0  0  0  0  0  0  0  0  0  0  0  0
   46.4829   29.3978   46.1193 H   0  0  0  0  0  0  0  0  0  0  0  0
   44.9327   29.4501   48.0496 H   0  0  0  0  0  0  0  0  0  0  0  0
   46.5075   30.2792   48.3891 H   0  0  0  0  0  0  0  0  0  0  0  0
   43.8715   31.6292   47.6703 H   0  0  0  0  0  0  0  0  0  0  0  0
   44.6437   31.5764   49.2942 H   0  0  0  0  0  0  0  0  0  0  0  0
   46.5638   32.7936   48.4757 H   0  0  0  0  0  0  0  0  0  0  0  0
   45.0744   33.6965   48.0468 H   0  0  0  0  0  0  0  0  0  0  0  0
   48.9763   35.1798   40.5908 H   0  0  0  0  0  0  0  0  0  0  0  0
   49.5042   36.4892   41.7436 H   0  0  0  0  0  0  0  0  0  0  0  0
   50.5609   34.9761   42.8951 H   0  0  0  0  0  0  0  0  0  0  0  0
   48.9260   34.2546   43.2878 H   0  0  0  0  0  0  0  0  0  0  0  0
   52.2622   31.0154   41.3813 H   0  0  0  0  0  0  0  0  0  0  0  0
   50.0036   30.5523   39.9842 H   0  0  0  0  0  0  0  0  0  0  0  0
   48.3988   32.5903   40.5609 H   0  0  0  0  0  0  0  0  0  0  0  0
  1  3  1  0
  2  1  2  0
  3  4  2  0
  3  8  1  0
  4  5  1  0
  5  6  2  0
  7  6  1  0
  7  9  1  0
  8  7  2  0
  9 14  1  0
 10 11  1  0
 10  9  1  0
 11 12  1  0
 12 13  1  0
 14 13  1  0
 15  1  1  0
 16 15  1  0
 16 17  1  0
 18 19  1  0
 18 17  1  0
 20 19  2  0
 21 22  2  0
 21 20  1  0
 22 18  1  0
  4 23  1  0
  5 24  1  0
 10 25  1  0
 10 26  1  0
 11 27  1  0
 11 28  1  0
 12 29  1  0
 12 30  1  0
 13 31  1  0
 13 32  1  0
 14 33  1  0
 14 34  1  0
 16 35  1  0
 16 36  1  0
 17 37  1  0
 17 38  1  0
 20 39  1  0
 21 40  1  0
 22 41  1  0
M  ISO  8  23  14  24  14  25  13  26  13  27  13  28  13  29  13  30  13
M  ISO  8  31  13  32  13  33  13  34  13  35   8  36   8  37   8  38   8
M  ISO  3  39  14  40  14  41  14
M  END
>  <minimizedAffinity>  (1) 
-5.63988876

>  <minimizedRMSD>  (1) 
0.631758809

$$$$
