
     RDKit          3D

 33 35  0  0  0  0  0  0  0  0999 V2000
   46.8030   34.7870   42.0030 C   0  0  0  0  0  0  0  0  0  0  0  0
   46.5810   34.2510   40.9410 O   0  0  0  0  0  0  0  0  0  0  0  0
   46.0720   34.8540   43.2510 C   0  0  0  0  0  0  0  0  0  0  0  0
   45.2020   35.9140   43.2650 C   0  0  0  0  0  0  0  0  0  0  0  0
   44.4980   36.0320   44.4790 C   0  0  0  0  0  0  0  0  0  0  0  0
   44.7170   35.1520   45.4750 N   0  0  0  0  0  0  0  0  0  0  0  0
   45.6050   34.1290   45.3610 C   0  0  0  0  0  0  0  0  0  0  0  0
   46.2830   33.9960   44.2230 N   0  0  0  0  0  0  0  0  0  0  0  0
   45.8420   33.1930   46.4080 N   0  0  0  0  0  0  0  0  0  0  0  0
   45.1220   33.1440   47.5360 N   0  0  0  0  0  0  0  0  0  0  0  0
   45.6070   32.1410   48.3200 C   0  0  0  0  0  0  0  0  0  0  0  0
   46.6580   31.5820   47.6130 C   0  0  0  0  0  0  0  0  0  0  0  0
   46.8100   32.2440   46.4020 C   0  0  0  0  0  0  0  0  0  0  0  0
   48.0180   35.3920   41.7830 O   0  0  0  0  0  0  0  0  0  0  0  0
   49.2430   35.1310   42.2520 C   0  0  0  0  0  0  0  0  0  0  0  0
   49.4270   33.7020   42.6540 C   0  0  0  0  0  0  0  0  0  0  0  0
   49.9440   32.8590   41.5930 N   0  0  0  0  0  0  0  0  0  0  0  0
   51.2160   32.4570   41.6710 N   0  0  0  0  0  0  0  0  0  0  0  0
   51.5470   31.6720   40.6600 C   0  0  0  0  0  0  0  0  0  0  0  0
   50.4350   31.5380   39.8540 C   0  0  0  0  0  0  0  0  0  0  0  0
   49.4970   32.2930   40.4930 C   0  0  0  0  0  0  0  0  0  0  0  0
   45.0680   36.6007   42.4162 H   0  0  0  0  0  0  0  0  0  0  0  0
   43.7683   36.8439   44.6140 H   0  0  0  0  0  0  0  0  0  0  0  0
   45.2391   31.8375   49.3113 H   0  0  0  0  0  0  0  0  0  0  0  0
   47.2781   30.7415   47.9581 H   0  0  0  0  0  0  0  0  0  0  0  0
   47.5505   32.0432   45.6138 H   0  0  0  0  0  0  0  0  0  0  0  0
   49.9762   35.3710   41.4679 H   0  0  0  0  0  0  0  0  0  0  0  0
   49.3863   35.7455   43.1530 H   0  0  0  0  0  0  0  0  0  0  0  0
   50.1303   33.6669   43.4991 H   0  0  0  0  0  0  0  0  0  0  0  0
   48.4329   33.3122   42.9183 H   0  0  0  0  0  0  0  0  0  0  0  0
   52.5307   31.2094   40.4918 H   0  0  0  0  0  0  0  0  0  0  0  0
   50.3308   30.9621   38.9226 H   0  0  0  0  0  0  0  0  0  0  0  0
   48.4678   32.4167   40.1250 H   0  0  0  0  0  0  0  0  0  0  0  0
  1  3  1  0
  2  1  2  0
  3  4  2  0
  3  8  1  0
  4  5  1  0
  5  6  2  0
  7  6  1  0
  7  9  1  0
  8  7  2  0
  9 10  1  0
 10 11  2  0
 12 11  1  0
 13  9  1  0
 13 12  2  0
 14  1  1  0
 14 15  1  0
 15 16  1  0
 17 18  1  0
 17 16  1  0
 19 18  2  0
 20 21  2  0
 20 19  1  0
 21 17  1  0
  4 22  1  0
  5 23  1  0
 11 24  1  0
 12 25  1  0
 13 26  1  0
 15 27  1  0
 15 28  1  0
 16 29  1  0
 16 30  1  0
 19 31  1  0
 20 32  1  0
 21 33  1  0
M  ISO  8  22  14  23  14  24  14  25  14  26  14  27   8  28   8  29   8
M  ISO  4  30   8  31  14  32  14  33  14
M  END
>  <minimizedAffinity>  (1) 
-5.5512085

>  <minimizedRMSD>  (1) 
0.169114172

$$$$
