
     RDKit          3D

 32 34  0  0  0  0  0  0  0  0999 V2000
   47.9960   35.3810   41.7580 O   0  0  0  0  0  0  0  0  0  0  0  0
   49.2230   35.1370   42.2330 C   0  0  0  0  0  0  0  0  0  0  0  0
   49.4100   33.7100   42.6470 C   0  0  0  0  0  0  0  0  0  0  0  0
   49.9200   32.8620   41.5880 N   0  0  0  0  0  0  0  0  0  0  0  0
   51.1970   32.4640   41.6770 N   0  0  0  0  0  0  0  0  0  0  0  0
   51.5260   31.6810   40.6530 C   0  0  0  0  0  0  0  0  0  0  0  0
   50.4130   31.5510   39.8420 C   0  0  0  0  0  0  0  0  0  0  0  0
   49.4750   32.3020   40.4850 C   0  0  0  0  0  0  0  0  0  0  0  0
   46.7830   34.7820   41.9890 C   0  0  0  0  0  0  0  0  0  0  0  0
   46.5430   34.2580   40.9250 O   0  0  0  0  0  0  0  0  0  0  0  0
   46.0720   34.8440   43.2500 C   0  0  0  0  0  0  0  0  0  0  0  0
   45.1780   35.8930   43.2720 C   0  0  0  0  0  0  0  0  0  0  0  0
   44.4960   36.0010   44.4970 C   0  0  0  0  0  0  0  0  0  0  0  0
   44.7520   35.1280   45.4910 N   0  0  0  0  0  0  0  0  0  0  0  0
   45.6500   34.1290   45.3720 C   0  0  0  0  0  0  0  0  0  0  0  0
   46.3140   33.9970   44.2250 N   0  0  0  0  0  0  0  0  0  0  0  0
   45.9190   33.2070   46.4210 N   0  0  0  0  0  0  0  0  0  0  0  0
   46.8910   32.3040   46.6350 C   0  0  0  0  0  0  0  0  0  0  0  0
   46.6790   31.6760   47.8060 N   0  0  0  0  0  0  0  0  0  0  0  0
   45.5540   32.1980   48.3310 C   0  0  0  0  0  0  0  0  0  0  0  0
   45.0920   33.1350   47.4770 N   0  0  0  0  0  0  0  0  0  0  0  0
   49.9573   35.3751   41.4494 H   0  0  0  0  0  0  0  0  0  0  0  0
   49.3636   35.7630   43.1265 H   0  0  0  0  0  0  0  0  0  0  0  0
   50.1190   33.6815   43.4875 H   0  0  0  0  0  0  0  0  0  0  0  0
   48.4188   33.3211   42.9233 H   0  0  0  0  0  0  0  0  0  0  0  0
   52.5093   31.2187   40.4816 H   0  0  0  0  0  0  0  0  0  0  0  0
   50.3102   30.9809   38.9069 H   0  0  0  0  0  0  0  0  0  0  0  0
   48.4460   32.4274   40.1170 H   0  0  0  0  0  0  0  0  0  0  0  0
   45.0155   36.5727   42.4225 H   0  0  0  0  0  0  0  0  0  0  0  0
   43.7530   36.7987   44.6439 H   0  0  0  0  0  0  0  0  0  0  0  0
   47.7332   32.1078   45.9552 H   0  0  0  0  0  0  0  0  0  0  0  0
   45.0929   31.9110   49.2876 H   0  0  0  0  0  0  0  0  0  0  0  0
  1  9  1  0
  1  2  1  0
  2  3  1  0
  4  5  1  0
  4  3  1  0
  6  5  2  0
  7  8  2  0
  7  6  1  0
  8  4  1  0
  9 11  1  0
 10  9  2  0
 11 12  2  0
 11 16  1  0
 12 13  1  0
 13 14  2  0
 15 14  1  0
 15 17  1  0
 16 15  2  0
 17 18  1  0
 17 21  1  0
 18 19  2  0
 19 20  1  0
 21 20  2  0
  2 22  1  0
  2 23  1  0
  3 24  1  0
  3 25  1  0
  6 26  1  0
  7 27  1  0
  8 28  1  0
 12 29  1  0
 13 30  1  0
 18 31  1  0
 20 32  1  0
M  ISO  8  22   8  23   8  24   8  25   8  26  14  27  14  28  14  29  14
M  ISO  3  30  14  31  14  32  14
M  END
>  <minimizedAffinity>  (1) 
-5.51977873

>  <minimizedRMSD>  (1) 
0.224169225

$$$$
