
     RDKit          3D

 39 41  0  0  0  0  0  0  0  0999 V2000
   45.6400   34.5170   43.5440 C   0  0  0  0  0  0  0  0  0  0  0  0
   44.7410   35.4240   44.0610 C   0  0  0  0  0  0  0  0  0  0  0  0
   44.5620   35.2760   45.4500 C   0  0  0  0  0  0  0  0  0  0  0  0
   45.2340   34.3270   46.1310 N   0  0  0  0  0  0  0  0  0  0  0  0
   46.0980   33.4840   45.5220 C   0  0  0  0  0  0  0  0  0  0  0  0
   46.2950   33.5910   44.2070 N   0  0  0  0  0  0  0  0  0  0  0  0
   48.1680   30.5020   47.7700 C   0  0  0  0  0  0  0  0  0  0  0  0
   47.8360   30.3350   46.4460 C   0  0  0  0  0  0  0  0  0  0  0  0
   47.1690   31.2890   45.7090 C   0  0  0  0  0  0  0  0  0  0  0  0
   46.8050   32.4710   46.2970 C   0  0  0  0  0  0  0  0  0  0  0  0
   47.1260   32.6570   47.6140 C   0  0  0  0  0  0  0  0  0  0  0  0
   47.7980   31.6890   48.3470 C   0  0  0  0  0  0  0  0  0  0  0  0
   49.0130   29.1860   48.5420 S   0  0  0  0  0  0  0  0  0  0  0  0
   50.1170   28.7360   47.6030 O   0  0  0  0  0  0  0  0  0  0  0  0
   49.6020   29.6260   49.8720 O   0  0  0  0  0  0  0  0  0  0  0  0
   45.8290   34.7210   42.1220 C   0  0  0  0  0  0  0  0  0  0  0  0
   45.0630   34.9290   41.2080 O   0  0  0  0  0  0  0  0  0  0  0  0
   47.0500   34.7140   41.4990 O   0  0  0  0  0  0  0  0  0  0  0  0
   48.1760   35.3960   41.7200 C   0  0  0  0  0  0  0  0  0  0  0  0
   49.1820   34.6110   42.5020 C   0  0  0  0  0  0  0  0  0  0  0  0
   49.7470   33.4920   41.7890 N   0  0  0  0  0  0  0  0  0  0  0  0
   50.9800   33.0890   42.1110 N   0  0  0  0  0  0  0  0  0  0  0  0
   51.3620   32.0440   41.3900 C   0  0  0  0  0  0  0  0  0  0  0  0
   50.3270   31.7300   40.5340 C   0  0  0  0  0  0  0  0  0  0  0  0
   49.3800   32.6610   40.8410 C   0  0  0  0  0  0  0  0  0  0  0  0
   44.2203   36.1805   43.4555 H   0  0  0  0  0  0  0  0  0  0  0  0
   43.8673   35.9411   45.9839 H   0  0  0  0  0  0  0  0  0  0  0  0
   48.1167   29.3936   45.9511 H   0  0  0  0  0  0  0  0  0  0  0  0
   46.9296   31.1019   44.6518 H   0  0  0  0  0  0  0  0  0  0  0  0
   46.8436   33.5998   48.1053 H   0  0  0  0  0  0  0  0  0  0  0  0
   48.0367   31.8767   49.4043 H   0  0  0  0  0  0  0  0  0  0  0  0
   48.1453   28.1573   48.7982 H   0  0  0  0  0  0  0  0  0  0  0  0
   48.6186   35.6685   40.7505 H   0  0  0  0  0  0  0  0  0  0  0  0
   47.9152   36.2855   42.3122 H   0  0  0  0  0  0  0  0  0  0  0  0
   50.0015   35.2876   42.7860 H   0  0  0  0  0  0  0  0  0  0  0  0
   48.6503   34.1948   43.3704 H   0  0  0  0  0  0  0  0  0  0  0  0
   52.3279   31.5226   41.4614 H   0  0  0  0  0  0  0  0  0  0  0  0
   50.2779   30.9248   39.7862 H   0  0  0  0  0  0  0  0  0  0  0  0
   48.4011   32.7114   40.3419 H   0  0  0  0  0  0  0  0  0  0  0  0
  1  2  2  0
  1  6  1  0
  2  3  1  0
  3  4  2  0
  5  4  1  0
  5 10  1  0
  6  5  2  0
  7 12  2  0
  7 13  1  0
  8  7  1  0
  9 10  1  0
  9  8  2  0
 10 11  2  0
 11 12  1  0
 13 15  2  0
 14 13  2  0
 16  1  1  0
 17 16  2  0
 18 19  1  0
 18 16  1  0
 19 20  1  0
 21 22  1  0
 21 20  1  0
 23 22  2  0
 24 25  2  0
 24 23  1  0
 25 21  1  0
  2 26  1  0
  3 27  1  0
  8 28  1  0
  9 29  1  0
 11 30  1  0
 12 31  1  0
 13 32  1  0
 19 33  1  0
 19 34  1  0
 20 35  1  0
 20 36  1  0
 23 37  1  0
 24 38  1  0
 25 39  1  0
M  ISO  8  26  14  27  14  28  14  29  14  30  14  31  14  32  11  33   8
M  ISO  6  34   8  35   8  36   8  37  14  38  14  39  14
M  END
>  <minimizedAffinity>  (1) 
-5.29957438

>  <minimizedRMSD>  (1) 
1.66887534

$$$$
