
     RDKit          3D

 29 30  0  0  0  0  0  0  0  0999 V2000
   48.0010   35.3630   41.7480 O   0  0  0  0  0  0  0  0  0  0  0  0
   49.2110   35.1210   42.2600 C   0  0  0  0  0  0  0  0  0  0  0  0
   49.4050   33.6940   42.6600 C   0  0  0  0  0  0  0  0  0  0  0  0
   49.9370   32.8570   41.6060 N   0  0  0  0  0  0  0  0  0  0  0  0
   51.2080   32.4660   41.6820 N   0  0  0  0  0  0  0  0  0  0  0  0
   51.5500   31.6830   40.6740 C   0  0  0  0  0  0  0  0  0  0  0  0
   50.4420   31.5350   39.8660 C   0  0  0  0  0  0  0  0  0  0  0  0
   49.5030   32.2850   40.5070 C   0  0  0  0  0  0  0  0  0  0  0  0
   46.7750   34.7870   41.9780 C   0  0  0  0  0  0  0  0  0  0  0  0
   46.5490   34.2200   40.9320 O   0  0  0  0  0  0  0  0  0  0  0  0
   46.0330   34.9040   43.2180 C   0  0  0  0  0  0  0  0  0  0  0  0
   45.2330   36.0200   43.2160 C   0  0  0  0  0  0  0  0  0  0  0  0
   44.5190   36.2000   44.4200 C   0  0  0  0  0  0  0  0  0  0  0  0
   44.6720   35.3120   45.4210 N   0  0  0  0  0  0  0  0  0  0  0  0
   45.4930   34.2310   45.3250 C   0  0  0  0  0  0  0  0  0  0  0  0
   46.1740   34.0470   44.1960 N   0  0  0  0  0  0  0  0  0  0  0  0
   45.6040   33.3130   46.4550 C   0  0  0  0  0  0  0  0  0  0  0  0
   46.4370   32.3710   46.4090 O   0  0  0  0  0  0  0  0  0  0  0  0
   44.7830   33.5040   47.5570 O   0  0  0  0  0  0  0  0  0  0  0  0
   49.9683   35.3788   41.5050 H   0  0  0  0  0  0  0  0  0  0  0  0
   49.3101   35.7323   43.1691 H   0  0  0  0  0  0  0  0  0  0  0  0
   50.1016   33.6644   43.5108 H   0  0  0  0  0  0  0  0  0  0  0  0
   48.4116   33.2955   42.9137 H   0  0  0  0  0  0  0  0  0  0  0  0
   52.5392   31.2311   40.5091 H   0  0  0  0  0  0  0  0  0  0  0  0
   50.3418   30.9559   38.9362 H   0  0  0  0  0  0  0  0  0  0  0  0
   48.4736   32.4010   40.1371 H   0  0  0  0  0  0  0  0  0  0  0  0
   45.1562   36.7064   42.3599 H   0  0  0  0  0  0  0  0  0  0  0  0
   43.8426   37.0591   44.5400 H   0  0  0  0  0  0  0  0  0  0  0  0
   44.8445   32.8913   48.3322 H   0  0  0  0  0  0  0  0  0  0  0  0
  1  9  1  0
  1  2  1  0
  2  3  1  0
  4  5  1  0
  4  3  1  0
  6  5  2  0
  7  8  2  0
  7  6  1  0
  8  4  1  0
  9 11  1  0
 10  9  2  0
 11 16  1  0
 12 11  2  0
 12 13  1  0
 13 14  2  0
 15 14  1  0
 15 17  1  0
 16 15  2  0
 17 19  1  0
 18 17  2  0
  2 20  1  0
  2 21  1  0
  3 22  1  0
  3 23  1  0
  6 24  1  0
  7 25  1  0
  8 26  1  0
 12 27  1  0
 13 28  1  0
 19 29  1  0
M  ISO  8  20   8  21   8  22   8  23   8  24  14  25  14  26  14  27  14
M  ISO  2  28  14  29   3
M  END
>  <minimizedAffinity>  (1) 
-5.13164091

>  <minimizedRMSD>  (1) 
0.155838788

$$$$
