
     RDKit          3D

 28 29  0  0  0  0  0  0  0  0999 V2000
   49.4000   35.2140   42.1520 C   0  0  0  0  0  0  0  0  0  0  0  0
   49.5290   33.7950   42.6070 C   0  0  0  0  0  0  0  0  0  0  0  0
   50.0120   32.8920   41.5850 N   0  0  0  0  0  0  0  0  0  0  0  0
   51.2790   32.4730   41.6700 N   0  0  0  0  0  0  0  0  0  0  0  0
   51.5800   31.6360   40.6790 C   0  0  0  0  0  0  0  0  0  0  0  0
   50.4630   31.4930   39.8960 C   0  0  0  0  0  0  0  0  0  0  0  0
   49.5420   32.2920   40.5110 C   0  0  0  0  0  0  0  0  0  0  0  0
   48.1540   35.5400   41.7960 O   0  0  0  0  0  0  0  0  0  0  0  0
   46.9510   34.8920   41.9520 C   0  0  0  0  0  0  0  0  0  0  0  0
   46.7720   34.3960   40.8630 O   0  0  0  0  0  0  0  0  0  0  0  0
   46.1890   34.8890   43.1830 C   0  0  0  0  0  0  0  0  0  0  0  0
   45.3040   35.9370   43.2330 C   0  0  0  0  0  0  0  0  0  0  0  0
   44.5710   35.9910   44.4250 C   0  0  0  0  0  0  0  0  0  0  0  0
   44.7690   35.0680   45.3850 N   0  0  0  0  0  0  0  0  0  0  0  0
   45.6700   34.0650   45.2400 C   0  0  0  0  0  0  0  0  0  0  0  0
   46.3820   33.9860   44.1170 N   0  0  0  0  0  0  0  0  0  0  0  0
   45.8530   33.0880   46.3000 C   0  0  0  0  0  0  0  0  0  0  0  0
   46.9620   32.8100   46.8320 O   0  0  0  0  0  0  0  0  0  0  0  0
   49.7134   35.8748   42.9737 H   0  0  0  0  0  0  0  0  0  0  0  0
   50.0363   35.3319   41.2625 H   0  0  0  0  0  0  0  0  0  0  0  0
   50.2300   33.7656   43.4542 H   0  0  0  0  0  0  0  0  0  0  0  0
   48.5194   33.4552   42.8813 H   0  0  0  0  0  0  0  0  0  0  0  0
   52.5516   31.1464   40.5171 H   0  0  0  0  0  0  0  0  0  0  0  0
   50.3388   30.8815   38.9901 H   0  0  0  0  0  0  0  0  0  0  0  0
   48.5123   32.4213   40.1464 H   0  0  0  0  0  0  0  0  0  0  0  0
   45.1824   36.6637   42.4162 H   0  0  0  0  0  0  0  0  0  0  0  0
   43.8309   36.7903   44.5775 H   0  0  0  0  0  0  0  0  0  0  0  0
   44.9626   32.5540   46.6634 H   0  0  0  0  0  0  0  0  0  0  0  0
  1  2  1  0
  3  4  1  0
  3  2  1  0
  5  4  2  0
  6  7  2  0
  6  5  1  0
  7  3  1  0
  8  9  1  0
  8  1  1  0
  9 11  1  0
 10  9  2  0
 11 12  2  0
 11 16  1  0
 12 13  1  0
 13 14  2  0
 15 14  1  0
 15 17  1  0
 16 15  2  0
 17 18  2  0
  1 19  1  0
  1 20  1  0
  2 21  1  0
  2 22  1  0
  5 23  1  0
  6 24  1  0
  7 25  1  0
 12 26  1  0
 13 27  1  0
 17 28  1  0
M  ISO  8  19   8  20   8  21   8  22   8  23  14  24  14  25  14  26  14
M  ISO  2  27  14  28   6
M  END
>  <minimizedAffinity>  (1) 
-4.67560816

>  <minimizedRMSD>  (1) 
0.303474635

$$$$
