
     RDKit          3D

 30 31  0  0  0  0  0  0  0  0999 V2000
   47.9790   35.2020   41.3950 O   0  0  0  0  0  0  0  0  0  0  0  0
   49.1720   35.1420   41.9680 C   0  0  0  0  0  0  0  0  0  0  0  0
   49.4820   33.7940   42.5280 C   0  0  0  0  0  0  0  0  0  0  0  0
   50.0150   32.8730   41.5350 N   0  0  0  0  0  0  0  0  0  0  0  0
   51.2750   32.4660   41.6340 N   0  0  0  0  0  0  0  0  0  0  0  0
   51.6060   31.6370   40.6730 C   0  0  0  0  0  0  0  0  0  0  0  0
   50.4900   31.4690   39.8640 C   0  0  0  0  0  0  0  0  0  0  0  0
   49.5630   32.2660   40.4700 C   0  0  0  0  0  0  0  0  0  0  0  0
   46.7840   34.5740   41.6270 C   0  0  0  0  0  0  0  0  0  0  0  0
   46.5180   34.1610   40.5450 O   0  0  0  0  0  0  0  0  0  0  0  0
   46.1520   34.5280   42.9400 C   0  0  0  0  0  0  0  0  0  0  0  0
   45.5840   35.7270   43.2520 C   0  0  0  0  0  0  0  0  0  0  0  0
   44.9860   35.7220   44.5270 C   0  0  0  0  0  0  0  0  0  0  0  0
   45.0180   34.6090   45.2850 N   0  0  0  0  0  0  0  0  0  0  0  0
   45.6150   33.4650   44.8700 C   0  0  0  0  0  0  0  0  0  0  0  0
   46.1780   33.4560   43.6810 N   0  0  0  0  0  0  0  0  0  0  0  0
   45.5870   32.3490   45.7600 N   0  0  0  0  0  0  0  0  0  0  0  0
   44.3330   36.8700   45.0610 N   0  0  0  0  0  0  0  0  0  0  0  0
   49.9350   35.3935   41.2166 H   0  0  0  0  0  0  0  0  0  0  0  0
   49.1710   35.8545   42.8061 H   0  0  0  0  0  0  0  0  0  0  0  0
   50.2242   33.9107   43.3315 H   0  0  0  0  0  0  0  0  0  0  0  0
   48.5382   33.3673   42.8985 H   0  0  0  0  0  0  0  0  0  0  0  0
   52.5881   31.1617   40.5334 H   0  0  0  0  0  0  0  0  0  0  0  0
   50.3808   30.8494   38.9617 H   0  0  0  0  0  0  0  0  0  0  0  0
   48.5348   32.3858   40.0979 H   0  0  0  0  0  0  0  0  0  0  0  0
   45.5918   36.6003   42.5832 H   0  0  0  0  0  0  0  0  0  0  0  0
   46.0285   31.4599   45.4852 H   0  0  0  0  0  0  0  0  0  0  0  0
   45.1253   32.4330   46.6769 H   0  0  0  0  0  0  0  0  0  0  0  0
   43.9062   36.8307   45.9976 H   0  0  0  0  0  0  0  0  0  0  0  0
   44.2877   37.7394   44.5105 H   0  0  0  0  0  0  0  0  0  0  0  0
  1  9  1  0
  1  2  1  0
  2  3  1  0
  4  5  1  0
  4  3  1  0
  6  5  2  0
  7  8  2  0
  7  6  1  0
  8  4  1  0
  9 11  1  0
 10  9  2  0
 11 12  2  0
 11 16  1  0
 12 13  1  0
 13 18  1  0
 13 14  2  0
 15 14  1  0
 15 17  1  0
 16 15  2  0
  2 19  1  0
  2 20  1  0
  3 21  1  0
  3 22  1  0
  6 23  1  0
  7 24  1  0
  8 25  1  0
 12 26  1  0
 17 27  1  0
 17 28  1  0
 18 29  1  0
 18 30  1  0
M  ISO  8  19   8  20   8  21   8  22   8  23  14  24  14  25  14  26  14
M  END
>  <minimizedAffinity>  (1) 
-4.34568596

>  <minimizedRMSD>  (1) 
0.491542161

$$$$
