
     RDKit          3D

 41 43  0  0  1  0  0  0  0  0999 V2000
   46.9940   34.4930   42.4740 C   0  0  0  0  0  0  0  0  0  0  0  0
   47.5840   35.3700   41.9680 O   0  0  0  0  0  0  0  0  0  0  0  0
   46.5050   34.1690   43.8150 C   0  0  0  0  0  0  0  0  0  0  0  0
   47.1230   33.0500   44.2830 C   0  0  0  0  0  0  0  0  0  0  0  0
   46.6660   32.6920   45.5570 C   0  0  0  0  0  0  0  0  0  0  0  0
   45.7130   33.4320   46.1750 N   0  0  0  0  0  0  0  0  0  0  0  0
   45.1690   34.5360   45.6020 C   0  0  0  0  0  0  0  0  0  0  0  0
   45.6020   34.8600   44.4200 N   0  0  0  0  0  0  0  0  0  0  0  0
   44.1780   35.2340   46.3350 N   0  0  0  0  0  0  0  0  0  0  0  0
   47.1330   31.5920   46.2630 O   0  0  0  0  0  0  0  0  0  0  0  0
   47.4760   29.3480   46.9550 N   0  0  0  0  0  0  0  0  0  0  0  0
   46.3440   28.6150   47.4550 C   0  0  0  0  0  0  0  0  0  0  0  0
   45.1150   29.4120   47.0710 C   0  0  0  0  0  0  0  0  0  0  0  0
   45.5230   29.9750   45.7440 C   0  0  0  0  0  0  0  0  0  0  0  0
   47.0120   30.2560   45.9290 C   0  0  1  0  0  0  0  0  0  0  0  0
   46.8040   33.6700   41.4060 O   0  0  0  0  0  0  0  0  0  0  0  0
   46.1990   33.7780   40.2520 C   0  0  0  0  0  0  0  0  0  0  0  0
   44.8840   33.1270   40.1820 C   0  0  0  0  0  0  0  0  0  0  0  0
   43.7870   34.0530   40.4800 N   0  0  0  0  0  0  0  0  0  0  0  0
   42.9080   34.3570   39.5460 N   0  0  0  0  0  0  0  0  0  0  0  0
   41.9880   35.1800   39.9480 C   0  0  0  0  0  0  0  0  0  0  0  0
   42.2630   35.4640   41.2840 C   0  0  0  0  0  0  0  0  0  0  0  0
   43.3870   34.7210   41.5110 C   0  0  0  0  0  0  0  0  0  0  0  0
   47.8907   32.4929   43.7260 H   0  0  0  0  0  0  0  0  0  0  0  0
   43.7402   36.0766   45.9360 H   0  0  0  0  0  0  0  0  0  0  0  0
   43.8952   34.8989   47.2670 H   0  0  0  0  0  0  0  0  0  0  0  0
   47.9115   29.8813   47.7210 H   0  0  0  0  0  0  0  0  0  0  0  0
   46.3067   27.6148   46.9986 H   0  0  0  0  0  0  0  0  0  0  0  0
   46.4067   28.4791   48.5448 H   0  0  0  0  0  0  0  0  0  0  0  0
   44.2302   28.7651   46.9776 H   0  0  0  0  0  0  0  0  0  0  0  0
   44.8267   30.1736   47.8105 H   0  0  0  0  0  0  0  0  0  0  0  0
   44.9714   30.9003   45.5214 H   0  0  0  0  0  0  0  0  0  0  0  0
   45.3125   29.2969   44.9039 H   0  0  0  0  0  0  0  0  0  0  0  0
   47.6255   30.0887   45.0314 H   0  0  0  0  0  0  0  0  0  0  0  0
   46.0630   34.8479   40.0359 H   0  0  0  0  0  0  0  0  0  0  0  0
   46.8379   33.2645   39.5184 H   0  0  0  0  0  0  0  0  0  0  0  0
   44.7419   32.7253   39.1679 H   0  0  0  0  0  0  0  0  0  0  0  0
   44.8639   32.3279   40.9377 H   0  0  0  0  0  0  0  0  0  0  0  0
   41.1538   35.5760   39.3502 H   0  0  0  0  0  0  0  0  0  0  0  0
   41.7156   36.1186   41.9781 H   0  0  0  0  0  0  0  0  0  0  0  0
   43.9036   34.6941   42.4818 H   0  0  0  0  0  0  0  0  0  0  0  0
  1  3  1  0
  2  1  2  0
  3  4  2  0
  3  8  1  0
  4  5  1  0
  5  6  2  0
  5 10  1  0
  7  6  1  0
  7  9  1  0
  8  7  2  0
 11 12  1  0
 13 12  1  0
 14 15  1  0
 14 13  1  0
 15 10  1  0
 15 11  1  0
 16  1  1  0
 17 16  1  0
 18 17  1  0
 18 19  1  0
 19 23  1  0
 20 21  2  0
 20 19  1  0
 21 22  1  0
 22 23  2  0
  4 24  1  0
  9 25  1  0
  9 26  1  0
 11 27  1  0
 12 28  1  0
 12 29  1  0
 13 30  1  0
 13 31  1  0
 14 32  1  0
 14 33  1  0
 15 34  1  6
 17 35  1  0
 17 36  1  0
 18 37  1  0
 18 38  1  0
 21 39  1  0
 22 40  1  0
 23 41  1  0
M  ISO  8  24  14  27   5  28  13  29  13  30  13  31  13  32  13  33  13
M  ISO  8  34  13  35   8  36   8  37   8  38   8  39  14  40  14  41  14
M  END
>  <minimizedAffinity>  (1) 
-4.94784307

>  <minimizedRMSD>  (1) 
6.50282145

$$$$
