
     RDKit          3D

 31 32  0  0  0  0  0  0  0  0999 V2000
   47.9700   35.1490   41.7520 C   0  0  0  0  0  0  0  0  0  0  0  0
   48.5380   35.5540   40.8090 O   0  0  0  0  0  0  0  0  0  0  0  0
   46.5760   34.8970   42.1250 C   0  0  0  0  0  0  0  0  0  0  0  0
   45.9560   34.1660   41.1650 C   0  0  0  0  0  0  0  0  0  0  0  0
   44.6120   33.9330   41.4890 C   0  0  0  0  0  0  0  0  0  0  0  0
   44.0750   34.4060   42.6220 N   0  0  0  0  0  0  0  0  0  0  0  0
   44.8010   35.1270   43.5060 C   0  0  0  0  0  0  0  0  0  0  0  0
   46.0440   35.3440   43.2100 N   0  0  0  0  0  0  0  0  0  0  0  0
   44.1370   35.5860   44.6730 N   0  0  0  0  0  0  0  0  0  0  0  0
   43.7720   33.1920   40.6460 O   0  0  0  0  0  0  0  0  0  0  0  0
   43.5660   33.7860   39.3860 C   0  0  0  0  0  0  0  0  0  0  0  0
   43.6390   33.7320   38.1310 O   0  0  0  0  0  0  0  0  0  0  0  0
   49.0140   34.9090   42.5910 O   0  0  0  0  0  0  0  0  0  0  0  0
   50.1890   34.3480   42.4590 C   0  0  0  0  0  0  0  0  0  0  0  0
   50.1610   32.8780   42.4420 C   0  0  0  0  0  0  0  0  0  0  0  0
   50.2710   32.3260   41.0920 N   0  0  0  0  0  0  0  0  0  0  0  0
   51.4190   31.8370   40.6630 N   0  0  0  0  0  0  0  0  0  0  0  0
   51.3620   31.3690   39.4530 C   0  0  0  0  0  0  0  0  0  0  0  0
   50.0500   31.5570   39.0190 C   0  0  0  0  0  0  0  0  0  0  0  0
   49.4720   32.1490   40.0960 C   0  0  0  0  0  0  0  0  0  0  0  0
   46.4453   33.8025   40.2493 H   0  0  0  0  0  0  0  0  0  0  0  0
   44.6506   36.1389   45.3740 H   0  0  0  0  0  0  0  0  0  0  0  0
   43.1414   35.3663   44.8191 H   0  0  0  0  0  0  0  0  0  0  0  0
   43.1321   34.7730   39.6039 H   0  0  0  0  0  0  0  0  0  0  0  0
   50.6317   34.6948   41.5136 H   0  0  0  0  0  0  0  0  0  0  0  0
   50.7779   34.6409   43.3407 H   0  0  0  0  0  0  0  0  0  0  0  0
   51.0013   32.5032   43.0448 H   0  0  0  0  0  0  0  0  0  0  0  0
   49.1914   32.5598   42.8526 H   0  0  0  0  0  0  0  0  0  0  0  0
   52.1856   30.9142   38.8831 H   0  0  0  0  0  0  0  0  0  0  0  0
   49.5985   31.2931   38.0513 H   0  0  0  0  0  0  0  0  0  0  0  0
   48.4145   32.4511   40.1166 H   0  0  0  0  0  0  0  0  0  0  0  0
  1  3  1  0
  1 13  1  0
  2  1  2  0
  3  8  2  0
  4  5  2  0
  4  3  1  0
  5  6  1  0
  6  7  2  0
  7  9  1  0
  8  7  1  0
 10  5  1  0
 11 10  1  0
 12 11  2  0
 14 13  1  0
 15 14  1  0
 16 15  1  0
 17 16  1  0
 18 17  2  0
 19 18  1  0
 19 20  2  0
 20 16  1  0
  4 21  1  0
  9 22  1  0
  9 23  1  0
 11 24  1  0
 14 25  1  0
 14 26  1  0
 15 27  1  0
 15 28  1  0
 18 29  1  0
 19 30  1  0
 20 31  1  0
M  ISO  8  21  14  24   6  25   8  26   8  27   8  28   8  29  14  30  14
M  ISO  1  31  14
M  END
>  <minimizedAffinity>  (1) 
-4.26586151

>  <minimizedRMSD>  (1) 
3.05439329

$$$$
