
     RDKit          3D

 35 36  0  0  0  0  0  0  0  0999 V2000
   48.3020   35.1400   41.8130 C   0  0  0  0  0  0  0  0  0  0  0  0
   48.7800   35.6560   40.8750 O   0  0  0  0  0  0  0  0  0  0  0  0
   46.9660   34.7250   42.2420 C   0  0  0  0  0  0  0  0  0  0  0  0
   47.0150   34.2840   43.5330 C   0  0  0  0  0  0  0  0  0  0  0  0
   45.7400   33.8420   43.9740 C   0  0  0  0  0  0  0  0  0  0  0  0
   44.6760   33.8950   43.1310 N   0  0  0  0  0  0  0  0  0  0  0  0
   44.7710   34.3570   41.8680 C   0  0  0  0  0  0  0  0  0  0  0  0
   45.9400   34.7640   41.4630 N   0  0  0  0  0  0  0  0  0  0  0  0
   43.5910   34.3540   41.0810 N   0  0  0  0  0  0  0  0  0  0  0  0
   45.5320   33.3510   45.2470 O   0  0  0  0  0  0  0  0  0  0  0  0
   46.1970   32.1910   45.7100 C   0  0  0  0  0  0  0  0  0  0  0  0
   46.9090   32.5750   46.9980 C   0  0  0  0  0  0  0  0  0  0  0  0
   49.4160   34.9600   42.5840 O   0  0  0  0  0  0  0  0  0  0  0  0
   50.5050   34.2360   42.4840 C   0  0  0  0  0  0  0  0  0  0  0  0
   50.2700   32.7860   42.4430 C   0  0  0  0  0  0  0  0  0  0  0  0
   50.4650   32.2250   41.1030 N   0  0  0  0  0  0  0  0  0  0  0  0
   51.6600   31.8130   40.7250 N   0  0  0  0  0  0  0  0  0  0  0  0
   51.6840   31.3350   39.5180 C   0  0  0  0  0  0  0  0  0  0  0  0
   50.3850   31.4300   39.0200 C   0  0  0  0  0  0  0  0  0  0  0  0
   49.7160   31.9890   40.0740 C   0  0  0  0  0  0  0  0  0  0  0  0
   47.9246   34.2726   44.1515 H   0  0  0  0  0  0  0  0  0  0  0  0
   43.6183   34.6982   40.1106 H   0  0  0  0  0  0  0  0  0  0  0  0
   42.7068   34.0076   41.4799 H   0  0  0  0  0  0  0  0  0  0  0  0
   45.4689   31.3897   45.9046 H   0  0  0  0  0  0  0  0  0  0  0  0
   46.9116   31.8208   44.9601 H   0  0  0  0  0  0  0  0  0  0  0  0
   46.3077   32.2507   47.8601 H   0  0  0  0  0  0  0  0  0  0  0  0
   47.8935   32.0855   47.0327 H   0  0  0  0  0  0  0  0  0  0  0  0
   47.0408   33.6665   47.0327 H   0  0  0  0  0  0  0  0  0  0  0  0
   51.0269   34.5259   41.5601 H   0  0  0  0  0  0  0  0  0  0  0  0
   51.0959   34.4321   43.3908 H   0  0  0  0  0  0  0  0  0  0  0  0
   50.9689   32.2953   43.1363 H   0  0  0  0  0  0  0  0  0  0  0  0
   49.2236   32.6080   42.7316 H   0  0  0  0  0  0  0  0  0  0  0  0
   52.5608   30.9324   38.9897 H   0  0  0  0  0  0  0  0  0  0  0  0
   49.9982   31.1323   38.0342 H   0  0  0  0  0  0  0  0  0  0  0  0
   48.6402   32.2171   40.0494 H   0  0  0  0  0  0  0  0  0  0  0  0
  1  3  1  0
  1 13  1  0
  2  1  2  0
  3  4  2  0
  4  5  1  0
  5 10  1  0
  6  5  2  0
  7  6  1  0
  8  7  2  0
  8  3  1  0
  9  7  1  0
 10 11  1  0
 11 12  1  0
 14 13  1  0
 15 14  1  0
 16 15  1  0
 17 16  1  0
 18 17  2  0
 19 18  1  0
 19 20  2  0
 20 16  1  0
  4 21  1  0
  9 22  1  0
  9 23  1  0
 11 24  1  0
 11 25  1  0
 12 26  1  0
 12 27  1  0
 12 28  1  0
 14 29  1  0
 14 30  1  0
 15 31  1  0
 15 32  1  0
 18 33  1  0
 19 34  1  0
 20 35  1  0
M  ISO  8  21  14  24   8  25   8  26   8  27   8  28   8  29   8  30   8
M  ISO  5  31   8  32   8  33  14  34  14  35  14
M  END
>  <minimizedAffinity>  (1) 
-4.17430735

>  <minimizedRMSD>  (1) 
2.66572738

$$$$
