
     RDKit          3D

 20 20  0  0  0  0  0  0  0  0999 V2000
   44.7440   35.0480   45.2390 C   0  0  0  0  0  0  0  0  0  0  0  0
   45.4360   34.8720   44.0370 C   0  0  0  0  0  0  0  0  0  0  0  0
   46.4690   33.9280   43.9840 C   0  0  0  0  0  0  0  0  0  0  0  0
   46.7440   33.2300   45.1110 N   0  0  0  0  0  0  0  0  0  0  0  0
   46.0620   33.4150   46.2620 C   0  0  0  0  0  0  0  0  0  0  0  0
   45.0750   34.3140   46.3200 N   0  0  0  0  0  0  0  0  0  0  0  0
   46.4540   32.6200   47.3690 N   0  0  0  0  0  0  0  0  0  0  0  0
   45.4830   32.2610   48.3410 C   0  0  0  0  0  0  0  0  0  0  0  0
   44.2890   31.9770   48.0250 N   0  0  0  0  0  0  0  0  0  0  0  0
   45.8340   32.2050   49.7410 N   0  0  0  0  0  0  0  0  0  0  0  0
   43.8510   31.9580   47.1010 H   0  0  0  0  0  0  0  0  0  0  0  0
   45.0220   35.7120   42.8790 C   0  0  0  0  0  0  0  0  0  0  0  0
   45.6540   35.2760   41.7310 F   0  0  0  0  0  0  0  0  0  0  0  0
   45.2800   37.0410   43.0580 F   0  0  0  0  0  0  0  0  0  0  0  0
   43.6590   35.5770   42.6170 F   0  0  0  0  0  0  0  0  0  0  0  0
   43.9299   35.7850   45.3025 H   0  0  0  0  0  0  0  0  0  0  0  0
   47.0379   33.7593   43.0578 H   0  0  0  0  0  0  0  0  0  0  0  0
   47.4304   32.3070   47.4667 H   0  0  0  0  0  0  0  0  0  0  0  0
   45.1240   31.9437   50.4399 H   0  0  0  0  0  0  0  0  0  0  0  0
   46.7943   32.4263   50.0404 H   0  0  0  0  0  0  0  0  0  0  0  0
  1  6  2  0
  2  1  1  0
  3  2  2  0
  3  4  1  0
  4  5  2  0
  5  6  1  0
  5  7  1  0
  7  8  1  0
  8 10  1  0
  9  8  2  0
 11  9  1  0
 12 14  1  0
 12  2  1  0
 13 12  1  0
 15 12  1  0
  1 16  1  0
  3 17  1  0
  7 18  1  0
 10 19  1  0
 10 20  1  0
M  ISO  2  16  14  17  14
M  END
>  <minimizedAffinity>  (1) 
-5.52441835

>  <minimizedRMSD>  (1) 
0.731420994

$$$$
