
     RDKit          3D

 22 23  0  0  0  0  0  0  0  0999 V2000
   44.9230   35.0530   44.9890 C   0  0  0  0  0  0  0  0  0  0  0  0
   45.7480   34.8450   43.8670 C   0  0  0  0  0  0  0  0  0  0  0  0
   46.6830   33.8210   43.9220 C   0  0  0  0  0  0  0  0  0  0  0  0
   46.7610   33.0730   45.0400 N   0  0  0  0  0  0  0  0  0  0  0  0
   45.9660   33.2830   46.1070 C   0  0  0  0  0  0  0  0  0  0  0  0
   45.0550   34.2640   46.0810 N   0  0  0  0  0  0  0  0  0  0  0  0
   46.1000   32.4390   47.2880 C   0  0  0  0  0  0  0  0  0  0  0  0
   44.9860   32.0920   48.0210 C   0  0  0  0  0  0  0  0  0  0  0  0
   45.0580   31.2940   49.1500 C   0  0  0  0  0  0  0  0  0  0  0  0
   46.3410   30.8740   49.4820 C   0  0  0  0  0  0  0  0  0  0  0  0
   47.4850   31.2130   48.7540 C   0  0  0  0  0  0  0  0  0  0  0  0
   47.3180   32.0000   47.6610 N   0  0  0  0  0  0  0  0  0  0  0  0
   45.5450   35.7470   42.7110 C   0  0  0  0  0  0  0  0  0  0  0  0
   46.6570   35.7040   41.8860 F   0  0  0  0  0  0  0  0  0  0  0  0
   45.3490   37.0640   43.0740 F   0  0  0  0  0  0  0  0  0  0  0  0
   44.4890   35.3550   41.9270 F   0  0  0  0  0  0  0  0  0  0  0  0
   44.1716   35.8563   44.9781 H   0  0  0  0  0  0  0  0  0  0  0  0
   47.3483   33.6236   43.0685 H   0  0  0  0  0  0  0  0  0  0  0  0
   44.0025   32.4630   47.6969 H   0  0  0  0  0  0  0  0  0  0  0  0
   44.1709   31.0146   49.7374 H   0  0  0  0  0  0  0  0  0  0  0  0
   46.4631   30.2370   50.3704 H   0  0  0  0  0  0  0  0  0  0  0  0
   48.4810   30.8561   49.0550 H   0  0  0  0  0  0  0  0  0  0  0  0
  1  6  2  0
  2  3  2  0
  2  1  1  0
  3  4  1  0
  4  5  2  0
  5  7  1  0
  6  5  1  0
  7 12  1  0
  7  8  2  0
  8  9  1  0
  9 10  2  0
 11 10  1  0
 12 11  2  0
 13 15  1  0
 13  2  1  0
 14 13  1  0
 16 13  1  0
  1 17  1  0
  3 18  1  0
  8 19  1  0
  9 20  1  0
 10 21  1  0
 11 22  1  0
M  ISO  6  17  14  18  14  19  14  20  14  21  14  22  14
M  END
>  <minimizedAffinity>  (1) 
-5.25302362

>  <minimizedRMSD>  (1) 
0.499064773

$$$$
