
     RDKit          3D

 23 24  0  0  0  0  0  0  0  0999 V2000
   45.1880   34.3080   45.8070 C   0  0  0  0  0  0  0  0  0  0  0  0
   45.5640   34.6530   44.5070 C   0  0  0  0  0  0  0  0  0  0  0  0
   46.5140   33.8840   43.8490 C   0  0  0  0  0  0  0  0  0  0  0  0
   47.0360   32.8240   44.5080 N   0  0  0  0  0  0  0  0  0  0  0  0
   46.6730   32.4980   45.7540 C   0  0  0  0  0  0  0  0  0  0  0  0
   45.7490   33.2370   46.4070 N   0  0  0  0  0  0  0  0  0  0  0  0
   47.1730   31.4070   46.5060 N   0  0  0  0  0  0  0  0  0  0  0  0
   47.8280   30.4950   45.7620 C   0  0  0  0  0  0  0  0  0  0  0  0
   48.3810   29.3600   46.3600 C   0  0  0  0  0  0  0  0  0  0  0  0
   48.2430   29.1900   47.7290 C   0  0  0  0  0  0  0  0  0  0  0  0
   48.7110   28.1900   48.3660 O   0  0  0  0  0  0  0  0  0  0  0  0
   47.5740   30.1400   48.4290 N   0  0  0  0  0  0  0  0  0  0  0  0
   47.0500   31.2260   47.8310 C   0  0  0  0  0  0  0  0  0  0  0  0
   46.4180   32.1290   48.4660 O   0  0  0  0  0  0  0  0  0  0  0  0
   44.9010   35.8500   43.9090 C   0  0  0  0  0  0  0  0  0  0  0  0
   45.6500   36.3040   42.8260 F   0  0  0  0  0  0  0  0  0  0  0  0
   44.7710   36.8920   44.8070 F   0  0  0  0  0  0  0  0  0  0  0  0
   43.6570   35.5570   43.3960 F   0  0  0  0  0  0  0  0  0  0  0  0
   44.4362   34.9079   46.3408 H   0  0  0  0  0  0  0  0  0  0  0  0
   46.8321   34.1286   42.8248 H   0  0  0  0  0  0  0  0  0  0  0  0
   47.9281   30.6448   44.6769 H   0  0  0  0  0  0  0  0  0  0  0  0
   48.9168   28.6138   45.7549 H   0  0  0  0  0  0  0  0  0  0  0  0
   47.4639   30.0271   49.4469 H   0  0  0  0  0  0  0  0  0  0  0  0
  1  6  2  0
  2  1  1  0
  3  2  2  0
  3  4  1  0
  4  5  2  0
  5  6  1  0
  5  7  1  0
  7 13  1  0
  8  9  2  0
  8  7  1  0
  9 10  1  0
 10 11  2  0
 10 12  1  0
 13 12  1  0
 13 14  2  0
 15  2  1  0
 15 17  1  0
 16 15  1  0
 18 15  1  0
  1 19  1  0
  3 20  1  0
  8 21  1  0
  9 22  1  0
 12 23  1  0
M  ISO  5  19  14  20  14  21  14  22  14  23   9
M  END
>  <minimizedAffinity>  (1) 
-5.17263126

>  <minimizedRMSD>  (1) 
2.20125127

$$$$
