
     RDKit          3D

 21 22  0  0  0  0  0  0  0  0999 V2000
   44.9190   35.0530   44.9970 C   0  0  0  0  0  0  0  0  0  0  0  0
   45.7530   34.8360   43.8780 C   0  0  0  0  0  0  0  0  0  0  0  0
   46.6900   33.8110   43.9240 C   0  0  0  0  0  0  0  0  0  0  0  0
   46.7540   33.0590   45.0620 N   0  0  0  0  0  0  0  0  0  0  0  0
   45.9560   33.2780   46.1140 C   0  0  0  0  0  0  0  0  0  0  0  0
   45.0480   34.2620   46.0850 N   0  0  0  0  0  0  0  0  0  0  0  0
   46.0710   32.4420   47.3030 C   0  0  0  0  0  0  0  0  0  0  0  0
   47.3030   31.9940   47.7330 C   0  0  0  0  0  0  0  0  0  0  0  0
   47.4120   31.2030   48.8580 C   0  0  0  0  0  0  0  0  0  0  0  0
   46.2900   30.8760   49.5320 N   0  0  0  0  0  0  0  0  0  0  0  0
   45.0630   31.3050   49.1280 C   0  0  0  0  0  0  0  0  0  0  0  0
   45.0100   32.0730   48.0250 N   0  0  0  0  0  0  0  0  0  0  0  0
   45.5570   35.7420   42.7190 C   0  0  0  0  0  0  0  0  0  0  0  0
   46.6720   35.6950   41.8970 F   0  0  0  0  0  0  0  0  0  0  0  0
   45.3410   37.0530   43.0850 F   0  0  0  0  0  0  0  0  0  0  0  0
   44.4970   35.3460   41.9230 F   0  0  0  0  0  0  0  0  0  0  0  0
   44.1707   35.8591   44.9830 H   0  0  0  0  0  0  0  0  0  0  0  0
   47.3575   33.6121   43.0726 H   0  0  0  0  0  0  0  0  0  0  0  0
   48.2083   32.2705   47.1727 H   0  0  0  0  0  0  0  0  0  0  0  0
   48.3949   30.8458   49.1989 H   0  0  0  0  0  0  0  0  0  0  0  0
   44.1515   31.0345   49.6812 H   0  0  0  0  0  0  0  0  0  0  0  0
  1  6  2  0
  2  3  2  0
  2  1  1  0
  3  4  1  0
  4  5  2  0
  5  7  1  0
  6  5  1  0
  7  8  2  0
  7 12  1  0
  8  9  1  0
  9 10  2  0
 11 10  1  0
 12 11  2  0
 13 15  1  0
 13  2  1  0
 14 13  1  0
 16 13  1  0
  1 17  1  0
  3 18  1  0
  8 19  1  0
  9 20  1  0
 11 21  1  0
M  ISO  5  17  14  18  14  19  14  20  14  21  14
M  END
>  <minimizedAffinity>  (1) 
-5.16912651

>  <minimizedRMSD>  (1) 
0.474692225

$$$$
