
     RDKit          3D

 27 29  0  0  0  0  0  0  0  0999 V2000
   45.4210   33.5970   43.8070 C   0  0  0  0  0  0  0  0  0  0  0  0
   45.2450   34.9520   43.5390 C   0  0  0  0  0  0  0  0  0  0  0  0
   45.7080   35.4760   42.3380 C   0  0  0  0  0  0  0  0  0  0  0  0
   46.3190   34.6180   41.4810 N   0  0  0  0  0  0  0  0  0  0  0  0
   46.4840   33.3110   41.7530 C   0  0  0  0  0  0  0  0  0  0  0  0
   46.0350   32.7970   42.9170 N   0  0  0  0  0  0  0  0  0  0  0  0
   47.1520   32.6410   40.6890 N   0  0  0  0  0  0  0  0  0  0  0  0
   46.4780   32.1150   39.6260 C   0  0  0  0  0  0  0  0  0  0  0  0
   47.3530   31.5350   38.7600 N   0  0  0  0  0  0  0  0  0  0  0  0
   48.5780   31.6820   39.2570 C   0  0  0  0  0  0  0  0  0  0  0  0
   49.8460   31.3120   38.8420 C   0  0  0  0  0  0  0  0  0  0  0  0
   49.9410   30.6900   37.7530 O   0  0  0  0  0  0  0  0  0  0  0  0
   50.9030   31.6390   39.6240 N   0  0  0  0  0  0  0  0  0  0  0  0
   50.7370   32.3080   40.7820 C   0  0  0  0  0  0  0  0  0  0  0  0
   51.9710   32.5550   41.4570 N   0  0  0  0  0  0  0  0  0  0  0  0
   49.5130   32.6780   41.2050 N   0  0  0  0  0  0  0  0  0  0  0  0
   48.4340   32.3660   40.4460 C   0  0  0  0  0  0  0  0  0  0  0  0
   44.5530   35.7600   44.5850 C   0  0  0  0  0  0  0  0  0  0  0  0
   44.9980   37.0820   44.5280 F   0  0  0  0  0  0  0  0  0  0  0  0
   44.7750   35.3140   45.8670 F   0  0  0  0  0  0  0  0  0  0  0  0
   43.1920   35.8440   44.3720 F   0  0  0  0  0  0  0  0  0  0  0  0
   45.0545   33.1770   44.7553 H   0  0  0  0  0  0  0  0  0  0  0  0
   45.5847   36.5410   42.0920 H   0  0  0  0  0  0  0  0  0  0  0  0
   45.3873   32.1540   39.4889 H   0  0  0  0  0  0  0  0  0  0  0  0
   51.8523   31.3709   39.3275 H   0  0  0  0  0  0  0  0  0  0  0  0
   51.9748   33.0595   42.3550 H   0  0  0  0  0  0  0  0  0  0  0  0
   52.8572   32.2286   41.0459 H   0  0  0  0  0  0  0  0  0  0  0  0
  2  1  2  0
  2 18  1  0
  3  2  1  0
  4  5  1  0
  4  3  2  0
  5  6  2  0
  6  1  1  0
  7  5  1  0
  8  7  1  0
  9 10  1  0
  9  8  2  0
 10 17  2  0
 11 10  1  0
 11 13  1  0
 12 11  2  0
 13 14  1  0
 14 16  2  0
 14 15  1  0
 17  7  1  0
 17 16  1  0
 18 20  1  0
 19 18  1  0
 21 18  1  0
  1 22  1  0
  3 23  1  0
  8 24  1  0
 13 25  1  0
 15 26  1  0
 15 27  1  0
M  ISO  4  22  14  23  14  24  14  25   9
M  END
>  <minimizedAffinity>  (1) 
-5.10685492

>  <minimizedRMSD>  (1) 
7.47566938

$$$$
