
     RDKit          3D

 20 21  0  0  0  0  0  0  0  0999 V2000
   44.6630   35.2700   45.1600 C   0  0  0  0  0  0  0  0  0  0  0  0
   45.3790   35.0380   43.9750 C   0  0  0  0  0  0  0  0  0  0  0  0
   46.2790   33.9830   43.9240 C   0  0  0  0  0  0  0  0  0  0  0  0
   46.4280   33.2170   45.0320 N   0  0  0  0  0  0  0  0  0  0  0  0
   45.7380   33.4480   46.1620 C   0  0  0  0  0  0  0  0  0  0  0  0
   44.8600   34.4720   46.2190 N   0  0  0  0  0  0  0  0  0  0  0  0
   45.9370   32.5960   47.3180 C   0  0  0  0  0  0  0  0  0  0  0  0
   45.0220   32.1920   48.2490 C   0  0  0  0  0  0  0  0  0  0  0  0
   45.4400   31.3740   49.2710 C   0  0  0  0  0  0  0  0  0  0  0  0
   46.8000   31.0150   49.2730 C   0  0  0  0  0  0  0  0  0  0  0  0
   47.4800   31.8360   47.8290 S   0  0  0  0  0  0  0  0  0  0  0  0
   45.1060   35.9680   42.8390 C   0  0  0  0  0  0  0  0  0  0  0  0
   45.9500   35.6560   41.7710 F   0  0  0  0  0  0  0  0  0  0  0  0
   45.3130   37.2930   43.1570 F   0  0  0  0  0  0  0  0  0  0  0  0
   43.8330   35.8190   42.3460 F   0  0  0  0  0  0  0  0  0  0  0  0
   43.9450   36.1012   45.2192 H   0  0  0  0  0  0  0  0  0  0  0  0
   46.8550   33.7744   43.0104 H   0  0  0  0  0  0  0  0  0  0  0  0
   43.9726   32.5149   48.1818 H   0  0  0  0  0  0  0  0  0  0  0  0
   44.7468   31.0183   50.0475 H   0  0  0  0  0  0  0  0  0  0  0  0
   47.3276   30.3756   49.9961 H   0  0  0  0  0  0  0  0  0  0  0  0
  1  6  2  0
  2  1  1  0
  3  2  2  0
  3  4  1  0
  4  5  2  0
  5  6  1  0
  5  7  1  0
  7 11  1  0
  7  8  2  0
  8  9  1  0
  9 10  2  0
 11 10  1  0
 12 14  1  0
 12  2  1  0
 13 12  1  0
 15 12  1  0
  1 16  1  0
  3 17  1  0
  8 18  1  0
  9 19  1  0
 10 20  1  0
M  ISO  5  16  14  17  14  18  14  19  14  20  14
M  END
>  <minimizedAffinity>  (1) 
-5.07837677

>  <minimizedRMSD>  (1) 
0.761253476

$$$$
