
     RDKit          3D

 15 15  0  0  0  0  0  0  0  0999 V2000
   44.9640   34.9520   45.0970 C   0  0  0  0  0  0  0  0  0  0  0  0
   45.8370   34.6720   44.0430 C   0  0  0  0  0  0  0  0  0  0  0  0
   46.7390   33.6150   44.1790 C   0  0  0  0  0  0  0  0  0  0  0  0
   46.7120   32.9170   45.3340 N   0  0  0  0  0  0  0  0  0  0  0  0
   45.8730   33.1920   46.3390 C   0  0  0  0  0  0  0  0  0  0  0  0
   45.0060   34.2050   46.2140 N   0  0  0  0  0  0  0  0  0  0  0  0
   45.7320   35.5380   42.8440 C   0  0  0  0  0  0  0  0  0  0  0  0
   46.9880   35.6730   42.2520 F   0  0  0  0  0  0  0  0  0  0  0  0
   45.2530   36.8030   43.1150 F   0  0  0  0  0  0  0  0  0  0  0  0
   44.9460   34.9760   41.8640 F   0  0  0  0  0  0  0  0  0  0  0  0
   45.8950   32.3990   47.5610 C   0  0  0  0  0  0  0  0  0  0  0  0
   44.8400   32.0440   48.1350 O   0  0  0  0  0  0  0  0  0  0  0  0
   44.2451   35.7804   45.0134 H   0  0  0  0  0  0  0  0  0  0  0  0
   47.4452   33.3606   43.3750 H   0  0  0  0  0  0  0  0  0  0  0  0
   46.8637   32.1043   47.9908 H   0  0  0  0  0  0  0  0  0  0  0  0
  1  6  2  0
  2  3  2  0
  2  1  1  0
  3  4  1  0
  4  5  2  0
  5 11  1  0
  6  5  1  0
  7  9  1  0
  7  2  1  0
  8  7  1  0
 10  7  1  0
 11 12  2  0
  1 13  1  0
  3 14  1  0
 11 15  1  0
M  ISO  3  13  14  14  14  15   6
M  END
>  <minimizedAffinity>  (1) 
-3.99843359

>  <minimizedRMSD>  (1) 
0.0937984213

$$$$
