
     RDKit          3D

 15 15  0  0  0  0  0  0  0  0999 V2000
   44.6120   35.6190   45.0500 C   0  0  0  0  0  0  0  0  0  0  0  0
   45.4600   35.0390   44.1060 C   0  0  0  0  0  0  0  0  0  0  0  0
   46.1210   33.8440   44.4320 C   0  0  0  0  0  0  0  0  0  0  0  0
   45.8950   33.3150   45.6620 N   0  0  0  0  0  0  0  0  0  0  0  0
   45.0730   33.8970   46.5500 C   0  0  0  0  0  0  0  0  0  0  0  0
   44.4360   35.0380   46.2510 N   0  0  0  0  0  0  0  0  0  0  0  0
   44.9810   33.1730   47.7730 N   0  0  0  0  0  0  0  0  0  0  0  0
   45.6090   35.7350   42.7970 C   0  0  0  0  0  0  0  0  0  0  0  0
   46.9050   35.6220   42.3450 F   0  0  0  0  0  0  0  0  0  0  0  0
   45.2680   37.0530   42.8460 F   0  0  0  0  0  0  0  0  0  0  0  0
   44.8340   35.1250   41.8120 F   0  0  0  0  0  0  0  0  0  0  0  0
   44.0853   36.5548   44.8116 H   0  0  0  0  0  0  0  0  0  0  0  0
   46.7977   33.3538   43.7166 H   0  0  0  0  0  0  0  0  0  0  0  0
   44.3797   33.5209   48.5334 H   0  0  0  0  0  0  0  0  0  0  0  0
   45.5158   32.3015   47.8970 H   0  0  0  0  0  0  0  0  0  0  0  0
  1  6  2  0
  2  3  2  0
  2  1  1  0
  3  4  1  0
  4  5  2  0
  5  7  1  0
  6  5  1  0
  8 10  1  0
  8  2  1  0
  9  8  1  0
 11  8  1  0
  1 12  1  0
  3 13  1  0
  7 14  1  0
  7 15  1  0
M  ISO  2  12  14  13  14
M  END
>  <minimizedAffinity>  (1) 
-4.25683546

>  <minimizedRMSD>  (1) 
0.827972293

$$$$
