
     RDKit          3D

 50 54  0  0  1  0  0  0  0  0999 V2000
   47.3100   33.7890   43.7150 C   0  0  0  0  0  0  0  0  0  0  0  0
   47.7360   34.8380   41.4870 C   0  0  2  0  0  0  0  0  0  0  0  0
   48.8580   35.6450   41.8200 C   0  0  0  0  0  0  0  0  0  0  0  0
   49.9050   34.7180   42.4710 C   0  0  0  0  0  0  0  0  0  0  0  0
   49.3430   33.3110   42.4550 C   0  0  0  0  0  0  0  0  0  0  0  0
   47.8980   33.5530   42.3600 C   0  0  1  0  0  0  0  0  0  0  0  0
   47.5400   34.3190   40.1010 C   0  0  0  0  0  0  0  0  0  0  0  0
   48.4220   34.7330   39.1250 C   0  0  0  0  0  0  0  0  0  0  0  0
   48.2780   34.2760   37.8290 C   0  0  0  0  0  0  0  0  0  0  0  0
   47.2360   33.4180   37.6060 N   0  0  0  0  0  0  0  0  0  0  0  0
   46.3990   33.0350   38.5750 C   0  0  0  0  0  0  0  0  0  0  0  0
   46.5280   33.4730   39.8400 N   0  0  0  0  0  0  0  0  0  0  0  0
   47.0130   32.4970   44.4060 C   0  0  0  0  0  0  0  0  0  0  0  0
   46.2020   32.8560   45.6210 C   0  0  0  0  0  0  0  0  0  0  0  0
   45.4850   33.9910   45.8860 C   0  0  0  0  0  0  0  0  0  0  0  0
   44.9240   33.8450   47.1200 N   0  0  0  0  0  0  0  0  0  0  0  0
   45.2850   32.6590   47.5970 C   0  0  0  0  0  0  0  0  0  0  0  0
   46.0500   32.0490   46.7160 N   0  0  0  0  0  0  0  0  0  0  0  0
   46.6190   30.7540   46.8950 C   0  0  0  0  0  0  0  0  0  0  0  0
   46.2170   29.6090   46.2930 N   0  0  0  0  0  0  0  0  0  0  0  0
   46.8790   28.4550   46.5820 C   0  0  0  0  0  0  0  0  0  0  0  0
   47.9260   28.3850   47.4470 N   0  0  0  0  0  0  0  0  0  0  0  0
   48.3380   29.5090   48.0510 C   0  0  0  0  0  0  0  0  0  0  0  0
   49.4000   29.4080   48.9200 C   0  0  0  0  0  0  0  0  0  0  0  0
   49.8180   30.5770   49.5410 C   0  0  0  0  0  0  0  0  0  0  0  0
   49.2130   31.8010   49.3150 C   0  0  0  0  0  0  0  0  0  0  0  0
   48.1560   31.8080   48.4290 C   0  0  0  0  0  0  0  0  0  0  0  0
   47.6830   30.6900   47.7730 C   0  0  0  0  0  0  0  0  0  0  0  0
   46.3768   34.3612   43.6068 H   0  0  0  0  0  0  0  0  0  0  0  0
   48.0392   34.3485   44.3193 H   0  0  0  0  0  0  0  0  0  0  0  0
   46.8816   35.5140   41.6387 H   0  0  0  0  0  0  0  0  0  0  0  0
   49.2744   36.1058   40.9121 H   0  0  0  0  0  0  0  0  0  0  0  0
   48.5690   36.4535   42.5076 H   0  0  0  0  0  0  0  0  0  0  0  0
   50.8443   34.7534   41.8997 H   0  0  0  0  0  0  0  0  0  0  0  0
   50.1170   35.0380   43.5019 H   0  0  0  0  0  0  0  0  0  0  0  0
   49.7102   32.7451   41.5861 H   0  0  0  0  0  0  0  0  0  0  0  0
   49.6327   32.7107   43.3301 H   0  0  0  0  0  0  0  0  0  0  0  0
   47.3803   32.6865   41.9227 H   0  0  0  0  0  0  0  0  0  0  0  0
   49.2384   35.4256   39.3777 H   0  0  0  0  0  0  0  0  0  0  0  0
   48.9611   34.5840   37.0237 H   0  0  0  0  0  0  0  0  0  0  0  0
   45.5809   32.3414   38.3308 H   0  0  0  0  0  0  0  0  0  0  0  0
   46.4375   31.8328   43.7445 H   0  0  0  0  0  0  0  0  0  0  0  0
   47.9355   31.9639   44.6794 H   0  0  0  0  0  0  0  0  0  0  0  0
   45.3803   34.8629   45.2236 H   0  0  0  0  0  0  0  0  0  0  0  0
   44.9908   32.2504   48.5750 H   0  0  0  0  0  0  0  0  0  0  0  0
   46.5490   27.5287   46.0889 H   0  0  0  0  0  0  0  0  0  0  0  0
   49.8951   28.4450   49.1138 H   0  0  0  0  0  0  0  0  0  0  0  0
   50.6648   30.5285   50.2414 H   0  0  0  0  0  0  0  0  0  0  0  0
   49.5565   32.7186   49.8149 H   0  0  0  0  0  0  0  0  0  0  0  0
   47.6570   32.7684   48.2323 H   0  0  0  0  0  0  0  0  0  0  0  0
  1 13  1  0
  2  3  1  0
  2  6  1  0
  3  4  1  0
  5  4  1  0
  6  5  1  0
  6  1  1  0
  7  2  1  0
  8  7  2  0
  9  8  1  0
 10  9  2  0
 10 11  1  0
 11 12  2  0
 12  7  1  0
 13 14  1  0
 14 15  2  0
 14 18  1  0
 15 16  1  0
 16 17  2  0
 18 19  1  0
 18 17  1  0
 19 28  2  0
 20 21  2  0
 20 19  1  0
 21 22  1  0
 22 23  2  0
 23 24  1  0
 24 25  2  0
 26 25  1  0
 27 26  2  0
 28 23  1  0
 28 27  1  0
  1 29  1  0
  1 30  1  0
  2 31  1  1
  3 32  1  0
  3 33  1  0
  4 34  1  0
  4 35  1  0
  5 36  1  0
  5 37  1  0
  6 38  1  6
  8 39  1  0
  9 40  1  0
 11 41  1  0
 13 42  1  0
 13 43  1  0
 15 44  1  0
 17 45  1  0
 21 46  1  0
 24 47  1  0
 25 48  1  0
 26 49  1  0
 27 50  1  0
M  ISO  8  29   8  30   8  31  13  32  13  33  13  34  13  35  13  36  13
M  ISO  8  37  13  38  13  39  14  40  14  41  14  42   8  43   8  44  14
M  ISO  6  45  14  46  14  47  14  48  14  49  14  50  14
M  END
>  <minimizedAffinity>  (1) 
-6.9354434

>  <minimizedRMSD>  (1) 
2.38146114

$$$$
