
     RDKit          3D

 31 33  0  0  0  0  0  0  0  0999 V2000
   44.5180   35.6010   44.6690 C   0  0  0  0  0  0  0  0  0  0  0  0
   45.1440   34.7850   43.7100 C   0  0  0  0  0  0  0  0  0  0  0  0
   45.7570   33.5970   44.1060 C   0  0  0  0  0  0  0  0  0  0  0  0
   45.7170   33.2810   45.4300 N   0  0  0  0  0  0  0  0  0  0  0  0
   45.1140   34.0730   46.3340 C   0  0  0  0  0  0  0  0  0  0  0  0
   44.5250   35.2110   45.9650 N   0  0  0  0  0  0  0  0  0  0  0  0
   45.1580   33.5640   47.6490 N   0  0  0  0  0  0  0  0  0  0  0  0
   46.4520   32.7250   43.1730 C   0  0  0  0  0  0  0  0  0  0  0  0
   45.7100   31.6310   42.7500 C   0  0  0  0  0  0  0  0  0  0  0  0
   46.2680   30.6820   41.8910 C   0  0  0  0  0  0  0  0  0  0  0  0
   47.5680   30.8480   41.4680 C   0  0  0  0  0  0  0  0  0  0  0  0
   48.3290   31.9270   41.8730 C   0  0  0  0  0  0  0  0  0  0  0  0
   49.6290   32.1150   41.4610 C   0  0  0  0  0  0  0  0  0  0  0  0
   50.3250   33.2200   41.9080 C   0  0  0  0  0  0  0  0  0  0  0  0
   49.7450   34.1580   42.7710 C   0  0  0  0  0  0  0  0  0  0  0  0
   48.4400   33.9890   43.1970 C   0  0  0  0  0  0  0  0  0  0  0  0
   47.7510   32.8590   42.7290 C   0  0  0  0  0  0  0  0  0  0  0  0
   45.1310   35.2590   42.2890 C   0  0  0  0  0  0  0  0  0  0  0  0
   46.3930   35.6100   41.8800 F   0  0  0  0  0  0  0  0  0  0  0  0
   44.3040   36.3470   42.1020 F   0  0  0  0  0  0  0  0  0  0  0  0
   44.6990   34.2640   41.4430 F   0  0  0  0  0  0  0  0  0  0  0  0
   44.0306   36.5409   44.3707 H   0  0  0  0  0  0  0  0  0  0  0  0
   44.7254   34.0920   48.4204 H   0  0  0  0  0  0  0  0  0  0  0  0
   45.6227   32.6644   47.8377 H   0  0  0  0  0  0  0  0  0  0  0  0
   44.6724   31.5104   43.0947 H   0  0  0  0  0  0  0  0  0  0  0  0
   45.6784   29.8154   41.5574 H   0  0  0  0  0  0  0  0  0  0  0  0
   48.0112   30.1029   40.7909 H   0  0  0  0  0  0  0  0  0  0  0  0
   50.1077   31.3928   40.7833 H   0  0  0  0  0  0  0  0  0  0  0  0
   51.3636   33.3678   41.5773 H   0  0  0  0  0  0  0  0  0  0  0  0
   50.3265   35.0281   43.1097 H   0  0  0  0  0  0  0  0  0  0  0  0
   47.9614   34.7109   43.8751 H   0  0  0  0  0  0  0  0  0  0  0  0
  1  6  2  0
  2  3  2  0
  2  1  1  0
  3  4  1  0
  4  5  2  0
  5  7  1  0
  6  5  1  0
  8  3  1  0
  9  8  2  0
 10  9  1  0
 11 12  1  0
 11 10  2  0
 12 17  2  0
 13 12  1  0
 13 14  2  0
 14 15  1  0
 15 16  2  0
 17  8  1  0
 17 16  1  0
 18  2  1  0
 19 18  1  0
 20 18  1  0
 21 18  1  0
  1 22  1  0
  7 23  1  0
  7 24  1  0
  9 25  1  0
 10 26  1  0
 11 27  1  0
 13 28  1  0
 14 29  1  0
 15 30  1  0
 16 31  1  0
M  ISO  8  22  14  25  14  26  14  27  14  28  14  29  14  30  14  31  14
M  END
>  <minimizedAffinity>  (1) 
-5.7177639

>  <minimizedRMSD>  (1) 
1.03145516

$$$$
