
     RDKit          3D

 28 29  0  0  0  0  0  0  0  0999 V2000
   44.5590   35.6490   44.9950 C   0  0  0  0  0  0  0  0  0  0  0  0
   45.4280   35.0870   44.0730 C   0  0  0  0  0  0  0  0  0  0  0  0
   46.1200   33.9110   44.4290 C   0  0  0  0  0  0  0  0  0  0  0  0
   45.8910   33.3990   45.6620 N   0  0  0  0  0  0  0  0  0  0  0  0
   45.0440   33.9700   46.5290 C   0  0  0  0  0  0  0  0  0  0  0  0
   44.3840   35.0870   46.1940 N   0  0  0  0  0  0  0  0  0  0  0  0
   44.9660   33.2600   47.7620 N   0  0  0  0  0  0  0  0  0  0  0  0
   47.0080   33.3350   43.4840 N   0  0  0  0  0  0  0  0  0  0  0  0
   48.3100   33.6010   43.2710 C   0  0  0  0  0  0  0  0  0  0  0  0
   48.9870   32.9100   42.2870 C   0  0  0  0  0  0  0  0  0  0  0  0
   50.4130   33.2370   42.0890 C   0  0  0  0  0  0  0  0  0  0  0  0
   48.3620   31.9620   41.5270 C   0  0  0  0  0  0  0  0  0  0  0  0
   48.9850   31.3260   40.6190 O   0  0  0  0  0  0  0  0  0  0  0  0
   47.0580   31.7170   41.7630 N   0  0  0  0  0  0  0  0  0  0  0  0
   46.3790   32.3900   42.7310 C   0  0  0  0  0  0  0  0  0  0  0  0
   45.1750   32.0390   42.8190 O   0  0  0  0  0  0  0  0  0  0  0  0
   45.5900   35.7480   42.7550 C   0  0  0  0  0  0  0  0  0  0  0  0
   46.9310   35.8750   42.4360 F   0  0  0  0  0  0  0  0  0  0  0  0
   45.0270   37.0010   42.7240 F   0  0  0  0  0  0  0  0  0  0  0  0
   45.0310   35.0000   41.7350 F   0  0  0  0  0  0  0  0  0  0  0  0
   44.0087   36.5658   44.7371 H   0  0  0  0  0  0  0  0  0  0  0  0
   44.3478   33.5986   48.5130 H   0  0  0  0  0  0  0  0  0  0  0  0
   45.5278   32.4082   47.9022 H   0  0  0  0  0  0  0  0  0  0  0  0
   48.8286   34.3606   43.8744 H   0  0  0  0  0  0  0  0  0  0  0  0
   50.9027   33.3493   43.0675 H   0  0  0  0  0  0  0  0  0  0  0  0
   50.9001   32.4272   41.5260 H   0  0  0  0  0  0  0  0  0  0  0  0
   50.4986   34.1781   41.5260 H   0  0  0  0  0  0  0  0  0  0  0  0
   46.5667   31.0077   41.2006 H   0  0  0  0  0  0  0  0  0  0  0  0
  1  6  2  0
  2  3  2  0
  2  1  1  0
  3  4  1  0
  4  5  2  0
  5  7  1  0
  6  5  1  0
  8  3  1  0
  9  8  1  0
 10  9  2  0
 11 10  1  0
 12 14  1  0
 12 10  1  0
 13 12  2  0
 14 15  1  0
 15 16  2  0
 15  8  1  0
 17  2  1  0
 18 17  1  0
 19 17  1  0
 20 17  1  0
  1 21  1  0
  7 22  1  0
  7 23  1  0
  9 24  1  0
 11 25  1  0
 11 26  1  0
 11 27  1  0
 14 28  1  0
M  ISO  6  21  14  24  14  25   8  26   8  27   8  28   9
M  END
>  <minimizedAffinity>  (1) 
-5.64916182

>  <minimizedRMSD>  (1) 
0.196354553

$$$$
