
     RDKit          3D

 26 27  0  0  0  0  0  0  0  0999 V2000
   44.5910   35.6520   44.9170 C   0  0  0  0  0  0  0  0  0  0  0  0
   45.4350   35.0110   44.0110 C   0  0  0  0  0  0  0  0  0  0  0  0
   46.0840   33.8290   44.3910 C   0  0  0  0  0  0  0  0  0  0  0  0
   45.8490   33.3710   45.6420 N   0  0  0  0  0  0  0  0  0  0  0  0
   45.0420   33.9890   46.5040 C   0  0  0  0  0  0  0  0  0  0  0  0
   44.4150   35.1200   46.1530 N   0  0  0  0  0  0  0  0  0  0  0  0
   44.9540   33.3210   47.7520 N   0  0  0  0  0  0  0  0  0  0  0  0
   46.9410   33.1900   43.4490 N   0  0  0  0  0  0  0  0  0  0  0  0
   48.2550   33.5040   43.2260 C   0  0  0  0  0  0  0  0  0  0  0  0
   48.9690   32.7990   42.2780 C   0  0  0  0  0  0  0  0  0  0  0  0
   48.3760   31.7860   41.5560 C   0  0  0  0  0  0  0  0  0  0  0  0
   49.1840   31.1090   40.5980 N   0  0  0  0  0  0  0  0  0  0  0  0
   47.0860   31.4940   41.7910 N   0  0  0  0  0  0  0  0  0  0  0  0
   46.3810   32.1830   42.7180 C   0  0  0  0  0  0  0  0  0  0  0  0
   45.1910   31.8450   42.8690 O   0  0  0  0  0  0  0  0  0  0  0  0
   45.5970   35.6320   42.6690 C   0  0  0  0  0  0  0  0  0  0  0  0
   46.9240   35.9040   42.4140 F   0  0  0  0  0  0  0  0  0  0  0  0
   44.8870   36.7970   42.5300 F   0  0  0  0  0  0  0  0  0  0  0  0
   45.1870   34.7760   41.6610 F   0  0  0  0  0  0  0  0  0  0  0  0
   44.0729   36.5798   44.6327 H   0  0  0  0  0  0  0  0  0  0  0  0
   44.3593   33.7043   48.5005 H   0  0  0  0  0  0  0  0  0  0  0  0
   45.4848   32.4526   47.9099 H   0  0  0  0  0  0  0  0  0  0  0  0
   48.7373   34.3109   43.7972 H   0  0  0  0  0  0  0  0  0  0  0  0
   50.0247   33.0490   42.0966 H   0  0  0  0  0  0  0  0  0  0  0  0
   50.1681   31.3839   40.4680 H   0  0  0  0  0  0  0  0  0  0  0  0
   48.7842   30.3445   40.0353 H   0  0  0  0  0  0  0  0  0  0  0  0
  1  6  2  0
  2  3  2  0
  2  1  1  0
  3  4  1  0
  4  5  2  0
  5  7  1  0
  6  5  1  0
  8  3  1  0
  9  8  1  0
 10  9  2  0
 11 13  2  0
 11 10  1  0
 12 11  1  0
 13 14  1  0
 14 15  2  0
 14  8  1  0
 16  2  1  0
 17 16  1  0
 18 16  1  0
 19 16  1  0
  1 20  1  0
  7 21  1  0
  7 22  1  0
  9 23  1  0
 10 24  1  0
 12 25  1  0
 12 26  1  0
M  ISO  3  20  14  23  14  24  14
M  END
>  <minimizedAffinity>  (1) 
-5.22274303

>  <minimizedRMSD>  (1) 
0.775083482

$$$$
