
     RDKit          3D

 25 26  0  0  0  0  0  0  0  0999 V2000
   44.5830   35.6300   44.9190 C   0  0  0  0  0  0  0  0  0  0  0  0
   45.4470   35.0030   44.0050 C   0  0  0  0  0  0  0  0  0  0  0  0
   46.1150   33.8390   44.3840 C   0  0  0  0  0  0  0  0  0  0  0  0
   45.8810   33.3700   45.6420 N   0  0  0  0  0  0  0  0  0  0  0  0
   45.0560   33.9760   46.5050 C   0  0  0  0  0  0  0  0  0  0  0  0
   44.4240   35.0860   46.1360 N   0  0  0  0  0  0  0  0  0  0  0  0
   44.9660   33.3320   47.7590 N   0  0  0  0  0  0  0  0  0  0  0  0
   47.0490   33.1260   43.5530 C   0  0  0  0  0  0  0  0  0  0  0  0
   46.4270   32.0170   42.9560 C   0  0  0  0  0  0  0  0  0  0  0  0
   47.0830   31.1530   42.0910 C   0  0  0  0  0  0  0  0  0  0  0  0
   48.4090   31.3500   41.7700 C   0  0  0  0  0  0  0  0  0  0  0  0
   49.0260   32.4340   42.3480 C   0  0  0  0  0  0  0  0  0  0  0  0
   48.3620   33.2760   43.2010 C   0  0  0  0  0  0  0  0  0  0  0  0
   45.6240   35.6270   42.6660 C   0  0  0  0  0  0  0  0  0  0  0  0
   46.9330   35.9340   42.4360 F   0  0  0  0  0  0  0  0  0  0  0  0
   44.8930   36.7910   42.5270 F   0  0  0  0  0  0  0  0  0  0  0  0
   45.2190   34.7840   41.6510 F   0  0  0  0  0  0  0  0  0  0  0  0
   44.0468   36.5497   44.6423 H   0  0  0  0  0  0  0  0  0  0  0  0
   44.3572   33.7190   48.4942 H   0  0  0  0  0  0  0  0  0  0  0  0
   45.5092   32.4754   47.9382 H   0  0  0  0  0  0  0  0  0  0  0  0
   45.3686   31.8242   43.1854 H   0  0  0  0  0  0  0  0  0  0  0  0
   46.5389   30.3014   41.6566 H   0  0  0  0  0  0  0  0  0  0  0  0
   48.9455   30.6750   41.0869 H   0  0  0  0  0  0  0  0  0  0  0  0
   50.0837   32.6312   42.1190 H   0  0  0  0  0  0  0  0  0  0  0  0
   48.9183   34.1233   43.6282 H   0  0  0  0  0  0  0  0  0  0  0  0
  1  6  2  0
  2  3  2  0
  2  1  1  0
  3  4  1  0
  4  5  2  0
  5  7  1  0
  6  5  1  0
  8  3  1  0
  9  8  2  0
 10  9  1  0
 11 10  2  0
 11 12  1  0
 12 13  2  0
 13  8  1  0
 14  2  1  0
 15 14  1  0
 16 14  1  0
 17 14  1  0
  1 18  1  0
  7 19  1  0
  7 20  1  0
  9 21  1  0
 10 22  1  0
 11 23  1  0
 12 24  1  0
 13 25  1  0
M  ISO  6  18  14  21  14  22  14  23  14  24  14  25  14
M  END
>  <minimizedAffinity>  (1) 
-5.05069637

>  <minimizedRMSD>  (1) 
0.243797079

$$$$
