
     RDKit          3D

 30 31  0  0  0  0  0  0  0  0999 V2000
   44.6370   35.7560   44.9710 C   0  0  0  0  0  0  0  0  0  0  0  0
   45.3390   35.1110   43.9670 C   0  0  0  0  0  0  0  0  0  0  0  0
   45.8890   33.8560   44.2220 C   0  0  0  0  0  0  0  0  0  0  0  0
   45.7140   33.3070   45.4540 N   0  0  0  0  0  0  0  0  0  0  0  0
   45.0230   33.9620   46.4160 C   0  0  0  0  0  0  0  0  0  0  0  0
   44.4900   35.1790   46.1720 N   0  0  0  0  0  0  0  0  0  0  0  0
   44.9340   33.2610   47.6450 N   0  0  0  0  0  0  0  0  0  0  0  0
   46.6550   33.1000   43.2820 N   0  0  0  0  0  0  0  0  0  0  0  0
   46.2990   32.2510   42.1450 C   0  0  0  0  0  0  0  0  0  0  0  0
   46.9810   32.8640   40.9150 C   0  0  0  0  0  0  0  0  0  0  0  0
   48.4590   32.7250   41.1130 C   0  0  0  0  0  0  0  0  0  0  0  0
   48.8860   33.5620   42.3110 C   0  0  0  0  0  0  0  0  0  0  0  0
   48.0940   33.2020   43.5430 C   0  0  0  0  0  0  0  0  0  0  0  0
   45.4660   35.7740   42.6510 C   0  0  0  0  0  0  0  0  0  0  0  0
   46.7570   35.8430   42.2380 F   0  0  0  0  0  0  0  0  0  0  0  0
   44.9370   37.0430   42.6410 F   0  0  0  0  0  0  0  0  0  0  0  0
   44.7960   35.0690   41.6390 F   0  0  0  0  0  0  0  0  0  0  0  0
   44.1978   36.7467   44.7823 H   0  0  0  0  0  0  0  0  0  0  0  0
   44.4277   33.6770   48.4397 H   0  0  0  0  0  0  0  0  0  0  0  0
   45.3756   32.3357   47.7432 H   0  0  0  0  0  0  0  0  0  0  0  0
   46.6607   31.2251   42.3085 H   0  0  0  0  0  0  0  0  0  0  0  0
   45.2083   32.2003   42.0118 H   0  0  0  0  0  0  0  0  0  0  0  0
   46.7111   33.9266   40.8248 H   0  0  0  0  0  0  0  0  0  0  0  0
   46.6604   32.3527   39.9953 H   0  0  0  0  0  0  0  0  0  0  0  0
   48.7079   31.6691   41.2948 H   0  0  0  0  0  0  0  0  0  0  0  0
   48.9862   33.0735   40.2127 H   0  0  0  0  0  0  0  0  0  0  0  0
   49.9539   33.3866   42.5079 H   0  0  0  0  0  0  0  0  0  0  0  0
   48.7014   34.6209   42.0774 H   0  0  0  0  0  0  0  0  0  0  0  0
   48.2590   33.9769   44.3061 H   0  0  0  0  0  0  0  0  0  0  0  0
   48.4402   32.2149   43.8833 H   0  0  0  0  0  0  0  0  0  0  0  0
  1  6  2  0
  2  3  2  0
  2  1  1  0
  3  4  1  0
  4  5  2  0
  5  7  1  0
  6  5  1  0
  8 13  1  0
  8  3  1  0
  9  8  1  0
 10 11  1  0
 10  9  1  0
 11 12  1  0
 12 13  1  0
 14  2  1  0
 15 14  1  0
 16 14  1  0
 17 14  1  0
  1 18  1  0
  7 19  1  0
  7 20  1  0
  9 21  1  0
  9 22  1  0
 10 23  1  0
 10 24  1  0
 11 25  1  0
 11 26  1  0
 12 27  1  0
 12 28  1  0
 13 29  1  0
 13 30  1  0
M  ISO  8  18  14  21  13  22  13  23  13  24  13  25  13  26  13  27  13
M  ISO  3  28  13  29  13  30  13
M  END
>  <minimizedAffinity>  (1) 
-4.95661926

>  <minimizedRMSD>  (1) 
1.01044679

$$$$
