
     RDKit          3D

 22 23  0  0  0  0  0  0  0  0999 V2000
   44.5930   35.7060   44.9820 C   0  0  0  0  0  0  0  0  0  0  0  0
   45.3720   35.0760   44.0220 C   0  0  0  0  0  0  0  0  0  0  0  0
   45.9810   33.8530   44.3520 C   0  0  0  0  0  0  0  0  0  0  0  0
   45.7800   33.3440   45.5930 N   0  0  0  0  0  0  0  0  0  0  0  0
   45.0150   33.9870   46.5010 C   0  0  0  0  0  0  0  0  0  0  0  0
   44.4300   35.1530   46.1960 N   0  0  0  0  0  0  0  0  0  0  0  0
   44.9320   33.2920   47.7310 N   0  0  0  0  0  0  0  0  0  0  0  0
   46.7800   33.2070   43.3650 N   0  0  0  0  0  0  0  0  0  0  0  0
   48.0850   33.4420   43.5340 N   0  0  0  0  0  0  0  0  0  0  0  0
   48.7850   32.8060   42.5740 C   0  0  0  0  0  0  0  0  0  0  0  0
   47.8680   32.1350   41.7580 C   0  0  0  0  0  0  0  0  0  0  0  0
   46.6170   32.4120   42.2880 C   0  0  0  0  0  0  0  0  0  0  0  0
   45.5270   35.7200   42.6910 C   0  0  0  0  0  0  0  0  0  0  0  0
   46.8410   35.7820   42.3190 F   0  0  0  0  0  0  0  0  0  0  0  0
   44.9800   36.9710   42.6460 F   0  0  0  0  0  0  0  0  0  0  0  0
   44.8930   34.9590   41.6980 F   0  0  0  0  0  0  0  0  0  0  0  0
   44.1058   36.6641   44.7479 H   0  0  0  0  0  0  0  0  0  0  0  0
   44.3762   33.6812   48.5060 H   0  0  0  0  0  0  0  0  0  0  0  0
   45.4274   32.3970   47.8512 H   0  0  0  0  0  0  0  0  0  0  0  0
   49.8784   32.8132   42.4539 H   0  0  0  0  0  0  0  0  0  0  0  0
   48.0930   31.5154   40.8774 H   0  0  0  0  0  0  0  0  0  0  0  0
   45.6562   32.0460   41.8969 H   0  0  0  0  0  0  0  0  0  0  0  0
  1  6  2  0
  2  3  2  0
  2  1  1  0
  3  4  1  0
  4  5  2  0
  5  7  1  0
  6  5  1  0
  8  9  1  0
  8  3  1  0
 10  9  2  0
 11 12  2  0
 11 10  1  0
 12  8  1  0
 13  2  1  0
 14 13  1  0
 15 13  1  0
 16 13  1  0
  1 17  1  0
  7 18  1  0
  7 19  1  0
 10 20  1  0
 11 21  1  0
 12 22  1  0
M  ISO  4  17  14  20  14  21  14  22  14
M  END
>  <minimizedAffinity>  (1) 
-4.89662123

>  <minimizedRMSD>  (1) 
0.490383714

$$$$
