
     RDKit          3D

 21 22  0  0  0  0  0  0  0  0999 V2000
   44.6050   35.6040   44.8920 C   0  0  0  0  0  0  0  0  0  0  0  0
   45.5070   34.9980   44.0270 C   0  0  0  0  0  0  0  0  0  0  0  0
   46.1900   33.8440   44.4610 C   0  0  0  0  0  0  0  0  0  0  0  0
   45.9320   33.3830   45.7050 N   0  0  0  0  0  0  0  0  0  0  0  0
   45.0490   33.9970   46.5180 C   0  0  0  0  0  0  0  0  0  0  0  0
   44.3990   35.0850   46.1210 N   0  0  0  0  0  0  0  0  0  0  0  0
   44.9150   33.3710   47.7840 N   0  0  0  0  0  0  0  0  0  0  0  0
   47.1380   33.2060   43.5520 C   0  0  0  0  0  0  0  0  0  0  0  0
   46.6100   32.0670   42.9120 C   0  0  0  0  0  0  0  0  0  0  0  0
   47.8790   31.4600   41.8830 S   0  0  0  0  0  0  0  0  0  0  0  0
   49.0500   32.8680   42.4420 C   0  0  0  0  0  0  0  0  0  0  0  0
   48.3650   33.4100   43.1630 N   0  0  0  0  0  0  0  0  0  0  0  0
   45.7040   35.5960   42.6870 C   0  0  0  0  0  0  0  0  0  0  0  0
   47.0180   35.8770   42.4580 F   0  0  0  0  0  0  0  0  0  0  0  0
   44.9580   36.7310   42.5000 F   0  0  0  0  0  0  0  0  0  0  0  0
   45.3460   34.6990   41.6760 F   0  0  0  0  0  0  0  0  0  0  0  0
   44.0594   36.5054   44.5761 H   0  0  0  0  0  0  0  0  0  0  0  0
   44.2659   33.7581   48.4838 H   0  0  0  0  0  0  0  0  0  0  0  0
   45.4668   32.5294   48.0034 H   0  0  0  0  0  0  0  0  0  0  0  0
   45.6013   31.6462   43.0366 H   0  0  0  0  0  0  0  0  0  0  0  0
   50.0872   33.0870   42.1481 H   0  0  0  0  0  0  0  0  0  0  0  0
  1  6  2  0
  2  3  2  0
  2  1  1  0
  3  4  1  0
  4  5  2  0
  5  7  1  0
  6  5  1  0
  8  3  1  0
  9  8  2  0
 10 11  1  0
 10  9  1  0
 11 12  2  0
 12  8  1  0
 13  2  1  0
 14 13  1  0
 15 13  1  0
 16 13  1  0
  1 17  1  0
  7 18  1  0
  7 19  1  0
  9 20  1  0
 11 21  1  0
M  ISO  3  17  14  20  14  21  14
M  END
>  <minimizedAffinity>  (1) 
-4.86993647

>  <minimizedRMSD>  (1) 
0.321860194

$$$$
