
     RDKit          3D

 22 23  0  0  0  0  0  0  0  0999 V2000
   44.6040   35.6200   44.9330 C   0  0  0  0  0  0  0  0  0  0  0  0
   45.4790   35.0000   44.0260 C   0  0  0  0  0  0  0  0  0  0  0  0
   46.1450   33.8400   44.4030 C   0  0  0  0  0  0  0  0  0  0  0  0
   45.9010   33.3680   45.6630 N   0  0  0  0  0  0  0  0  0  0  0  0
   45.0700   33.9660   46.5110 C   0  0  0  0  0  0  0  0  0  0  0  0
   44.4360   35.0700   46.1480 N   0  0  0  0  0  0  0  0  0  0  0  0
   44.9460   33.3160   47.7610 N   0  0  0  0  0  0  0  0  0  0  0  0
   46.9700   33.0620   43.5740 C   0  0  0  0  0  0  0  0  0  0  0  0
   48.3250   32.9600   43.1070 C   0  0  0  0  0  0  0  0  0  0  0  0
   48.6380   32.0070   42.2030 C   0  0  0  0  0  0  0  0  0  0  0  0
   47.7190   31.0830   41.6680 C   0  0  0  0  0  0  0  0  0  0  0  0
   46.1810   31.6630   42.5940 S   0  0  0  0  0  0  0  0  0  0  0  0
   45.6890   35.6340   42.7010 C   0  0  0  0  0  0  0  0  0  0  0  0
   47.0070   35.8670   42.4440 F   0  0  0  0  0  0  0  0  0  0  0  0
   45.0430   36.8610   42.5970 F   0  0  0  0  0  0  0  0  0  0  0  0
   45.1770   34.8510   41.6890 F   0  0  0  0  0  0  0  0  0  0  0  0
   44.0663   36.5383   44.6544 H   0  0  0  0  0  0  0  0  0  0  0  0
   44.3243   33.7049   48.4843 H   0  0  0  0  0  0  0  0  0  0  0  0
   45.4774   32.4537   47.9480 H   0  0  0  0  0  0  0  0  0  0  0  0
   49.0969   33.6489   43.4808 H   0  0  0  0  0  0  0  0  0  0  0  0
   49.6818   31.9481   41.8610 H   0  0  0  0  0  0  0  0  0  0  0  0
   47.8559   30.2732   40.9362 H   0  0  0  0  0  0  0  0  0  0  0  0
  1  6  2  0
  2  3  2  0
  2  1  1  0
  3  4  1  0
  4  5  2  0
  5  7  1  0
  6  5  1  0
  8  3  1  0
  9  8  2  0
 10  9  1  0
 11 10  2  0
 11 12  1  0
 12  8  1  0
 13  2  1  0
 14 13  1  0
 15 13  1  0
 16 13  1  0
  1 17  1  0
  7 18  1  0
  7 19  1  0
  9 20  1  0
 10 21  1  0
 11 22  1  0
M  ISO  4  17  14  20  14  21  14  22  14
M  END
>  <minimizedAffinity>  (1) 
-4.84991455

>  <minimizedRMSD>  (1) 
0.248085931

$$$$
