
     RDKit          3D

 21 21  0  0  0  0  0  0  0  0999 V2000
   44.6370   35.6160   44.8960 C   0  0  0  0  0  0  0  0  0  0  0  0
   45.5190   34.9770   44.0200 C   0  0  0  0  0  0  0  0  0  0  0  0
   46.1730   33.8150   44.4400 C   0  0  0  0  0  0  0  0  0  0  0  0
   45.9160   33.3540   45.6950 N   0  0  0  0  0  0  0  0  0  0  0  0
   45.0630   33.9840   46.5200 C   0  0  0  0  0  0  0  0  0  0  0  0
   44.4230   35.1060   46.1350 N   0  0  0  0  0  0  0  0  0  0  0  0
   44.9190   33.3370   47.7640 N   0  0  0  0  0  0  0  0  0  0  0  0
   45.6940   35.5780   42.6790 C   0  0  0  0  0  0  0  0  0  0  0  0
   47.0140   35.7300   42.3790 F   0  0  0  0  0  0  0  0  0  0  0  0
   45.0440   36.7640   42.5170 F   0  0  0  0  0  0  0  0  0  0  0  0
   45.2110   34.7110   41.6790 F   0  0  0  0  0  0  0  0  0  0  0  0
   47.1030   33.1720   43.4900 C   0  0  0  0  0  0  0  0  0  0  0  0
   47.4960   31.8310   44.0830 C   0  0  0  0  0  0  0  0  0  0  0  0
   44.1164   36.5323   44.5809 H   0  0  0  0  0  0  0  0  0  0  0  0
   44.2897   33.7294   48.4788 H   0  0  0  0  0  0  0  0  0  0  0  0
   45.4431   32.4718   47.9582 H   0  0  0  0  0  0  0  0  0  0  0  0
   47.9959   33.7998   43.3536 H   0  0  0  0  0  0  0  0  0  0  0  0
   46.6269   33.0394   42.5073 H   0  0  0  0  0  0  0  0  0  0  0  0
   47.4770   31.8959   45.1809 H   0  0  0  0  0  0  0  0  0  0  0  0
   46.7860   31.0601   43.7489 H   0  0  0  0  0  0  0  0  0  0  0  0
   48.5098   31.5653   43.7489 H   0  0  0  0  0  0  0  0  0  0  0  0
  1  6  2  0
  2  3  2  0
  2  1  1  0
  3  4  1  0
  4  5  2  0
  5  7  1  0
  6  5  1  0
  8  2  1  0
  9  8  1  0
 10  8  1  0
 11  8  1  0
 12 13  1  0
 12  3  1  0
  1 14  1  0
  7 15  1  0
  7 16  1  0
 12 17  1  0
 12 18  1  0
 13 19  1  0
 13 20  1  0
 13 21  1  0
M  ISO  6  14  14  17   8  18   8  19   8  20   8  21   8
M  END
>  <minimizedAffinity>  (1) 
-4.4734993

>  <minimizedRMSD>  (1) 
0.270484865

$$$$
