
     RDKit          3D

 17 17  0  0  0  0  0  0  0  0999 V2000
   44.6400   35.6360   44.9040 C   0  0  0  0  0  0  0  0  0  0  0  0
   45.4480   34.9470   44.0000 C   0  0  0  0  0  0  0  0  0  0  0  0
   46.0350   33.7510   44.4060 C   0  0  0  0  0  0  0  0  0  0  0  0
   45.7990   33.3030   45.6640 N   0  0  0  0  0  0  0  0  0  0  0  0
   45.0090   34.0000   46.5110 C   0  0  0  0  0  0  0  0  0  0  0  0
   44.4350   35.1530   46.1370 N   0  0  0  0  0  0  0  0  0  0  0  0
   44.8990   33.3540   47.7780 N   0  0  0  0  0  0  0  0  0  0  0  0
   45.6320   35.5410   42.6480 C   0  0  0  0  0  0  0  0  0  0  0  0
   46.9830   35.7020   42.3780 F   0  0  0  0  0  0  0  0  0  0  0  0
   45.0180   36.7590   42.5090 F   0  0  0  0  0  0  0  0  0  0  0  0
   45.1710   34.6950   41.6560 F   0  0  0  0  0  0  0  0  0  0  0  0
   46.8560   33.0640   43.4720 N   0  0  0  0  0  0  0  0  0  0  0  0
   44.1676   36.5826   44.6028 H   0  0  0  0  0  0  0  0  0  0  0  0
   44.3259   33.7754   48.5229 H   0  0  0  0  0  0  0  0  0  0  0  0
   45.3927   32.4662   47.9480 H   0  0  0  0  0  0  0  0  0  0  0  0
   47.3064   32.1765   43.7374 H   0  0  0  0  0  0  0  0  0  0  0  0
   47.0008   33.4534   42.5295 H   0  0  0  0  0  0  0  0  0  0  0  0
  1  6  2  0
  2  3  2  0
  2  1  1  0
  3  4  1  0
  4  5  2  0
  5  7  1  0
  6  5  1  0
  8  2  1  0
  9  8  1  0
 10  8  1  0
 11  8  1  0
 12  3  1  0
  1 13  1  0
  7 14  1  0
  7 15  1  0
 12 16  1  0
 12 17  1  0
M  ISO  1  13  14
M  END
>  <minimizedAffinity>  (1) 
-4.41948843

>  <minimizedRMSD>  (1) 
0.274634749

$$$$
