
     RDKit          3D

 50 54  0  0  1  0  0  0  0  0999 V2000
   48.0280   33.4420   43.2600 C   0  0  0  0  0  0  0  0  0  0  0  0
   48.1460   34.3900   40.9480 C   0  0  2  0  0  0  0  0  0  0  0  0
   48.5470   35.7120   41.2730 C   0  0  0  0  0  0  0  0  0  0  0  0
   49.7990   35.6120   42.1630 C   0  0  0  0  0  0  0  0  0  0  0  0
   50.1480   34.1420   42.2970 C   0  0  0  0  0  0  0  0  0  0  0  0
   48.8560   33.5000   42.0200 C   0  0  1  0  0  0  0  0  0  0  0  0
   48.5070   33.7640   39.6540 C   0  0  0  0  0  0  0  0  0  0  0  0
   48.3450   34.5040   38.5000 C   0  0  0  0  0  0  0  0  0  0  0  0
   48.6720   33.9740   37.2700 C   0  0  0  0  0  0  0  0  0  0  0  0
   49.1570   32.6880   37.2830 N   0  0  0  0  0  0  0  0  0  0  0  0
   49.3030   31.9930   38.4140 C   0  0  0  0  0  0  0  0  0  0  0  0
   48.9870   32.5090   39.6100 N   0  0  0  0  0  0  0  0  0  0  0  0
   46.5770   33.2530   42.9240 C   0  0  0  0  0  0  0  0  0  0  0  0
   45.8150   34.1430   43.8630 C   0  0  0  0  0  0  0  0  0  0  0  0
   45.4120   35.4420   43.6930 C   0  0  0  0  0  0  0  0  0  0  0  0
   44.7560   35.8190   44.8240 N   0  0  0  0  0  0  0  0  0  0  0  0
   44.7520   34.7900   45.6630 C   0  0  0  0  0  0  0  0  0  0  0  0
   45.3810   33.7750   45.1090 N   0  0  0  0  0  0  0  0  0  0  0  0
   45.5950   32.4830   45.6840 C   0  0  0  0  0  0  0  0  0  0  0  0
   45.7640   31.4070   44.8070 C   0  0  0  0  0  0  0  0  0  0  0  0
   45.9490   30.3000   45.5720 N   0  0  0  0  0  0  0  0  0  0  0  0
   45.9010   30.6550   46.8630 C   0  0  0  0  0  0  0  0  0  0  0  0
   46.0190   29.9780   48.0600 C   0  0  0  0  0  0  0  0  0  0  0  0
   45.9200   30.6340   49.2910 C   0  0  0  0  0  0  0  0  0  0  0  0
   45.6960   32.0130   49.3180 C   0  0  0  0  0  0  0  0  0  0  0  0
   45.5700   32.7410   48.1310 C   0  0  0  0  0  0  0  0  0  0  0  0
   45.6810   32.0120   46.9780 C   0  0  0  0  0  0  0  0  0  0  0  0
   48.3670   32.5997   43.8809 H   0  0  0  0  0  0  0  0  0  0  0  0
   48.1429   34.3904   43.8053 H   0  0  0  0  0  0  0  0  0  0  0  0
   47.0490   34.4571   40.9016 H   0  0  0  0  0  0  0  0  0  0  0  0
   48.7831   36.2691   40.3544 H   0  0  0  0  0  0  0  0  0  0  0  0
   47.7398   36.2426   41.7992 H   0  0  0  0  0  0  0  0  0  0  0  0
   50.6347   36.1553   41.6978 H   0  0  0  0  0  0  0  0  0  0  0  0
   49.6080   36.0561   43.1511 H   0  0  0  0  0  0  0  0  0  0  0  0
   50.9098   33.8426   41.5621 H   0  0  0  0  0  0  0  0  0  0  0  0
   50.5787   33.8735   43.2729 H   0  0  0  0  0  0  0  0  0  0  0  0
   48.9941   32.4685   41.6638 H   0  0  0  0  0  0  0  0  0  0  0  0
   47.9503   35.5288   38.5626 H   0  0  0  0  0  0  0  0  0  0  0  0
   48.5523   34.5443   36.3371 H   0  0  0  0  0  0  0  0  0  0  0  0
   49.6943   30.9663   38.3625 H   0  0  0  0  0  0  0  0  0  0  0  0
   46.3852   33.5446   41.8809 H   0  0  0  0  0  0  0  0  0  0  0  0
   46.2727   32.2012   43.0300 H   0  0  0  0  0  0  0  0  0  0  0  0
   45.5870   36.0660   42.8042 H   0  0  0  0  0  0  0  0  0  0  0  0
   44.2950   34.7862   46.6636 H   0  0  0  0  0  0  0  0  0  0  0  0
   45.7498   31.4491   43.7079 H   0  0  0  0  0  0  0  0  0  0  0  0
   46.1011   29.3448   45.2179 H   0  0  0  0  0  0  0  0  0  0  0  0
   46.1958   28.8924   48.0452 H   0  0  0  0  0  0  0  0  0  0  0  0
   46.0176   30.0693   50.2300 H   0  0  0  0  0  0  0  0  0  0  0  0
   45.6179   32.5320   50.2847 H   0  0  0  0  0  0  0  0  0  0  0  0
   45.3935   33.8267   48.1243 H   0  0  0  0  0  0  0  0  0  0  0  0
  2  3  1  0
  2  6  1  0
  3  4  1  0
  4  5  1  0
  6  5  1  0
  6  1  1  0
  7  2  1  0
  8  7  2  0
  9 10  2  0
  9  8  1  0
 10 11  1  0
 11 12  2  0
 12  7  1  0
 13  1  1  0
 13 14  1  0
 14 18  1  0
 15 14  2  0
 15 16  1  0
 16 17  2  0
 18 17  1  0
 18 19  1  0
 19 27  1  0
 20 21  1  0
 20 19  2  0
 21 22  1  0
 22 27  2  0
 22 23  1  0
 23 24  2  0
 24 25  1  0
 26 25  2  0
 27 26  1  0
  1 28  1  0
  1 29  1  0
  2 30  1  1
  3 31  1  0
  3 32  1  0
  4 33  1  0
  4 34  1  0
  5 35  1  0
  5 36  1  0
  6 37  1  6
  8 38  1  0
  9 39  1  0
 11 40  1  0
 13 41  1  0
 13 42  1  0
 15 43  1  0
 17 44  1  0
 20 45  1  0
 21 46  1  0
 23 47  1  0
 24 48  1  0
 25 49  1  0
 26 50  1  0
M  ISO  8  28   8  29   8  30  13  31  13  32  13  33  13  34  13  35  13
M  ISO  8  36  13  37  13  38  14  39  14  40  14  41   8  42   8  43  14
M  ISO  7  44  14  45  14  46   9  47  14  48  14  49  14  50  14
M  END
>  <minimizedAffinity>  (1) 
-6.58250237

>  <minimizedRMSD>  (1) 
0.874493301

$$$$
