
     RDKit          3D

 42 45  0  0  1  0  0  0  0  0999 V2000
   47.4400   34.3880   42.2580 C   0  0  1  0  0  0  0  0  0  0  0  0
   48.5250   35.5030   42.3610 C   0  0  0  0  0  0  0  0  0  0  0  0
   49.8500   34.8110   42.3400 C   0  0  0  0  0  0  0  0  0  0  0  0
   49.6230   33.3540   42.1630 C   0  0  0  0  0  0  0  0  0  0  0  0
   48.1640   33.1300   41.9590 C   0  0  2  0  0  0  0  0  0  0  0  0
   44.8970   34.5920   45.0160 C   0  0  0  0  0  0  0  0  0  0  0  0
   45.5410   34.8450   43.8190 C   0  0  0  0  0  0  0  0  0  0  0  0
   46.7620   34.2600   43.5670 C   0  0  0  0  0  0  0  0  0  0  0  0
   47.2940   33.4440   44.5240 N   0  0  0  0  0  0  0  0  0  0  0  0
   46.6460   33.2080   45.6900 C   0  0  0  0  0  0  0  0  0  0  0  0
   45.4660   33.7760   45.9260 N   0  0  0  0  0  0  0  0  0  0  0  0
   47.3560   32.3040   46.5240 N   0  0  0  0  0  0  0  0  0  0  0  0
   44.9070   35.7940   42.8770 C   0  0  0  0  0  0  0  0  0  0  0  0
   45.4460   37.0590   42.9980 F   0  0  0  0  0  0  0  0  0  0  0  0
   43.5620   35.9060   43.0700 F   0  0  0  0  0  0  0  0  0  0  0  0
   45.1190   35.4980   41.5740 F   0  0  0  0  0  0  0  0  0  0  0  0
   47.7990   32.4550   40.6880 C   0  0  0  0  0  0  0  0  0  0  0  0
   47.3150   31.1510   40.4790 C   0  0  0  0  0  0  0  0  0  0  0  0
   47.1120   30.9000   39.1780 N   0  0  0  0  0  0  0  0  0  0  0  0
   47.4360   31.9810   38.4800 C   0  0  0  0  0  0  0  0  0  0  0  0
   47.4040   32.2330   37.1210 C   0  0  0  0  0  0  0  0  0  0  0  0
   47.7900   33.4470   36.6290 C   0  0  0  0  0  0  0  0  0  0  0  0
   48.2110   34.4140   37.5130 C   0  0  0  0  0  0  0  0  0  0  0  0
   48.2340   34.1380   38.8630 C   0  0  0  0  0  0  0  0  0  0  0  0
   47.8540   32.9300   39.3910 C   0  0  0  0  0  0  0  0  0  0  0  0
   46.6908   34.6153   41.4853 H   0  0  0  0  0  0  0  0  0  0  0  0
   48.4431   36.1926   41.5079 H   0  0  0  0  0  0  0  0  0  0  0  0
   48.4004   36.0948   43.2798 H   0  0  0  0  0  0  0  0  0  0  0  0
   50.4553   35.1954   41.5058 H   0  0  0  0  0  0  0  0  0  0  0  0
   50.3843   34.9953   43.2837 H   0  0  0  0  0  0  0  0  0  0  0  0
   50.1809   32.9943   41.2858 H   0  0  0  0  0  0  0  0  0  0  0  0
   49.9705   32.8053   43.0508 H   0  0  0  0  0  0  0  0  0  0  0  0
   47.8233   32.3718   42.6794 H   0  0  0  0  0  0  0  0  0  0  0  0
   43.9218   35.0558   45.2256 H   0  0  0  0  0  0  0  0  0  0  0  0
   46.9711   32.0397   47.4421 H   0  0  0  0  0  0  0  0  0  0  0  0
   48.2558   31.9127   46.2108 H   0  0  0  0  0  0  0  0  0  0  0  0
   47.1262   30.4260   41.2845 H   0  0  0  0  0  0  0  0  0  0  0  0
   46.7623   30.0144   38.7851 H   0  0  0  0  0  0  0  0  0  0  0  0
   47.0643   31.4480   36.4293 H   0  0  0  0  0  0  0  0  0  0  0  0
   47.7649   33.6479   35.5478 H   0  0  0  0  0  0  0  0  0  0  0  0
   48.5272   35.4010   37.1444 H   0  0  0  0  0  0  0  0  0  0  0  0
   48.5740   34.9255   39.5516 H   0  0  0  0  0  0  0  0  0  0  0  0
  1  2  1  0
  1  8  1  0
  3  2  1  0
  4  3  1  0
  5  4  1  0
  5  1  1  0
  6 11  2  0
  7  6  1  0
  8  7  2  0
  8  9  1  0
  9 10  2  0
 10 11  1  0
 10 12  1  0
 13 14  1  0
 13 15  1  0
 13  7  1  0
 16 13  1  0
 17  5  1  0
 18 17  2  0
 19 18  1  0
 20 19  1  0
 20 25  2  0
 21 20  1  0
 22 21  2  0
 22 23  1  0
 23 24  2  0
 24 25  1  0
 25 17  1  0
  1 26  1  6
  2 27  1  0
  2 28  1  0
  3 29  1  0
  3 30  1  0
  4 31  1  0
  4 32  1  0
  5 33  1  1
  6 34  1  0
 12 35  1  0
 12 36  1  0
 18 37  1  0
 19 38  1  0
 21 39  1  0
 22 40  1  0
 23 41  1  0
 24 42  1  0
M  ISO  8  26  13  27  13  28  13  29  13  30  13  31  13  32  13  33  13
M  ISO  7  34  14  37  14  38   9  39  14  40  14  41  14  42  14
M  END
>  <minimizedAffinity>  (1) 
-6.21633387

>  <minimizedRMSD>  (1) 
1.6077286

$$$$
