
     RDKit          3D

 36 38  0  0  1  0  0  0  0  0999 V2000
   47.5330   34.2060   42.3080 C   0  0  1  0  0  0  0  0  0  0  0  0
   48.4510   35.4640   42.2880 C   0  0  0  0  0  0  0  0  0  0  0  0
   49.8550   34.9770   42.4150 C   0  0  0  0  0  0  0  0  0  0  0  0
   49.8410   33.4830   42.4140 C   0  0  0  0  0  0  0  0  0  0  0  0
   48.4210   33.0260   42.2180 C   0  0  2  0  0  0  0  0  0  0  0  0
   44.9020   34.5920   44.9710 C   0  0  0  0  0  0  0  0  0  0  0  0
   45.5860   34.7690   43.7810 C   0  0  0  0  0  0  0  0  0  0  0  0
   46.8080   34.1590   43.5980 C   0  0  0  0  0  0  0  0  0  0  0  0
   47.3020   33.3940   44.6160 N   0  0  0  0  0  0  0  0  0  0  0  0
   46.6170   33.2320   45.7690 C   0  0  0  0  0  0  0  0  0  0  0  0
   45.4380   33.8230   45.9400 N   0  0  0  0  0  0  0  0  0  0  0  0
   47.2820   32.3680   46.6780 N   0  0  0  0  0  0  0  0  0  0  0  0
   44.9880   35.6620   42.7620 C   0  0  0  0  0  0  0  0  0  0  0  0
   45.5130   36.9380   42.8440 F   0  0  0  0  0  0  0  0  0  0  0  0
   43.6350   35.7730   42.8880 F   0  0  0  0  0  0  0  0  0  0  0  0
   45.2550   35.2930   41.4880 F   0  0  0  0  0  0  0  0  0  0  0  0
   48.2830   32.1890   41.0060 C   0  0  0  0  0  0  0  0  0  0  0  0
   47.2770   31.2250   40.8800 C   0  0  0  0  0  0  0  0  0  0  0  0
   47.1160   30.4270   39.7650 C   0  0  0  0  0  0  0  0  0  0  0  0
   47.9940   30.6060   38.7520 N   0  0  0  0  0  0  0  0  0  0  0  0
   48.9650   31.5280   38.8590 C   0  0  0  0  0  0  0  0  0  0  0  0
   49.1170   32.3030   39.9480 N   0  0  0  0  0  0  0  0  0  0  0  0
   46.8076   34.2283   41.4814 H   0  0  0  0  0  0  0  0  0  0  0  0
   48.3240   36.0101   41.3416 H   0  0  0  0  0  0  0  0  0  0  0  0
   48.1964   36.1507   43.1088 H   0  0  0  0  0  0  0  0  0  0  0  0
   50.4527   35.3429   41.5672 H   0  0  0  0  0  0  0  0  0  0  0  0
   50.2996   35.3489   43.3499 H   0  0  0  0  0  0  0  0  0  0  0  0
   50.4701   33.1053   41.5945 H   0  0  0  0  0  0  0  0  0  0  0  0
   50.2357   33.0988   43.3662 H   0  0  0  0  0  0  0  0  0  0  0  0
   48.1018   32.3431   43.0191 H   0  0  0  0  0  0  0  0  0  0  0  0
   43.9264   35.0761   45.1254 H   0  0  0  0  0  0  0  0  0  0  0  0
   46.8611   32.1632   47.5955 H   0  0  0  0  0  0  0  0  0  0  0  0
   48.1854   31.9459   46.4201 H   0  0  0  0  0  0  0  0  0  0  0  0
   46.5746   31.0955   41.7166 H   0  0  0  0  0  0  0  0  0  0  0  0
   46.3108   29.6801   39.7034 H   0  0  0  0  0  0  0  0  0  0  0  0
   49.6656   31.6547   38.0205 H   0  0  0  0  0  0  0  0  0  0  0  0
  1  8  1  0
  2  1  1  0
  2  3  1  0
  4  3  1  0
  5  1  1  0
  5  4  1  0
  6 11  2  0
  7  6  1  0
  8  7  2  0
  8  9  1  0
  9 10  2  0
 10 11  1  0
 10 12  1  0
 13 14  1  0
 13 15  1  0
 13  7  1  0
 16 13  1  0
 17  5  1  0
 18 17  2  0
 19 18  1  0
 20 21  1  0
 20 19  2  0
 21 22  2  0
 22 17  1  0
  1 23  1  6
  2 24  1  0
  2 25  1  0
  3 26  1  0
  3 27  1  0
  4 28  1  0
  4 29  1  0
  5 30  1  1
  6 31  1  0
 12 32  1  0
 12 33  1  0
 18 34  1  0
 19 35  1  0
 21 36  1  0
M  ISO  8  23  13  24  13  25  13  26  13  27  13  28  13  29  13  30  13
M  ISO  4  31  14  34  14  35  14  36  14
M  END
>  <minimizedAffinity>  (1) 
-5.41085243

>  <minimizedRMSD>  (1) 
0.519680858

$$$$
