
     RDKit          3D

 35 37  0  0  1  0  0  0  0  0999 V2000
   47.3020   34.2120   42.2780 C   0  0  1  0  0  0  0  0  0  0  0  0
   48.1380   35.5110   42.0850 C   0  0  0  0  0  0  0  0  0  0  0  0
   49.5690   35.1380   42.2450 C   0  0  0  0  0  0  0  0  0  0  0  0
   49.6560   33.6650   42.4830 C   0  0  0  0  0  0  0  0  0  0  0  0
   48.2700   33.0970   42.3150 C   0  0  2  0  0  0  0  0  0  0  0  0
   44.6730   34.8160   44.9030 C   0  0  0  0  0  0  0  0  0  0  0  0
   45.3470   34.8790   43.6990 C   0  0  0  0  0  0  0  0  0  0  0  0
   46.5850   34.2880   43.5750 C   0  0  0  0  0  0  0  0  0  0  0  0
   47.1050   33.6540   44.6660 N   0  0  0  0  0  0  0  0  0  0  0  0
   46.4300   33.6020   45.8330 C   0  0  0  0  0  0  0  0  0  0  0  0
   45.2330   34.1760   45.9490 N   0  0  0  0  0  0  0  0  0  0  0  0
   47.1190   32.8560   46.8220 N   0  0  0  0  0  0  0  0  0  0  0  0
   44.7140   35.6280   42.5900 C   0  0  0  0  0  0  0  0  0  0  0  0
   45.1300   36.9450   42.5790 F   0  0  0  0  0  0  0  0  0  0  0  0
   43.3510   35.6360   42.6620 F   0  0  0  0  0  0  0  0  0  0  0  0
   45.0620   35.1930   41.3570 F   0  0  0  0  0  0  0  0  0  0  0  0
   48.3130   32.2150   41.1330 C   0  0  0  0  0  0  0  0  0  0  0  0
   49.5040   31.7710   40.5710 C   0  0  0  0  0  0  0  0  0  0  0  0
   49.2020   30.9840   39.5060 N   0  0  0  0  0  0  0  0  0  0  0  0
   47.8530   30.9180   39.3800 C   0  0  0  0  0  0  0  0  0  0  0  0
   47.3580   31.6650   40.3700 N   0  0  0  0  0  0  0  0  0  0  0  0
   46.5651   34.0762   41.4727 H   0  0  0  0  0  0  0  0  0  0  0  0
   47.8557   36.2574   42.8421 H   0  0  0  0  0  0  0  0  0  0  0  0
   47.9563   35.9497   41.0928 H   0  0  0  0  0  0  0  0  0  0  0  0
   50.1240   35.3989   41.3318 H   0  0  0  0  0  0  0  0  0  0  0  0
   50.0054   35.6818   43.0958 H   0  0  0  0  0  0  0  0  0  0  0  0
   50.3408   33.2065   41.7544 H   0  0  0  0  0  0  0  0  0  0  0  0
   50.0403   33.4574   43.4925 H   0  0  0  0  0  0  0  0  0  0  0  0
   47.9264   32.4716   43.1521 H   0  0  0  0  0  0  0  0  0  0  0  0
   43.6839   35.2858   45.0078 H   0  0  0  0  0  0  0  0  0  0  0  0
   46.7083   32.7410   47.7595 H   0  0  0  0  0  0  0  0  0  0  0  0
   48.0304   32.4289   46.6031 H   0  0  0  0  0  0  0  0  0  0  0  0
   50.5159   32.0147   40.9270 H   0  0  0  0  0  0  0  0  0  0  0  0
   47.2841   30.3635   38.6192 H   0  0  0  0  0  0  0  0  0  0  0  0
   46.3500   31.8037   40.5302 H   0  0  0  0  0  0  0  0  0  0  0  0
  1  5  1  0
  1  8  1  0
  2  3  1  0
  2  1  1  0
  3  4  1  0
  5  4  1  0
  6 11  2  0
  7  6  1  0
  8  7  2  0
  8  9  1  0
  9 10  2  0
 10 11  1  0
 10 12  1  0
 13 15  1  0
 13  7  1  0
 14 13  1  0
 16 13  1  0
 17  5  1  0
 18 17  2  0
 19 18  1  0
 20 19  2  0
 20 21  1  0
 21 17  1  0
  1 22  1  6
  2 23  1  0
  2 24  1  0
  3 25  1  0
  3 26  1  0
  4 27  1  0
  4 28  1  0
  5 29  1  1
  6 30  1  0
 12 31  1  0
 12 32  1  0
 18 33  1  0
 20 34  1  0
 21 35  1  0
M  ISO  8  22  13  23  13  24  13  25  13  26  13  27  13  28  13  29  13
M  ISO  4  30  14  33  14  34  14  35   9
M  END
>  <minimizedAffinity>  (1) 
-5.37896013

>  <minimizedRMSD>  (1) 
0.316594511

$$$$
