
     RDKit          3D

 40 42  0  0  1  0  0  0  0  0999 V2000
   47.5350   34.2160   42.3290 C   0  0  1  0  0  0  0  0  0  0  0  0
   48.4850   35.4450   42.3280 C   0  0  0  0  0  0  0  0  0  0  0  0
   49.8710   34.9040   42.4010 C   0  0  0  0  0  0  0  0  0  0  0  0
   49.8080   33.4080   42.4070 C   0  0  0  0  0  0  0  0  0  0  0  0
   48.3850   33.0000   42.1670 C   0  0  2  0  0  0  0  0  0  0  0  0
   44.8980   34.5940   44.9760 C   0  0  0  0  0  0  0  0  0  0  0  0
   45.5880   34.7720   43.7890 C   0  0  0  0  0  0  0  0  0  0  0  0
   46.8080   34.1580   43.6090 C   0  0  0  0  0  0  0  0  0  0  0  0
   47.2950   33.3900   44.6250 N   0  0  0  0  0  0  0  0  0  0  0  0
   46.6060   33.2280   45.7790 C   0  0  0  0  0  0  0  0  0  0  0  0
   45.4330   33.8180   45.9500 N   0  0  0  0  0  0  0  0  0  0  0  0
   47.2920   32.3760   46.6950 N   0  0  0  0  0  0  0  0  0  0  0  0
   44.9940   35.6710   42.7760 C   0  0  0  0  0  0  0  0  0  0  0  0
   45.5290   36.9430   42.8600 F   0  0  0  0  0  0  0  0  0  0  0  0
   43.6420   35.7900   42.8980 F   0  0  0  0  0  0  0  0  0  0  0  0
   45.2590   35.3160   41.4980 F   0  0  0  0  0  0  0  0  0  0  0  0
   48.1490   32.2200   41.0190 N   0  0  0  0  0  0  0  0  0  0  0  0
   47.0210   32.1970   40.2780 C   0  0  0  0  0  0  0  0  0  0  0  0
   47.4590   32.6250   38.8870 C   0  0  0  0  0  0  0  0  0  0  0  0
   48.7930   31.8700   38.8130 C   0  0  0  0  0  0  0  0  0  0  0  0
   49.2690   31.8400   40.2570 C   0  0  0  0  0  0  0  0  0  0  0  0
   46.7982   34.2835   41.5150 H   0  0  0  0  0  0  0  0  0  0  0  0
   48.3521   36.0280   41.4047 H   0  0  0  0  0  0  0  0  0  0  0  0
   48.2726   36.1144   43.1747 H   0  0  0  0  0  0  0  0  0  0  0  0
   50.4472   35.2458   41.5286 H   0  0  0  0  0  0  0  0  0  0  0  0
   50.3622   35.2600   43.3186 H   0  0  0  0  0  0  0  0  0  0  0  0
   50.4508   33.0047   41.6106 H   0  0  0  0  0  0  0  0  0  0  0  0
   50.1588   33.0159   43.3730 H   0  0  0  0  0  0  0  0  0  0  0  0
   48.0911   32.2603   42.9262 H   0  0  0  0  0  0  0  0  0  0  0  0
   43.9224   35.0790   45.1276 H   0  0  0  0  0  0  0  0  0  0  0  0
   46.8771   32.1682   47.6146 H   0  0  0  0  0  0  0  0  0  0  0  0
   48.2021   31.9687   46.4367 H   0  0  0  0  0  0  0  0  0  0  0  0
   46.5937   31.1836   40.2547 H   0  0  0  0  0  0  0  0  0  0  0  0
   46.2421   32.8564   40.6884 H   0  0  0  0  0  0  0  0  0  0  0  0
   46.7532   32.2924   38.1117 H   0  0  0  0  0  0  0  0  0  0  0  0
   47.5202   33.7110   38.7233 H   0  0  0  0  0  0  0  0  0  0  0  0
   48.6461   30.8505   38.4269 H   0  0  0  0  0  0  0  0  0  0  0  0
   49.5162   32.3466   38.1349 H   0  0  0  0  0  0  0  0  0  0  0  0
   49.5994   30.8280   40.5340 H   0  0  0  0  0  0  0  0  0  0  0  0
   50.1268   32.5084   40.4226 H   0  0  0  0  0  0  0  0  0  0  0  0
  1  8  1  0
  2  1  1  0
  2  3  1  0
  3  4  1  0
  5  1  1  0
  5  4  1  0
  6 11  2  0
  7  6  1  0
  8  7  2  0
  8  9  1  0
  9 10  2  0
 10 11  1  0
 10 12  1  0
 13 14  1  0
 13 15  1  0
 13  7  1  0
 16 13  1  0
 17 18  1  0
 17  5  1  0
 19 18  1  0
 20 19  1  0
 20 21  1  0
 21 17  1  0
  1 22  1  6
  2 23  1  0
  2 24  1  0
  3 25  1  0
  3 26  1  0
  4 27  1  0
  4 28  1  0
  5 29  1  1
  6 30  1  0
 12 31  1  0
 12 32  1  0
 18 33  1  0
 18 34  1  0
 19 35  1  0
 19 36  1  0
 20 37  1  0
 20 38  1  0
 21 39  1  0
 21 40  1  0
M  ISO  8  22  13  23  13  24  13  25  13  26  13  27  13  28  13  29  13
M  ISO  8  30  14  33  13  34  13  35  13  36  13  37  13  38  13  39  13
M  ISO  1  40  13
M  END
>  <minimizedAffinity>  (1) 
-5.37601757

>  <minimizedRMSD>  (1) 
0.67149955

$$$$
