
     RDKit          3D

 43 46  0  0  1  0  0  0  0  0999 V2000
   47.9610   34.7190   41.4640 C   0  0  2  0  0  0  0  0  0  0  0  0
   49.0400   35.5860   41.7770 C   0  0  0  0  0  0  0  0  0  0  0  0
   50.2100   34.7130   42.2810 C   0  0  0  0  0  0  0  0  0  0  0  0
   49.7650   33.2640   42.1940 C   0  0  0  0  0  0  0  0  0  0  0  0
   48.3020   33.3940   42.2260 C   0  0  1  0  0  0  0  0  0  0  0  0
   47.6930   34.2830   40.0740 C   0  0  0  0  0  0  0  0  0  0  0  0
   48.4980   34.7760   39.0660 C   0  0  0  0  0  0  0  0  0  0  0  0
   48.2990   34.3960   37.7560 C   0  0  0  0  0  0  0  0  0  0  0  0
   47.2700   33.5170   37.5380 N   0  0  0  0  0  0  0  0  0  0  0  0
   46.5060   33.0530   38.5300 C   0  0  0  0  0  0  0  0  0  0  0  0
   46.6950   33.4210   39.8110 N   0  0  0  0  0  0  0  0  0  0  0  0
   47.8200   33.4940   43.6380 C   0  0  0  0  0  0  0  0  0  0  0  0
   46.4290   32.9520   43.7620 C   0  0  0  0  0  0  0  0  0  0  0  0
   45.6010   34.0660   44.3320 C   0  0  0  0  0  0  0  0  0  0  0  0
   45.0440   35.1440   43.6920 C   0  0  0  0  0  0  0  0  0  0  0  0
   44.3820   35.8840   44.6290 N   0  0  0  0  0  0  0  0  0  0  0  0
   44.5320   35.2700   45.8070 C   0  0  0  0  0  0  0  0  0  0  0  0
   45.2570   34.1820   45.6510 N   0  0  0  0  0  0  0  0  0  0  0  0
   45.6140   33.2850   46.6990 C   0  0  0  0  0  0  0  0  0  0  0  0
   46.8580   32.6730   46.6420 C   0  0  0  0  0  0  0  0  0  0  0  0
   46.9140   31.8690   47.7850 C   0  0  0  0  0  0  0  0  0  0  0  0
   45.7460   32.0120   48.4760 N   0  0  0  0  0  0  0  0  0  0  0  0
   44.9680   32.8620   47.8250 N   0  0  0  0  0  0  0  0  0  0  0  0
   47.0704   35.3106   41.7224 H   0  0  0  0  0  0  0  0  0  0  0  0
   49.3468   36.1422   40.8789 H   0  0  0  0  0  0  0  0  0  0  0  0
   48.7408   36.3125   42.5468 H   0  0  0  0  0  0  0  0  0  0  0  0
   51.0970   34.8725   41.6504 H   0  0  0  0  0  0  0  0  0  0  0  0
   50.4741   34.9769   43.3157 H   0  0  0  0  0  0  0  0  0  0  0  0
   50.1336   32.6801   43.0503 H   0  0  0  0  0  0  0  0  0  0  0  0
   50.1450   32.7347   41.3077 H   0  0  0  0  0  0  0  0  0  0  0  0
   47.8190   32.5203   41.7641 H   0  0  0  0  0  0  0  0  0  0  0  0
   49.3070   35.4798   39.3112 H   0  0  0  0  0  0  0  0  0  0  0  0
   48.9271   34.7747   36.9362 H   0  0  0  0  0  0  0  0  0  0  0  0
   45.6962   32.3474   38.2928 H   0  0  0  0  0  0  0  0  0  0  0  0
   48.4918   32.9172   44.2906 H   0  0  0  0  0  0  0  0  0  0  0  0
   47.8150   34.5529   43.9359 H   0  0  0  0  0  0  0  0  0  0  0  0
   46.0445   32.6564   42.7747 H   0  0  0  0  0  0  0  0  0  0  0  0
   46.4000   32.0591   44.4037 H   0  0  0  0  0  0  0  0  0  0  0  0
   45.1175   35.3711   42.6182 H   0  0  0  0  0  0  0  0  0  0  0  0
   44.1132   35.6206   46.7618 H   0  0  0  0  0  0  0  0  0  0  0  0
   47.6303   32.7937   45.8680 H   0  0  0  0  0  0  0  0  0  0  0  0
   47.7587   31.2282   48.0781 H   0  0  0  0  0  0  0  0  0  0  0  0
   45.5090   31.5368   49.3586 H   0  0  0  0  0  0  0  0  0  0  0  0
  1  2  1  0
  1  5  1  0
  2  3  1  0
  4  5  1  0
  4  3  1  0
  5 12  1  0
  6  1  1  0
  7  6  2  0
  8  7  1  0
  9  8  2  0
  9 10  1  0
 10 11  2  0
 11  6  1  0
 12 13  1  0
 13 14  1  0
 14 18  1  0
 15 14  2  0
 15 16  1  0
 16 17  2  0
 18 17  1  0
 18 19  1  0
 19 23  2  0
 20 19  1  0
 20 21  2  0
 21 22  1  0
 23 22  1  0
  1 24  1  1
  2 25  1  0
  2 26  1  0
  3 27  1  0
  3 28  1  0
  4 29  1  0
  4 30  1  0
  5 31  1  6
  7 32  1  0
  8 33  1  0
 10 34  1  0
 12 35  1  0
 12 36  1  0
 13 37  1  0
 13 38  1  0
 15 39  1  0
 17 40  1  0
 20 41  1  0
 21 42  1  0
 22 43  1  0
M  ISO  8  24  13  25  13  26  13  27  13  28  13  29  13  30  13  31  13
M  ISO  8  32  14  33  14  34  14  35   8  36   8  37   8  38   8  39  14
M  ISO  4  40  14  41  14  42  14  43   9
M  END
>  <minimizedAffinity>  (1) 
-6.50215006

>  <minimizedRMSD>  (1) 
0.834154844

$$$$
