
     RDKit          3D

 31 32  0  0  1  0  0  0  0  0999 V2000
   47.2220   34.1520   42.2520 C   0  0  1  0  0  0  0  0  0  0  0  0
   48.1350   35.3970   42.0560 C   0  0  0  0  0  0  0  0  0  0  0  0
   49.5430   34.9270   42.1780 C   0  0  0  0  0  0  0  0  0  0  0  0
   49.5350   33.4460   42.3990 C   0  0  0  0  0  0  0  0  0  0  0  0
   48.1150   32.9740   42.2600 C   0  0  2  0  0  0  0  0  0  0  0  0
   44.6600   34.8500   44.9130 C   0  0  0  0  0  0  0  0  0  0  0  0
   45.3140   34.8830   43.6900 C   0  0  0  0  0  0  0  0  0  0  0  0
   46.5360   34.2600   43.5580 C   0  0  0  0  0  0  0  0  0  0  0  0
   47.0620   33.6310   44.6490 N   0  0  0  0  0  0  0  0  0  0  0  0
   46.4040   33.6100   45.8360 C   0  0  0  0  0  0  0  0  0  0  0  0
   45.2250   34.2100   45.9610 N   0  0  0  0  0  0  0  0  0  0  0  0
   47.1090   32.8780   46.8270 N   0  0  0  0  0  0  0  0  0  0  0  0
   44.6810   35.6420   42.5950 C   0  0  0  0  0  0  0  0  0  0  0  0
   45.1050   36.9570   42.5840 F   0  0  0  0  0  0  0  0  0  0  0  0
   43.3210   35.6540   42.6710 F   0  0  0  0  0  0  0  0  0  0  0  0
   45.0230   35.2080   41.3590 F   0  0  0  0  0  0  0  0  0  0  0  0
   48.0510   32.0710   41.0590 C   0  0  0  0  0  0  0  0  0  0  0  0
   46.4649   34.0727   41.4580 H   0  0  0  0  0  0  0  0  0  0  0  0
   47.9194   36.1492   42.8291 H   0  0  0  0  0  0  0  0  0  0  0  0
   47.9597   35.8622   41.0747 H   0  0  0  0  0  0  0  0  0  0  0  0
   50.0931   35.1609   41.2546 H   0  0  0  0  0  0  0  0  0  0  0  0
   50.0352   35.4304   43.0232 H   0  0  0  0  0  0  0  0  0  0  0  0
   50.1699   32.9513   41.6492 H   0  0  0  0  0  0  0  0  0  0  0  0
   49.9274   33.2020   43.3972 H   0  0  0  0  0  0  0  0  0  0  0  0
   47.7604   32.3669   43.1060 H   0  0  0  0  0  0  0  0  0  0  0  0
   43.6839   35.3435   45.0296 H   0  0  0  0  0  0  0  0  0  0  0  0
   46.7170   32.7852   47.7750 H   0  0  0  0  0  0  0  0  0  0  0  0
   48.0125   32.4397   46.5981 H   0  0  0  0  0  0  0  0  0  0  0  0
   47.9768   31.0247   41.3904 H   0  0  0  0  0  0  0  0  0  0  0  0
   47.1688   32.3274   40.4541 H   0  0  0  0  0  0  0  0  0  0  0  0
   48.9606   32.2004   40.4541 H   0  0  0  0  0  0  0  0  0  0  0  0
  1  5  1  0
  1  8  1  0
  2  3  1  0
  2  1  1  0
  3  4  1  0
  5  4  1  0
  6 11  2  0
  7  6  1  0
  8  7  2  0
  8  9  1  0
  9 10  2  0
 10 11  1  0
 10 12  1  0
 13 15  1  0
 13  7  1  0
 14 13  1  0
 16 13  1  0
 17  5  1  0
  1 18  1  6
  2 19  1  0
  2 20  1  0
  3 21  1  0
  3 22  1  0
  4 23  1  0
  4 24  1  0
  5 25  1  1
  6 26  1  0
 12 27  1  0
 12 28  1  0
 17 29  1  0
 17 30  1  0
 17 31  1  0
M  ISO  8  18  13  19  13  20  13  21  13  22  13  23  13  24  13  25  13
M  ISO  4  26  14  29   8  30   8  31   8
M  END
>  <minimizedAffinity>  (1) 
-5.17851305

>  <minimizedRMSD>  (1) 
0.0181051958

$$$$
