
     RDKit          3D

 30 31  0  0  1  0  0  0  0  0999 V2000
   47.2190   34.1450   42.2540 C   0  0  1  0  0  0  0  0  0  0  0  0
   48.1330   35.3860   42.0540 C   0  0  0  0  0  0  0  0  0  0  0  0
   49.5390   34.9130   42.1610 C   0  0  0  0  0  0  0  0  0  0  0  0
   49.5330   33.4350   42.3930 C   0  0  0  0  0  0  0  0  0  0  0  0
   48.1070   32.9630   42.2540 C   0  0  2  0  0  0  0  0  0  0  0  0
   44.6580   34.8370   44.9150 C   0  0  0  0  0  0  0  0  0  0  0  0
   45.3130   34.8750   43.6900 C   0  0  0  0  0  0  0  0  0  0  0  0
   46.5370   34.2530   43.5640 C   0  0  0  0  0  0  0  0  0  0  0  0
   47.0650   33.6240   44.6530 N   0  0  0  0  0  0  0  0  0  0  0  0
   46.4060   33.6010   45.8370 C   0  0  0  0  0  0  0  0  0  0  0  0
   45.2250   34.1970   45.9670 N   0  0  0  0  0  0  0  0  0  0  0  0
   47.1280   32.8780   46.8320 N   0  0  0  0  0  0  0  0  0  0  0  0
   44.6870   35.6460   42.6010 C   0  0  0  0  0  0  0  0  0  0  0  0
   45.1240   36.9600   42.6020 F   0  0  0  0  0  0  0  0  0  0  0  0
   43.3270   35.6730   42.6860 F   0  0  0  0  0  0  0  0  0  0  0  0
   45.0230   35.2150   41.3650 F   0  0  0  0  0  0  0  0  0  0  0  0
   48.0510   32.1110   41.1000 N   0  0  0  0  0  0  0  0  0  0  0  0
   46.4576   34.0698   41.4636 H   0  0  0  0  0  0  0  0  0  0  0  0
   47.9267   36.1362   42.8316 H   0  0  0  0  0  0  0  0  0  0  0  0
   47.9500   35.8544   41.0757 H   0  0  0  0  0  0  0  0  0  0  0  0
   50.0772   35.1389   41.2286 H   0  0  0  0  0  0  0  0  0  0  0  0
   50.0421   35.4210   42.9970 H   0  0  0  0  0  0  0  0  0  0  0  0
   50.1691   32.9348   41.6479 H   0  0  0  0  0  0  0  0  0  0  0  0
   49.9255   33.1969   43.3926 H   0  0  0  0  0  0  0  0  0  0  0  0
   47.7464   32.3508   43.0937 H   0  0  0  0  0  0  0  0  0  0  0  0
   43.6796   35.3262   45.0310 H   0  0  0  0  0  0  0  0  0  0  0  0
   46.7405   32.7818   47.7815 H   0  0  0  0  0  0  0  0  0  0  0  0
   48.0369   32.4520   46.6011 H   0  0  0  0  0  0  0  0  0  0  0  0
   47.9864   31.1283   41.4016 H   0  0  0  0  0  0  0  0  0  0  0  0
   47.2240   32.3519   40.5352 H   0  0  0  0  0  0  0  0  0  0  0  0
  1  5  1  0
  1  8  1  0
  2  3  1  0
  2  1  1  0
  3  4  1  0
  5  4  1  0
  6 11  2  0
  7  6  1  0
  8  7  2  0
  8  9  1  0
  9 10  2  0
 10 11  1  0
 10 12  1  0
 13 14  1  0
 13 15  1  0
 13  7  1  0
 16 13  1  0
 17  5  1  0
  1 18  1  6
  2 19  1  0
  2 20  1  0
  3 21  1  0
  3 22  1  0
  4 23  1  0
  4 24  1  0
  5 25  1  1
  6 26  1  0
 12 27  1  0
 12 28  1  0
 17 29  1  0
 17 30  1  0
M  ISO  8  18  13  19  13  20  13  21  13  22  13  23  13  24  13  25  13
M  ISO  3  26  14  29   5  30   5
M  END
>  <minimizedAffinity>  (1) 
-5.14311504

>  <minimizedRMSD>  (1) 
0.0269734114

$$$$
