
     RDKit          3D

 43 46  0  0  1  0  0  0  0  0999 V2000
   47.9300   34.6970   41.4460 C   0  0  2  0  0  0  0  0  0  0  0  0
   48.9780   35.5860   41.7910 C   0  0  0  0  0  0  0  0  0  0  0  0
   50.1620   34.7280   42.2840 C   0  0  0  0  0  0  0  0  0  0  0  0
   49.7490   33.2710   42.1750 C   0  0  0  0  0  0  0  0  0  0  0  0
   48.2840   33.3630   42.1880 C   0  0  1  0  0  0  0  0  0  0  0  0
   47.6880   34.2730   40.0370 C   0  0  0  0  0  0  0  0  0  0  0  0
   48.5200   34.8030   39.0580 C   0  0  0  0  0  0  0  0  0  0  0  0
   48.3290   34.4330   37.7360 C   0  0  0  0  0  0  0  0  0  0  0  0
   47.3230   33.5610   37.4870 N   0  0  0  0  0  0  0  0  0  0  0  0
   46.5360   33.0650   38.4590 C   0  0  0  0  0  0  0  0  0  0  0  0
   46.6980   33.4080   39.7510 N   0  0  0  0  0  0  0  0  0  0  0  0
   47.7780   33.4320   43.5940 C   0  0  0  0  0  0  0  0  0  0  0  0
   46.3780   32.9130   43.6790 C   0  0  0  0  0  0  0  0  0  0  0  0
   45.5630   34.0320   44.2720 C   0  0  0  0  0  0  0  0  0  0  0  0
   44.9370   35.0710   43.6380 C   0  0  0  0  0  0  0  0  0  0  0  0
   44.3260   35.8310   44.5910 N   0  0  0  0  0  0  0  0  0  0  0  0
   44.5700   35.2730   45.7730 C   0  0  0  0  0  0  0  0  0  0  0  0
   45.3070   34.1970   45.6030 N   0  0  0  0  0  0  0  0  0  0  0  0
   45.7950   33.3030   46.6100 C   0  0  0  0  0  0  0  0  0  0  0  0
   46.9370   32.5940   46.9130 C   0  0  0  0  0  0  0  0  0  0  0  0
   46.7050   31.9030   48.0920 C   0  0  0  0  0  0  0  0  0  0  0  0
   45.4100   32.2390   48.4460 C   0  0  0  0  0  0  0  0  0  0  0  0
   44.8980   33.0600   47.5630 O   0  0  0  0  0  0  0  0  0  0  0  0
   47.0261   35.2689   41.7024 H   0  0  0  0  0  0  0  0  0  0  0  0
   49.2790   36.1731   40.9108 H   0  0  0  0  0  0  0  0  0  0  0  0
   48.6526   36.2877   42.5731 H   0  0  0  0  0  0  0  0  0  0  0  0
   51.0471   34.9149   41.6581 H   0  0  0  0  0  0  0  0  0  0  0  0
   50.4162   34.9810   43.3239 H   0  0  0  0  0  0  0  0  0  0  0  0
   50.1196   32.6862   43.0298 H   0  0  0  0  0  0  0  0  0  0  0  0
   50.1520   32.7628   41.2866 H   0  0  0  0  0  0  0  0  0  0  0  0
   47.8278   32.4852   41.7069 H   0  0  0  0  0  0  0  0  0  0  0  0
   49.3202   35.5074   39.3290 H   0  0  0  0  0  0  0  0  0  0  0  0
   48.9632   34.8281   36.9288 H   0  0  0  0  0  0  0  0  0  0  0  0
   45.7368   32.3586   38.1904 H   0  0  0  0  0  0  0  0  0  0  0  0
   48.4278   32.8251   44.2416 H   0  0  0  0  0  0  0  0  0  0  0  0
   47.7859   34.4822   43.9211 H   0  0  0  0  0  0  0  0  0  0  0  0
   46.0033   32.6549   42.6775 H   0  0  0  0  0  0  0  0  0  0  0  0
   46.3200   32.0006   44.2907 H   0  0  0  0  0  0  0  0  0  0  0  0
   44.9284   35.2591   42.5542 H   0  0  0  0  0  0  0  0  0  0  0  0
   44.2116   35.6520   46.7414 H   0  0  0  0  0  0  0  0  0  0  0  0
   47.8663   32.5790   46.3246 H   0  0  0  0  0  0  0  0  0  0  0  0
   47.3966   31.2358   48.6273 H   0  0  0  0  0  0  0  0  0  0  0  0
   44.8861   31.8698   49.3400 H   0  0  0  0  0  0  0  0  0  0  0  0
  1  2  1  0
  1  5  1  0
  2  3  1  0
  4  5  1  0
  4  3  1  0
  5 12  1  0
  6  1  1  0
  7  6  2  0
  8  7  1  0
  9  8  2  0
  9 10  1  0
 10 11  2  0
 11  6  1  0
 12 13  1  0
 13 14  1  0
 14 18  1  0
 15 14  2  0
 15 16  1  0
 16 17  2  0
 18 17  1  0
 18 19  1  0
 19 20  2  0
 19 23  1  0
 20 21  1  0
 21 22  2  0
 23 22  1  0
  1 24  1  1
  2 25  1  0
  2 26  1  0
  3 27  1  0
  3 28  1  0
  4 29  1  0
  4 30  1  0
  5 31  1  6
  7 32  1  0
  8 33  1  0
 10 34  1  0
 12 35  1  0
 12 36  1  0
 13 37  1  0
 13 38  1  0
 15 39  1  0
 17 40  1  0
 20 41  1  0
 21 42  1  0
 22 43  1  0
M  ISO  8  24  13  25  13  26  13  27  13  28  13  29  13  30  13  31  13
M  ISO  8  32  14  33  14  34  14  35   8  36   8  37   8  38   8  39  14
M  ISO  4  40  14  41  14  42  14  43  14
M  END
>  <minimizedAffinity>  (1) 
-6.350564

>  <minimizedRMSD>  (1) 
0.853152871

$$$$
