
     RDKit          3D

 41 43  0  0  1  0  0  0  0  0999 V2000
   47.5060   34.0840   42.3680 C   0  0  1  0  0  0  0  0  0  0  0  0
   48.1880   35.4770   42.1710 C   0  0  0  0  0  0  0  0  0  0  0  0
   49.6400   35.2520   42.3490 C   0  0  0  0  0  0  0  0  0  0  0  0
   49.8990   33.8070   42.5140 C   0  0  0  0  0  0  0  0  0  0  0  0
   48.5710   33.1290   42.3140 C   0  0  2  0  0  0  0  0  0  0  0  0
   44.8970   34.6270   45.0000 C   0  0  0  0  0  0  0  0  0  0  0  0
   45.5680   34.7310   43.7880 C   0  0  0  0  0  0  0  0  0  0  0  0
   46.7670   34.0760   43.6350 C   0  0  0  0  0  0  0  0  0  0  0  0
   47.2650   33.3510   44.6610 N   0  0  0  0  0  0  0  0  0  0  0  0
   46.6000   33.2590   45.8340 C   0  0  0  0  0  0  0  0  0  0  0  0
   45.4410   33.8860   45.9920 N   0  0  0  0  0  0  0  0  0  0  0  0
   47.2890   32.4450   46.7780 N   0  0  0  0  0  0  0  0  0  0  0  0
   44.9580   35.5770   42.7450 C   0  0  0  0  0  0  0  0  0  0  0  0
   45.4690   36.8630   42.8050 F   0  0  0  0  0  0  0  0  0  0  0  0
   43.6080   35.6850   42.8560 F   0  0  0  0  0  0  0  0  0  0  0  0
   45.1900   35.1550   41.5050 F   0  0  0  0  0  0  0  0  0  0  0  0
   48.5910   32.1360   41.2390 C   0  0  0  0  0  0  0  0  0  0  0  0
   48.8160   30.7590   41.4600 C   0  0  0  0  0  0  0  0  0  0  0  0
   48.6880   29.7980   40.4710 C   0  0  0  0  0  0  0  0  0  0  0  0
   48.3000   30.2910   39.2260 C   0  0  0  0  0  0  0  0  0  0  0  0
   48.0900   31.6460   39.0180 C   0  0  0  0  0  0  0  0  0  0  0  0
   48.2450   32.5620   40.0000 C   0  0  0  0  0  0  0  0  0  0  0  0
   48.1250   33.8580   39.2300 C   0  0  0  0  0  0  0  0  0  0  0  0
   47.7080   33.7570   37.9360 F   0  0  0  0  0  0  0  0  0  0  0  0
   48.4680   35.0080   39.7970 F   0  0  0  0  0  0  0  0  0  0  0  0
   46.6820   34.3250   39.4260 F   0  0  0  0  0  0  0  0  0  0  0  0
   46.7602   33.8432   41.5961 H   0  0  0  0  0  0  0  0  0  0  0  0
   47.8179   36.1926   42.9200 H   0  0  0  0  0  0  0  0  0  0  0  0
   47.9650   35.8969   41.1790 H   0  0  0  0  0  0  0  0  0  0  0  0
   50.1793   35.6223   41.4647 H   0  0  0  0  0  0  0  0  0  0  0  0
   49.9871   35.7906   43.2431 H   0  0  0  0  0  0  0  0  0  0  0  0
   50.6239   33.4593   41.7633 H   0  0  0  0  0  0  0  0  0  0  0  0
   50.3247   33.5815   43.5029 H   0  0  0  0  0  0  0  0  0  0  0  0
   48.3416   32.4678   43.1626 H   0  0  0  0  0  0  0  0  0  0  0  0
   43.9360   35.1405   45.1508 H   0  0  0  0  0  0  0  0  0  0  0  0
   46.8893   32.2921   47.7149 H   0  0  0  0  0  0  0  0  0  0  0  0
   48.1870   32.0092   46.5238 H   0  0  0  0  0  0  0  0  0  0  0  0
   49.1078   30.4334   42.4694 H   0  0  0  0  0  0  0  0  0  0  0  0
   48.8775   28.7299   40.6534 H   0  0  0  0  0  0  0  0  0  0  0  0
   48.1573   29.5900   38.3904 H   0  0  0  0  0  0  0  0  0  0  0  0
   47.7863   31.9878   38.0175 H   0  0  0  0  0  0  0  0  0  0  0  0
  1  8  1  0
  2  3  1  0
  2  1  1  0
  3  4  1  0
  5  1  1  0
  5  4  1  0
  6 11  2  0
  7  6  1  0
  8  7  2  0
  8  9  1  0
  9 10  2  0
 10 11  1  0
 10 12  1  0
 13 14  1  0
 13 15  1  0
 13  7  1  0
 16 13  1  0
 17 18  2  0
 17  5  1  0
 19 18  1  0
 20 19  2  0
 21 20  1  0
 21 22  2  0
 22 17  1  0
 23 26  1  0
 23 25  1  0
 23 22  1  0
 24 23  1  0
  1 27  1  6
  2 28  1  0
  2 29  1  0
  3 30  1  0
  3 31  1  0
  4 32  1  0
  4 33  1  0
  5 34  1  1
  6 35  1  0
 12 36  1  0
 12 37  1  0
 18 38  1  0
 19 39  1  0
 20 40  1  0
 21 41  1  0
M  ISO  8  27  13  28  13  29  13  30  13  31  13  32  13  33  13  34  13
M  ISO  5  35  14  38  14  39  14  40  14  41  14
M  END
>  <minimizedAffinity>  (1) 
-6.28853989

>  <minimizedRMSD>  (1) 
1.29951811

$$$$
