
     RDKit          3D

 45 47  0  0  1  0  0  0  0  0999 V2000
   46.7350   34.1140   41.9080 C   0  0  1  0  0  0  0  0  0  0  0  0
   47.9870   35.0380   41.7310 C   0  0  0  0  0  0  0  0  0  0  0  0
   49.1570   34.1470   41.6730 C   0  0  0  0  0  0  0  0  0  0  0  0
   48.6990   32.7400   41.8000 C   0  0  0  0  0  0  0  0  0  0  0  0
   47.1840   32.7500   41.7340 C   0  0  2  0  0  0  0  0  0  0  0  0
   44.4650   35.1660   44.6960 C   0  0  0  0  0  0  0  0  0  0  0  0
   44.9940   35.0590   43.4150 C   0  0  0  0  0  0  0  0  0  0  0  0
   46.1510   34.3420   43.2350 C   0  0  0  0  0  0  0  0  0  0  0  0
   46.7480   33.7620   44.2990 N   0  0  0  0  0  0  0  0  0  0  0  0
   46.2250   33.8730   45.5400 C   0  0  0  0  0  0  0  0  0  0  0  0
   45.1020   34.5660   45.7240 N   0  0  0  0  0  0  0  0  0  0  0  0
   46.9940   33.1730   46.5100 N   0  0  0  0  0  0  0  0  0  0  0  0
   44.2830   35.7580   42.3310 C   0  0  0  0  0  0  0  0  0  0  0  0
   44.6400   37.1000   42.3060 F   0  0  0  0  0  0  0  0  0  0  0  0
   42.9370   35.7180   42.4430 F   0  0  0  0  0  0  0  0  0  0  0  0
   44.5700   35.3060   41.1050 F   0  0  0  0  0  0  0  0  0  0  0  0
   46.6510   32.0050   40.5720 C   0  0  0  0  0  0  0  0  0  0  0  0
   46.1730   30.6900   40.6330 C   0  0  0  0  0  0  0  0  0  0  0  0
   45.6390   30.0520   39.5380 C   0  0  0  0  0  0  0  0  0  0  0  0
   45.5740   30.7600   38.3320 C   0  0  0  0  0  0  0  0  0  0  0  0
   46.0520   32.0640   38.2780 C   0  0  0  0  0  0  0  0  0  0  0  0
   46.5900   32.6630   39.3980 C   0  0  0  0  0  0  0  0  0  0  0  0
   47.1690   33.8300   38.8090 N   0  0  0  0  0  0  0  0  0  0  0  0
   48.4510   34.0770   38.2660 C   0  0  0  0  0  0  0  0  0  0  0  0
   49.1000   32.9780   37.9410 N   0  0  0  0  0  0  0  0  0  0  0  0
   49.0030   35.3660   38.0630 N   0  0  0  0  0  0  0  0  0  0  0  0
   50.0460   32.9850   37.5330 H   0  0  0  0  0  0  0  0  0  0  0  0
   45.9503   34.3318   41.1686 H   0  0  0  0  0  0  0  0  0  0  0  0
   47.9035   35.6173   40.7996 H   0  0  0  0  0  0  0  0  0  0  0  0
   48.0732   35.7555   42.5604 H   0  0  0  0  0  0  0  0  0  0  0  0
   49.6755   34.2809   40.7121 H   0  0  0  0  0  0  0  0  0  0  0  0
   49.8493   34.3883   42.4930 H   0  0  0  0  0  0  0  0  0  0  0  0
   49.1075   32.1356   40.9767 H   0  0  0  0  0  0  0  0  0  0  0  0
   49.0441   32.3027   42.7485 H   0  0  0  0  0  0  0  0  0  0  0  0
   46.7464   32.1732   42.5621 H   0  0  0  0  0  0  0  0  0  0  0  0
   43.5384   35.7328   44.8700 H   0  0  0  0  0  0  0  0  0  0  0  0
   46.7036   33.1772   47.4982 H   0  0  0  0  0  0  0  0  0  0  0  0
   47.8414   32.6618   46.2244 H   0  0  0  0  0  0  0  0  0  0  0  0
   46.2265   30.1491   41.5893 H   0  0  0  0  0  0  0  0  0  0  0  0
   45.2740   29.0167   39.6076 H   0  0  0  0  0  0  0  0  0  0  0  0
   45.1480   30.2881   37.4343 H   0  0  0  0  0  0  0  0  0  0  0  0
   46.0007   32.6240   37.3326 H   0  0  0  0  0  0  0  0  0  0  0  0
   46.5349   34.6409   38.7737 H   0  0  0  0  0  0  0  0  0  0  0  0
   49.9463   35.4649   37.6613 H   0  0  0  0  0  0  0  0  0  0  0  0
   48.4610   36.2042   38.3171 H   0  0  0  0  0  0  0  0  0  0  0  0
  1  8  1  0
  2  1  1  0
  3  2  1  0
  3  4  1  0
  5  4  1  0
  5  1  1  0
  6 11  2  0
  7  6  1  0
  8  7  2  0
  8  9  1  0
  9 10  2  0
 10 11  1  0
 10 12  1  0
 13 15  1  0
 13  7  1  0
 14 13  1  0
 16 13  1  0
 17 18  2  0
 17  5  1  0
 19 18  1  0
 20 19  2  0
 21 20  1  0
 21 22  2  0
 22 17  1  0
 23 22  1  0
 24 23  1  0
 25 24  2  0
 26 24  1  0
 27 25  1  0
  1 28  1  6
  2 29  1  0
  2 30  1  0
  3 31  1  0
  3 32  1  0
  4 33  1  0
  4 34  1  0
  5 35  1  1
  6 36  1  0
 12 37  1  0
 12 38  1  0
 18 39  1  0
 19 40  1  0
 20 41  1  0
 21 42  1  0
 23 43  1  0
 26 44  1  0
 26 45  1  0
M  ISO  8  28  13  29  13  30  13  31  13  32  13  33  13  34  13  35  13
M  ISO  5  36  14  39  14  40  14  41  14  42  14
M  END
>  <minimizedAffinity>  (1) 
-6.009758

>  <minimizedRMSD>  (1) 
1.28092325

$$$$
