
     RDKit          3D

 19 20  0  0  0  0  0  0  0  0999 V2000
   44.5380   36.0000   44.4520 C   0  0  0  0  0  0  0  0  0  0  0  0
   44.7210   35.8220   43.0820 C   0  0  0  0  0  0  0  0  0  0  0  0
   45.3590   34.6410   42.6930 C   0  0  0  0  0  0  0  0  0  0  0  0
   45.7690   33.7270   43.6130 N   0  0  0  0  0  0  0  0  0  0  0  0
   45.5610   33.9560   44.9420 C   0  0  0  0  0  0  0  0  0  0  0  0
   44.9570   35.0720   45.3380 N   0  0  0  0  0  0  0  0  0  0  0  0
   45.9740   33.0260   45.9380 N   0  0  0  0  0  0  0  0  0  0  0  0
   46.9620   32.1600   45.5970 C   0  0  0  0  0  0  0  0  0  0  0  0
   47.1850   31.3720   46.7110 C   0  0  0  0  0  0  0  0  0  0  0  0
   46.3480   31.7630   47.6920 N   0  0  0  0  0  0  0  0  0  0  0  0
   45.6150   32.7710   47.2130 C   0  0  0  0  0  0  0  0  0  0  0  0
   44.5820   33.5590   47.8050 N   0  0  0  0  0  0  0  0  0  0  0  0
   44.0437   36.9122   44.8175 H   0  0  0  0  0  0  0  0  0  0  0  0
   44.3825   36.5686   42.3485 H   0  0  0  0  0  0  0  0  0  0  0  0
   45.5326   34.4473   41.6242 H   0  0  0  0  0  0  0  0  0  0  0  0
   47.4809   32.0977   44.6291 H   0  0  0  0  0  0  0  0  0  0  0  0
   47.9236   30.5601   46.7844 H   0  0  0  0  0  0  0  0  0  0  0  0
   44.2920   33.3815   48.7773 H   0  0  0  0  0  0  0  0  0  0  0  0
   44.1268   34.3049   47.2598 H   0  0  0  0  0  0  0  0  0  0  0  0
  1  6  2  0
  2  1  1  0
  3  2  2  0
  3  4  1  0
  4  5  2  0
  5  6  1  0
  5  7  1  0
  7 11  1  0
  8  7  1  0
  8  9  2  0
  9 10  1  0
 11 10  2  0
 11 12  1  0
  1 13  1  0
  2 14  1  0
  3 15  1  0
  8 16  1  0
  9 17  1  0
 12 18  1  0
 12 19  1  0
M  ISO  5  13  14  14  14  15  14  16  14  17  14
M  END
>  <minimizedAffinity>  (1) 
-4.72167206

>  <minimizedRMSD>  (1) 
0.847581267

$$$$
