
     RDKit          3D

 19 19  0  0  0  0  0  0  0  0999 V2000
   44.9730   35.0480   44.0640 C   0  0  0  0  0  0  0  0  0  0  0  0
   45.8960   34.8190   43.0380 C   0  0  0  0  0  0  0  0  0  0  0  0
   46.9900   33.9690   43.3170 C   0  0  0  0  0  0  0  0  0  0  0  0
   47.0800   33.4260   44.5650 N   0  0  0  0  0  0  0  0  0  0  0  0
   46.1700   33.6750   45.5140 C   0  0  0  0  0  0  0  0  0  0  0  0
   45.1360   34.4760   45.2560 N   0  0  0  0  0  0  0  0  0  0  0  0
   43.8310   35.8760   43.9240 N   0  0  0  0  0  0  0  0  0  0  0  0
   46.3060   33.0830   46.8070 N   0  0  0  0  0  0  0  0  0  0  0  0
   45.2110   33.0700   47.7180 C   0  0  0  0  0  0  0  0  0  0  0  0
   44.3650   34.0650   47.6380 N   0  0  0  0  0  0  0  0  0  0  0  0
   45.0900   32.0050   48.6500 N   0  0  0  0  0  0  0  0  0  0  0  0
   43.5510   34.1030   48.2790 H   0  0  0  0  0  0  0  0  0  0  0  0
   45.7745   35.2843   42.0487 H   0  0  0  0  0  0  0  0  0  0  0  0
   47.7474   33.7515   42.5495 H   0  0  0  0  0  0  0  0  0  0  0  0
   43.6446   36.3491   43.0283 H   0  0  0  0  0  0  0  0  0  0  0  0
   43.1876   36.0045   44.7180 H   0  0  0  0  0  0  0  0  0  0  0  0
   47.2044   32.6616   47.0832 H   0  0  0  0  0  0  0  0  0  0  0  0
   44.3015   31.9874   49.3124 H   0  0  0  0  0  0  0  0  0  0  0  0
   45.7908   31.2503   48.6634 H   0  0  0  0  0  0  0  0  0  0  0  0
  1  6  2  0
  2  3  2  0
  2  1  1  0
  3  4  1  0
  4  5  2  0
  5  8  1  0
  6  5  1  0
  7  1  1  0
  8  9  1  0
  9 11  1  0
 10  9  2  0
 10 12  1  0
  2 13  1  0
  3 14  1  0
  7 15  1  0
  7 16  1  0
  8 17  1  0
 11 18  1  0
 11 19  1  0
M  ISO  2  13  14  14  14
M  END
>  <minimizedAffinity>  (1) 
-5.38502645

>  <minimizedRMSD>  (1) 
0.329213291

$$$$
