
     RDKit          3D

 45 48  0  0  1  0  0  0  0  0999 V2000
   47.9700   34.6120   41.6290 C   0  0  2  0  0  0  0  0  0  0  0  0
   49.1090   35.4190   41.8870 C   0  0  0  0  0  0  0  0  0  0  0  0
   50.2490   34.4840   42.3310 C   0  0  0  0  0  0  0  0  0  0  0  0
   49.7230   33.0600   42.2680 C   0  0  0  0  0  0  0  0  0  0  0  0
   48.2740   33.2710   42.3740 C   0  0  1  0  0  0  0  0  0  0  0  0
   47.6070   34.1910   40.2490 C   0  0  0  0  0  0  0  0  0  0  0  0
   48.3960   34.6400   39.2070 C   0  0  0  0  0  0  0  0  0  0  0  0
   48.1140   34.2760   37.9090 C   0  0  0  0  0  0  0  0  0  0  0  0
   47.0250   33.4600   37.7380 N   0  0  0  0  0  0  0  0  0  0  0  0
   46.2820   33.0430   38.7670 C   0  0  0  0  0  0  0  0  0  0  0  0
   46.5550   33.3970   40.0340 N   0  0  0  0  0  0  0  0  0  0  0  0
   47.8600   33.3810   43.8030 C   0  0  0  0  0  0  0  0  0  0  0  0
   46.5150   32.7580   44.0220 C   0  0  0  0  0  0  0  0  0  0  0  0
   45.6620   33.8350   44.6420 C   0  0  0  0  0  0  0  0  0  0  0  0
   45.0310   34.8990   44.0510 C   0  0  0  0  0  0  0  0  0  0  0  0
   44.3870   35.5920   45.0210 N   0  0  0  0  0  0  0  0  0  0  0  0
   44.6130   34.9730   46.1860 C   0  0  0  0  0  0  0  0  0  0  0  0
   45.3750   33.9180   45.9830 N   0  0  0  0  0  0  0  0  0  0  0  0
   45.8630   32.9650   46.9530 C   0  0  0  0  0  0  0  0  0  0  0  0
   47.1670   32.5900   47.2100 C   0  0  0  0  0  0  0  0  0  0  0  0
   47.3740   31.6510   48.1980 C   0  0  0  0  0  0  0  0  0  0  0  0
   46.3380   31.0950   48.9160 C   0  0  0  0  0  0  0  0  0  0  0  0
   45.0380   31.5060   48.6220 C   0  0  0  0  0  0  0  0  0  0  0  0
   44.8450   32.4190   47.6590 N   0  0  0  0  0  0  0  0  0  0  0  0
   47.1277   35.2520   41.9305 H   0  0  0  0  0  0  0  0  0  0  0  0
   49.4007   35.9594   40.9744 H   0  0  0  0  0  0  0  0  0  0  0  0
   48.8891   36.1599   42.6697 H   0  0  0  0  0  0  0  0  0  0  0  0
   51.1108   34.5961   41.6567 H   0  0  0  0  0  0  0  0  0  0  0  0
   50.5771   34.7309   43.3515 H   0  0  0  0  0  0  0  0  0  0  0  0
   49.9889   32.5764   41.3165 H   0  0  0  0  0  0  0  0  0  0  0  0
   50.1350   32.3979   43.0438 H   0  0  0  0  0  0  0  0  0  0  0  0
   47.7219   32.4268   41.9352 H   0  0  0  0  0  0  0  0  0  0  0  0
   49.2560   35.2932   39.4160 H   0  0  0  0  0  0  0  0  0  0  0  0
   48.7250   34.6189   37.0610 H   0  0  0  0  0  0  0  0  0  0  0  0
   45.4195   32.3892   38.5707 H   0  0  0  0  0  0  0  0  0  0  0  0
   48.6012   32.8672   44.4328 H   0  0  0  0  0  0  0  0  0  0  0  0
   47.8002   34.4466   44.0694 H   0  0  0  0  0  0  0  0  0  0  0  0
   46.0835   32.4308   43.0645 H   0  0  0  0  0  0  0  0  0  0  0  0
   46.5796   31.8697   44.6675 H   0  0  0  0  0  0  0  0  0  0  0  0
   45.0450   35.1463   42.9792 H   0  0  0  0  0  0  0  0  0  0  0  0
   44.2226   35.2956   47.1625 H   0  0  0  0  0  0  0  0  0  0  0  0
   48.0076   33.0235   46.6484 H   0  0  0  0  0  0  0  0  0  0  0  0
   48.4035   31.3343   48.4211 H   0  0  0  0  0  0  0  0  0  0  0  0
   46.5308   30.3475   49.6996 H   0  0  0  0  0  0  0  0  0  0  0  0
   44.1828   31.0870   49.1725 H   0  0  0  0  0  0  0  0  0  0  0  0
  1  2  1  0
  1  5  1  0
  2  3  1  0
  4  3  1  0
  4  5  1  0
  5 12  1  0
  6  1  1  0
  7  6  2  0
  8  7  1  0
  9  8  2  0
  9 10  1  0
 10 11  2  0
 11  6  1  0
 12 13  1  0
 13 14  1  0
 14 18  1  0
 15 14  2  0
 15 16  1  0
 16 17  2  0
 18 17  1  0
 18 19  1  0
 19 20  2  0
 19 24  1  0
 20 21  1  0
 21 22  2  0
 23 22  1  0
 24 23  2  0
  1 25  1  1
  2 26  1  0
  2 27  1  0
  3 28  1  0
  3 29  1  0
  4 30  1  0
  4 31  1  0
  5 32  1  6
  7 33  1  0
  8 34  1  0
 10 35  1  0
 12 36  1  0
 12 37  1  0
 13 38  1  0
 13 39  1  0
 15 40  1  0
 17 41  1  0
 20 42  1  0
 21 43  1  0
 22 44  1  0
 23 45  1  0
M  ISO  8  25  13  26  13  27  13  28  13  29  13  30  13  31  13  32  13
M  ISO  8  33  14  34  14  35  14  36   8  37   8  38   8  39   8  40  14
M  ISO  5  41  14  42  14  43  14  44  14  45  14
M  END
>  <minimizedAffinity>  (1) 
-6.23490763

>  <minimizedRMSD>  (1) 
1.14737058

$$$$
