
     RDKit          3D

 22 23  0  0  0  0  0  0  0  0999 V2000
   44.9820   35.0420   43.6420 C   0  0  0  0  0  0  0  0  0  0  0  0
   46.1310   35.0740   42.8190 C   0  0  0  0  0  0  0  0  0  0  0  0
   47.2330   34.2960   43.2160 C   0  0  0  0  0  0  0  0  0  0  0  0
   47.1370   33.5610   44.3580 N   0  0  0  0  0  0  0  0  0  0  0  0
   46.0130   33.5680   45.1050 C   0  0  0  0  0  0  0  0  0  0  0  0
   44.9600   34.3000   44.7430 N   0  0  0  0  0  0  0  0  0  0  0  0
   43.8070   35.7750   43.3570 N   0  0  0  0  0  0  0  0  0  0  0  0
   45.9430   32.7820   46.3050 N   0  0  0  0  0  0  0  0  0  0  0  0
   46.6630   31.6460   46.3350 C   0  0  0  0  0  0  0  0  0  0  0  0
   46.5790   30.8960   47.5140 C   0  0  0  0  0  0  0  0  0  0  0  0
   45.7870   31.3510   48.5490 C   0  0  0  0  0  0  0  0  0  0  0  0
   45.6610   30.7260   49.6460 O   0  0  0  0  0  0  0  0  0  0  0  0
   45.0890   32.5000   48.4570 N   0  0  0  0  0  0  0  0  0  0  0  0
   45.1610   33.2420   47.3130 C   0  0  0  0  0  0  0  0  0  0  0  0
   44.5350   34.3400   47.1390 O   0  0  0  0  0  0  0  0  0  0  0  0
   46.1618   35.6836   41.9039 H   0  0  0  0  0  0  0  0  0  0  0  0
   48.1546   34.2815   42.6156 H   0  0  0  0  0  0  0  0  0  0  0  0
   43.7618   36.3694   42.5171 H   0  0  0  0  0  0  0  0  0  0  0  0
   42.9962   35.7145   43.9893 H   0  0  0  0  0  0  0  0  0  0  0  0
   47.2812   31.3254   45.4835 H   0  0  0  0  0  0  0  0  0  0  0  0
   47.1382   29.9541   47.6146 H   0  0  0  0  0  0  0  0  0  0  0  0
   44.5051   32.8164   49.2443 H   0  0  0  0  0  0  0  0  0  0  0  0
  1  6  2  0
  2  3  2  0
  2  1  1  0
  3  4  1  0
  4  5  2  0
  5  8  1  0
  6  5  1  0
  7  1  1  0
  8  9  1  0
  8 14  1  0
  9 10  2  0
 10 11  1  0
 11 12  2  0
 13 11  1  0
 14 13  1  0
 15 14  2  0
  2 16  1  0
  3 17  1  0
  7 18  1  0
  7 19  1  0
  9 20  1  0
 10 21  1  0
 13 22  1  0
M  ISO  5  16  14  17  14  20  14  21  14  22   9
M  END
>  <minimizedAffinity>  (1) 
-5.35329151

>  <minimizedRMSD>  (1) 
0.804002702

$$$$
