
     RDKit          3D

 20 21  0  0  0  0  0  0  0  0999 V2000
   44.9550   35.0030   44.4880 C   0  0  0  0  0  0  0  0  0  0  0  0
   45.8510   34.9010   43.4180 C   0  0  0  0  0  0  0  0  0  0  0  0
   46.9430   34.0110   43.5520 C   0  0  0  0  0  0  0  0  0  0  0  0
   47.0460   33.3140   44.7160 N   0  0  0  0  0  0  0  0  0  0  0  0
   46.1590   33.4460   45.7180 C   0  0  0  0  0  0  0  0  0  0  0  0
   45.1280   34.2830   45.5980 N   0  0  0  0  0  0  0  0  0  0  0  0
   43.8190   35.8580   44.4830 N   0  0  0  0  0  0  0  0  0  0  0  0
   46.3090   32.6710   46.9630 C   0  0  0  0  0  0  0  0  0  0  0  0
   45.2620   32.5530   47.8550 C   0  0  0  0  0  0  0  0  0  0  0  0
   45.4620   31.8050   49.0190 C   0  0  0  0  0  0  0  0  0  0  0  0
   46.6570   31.2290   49.2320 N   0  0  0  0  0  0  0  0  0  0  0  0
   47.6770   31.3400   48.3710 C   0  0  0  0  0  0  0  0  0  0  0  0
   47.4740   32.0620   47.2520 N   0  0  0  0  0  0  0  0  0  0  0  0
   45.7110   35.4937   42.5020 H   0  0  0  0  0  0  0  0  0  0  0  0
   47.6808   33.8873   42.7455 H   0  0  0  0  0  0  0  0  0  0  0  0
   43.6198   36.4449   43.6603 H   0  0  0  0  0  0  0  0  0  0  0  0
   43.1953   35.8905   45.3020 H   0  0  0  0  0  0  0  0  0  0  0  0
   44.2941   33.0357   47.6548 H   0  0  0  0  0  0  0  0  0  0  0  0
   44.6502   31.6893   49.7522 H   0  0  0  0  0  0  0  0  0  0  0  0
   48.6458   30.8588   48.5705 H   0  0  0  0  0  0  0  0  0  0  0  0
  1  6  2  0
  2  3  2  0
  2  1  1  0
  3  4  1  0
  4  5  2  0
  5  8  1  0
  6  5  1  0
  7  1  1  0
  8 13  1  0
  8  9  2  0
  9 10  1  0
 10 11  2  0
 12 11  1  0
 13 12  2  0
  2 14  1  0
  3 15  1  0
  7 16  1  0
  7 17  1  0
  9 18  1  0
 10 19  1  0
 12 20  1  0
M  ISO  5  14  14  15  14  18  14  19  14  20  14
M  END
>  <minimizedAffinity>  (1) 
-5.00443077

>  <minimizedRMSD>  (1) 
0.523717403

$$$$
