
     RDKit          3D

 20 21  0  0  0  0  0  0  0  0999 V2000
   44.9580   35.0090   44.4660 C   0  0  0  0  0  0  0  0  0  0  0  0
   45.8680   34.8970   43.4030 C   0  0  0  0  0  0  0  0  0  0  0  0
   46.9430   34.0030   43.5600 C   0  0  0  0  0  0  0  0  0  0  0  0
   47.0400   33.3010   44.7260 N   0  0  0  0  0  0  0  0  0  0  0  0
   46.1440   33.4450   45.7110 C   0  0  0  0  0  0  0  0  0  0  0  0
   45.1150   34.2850   45.5910 N   0  0  0  0  0  0  0  0  0  0  0  0
   43.8240   35.8610   44.4690 N   0  0  0  0  0  0  0  0  0  0  0  0
   46.3060   32.6600   46.9400 C   0  0  0  0  0  0  0  0  0  0  0  0
   45.2830   32.5980   47.8690 C   0  0  0  0  0  0  0  0  0  0  0  0
   45.5020   31.8480   48.9940 C   0  0  0  0  0  0  0  0  0  0  0  0
   46.6610   31.1910   49.1980 N   0  0  0  0  0  0  0  0  0  0  0  0
   47.6610   31.2530   48.2880 C   0  0  0  0  0  0  0  0  0  0  0  0
   47.4500   31.9920   47.1780 N   0  0  0  0  0  0  0  0  0  0  0  0
   45.7452   35.4859   42.4821 H   0  0  0  0  0  0  0  0  0  0  0  0
   47.6880   33.8730   42.7612 H   0  0  0  0  0  0  0  0  0  0  0  0
   43.6226   36.4532   43.6507 H   0  0  0  0  0  0  0  0  0  0  0  0
   43.2019   35.8875   45.2895 H   0  0  0  0  0  0  0  0  0  0  0  0
   44.3328   33.1291   47.7108 H   0  0  0  0  0  0  0  0  0  0  0  0
   44.7088   31.7799   49.7531 H   0  0  0  0  0  0  0  0  0  0  0  0
   48.6105   30.7209   48.4469 H   0  0  0  0  0  0  0  0  0  0  0  0
  1  7  1  0
  1  6  2  0
  2  3  2  0
  2  1  1  0
  3  4  1  0
  4  5  2  0
  5  8  1  0
  6  5  1  0
  8 13  1  0
  8  9  2  0
  9 10  1  0
 10 11  2  0
 12 11  1  0
 13 12  2  0
  2 14  1  0
  3 15  1  0
  7 16  1  0
  7 17  1  0
  9 18  1  0
 10 19  1  0
 12 20  1  0
M  ISO  5  14  14  15  14  18  14  19  14  20  14
M  END
>  <minimizedAffinity>  (1) 
-4.99420881

>  <minimizedRMSD>  (1) 
0.625921607

$$$$
