
     RDKit          3D

 19 20  0  0  0  0  0  0  0  0999 V2000
   44.9570   34.9970   44.4860 C   0  0  0  0  0  0  0  0  0  0  0  0
   45.8700   34.8150   43.4450 C   0  0  0  0  0  0  0  0  0  0  0  0
   46.9390   33.9090   43.6600 C   0  0  0  0  0  0  0  0  0  0  0  0
   47.0140   33.2680   44.8670 N   0  0  0  0  0  0  0  0  0  0  0  0
   46.1030   33.4880   45.8270 C   0  0  0  0  0  0  0  0  0  0  0  0
   45.0810   34.3380   45.6580 N   0  0  0  0  0  0  0  0  0  0  0  0
   43.8440   35.8690   44.4120 N   0  0  0  0  0  0  0  0  0  0  0  0
   46.3290   32.7250   47.0530 C   0  0  0  0  0  0  0  0  0  0  0  0
   47.3650   32.0070   47.5890 C   0  0  0  0  0  0  0  0  0  0  0  0
   46.9110   31.5300   48.8020 C   0  0  0  0  0  0  0  0  0  0  0  0
   45.5970   31.9880   48.9550 C   0  0  0  0  0  0  0  0  0  0  0  0
   45.3020   32.6980   47.8750 O   0  0  0  0  0  0  0  0  0  0  0  0
   45.7635   35.3551   42.4927 H   0  0  0  0  0  0  0  0  0  0  0  0
   47.6892   33.7258   42.8766 H   0  0  0  0  0  0  0  0  0  0  0  0
   43.6718   36.4125   43.5542 H   0  0  0  0  0  0  0  0  0  0  0  0
   43.2066   35.9598   45.2159 H   0  0  0  0  0  0  0  0  0  0  0  0
   48.3573   31.8437   47.1433 H   0  0  0  0  0  0  0  0  0  0  0  0
   47.4745   30.9082   49.5132 H   0  0  0  0  0  0  0  0  0  0  0  0
   44.9336   31.7949   49.8109 H   0  0  0  0  0  0  0  0  0  0  0  0
  1  6  2  0
  2  3  2  0
  2  1  1  0
  3  4  1  0
  4  5  2  0
  5  8  1  0
  6  5  1  0
  7  1  1  0
  8  9  2  0
  8 12  1  0
  9 10  1  0
 10 11  2  0
 12 11  1  0
  2 13  1  0
  3 14  1  0
  7 15  1  0
  7 16  1  0
  9 17  1  0
 10 18  1  0
 11 19  1  0
M  ISO  5  13  14  14  14  17  14  18  14  19  14
M  END
>  <minimizedAffinity>  (1) 
-4.81575584

>  <minimizedRMSD>  (1) 
0.640193522

$$$$
