
     RDKit          3D

 13 13  0  0  0  0  0  0  0  0999 V2000
   44.9040   35.1450   44.0910 C   0  0  0  0  0  0  0  0  0  0  0  0
   45.7700   35.2480   42.9880 C   0  0  0  0  0  0  0  0  0  0  0  0
   46.9390   34.4660   43.0130 C   0  0  0  0  0  0  0  0  0  0  0  0
   47.1730   33.6600   44.0850 N   0  0  0  0  0  0  0  0  0  0  0  0
   46.3150   33.5960   45.1140 C   0  0  0  0  0  0  0  0  0  0  0  0
   45.1860   34.3360   45.1170 N   0  0  0  0  0  0  0  0  0  0  0  0
   43.6960   35.8680   44.2040 N   0  0  0  0  0  0  0  0  0  0  0  0
   46.6610   32.5200   46.5080 S   0  0  0  0  0  0  0  0  0  0  0  0
   45.5429   35.9122   42.1411 H   0  0  0  0  0  0  0  0  0  0  0  0
   47.6541   34.5051   42.1781 H   0  0  0  0  0  0  0  0  0  0  0  0
   43.4094   36.5125   43.4534 H   0  0  0  0  0  0  0  0  0  0  0  0
   43.1016   35.7508   45.0370 H   0  0  0  0  0  0  0  0  0  0  0  0
   46.4419   33.2013   47.6762 H   0  0  0  0  0  0  0  0  0  0  0  0
  1  7  1  0
  1  6  2  0
  2  3  2  0
  2  1  1  0
  3  4  1  0
  4  5  2  0
  5  6  1  0
  5  8  1  0
  2  9  1  0
  3 10  1  0
  7 11  1  0
  7 12  1  0
  8 13  1  0
M  ISO  3   9  14  10  14  13  11
M  END
>  <minimizedAffinity>  (1) 
-3.52547073

>  <minimizedRMSD>  (1) 
0.556428015

$$$$
