
     RDKit          3D

 25 26  0  0  1  0  0  0  0  0999 V2000
   45.0000   35.0130   44.5110 C   0  0  0  0  0  0  0  0  0  0  0  0
   45.9220   34.7980   43.4600 C   0  0  0  0  0  0  0  0  0  0  0  0
   46.9220   33.8360   43.6620 C   0  0  0  0  0  0  0  0  0  0  0  0
   46.9420   33.1690   44.8600 N   0  0  0  0  0  0  0  0  0  0  0  0
   46.0490   33.4150   45.8080 C   0  0  0  0  0  0  0  0  0  0  0  0
   45.0800   34.3200   45.6640 N   0  0  0  0  0  0  0  0  0  0  0  0
   43.9370   35.9460   44.4540 N   0  0  0  0  0  0  0  0  0  0  0  0
   46.1510   32.6740   47.0200 N   0  0  0  0  0  0  0  0  0  0  0  0
   45.0620   32.2990   47.9160 C   0  0  0  0  0  0  0  0  0  0  0  0
   45.4380   30.8860   48.3370 C   0  0  0  0  0  0  0  0  0  0  0  0
   46.8650   30.6630   47.8340 C   0  0  0  0  0  0  0  0  0  0  0  0
   47.3180   32.1020   47.6860 C   0  0  2  0  0  0  0  0  0  0  0  0
   47.5060   32.6430   48.9510 O   0  0  0  0  0  0  0  0  0  0  0  0
   45.8569   35.3644   42.5193 H   0  0  0  0  0  0  0  0  0  0  0  0
   47.6683   33.6227   42.8826 H   0  0  0  0  0  0  0  0  0  0  0  0
   43.8002   36.5199   43.6097 H   0  0  0  0  0  0  0  0  0  0  0  0
   43.3003   36.0510   45.2568 H   0  0  0  0  0  0  0  0  0  0  0  0
   45.0155   32.9716   48.7852 H   0  0  0  0  0  0  0  0  0  0  0  0
   44.0704   32.3618   47.4439 H   0  0  0  0  0  0  0  0  0  0  0  0
   45.3992   30.7902   49.4321 H   0  0  0  0  0  0  0  0  0  0  0  0
   44.7427   30.1425   47.9202 H   0  0  0  0  0  0  0  0  0  0  0  0
   47.4758   30.1158   48.5672 H   0  0  0  0  0  0  0  0  0  0  0  0
   46.9453   30.0551   46.9208 H   0  0  0  0  0  0  0  0  0  0  0  0
   48.2612   32.2666   47.1445 H   0  0  0  0  0  0  0  0  0  0  0  0
   47.2716   31.9684   49.6366 H   0  0  0  0  0  0  0  0  0  0  0  0
  1  6  2  0
  2  3  2  0
  2  1  1  0
  3  4  1  0
  4  5  2  0
  5  8  1  0
  6  5  1  0
  7  1  1  0
  8 12  1  0
  8  9  1  0
  9 10  1  0
 11 10  1  0
 12 11  1  0
 12 13  1  0
  2 14  1  0
  3 15  1  0
  7 16  1  0
  7 17  1  0
  9 18  1  0
  9 19  1  0
 10 20  1  0
 10 21  1  0
 11 22  1  0
 11 23  1  0
 12 24  1  6
 13 25  1  0
M  ISO  8  14  14  15  14  18  13  19  13  20  13  21  13  22  13  23  13
M  ISO  2  24  13  25   3
M  END
>  <minimizedAffinity>  (1) 
-4.79303455

>  <minimizedRMSD>  (1) 
0.178111866

$$$$
