
     RDKit          3D

 42 45  0  0  1  0  0  0  0  0999 V2000
   47.8380   34.5460   41.3710 C   0  0  2  0  0  0  0  0  0  0  0  0
   48.6560   35.6650   41.6750 C   0  0  0  0  0  0  0  0  0  0  0  0
   49.9740   35.1320   42.2720 C   0  0  0  0  0  0  0  0  0  0  0  0
   49.9010   33.6170   42.2630 C   0  0  0  0  0  0  0  0  0  0  0  0
   48.4520   33.3810   42.2190 C   0  0  1  0  0  0  0  0  0  0  0  0
   47.7580   33.9910   40.0000 C   0  0  0  0  0  0  0  0  0  0  0  0
   48.3700   34.6870   38.9760 C   0  0  0  0  0  0  0  0  0  0  0  0
   48.3360   34.2180   37.6830 C   0  0  0  0  0  0  0  0  0  0  0  0
   47.6630   33.0340   37.4970 N   0  0  0  0  0  0  0  0  0  0  0  0
   47.0780   32.3770   38.5030 C   0  0  0  0  0  0  0  0  0  0  0  0
   47.1140   32.8380   39.7630 N   0  0  0  0  0  0  0  0  0  0  0  0
   47.8920   33.4230   43.6030 C   0  0  0  0  0  0  0  0  0  0  0  0
   46.4790   32.9210   43.6190 C   0  0  0  0  0  0  0  0  0  0  0  0
   45.6770   33.9580   44.3490 C   0  0  0  0  0  0  0  0  0  0  0  0
   45.1310   35.1210   43.8780 C   0  0  0  0  0  0  0  0  0  0  0  0
   44.4980   35.7290   44.9210 N   0  0  0  0  0  0  0  0  0  0  0  0
   44.6520   34.9630   45.9960 C   0  0  0  0  0  0  0  0  0  0  0  0
   45.3540   33.8970   45.6770 N   0  0  0  0  0  0  0  0  0  0  0  0
   45.7110   32.8510   46.5960 C   0  0  0  0  0  0  0  0  0  0  0  0
   46.4930   31.6990   46.2330 C   0  0  0  0  0  0  0  0  0  0  0  0
   46.5770   30.7970   47.8240 S   0  0  0  0  0  0  0  0  0  0  0  0
   45.5440   32.1320   48.7000 C   0  0  0  0  0  0  0  0  0  0  0  0
   45.3160   32.9150   47.8710 N   0  0  0  0  0  0  0  0  0  0  0  0
   46.8187   34.9137   41.5604 H   0  0  0  0  0  0  0  0  0  0  0  0
   48.8638   36.2374   40.7589 H   0  0  0  0  0  0  0  0  0  0  0  0
   48.1497   36.3302   42.3900 H   0  0  0  0  0  0  0  0  0  0  0  0
   50.8255   35.4703   41.6633 H   0  0  0  0  0  0  0  0  0  0  0  0
   50.1135   35.5063   43.2969 H   0  0  0  0  0  0  0  0  0  0  0  0
   50.4012   33.1981   41.3774 H   0  0  0  0  0  0  0  0  0  0  0  0
   50.4014   33.1439   43.1208 H   0  0  0  0  0  0  0  0  0  0  0  0
   48.2206   32.3986   41.7816 H   0  0  0  0  0  0  0  0  0  0  0  0
   48.8920   35.6296   39.1973 H   0  0  0  0  0  0  0  0  0  0  0  0
   48.8162   34.7556   36.8521 H   0  0  0  0  0  0  0  0  0  0  0  0
   46.5531   31.4334   38.2928 H   0  0  0  0  0  0  0  0  0  0  0  0
   48.5071   32.7912   44.2606 H   0  0  0  0  0  0  0  0  0  0  0  0
   47.9011   34.4646   43.9565 H   0  0  0  0  0  0  0  0  0  0  0  0
   46.1044   32.8022   42.5916 H   0  0  0  0  0  0  0  0  0  0  0  0
   46.4071   31.9389   44.1092 H   0  0  0  0  0  0  0  0  0  0  0  0
   45.1918   35.4967   42.8460 H   0  0  0  0  0  0  0  0  0  0  0  0
   44.2543   35.1857   46.9971 H   0  0  0  0  0  0  0  0  0  0  0  0
   46.9258   31.4312   45.2578 H   0  0  0  0  0  0  0  0  0  0  0  0
   45.2321   32.1578   49.7545 H   0  0  0  0  0  0  0  0  0  0  0  0
  1  2  1  0
  1  5  1  0
  2  3  1  0
  4  3  1  0
  5  4  1  0
  5 12  1  0
  6  1  1  0
  7  6  2  0
  8  7  1  0
  9  8  2  0
  9 10  1  0
 10 11  2  0
 11  6  1  0
 12 13  1  0
 13 14  1  0
 14 18  1  0
 15 14  2  0
 15 16  1  0
 16 17  2  0
 18 17  1  0
 18 19  1  0
 19 23  1  0
 20 19  2  0
 20 21  1  0
 21 22  1  0
 23 22  2  0
  1 24  1  1
  2 25  1  0
  2 26  1  0
  3 27  1  0
  3 28  1  0
  4 29  1  0
  4 30  1  0
  5 31  1  6
  7 32  1  0
  8 33  1  0
 10 34  1  0
 12 35  1  0
 12 36  1  0
 13 37  1  0
 13 38  1  0
 15 39  1  0
 17 40  1  0
 20 41  1  0
 22 42  1  0
M  ISO  8  24  13  25  13  26  13  27  13  28  13  29  13  30  13  31  13
M  ISO  8  32  14  33  14  34  14  35   8  36   8  37   8  38   8  39  14
M  ISO  3  40  14  41  14  42  14
M  END
>  <minimizedAffinity>  (1) 
-5.98348236

>  <minimizedRMSD>  (1) 
0.675542653

$$$$
