
     RDKit          3D

 36 37  0  0  1  0  0  0  0  0999 V2000
   44.8110   35.6840   44.1720 C   0  0  0  0  0  0  0  0  0  0  0  0
   44.4460   35.2020   42.8940 C   0  0  0  0  0  0  0  0  0  0  0  0
   44.5960   33.8230   42.6390 C   0  0  0  0  0  0  0  0  0  0  0  0
   45.0890   33.0570   43.6670 N   0  0  0  0  0  0  0  0  0  0  0  0
   45.4150   33.5570   44.8480 C   0  0  0  0  0  0  0  0  0  0  0  0
   45.2870   34.8450   45.1170 N   0  0  0  0  0  0  0  0  0  0  0  0
   44.7140   37.0440   44.5670 N   0  0  0  0  0  0  0  0  0  0  0  0
   45.9140   32.6360   45.8030 N   0  0  0  0  0  0  0  0  0  0  0  0
   45.7340   32.7490   47.2560 C   0  0  0  0  0  0  0  0  0  0  0  0
   45.3890   31.3290   47.6920 C   0  0  0  0  0  0  0  0  0  0  0  0
   45.7640   30.4660   46.4880 C   0  0  0  0  0  0  0  0  0  0  0  0
   46.6630   31.4410   45.7460 C   0  0  1  0  0  0  0  0  0  0  0  0
   47.2220   30.9310   44.5030 C   0  0  0  0  0  0  0  0  0  0  0  0
   46.1140   30.4700   43.5860 C   0  0  0  0  0  0  0  0  0  0  0  0
   48.3410   29.9560   44.5460 C   0  0  0  0  0  0  0  0  0  0  0  0
   47.7990   32.1740   43.7840 C   0  0  0  0  0  0  0  0  0  0  0  0
   44.0568   35.8820   42.1219 H   0  0  0  0  0  0  0  0  0  0  0  0
   44.3315   33.3832   41.6661 H   0  0  0  0  0  0  0  0  0  0  0  0
   44.3601   37.7487   43.9044 H   0  0  0  0  0  0  0  0  0  0  0  0
   44.9975   37.3261   45.5162 H   0  0  0  0  0  0  0  0  0  0  0  0
   46.6599   33.0933   47.7399 H   0  0  0  0  0  0  0  0  0  0  0  0
   44.9590   33.4789   47.5329 H   0  0  0  0  0  0  0  0  0  0  0  0
   45.9745   31.0395   48.5771 H   0  0  0  0  0  0  0  0  0  0  0  0
   44.3317   31.2203   47.9755 H   0  0  0  0  0  0  0  0  0  0  0  0
   46.3054   29.5568   46.7883 H   0  0  0  0  0  0  0  0  0  0  0  0
   44.9133   30.0806   45.9069 H   0  0  0  0  0  0  0  0  0  0  0  0
   47.6535   31.6362   46.1828 H   0  0  0  0  0  0  0  0  0  0  0  0
   45.2636   30.1162   44.1874 H   0  0  0  0  0  0  0  0  0  0  0  0
   45.7907   31.3083   42.9513 H   0  0  0  0  0  0  0  0  0  0  0  0
   46.4807   29.6498   42.9513 H   0  0  0  0  0  0  0  0  0  0  0  0
   48.5947   29.7350   45.5933 H   0  0  0  0  0  0  0  0  0  0  0  0
   48.0386   29.0282   44.0383 H   0  0  0  0  0  0  0  0  0  0  0  0
   49.2187   30.3825   44.0383 H   0  0  0  0  0  0  0  0  0  0  0  0
   48.1386   32.9055   44.5320 H   0  0  0  0  0  0  0  0  0  0  0  0
   48.6489   31.8718   43.1545 H   0  0  0  0  0  0  0  0  0  0  0  0
   47.0196   32.6281   43.1545 H   0  0  0  0  0  0  0  0  0  0  0  0
  1  7  1  0
  1  6  2  0
  2  1  1  0
  3  2  2  0
  3  4  1  0
  4  5  2  0
  5  6  1  0
  5  8  1  0
  8  9  1  0
  9 10  1  0
 11 10  1  0
 12  8  1  0
 12 11  1  0
 13 15  1  0
 13 12  1  0
 14 13  1  0
 16 13  1  0
  2 17  1  0
  3 18  1  0
  7 19  1  0
  7 20  1  0
  9 21  1  0
  9 22  1  0
 10 23  1  0
 10 24  1  0
 11 25  1  0
 11 26  1  0
 12 27  1  1
 14 28  1  0
 14 29  1  0
 14 30  1  0
 15 31  1  0
 15 32  1  0
 15 33  1  0
 16 34  1  0
 16 35  1  0
 16 36  1  0
M  ISO  8  17  14  18  14  21  13  22  13  23  13  24  13  25  13  26  13
M  ISO  8  27  13  28   8  29   8  30   8  31   8  32   8  33   8  34   8
M  ISO  2  35   8  36   8
M  END
>  <minimizedAffinity>  (1) 
-4.37701702

>  <minimizedRMSD>  (1) 
2.55500126

$$$$
