
     RDKit          3D

 46 49  0  0  1  0  0  0  0  0999 V2000
   45.3770   34.1700   45.5820 C   0  0  0  0  0  0  0  0  0  0  0  0
   44.6320   35.3470   45.5340 C   0  0  0  0  0  0  0  0  0  0  0  0
   44.3750   35.9170   44.2850 C   0  0  0  0  0  0  0  0  0  0  0  0
   44.8690   35.2880   43.1710 N   0  0  0  0  0  0  0  0  0  0  0  0
   45.5840   34.1520   43.2660 C   0  0  0  0  0  0  0  0  0  0  0  0
   45.8230   33.6220   44.4300 N   0  0  0  0  0  0  0  0  0  0  0  0
   46.0410   33.5700   42.0560 N   0  0  0  0  0  0  0  0  0  0  0  0
   46.2670   32.1750   41.7820 C   0  0  0  0  0  0  0  0  0  0  0  0
   45.7100   31.9780   40.3900 C   0  0  0  0  0  0  0  0  0  0  0  0
   45.5260   33.3380   39.8850 C   0  0  0  0  0  0  0  0  0  0  0  0
   46.3860   34.1870   40.7640 C   0  0  2  0  0  0  0  0  0  0  0  0
   45.6980   33.5000   46.7630 N   0  0  0  0  0  0  0  0  0  0  0  0
   47.7940   34.1130   40.4290 C   0  0  0  0  0  0  0  0  0  0  0  0
   48.5980   34.4310   41.2970 O   0  0  0  0  0  0  0  0  0  0  0  0
   48.6070   33.7450   39.3060 C   0  0  2  0  0  0  0  0  0  0  0  0
   47.9850   34.1560   38.0230 C   0  0  0  0  0  0  0  0  0  0  0  0
   48.9310   33.4350   37.0920 C   0  0  0  0  0  0  0  0  0  0  0  0
   49.1260   32.0960   37.7210 C   0  0  0  0  0  0  0  0  0  0  0  0
   48.7410   32.2640   39.1980 C   0  0  1  0  0  0  0  0  0  0  0  0
   49.8920   31.7910   40.0350 C   0  0  0  0  0  0  0  0  0  0  0  0
   49.8660   31.2300   41.2990 C   0  0  0  0  0  0  0  0  0  0  0  0
   51.1700   30.9370   41.6990 C   0  0  0  0  0  0  0  0  0  0  0  0
   51.9370   31.3480   40.6220 C   0  0  0  0  0  0  0  0  0  0  0  0
   51.1780   31.8280   39.6920 O   0  0  0  0  0  0  0  0  0  0  0  0
   44.2562   35.8149   46.4559 H   0  0  0  0  0  0  0  0  0  0  0  0
   43.7919   36.8456   44.1973 H   0  0  0  0  0  0  0  0  0  0  0  0
   47.3414   31.9406   41.8095 H   0  0  0  0  0  0  0  0  0  0  0  0
   45.7920   31.5165   42.5241 H   0  0  0  0  0  0  0  0  0  0  0  0
   46.4191   31.4202   39.7607 H   0  0  0  0  0  0  0  0  0  0  0  0
   44.7766   31.3960   40.3867 H   0  0  0  0  0  0  0  0  0  0  0  0
   45.8516   33.4102   38.8368 H   0  0  0  0  0  0  0  0  0  0  0  0
   44.4717   33.6511   39.9055 H   0  0  0  0  0  0  0  0  0  0  0  0
   46.2169   35.2722   40.7035 H   0  0  0  0  0  0  0  0  0  0  0  0
   46.2530   32.6330   46.7287 H   0  0  0  0  0  0  0  0  0  0  0  0
   45.3800   33.8724   47.6691 H   0  0  0  0  0  0  0  0  0  0  0  0
   49.5744   34.2414   39.4724 H   0  0  0  0  0  0  0  0  0  0  0  0
   46.9502   33.7955   37.9270 H   0  0  0  0  0  0  0  0  0  0  0  0
   47.8802   35.2391   37.8618 H   0  0  0  0  0  0  0  0  0  0  0  0
   49.8878   33.9725   37.0172 H   0  0  0  0  0  0  0  0  0  0  0  0
   48.5359   33.3626   36.0680 H   0  0  0  0  0  0  0  0  0  0  0  0
   48.4778   31.3491   37.2393 H   0  0  0  0  0  0  0  0  0  0  0  0
   50.1630   31.7458   37.6115 H   0  0  0  0  0  0  0  0  0  0  0  0
   47.8436   31.7144   39.5183 H   0  0  0  0  0  0  0  0  0  0  0  0
   48.9602   31.0442   41.8948 H   0  0  0  0  0  0  0  0  0  0  0  0
   51.5080   30.4870   42.6441 H   0  0  0  0  0  0  0  0  0  0  0  0
   53.0332   31.2765   40.5658 H   0  0  0  0  0  0  0  0  0  0  0  0
  1 12  1  0
  2  1  2  0
  3  2  1  0
  4  5  1  0
  4  3  2  0
  5  6  2  0
  6  1  1  0
  7  5  1  0
  8  7  1  0
  9  8  1  0
 10  9  1  0
 10 11  1  0
 11  7  1  0
 13 11  1  0
 13 14  2  0
 15 13  1  0
 16 15  1  0
 17 18  1  0
 17 16  1  0
 18 19  1  0
 19 15  1  0
 19 20  1  0
 20 21  2  0
 21 22  1  0
 23 22  2  0
 24 20  1  0
 24 23  1  0
  2 25  1  0
  3 26  1  0
  8 27  1  0
  8 28  1  0
  9 29  1  0
  9 30  1  0
 10 31  1  0
 10 32  1  0
 11 33  1  1
 12 34  1  0
 12 35  1  0
 15 36  1  1
 16 37  1  0
 16 38  1  0
 17 39  1  0
 17 40  1  0
 18 41  1  0
 18 42  1  0
 19 43  1  1
 21 44  1  0
 22 45  1  0
 23 46  1  0
M  ISO  8  25  14  26  14  27  13  28  13  29  13  30  13  31  13  32  13
M  ISO  8  33  13  36  13  37  13  38  13  39  13  40  13  41  13  42  13
M  ISO  4  43  13  44  14  45  14  46  14
M  END
>  <minimizedAffinity>  (1) 
-5.48992062

>  <minimizedRMSD>  (1) 
3.10829401

$$$$
