
     RDKit          3D

 52 55  0  0  1  0  0  0  0  0999 V2000
   45.4030   34.1490   45.5690 C   0  0  0  0  0  0  0  0  0  0  0  0
   44.6490   35.3110   45.5410 C   0  0  0  0  0  0  0  0  0  0  0  0
   44.3730   35.8910   44.2840 C   0  0  0  0  0  0  0  0  0  0  0  0
   44.8670   35.2740   43.1640 N   0  0  0  0  0  0  0  0  0  0  0  0
   45.5950   34.1440   43.2500 C   0  0  0  0  0  0  0  0  0  0  0  0
   45.8460   33.6120   44.4110 N   0  0  0  0  0  0  0  0  0  0  0  0
   46.0520   33.5690   42.0400 N   0  0  0  0  0  0  0  0  0  0  0  0
   46.3030   32.1750   41.7530 C   0  0  0  0  0  0  0  0  0  0  0  0
   45.7040   31.9880   40.3700 C   0  0  0  0  0  0  0  0  0  0  0  0
   45.5250   33.3500   39.8630 C   0  0  0  0  0  0  0  0  0  0  0  0
   46.3860   34.1920   40.7470 C   0  0  2  0  0  0  0  0  0  0  0  0
   45.7370   33.4870   46.7460 N   0  0  0  0  0  0  0  0  0  0  0  0
   47.7900   34.1390   40.4030 C   0  0  0  0  0  0  0  0  0  0  0  0
   48.5800   34.4240   41.2920 O   0  0  0  0  0  0  0  0  0  0  0  0
   48.6350   33.8310   39.2770 C   0  0  2  0  0  0  0  0  0  0  0  0
   47.9040   34.1670   38.0100 C   0  0  0  0  0  0  0  0  0  0  0  0
   48.8990   33.6190   37.0410 C   0  0  0  0  0  0  0  0  0  0  0  0
   49.3060   32.3220   37.6790 C   0  0  0  0  0  0  0  0  0  0  0  0
   48.8860   32.3590   39.1460 C   0  0  1  0  0  0  0  0  0  0  0  0
   49.8020   31.7100   40.0810 C   0  0  0  0  0  0  0  0  0  0  0  0
   49.2520   30.3200   40.4680 C   0  0  0  0  0  0  0  0  0  0  0  0
   50.4240   29.6160   41.1110 C   0  0  0  0  0  0  0  0  0  0  0  0
   51.5170   30.0000   40.1470 C   0  0  0  0  0  0  0  0  0  0  0  0
   51.1910   31.4370   39.7740 C   0  0  0  0  0  0  0  0  0  0  0  0
   44.2768   35.7677   46.4699 H   0  0  0  0  0  0  0  0  0  0  0  0
   43.7779   36.8128   44.2054 H   0  0  0  0  0  0  0  0  0  0  0  0
   47.3822   31.9624   41.7467 H   0  0  0  0  0  0  0  0  0  0  0  0
   45.8710   31.4970   42.5038 H   0  0  0  0  0  0  0  0  0  0  0  0
   46.3880   31.4188   39.7234 H   0  0  0  0  0  0  0  0  0  0  0  0
   44.7607   31.4226   40.3947 H   0  0  0  0  0  0  0  0  0  0  0  0
   45.8544   33.4219   38.8159 H   0  0  0  0  0  0  0  0  0  0  0  0
   44.4720   33.6677   39.8777 H   0  0  0  0  0  0  0  0  0  0  0  0
   46.2083   35.2764   40.6962 H   0  0  0  0  0  0  0  0  0  0  0  0
   46.3006   32.6256   46.7103 H   0  0  0  0  0  0  0  0  0  0  0  0
   45.4207   33.8582   47.6532 H   0  0  0  0  0  0  0  0  0  0  0  0
   49.5685   34.3919   39.4318 H   0  0  0  0  0  0  0  0  0  0  0  0
   46.9322   33.6562   37.9422 H   0  0  0  0  0  0  0  0  0  0  0  0
   47.6334   35.2248   37.8761 H   0  0  0  0  0  0  0  0  0  0  0  0
   49.7602   34.2947   36.9329 H   0  0  0  0  0  0  0  0  0  0  0  0
   48.4954   33.4966   36.0251 H   0  0  0  0  0  0  0  0  0  0  0  0
   48.8072   31.4841   37.1700 H   0  0  0  0  0  0  0  0  0  0  0  0
   50.3944   32.1846   37.5990 H   0  0  0  0  0  0  0  0  0  0  0  0
   48.0136   31.7492   39.4235 H   0  0  0  0  0  0  0  0  0  0  0  0
   49.8322   32.5140   40.8312 H   0  0  0  0  0  0  0  0  0  0  0  0
   48.4181   30.4158   41.1789 H   0  0  0  0  0  0  0  0  0  0  0  0
   48.8574   29.7697   39.6011 H   0  0  0  0  0  0  0  0  0  0  0  0
   50.6218   29.9941   42.1249 H   0  0  0  0  0  0  0  0  0  0  0  0
   50.2925   28.5337   41.2569 H   0  0  0  0  0  0  0  0  0  0  0  0
   52.5037   29.9355   40.6289 H   0  0  0  0  0  0  0  0  0  0  0  0
   51.5619   29.3354   39.2716 H   0  0  0  0  0  0  0  0  0  0  0  0
   51.3652   31.5855   38.6981 H   0  0  0  0  0  0  0  0  0  0  0  0
   51.8352   32.1206   40.3464 H   0  0  0  0  0  0  0  0  0  0  0  0
  1 12  1  0
  2  1  2  0
  3  2  1  0
  4  5  1  0
  4  3  2  0
  5  6  2  0
  6  1  1  0
  7  5  1  0
  8  7  1  0
  9  8  1  0
 10  9  1  0
 10 11  1  0
 11  7  1  0
 13 11  1  0
 13 14  2  0
 15 13  1  0
 16 15  1  0
 17 18  1  0
 17 16  1  0
 18 19  1  0
 19 15  1  0
 19 20  1  0
 20 21  1  0
 21 22  1  0
 23 22  1  0
 24 20  1  0
 24 23  1  0
  2 25  1  0
  3 26  1  0
  8 27  1  0
  8 28  1  0
  9 29  1  0
  9 30  1  0
 10 31  1  0
 10 32  1  0
 11 33  1  1
 12 34  1  0
 12 35  1  0
 15 36  1  1
 16 37  1  0
 16 38  1  0
 17 39  1  0
 17 40  1  0
 18 41  1  0
 18 42  1  0
 19 43  1  6
 20 44  1  0
 21 45  1  0
 21 46  1  0
 22 47  1  0
 22 48  1  0
 23 49  1  0
 23 50  1  0
 24 51  1  0
 24 52  1  0
M  ISO  8  25  14  26  14  27  13  28  13  29  13  30  13  31  13  32  13
M  ISO  8  33  13  36  13  37  13  38  13  39  13  40  13  41  13  42  13
M  ISO  8  43  13  44  13  45  13  46  13  47  13  48  13  49  13  50  13
M  ISO  2  51  13  52  13
M  END
>  <minimizedAffinity>  (1) 
-5.27408314

>  <minimizedRMSD>  (1) 
3.2466712

$$$$
