
     RDKit          3D

 51 53  0  0  1  0  0  0  0  0999 V2000
   45.2200   34.1530   45.5760 C   0  0  0  0  0  0  0  0  0  0  0  0
   44.6360   35.4070   45.5490 C   0  0  0  0  0  0  0  0  0  0  0  0
   44.4860   36.0460   44.2950 C   0  0  0  0  0  0  0  0  0  0  0  0
   44.9260   35.3840   43.1770 N   0  0  0  0  0  0  0  0  0  0  0  0
   45.4870   34.1640   43.2650 C   0  0  0  0  0  0  0  0  0  0  0  0
   45.6250   33.5780   44.4190 N   0  0  0  0  0  0  0  0  0  0  0  0
   45.9040   33.5430   42.0630 N   0  0  0  0  0  0  0  0  0  0  0  0
   45.9760   32.1320   41.7640 C   0  0  0  0  0  0  0  0  0  0  0  0
   45.4220   32.0340   40.3570 C   0  0  0  0  0  0  0  0  0  0  0  0
   45.4220   33.4180   39.8710 C   0  0  0  0  0  0  0  0  0  0  0  0
   46.3600   34.1310   40.7910 C   0  0  2  0  0  0  0  0  0  0  0  0
   45.4150   33.4330   46.7470 N   0  0  0  0  0  0  0  0  0  0  0  0
   47.7560   33.8910   40.4920 C   0  0  0  0  0  0  0  0  0  0  0  0
   48.5370   33.9080   41.4300 O   0  0  0  0  0  0  0  0  0  0  0  0
   48.5930   33.6080   39.3520 C   0  0  2  0  0  0  0  0  0  0  0  0
   48.0190   34.2670   38.1330 C   0  0  0  0  0  0  0  0  0  0  0  0
   48.9770   33.6910   37.1370 C   0  0  0  0  0  0  0  0  0  0  0  0
   49.0460   32.2540   37.5250 C   0  0  0  0  0  0  0  0  0  0  0  0
   48.6060   32.1650   39.0010 C   0  0  1  0  0  0  0  0  0  0  0  0
   49.6020   31.2670   39.6330 C   0  0  0  0  0  0  0  0  0  0  0  0
   50.2080   30.2390   38.7420 C   0  0  0  0  0  0  0  0  0  0  0  0
   50.6500   31.8960   40.4970 C   0  0  0  0  0  0  0  0  0  0  0  0
   48.7580   30.4370   40.6360 C   0  0  0  0  0  0  0  0  0  0  0  0
   44.2979   35.8936   46.4758 H   0  0  0  0  0  0  0  0  0  0  0  0
   44.0300   37.0441   44.2192 H   0  0  0  0  0  0  0  0  0  0  0  0
   47.0160   31.7757   41.8017 H   0  0  0  0  0  0  0  0  0  0  0  0
   45.4200   31.5147   42.4849 H   0  0  0  0  0  0  0  0  0  0  0  0
   46.0646   31.4001   39.7283 H   0  0  0  0  0  0  0  0  0  0  0  0
   44.4210   31.5788   40.3299 H   0  0  0  0  0  0  0  0  0  0  0  0
   45.7820   33.4667   38.8327 H   0  0  0  0  0  0  0  0  0  0  0  0
   44.4160   33.8630   39.8680 H   0  0  0  0  0  0  0  0  0  0  0  0
   46.3311   35.2298   40.7476 H   0  0  0  0  0  0  0  0  0  0  0  0
   45.8551   32.5024   46.7121 H   0  0  0  0  0  0  0  0  0  0  0  0
   45.1196   33.8295   47.6506 H   0  0  0  0  0  0  0  0  0  0  0  0
   49.5982   33.9620   39.6245 H   0  0  0  0  0  0  0  0  0  0  0  0
   46.9798   33.9616   37.9409 H   0  0  0  0  0  0  0  0  0  0  0  0
   47.9415   35.3639   38.1601 H   0  0  0  0  0  0  0  0  0  0  0  0
   49.9644   34.1692   37.2168 H   0  0  0  0  0  0  0  0  0  0  0  0
   48.6595   33.8423   36.0947 H   0  0  0  0  0  0  0  0  0  0  0  0
   48.3707   31.6589   36.8927 H   0  0  0  0  0  0  0  0  0  0  0  0
   50.0646   31.8600   37.3941 H   0  0  0  0  0  0  0  0  0  0  0  0
   47.6396   31.7333   39.3007 H   0  0  0  0  0  0  0  0  0  0  0  0
   50.6723   29.4514   39.3536 H   0  0  0  0  0  0  0  0  0  0  0  0
   49.4259   29.7971   38.1071 H   0  0  0  0  0  0  0  0  0  0  0  0
   50.9734   30.7093   38.1071 H   0  0  0  0  0  0  0  0  0  0  0  0
   50.3934   31.7420   41.5555 H   0  0  0  0  0  0  0  0  0  0  0  0
   51.6256   31.4340   40.2852 H   0  0  0  0  0  0  0  0  0  0  0  0
   50.7012   32.9742   40.2852 H   0  0  0  0  0  0  0  0  0  0  0  0
   49.0366   30.7109   41.6643 H   0  0  0  0  0  0  0  0  0  0  0  0
   47.6898   30.6462   40.4774 H   0  0  0  0  0  0  0  0  0  0  0  0
   48.9493   29.3654   40.4774 H   0  0  0  0  0  0  0  0  0  0  0  0
  1 12  1  0
  2  1  2  0
  3  2  1  0
  4  5  1  0
  4  3  2  0
  5  6  2  0
  6  1  1  0
  7  5  1  0
  8  7  1  0
  9  8  1  0
 10  9  1  0
 10 11  1  0
 11  7  1  0
 13 11  1  0
 13 14  2  0
 15 13  1  0
 16 15  1  0
 17 18  1  0
 17 16  1  0
 18 19  1  0
 19 15  1  0
 19 20  1  0
 20 22  1  0
 20 23  1  0
 21 20  1  0
  2 24  1  0
  3 25  1  0
  8 26  1  0
  8 27  1  0
  9 28  1  0
  9 29  1  0
 10 30  1  0
 10 31  1  0
 11 32  1  1
 12 33  1  0
 12 34  1  0
 15 35  1  1
 16 36  1  0
 16 37  1  0
 17 38  1  0
 17 39  1  0
 18 40  1  0
 18 41  1  0
 19 42  1  6
 21 43  1  0
 21 44  1  0
 21 45  1  0
 22 46  1  0
 22 47  1  0
 22 48  1  0
 23 49  1  0
 23 50  1  0
 23 51  1  0
M  ISO  8  24  14  25  14  26  13  27  13  28  13  29  13  30  13  31  13
M  ISO  8  32  13  35  13  36  13  37  13  38  13  39  13  40  13  41  13
M  ISO  8  42  13  43   8  44   8  45   8  46   8  47   8  48   8  49   8
M  ISO  2  50   8  51   8
M  END
>  <minimizedAffinity>  (1) 
-5.12181377

>  <minimizedRMSD>  (1) 
3.1748836

$$$$
