
     RDKit          3D

 41 43  0  0  1  0  0  0  0  0999 V2000
   45.1150   34.6120   45.2440 C   0  0  0  0  0  0  0  0  0  0  0  0
   44.6270   35.7450   44.6040 C   0  0  0  0  0  0  0  0  0  0  0  0
   44.9670   35.9390   43.2600 C   0  0  0  0  0  0  0  0  0  0  0  0
   45.7610   35.0000   42.6520 N   0  0  0  0  0  0  0  0  0  0  0  0
   46.2080   33.9180   43.3160 C   0  0  0  0  0  0  0  0  0  0  0  0
   45.8910   33.7400   44.5650 N   0  0  0  0  0  0  0  0  0  0  0  0
   47.0110   33.0010   42.5960 N   0  0  0  0  0  0  0  0  0  0  0  0
   47.1260   31.5760   42.8000 C   0  0  0  0  0  0  0  0  0  0  0  0
   47.1350   31.0080   41.3990 C   0  0  0  0  0  0  0  0  0  0  0  0
   47.3600   32.1700   40.5380 C   0  0  0  0  0  0  0  0  0  0  0  0
   47.9200   33.2090   41.4550 C   0  0  2  0  0  0  0  0  0  0  0  0
   44.8470   34.3020   46.5830 N   0  0  0  0  0  0  0  0  0  0  0  0
   49.3210   32.9980   41.7740 C   0  0  0  0  0  0  0  0  0  0  0  0
   49.7440   33.4740   42.8210 O   0  0  0  0  0  0  0  0  0  0  0  0
   50.4570   32.3410   41.1950 C   0  0  2  0  0  0  0  0  0  0  0  0
   50.2140   31.9920   39.7740 C   0  0  0  0  0  0  0  0  0  0  0  0
   51.4780   31.1970   39.5590 C   0  0  0  0  0  0  0  0  0  0  0  0
   51.5680   30.3330   40.7690 C   0  0  0  0  0  0  0  0  0  0  0  0
   50.7350   31.0350   41.8550 C   0  0  1  0  0  0  0  0  0  0  0  0
   51.5470   31.2810   43.0260 N   0  0  0  0  0  0  0  0  0  0  0  0
   43.9924   36.4678   45.1377 H   0  0  0  0  0  0  0  0  0  0  0  0
   44.6077   36.8194   42.7071 H   0  0  0  0  0  0  0  0  0  0  0  0
   48.0592   31.3302   43.3280 H   0  0  0  0  0  0  0  0  0  0  0  0
   46.3121   31.1687   43.4178 H   0  0  0  0  0  0  0  0  0  0  0  0
   47.9455   30.2736   41.2817 H   0  0  0  0  0  0  0  0  0  0  0  0
   46.2022   30.4787   41.1546 H   0  0  0  0  0  0  0  0  0  0  0  0
   48.0764   31.9294   39.7387 H   0  0  0  0  0  0  0  0  0  0  0  0
   46.4399   32.5050   40.0368 H   0  0  0  0  0  0  0  0  0  0  0  0
   47.9480   34.2343   41.0576 H   0  0  0  0  0  0  0  0  0  0  0  0
   45.2381   33.4460   47.0017 H   0  0  0  0  0  0  0  0  0  0  0  0
   44.2588   34.9300   47.1492 H   0  0  0  0  0  0  0  0  0  0  0  0
   51.2899   33.0493   41.3155 H   0  0  0  0  0  0  0  0  0  0  0  0
   49.3070   31.3843   39.6394 H   0  0  0  0  0  0  0  0  0  0  0  0
   50.0379   32.8311   39.0849 H   0  0  0  0  0  0  0  0  0  0  0  0
   51.4060   30.5866   38.6467 H   0  0  0  0  0  0  0  0  0  0  0  0
   52.3637   31.8359   39.4271 H   0  0  0  0  0  0  0  0  0  0  0  0
   51.1566   29.3350   40.5574 H   0  0  0  0  0  0  0  0  0  0  0  0
   52.6115   30.1949   41.0884 H   0  0  0  0  0  0  0  0  0  0  0  0
   49.8521   30.4661   42.1819 H   0  0  0  0  0  0  0  0  0  0  0  0
   50.9872   31.1114   43.8738 H   0  0  0  0  0  0  0  0  0  0  0  0
   52.3599   30.6485   43.0191 H   0  0  0  0  0  0  0  0  0  0  0  0
  1 12  1  0
  2  1  2  0
  3  2  1  0
  4  3  2  0
  4  5  1  0
  5  6  2  0
  6  1  1  0
  7  8  1  0
  7  5  1  0
  9  8  1  0
 10  9  1  0
 10 11  1  0
 11 13  1  0
 11  7  1  0
 13 14  2  0
 15 13  1  0
 15 19  1  0
 16 15  1  0
 17 16  1  0
 17 18  1  0
 18 19  1  0
 19 20  1  0
  2 21  1  0
  3 22  1  0
  8 23  1  0
  8 24  1  0
  9 25  1  0
  9 26  1  0
 10 27  1  0
 10 28  1  0
 11 29  1  6
 12 30  1  0
 12 31  1  0
 15 32  1  6
 16 33  1  0
 16 34  1  0
 17 35  1  0
 17 36  1  0
 18 37  1  0
 18 38  1  0
 19 39  1  1
 20 40  1  0
 20 41  1  0
M  ISO  8  21  14  22  14  23  13  24  13  25  13  26  13  27  13  28  13
M  ISO  8  29  13  32  13  33  13  34  13  35  13  36  13  37  13  38  13
M  ISO  3  39  13  40   5  41   5
M  END
>  <minimizedAffinity>  (1) 
-4.75827599

>  <minimizedRMSD>  (1) 
0.452028245

$$$$
