
     RDKit          3D

 22 22  0  0  0  0  0  0  0  0999 V2000
   47.3730   34.7420   42.5080 C   0  0  0  0  0  0  0  0  0  0  0  0
   47.5220   33.7700   43.5080 C   0  0  0  0  0  0  0  0  0  0  0  0
   46.4970   33.6610   44.4760 C   0  0  0  0  0  0  0  0  0  0  0  0
   45.4330   34.5080   44.3740 N   0  0  0  0  0  0  0  0  0  0  0  0
   45.3290   35.4390   43.3850 C   0  0  0  0  0  0  0  0  0  0  0  0
   46.2900   35.5530   42.4630 N   0  0  0  0  0  0  0  0  0  0  0  0
   48.5100   34.7800   41.5290 C   0  0  0  0  0  0  0  0  0  0  0  0
   48.0450   34.5030   40.1330 C   0  0  0  0  0  0  0  0  0  0  0  0
   49.5650   33.7320   41.8710 C   0  0  0  0  0  0  0  0  0  0  0  0
   49.1430   36.1410   41.6180 C   0  0  0  0  0  0  0  0  0  0  0  0
   48.4054   33.1153   43.5382 H   0  0  0  0  0  0  0  0  0  0  0  0
   46.5559   32.9176   45.2846 H   0  0  0  0  0  0  0  0  0  0  0  0
   44.4505   36.0997   43.3450 H   0  0  0  0  0  0  0  0  0  0  0  0
   47.1004   33.9403   40.1660 H   0  0  0  0  0  0  0  0  0  0  0  0
   47.8868   35.4542   39.6037 H   0  0  0  0  0  0  0  0  0  0  0  0
   48.8061   33.9110   39.6037 H   0  0  0  0  0  0  0  0  0  0  0  0
   49.6536   33.6440   42.9639 H   0  0  0  0  0  0  0  0  0  0  0  0
   49.2680   32.7611   41.4478 H   0  0  0  0  0  0  0  0  0  0  0  0
   50.5339   34.0355   41.4478 H   0  0  0  0  0  0  0  0  0  0  0  0
   49.2715   36.4172   42.6750 H   0  0  0  0  0  0  0  0  0  0  0  0
   50.1247   36.1220   41.1221 H   0  0  0  0  0  0  0  0  0  0  0  0
   48.4959   36.8795   41.1221 H   0  0  0  0  0  0  0  0  0  0  0  0
  1  2  2  0
  2  3  1  0
  4  3  2  0
  5  4  1  0
  6  1  1  0
  6  5  2  0
  7 10  1  0
  7  9  1  0
  7  1  1  0
  8  7  1  0
  2 11  1  0
  3 12  1  0
  5 13  1  0
  8 14  1  0
  8 15  1  0
  8 16  1  0
  9 17  1  0
  9 18  1  0
  9 19  1  0
 10 20  1  0
 10 21  1  0
 10 22  1  0
M  ISO  8  11  14  12  14  13  14  14   8  15   8  16   8  17   8  18   8
M  ISO  4  19   8  20   8  21   8  22   8
M  END
>  <minimizedAffinity>  (1) 
-3.92166328

>  <minimizedRMSD>  (1) 
4.83621407

$$$$
