
     RDKit          3D

 41 43  0  0  0  0  0  0  0  0999 V2000
   46.1130   34.0160   41.8650 C   0  0  0  0  0  0  0  0  0  0  0  0
   45.5960   34.5040   43.1740 C   0  0  0  0  0  0  0  0  0  0  0  0
   45.8590   33.6680   44.2620 C   0  0  0  0  0  0  0  0  0  0  0  0
   45.3950   34.0820   45.5360 C   0  0  0  0  0  0  0  0  0  0  0  0
   44.7270   35.2550   45.6290 N   0  0  0  0  0  0  0  0  0  0  0  0
   44.4910   36.0390   44.5480 C   0  0  0  0  0  0  0  0  0  0  0  0
   44.9230   35.6630   43.3410 N   0  0  0  0  0  0  0  0  0  0  0  0
   45.0950   34.1350   40.7860 C   0  0  0  0  0  0  0  0  0  0  0  0
   46.4560   32.5170   41.9500 C   0  0  0  0  0  0  0  0  0  0  0  0
   47.3520   34.7500   41.5290 C   0  0  0  0  0  0  0  0  0  0  0  0
   48.5960   34.0440   41.6530 C   0  0  0  0  0  0  0  0  0  0  0  0
   49.6800   34.1120   42.5710 C   0  0  0  0  0  0  0  0  0  0  0  0
   50.7470   33.2900   42.4230 C   0  0  0  0  0  0  0  0  0  0  0  0
   50.7680   32.3580   41.3380 C   0  0  0  0  0  0  0  0  0  0  0  0
   49.1320   32.7250   40.5080 S   0  0  0  0  0  0  0  0  0  0  0  0
   51.7240   31.5060   41.0820 N   0  0  0  0  0  0  0  0  0  0  0  0
   51.9000   30.3680   41.9790 C   0  0  0  0  0  0  0  0  0  0  0  0
   52.7990   29.4030   41.2800 C   0  0  0  0  0  0  0  0  0  0  0  0
   52.8730   29.9270   39.8570 C   0  0  0  0  0  0  0  0  0  0  0  0
   52.7410   31.4050   40.0550 C   0  0  0  0  0  0  0  0  0  0  0  0
   46.4065   32.7224   44.1347 H   0  0  0  0  0  0  0  0  0  0  0  0
   45.5739   33.4640   46.4282 H   0  0  0  0  0  0  0  0  0  0  0  0
   43.9432   36.9857   44.6651 H   0  0  0  0  0  0  0  0  0  0  0  0
   44.0973   34.2516   41.2344 H   0  0  0  0  0  0  0  0  0  0  0  0
   45.3219   35.0127   40.1630 H   0  0  0  0  0  0  0  0  0  0  0  0
   45.1133   33.2286   40.1630 H   0  0  0  0  0  0  0  0  0  0  0  0
   46.5249   32.2159   43.0057 H   0  0  0  0  0  0  0  0  0  0  0  0
   45.6685   31.9319   41.4525 H   0  0  0  0  0  0  0  0  0  0  0  0
   47.4196   32.3326   41.4525 H   0  0  0  0  0  0  0  0  0  0  0  0
   47.4042   35.6278   42.1899 H   0  0  0  0  0  0  0  0  0  0  0  0
   47.2627   34.9732   40.4556 H   0  0  0  0  0  0  0  0  0  0  0  0
   49.6523   34.8324   43.4018 H   0  0  0  0  0  0  0  0  0  0  0  0
   51.5884   33.3389   43.1299 H   0  0  0  0  0  0  0  0  0  0  0  0
   52.3587   30.6973   42.9230 H   0  0  0  0  0  0  0  0  0  0  0  0
   50.9330   29.9027   42.2207 H   0  0  0  0  0  0  0  0  0  0  0  0
   53.7962   29.3923   41.7442 H   0  0  0  0  0  0  0  0  0  0  0  0
   52.4272   28.3689   41.3295 H   0  0  0  0  0  0  0  0  0  0  0  0
   52.0498   29.5320   39.2436 H   0  0  0  0  0  0  0  0  0  0  0  0
   53.7908   29.6336   39.3263 H   0  0  0  0  0  0  0  0  0  0  0  0
   53.6905   31.8449   40.3940 H   0  0  0  0  0  0  0  0  0  0  0  0
   52.4810   31.9447   39.1325 H   0  0  0  0  0  0  0  0  0  0  0  0
  1  9  1  0
  1  2  1  0
  2  7  1  0
  2  3  2  0
  3  4  1  0
  4  5  2  0
  6  5  1  0
  7  6  2  0
  8  1  1  0
 10 11  1  0
 10  1  1  0
 11 12  2  0
 13 12  1  0
 14 13  2  0
 15 14  1  0
 15 11  1  0
 16 14  1  0
 16 17  1  0
 18 17  1  0
 19 20  1  0
 19 18  1  0
 20 16  1  0
  3 21  1  0
  4 22  1  0
  6 23  1  0
  8 24  1  0
  8 25  1  0
  8 26  1  0
  9 27  1  0
  9 28  1  0
  9 29  1  0
 10 30  1  0
 10 31  1  0
 12 32  1  0
 13 33  1  0
 17 34  1  0
 17 35  1  0
 18 36  1  0
 18 37  1  0
 19 38  1  0
 19 39  1  0
 20 40  1  0
 20 41  1  0
M  ISO  8  21  14  22  14  23  14  24   8  25   8  26   8  27   8  28   8
M  ISO  8  29   8  30   8  31   8  32  14  33  14  34  13  35  13  36  13
M  ISO  5  37  13  38  13  39  13  40  13  41  13
M  END
>  <minimizedAffinity>  (1) 
-4.91416025

>  <minimizedRMSD>  (1) 
1.6905719

$$$$
