
     RDKit          3D

 32 33  0  0  0  0  0  0  0  0999 V2000
   46.1230   33.9940   41.8670 C   0  0  0  0  0  0  0  0  0  0  0  0
   45.6070   34.4900   43.1740 C   0  0  0  0  0  0  0  0  0  0  0  0
   45.8610   33.6640   44.2660 C   0  0  0  0  0  0  0  0  0  0  0  0
   45.3980   34.0770   45.5300 C   0  0  0  0  0  0  0  0  0  0  0  0
   44.7280   35.2640   45.6140 N   0  0  0  0  0  0  0  0  0  0  0  0
   44.4980   36.0450   44.5200 C   0  0  0  0  0  0  0  0  0  0  0  0
   44.9330   35.6580   43.3280 N   0  0  0  0  0  0  0  0  0  0  0  0
   45.1120   34.1180   40.7780 C   0  0  0  0  0  0  0  0  0  0  0  0
   46.4710   32.4970   41.9620 C   0  0  0  0  0  0  0  0  0  0  0  0
   47.3540   34.7420   41.5380 C   0  0  0  0  0  0  0  0  0  0  0  0
   48.6040   34.0560   41.6790 C   0  0  0  0  0  0  0  0  0  0  0  0
   49.7030   34.1380   42.5710 C   0  0  0  0  0  0  0  0  0  0  0  0
   50.7630   33.3390   42.4380 C   0  0  0  0  0  0  0  0  0  0  0  0
   50.7910   32.3820   41.3830 C   0  0  0  0  0  0  0  0  0  0  0  0
   49.1360   32.7080   40.5460 S   0  0  0  0  0  0  0  0  0  0  0  0
   51.6870   31.3920   40.9120 C   0  0  0  0  0  0  0  0  0  0  0  0
   51.1050   30.6770   39.8570 F   0  0  0  0  0  0  0  0  0  0  0  0
   52.0580   30.5070   41.9060 F   0  0  0  0  0  0  0  0  0  0  0  0
   52.8420   31.9450   40.3940 F   0  0  0  0  0  0  0  0  0  0  0  0
   46.4072   32.7169   44.1447 H   0  0  0  0  0  0  0  0  0  0  0  0
   45.5711   33.4608   46.4246 H   0  0  0  0  0  0  0  0  0  0  0  0
   43.9526   36.9944   44.6258 H   0  0  0  0  0  0  0  0  0  0  0  0
   44.1116   34.2407   41.2187 H   0  0  0  0  0  0  0  0  0  0  0  0
   45.3486   34.9939   40.1560 H   0  0  0  0  0  0  0  0  0  0  0  0
   45.1299   33.2109   40.1560 H   0  0  0  0  0  0  0  0  0  0  0  0
   46.5394   32.2029   43.0197 H   0  0  0  0  0  0  0  0  0  0  0  0
   45.6863   31.9060   41.4671 H   0  0  0  0  0  0  0  0  0  0  0  0
   47.4359   32.3127   41.4671 H   0  0  0  0  0  0  0  0  0  0  0  0
   47.3875   35.6252   42.1928 H   0  0  0  0  0  0  0  0  0  0  0  0
   47.2722   34.9558   40.4621 H   0  0  0  0  0  0  0  0  0  0  0  0
   49.6812   34.8742   43.3880 H   0  0  0  0  0  0  0  0  0  0  0  0
   51.6085   33.4184   43.1372 H   0  0  0  0  0  0  0  0  0  0  0  0
  1  9  1  0
  1  2  1  0
  2  7  1  0
  2  3  2  0
  3  4  1  0
  4  5  2  0
  6  5  1  0
  7  6  2  0
  8  1  1  0
 10 11  1  0
 10  1  1  0
 11 12  2  0
 13 12  1  0
 14 13  2  0
 15 14  1  0
 15 11  1  0
 16 14  1  0
 16 18  1  0
 17 16  1  0
 19 16  1  0
  3 20  1  0
  4 21  1  0
  6 22  1  0
  8 23  1  0
  8 24  1  0
  8 25  1  0
  9 26  1  0
  9 27  1  0
  9 28  1  0
 10 29  1  0
 10 30  1  0
 12 31  1  0
 13 32  1  0
M  ISO  8  20  14  21  14  22  14  23   8  24   8  25   8  26   8  27   8
M  ISO  5  28   8  29   8  30   8  31  14  32  14
M  END
>  <minimizedAffinity>  (1) 
-4.87989426

>  <minimizedRMSD>  (1) 
1.3684566

$$$$
