
     RDKit          3D

 42 44  0  0  0  0  0  0  0  0999 V2000
   46.8280   34.5010   40.8960 C   0  0  0  0  0  0  0  0  0  0  0  0
   48.0910   33.9930   41.3540 C   0  0  0  0  0  0  0  0  0  0  0  0
   49.0110   34.3430   42.3700 C   0  0  0  0  0  0  0  0  0  0  0  0
   50.1420   33.6590   42.5560 C   0  0  0  0  0  0  0  0  0  0  0  0
   50.4290   32.5500   41.7120 C   0  0  0  0  0  0  0  0  0  0  0  0
   48.9200   32.5370   40.5830 S   0  0  0  0  0  0  0  0  0  0  0  0
   53.4240   29.7640   41.1350 C   0  0  0  0  0  0  0  0  0  0  0  0
   52.6350   29.6960   42.2750 C   0  0  0  0  0  0  0  0  0  0  0  0
   51.6110   30.6260   42.4990 C   0  0  0  0  0  0  0  0  0  0  0  0
   51.4220   31.6030   41.5480 C   0  0  0  0  0  0  0  0  0  0  0  0
   52.1950   31.6840   40.4140 C   0  0  0  0  0  0  0  0  0  0  0  0
   53.2170   30.7510   40.1940 C   0  0  0  0  0  0  0  0  0  0  0  0
   54.7140   28.5950   40.8470 S   0  0  0  0  0  0  0  0  0  0  0  0
   56.0500   29.1670   41.1530 O   0  0  0  0  0  0  0  0  0  0  0  0
   54.6520   28.2240   39.3800 O   0  0  0  0  0  0  0  0  0  0  0  0
   45.6040   33.8810   41.4430 C   0  0  0  0  0  0  0  0  0  0  0  0
   45.3180   34.5090   42.7770 C   0  0  0  0  0  0  0  0  0  0  0  0
   45.4870   33.6510   43.8650 C   0  0  0  0  0  0  0  0  0  0  0  0
   45.2350   34.1790   45.1470 C   0  0  0  0  0  0  0  0  0  0  0  0
   44.8440   35.4820   45.2470 N   0  0  0  0  0  0  0  0  0  0  0  0
   44.6900   36.2880   44.1610 C   0  0  0  0  0  0  0  0  0  0  0  0
   44.9280   35.7950   42.9390 N   0  0  0  0  0  0  0  0  0  0  0  0
   44.4560   34.0420   40.5020 C   0  0  0  0  0  0  0  0  0  0  0  0
   45.8430   32.3790   41.5930 C   0  0  0  0  0  0  0  0  0  0  0  0
   46.7941   35.5720   41.1446 H   0  0  0  0  0  0  0  0  0  0  0  0
   46.8047   34.2660   39.8217 H   0  0  0  0  0  0  0  0  0  0  0  0
   48.7888   35.2000   43.0229 H   0  0  0  0  0  0  0  0  0  0  0  0
   50.8436   33.9491   43.3520 H   0  0  0  0  0  0  0  0  0  0  0  0
   52.8161   28.9008   43.0131 H   0  0  0  0  0  0  0  0  0  0  0  0
   50.9823   30.5771   43.4003 H   0  0  0  0  0  0  0  0  0  0  0  0
   52.0111   32.4816   39.6791 H   0  0  0  0  0  0  0  0  0  0  0  0
   53.8411   30.8046   39.2898 H   0  0  0  0  0  0  0  0  0  0  0  0
   54.5410   27.5061   41.6602 H   0  0  0  0  0  0  0  0  0  0  0  0
   45.8036   32.6066   43.7274 H   0  0  0  0  0  0  0  0  0  0  0  0
   45.3508   33.5553   46.0456 H   0  0  0  0  0  0  0  0  0  0  0  0
   44.3732   37.3339   44.2860 H   0  0  0  0  0  0  0  0  0  0  0  0
   43.5268   34.1723   41.0761 H   0  0  0  0  0  0  0  0  0  0  0  0
   44.6225   34.9256   39.8683 H   0  0  0  0  0  0  0  0  0  0  0  0
   44.3730   33.1467   39.8683 H   0  0  0  0  0  0  0  0  0  0  0  0
   45.8843   32.1192   42.6611 H   0  0  0  0  0  0  0  0  0  0  0  0
   45.0214   31.8272   41.1129 H   0  0  0  0  0  0  0  0  0  0  0  0
   46.7953   32.1095   41.1129 H   0  0  0  0  0  0  0  0  0  0  0  0
  1  2  1  0
  1 16  1  0
  2  3  2  0
  3  4  1  0
  5  4  2  0
  6  2  1  0
  6  5  1  0
  7  8  2  0
  8  9  1  0
 10  5  1  0
 10  9  2  0
 11 10  1  0
 12 11  2  0
 12  7  1  0
 13  7  1  0
 13 14  2  0
 15 13  2  0
 16 24  1  0
 16 17  1  0
 17 22  1  0
 17 18  2  0
 18 19  1  0
 19 20  2  0
 21 20  1  0
 22 21  2  0
 23 16  1  0
  1 25  1  0
  1 26  1  0
  3 27  1  0
  4 28  1  0
  8 29  1  0
  9 30  1  0
 11 31  1  0
 12 32  1  0
 13 33  1  0
 18 34  1  0
 19 35  1  0
 21 36  1  0
 23 37  1  0
 23 38  1  0
 23 39  1  0
 24 40  1  0
 24 41  1  0
 24 42  1  0
M  ISO  8  25   8  26   8  27  14  28  14  29  14  30  14  31  14  32  14
M  ISO  8  33  11  34  14  35  14  36  14  37   8  38   8  39   8  40   8
M  ISO  2  41   8  42   8
M  END
>  <minimizedAffinity>  (1) 
-4.75694323

>  <minimizedRMSD>  (1) 
1.54046082

$$$$
