
     RDKit          3D

 31 32  0  0  0  0  0  0  0  0999 V2000
   45.3300   33.6480   41.5440 C   0  0  0  0  0  0  0  0  0  0  0  0
   45.1530   34.2970   42.8720 C   0  0  0  0  0  0  0  0  0  0  0  0
   45.4510   33.4940   43.9690 C   0  0  0  0  0  0  0  0  0  0  0  0
   45.3040   34.0510   45.2680 C   0  0  0  0  0  0  0  0  0  0  0  0
   44.8800   35.3400   45.3630 N   0  0  0  0  0  0  0  0  0  0  0  0
   44.6010   36.0860   44.2700 C   0  0  0  0  0  0  0  0  0  0  0  0
   44.7360   35.5680   43.0550 N   0  0  0  0  0  0  0  0  0  0  0  0
   44.0750   33.6630   40.7470 C   0  0  0  0  0  0  0  0  0  0  0  0
   45.7200   32.1680   41.7170 C   0  0  0  0  0  0  0  0  0  0  0  0
   46.4300   34.3250   40.8260 C   0  0  0  0  0  0  0  0  0  0  0  0
   47.7490   34.2540   41.3970 C   0  0  0  0  0  0  0  0  0  0  0  0
   48.5180   35.0450   42.2870 C   0  0  0  0  0  0  0  0  0  0  0  0
   49.7580   34.6880   42.6250 C   0  0  0  0  0  0  0  0  0  0  0  0
   50.3240   33.4920   42.0840 C   0  0  0  0  0  0  0  0  0  0  0  0
   48.9000   32.8800   41.0080 S   0  0  0  0  0  0  0  0  0  0  0  0
   51.5010   32.9040   42.2400 N   0  0  0  0  0  0  0  0  0  0  0  0
   45.7910   32.4566   43.8342 H   0  0  0  0  0  0  0  0  0  0  0  0
   45.5260   33.4587   46.1680 H   0  0  0  0  0  0  0  0  0  0  0  0
   44.2611   37.1255   44.3880 H   0  0  0  0  0  0  0  0  0  0  0  0
   43.2096   33.6733   41.4259 H   0  0  0  0  0  0  0  0  0  0  0  0
   44.0542   34.5615   40.1127 H   0  0  0  0  0  0  0  0  0  0  0  0
   44.0327   32.7653   40.1127 H   0  0  0  0  0  0  0  0  0  0  0  0
   45.7832   31.9283   42.7887 H   0  0  0  0  0  0  0  0  0  0  0  0
   44.9592   31.5305   41.2429 H   0  0  0  0  0  0  0  0  0  0  0  0
   46.6962   31.9882   41.2429 H   0  0  0  0  0  0  0  0  0  0  0  0
   46.1638   35.3894   40.7469 H   0  0  0  0  0  0  0  0  0  0  0  0
   46.5121   33.7835   39.8720 H   0  0  0  0  0  0  0  0  0  0  0  0
   48.0861   35.9663   42.7049 H   0  0  0  0  0  0  0  0  0  0  0  0
   50.3427   35.3115   43.3173 H   0  0  0  0  0  0  0  0  0  0  0  0
   51.7074   32.0252   41.7441 H   0  0  0  0  0  0  0  0  0  0  0  0
   52.2096   33.3257   42.8572 H   0  0  0  0  0  0  0  0  0  0  0  0
  1  9  1  0
  1  2  1  0
  2  7  1  0
  2  3  2  0
  3  4  1  0
  4  5  2  0
  6  5  1  0
  7  6  2  0
  8  1  1  0
 10 11  1  0
 10  1  1  0
 11 12  2  0
 12 13  1  0
 14 16  1  0
 14 13  2  0
 15 11  1  0
 15 14  1  0
  3 17  1  0
  4 18  1  0
  6 19  1  0
  8 20  1  0
  8 21  1  0
  8 22  1  0
  9 23  1  0
  9 24  1  0
  9 25  1  0
 10 26  1  0
 10 27  1  0
 12 28  1  0
 13 29  1  0
 16 30  1  0
 16 31  1  0
M  ISO  8  17  14  18  14  19  14  20   8  21   8  22   8  23   8  24   8
M  ISO  5  25   8  26   8  27   8  28  14  29  14
M  END
>  <minimizedAffinity>  (1) 
-4.68574858

>  <minimizedRMSD>  (1) 
0.416585118

$$$$
