
     RDKit          3D

 30 31  0  0  0  0  0  0  0  0999 V2000
   46.1070   33.9870   41.8980 C   0  0  0  0  0  0  0  0  0  0  0  0
   45.5870   34.4940   43.2060 C   0  0  0  0  0  0  0  0  0  0  0  0
   45.8570   33.6600   44.2970 C   0  0  0  0  0  0  0  0  0  0  0  0
   45.3900   34.0840   45.5670 C   0  0  0  0  0  0  0  0  0  0  0  0
   44.7180   35.2580   45.6460 N   0  0  0  0  0  0  0  0  0  0  0  0
   44.4760   36.0420   44.5500 C   0  0  0  0  0  0  0  0  0  0  0  0
   44.9120   35.6490   43.3560 N   0  0  0  0  0  0  0  0  0  0  0  0
   45.1030   34.1290   40.8070 C   0  0  0  0  0  0  0  0  0  0  0  0
   46.4510   32.4950   41.9840 C   0  0  0  0  0  0  0  0  0  0  0  0
   47.3440   34.7380   41.5870 C   0  0  0  0  0  0  0  0  0  0  0  0
   48.5910   34.0410   41.6820 C   0  0  0  0  0  0  0  0  0  0  0  0
   49.6800   34.0840   42.5890 C   0  0  0  0  0  0  0  0  0  0  0  0
   50.7460   33.2990   42.4180 C   0  0  0  0  0  0  0  0  0  0  0  0
   50.7970   32.4000   41.3030 C   0  0  0  0  0  0  0  0  0  0  0  0
   49.1320   32.7760   40.4820 S   0  0  0  0  0  0  0  0  0  0  0  0
   51.8960   31.2750   40.7220 S   0  0  0  0  0  0  0  0  0  0  0  0
   46.4080   32.7159   44.1745 H   0  0  0  0  0  0  0  0  0  0  0  0
   45.5688   33.4751   46.4655 H   0  0  0  0  0  0  0  0  0  0  0  0
   43.9258   36.9887   44.6557 H   0  0  0  0  0  0  0  0  0  0  0  0
   44.1037   34.2703   41.2445 H   0  0  0  0  0  0  0  0  0  0  0  0
   45.3577   35.0001   40.1854 H   0  0  0  0  0  0  0  0  0  0  0  0
   45.1061   33.2215   40.1854 H   0  0  0  0  0  0  0  0  0  0  0  0
   46.5202   32.1949   43.0400 H   0  0  0  0  0  0  0  0  0  0  0  0
   45.6646   31.9081   41.4868 H   0  0  0  0  0  0  0  0  0  0  0  0
   47.4150   32.3117   41.4868 H   0  0  0  0  0  0  0  0  0  0  0  0
   47.3920   35.5917   42.2790 H   0  0  0  0  0  0  0  0  0  0  0  0
   47.2512   34.9946   40.5214 H   0  0  0  0  0  0  0  0  0  0  0  0
   49.6459   34.7737   43.4453 H   0  0  0  0  0  0  0  0  0  0  0  0
   51.5828   33.3420   43.1307 H   0  0  0  0  0  0  0  0  0  0  0  0
   52.5081   30.6484   41.7754 H   0  0  0  0  0  0  0  0  0  0  0  0
  1  9  1  0
  1  2  1  0
  2  7  1  0
  2  3  2  0
  3  4  1  0
  4  5  2  0
  6  5  1  0
  7  6  2  0
  8  1  1  0
 10 11  1  0
 10  1  1  0
 11 12  2  0
 13 12  1  0
 14 13  2  0
 15 14  1  0
 15 11  1  0
 16 14  1  0
  3 17  1  0
  4 18  1  0
  6 19  1  0
  8 20  1  0
  8 21  1  0
  8 22  1  0
  9 23  1  0
  9 24  1  0
  9 25  1  0
 10 26  1  0
 10 27  1  0
 12 28  1  0
 13 29  1  0
 16 30  1  0
M  ISO  8  17  14  18  14  19  14  20   8  21   8  22   8  23   8  24   8
M  ISO  6  25   8  26   8  27   8  28  14  29  14  30  11
M  END
>  <minimizedAffinity>  (1) 
-4.62477303

>  <minimizedRMSD>  (1) 
1.07456923

$$$$
