
     RDKit          3D

 24 26  0  0  0  0  0  0  0  0999 V2000
   44.8060   35.0510   45.6970 C   0  0  0  0  0  0  0  0  0  0  0  0
   44.3590   35.6700   44.5270 C   0  0  0  0  0  0  0  0  0  0  0  0
   44.7700   35.1280   43.3050 C   0  0  0  0  0  0  0  0  0  0  0  0
   45.5730   34.0410   43.3280 N   0  0  0  0  0  0  0  0  0  0  0  0
   45.9950   33.4570   44.4800 C   0  0  0  0  0  0  0  0  0  0  0  0
   45.6110   33.9630   45.6520 N   0  0  0  0  0  0  0  0  0  0  0  0
   46.8400   32.3140   44.5090 N   0  0  0  0  0  0  0  0  0  0  0  0
   47.5680   32.0900   43.3780 C   0  0  0  0  0  0  0  0  0  0  0  0
   48.3070   30.9410   43.6300 C   0  0  0  0  0  0  0  0  0  0  0  0
   48.0280   30.4970   44.8690 N   0  0  0  0  0  0  0  0  0  0  0  0
   47.1360   31.3350   45.3960 C   0  0  0  0  0  0  0  0  0  0  0  0
   46.4850   31.3510   46.6890 C   0  0  0  0  0  0  0  0  0  0  0  0
   45.3210   30.8010   47.1050 C   0  0  0  0  0  0  0  0  0  0  0  0
   44.9030   30.9500   48.3900 C   0  0  0  0  0  0  0  0  0  0  0  0
   45.7780   31.7150   49.2260 C   0  0  0  0  0  0  0  0  0  0  0  0
   47.1490   32.1720   48.1100 S   0  0  0  0  0  0  0  0  0  0  0  0
   44.4983   35.4549   46.6728 H   0  0  0  0  0  0  0  0  0  0  0  0
   43.7056   36.5541   44.5656 H   0  0  0  0  0  0  0  0  0  0  0  0
   44.4488   35.5738   42.3520 H   0  0  0  0  0  0  0  0  0  0  0  0
   47.5698   32.6932   42.4581 H   0  0  0  0  0  0  0  0  0  0  0  0
   49.0094   30.4687   42.9274 H   0  0  0  0  0  0  0  0  0  0  0  0
   44.7063   30.2271   46.3959 H   0  0  0  0  0  0  0  0  0  0  0  0
   43.9627   30.5152   48.7598 H   0  0  0  0  0  0  0  0  0  0  0  0
   45.6537   31.9677   50.2893 H   0  0  0  0  0  0  0  0  0  0  0  0
  2  1  2  0
  3  4  2  0
  3  2  1  0
  4  5  1  0
  5  7  1  0
  5  6  2  0
  6  1  1  0
  7 11  1  0
  8  9  2  0
  8  7  1  0
  9 10  1  0
 10 11  2  0
 11 12  1  0
 12 13  2  0
 12 16  1  0
 13 14  1  0
 14 15  2  0
 16 15  1  0
  1 17  1  0
  2 18  1  0
  3 19  1  0
  8 20  1  0
  9 21  1  0
 13 22  1  0
 14 23  1  0
 15 24  1  0
M  ISO  8  17  14  18  14  19  14  20  14  21  14  22  14  23  14  24  14
M  END
>  <minimizedAffinity>  (1) 
-4.52246666

>  <minimizedRMSD>  (1) 
3.35388494

$$$$
