
     RDKit          3D

 27 29  0  0  0  0  0  0  0  0999 V2000
   46.1440   34.3720   41.5920 C   0  0  0  0  0  0  0  0  0  0  0  0
   47.2560   35.1270   41.9420 C   0  0  0  0  0  0  0  0  0  0  0  0
   48.3570   35.1710   41.0550 C   0  0  0  0  0  0  0  0  0  0  0  0
   48.2490   34.4510   39.8880 N   0  0  0  0  0  0  0  0  0  0  0  0
   47.1390   33.7330   39.6020 C   0  0  0  0  0  0  0  0  0  0  0  0
   46.1000   33.6990   40.4530 N   0  0  0  0  0  0  0  0  0  0  0  0
   47.0150   32.9630   38.3620 C   0  0  0  0  0  0  0  0  0  0  0  0
   46.2810   31.8440   38.0480 N   0  0  0  0  0  0  0  0  0  0  0  0
   46.5210   31.5460   36.7940 O   0  0  0  0  0  0  0  0  0  0  0  0
   47.3640   32.3940   36.2630 C   0  0  0  0  0  0  0  0  0  0  0  0
   47.6990   33.3100   37.2330 N   0  0  0  0  0  0  0  0  0  0  0  0
   47.8700   32.4090   34.9320 N   0  0  0  0  0  0  0  0  0  0  0  0
   47.1880   32.1640   33.7970 C   0  0  0  0  0  0  0  0  0  0  0  0
   47.9970   32.2680   32.7210 N   0  0  0  0  0  0  0  0  0  0  0  0
   49.2090   32.5840   33.2060 C   0  0  0  0  0  0  0  0  0  0  0  0
   49.1170   32.6670   34.5460 N   0  0  0  0  0  0  0  0  0  0  0  0
   45.0460   34.3530   42.5250 C   0  0  0  0  0  0  0  0  0  0  0  0
   43.8880   33.9840   42.1090 O   0  0  0  0  0  0  0  0  0  0  0  0
   45.2540   34.7360   43.8580 O   0  0  0  0  0  0  0  0  0  0  0  0
   44.5680   35.8420   44.3540 C   0  0  0  0  0  0  0  0  0  0  0  0
   43.2210   35.8260   43.9870 F   0  0  0  0  0  0  0  0  0  0  0  0
   44.6360   35.8540   45.7320 F   0  0  0  0  0  0  0  0  0  0  0  0
   45.1680   36.9630   43.8140 F   0  0  0  0  0  0  0  0  0  0  0  0
   47.2801   35.6809   42.8921 H   0  0  0  0  0  0  0  0  0  0  0  0
   49.2595   35.7551   41.2882 H   0  0  0  0  0  0  0  0  0  0  0  0
   46.1179   31.9133   33.7525 H   0  0  0  0  0  0  0  0  0  0  0  0
   50.1195   32.7468   32.6107 H   0  0  0  0  0  0  0  0  0  0  0  0
  1  2  2  0
  1 17  1  0
  3  2  1  0
  4  3  2  0
  5  4  1  0
  5  6  2  0
  6  1  1  0
  7  5  1  0
  8  7  2  0
  9  8  1  0
 10  9  1  0
 10 11  2  0
 11  7  1  0
 12 10  1  0
 13 12  1  0
 14 15  1  0
 14 13  2  0
 15 16  2  0
 16 12  1  0
 17 19  1  0
 18 17  2  0
 19 20  1  0
 20 22  1  0
 21 20  1  0
 23 20  1  0
  2 24  1  0
  3 25  1  0
 13 26  1  0
 15 27  1  0
M  ISO  4  24  14  25  14  26  14  27  14
M  END
>  <minimizedAffinity>  (1) 
-5.3999691

>  <minimizedRMSD>  (1) 
2.15468884

$$$$
