
     RDKit          3D

 36 38  0  0  0  0  0  0  0  0999 V2000
   46.4560   34.8460   41.8810 C   0  0  0  0  0  0  0  0  0  0  0  0
   47.7240   35.3870   41.9410 C   0  0  0  0  0  0  0  0  0  0  0  0
   48.6270   35.1500   40.8780 C   0  0  0  0  0  0  0  0  0  0  0  0
   48.1680   34.3790   39.8360 N   0  0  0  0  0  0  0  0  0  0  0  0
   46.9220   33.8780   39.8300 C   0  0  0  0  0  0  0  0  0  0  0  0
   46.0800   34.1110   40.8430 N   0  0  0  0  0  0  0  0  0  0  0  0
   46.4150   33.0540   38.7250 C   0  0  0  0  0  0  0  0  0  0  0  0
   45.5050   32.0240   38.7050 N   0  0  0  0  0  0  0  0  0  0  0  0
   45.3880   31.6080   37.4700 O   0  0  0  0  0  0  0  0  0  0  0  0
   46.1630   32.2980   36.6740 C   0  0  0  0  0  0  0  0  0  0  0  0
   46.8170   33.2110   37.4420 N   0  0  0  0  0  0  0  0  0  0  0  0
   46.3210   32.1530   35.2670 N   0  0  0  0  0  0  0  0  0  0  0  0
   47.6380   32.1590   34.6850 C   0  0  0  0  0  0  0  0  0  0  0  0
   47.8100   30.9100   33.8460 C   0  0  0  0  0  0  0  0  0  0  0  0
   46.6140   30.0000   33.9130 C   0  0  0  0  0  0  0  0  0  0  0  0
   45.3000   30.6840   33.6730 C   0  0  0  0  0  0  0  0  0  0  0  0
   45.1840   31.9980   34.4110 C   0  0  0  0  0  0  0  0  0  0  0  0
   45.5650   35.1100   42.9840 C   0  0  0  0  0  0  0  0  0  0  0  0
   45.2590   36.3270   43.2550 O   0  0  0  0  0  0  0  0  0  0  0  0
   45.0530   34.0420   43.7350 O   0  0  0  0  0  0  0  0  0  0  0  0
   45.6690   33.7160   44.9400 C   0  0  0  0  0  0  0  0  0  0  0  0
   45.3900   32.4130   45.3310 F   0  0  0  0  0  0  0  0  0  0  0  0
   47.0390   33.8400   44.8140 F   0  0  0  0  0  0  0  0  0  0  0  0
   45.1730   34.5890   45.8940 F   0  0  0  0  0  0  0  0  0  0  0  0
   48.0291   35.9954   42.8052 H   0  0  0  0  0  0  0  0  0  0  0  0
   49.6467   35.5624   40.8847 H   0  0  0  0  0  0  0  0  0  0  0  0
   47.7570   33.0494   34.0502 H   0  0  0  0  0  0  0  0  0  0  0  0
   48.3968   32.1803   35.4811 H   0  0  0  0  0  0  0  0  0  0  0  0
   48.6916   30.3607   34.2082 H   0  0  0  0  0  0  0  0  0  0  0  0
   47.9310   31.2254   32.7991 H   0  0  0  0  0  0  0  0  0  0  0  0
   46.7366   29.2142   33.1530 H   0  0  0  0  0  0  0  0  0  0  0  0
   46.5786   29.6033   34.9384 H   0  0  0  0  0  0  0  0  0  0  0  0
   45.1943   30.8752   32.5949 H   0  0  0  0  0  0  0  0  0  0  0  0
   44.5064   30.0208   34.0478 H   0  0  0  0  0  0  0  0  0  0  0  0
   45.1514   32.8259   33.6874 H   0  0  0  0  0  0  0  0  0  0  0  0
   44.2624   32.0072   35.0114 H   0  0  0  0  0  0  0  0  0  0  0  0
  1  2  2  0
  1 18  1  0
  3  2  1  0
  4  3  2  0
  5  4  1  0
  5  6  2  0
  6  1  1  0
  7  5  1  0
  8  7  2  0
  9  8  1  0
 10 11  2  0
 10  9  1  0
 11  7  1  0
 12 10  1  0
 13 12  1  0
 14 15  1  0
 14 13  1  0
 16 15  1  0
 16 17  1  0
 17 12  1  0
 18 19  2  0
 18 20  1  0
 20 21  1  0
 21 22  1  0
 21 24  1  0
 23 21  1  0
  2 25  1  0
  3 26  1  0
 13 27  1  0
 13 28  1  0
 14 29  1  0
 14 30  1  0
 15 31  1  0
 15 32  1  0
 16 33  1  0
 16 34  1  0
 17 35  1  0
 17 36  1  0
M  ISO  8  25  14  26  14  27  13  28  13  29  13  30  13  31  13  32  13
M  ISO  4  33  13  34  13  35  13  36  13
M  END
>  <minimizedAffinity>  (1) 
-5.2784729

>  <minimizedRMSD>  (1) 
1.75160778

$$$$
