
     RDKit          3D

 28 30  0  0  0  0  0  0  0  0999 V2000
   46.5550   34.8890   42.0750 C   0  0  0  0  0  0  0  0  0  0  0  0
   47.7830   35.5100   42.2660 C   0  0  0  0  0  0  0  0  0  0  0  0
   48.7570   35.4220   41.2440 C   0  0  0  0  0  0  0  0  0  0  0  0
   48.4190   34.7170   40.1170 N   0  0  0  0  0  0  0  0  0  0  0  0
   47.2090   34.1330   39.9850 C   0  0  0  0  0  0  0  0  0  0  0  0
   46.3040   34.2290   40.9610 N   0  0  0  0  0  0  0  0  0  0  0  0
   46.8340   33.3780   38.7870 C   0  0  0  0  0  0  0  0  0  0  0  0
   45.7720   32.5570   38.5150 N   0  0  0  0  0  0  0  0  0  0  0  0
   45.8880   32.1180   37.2920 O   0  0  0  0  0  0  0  0  0  0  0  0
   46.9710   32.6000   36.7290 C   0  0  0  0  0  0  0  0  0  0  0  0
   47.5790   33.3940   37.6530 N   0  0  0  0  0  0  0  0  0  0  0  0
   47.4350   32.3540   35.4150 N   0  0  0  0  0  0  0  0  0  0  0  0
   48.6300   32.7100   34.9200 C   0  0  0  0  0  0  0  0  0  0  0  0
   48.6880   32.2810   33.5960 C   0  0  0  0  0  0  0  0  0  0  0  0
   47.5030   31.6660   33.3210 N   0  0  0  0  0  0  0  0  0  0  0  0
   46.7430   31.7220   34.4540 C   0  0  0  0  0  0  0  0  0  0  0  0
   45.5920   35.0020   43.1380 C   0  0  0  0  0  0  0  0  0  0  0  0
   45.1730   36.1670   43.4790 O   0  0  0  0  0  0  0  0  0  0  0  0
   45.1250   33.8470   43.7840 O   0  0  0  0  0  0  0  0  0  0  0  0
   45.6950   33.4900   45.0060 C   0  0  0  0  0  0  0  0  0  0  0  0
   45.4720   32.1350   45.2960 F   0  0  0  0  0  0  0  0  0  0  0  0
   47.0520   33.6900   44.9690 F   0  0  0  0  0  0  0  0  0  0  0  0
   45.0840   34.2510   45.9770 F   0  0  0  0  0  0  0  0  0  0  0  0
   47.9940   36.0600   43.1949 H   0  0  0  0  0  0  0  0  0  0  0  0
   49.7430   35.8984   41.3485 H   0  0  0  0  0  0  0  0  0  0  0  0
   49.4228   33.2453   35.4630 H   0  0  0  0  0  0  0  0  0  0  0  0
   49.5316   32.4136   32.9026 H   0  0  0  0  0  0  0  0  0  0  0  0
   45.7269   31.3147   34.5619 H   0  0  0  0  0  0  0  0  0  0  0  0
  1  2  2  0
  1 17  1  0
  3  2  1  0
  4  3  2  0
  5  4  1  0
  5  6  2  0
  6  1  1  0
  7  5  1  0
  8  7  2  0
  9  8  1  0
 10  9  1  0
 10 11  2  0
 11  7  1  0
 12 10  1  0
 13 12  1  0
 14 13  2  0
 15 14  1  0
 15 16  2  0
 16 12  1  0
 17 18  2  0
 17 19  1  0
 19 20  1  0
 20 21  1  0
 20 23  1  0
 22 20  1  0
  2 24  1  0
  3 25  1  0
 13 26  1  0
 14 27  1  0
 16 28  1  0
M  ISO  5  24  14  25  14  26  14  27  14  28  14
M  END
>  <minimizedAffinity>  (1) 
-5.15023565

>  <minimizedRMSD>  (1) 
2.27355099

$$$$
