
     RDKit          3D

 35 38  0  0  0  0  0  0  0  0999 V2000
   47.1880   33.3580   38.8240 C   0  0  0  0  0  0  0  0  0  0  0  0
   47.9820   32.7470   37.9180 N   0  0  0  0  0  0  0  0  0  0  0  0
   47.2510   32.1530   37.0330 O   0  0  0  0  0  0  0  0  0  0  0  0
   45.9650   32.3210   37.2810 C   0  0  0  0  0  0  0  0  0  0  0  0
   45.9480   33.0700   38.3950 N   0  0  0  0  0  0  0  0  0  0  0  0
   45.0030   31.7170   36.3840 C   0  0  0  0  0  0  0  0  0  0  0  0
   45.2120   31.5990   35.0500 N   0  0  0  0  0  0  0  0  0  0  0  0
   44.3440   31.0460   34.1950 C   0  0  0  0  0  0  0  0  0  0  0  0
   43.1590   30.5530   34.6250 N   0  0  0  0  0  0  0  0  0  0  0  0
   42.8460   30.6200   35.9550 C   0  0  0  0  0  0  0  0  0  0  0  0
   41.6510   30.1230   36.3990 C   0  0  0  0  0  0  0  0  0  0  0  0
   41.3180   30.1820   37.7330 C   0  0  0  0  0  0  0  0  0  0  0  0
   42.2350   30.7580   38.5860 C   0  0  0  0  0  0  0  0  0  0  0  0
   43.4170   31.2400   38.0870 C   0  0  0  0  0  0  0  0  0  0  0  0
   43.7910   31.2020   36.7720 C   0  0  0  0  0  0  0  0  0  0  0  0
   46.6530   34.9310   42.0550 C   0  0  0  0  0  0  0  0  0  0  0  0
   47.8270   35.6400   42.2760 C   0  0  0  0  0  0  0  0  0  0  0  0
   48.8450   35.5870   41.2980 C   0  0  0  0  0  0  0  0  0  0  0  0
   48.6060   34.8350   40.1820 N   0  0  0  0  0  0  0  0  0  0  0  0
   47.4380   34.1600   40.0160 C   0  0  0  0  0  0  0  0  0  0  0  0
   46.4920   34.2220   40.9510 N   0  0  0  0  0  0  0  0  0  0  0  0
   45.6280   34.9990   43.0750 C   0  0  0  0  0  0  0  0  0  0  0  0
   45.1780   36.1540   43.4100 O   0  0  0  0  0  0  0  0  0  0  0  0
   45.1750   33.7890   43.6500 O   0  0  0  0  0  0  0  0  0  0  0  0
   45.6970   33.4200   44.8910 C   0  0  0  0  0  0  0  0  0  0  0  0
   45.4970   32.0630   45.1570 F   0  0  0  0  0  0  0  0  0  0  0  0
   47.0530   33.6780   44.9170 F   0  0  0  0  0  0  0  0  0  0  0  0
   45.0260   34.1500   45.8480 F   0  0  0  0  0  0  0  0  0  0  0  0
   44.5974   30.9912   33.1260 H   0  0  0  0  0  0  0  0  0  0  0  0
   40.9492   29.6716   35.6823 H   0  0  0  0  0  0  0  0  0  0  0  0
   40.3606   29.7863   38.1029 H   0  0  0  0  0  0  0  0  0  0  0  0
   42.0191   30.8304   39.6622 H   0  0  0  0  0  0  0  0  0  0  0  0
   44.1206   31.6933   38.8007 H   0  0  0  0  0  0  0  0  0  0  0  0
   47.9612   36.2308   43.1941 H   0  0  0  0  0  0  0  0  0  0  0  0
   49.7928   36.1296   41.4295 H   0  0  0  0  0  0  0  0  0  0  0  0
  1 20  1  0
  2  1  2  0
  3  4  1  0
  3  2  1  0
  4  5  2  0
  5  1  1  0
  6 15  1  0
  6  4  1  0
  7  6  2  0
  8  9  2  0
  8  7  1  0
  9 10  1  0
 10 11  1  0
 10 15  2  0
 11 12  2  0
 12 13  1  0
 14 13  2  0
 15 14  1  0
 16 17  2  0
 16 22  1  0
 18 17  1  0
 19 18  2  0
 20 19  1  0
 20 21  2  0
 21 16  1  0
 22 23  2  0
 22 24  1  0
 24 25  1  0
 25 27  1  0
 25 26  1  0
 25 28  1  0
  8 29  1  0
 11 30  1  0
 12 31  1  0
 13 32  1  0
 14 33  1  0
 17 34  1  0
 18 35  1  0
M  ISO  7  29  14  30  14  31  14  32  14  33  14  34  14  35  14
M  END
>  <minimizedAffinity>  (1) 
-5.08373451

>  <minimizedRMSD>  (1) 
2.80933547

$$$$
