
     RDKit          3D

 23 24  0  0  0  0  0  0  0  0999 V2000
   45.6790   34.2110   40.7670 C   0  0  0  0  0  0  0  0  0  0  0  0
   46.9890   34.4730   41.1430 C   0  0  0  0  0  0  0  0  0  0  0  0
   48.0340   34.0690   40.2810 C   0  0  0  0  0  0  0  0  0  0  0  0
   47.6770   33.4340   39.1140 N   0  0  0  0  0  0  0  0  0  0  0  0
   46.3790   33.2060   38.8010 C   0  0  0  0  0  0  0  0  0  0  0  0
   45.4090   33.5980   39.6330 N   0  0  0  0  0  0  0  0  0  0  0  0
   46.0020   32.5350   37.5650 C   0  0  0  0  0  0  0  0  0  0  0  0
   45.8580   31.2280   37.2240 N   0  0  0  0  0  0  0  0  0  0  0  0
   45.4980   31.1540   35.9710 O   0  0  0  0  0  0  0  0  0  0  0  0
   45.3910   32.3470   35.4450 C   0  0  0  0  0  0  0  0  0  0  0  0
   45.7040   33.2520   36.4290 N   0  0  0  0  0  0  0  0  0  0  0  0
   45.0350   32.7810   34.1370 N   0  0  0  0  0  0  0  0  0  0  0  0
   44.6370   34.6350   41.6720 C   0  0  0  0  0  0  0  0  0  0  0  0
   43.6540   35.3090   41.2000 O   0  0  0  0  0  0  0  0  0  0  0  0
   44.7340   34.2960   43.0410 O   0  0  0  0  0  0  0  0  0  0  0  0
   44.8040   35.3420   43.9750 C   0  0  0  0  0  0  0  0  0  0  0  0
   43.5280   35.8320   44.2740 F   0  0  0  0  0  0  0  0  0  0  0  0
   45.3710   34.8820   45.1370 F   0  0  0  0  0  0  0  0  0  0  0  0
   45.5350   36.3480   43.3960 F   0  0  0  0  0  0  0  0  0  0  0  0
   47.2095   34.9842   42.0917 H   0  0  0  0  0  0  0  0  0  0  0  0
   49.0886   34.2546   40.5328 H   0  0  0  0  0  0  0  0  0  0  0  0
   45.0084   33.7870   33.9176 H   0  0  0  0  0  0  0  0  0  0  0  0
   44.8040   32.0890   33.4099 H   0  0  0  0  0  0  0  0  0  0  0  0
  1  2  2  0
  1 13  1  0
  3  2  1  0
  4  3  2  0
  5  4  1  0
  5  6  2  0
  6  1  1  0
  7  5  1  0
  8  7  2  0
  9  8  1  0
 10  9  1  0
 10 11  2  0
 11  7  1  0
 12 10  1  0
 13 15  1  0
 14 13  2  0
 15 16  1  0
 16 17  1  0
 16 18  1  0
 19 16  1  0
  2 20  1  0
  3 21  1  0
 12 22  1  0
 12 23  1  0
M  ISO  2  20  14  21  14
M  END
>  <minimizedAffinity>  (1) 
-5.04829836

>  <minimizedRMSD>  (1) 
0.727257371

$$$$
