
     RDKit          3D

 33 35  0  0  0  0  0  0  0  0999 V2000
   45.9650   34.3340   40.9860 C   0  0  0  0  0  0  0  0  0  0  0  0
   47.1590   34.8830   41.4370 C   0  0  0  0  0  0  0  0  0  0  0  0
   48.3670   34.4780   40.8210 C   0  0  0  0  0  0  0  0  0  0  0  0
   48.2770   33.5600   39.8080 N   0  0  0  0  0  0  0  0  0  0  0  0
   47.0820   33.0580   39.4090 C   0  0  0  0  0  0  0  0  0  0  0  0
   45.9470   33.4530   40.0040 N   0  0  0  0  0  0  0  0  0  0  0  0
   46.9820   32.0800   38.3300 C   0  0  0  0  0  0  0  0  0  0  0  0
   46.8370   30.7320   38.3080 N   0  0  0  0  0  0  0  0  0  0  0  0
   46.7990   30.3270   37.0680 O   0  0  0  0  0  0  0  0  0  0  0  0
   46.9120   31.3390   36.2450 C   0  0  0  0  0  0  0  0  0  0  0  0
   47.0280   32.4510   37.0170 N   0  0  0  0  0  0  0  0  0  0  0  0
   46.9280   31.4370   34.8250 N   0  0  0  0  0  0  0  0  0  0  0  0
   46.0860   30.8150   33.8210 C   0  0  0  0  0  0  0  0  0  0  0  0
   47.1040   30.2950   32.8110 C   0  0  0  0  0  0  0  0  0  0  0  0
   48.3740   31.1090   33.0900 C   0  0  0  0  0  0  0  0  0  0  0  0
   47.8230   32.2090   33.9840 C   0  0  0  0  0  0  0  0  0  0  0  0
   44.7550   34.7700   41.6380 C   0  0  0  0  0  0  0  0  0  0  0  0
   43.9010   35.4540   40.9660 O   0  0  0  0  0  0  0  0  0  0  0  0
   44.5360   34.4390   42.9860 O   0  0  0  0  0  0  0  0  0  0  0  0
   44.9670   35.3310   43.9730 C   0  0  0  0  0  0  0  0  0  0  0  0
   43.9790   35.5610   44.9300 F   0  0  0  0  0  0  0  0  0  0  0  0
   46.0690   34.8130   44.6150 F   0  0  0  0  0  0  0  0  0  0  0  0
   45.2620   36.5200   43.3360 F   0  0  0  0  0  0  0  0  0  0  0  0
   47.1652   35.6173   42.2560 H   0  0  0  0  0  0  0  0  0  0  0  0
   49.3378   34.8834   41.1422 H   0  0  0  0  0  0  0  0  0  0  0  0
   45.4968   29.9917   34.2511 H   0  0  0  0  0  0  0  0  0  0  0  0
   45.3460   31.5013   33.3835 H   0  0  0  0  0  0  0  0  0  0  0  0
   46.7522   30.4640   31.7826 H   0  0  0  0  0  0  0  0  0  0  0  0
   47.2722   29.2122   32.9071 H   0  0  0  0  0  0  0  0  0  0  0  0
   49.1332   30.5073   33.6111 H   0  0  0  0  0  0  0  0  0  0  0  0
   48.8870   31.4726   32.1874 H   0  0  0  0  0  0  0  0  0  0  0  0
   48.6177   32.6920   34.5715 H   0  0  0  0  0  0  0  0  0  0  0  0
   47.3456   33.0421   33.4473 H   0  0  0  0  0  0  0  0  0  0  0  0
  1  2  2  0
  1 17  1  0
  3  2  1  0
  4  3  2  0
  5  4  1  0
  5  6  2  0
  6  1  1  0
  7  5  1  0
  8  7  2  0
  9  8  1  0
 10 11  2  0
 10  9  1  0
 11  7  1  0
 12 10  1  0
 13 12  1  0
 14 15  1  0
 14 13  1  0
 15 16  1  0
 16 12  1  0
 17 19  1  0
 18 17  2  0
 19 20  1  0
 20 22  1  0
 20 21  1  0
 23 20  1  0
  2 24  1  0
  3 25  1  0
 13 26  1  0
 13 27  1  0
 14 28  1  0
 14 29  1  0
 15 30  1  0
 15 31  1  0
 16 32  1  0
 16 33  1  0
M  ISO  8  24  14  25  14  26  13  27  13  28  13  29  13  30  13  31  13
M  ISO  2  32  13  33  13
M  END
>  <minimizedAffinity>  (1) 
-4.76830912

>  <minimizedRMSD>  (1) 
1.58825803

$$$$
