
     RDKit          3D

 37 39  0  0  0  0  0  0  0  0999 V2000
   45.9910   34.6910   41.5140 C   0  0  0  0  0  0  0  0  0  0  0  0
   47.1780   35.2250   41.9980 C   0  0  0  0  0  0  0  0  0  0  0  0
   48.3730   34.9920   41.2760 C   0  0  0  0  0  0  0  0  0  0  0  0
   48.2760   34.2420   40.1290 N   0  0  0  0  0  0  0  0  0  0  0  0
   47.0920   33.7500   39.7080 C   0  0  0  0  0  0  0  0  0  0  0  0
   45.9750   33.9840   40.4080 N   0  0  0  0  0  0  0  0  0  0  0  0
   46.9800   32.9500   38.4860 C   0  0  0  0  0  0  0  0  0  0  0  0
   47.8560   32.1420   37.8280 N   0  0  0  0  0  0  0  0  0  0  0  0
   47.2540   31.6550   36.7700 O   0  0  0  0  0  0  0  0  0  0  0  0
   46.0230   32.0920   36.6850 C   0  0  0  0  0  0  0  0  0  0  0  0
   45.8300   32.9110   37.7560 N   0  0  0  0  0  0  0  0  0  0  0  0
   45.0510   31.7430   35.6130 C   0  0  0  0  0  0  0  0  0  0  0  0
   43.9810   30.8940   36.2540 C   0  0  0  0  0  0  0  0  0  0  0  0
   43.0080   30.3330   35.2500 C   0  0  0  0  0  0  0  0  0  0  0  0
   43.5810   30.1380   33.8800 C   0  0  0  0  0  0  0  0  0  0  0  0
   45.0470   29.8100   34.0180 C   0  0  0  0  0  0  0  0  0  0  0  0
   45.7650   31.0470   34.5000 C   0  0  0  0  0  0  0  0  0  0  0  0
   44.7960   34.9500   42.2770 C   0  0  0  0  0  0  0  0  0  0  0  0
   43.8980   35.7240   41.7820 O   0  0  0  0  0  0  0  0  0  0  0  0
   44.6460   34.3470   43.5500 O   0  0  0  0  0  0  0  0  0  0  0  0
   45.1150   35.0450   44.6690 C   0  0  0  0  0  0  0  0  0  0  0  0
   44.2250   34.9320   45.7440 F   0  0  0  0  0  0  0  0  0  0  0  0
   46.3360   34.5370   45.0490 F   0  0  0  0  0  0  0  0  0  0  0  0
   45.1960   36.3690   44.3150 F   0  0  0  0  0  0  0  0  0  0  0  0
   47.1894   35.8177   42.9246 H   0  0  0  0  0  0  0  0  0  0  0  0
   49.3379   35.3941   41.6186 H   0  0  0  0  0  0  0  0  0  0  0  0
   44.5797   32.6306   35.1657 H   0  0  0  0  0  0  0  0  0  0  0  0
   44.4635   30.0583   36.7820 H   0  0  0  0  0  0  0  0  0  0  0  0
   43.4145   31.5367   36.9439 H   0  0  0  0  0  0  0  0  0  0  0  0
   42.6563   29.3580   35.6185 H   0  0  0  0  0  0  0  0  0  0  0  0
   42.1973   31.0698   35.1508 H   0  0  0  0  0  0  0  0  0  0  0  0
   43.4605   31.0601   33.2925 H   0  0  0  0  0  0  0  0  0  0  0  0
   43.0578   29.3188   33.3651 H   0  0  0  0  0  0  0  0  0  0  0  0
   45.1793   28.9957   34.7456 H   0  0  0  0  0  0  0  0  0  0  0  0
   45.4563   29.4869   33.0495 H   0  0  0  0  0  0  0  0  0  0  0  0
   46.7651   30.7559   34.8536 H   0  0  0  0  0  0  0  0  0  0  0  0
   45.8152   31.7478   33.6536 H   0  0  0  0  0  0  0  0  0  0  0  0
  1  2  2  0
  1 18  1  0
  3  2  1  0
  4  3  2  0
  5  4  1  0
  5  6  2  0
  6  1  1  0
  7  5  1  0
  8  7  2  0
  9  8  1  0
 10  9  1  0
 10 11  2  0
 11  7  1  0
 12 13  1  0
 12 10  1  0
 14 13  1  0
 15 16  1  0
 15 14  1  0
 16 17  1  0
 17 12  1  0
 18 20  1  0
 19 18  2  0
 20 21  1  0
 21 23  1  0
 21 22  1  0
 24 21  1  0
  2 25  1  0
  3 26  1  0
 12 27  1  0
 13 28  1  0
 13 29  1  0
 14 30  1  0
 14 31  1  0
 15 32  1  0
 15 33  1  0
 16 34  1  0
 16 35  1  0
 17 36  1  0
 17 37  1  0
M  ISO  8  25  14  26  14  27  13  28  13  29  13  30  13  31  13  32  13
M  ISO  5  33  13  34  13  35  13  36  13  37  13
M  END
>  <minimizedAffinity>  (1) 
-4.68323088

>  <minimizedRMSD>  (1) 
1.09489512

$$$$
