
     RDKit          3D

 30 31  0  0  0  0  0  0  0  0999 V2000
   45.9060   34.4320   41.0920 C   0  0  0  0  0  0  0  0  0  0  0  0
   47.1410   34.8730   41.5490 C   0  0  0  0  0  0  0  0  0  0  0  0
   48.3070   34.4810   40.8510 C   0  0  0  0  0  0  0  0  0  0  0  0
   48.1360   33.6780   39.7530 N   0  0  0  0  0  0  0  0  0  0  0  0
   46.9060   33.2760   39.3510 C   0  0  0  0  0  0  0  0  0  0  0  0
   45.8200   33.6590   40.0250 N   0  0  0  0  0  0  0  0  0  0  0  0
   46.7160   32.4190   38.1810 C   0  0  0  0  0  0  0  0  0  0  0  0
   46.7630   31.0690   38.0100 N   0  0  0  0  0  0  0  0  0  0  0  0
   46.5210   30.7900   36.7580 O   0  0  0  0  0  0  0  0  0  0  0  0
   46.3130   31.8890   36.0760 C   0  0  0  0  0  0  0  0  0  0  0  0
   46.4310   32.9190   36.9500 N   0  0  0  0  0  0  0  0  0  0  0  0
   46.0040   32.0950   34.6410 C   0  0  0  0  0  0  0  0  0  0  0  0
   44.8680   31.1960   34.1600 C   0  0  0  0  0  0  0  0  0  0  0  0
   47.2260   31.9800   33.7820 C   0  0  0  0  0  0  0  0  0  0  0  0
   44.7420   34.8530   41.8290 C   0  0  0  0  0  0  0  0  0  0  0  0
   43.8770   35.6070   41.2520 O   0  0  0  0  0  0  0  0  0  0  0  0
   44.5710   34.4350   43.1560 O   0  0  0  0  0  0  0  0  0  0  0  0
   45.0460   35.2480   44.1900 C   0  0  0  0  0  0  0  0  0  0  0  0
   44.1090   35.3790   45.2200 F   0  0  0  0  0  0  0  0  0  0  0  0
   46.1910   34.7120   44.7170 F   0  0  0  0  0  0  0  0  0  0  0  0
   45.2770   36.4970   43.6340 F   0  0  0  0  0  0  0  0  0  0  0  0
   47.2112   35.5162   42.4386 H   0  0  0  0  0  0  0  0  0  0  0  0
   49.3068   34.8060   41.1748 H   0  0  0  0  0  0  0  0  0  0  0  0
   45.6441   33.1294   34.5387 H   0  0  0  0  0  0  0  0  0  0  0  0
   44.3389   30.7773   35.0287 H   0  0  0  0  0  0  0  0  0  0  0  0
   44.1659   31.7857   33.5523 H   0  0  0  0  0  0  0  0  0  0  0  0
   45.2806   30.3772   33.5523 H   0  0  0  0  0  0  0  0  0  0  0  0
   48.1171   31.8961   34.4214 H   0  0  0  0  0  0  0  0  0  0  0  0
   47.1449   31.0855   33.1469 H   0  0  0  0  0  0  0  0  0  0  0  0
   47.3132   32.8739   33.1469 H   0  0  0  0  0  0  0  0  0  0  0  0
  1  2  2  0
  1 15  1  0
  3  2  1  0
  4  3  2  0
  5  4  1  0
  5  6  2  0
  6  1  1  0
  7  5  1  0
  8  7  2  0
  9  8  1  0
 10  9  1  0
 10 11  2  0
 11  7  1  0
 12 10  1  0
 13 12  1  0
 14 12  1  0
 15 17  1  0
 16 15  2  0
 17 18  1  0
 18 20  1  0
 18 19  1  0
 21 18  1  0
  2 22  1  0
  3 23  1  0
 12 24  1  0
 13 25  1  0
 13 26  1  0
 13 27  1  0
 14 28  1  0
 14 29  1  0
 14 30  1  0
M  ISO  8  22  14  23  14  24   8  25   8  26   8  27   8  28   8  29   8
M  ISO  1  30   8
M  END
>  <minimizedAffinity>  (1) 
-4.38883305

>  <minimizedRMSD>  (1) 
0.684841633

$$$$
