
     RDKit          3D

 22 24  0  0  0  0  0  0  0  0999 V2000
   46.5220   32.3800   42.9140 S   0  0  0  0  0  0  0  0  0  0  0  0
   44.4890   35.2980   46.3900 N   0  0  0  0  0  0  0  0  0  0  0  0
   44.4760   35.8450   45.1430 C   0  0  0  0  0  0  0  0  0  0  0  0
   45.0550   34.9590   44.2830 N   0  0  0  0  0  0  0  0  0  0  0  0
   45.4300   33.8720   44.9610 C   0  0  0  0  0  0  0  0  0  0  0  0
   46.0490   32.6850   44.6180 C   0  0  0  0  0  0  0  0  0  0  0  0
   46.2640   31.8080   45.6160 N   0  0  0  0  0  0  0  0  0  0  0  0
   45.9230   32.0090   46.8900 C   0  0  0  0  0  0  0  0  0  0  0  0
   45.3240   33.1650   47.2060 N   0  0  0  0  0  0  0  0  0  0  0  0
   45.0780   34.0800   46.2760 C   0  0  0  0  0  0  0  0  0  0  0  0
   50.0800   34.3110   42.5380 C   0  0  0  0  0  0  0  0  0  0  0  0
   49.1410   33.3250   42.8850 C   0  0  0  0  0  0  0  0  0  0  0  0
   47.8170   33.5550   42.5320 C   0  0  0  0  0  0  0  0  0  0  0  0
   47.4940   34.7170   41.8700 N   0  0  0  0  0  0  0  0  0  0  0  0
   48.4340   35.6360   41.5590 C   0  0  0  0  0  0  0  0  0  0  0  0
   49.7220   35.4350   41.8910 N   0  0  0  0  0  0  0  0  0  0  0  0
   44.1229   35.7255   47.2526 H   0  0  0  0  0  0  0  0  0  0  0  0
   44.0688   36.8312   44.8755 H   0  0  0  0  0  0  0  0  0  0  0  0
   46.1275   31.2485   47.6580 H   0  0  0  0  0  0  0  0  0  0  0  0
   51.1369   34.1598   42.8026 H   0  0  0  0  0  0  0  0  0  0  0  0
   49.4417   32.4088   43.4143 H   0  0  0  0  0  0  0  0  0  0  0  0
   48.1439   36.5559   41.0301 H   0  0  0  0  0  0  0  0  0  0  0  0
  1  6  1  0
  3  2  1  0
  4  5  1  0
  4  3  2  0
  5 10  2  0
  6  5  1  0
  6  7  2  0
  7  8  1  0
  8  9  2  0
 10  2  1  0
 10  9  1  0
 11 12  2  0
 13 12  1  0
 13  1  1  0
 14 13  2  0
 15 14  1  0
 15 16  2  0
 16 11  1  0
  2 17  1  0
  3 18  1  0
  8 19  1  0
 11 20  1  0
 12 21  1  0
 15 22  1  0
M  ISO  6  17   9  18  14  19  14  20  14  21  14  22  14
M  END
>  <minimizedAffinity>  (1) 
-4.80717468

>  <minimizedRMSD>  (1) 
6.17513704

$$$$
