
     RDKit          3D

 21 22  0  0  0  0  0  0  0  0999 V2000
   46.5300   34.4490   41.4660 S   0  0  0  0  0  0  0  0  0  0  0  0
   44.5270   36.1290   44.5790 C   0  0  0  0  0  0  0  0  0  0  0  0
   45.0740   35.9410   43.2950 C   0  0  0  0  0  0  0  0  0  0  0  0
   45.8010   34.7730   43.0600 C   0  0  0  0  0  0  0  0  0  0  0  0
   45.9460   33.8680   44.0860 N   0  0  0  0  0  0  0  0  0  0  0  0
   45.4070   34.0870   45.2980 C   0  0  0  0  0  0  0  0  0  0  0  0
   44.7080   35.1960   45.5480 N   0  0  0  0  0  0  0  0  0  0  0  0
   48.2430   33.9560   41.7510 C   0  0  0  0  0  0  0  0  0  0  0  0
   49.1010   34.8560   42.3940 C   0  0  0  0  0  0  0  0  0  0  0  0
   50.4100   34.4500   42.5990 C   0  0  0  0  0  0  0  0  0  0  0  0
   50.9130   33.2230   42.2100 C   0  0  0  0  0  0  0  0  0  0  0  0
   50.0410   32.3460   41.5720 C   0  0  0  0  0  0  0  0  0  0  0  0
   48.7330   32.7280   41.3570 C   0  0  0  0  0  0  0  0  0  0  0  0
   43.9488   37.0387   44.7982 H   0  0  0  0  0  0  0  0  0  0  0  0
   44.9328   36.6908   42.5026 H   0  0  0  0  0  0  0  0  0  0  0  0
   45.5441   33.3414   46.0950 H   0  0  0  0  0  0  0  0  0  0  0  0
   48.7504   35.8453   42.7232 H   0  0  0  0  0  0  0  0  0  0  0  0
   51.0926   35.1494   43.1038 H   0  0  0  0  0  0  0  0  0  0  0  0
   51.9620   32.9502   42.3974 H   0  0  0  0  0  0  0  0  0  0  0  0
   50.3916   31.3569   41.2421 H   0  0  0  0  0  0  0  0  0  0  0  0
   48.0539   32.0257   40.8514 H   0  0  0  0  0  0  0  0  0  0  0  0
  1  8  1  0
  1  4  1  0
  2  7  2  0
  3  2  1  0
  4  3  2  0
  4  5  1  0
  5  6  2  0
  6  7  1  0
  8  9  2  0
  9 10  1  0
 11 10  2  0
 12 11  1  0
 13 12  2  0
 13  8  1  0
  2 14  1  0
  3 15  1  0
  6 16  1  0
  9 17  1  0
 10 18  1  0
 11 19  1  0
 12 20  1  0
 13 21  1  0
M  ISO  8  14  14  15  14  16  14  17  14  18  14  19  14  20  14  21  14
M  END
>  <minimizedAffinity>  (1) 
-4.50492144

>  <minimizedRMSD>  (1) 
1.85349298

$$$$
