
     RDKit          3D

 23 24  0  0  1  0  0  0  0  0999 V2000
   44.6680   36.0760   44.2270 C   0  0  0  0  0  0  0  0  0  0  0  0
   45.1780   35.4420   43.0820 C   0  0  0  0  0  0  0  0  0  0  0  0
   45.6800   34.1600   43.2570 C   0  0  0  0  0  0  0  0  0  0  0  0
   45.6570   33.5810   44.5090 N   0  0  0  0  0  0  0  0  0  0  0  0
   45.1540   34.2400   45.5750 C   0  0  0  0  0  0  0  0  0  0  0  0
   44.6550   35.4940   45.4380 N   0  0  0  0  0  0  0  0  0  0  0  0
   46.3650   33.2210   41.8860 S   0  0  0  0  0  0  0  0  0  0  0  0
   48.1730   34.9690   40.8600 N   0  0  0  0  0  0  0  0  0  0  0  0
   49.0390   35.8940   41.5410 C   0  0  0  0  0  0  0  0  0  0  0  0
   49.8670   34.9860   42.4250 C   0  0  0  0  0  0  0  0  0  0  0  0
   48.7450   34.0960   42.9850 C   0  0  0  0  0  0  0  0  0  0  0  0
   48.0520   33.7750   41.6560 C   0  0  1  0  0  0  0  0  0  0  0  0
   44.2615   37.0933   44.1279 H   0  0  0  0  0  0  0  0  0  0  0  0
   45.1794   35.9354   42.0989 H   0  0  0  0  0  0  0  0  0  0  0  0
   45.1489   33.7559   46.5627 H   0  0  0  0  0  0  0  0  0  0  0  0
   47.2441   35.3950   40.7313 H   0  0  0  0  0  0  0  0  0  0  0  0
   49.6742   36.4407   40.8285 H   0  0  0  0  0  0  0  0  0  0  0  0
   48.4955   36.6700   42.0999 H   0  0  0  0  0  0  0  0  0  0  0  0
   50.6016   34.4067   41.8464 H   0  0  0  0  0  0  0  0  0  0  0  0
   50.4829   35.4974   43.1794 H   0  0  0  0  0  0  0  0  0  0  0  0
   49.1350   33.1949   43.4809 H   0  0  0  0  0  0  0  0  0  0  0  0
   48.1131   34.5457   43.7651 H   0  0  0  0  0  0  0  0  0  0  0  0
   48.5248   32.9261   41.1405 H   0  0  0  0  0  0  0  0  0  0  0  0
  1  6  2  0
  2  3  2  0
  2  1  1  0
  3  4  1  0
  4  5  2  0
  6  5  1  0
  7  3  1  0
  8  9  1  0
  8 12  1  0
  9 10  1  0
 10 11  1  0
 12  7  1  0
 12 11  1  0
  1 13  1  0
  2 14  1  0
  5 15  1  0
  8 16  1  0
  9 17  1  0
  9 18  1  0
 10 19  1  0
 10 20  1  0
 11 21  1  0
 11 22  1  0
 12 23  1  6
M  ISO  8  13  14  14  14  15  14  16   5  17  13  18  13  19  13  20  13
M  ISO  3  21  13  22  13  23  13
M  END
>  <minimizedAffinity>  (1) 
-4.16546488

>  <minimizedRMSD>  (1) 
1.27150631

$$$$
