
     RDKit          3D

 17 17  0  0  0  0  0  0  0  0999 V2000
   44.6150   36.0230   44.3690 C   0  0  0  0  0  0  0  0  0  0  0  0
   45.3370   35.9190   43.1660 C   0  0  0  0  0  0  0  0  0  0  0  0
   46.2130   34.8400   43.0410 C   0  0  0  0  0  0  0  0  0  0  0  0
   46.3110   33.9520   44.1020 N   0  0  0  0  0  0  0  0  0  0  0  0
   45.6020   34.0960   45.2220 C   0  0  0  0  0  0  0  0  0  0  0  0
   44.7500   35.1340   45.3610 N   0  0  0  0  0  0  0  0  0  0  0  0
   47.1840   34.5970   41.5690 S   0  0  0  0  0  0  0  0  0  0  0  0
   48.7130   35.5290   41.5350 C   0  0  0  0  0  0  0  0  0  0  0  0
   49.7580   35.0330   42.4940 C   0  0  0  0  0  0  0  0  0  0  0  0
   43.9163   36.8626   44.4989 H   0  0  0  0  0  0  0  0  0  0  0  0
   45.2162   36.6564   42.3588 H   0  0  0  0  0  0  0  0  0  0  0  0
   45.7118   33.3653   46.0369 H   0  0  0  0  0  0  0  0  0  0  0  0
   49.1264   35.4767   40.5170 H   0  0  0  0  0  0  0  0  0  0  0  0
   48.4643   36.5557   41.8417 H   0  0  0  0  0  0  0  0  0  0  0  0
   49.4150   35.1958   43.5264 H   0  0  0  0  0  0  0  0  0  0  0  0
   49.9269   33.9587   42.3288 H   0  0  0  0  0  0  0  0  0  0  0  0
   50.6971   35.5814   42.3288 H   0  0  0  0  0  0  0  0  0  0  0  0
  1  6  2  0
  2  1  1  0
  3  2  2  0
  3  4  1  0
  4  5  2  0
  5  6  1  0
  7  3  1  0
  8  7  1  0
  8  9  1  0
  1 10  1  0
  2 11  1  0
  5 12  1  0
  8 13  1  0
  8 14  1  0
  9 15  1  0
  9 16  1  0
  9 17  1  0
M  ISO  8  10  14  11  14  12  14  13   8  14   8  15   8  16   8  17   8
M  END
>  <minimizedAffinity>  (1) 
-3.61726618

>  <minimizedRMSD>  (1) 
0.362280279

$$$$
