
     RDKit          3D

 24 25  0  0  0  0  0  0  0  0999 V2000
   44.6350   36.0750   44.2470 C   0  0  0  0  0  0  0  0  0  0  0  0
   45.5080   35.6970   43.2130 C   0  0  0  0  0  0  0  0  0  0  0  0
   46.2910   34.5520   43.4300 C   0  0  0  0  0  0  0  0  0  0  0  0
   46.1670   33.8650   44.6280 N   0  0  0  0  0  0  0  0  0  0  0  0
   45.3150   34.2790   45.5740 C   0  0  0  0  0  0  0  0  0  0  0  0
   44.5490   35.3700   45.4040 N   0  0  0  0  0  0  0  0  0  0  0  0
   47.4370   33.9840   42.1740 S   0  0  0  0  0  0  0  0  0  0  0  0
   48.8980   33.2340   42.9090 C   0  0  0  0  0  0  0  0  0  0  0  0
   48.6940   31.7260   42.8930 C   0  0  0  0  0  0  0  0  0  0  0  0
   49.5690   31.1550   41.8290 C   0  0  0  0  0  0  0  0  0  0  0  0
   50.0660   32.3470   41.0560 C   0  0  0  0  0  0  0  0  0  0  0  0
   50.1350   33.4820   42.0720 C   0  0  0  0  0  0  0  0  0  0  0  0
   44.0041   36.9664   44.1155 H   0  0  0  0  0  0  0  0  0  0  0  0
   45.5749   36.2713   42.2772 H   0  0  0  0  0  0  0  0  0  0  0  0
   45.2401   33.7121   46.5137 H   0  0  0  0  0  0  0  0  0  0  0  0
   49.0315   33.6586   43.9149 H   0  0  0  0  0  0  0  0  0  0  0  0
   48.9685   31.3016   43.8700 H   0  0  0  0  0  0  0  0  0  0  0  0
   47.6398   31.4846   42.6918 H   0  0  0  0  0  0  0  0  0  0  0  0
   50.4106   30.6040   42.2742 H   0  0  0  0  0  0  0  0  0  0  0  0
   49.0304   30.4411   41.1885 H   0  0  0  0  0  0  0  0  0  0  0  0
   51.0619   32.1455   40.6345 H   0  0  0  0  0  0  0  0  0  0  0  0
   49.4072   32.5921   40.2099 H   0  0  0  0  0  0  0  0  0  0  0  0
   51.0487   33.4177   42.6811 H   0  0  0  0  0  0  0  0  0  0  0  0
   50.1677   34.4826   41.6163 H   0  0  0  0  0  0  0  0  0  0  0  0
  1  6  2  0
  2  3  2  0
  2  1  1  0
  3  4  1  0
  4  5  2  0
  6  5  1  0
  7  8  1  0
  7  3  1  0
  9  8  1  0
 10  9  1  0
 11 10  1  0
 11 12  1  0
 12  8  1  0
  1 13  1  0
  2 14  1  0
  5 15  1  0
  8 16  1  0
  9 17  1  0
  9 18  1  0
 10 19  1  0
 10 20  1  0
 11 21  1  0
 11 22  1  0
 12 23  1  0
 12 24  1  0
M  ISO  8  13  14  14  14  15  14  16  13  17  13  18  13  19  13  20  13
M  ISO  4  21  13  22  13  23  13  24  13
M  END
>  <minimizedAffinity>  (1) 
-3.60282588

>  <minimizedRMSD>  (1) 
1.6783092

$$$$
