
     RDKit          3D

 14 14  0  0  0  0  0  0  0  0999 V2000
   44.5410   36.0200   44.5230 C   0  0  0  0  0  0  0  0  0  0  0  0
   45.2630   35.9020   43.3250 C   0  0  0  0  0  0  0  0  0  0  0  0
   46.1400   34.8200   43.2120 C   0  0  0  0  0  0  0  0  0  0  0  0
   46.2480   33.9330   44.2750 N   0  0  0  0  0  0  0  0  0  0  0  0
   45.5330   34.0990   45.3920 C   0  0  0  0  0  0  0  0  0  0  0  0
   44.6810   35.1310   45.5280 N   0  0  0  0  0  0  0  0  0  0  0  0
   47.1080   34.5710   41.7340 S   0  0  0  0  0  0  0  0  0  0  0  0
   46.0300   33.8380   40.4740 C   0  0  0  0  0  0  0  0  0  0  0  0
   43.8419   36.8604   44.6457 H   0  0  0  0  0  0  0  0  0  0  0  0
   45.1435   36.6305   42.5096 H   0  0  0  0  0  0  0  0  0  0  0  0
   45.6434   33.3782   46.2155 H   0  0  0  0  0  0  0  0  0  0  0  0
   45.2160   33.2845   40.9649 H   0  0  0  0  0  0  0  0  0  0  0  0
   45.6050   34.6351   39.8463 H   0  0  0  0  0  0  0  0  0  0  0  0
   46.6150   33.1497   39.8463 H   0  0  0  0  0  0  0  0  0  0  0  0
  1  6  2  0
  2  1  1  0
  3  2  2  0
  3  4  1  0
  4  5  2  0
  5  6  1  0
  7  3  1  0
  8  7  1  0
  1  9  1  0
  2 10  1  0
  5 11  1  0
  8 12  1  0
  8 13  1  0
  8 14  1  0
M  ISO  6   9  14  10  14  11  14  12   8  13   8  14   8
M  END
>  <minimizedAffinity>  (1) 
-3.01701069

>  <minimizedRMSD>  (1) 
0.245014668

$$$$
