
     RDKit          3D

 21 22  0  0  0  0  0  0  0  0999 V2000
   44.5550   36.1010   44.5840 C   0  0  0  0  0  0  0  0  0  0  0  0
   45.1340   35.9470   43.3100 C   0  0  0  0  0  0  0  0  0  0  0  0
   45.8920   34.7930   43.0580 C   0  0  0  0  0  0  0  0  0  0  0  0
   46.0240   33.8690   44.0810 N   0  0  0  0  0  0  0  0  0  0  0  0
   45.4550   34.0500   45.2840 C   0  0  0  0  0  0  0  0  0  0  0  0
   44.7240   35.1530   45.5480 N   0  0  0  0  0  0  0  0  0  0  0  0
   46.6580   34.5170   41.4790 S   0  0  0  0  0  0  0  0  0  0  0  0
   48.3010   33.9070   41.6980 C   0  0  0  0  0  0  0  0  0  0  0  0
   49.1890   34.7290   42.3950 C   0  0  0  0  0  0  0  0  0  0  0  0
   50.4860   34.3090   42.5980 C   0  0  0  0  0  0  0  0  0  0  0  0
   50.9370   33.0740   42.1220 C   0  0  0  0  0  0  0  0  0  0  0  0
   50.0520   32.2510   41.4270 C   0  0  0  0  0  0  0  0  0  0  0  0
   48.7620   32.6890   41.2330 C   0  0  0  0  0  0  0  0  0  0  0  0
   43.9583   36.9985   44.8041 H   0  0  0  0  0  0  0  0  0  0  0  0
   44.9958   36.7119   42.5317 H   0  0  0  0  0  0  0  0  0  0  0  0
   45.5869   33.2876   46.0659 H   0  0  0  0  0  0  0  0  0  0  0  0
   48.8559   35.7044   42.7792 H   0  0  0  0  0  0  0  0  0  0  0  0
   51.1821   34.9602   43.1470 H   0  0  0  0  0  0  0  0  0  0  0  0
   51.9760   32.7561   42.2936 H   0  0  0  0  0  0  0  0  0  0  0  0
   50.3777   31.2733   41.0423 H   0  0  0  0  0  0  0  0  0  0  0  0
   48.0651   32.0401   40.6824 H   0  0  0  0  0  0  0  0  0  0  0  0
  1  6  2  0
  2  1  1  0
  3  2  2  0
  3  4  1  0
  4  5  2  0
  5  6  1  0
  7  8  1  0
  7  3  1  0
  8  9  2  0
  9 10  1  0
 11 10  2  0
 12 11  1  0
 13 12  2  0
 13  8  1  0
  1 14  1  0
  2 15  1  0
  5 16  1  0
  9 17  1  0
 10 18  1  0
 11 19  1  0
 12 20  1  0
 13 21  1  0
M  ISO  8  14  14  15  14  16  14  17  14  18  14  19  14  20  14  21  14
M  END
>  <minimizedAffinity>  (1) 
-4.4930954

>  <minimizedRMSD>  (1) 
1.41588163

$$$$
