
     RDKit          3D

 35 38  0  0  0  0  0  0  0  0999 V2000
   48.3840   34.0670   41.7060 C   0  0  0  0  0  0  0  0  0  0  0  0
   49.3670   34.7450   42.4470 C   0  0  0  0  0  0  0  0  0  0  0  0
   50.6160   34.1720   42.5980 C   0  0  0  0  0  0  0  0  0  0  0  0
   50.9150   32.9270   42.0260 C   0  0  0  0  0  0  0  0  0  0  0  0
   49.9410   32.2570   41.2930 C   0  0  0  0  0  0  0  0  0  0  0  0
   48.7120   32.8390   41.1530 C   0  0  0  0  0  0  0  0  0  0  0  0
   47.6140   32.2780   40.4340 N   0  0  0  0  0  0  0  0  0  0  0  0
   46.5490   31.5670   40.8810 C   0  0  0  0  0  0  0  0  0  0  0  0
   45.7750   31.2520   39.8180 N   0  0  0  0  0  0  0  0  0  0  0  0
   46.3310   31.7540   38.6960 C   0  0  0  0  0  0  0  0  0  0  0  0
   45.9490   31.7150   37.3730 C   0  0  0  0  0  0  0  0  0  0  0  0
   44.8970   31.1290   37.0270 O   0  0  0  0  0  0  0  0  0  0  0  0
   46.6850   32.3020   36.4170 N   0  0  0  0  0  0  0  0  0  0  0  0
   47.8090   32.9180   36.8650 C   0  0  0  0  0  0  0  0  0  0  0  0
   48.6710   33.5770   35.9350 N   0  0  0  0  0  0  0  0  0  0  0  0
   48.2460   32.9980   38.1350 N   0  0  0  0  0  0  0  0  0  0  0  0
   47.4940   32.4010   39.0960 C   0  0  0  0  0  0  0  0  0  0  0  0
   46.8170   34.8760   41.5650 S   0  0  0  0  0  0  0  0  0  0  0  0
   44.5160   35.9350   44.7430 C   0  0  0  0  0  0  0  0  0  0  0  0
   45.1230   35.9590   43.4620 C   0  0  0  0  0  0  0  0  0  0  0  0
   46.0160   34.9130   43.1510 C   0  0  0  0  0  0  0  0  0  0  0  0
   46.2360   33.9440   44.1020 N   0  0  0  0  0  0  0  0  0  0  0  0
   45.6390   33.9620   45.2990 C   0  0  0  0  0  0  0  0  0  0  0  0
   44.7850   34.9440   45.6280 N   0  0  0  0  0  0  0  0  0  0  0  0
   49.1449   35.7215   42.9021 H   0  0  0  0  0  0  0  0  0  0  0  0
   51.3878   34.7012   43.1762 H   0  0  0  0  0  0  0  0  0  0  0  0
   51.9131   32.4832   42.1561 H   0  0  0  0  0  0  0  0  0  0  0  0
   50.1551   31.2797   40.8358 H   0  0  0  0  0  0  0  0  0  0  0  0
   46.3494   31.2938   41.9277 H   0  0  0  0  0  0  0  0  0  0  0  0
   46.4185   32.2866   35.4222 H   0  0  0  0  0  0  0  0  0  0  0  0
   49.5253   34.0463   36.2680 H   0  0  0  0  0  0  0  0  0  0  0  0
   48.4380   33.5827   34.9317 H   0  0  0  0  0  0  0  0  0  0  0  0
   43.8145   36.7345   45.0237 H   0  0  0  0  0  0  0  0  0  0  0  0
   44.9063   36.7605   42.7405 H   0  0  0  0  0  0  0  0  0  0  0  0
   45.8507   33.1616   46.0232 H   0  0  0  0  0  0  0  0  0  0  0  0
  1  2  2  0
  2  3  1  0
  4  3  2  0
  5  4  1  0
  6  5  2  0
  6  1  1  0
  7  8  1  0
  7  6  1  0
  9  8  2  0
 10 17  2  0
 10  9  1  0
 11 10  1  0
 12 11  2  0
 13 14  1  0
 13 11  1  0
 14 16  2  0
 15 14  1  0
 16 17  1  0
 17  7  1  0
 18  1  1  0
 18 21  1  0
 19 24  2  0
 20 19  1  0
 21 20  2  0
 21 22  1  0
 22 23  2  0
 23 24  1  0
  2 25  1  0
  3 26  1  0
  4 27  1  0
  5 28  1  0
  8 29  1  0
 13 30  1  0
 15 31  1  0
 15 32  1  0
 19 33  1  0
 20 34  1  0
 23 35  1  0
M  ISO  8  25  14  26  14  27  14  28  14  29  14  30   9  33  14  34  14
M  ISO  1  35  14
M  END
>  <minimizedAffinity>  (1) 
-5.77377939

>  <minimizedRMSD>  (1) 
1.89327216

$$$$
