
     RDKit          3D

 34 36  0  0  0  0  0  0  0  0999 V2000
   48.6470   34.0520   41.6210 C   0  0  0  0  0  0  0  0  0  0  0  0
   49.7130   34.2510   42.4820 C   0  0  0  0  0  0  0  0  0  0  0  0
   50.8130   33.4110   42.3970 C   0  0  0  0  0  0  0  0  0  0  0  0
   50.8800   32.3760   41.4710 C   0  0  0  0  0  0  0  0  0  0  0  0
   49.7980   32.1790   40.6030 C   0  0  0  0  0  0  0  0  0  0  0  0
   48.7040   33.0170   40.6910 C   0  0  0  0  0  0  0  0  0  0  0  0
   47.5660   32.8950   39.8540 N   0  0  0  0  0  0  0  0  0  0  0  0
   46.5210   32.0900   40.0990 C   0  0  0  0  0  0  0  0  0  0  0  0
   45.4200   31.9820   39.2730 C   0  0  0  0  0  0  0  0  0  0  0  0
   44.2870   31.0970   39.5570 C   0  0  0  0  0  0  0  0  0  0  0  0
   45.4870   32.7940   38.1410 C   0  0  0  0  0  0  0  0  0  0  0  0
   44.5100   32.7490   37.3350 O   0  0  0  0  0  0  0  0  0  0  0  0
   46.5180   33.6140   37.8600 N   0  0  0  0  0  0  0  0  0  0  0  0
   47.5230   33.6270   38.7400 C   0  0  0  0  0  0  0  0  0  0  0  0
   48.4820   34.4140   38.4430 O   0  0  0  0  0  0  0  0  0  0  0  0
   47.2790   35.1680   41.7950 S   0  0  0  0  0  0  0  0  0  0  0  0
   44.6780   35.3090   44.9250 C   0  0  0  0  0  0  0  0  0  0  0  0
   45.3250   35.6180   43.7190 C   0  0  0  0  0  0  0  0  0  0  0  0
   46.4150   34.8370   43.3020 C   0  0  0  0  0  0  0  0  0  0  0  0
   46.7850   33.8000   44.1250 N   0  0  0  0  0  0  0  0  0  0  0  0
   46.1550   33.5160   45.2790 C   0  0  0  0  0  0  0  0  0  0  0  0
   45.1090   34.2630   45.6790 N   0  0  0  0  0  0  0  0  0  0  0  0
   49.6876   35.0638   43.2228 H   0  0  0  0  0  0  0  0  0  0  0  0
   51.6583   33.5683   43.0831 H   0  0  0  0  0  0  0  0  0  0  0  0
   51.7650   31.7247   41.4209 H   0  0  0  0  0  0  0  0  0  0  0  0
   49.8197   31.3673   39.8610 H   0  0  0  0  0  0  0  0  0  0  0  0
   46.5428   31.4790   41.0134 H   0  0  0  0  0  0  0  0  0  0  0  0
   44.1619   30.9993   40.6455 H   0  0  0  0  0  0  0  0  0  0  0  0
   43.3714   31.5215   39.1193 H   0  0  0  0  0  0  0  0  0  0  0  0
   44.4772   30.1059   39.1193 H   0  0  0  0  0  0  0  0  0  0  0  0
   46.5308   34.1993   37.0126 H   0  0  0  0  0  0  0  0  0  0  0  0
   43.8221   35.9130   45.2605 H   0  0  0  0  0  0  0  0  0  0  0  0
   44.9816   36.4642   43.1058 H   0  0  0  0  0  0  0  0  0  0  0  0
   46.4951   32.6719   45.8969 H   0  0  0  0  0  0  0  0  0  0  0  0
  1 16  1  0
  1  2  2  0
  3  2  1  0
  4  3  2  0
  5  6  2  0
  5  4  1  0
  6  1  1  0
  7  8  1  0
  7  6  1  0
  9 10  1  0
  9  8  2  0
 11  9  1  0
 12 11  2  0
 13 11  1  0
 13 14  1  0
 14  7  1  0
 15 14  2  0
 16 19  1  0
 17 22  2  0
 18 17  1  0
 19 18  2  0
 19 20  1  0
 20 21  2  0
 21 22  1  0
  2 23  1  0
  3 24  1  0
  4 25  1  0
  5 26  1  0
  8 27  1  0
 10 28  1  0
 10 29  1  0
 10 30  1  0
 13 31  1  0
 17 32  1  0
 18 33  1  0
 21 34  1  0
M  ISO  8  23  14  24  14  25  14  26  14  27  14  28   8  29   8  30   8
M  ISO  4  31   9  32  14  33  14  34  14
M  END
>  <minimizedAffinity>  (1) 
-5.38170481

>  <minimizedRMSD>  (1) 
1.74714816

$$$$
