
     RDKit          3D

 31 33  0  0  0  0  0  0  0  0999 V2000
   48.8390   34.0100   41.5210 C   0  0  0  0  0  0  0  0  0  0  0  0
   49.9250   34.1250   42.3950 C   0  0  0  0  0  0  0  0  0  0  0  0
   50.9580   33.2110   42.3130 C   0  0  0  0  0  0  0  0  0  0  0  0
   50.9440   32.1650   41.3710 C   0  0  0  0  0  0  0  0  0  0  0  0
   49.8540   32.0560   40.5020 C   0  0  0  0  0  0  0  0  0  0  0  0
   48.8310   32.9730   40.5930 C   0  0  0  0  0  0  0  0  0  0  0  0
   47.6560   33.0010   39.7860 N   0  0  0  0  0  0  0  0  0  0  0  0
   46.6630   32.2430   40.3070 C   0  0  0  0  0  0  0  0  0  0  0  0
   45.4430   32.1420   39.6700 C   0  0  0  0  0  0  0  0  0  0  0  0
   45.2900   32.8480   38.4840 C   0  0  0  0  0  0  0  0  0  0  0  0
   44.2030   32.7880   37.8670 O   0  0  0  0  0  0  0  0  0  0  0  0
   46.2940   33.5920   37.9890 N   0  0  0  0  0  0  0  0  0  0  0  0
   47.4730   33.6710   38.6340 C   0  0  0  0  0  0  0  0  0  0  0  0
   48.4630   34.3400   38.2500 O   0  0  0  0  0  0  0  0  0  0  0  0
   47.5720   35.2250   41.7070 S   0  0  0  0  0  0  0  0  0  0  0  0
   44.7250   35.3110   44.6110 C   0  0  0  0  0  0  0  0  0  0  0  0
   45.4610   35.6410   43.4590 C   0  0  0  0  0  0  0  0  0  0  0  0
   46.5910   34.8690   43.1480 C   0  0  0  0  0  0  0  0  0  0  0  0
   46.9100   33.8290   43.9960 N   0  0  0  0  0  0  0  0  0  0  0  0
   46.1840   33.5390   45.0920 C   0  0  0  0  0  0  0  0  0  0  0  0
   45.1040   34.2710   45.3960 N   0  0  0  0  0  0  0  0  0  0  0  0
   49.9563   34.9342   43.1395 H   0  0  0  0  0  0  0  0  0  0  0  0
   51.8119   33.3029   43.0004 H   0  0  0  0  0  0  0  0  0  0  0  0
   51.7754   31.4465   41.3195 H   0  0  0  0  0  0  0  0  0  0  0  0
   49.8144   31.2487   39.7559 H   0  0  0  0  0  0  0  0  0  0  0  0
   46.8305   31.7010   41.2494 H   0  0  0  0  0  0  0  0  0  0  0  0
   44.6281   31.5296   40.0833 H   0  0  0  0  0  0  0  0  0  0  0  0
   46.1599   34.1070   37.1071 H   0  0  0  0  0  0  0  0  0  0  0  0
   43.8354   35.9004   44.8778 H   0  0  0  0  0  0  0  0  0  0  0  0
   45.1588   36.4825   42.8182 H   0  0  0  0  0  0  0  0  0  0  0  0
   46.4781   32.6995   45.7391 H   0  0  0  0  0  0  0  0  0  0  0  0
  1 15  1  0
  1  2  2  0
  3  2  1  0
  4  3  2  0
  5  6  2  0
  5  4  1  0
  6  1  1  0
  7  8  1  0
  7  6  1  0
  9  8  2  0
 10  9  1  0
 11 10  2  0
 12 10  1  0
 12 13  1  0
 13  7  1  0
 14 13  2  0
 15 18  1  0
 16 21  2  0
 17 16  1  0
 18 17  2  0
 18 19  1  0
 19 20  2  0
 20 21  1  0
  2 22  1  0
  3 23  1  0
  4 24  1  0
  5 25  1  0
  8 26  1  0
  9 27  1  0
 12 28  1  0
 16 29  1  0
 17 30  1  0
 20 31  1  0
M  ISO  8  22  14  23  14  24  14  25  14  26  14  27  14  28   9  29  14
M  ISO  2  30  14  31  14
M  END
>  <minimizedAffinity>  (1) 
-5.26419258

>  <minimizedRMSD>  (1) 
1.69264042

$$$$
