
     RDKit          3D

 37 39  0  0  0  0  0  0  0  0999 V2000
   48.8550   34.0050   41.4800 C   0  0  0  0  0  0  0  0  0  0  0  0
   49.8400   34.1880   42.4490 C   0  0  0  0  0  0  0  0  0  0  0  0
   50.9080   33.3300   42.4910 C   0  0  0  0  0  0  0  0  0  0  0  0
   51.0410   32.2760   41.5910 C   0  0  0  0  0  0  0  0  0  0  0  0
   50.0550   32.1030   40.6290 C   0  0  0  0  0  0  0  0  0  0  0  0
   48.9860   32.9510   40.5770 C   0  0  0  0  0  0  0  0  0  0  0  0
   47.9030   32.8130   39.5720 C   0  0  0  0  0  0  0  0  0  0  0  0
   47.9020   34.0020   38.6120 C   0  0  0  0  0  0  0  0  0  0  0  0
   47.1620   33.5580   37.3720 C   0  0  0  0  0  0  0  0  0  0  0  0
   45.9400   32.7850   37.7260 C   0  0  0  0  0  0  0  0  0  0  0  0
   45.4910   32.9330   39.1390 C   0  0  0  0  0  0  0  0  0  0  0  0
   46.5480   32.5760   40.1540 C   0  0  0  0  0  0  0  0  0  0  0  0
   47.5000   35.1540   41.4870 S   0  0  0  0  0  0  0  0  0  0  0  0
   44.7140   35.5730   44.4110 C   0  0  0  0  0  0  0  0  0  0  0  0
   45.4500   35.8080   43.2280 C   0  0  0  0  0  0  0  0  0  0  0  0
   46.5220   34.9390   42.9460 C   0  0  0  0  0  0  0  0  0  0  0  0
   46.7920   33.9180   43.8270 N   0  0  0  0  0  0  0  0  0  0  0  0
   46.0640   33.7280   44.9480 C   0  0  0  0  0  0  0  0  0  0  0  0
   45.0310   34.5440   45.2470 N   0  0  0  0  0  0  0  0  0  0  0  0
   49.7610   35.0126   43.1727 H   0  0  0  0  0  0  0  0  0  0  0  0
   51.6825   33.4784   43.2579 H   0  0  0  0  0  0  0  0  0  0  0  0
   51.9054   31.5975   41.6409 H   0  0  0  0  0  0  0  0  0  0  0  0
   50.1354   31.2787   39.9051 H   0  0  0  0  0  0  0  0  0  0  0  0
   48.1319   31.8969   39.0078 H   0  0  0  0  0  0  0  0  0  0  0  0
   47.3903   34.8602   39.0720 H   0  0  0  0  0  0  0  0  0  0  0  0
   48.9281   34.3157   38.3695 H   0  0  0  0  0  0  0  0  0  0  0  0
   47.8252   32.9239   36.7654 H   0  0  0  0  0  0  0  0  0  0  0  0
   46.8590   34.4517   36.8068 H   0  0  0  0  0  0  0  0  0  0  0  0
   45.1223   33.1198   37.0708 H   0  0  0  0  0  0  0  0  0  0  0  0
   46.1974   31.7237   37.5938 H   0  0  0  0  0  0  0  0  0  0  0  0
   45.1943   33.9798   39.3008 H   0  0  0  0  0  0  0  0  0  0  0  0
   44.6564   32.2315   39.2852 H   0  0  0  0  0  0  0  0  0  0  0  0
   46.4481   31.5156   40.4288 H   0  0  0  0  0  0  0  0  0  0  0  0
   46.4207   33.2024   41.0492 H   0  0  0  0  0  0  0  0  0  0  0  0
   43.8700   36.2323   44.6619 H   0  0  0  0  0  0  0  0  0  0  0  0
   45.1954   36.6382   42.5528 H   0  0  0  0  0  0  0  0  0  0  0  0
   46.3155   32.8987   45.6255 H   0  0  0  0  0  0  0  0  0  0  0  0
  1 13  1  0
  1  2  2  0
  2  3  1  0
  4  3  2  0
  5  4  1  0
  6  5  2  0
  6  1  1  0
  7 12  1  0
  7  6  1  0
  8  7  1  0
  9 10  1  0
  9  8  1  0
 10 11  1  0
 11 12  1  0
 13 16  1  0
 14 19  2  0
 15 14  1  0
 16 15  2  0
 16 17  1  0
 17 18  2  0
 18 19  1  0
  2 20  1  0
  3 21  1  0
  4 22  1  0
  5 23  1  0
  7 24  1  0
  8 25  1  0
  8 26  1  0
  9 27  1  0
  9 28  1  0
 10 29  1  0
 10 30  1  0
 11 31  1  0
 11 32  1  0
 12 33  1  0
 12 34  1  0
 14 35  1  0
 15 36  1  0
 18 37  1  0
M  ISO  8  20  14  21  14  22  14  23  14  24  13  25  13  26  13  27  13
M  ISO  8  28  13  29  13  30  13  31  13  32  13  33  13  34  13  35  14
M  ISO  2  36  14  37  14
M  END
>  <minimizedAffinity>  (1) 
-5.06490898

>  <minimizedRMSD>  (1) 
1.66070807

$$$$
