
     RDKit          3D

 34 36  0  0  0  0  0  0  0  0999 V2000
   48.5640   33.9920   41.4790 C   0  0  0  0  0  0  0  0  0  0  0  0
   49.4430   34.2590   42.5150 C   0  0  0  0  0  0  0  0  0  0  0  0
   50.6050   33.5350   42.6210 C   0  0  0  0  0  0  0  0  0  0  0  0
   50.9260   32.5290   41.7070 C   0  0  0  0  0  0  0  0  0  0  0  0
   50.0420   32.2560   40.6600 C   0  0  0  0  0  0  0  0  0  0  0  0
   48.8750   32.9940   40.5670 C   0  0  0  0  0  0  0  0  0  0  0  0
   46.0930   32.0380   37.4980 C   0  0  0  0  0  0  0  0  0  0  0  0
   46.1320   31.3210   38.6700 C   0  0  0  0  0  0  0  0  0  0  0  0
   47.0630   31.6710   39.6510 C   0  0  0  0  0  0  0  0  0  0  0  0
   47.9450   32.7150   39.4770 C   0  0  0  0  0  0  0  0  0  0  0  0
   47.8770   33.4130   38.2880 C   0  0  0  0  0  0  0  0  0  0  0  0
   46.9670   33.0880   37.3020 C   0  0  0  0  0  0  0  0  0  0  0  0
   44.9790   31.7100   36.1820 S   0  0  0  0  0  0  0  0  0  0  0  0
   45.0370   30.2460   35.8130 O   0  0  0  0  0  0  0  0  0  0  0  0
   45.3920   32.4630   34.9480 O   0  0  0  0  0  0  0  0  0  0  0  0
   47.0900   34.9570   41.4000 S   0  0  0  0  0  0  0  0  0  0  0  0
   44.6600   35.7590   44.5740 C   0  0  0  0  0  0  0  0  0  0  0  0
   45.2970   35.8640   43.3340 C   0  0  0  0  0  0  0  0  0  0  0  0
   46.2330   34.8950   42.9640 C   0  0  0  0  0  0  0  0  0  0  0  0
   46.4760   33.8740   43.8610 N   0  0  0  0  0  0  0  0  0  0  0  0
   45.8490   33.7950   45.0490 C   0  0  0  0  0  0  0  0  0  0  0  0
   44.9500   34.7270   45.4040 N   0  0  0  0  0  0  0  0  0  0  0  0
   49.2120   35.0458   43.2482 H   0  0  0  0  0  0  0  0  0  0  0  0
   51.2997   33.7526   43.4456 H   0  0  0  0  0  0  0  0  0  0  0  0
   51.8615   31.9596   41.8099 H   0  0  0  0  0  0  0  0  0  0  0  0
   50.2691   31.4703   39.9244 H   0  0  0  0  0  0  0  0  0  0  0  0
   45.4391   30.4824   38.8334 H   0  0  0  0  0  0  0  0  0  0  0  0
   47.0927   31.0969   40.5888 H   0  0  0  0  0  0  0  0  0  0  0  0
   48.5679   34.2525   38.1213 H   0  0  0  0  0  0  0  0  0  0  0  0
   46.9387   33.6631   36.3647 H   0  0  0  0  0  0  0  0  0  0  0  0
   43.7277   32.0813   36.5981 H   0  0  0  0  0  0  0  0  0  0  0  0
   43.9215   36.5158   44.8771 H   0  0  0  0  0  0  0  0  0  0  0  0
   45.0640   36.6996   42.6577 H   0  0  0  0  0  0  0  0  0  0  0  0
   46.0740   32.9630   45.7325 H   0  0  0  0  0  0  0  0  0  0  0  0
  1  2  2  0
  2  3  1  0
  4  3  2  0
  5  4  1  0
  6  5  2  0
  6  1  1  0
  7  8  2  0
  8  9  1  0
 10  9  2  0
 10  6  1  0
 11 10  1  0
 12  7  1  0
 12 11  2  0
 13  7  1  0
 14 13  2  0
 15 13  2  0
 16  1  1  0
 16 19  1  0
 17 22  2  0
 18 17  1  0
 19 18  2  0
 19 20  1  0
 20 21  2  0
 21 22  1  0
  2 23  1  0
  3 24  1  0
  4 25  1  0
  5 26  1  0
  8 27  1  0
  9 28  1  0
 11 29  1  0
 12 30  1  0
 13 31  1  0
 17 32  1  0
 18 33  1  0
 21 34  1  0
M  ISO  8  23  14  24  14  25  14  26  14  27  14  28  14  29  14  30  14
M  ISO  4  31  11  32  14  33  14  34  14
M  END
>  <minimizedAffinity>  (1) 
-4.94735575

>  <minimizedRMSD>  (1) 
2.04601121

$$$$
