
     RDKit          3D

 34 36  0  0  0  0  0  0  0  0999 V2000
   48.3390   33.9900   41.6650 C   0  0  0  0  0  0  0  0  0  0  0  0
   49.2390   34.7120   42.4410 C   0  0  0  0  0  0  0  0  0  0  0  0
   50.5140   34.2000   42.6180 C   0  0  0  0  0  0  0  0  0  0  0  0
   50.9250   33.0010   42.0540 C   0  0  0  0  0  0  0  0  0  0  0  0
   50.0230   32.2860   41.2810 C   0  0  0  0  0  0  0  0  0  0  0  0
   48.7460   32.7950   41.1030 C   0  0  0  0  0  0  0  0  0  0  0  0
   47.8150   32.0490   40.3000 N   0  0  0  0  0  0  0  0  0  0  0  0
   47.7690   32.2430   38.8770 C   0  0  0  0  0  0  0  0  0  0  0  0
   46.4200   31.7100   38.3800 C   0  0  0  0  0  0  0  0  0  0  0  0
   45.4860   32.0290   39.3470 O   0  0  0  0  0  0  0  0  0  0  0  0
   45.6010   31.0640   40.3470 C   0  0  0  0  0  0  0  0  0  0  0  0
   46.9520   31.1160   41.0110 C   0  0  0  0  0  0  0  0  0  0  0  0
   46.7240   34.6660   41.4560 S   0  0  0  0  0  0  0  0  0  0  0  0
   44.5530   36.0870   44.6000 C   0  0  0  0  0  0  0  0  0  0  0  0
   45.1440   35.9890   43.3380 C   0  0  0  0  0  0  0  0  0  0  0  0
   45.9330   34.8720   43.0360 C   0  0  0  0  0  0  0  0  0  0  0  0
   46.0890   33.9130   44.0160 N   0  0  0  0  0  0  0  0  0  0  0  0
   45.5070   34.0330   45.2250 C   0  0  0  0  0  0  0  0  0  0  0  0
   44.7480   35.0980   45.5250 N   0  0  0  0  0  0  0  0  0  0  0  0
   48.9458   35.6663   42.9030 H   0  0  0  0  0  0  0  0  0  0  0  0
   51.2299   34.7674   43.2309 H   0  0  0  0  0  0  0  0  0  0  0  0
   51.9459   32.6252   42.2168 H   0  0  0  0  0  0  0  0  0  0  0  0
   50.3154   31.3323   40.8174 H   0  0  0  0  0  0  0  0  0  0  0  0
   47.8592   33.3137   38.6413 H   0  0  0  0  0  0  0  0  0  0  0  0
   48.5985   31.7115   38.3876 H   0  0  0  0  0  0  0  0  0  0  0  0
   46.1536   32.1851   37.4243 H   0  0  0  0  0  0  0  0  0  0  0  0
   46.4612   30.6235   38.2131 H   0  0  0  0  0  0  0  0  0  0  0  0
   44.8232   31.2399   41.1047 H   0  0  0  0  0  0  0  0  0  0  0  0
   45.4809   30.0727   39.8857 H   0  0  0  0  0  0  0  0  0  0  0  0
   47.4057   30.1140   40.9950 H   0  0  0  0  0  0  0  0  0  0  0  0
   46.8328   31.4521   42.0516 H   0  0  0  0  0  0  0  0  0  0  0  0
   43.9310   36.9591   44.8499 H   0  0  0  0  0  0  0  0  0  0  0  0
   44.9913   36.7806   42.5896 H   0  0  0  0  0  0  0  0  0  0  0  0
   45.6564   33.2454   45.9782 H   0  0  0  0  0  0  0  0  0  0  0  0
  1  2  2  0
  2  3  1  0
  4  3  2  0
  5  4  1  0
  6  5  2  0
  6  1  1  0
  7 12  1  0
  7  6  1  0
  8  7  1  0
  9  8  1  0
  9 10  1  0
 10 11  1  0
 11 12  1  0
 13  1  1  0
 13 16  1  0
 14 19  2  0
 15 14  1  0
 16 15  2  0
 16 17  1  0
 17 18  2  0
 18 19  1  0
  2 20  1  0
  3 21  1  0
  4 22  1  0
  5 23  1  0
  8 24  1  0
  8 25  1  0
  9 26  1  0
  9 27  1  0
 11 28  1  0
 11 29  1  0
 12 30  1  0
 12 31  1  0
 14 32  1  0
 15 33  1  0
 18 34  1  0
M  ISO  8  20  14  21  14  22  14  23  14  24  13  25  13  26  13  27  13
M  ISO  7  28  13  29  13  30  13  31  13  32  14  33  14  34  14
M  END
>  <minimizedAffinity>  (1) 
-4.80235195

>  <minimizedRMSD>  (1) 
0.347888559

$$$$
