
     RDKit          3D

 33 34  0  0  0  0  0  0  0  0999 V2000
   48.2940   33.9960   41.7440 C   0  0  0  0  0  0  0  0  0  0  0  0
   49.2030   34.7770   42.4600 C   0  0  0  0  0  0  0  0  0  0  0  0
   50.4960   34.3320   42.6360 C   0  0  0  0  0  0  0  0  0  0  0  0
   50.9180   33.0980   42.1070 C   0  0  0  0  0  0  0  0  0  0  0  0
   50.0070   32.3190   41.3920 C   0  0  0  0  0  0  0  0  0  0  0  0
   48.7160   32.7930   41.2320 C   0  0  0  0  0  0  0  0  0  0  0  0
   47.7530   31.9720   40.4780 C   0  0  0  0  0  0  0  0  0  0  0  0
   46.6740   31.5100   41.4320 C   0  0  0  0  0  0  0  0  0  0  0  0
   47.0990   32.7630   39.3630 C   0  0  0  0  0  0  0  0  0  0  0  0
   48.4120   30.7660   39.8340 C   0  0  0  0  0  0  0  0  0  0  0  0
   46.6700   34.6470   41.5720 S   0  0  0  0  0  0  0  0  0  0  0  0
   44.4960   35.9980   44.7510 C   0  0  0  0  0  0  0  0  0  0  0  0
   45.0700   35.9180   43.4790 C   0  0  0  0  0  0  0  0  0  0  0  0
   45.8970   34.8320   43.1680 C   0  0  0  0  0  0  0  0  0  0  0  0
   46.0990   33.8860   44.1610 N   0  0  0  0  0  0  0  0  0  0  0  0
   45.5370   33.9900   45.3690 C   0  0  0  0  0  0  0  0  0  0  0  0
   44.7410   35.0290   45.6770 N   0  0  0  0  0  0  0  0  0  0  0  0
   48.8890   35.7431   42.8819 H   0  0  0  0  0  0  0  0  0  0  0  0
   51.2095   34.9516   43.1991 H   0  0  0  0  0  0  0  0  0  0  0  0
   51.9517   32.7522   42.2550 H   0  0  0  0  0  0  0  0  0  0  0  0
   50.3078   31.3507   40.9654 H   0  0  0  0  0  0  0  0  0  0  0  0
   47.0138   31.6555   42.4681 H   0  0  0  0  0  0  0  0  0  0  0  0
   45.7583   32.0949   41.2609 H   0  0  0  0  0  0  0  0  0  0  0  0
   46.4653   30.4436   41.2609 H   0  0  0  0  0  0  0  0  0  0  0  0
   46.4546   33.5424   39.7956 H   0  0  0  0  0  0  0  0  0  0  0  0
   47.8761   33.2327   38.7420 H   0  0  0  0  0  0  0  0  0  0  0  0
   46.4917   32.0880   38.7420 H   0  0  0  0  0  0  0  0  0  0  0  0
   48.7822   30.0885   40.6175 H   0  0  0  0  0  0  0  0  0  0  0  0
   47.6775   30.2370   39.2089 H   0  0  0  0  0  0  0  0  0  0  0  0
   49.2539   31.0984   39.2089 H   0  0  0  0  0  0  0  0  0  0  0  0
   43.8439   36.8466   45.0054 H   0  0  0  0  0  0  0  0  0  0  0  0
   44.8741   36.6999   42.7305 H   0  0  0  0  0  0  0  0  0  0  0  0
   45.7287   33.2130   46.1236 H   0  0  0  0  0  0  0  0  0  0  0  0
  1  2  2  0
  2  3  1  0
  4  3  2  0
  5  4  1  0
  6  5  2  0
  6  1  1  0
  7  6  1  0
  7  8  1  0
  9  7  1  0
 10  7  1  0
 11  1  1  0
 11 14  1  0
 12 17  2  0
 13 12  1  0
 14 13  2  0
 14 15  1  0
 15 16  2  0
 16 17  1  0
  2 18  1  0
  3 19  1  0
  4 20  1  0
  5 21  1  0
  8 22  1  0
  8 23  1  0
  8 24  1  0
  9 25  1  0
  9 26  1  0
  9 27  1  0
 10 28  1  0
 10 29  1  0
 10 30  1  0
 12 31  1  0
 13 32  1  0
 16 33  1  0
M  ISO  8  18  14  19  14  20  14  21  14  22   8  23   8  24   8  25   8
M  ISO  8  26   8  27   8  28   8  29   8  30   8  31  14  32  14  33  14
M  END
>  <minimizedAffinity>  (1) 
-4.67421865

>  <minimizedRMSD>  (1) 
0.273036748

$$$$
