
     RDKit          3D

 24 25  0  0  0  0  0  0  0  0999 V2000
   48.2980   33.9290   41.7040 C   0  0  0  0  0  0  0  0  0  0  0  0
   49.1910   34.7370   42.3980 C   0  0  0  0  0  0  0  0  0  0  0  0
   50.4830   34.2960   42.5910 C   0  0  0  0  0  0  0  0  0  0  0  0
   50.9290   33.0690   42.1170 C   0  0  0  0  0  0  0  0  0  0  0  0
   50.0410   32.2620   41.4260 C   0  0  0  0  0  0  0  0  0  0  0  0
   48.7560   32.7090   41.2370 C   0  0  0  0  0  0  0  0  0  0  0  0
   47.7190   31.9270   40.5100 C   0  0  0  0  0  0  0  0  0  0  0  0
   46.6580   34.5570   41.4910 S   0  0  0  0  0  0  0  0  0  0  0  0
   44.5510   36.0970   44.6010 C   0  0  0  0  0  0  0  0  0  0  0  0
   45.1290   35.9580   43.3340 C   0  0  0  0  0  0  0  0  0  0  0  0
   45.8900   34.8200   43.0610 C   0  0  0  0  0  0  0  0  0  0  0  0
   46.0270   33.8870   44.0790 N   0  0  0  0  0  0  0  0  0  0  0  0
   45.4600   34.0490   45.2840 C   0  0  0  0  0  0  0  0  0  0  0  0
   44.7270   35.1360   45.5580 N   0  0  0  0  0  0  0  0  0  0  0  0
   48.8714   35.7147   42.7878 H   0  0  0  0  0  0  0  0  0  0  0  0
   51.1861   34.9393   43.1403 H   0  0  0  0  0  0  0  0  0  0  0  0
   51.9664   32.7450   42.2871 H   0  0  0  0  0  0  0  0  0  0  0  0
   50.3580   31.2833   41.0365 H   0  0  0  0  0  0  0  0  0  0  0  0
   47.0591   31.4294   41.2359 H   0  0  0  0  0  0  0  0  0  0  0  0
   47.1250   32.6040   39.8784 H   0  0  0  0  0  0  0  0  0  0  0  0
   48.2065   31.1697   39.8784 H   0  0  0  0  0  0  0  0  0  0  0  0
   43.9488   36.9887   44.8295 H   0  0  0  0  0  0  0  0  0  0  0  0
   44.9860   36.7325   42.5661 H   0  0  0  0  0  0  0  0  0  0  0  0
   45.5989   33.2790   46.0572 H   0  0  0  0  0  0  0  0  0  0  0  0
  1  2  2  0
  2  3  1  0
  4  3  2  0
  5  4  1  0
  6  5  2  0
  6  1  1  0
  7  6  1  0
  8  1  1  0
  8 11  1  0
  9 14  2  0
 10  9  1  0
 11 10  2  0
 11 12  1  0
 12 13  2  0
 13 14  1  0
  2 15  1  0
  3 16  1  0
  4 17  1  0
  5 18  1  0
  7 19  1  0
  7 20  1  0
  7 21  1  0
  9 22  1  0
 10 23  1  0
 13 24  1  0
M  ISO  8  15  14  16  14  17  14  18  14  19   8  20   8  21   8  22  14
M  ISO  2  23  14  24  14
M  END
>  <minimizedAffinity>  (1) 
-4.63437033

>  <minimizedRMSD>  (1) 
0.0228799786

$$$$
