
     RDKit          3D

 38 41  0  0  0  0  0  0  0  0999 V2000
   44.5100   35.7450   44.9430 C   0  0  0  0  0  0  0  0  0  0  0  0
   45.1020   35.8480   43.6920 C   0  0  0  0  0  0  0  0  0  0  0  0
   46.0370   34.8730   43.3390 C   0  0  0  0  0  0  0  0  0  0  0  0
   46.2930   33.9030   44.2420 N   0  0  0  0  0  0  0  0  0  0  0  0
   45.7180   33.7950   45.4660 C   0  0  0  0  0  0  0  0  0  0  0  0
   44.8160   34.7480   45.7920 N   0  0  0  0  0  0  0  0  0  0  0  0
   45.9210   32.8010   46.5000 C   0  0  0  0  0  0  0  0  0  0  0  0
   45.3590   32.9310   47.7500 C   0  0  0  0  0  0  0  0  0  0  0  0
   45.5190   32.0220   48.7660 C   0  0  0  0  0  0  0  0  0  0  0  0
   46.2790   30.8900   48.5760 C   0  0  0  0  0  0  0  0  0  0  0  0
   46.8630   30.7030   47.3540 C   0  0  0  0  0  0  0  0  0  0  0  0
   47.6220   29.5680   47.1710 C   0  0  0  0  0  0  0  0  0  0  0  0
   48.2350   29.3170   45.9790 C   0  0  0  0  0  0  0  0  0  0  0  0
   48.0550   30.2520   44.9750 C   0  0  0  0  0  0  0  0  0  0  0  0
   47.2910   31.3750   45.1930 C   0  0  0  0  0  0  0  0  0  0  0  0
   46.6620   31.6540   46.3820 C   0  0  0  0  0  0  0  0  0  0  0  0
   46.8660   34.8590   41.7650 S   0  0  0  0  0  0  0  0  0  0  0  0
   48.3970   33.9940   41.8690 C   0  0  0  0  0  0  0  0  0  0  0  0
   49.4850   34.6720   42.4110 C   0  0  0  0  0  0  0  0  0  0  0  0
   50.6880   34.0310   42.5120 C   0  0  0  0  0  0  0  0  0  0  0  0
   50.8530   32.7030   42.0820 C   0  0  0  0  0  0  0  0  0  0  0  0
   49.7760   32.0440   41.5500 C   0  0  0  0  0  0  0  0  0  0  0  0
   48.5500   32.6900   41.4440 C   0  0  0  0  0  0  0  0  0  0  0  0
   47.3970   32.1130   40.9200 O   0  0  0  0  0  0  0  0  0  0  0  0
   43.7702   36.4996   45.2485 H   0  0  0  0  0  0  0  0  0  0  0  0
   44.8443   36.6670   43.0044 H   0  0  0  0  0  0  0  0  0  0  0  0
   44.7423   33.8202   47.9472 H   0  0  0  0  0  0  0  0  0  0  0  0
   45.0367   32.1993   49.7386 H   0  0  0  0  0  0  0  0  0  0  0  0
   46.4127   30.1564   49.3847 H   0  0  0  0  0  0  0  0  0  0  0  0
   47.7353   28.8531   47.9993 H   0  0  0  0  0  0  0  0  0  0  0  0
   48.8437   28.4141   45.8230 H   0  0  0  0  0  0  0  0  0  0  0  0
   48.5270   30.0959   43.9938 H   0  0  0  0  0  0  0  0  0  0  0  0
   47.1770   32.0919   44.3665 H   0  0  0  0  0  0  0  0  0  0  0  0
   49.3780   35.7116   42.7541 H   0  0  0  0  0  0  0  0  0  0  0  0
   51.5477   34.5673   42.9401 H   0  0  0  0  0  0  0  0  0  0  0  0
   51.8284   32.2023   42.1709 H   0  0  0  0  0  0  0  0  0  0  0  0
   49.8816   31.0042   41.2070 H   0  0  0  0  0  0  0  0  0  0  0  0
   46.5576   32.6361   40.8764 H   0  0  0  0  0  0  0  0  0  0  0  0
  1  6  2  0
  2  1  1  0
  3  2  2  0
  3  4  1  0
  4  5  2  0
  5  6  1  0
  5  7  1  0
  7  8  2  0
  8  9  1  0
 10  9  2  0
 11 10  1  0
 12 11  2  0
 13 12  1  0
 14 15  1  0
 14 13  2  0
 15 16  2  0
 16  7  1  0
 16 11  1  0
 17 18  1  0
 17  3  1  0
 18 19  2  0
 19 20  1  0
 21 20  2  0
 22 21  1  0
 23 22  2  0
 23 18  1  0
 24 23  1  0
  1 25  1  0
  2 26  1  0
  8 27  1  0
  9 28  1  0
 10 29  1  0
 12 30  1  0
 13 31  1  0
 14 32  1  0
 15 33  1  0
 19 34  1  0
 20 35  1  0
 21 36  1  0
 22 37  1  0
 24 38  1  0
M  ISO  8  25  14  26  14  27  14  28  14  29  14  30  14  31  14  32  14
M  ISO  6  33  14  34  14  35  14  36  14  37  14  38   3
M  END
>  <minimizedAffinity>  (1) 
-6.75438595

>  <minimizedRMSD>  (1) 
1.72422802

$$$$
