
     RDKit          3D

 32 34  0  0  0  0  0  0  0  0999 V2000
   44.4520   36.0460   44.5000 C   0  0  0  0  0  0  0  0  0  0  0  0
   45.0280   35.9300   43.2300 C   0  0  0  0  0  0  0  0  0  0  0  0
   45.9130   34.8570   43.0090 C   0  0  0  0  0  0  0  0  0  0  0  0
   46.1560   33.9940   44.0530 N   0  0  0  0  0  0  0  0  0  0  0  0
   45.5760   34.1440   45.2690 C   0  0  0  0  0  0  0  0  0  0  0  0
   44.7330   35.1660   45.4790 N   0  0  0  0  0  0  0  0  0  0  0  0
   45.9510   33.1520   46.2200 N   0  0  0  0  0  0  0  0  0  0  0  0
   45.2180   33.3000   47.3630 C   0  0  0  0  0  0  0  0  0  0  0  0
   45.4190   32.4290   48.4390 C   0  0  0  0  0  0  0  0  0  0  0  0
   46.3680   31.4200   48.3290 C   0  0  0  0  0  0  0  0  0  0  0  0
   46.5720   30.6210   49.2790 O   0  0  0  0  0  0  0  0  0  0  0  0
   47.0340   31.3500   47.1810 N   0  0  0  0  0  0  0  0  0  0  0  0
   46.8600   32.1730   46.1320 C   0  0  0  0  0  0  0  0  0  0  0  0
   47.4530   32.1510   45.0450 O   0  0  0  0  0  0  0  0  0  0  0  0
   46.7110   34.6020   41.4300 S   0  0  0  0  0  0  0  0  0  0  0  0
   48.3430   33.9510   41.6780 C   0  0  0  0  0  0  0  0  0  0  0  0
   49.2570   34.7420   42.3650 C   0  0  0  0  0  0  0  0  0  0  0  0
   50.5270   34.2640   42.5710 C   0  0  0  0  0  0  0  0  0  0  0  0
   50.9370   33.0130   42.1170 C   0  0  0  0  0  0  0  0  0  0  0  0
   50.0190   32.2380   41.4350 C   0  0  0  0  0  0  0  0  0  0  0  0
   48.7480   32.7080   41.2260 C   0  0  0  0  0  0  0  0  0  0  0  0
   47.7280   32.0070   40.5450 O   0  0  0  0  0  0  0  0  0  0  0  0
   43.7555   36.8730   44.7024 H   0  0  0  0  0  0  0  0  0  0  0  0
   44.7976   36.6515   42.4323 H   0  0  0  0  0  0  0  0  0  0  0  0
   44.4703   34.1034   47.4373 H   0  0  0  0  0  0  0  0  0  0  0  0
   44.8320   32.5417   49.3624 H   0  0  0  0  0  0  0  0  0  0  0  0
   47.7399   30.6058   47.0874 H   0  0  0  0  0  0  0  0  0  0  0  0
   48.9668   35.7354   42.7376 H   0  0  0  0  0  0  0  0  0  0  0  0
   51.2477   34.8924   43.1149 H   0  0  0  0  0  0  0  0  0  0  0  0
   51.9608   32.6528   42.2960 H   0  0  0  0  0  0  0  0  0  0  0  0
   50.3074   31.2449   41.0600 H   0  0  0  0  0  0  0  0  0  0  0  0
   46.8336   32.4171   40.4357 H   0  0  0  0  0  0  0  0  0  0  0  0
  1  6  2  0
  2  1  1  0
  3  2  2  0
  3  4  1  0
  4  5  2  0
  5  6  1  0
  5  7  1  0
  7  8  1  0
  8  9  2  0
 10  9  1  0
 10 11  2  0
 12 10  1  0
 13  7  1  0
 13 12  1  0
 14 13  2  0
 15 16  1  0
 15  3  1  0
 16 17  2  0
 17 18  1  0
 19 18  2  0
 20 19  1  0
 21 20  2  0
 21 16  1  0
 22 21  1  0
  1 23  1  0
  2 24  1  0
  8 25  1  0
  9 26  1  0
 12 27  1  0
 17 28  1  0
 18 29  1  0
 19 30  1  0
 20 31  1  0
 22 32  1  0
M  ISO  8  23  14  24  14  25  14  26  14  27   9  28  14  29  14  30  14
M  ISO  2  31  14  32   3
M  END
>  <minimizedAffinity>  (1) 
-6.58206844

>  <minimizedRMSD>  (1) 
0.29886806

$$$$
