
     RDKit          3D

 29 30  0  0  0  0  0  0  0  0999 V2000
   44.6240   36.0810   44.4070 C   0  0  0  0  0  0  0  0  0  0  0  0
   45.2330   35.9820   43.1510 C   0  0  0  0  0  0  0  0  0  0  0  0
   46.0070   34.8390   42.8820 C   0  0  0  0  0  0  0  0  0  0  0  0
   46.1190   33.8870   43.8710 N   0  0  0  0  0  0  0  0  0  0  0  0
   45.5160   34.0230   45.0660 C   0  0  0  0  0  0  0  0  0  0  0  0
   44.7780   35.1070   45.3290 N   0  0  0  0  0  0  0  0  0  0  0  0
   45.6720   33.0000   46.0440 N   0  0  0  0  0  0  0  0  0  0  0  0
   45.3350   33.2250   47.3990 C   0  0  0  0  0  0  0  0  0  0  0  0
   44.3580   34.0600   47.6550 N   0  0  0  0  0  0  0  0  0  0  0  0
   46.0960   32.5130   48.3970 N   0  0  0  0  0  0  0  0  0  0  0  0
   44.1040   34.2280   48.6720 H   0  0  0  0  0  0  0  0  0  0  0  0
   46.8270   34.6120   41.3120 S   0  0  0  0  0  0  0  0  0  0  0  0
   48.4330   33.9260   41.5670 C   0  0  0  0  0  0  0  0  0  0  0  0
   49.3320   34.6410   42.3390 C   0  0  0  0  0  0  0  0  0  0  0  0
   50.5940   34.1380   42.5610 C   0  0  0  0  0  0  0  0  0  0  0  0
   50.9950   32.9170   42.0220 C   0  0  0  0  0  0  0  0  0  0  0  0
   50.0980   32.2060   41.2530 C   0  0  0  0  0  0  0  0  0  0  0  0
   48.8370   32.7180   41.0360 C   0  0  0  0  0  0  0  0  0  0  0  0
   47.8480   32.0790   40.2710 O   0  0  0  0  0  0  0  0  0  0  0  0
   44.0122   36.9634   44.6460 H   0  0  0  0  0  0  0  0  0  0  0  0
   45.1101   36.7738   42.3973 H   0  0  0  0  0  0  0  0  0  0  0  0
   46.0368   32.0797   45.7596 H   0  0  0  0  0  0  0  0  0  0  0  0
   45.8857   32.6456   49.3966 H   0  0  0  0  0  0  0  0  0  0  0  0
   46.8495   31.8721   48.1098 H   0  0  0  0  0  0  0  0  0  0  0  0
   49.0390   35.6080   42.7738 H   0  0  0  0  0  0  0  0  0  0  0  0
   51.3014   34.7123   43.1773 H   0  0  0  0  0  0  0  0  0  0  0  0
   52.0073   32.5280   42.2064 H   0  0  0  0  0  0  0  0  0  0  0  0
   50.3865   31.2384   40.8165 H   0  0  0  0  0  0  0  0  0  0  0  0
   46.9610   32.5031   40.1549 H   0  0  0  0  0  0  0  0  0  0  0  0
  1  6  2  0
  2  1  1  0
  3  2  2  0
  3  4  1  0
  4  5  2  0
  5  6  1  0
  5  7  1  0
  7  8  1  0
  8  9  2  0
  8 10  1  0
  9 11  1  0
 12 13  1  0
 12  3  1  0
 13 14  2  0
 14 15  1  0
 16 15  2  0
 17 16  1  0
 18 17  2  0
 18 13  1  0
 19 18  1  0
  1 20  1  0
  2 21  1  0
  7 22  1  0
 10 23  1  0
 10 24  1  0
 14 25  1  0
 15 26  1  0
 16 27  1  0
 17 28  1  0
 19 29  1  0
M  ISO  7  20  14  21  14  25  14  26  14  27  14  28  14  29   3
M  END
>  <minimizedAffinity>  (1) 
-6.52757215

>  <minimizedRMSD>  (1) 
0.225092337

$$$$
