
     RDKit          3D

 36 38  0  0  0  0  0  0  0  0999 V2000
   44.4860   35.9370   44.7620 C   0  0  0  0  0  0  0  0  0  0  0  0
   45.0230   35.8270   43.4800 C   0  0  0  0  0  0  0  0  0  0  0  0
   45.8660   34.7390   43.2220 C   0  0  0  0  0  0  0  0  0  0  0  0
   46.1120   33.8500   44.2420 N   0  0  0  0  0  0  0  0  0  0  0  0
   45.5720   33.9940   45.4660 C   0  0  0  0  0  0  0  0  0  0  0  0
   44.7570   35.0390   45.7280 N   0  0  0  0  0  0  0  0  0  0  0  0
   45.9020   33.0070   46.4400 N   0  0  0  0  0  0  0  0  0  0  0  0
   47.0040   32.1330   46.1900 C   0  0  0  0  0  0  0  0  0  0  0  0
   47.4630   31.3780   47.3930 C   0  0  0  0  0  0  0  0  0  0  0  0
   47.1270   32.0430   48.6160 N   0  0  0  0  0  0  0  0  0  0  0  0
   45.6810   32.0960   48.7100 C   0  0  0  0  0  0  0  0  0  0  0  0
   45.0720   32.9640   47.6400 C   0  0  0  0  0  0  0  0  0  0  0  0
   46.6110   34.4990   41.6140 S   0  0  0  0  0  0  0  0  0  0  0  0
   48.2610   33.8930   41.7910 C   0  0  0  0  0  0  0  0  0  0  0  0
   49.1850   34.7310   42.4020 C   0  0  0  0  0  0  0  0  0  0  0  0
   50.4830   34.3200   42.5690 C   0  0  0  0  0  0  0  0  0  0  0  0
   50.9000   33.0650   42.1340 C   0  0  0  0  0  0  0  0  0  0  0  0
   49.9920   32.2330   41.5290 C   0  0  0  0  0  0  0  0  0  0  0  0
   48.6860   32.6480   41.3620 C   0  0  0  0  0  0  0  0  0  0  0  0
   47.6710   31.8960   40.7630 O   0  0  0  0  0  0  0  0  0  0  0  0
   43.8210   36.7828   44.9911 H   0  0  0  0  0  0  0  0  0  0  0  0
   44.7929   36.5676   42.6999 H   0  0  0  0  0  0  0  0  0  0  0  0
   46.7027   31.4075   45.4200 H   0  0  0  0  0  0  0  0  0  0  0  0
   47.8457   32.7645   45.8694 H   0  0  0  0  0  0  0  0  0  0  0  0
   46.9892   30.3853   47.3890 H   0  0  0  0  0  0  0  0  0  0  0  0
   48.5592   31.3017   47.3430 H   0  0  0  0  0  0  0  0  0  0  0  0
   47.5110   31.5200   49.4160 H   0  0  0  0  0  0  0  0  0  0  0  0
   45.2819   31.0760   48.6083 H   0  0  0  0  0  0  0  0  0  0  0  0
   45.4221   32.5321   49.6861 H   0  0  0  0  0  0  0  0  0  0  0  0
   44.9590   33.9857   48.0317 H   0  0  0  0  0  0  0  0  0  0  0  0
   44.0965   32.5357   47.3661 H   0  0  0  0  0  0  0  0  0  0  0  0
   48.8752   35.7265   42.7527 H   0  0  0  0  0  0  0  0  0  0  0  0
   51.2057   34.9925   43.0542 H   0  0  0  0  0  0  0  0  0  0  0  0
   51.9431   32.7448   42.2734 H   0  0  0  0  0  0  0  0  0  0  0  0
   50.3038   31.2382   41.1781 H   0  0  0  0  0  0  0  0  0  0  0  0
   46.7583   32.2711   40.6834 H   0  0  0  0  0  0  0  0  0  0  0  0
  1  6  2  0
  2  1  1  0
  3  2  2  0
  3  4  1  0
  4  5  2  0
  5  6  1  0
  5  7  1  0
  7 12  1  0
  8  7  1  0
  8  9  1  0
  9 10  1  0
 10 11  1  0
 12 11  1  0
 13 14  1  0
 13  3  1  0
 14 15  2  0
 15 16  1  0
 17 16  2  0
 18 17  1  0
 19 18  2  0
 19 14  1  0
 20 19  1  0
  1 21  1  0
  2 22  1  0
  8 23  1  0
  8 24  1  0
  9 25  1  0
  9 26  1  0
 10 27  1  0
 11 28  1  0
 11 29  1  0
 12 30  1  0
 12 31  1  0
 15 32  1  0
 16 33  1  0
 17 34  1  0
 18 35  1  0
 20 36  1  0
M  ISO  8  21  14  22  14  23  13  24  13  25  13  26  13  27   5  28  13
M  ISO  8  29  13  30  13  31  13  32  14  33  14  34  14  35  14  36   3
M  END
>  <minimizedAffinity>  (1) 
-6.26353359

>  <minimizedRMSD>  (1) 
0.259404808

$$$$
