
     RDKit          3D

 31 32  0  0  0  0  0  0  0  0999 V2000
   48.4260   33.9800   41.7790 C   0  0  0  0  0  0  0  0  0  0  0  0
   49.4320   34.6680   42.4560 C   0  0  0  0  0  0  0  0  0  0  0  0
   50.6890   34.1070   42.5610 C   0  0  0  0  0  0  0  0  0  0  0  0
   50.9770   32.8590   41.9990 C   0  0  0  0  0  0  0  0  0  0  0  0
   49.9750   32.1770   41.3260 C   0  0  0  0  0  0  0  0  0  0  0  0
   48.7130   32.7540   41.2290 C   0  0  0  0  0  0  0  0  0  0  0  0
   47.6300   32.1600   40.5760 O   0  0  0  0  0  0  0  0  0  0  0  0
   46.8520   34.7640   41.6900 S   0  0  0  0  0  0  0  0  0  0  0  0
   44.5360   35.6800   44.8840 C   0  0  0  0  0  0  0  0  0  0  0  0
   45.0990   35.7310   43.6160 C   0  0  0  0  0  0  0  0  0  0  0  0
   46.0750   34.7780   43.2890 C   0  0  0  0  0  0  0  0  0  0  0  0
   46.4130   33.8470   44.2500 N   0  0  0  0  0  0  0  0  0  0  0  0
   45.8400   33.8370   45.4660 C   0  0  0  0  0  0  0  0  0  0  0  0
   44.9080   34.7390   45.7940 N   0  0  0  0  0  0  0  0  0  0  0  0
   46.2300   32.8200   46.4720 C   0  0  0  0  0  0  0  0  0  0  0  0
   45.2460   32.8270   47.6230 C   0  0  0  0  0  0  0  0  0  0  0  0
   46.2050   31.4210   45.8830 C   0  0  0  0  0  0  0  0  0  0  0  0
   49.2255   35.6514   42.9036 H   0  0  0  0  0  0  0  0  0  0  0  0
   51.4797   34.6522   43.0972 H   0  0  0  0  0  0  0  0  0  0  0  0
   51.9837   32.4250   42.0897 H   0  0  0  0  0  0  0  0  0  0  0  0
   50.1751   31.1938   40.8752 H   0  0  0  0  0  0  0  0  0  0  0  0
   46.7564   32.6247   40.5430 H   0  0  0  0  0  0  0  0  0  0  0  0
   43.7696   36.4191   45.1602 H   0  0  0  0  0  0  0  0  0  0  0  0
   44.7889   36.4962   42.8892 H   0  0  0  0  0  0  0  0  0  0  0  0
   47.2467   33.0727   46.8072 H   0  0  0  0  0  0  0  0  0  0  0  0
   45.7960   32.8231   48.5756 H   0  0  0  0  0  0  0  0  0  0  0  0
   44.6200   33.7296   47.5647 H   0  0  0  0  0  0  0  0  0  0  0  0
   44.6072   31.9334   47.5647 H   0  0  0  0  0  0  0  0  0  0  0  0
   46.1918   30.6808   46.6966 H   0  0  0  0  0  0  0  0  0  0  0  0
   45.3046   31.3003   45.2628 H   0  0  0  0  0  0  0  0  0  0  0  0
   47.1006   31.2682   45.2628 H   0  0  0  0  0  0  0  0  0  0  0  0
  1  2  2  0
  2  3  1  0
  4  3  2  0
  5  4  1  0
  6  5  2  0
  6  1  1  0
  7  6  1  0
  8  1  1  0
  8 11  1  0
  9 14  2  0
 10  9  1  0
 11 10  2  0
 11 12  1  0
 12 13  2  0
 13 14  1  0
 13 15  1  0
 15 16  1  0
 17 15  1  0
  2 18  1  0
  3 19  1  0
  4 20  1  0
  5 21  1  0
  7 22  1  0
  9 23  1  0
 10 24  1  0
 15 25  1  0
 16 26  1  0
 16 27  1  0
 16 28  1  0
 17 29  1  0
 17 30  1  0
 17 31  1  0
M  ISO  8  18  14  19  14  20  14  21  14  22   3  23  14  24  14  25   8
M  ISO  6  26   8  27   8  28   8  29   8  30   8  31   8
M  END
>  <minimizedAffinity>  (1) 
-5.23038054

>  <minimizedRMSD>  (1) 
0.48353979

$$$$
