
     RDKit          3D

 50 54  0  0  1  0  0  0  0  0999 V2000
   47.9650   33.1780   43.3610 C   0  0  0  0  0  0  0  0  0  0  0  0
   48.0120   34.2950   41.1240 C   0  0  2  0  0  0  0  0  0  0  0  0
   48.5320   35.5380   41.5190 C   0  0  0  0  0  0  0  0  0  0  0  0
   49.8480   35.2570   42.2940 C   0  0  0  0  0  0  0  0  0  0  0  0
   50.0740   33.7590   42.2910 C   0  0  0  0  0  0  0  0  0  0  0  0
   48.7250   33.2510   42.0730 C   0  0  1  0  0  0  0  0  0  0  0  0
   48.2170   33.7290   39.7640 C   0  0  0  0  0  0  0  0  0  0  0  0
   48.3540   34.6160   38.7200 C   0  0  0  0  0  0  0  0  0  0  0  0
   48.5520   34.1680   37.4350 C   0  0  0  0  0  0  0  0  0  0  0  0
   48.5990   32.7980   37.2790 N   0  0  0  0  0  0  0  0  0  0  0  0
   48.4630   31.9780   38.3120 C   0  0  0  0  0  0  0  0  0  0  0  0
   48.2710   32.4180   39.5640 N   0  0  0  0  0  0  0  0  0  0  0  0
   46.5320   32.7880   43.1280 C   0  0  0  0  0  0  0  0  0  0  0  0
   45.7060   33.7870   43.8640 C   0  0  0  0  0  0  0  0  0  0  0  0
   44.7680   34.6490   43.3840 C   0  0  0  0  0  0  0  0  0  0  0  0
   44.2830   35.3780   44.4230 N   0  0  0  0  0  0  0  0  0  0  0  0
   44.9120   34.9690   45.5220 C   0  0  0  0  0  0  0  0  0  0  0  0
   45.7770   34.0100   45.2170 N   0  0  0  0  0  0  0  0  0  0  0  0
   46.6490   33.3020   46.1480 C   0  0  0  0  0  0  0  0  0  0  0  0
   45.9250   32.3910   46.9690 N   0  0  0  0  0  0  0  0  0  0  0  0
   45.1650   32.4700   48.0530 C   0  0  0  0  0  0  0  0  0  0  0  0
   44.6830   31.2870   48.4670 N   0  0  0  0  0  0  0  0  0  0  0  0
   45.1440   30.3610   47.6130 C   0  0  0  0  0  0  0  0  0  0  0  0
   44.9740   28.9960   47.5480 C   0  0  0  0  0  0  0  0  0  0  0  0
   45.5740   28.3250   46.5560 N   0  0  0  0  0  0  0  0  0  0  0  0
   46.3310   28.9700   45.6380 C   0  0  0  0  0  0  0  0  0  0  0  0
   46.4720   30.2960   45.7360 N   0  0  0  0  0  0  0  0  0  0  0  0
   45.8950   31.0450   46.7110 C   0  0  0  0  0  0  0  0  0  0  0  0
   48.4382   32.4303   44.0144 H   0  0  0  0  0  0  0  0  0  0  0  0
   47.9823   34.1722   43.8313 H   0  0  0  0  0  0  0  0  0  0  0  0
   46.9268   34.4712   41.1611 H   0  0  0  0  0  0  0  0  0  0  0  0
   48.7400   36.1582   40.6347 H   0  0  0  0  0  0  0  0  0  0  0  0
   47.8134   36.0799   42.1513 H   0  0  0  0  0  0  0  0  0  0  0  0
   50.6896   35.7638   41.7991 H   0  0  0  0  0  0  0  0  0  0  0  0
   49.7756   35.6334   43.3250 H   0  0  0  0  0  0  0  0  0  0  0  0
   50.7509   33.4583   41.4778 H   0  0  0  0  0  0  0  0  0  0  0  0
   50.5487   33.3796   43.2079 H   0  0  0  0  0  0  0  0  0  0  0  0
   48.7601   32.2397   41.6417 H   0  0  0  0  0  0  0  0  0  0  0  0
   48.3044   35.6972   38.9163 H   0  0  0  0  0  0  0  0  0  0  0  0
   48.6656   34.8579   36.5858 H   0  0  0  0  0  0  0  0  0  0  0  0
   48.5095   30.8934   38.1348 H   0  0  0  0  0  0  0  0  0  0  0  0
   46.2984   32.8171   42.0535 H   0  0  0  0  0  0  0  0  0  0  0  0
   46.3321   31.7649   43.4791 H   0  0  0  0  0  0  0  0  0  0  0  0
   44.4557   34.7399   42.3332 H   0  0  0  0  0  0  0  0  0  0  0  0
   44.7404   35.3668   46.5331 H   0  0  0  0  0  0  0  0  0  0  0  0
   47.4015   32.7417   45.5737 H   0  0  0  0  0  0  0  0  0  0  0  0
   47.1229   34.0474   46.8035 H   0  0  0  0  0  0  0  0  0  0  0  0
   44.9491   33.4186   48.5664 H   0  0  0  0  0  0  0  0  0  0  0  0
   44.3599   28.4691   48.2932 H   0  0  0  0  0  0  0  0  0  0  0  0
   46.8214   28.4133   44.8259 H   0  0  0  0  0  0  0  0  0  0  0  0
  2  3  1  0
  2  6  1  0
  3  4  1  0
  5  4  1  0
  6  5  1  0
  6  1  1  0
  7  2  1  0
  8  7  2  0
  9  8  1  0
 10  9  2  0
 10 11  1  0
 11 12  2  0
 12  7  1  0
 13  1  1  0
 13 14  1  0
 14 18  1  0
 15 14  2  0
 15 16  1  0
 16 17  2  0
 18 17  1  0
 18 19  1  0
 19 20  1  0
 20 21  1  0
 21 22  2  0
 23 22  1  0
 24 23  2  0
 25 24  1  0
 26 27  1  0
 26 25  2  0
 27 28  2  0
 28 20  1  0
 28 23  1  0
  1 29  1  0
  1 30  1  0
  2 31  1  1
  3 32  1  0
  3 33  1  0
  4 34  1  0
  4 35  1  0
  5 36  1  0
  5 37  1  0
  6 38  1  6
  8 39  1  0
  9 40  1  0
 11 41  1  0
 13 42  1  0
 13 43  1  0
 15 44  1  0
 17 45  1  0
 19 46  1  0
 19 47  1  0
 21 48  1  0
 24 49  1  0
 26 50  1  0
M  ISO  8  29   8  30   8  31  13  32  13  33  13  34  13  35  13  36  13
M  ISO  8  37  13  38  13  39  14  40  14  41  14  42   8  43   8  44  14
M  ISO  6  45  14  46   8  47   8  48  14  49  14  50  14
M  END
>  <minimizedAffinity>  (1) 
-6.24141121

>  <minimizedRMSD>  (1) 
1.44682312

$$$$
