
     RDKit          3D

 25 26  0  0  0  0  0  0  0  0999 V2000
   48.3340   33.9460   41.7020 C   0  0  0  0  0  0  0  0  0  0  0  0
   49.2390   34.7430   42.3990 C   0  0  0  0  0  0  0  0  0  0  0  0
   50.5110   34.2800   42.5880 C   0  0  0  0  0  0  0  0  0  0  0  0
   50.9390   33.0400   42.1080 C   0  0  0  0  0  0  0  0  0  0  0  0
   50.0290   32.2570   41.4150 C   0  0  0  0  0  0  0  0  0  0  0  0
   48.7320   32.7220   41.2190 C   0  0  0  0  0  0  0  0  0  0  0  0
   47.7400   32.0200   40.5400 O   0  0  0  0  0  0  0  0  0  0  0  0
   46.6960   34.5920   41.4840 S   0  0  0  0  0  0  0  0  0  0  0  0
   44.5070   36.0360   44.5890 C   0  0  0  0  0  0  0  0  0  0  0  0
   45.0710   35.9340   43.3110 C   0  0  0  0  0  0  0  0  0  0  0  0
   45.9160   34.8380   43.0640 C   0  0  0  0  0  0  0  0  0  0  0  0
   46.1350   33.9400   44.0850 N   0  0  0  0  0  0  0  0  0  0  0  0
   45.5650   34.0860   45.3020 C   0  0  0  0  0  0  0  0  0  0  0  0
   44.7500   35.1310   45.5600 N   0  0  0  0  0  0  0  0  0  0  0  0
   45.8480   33.0770   46.3530 C   0  0  0  0  0  0  0  0  0  0  0  0
   48.9360   35.7256   42.7896 H   0  0  0  0  0  0  0  0  0  0  0  0
   51.2256   34.9084   43.1397 H   0  0  0  0  0  0  0  0  0  0  0  0
   51.9698   32.6944   42.2753 H   0  0  0  0  0  0  0  0  0  0  0  0
   50.3301   31.2745   41.0225 H   0  0  0  0  0  0  0  0  0  0  0  0
   46.8370   32.4129   40.4381 H   0  0  0  0  0  0  0  0  0  0  0  0
   43.8421   36.8843   44.8090 H   0  0  0  0  0  0  0  0  0  0  0  0
   44.8612   36.6815   42.5318 H   0  0  0  0  0  0  0  0  0  0  0  0
   45.7196   33.5348   47.3449 H   0  0  0  0  0  0  0  0  0  0  0  0
   45.1523   32.2316   46.2465 H   0  0  0  0  0  0  0  0  0  0  0  0
   46.8819   32.7167   46.2465 H   0  0  0  0  0  0  0  0  0  0  0  0
  1  2  2  0
  2  3  1  0
  4  3  2  0
  5  4  1  0
  6  5  2  0
  6  1  1  0
  7  6  1  0
  8  1  1  0
  8 11  1  0
  9 14  2  0
 10  9  1  0
 11 10  2  0
 11 12  1  0
 12 13  2  0
 13 14  1  0
 13 15  1  0
  2 16  1  0
  3 17  1  0
  4 18  1  0
  5 19  1  0
  7 20  1  0
  9 21  1  0
 10 22  1  0
 15 23  1  0
 15 24  1  0
 15 25  1  0
M  ISO  8  16  14  17  14  18  14  19  14  20   3  21  14  22  14  23   8
M  ISO  2  24   8  25   8
M  END
>  <minimizedAffinity>  (1) 
-4.97707748

>  <minimizedRMSD>  (1) 
0.0793187767

$$$$
