
     RDKit          3D

 23 24  0  0  0  0  0  0  0  0999 V2000
   48.3110   33.9810   41.7550 C   0  0  0  0  0  0  0  0  0  0  0  0
   49.2340   34.7430   42.4430 C   0  0  0  0  0  0  0  0  0  0  0  0
   50.5150   34.2820   42.6040 C   0  0  0  0  0  0  0  0  0  0  0  0
   50.9210   33.0590   42.0930 C   0  0  0  0  0  0  0  0  0  0  0  0
   49.9950   32.2860   41.4000 C   0  0  0  0  0  0  0  0  0  0  0  0
   48.7090   32.7590   41.2430 C   0  0  0  0  0  0  0  0  0  0  0  0
   47.6920   32.0650   40.5630 O   0  0  0  0  0  0  0  0  0  0  0  0
   46.6730   34.6210   41.5770 S   0  0  0  0  0  0  0  0  0  0  0  0
   44.4800   35.9460   44.7330 C   0  0  0  0  0  0  0  0  0  0  0  0
   45.0360   35.8720   43.4620 C   0  0  0  0  0  0  0  0  0  0  0  0
   45.9090   34.8060   43.1720 C   0  0  0  0  0  0  0  0  0  0  0  0
   46.1610   33.9020   44.1630 N   0  0  0  0  0  0  0  0  0  0  0  0
   45.6000   34.0050   45.3940 C   0  0  0  0  0  0  0  0  0  0  0  0
   44.7690   35.0150   45.6740 N   0  0  0  0  0  0  0  0  0  0  0  0
   46.0480   32.7260   46.5600 S   0  0  0  0  0  0  0  0  0  0  0  0
   48.9423   35.7178   42.8610 H   0  0  0  0  0  0  0  0  0  0  0  0
   51.2406   34.8995   43.1537 H   0  0  0  0  0  0  0  0  0  0  0  0
   51.9538   32.7071   42.2326 H   0  0  0  0  0  0  0  0  0  0  0  0
   50.2847   31.3103   40.9827 H   0  0  0  0  0  0  0  0  0  0  0  0
   46.7882   32.4616   40.4861 H   0  0  0  0  0  0  0  0  0  0  0  0
   43.7959   36.7716   44.9787 H   0  0  0  0  0  0  0  0  0  0  0  0
   44.7996   36.6289   42.6996 H   0  0  0  0  0  0  0  0  0  0  0  0
   45.8839   33.1944   47.8370 H   0  0  0  0  0  0  0  0  0  0  0  0
  1  2  2  0
  2  3  1  0
  4  3  2  0
  5  4  1  0
  6  5  2  0
  6  1  1  0
  7  6  1  0
  8  1  1  0
  8 11  1  0
  9 14  2  0
 10  9  1  0
 11 10  2  0
 11 12  1  0
 12 13  2  0
 13 14  1  0
 13 15  1  0
  2 16  1  0
  3 17  1  0
  4 18  1  0
  5 19  1  0
  7 20  1  0
  9 21  1  0
 10 22  1  0
 15 23  1  0
M  ISO  8  16  14  17  14  18  14  19  14  20   3  21  14  22  14  23  11
M  END
>  <minimizedAffinity>  (1) 
-4.9313283

>  <minimizedRMSD>  (1) 
0.153040454

$$$$
