
     RDKit          3D

 51 54  0  0  1  0  0  0  0  0999 V2000
   48.0230   34.3530   41.1730 C   0  0  2  0  0  0  0  0  0  0  0  0
   48.5760   35.5940   41.5400 C   0  0  0  0  0  0  0  0  0  0  0  0
   49.8840   35.2970   42.3200 C   0  0  0  0  0  0  0  0  0  0  0  0
   50.0720   33.7920   42.3450 C   0  0  0  0  0  0  0  0  0  0  0  0
   48.7090   33.3110   42.1390 C   0  0  1  0  0  0  0  0  0  0  0  0
   48.2150   33.7570   39.8210 C   0  0  0  0  0  0  0  0  0  0  0  0
   48.3410   34.6220   38.7580 C   0  0  0  0  0  0  0  0  0  0  0  0
   48.5220   34.1460   37.4800 C   0  0  0  0  0  0  0  0  0  0  0  0
   48.5630   32.7710   37.3530 N   0  0  0  0  0  0  0  0  0  0  0  0
   48.4380   31.9740   38.4080 C   0  0  0  0  0  0  0  0  0  0  0  0
   48.2620   32.4410   39.6530 N   0  0  0  0  0  0  0  0  0  0  0  0
   47.9450   33.2700   43.4240 C   0  0  0  0  0  0  0  0  0  0  0  0
   46.4900   33.0100   43.1960 C   0  0  0  0  0  0  0  0  0  0  0  0
   45.7530   33.9320   44.1080 C   0  0  0  0  0  0  0  0  0  0  0  0
   45.2180   35.1520   43.8370 C   0  0  0  0  0  0  0  0  0  0  0  0
   44.6410   35.6310   44.9680 N   0  0  0  0  0  0  0  0  0  0  0  0
   44.8230   34.7100   45.9220 C   0  0  0  0  0  0  0  0  0  0  0  0
   45.4910   33.6730   45.4330 N   0  0  0  0  0  0  0  0  0  0  0  0
   45.8800   32.4630   46.1450 C   0  0  0  0  0  0  0  0  0  0  0  0
   45.8680   32.6230   47.5610 N   0  0  0  0  0  0  0  0  0  0  0  0
   44.8680   31.8440   48.2250 C   0  0  0  0  0  0  0  0  0  0  0  0
   45.5560   31.1510   49.3870 C   0  0  0  0  0  0  0  0  0  0  0  0
   46.9700   31.0210   48.8020 C   0  0  0  0  0  0  0  0  0  0  0  0
   47.1320   32.3940   48.1880 C   0  0  0  0  0  0  0  0  0  0  0  0
   46.9424   34.5548   41.2119 H   0  0  0  0  0  0  0  0  0  0  0  0
   48.7989   36.1884   40.6417 H   0  0  0  0  0  0  0  0  0  0  0  0
   47.8721   36.1687   42.1598 H   0  0  0  0  0  0  0  0  0  0  0  0
   50.7377   35.7732   41.8157 H   0  0  0  0  0  0  0  0  0  0  0  0
   49.8222   35.6954   43.3434 H   0  0  0  0  0  0  0  0  0  0  0  0
   50.7395   33.4593   41.5364 H   0  0  0  0  0  0  0  0  0  0  0  0
   50.5384   33.4191   43.2688 H   0  0  0  0  0  0  0  0  0  0  0  0
   48.7218   32.2909   41.7277 H   0  0  0  0  0  0  0  0  0  0  0  0
   48.2964   35.7072   38.9324 H   0  0  0  0  0  0  0  0  0  0  0  0
   48.6273   34.8171   36.6148 H   0  0  0  0  0  0  0  0  0  0  0  0
   48.4806   30.8856   38.2544 H   0  0  0  0  0  0  0  0  0  0  0  0
   48.3551   32.4692   44.0568 H   0  0  0  0  0  0  0  0  0  0  0  0
   48.0450   34.2502   43.9131 H   0  0  0  0  0  0  0  0  0  0  0  0
   46.2253   33.2178   42.1487 H   0  0  0  0  0  0  0  0  0  0  0  0
   46.2348   31.9592   43.3976 H   0  0  0  0  0  0  0  0  0  0  0  0
   45.2478   35.6648   42.8643 H   0  0  0  0  0  0  0  0  0  0  0  0
   44.4702   34.7997   46.9600 H   0  0  0  0  0  0  0  0  0  0  0  0
   45.1798   31.6580   45.8771 H   0  0  0  0  0  0  0  0  0  0  0  0
   46.9122   32.2241   45.8492 H   0  0  0  0  0  0  0  0  0  0  0  0
   44.0632   32.4961   48.5951 H   0  0  0  0  0  0  0  0  0  0  0  0
   44.4161   31.1123   47.5391 H   0  0  0  0  0  0  0  0  0  0  0  0
   45.5437   31.7673   50.2980 H   0  0  0  0  0  0  0  0  0  0  0  0
   45.0937   30.2064   49.7095 H   0  0  0  0  0  0  0  0  0  0  0  0
   47.7194   30.8338   49.5851 H   0  0  0  0  0  0  0  0  0  0  0  0
   47.1049   30.1833   48.1020 H   0  0  0  0  0  0  0  0  0  0  0  0
   47.9462   32.4017   47.4484 H   0  0  0  0  0  0  0  0  0  0  0  0
   47.3944   33.1676   48.9247 H   0  0  0  0  0  0  0  0  0  0  0  0
  1  2  1  0
  1  5  1  0
  2  3  1  0
  3  4  1  0
  5  4  1  0
  5 12  1  0
  6  1  1  0
  7  6  2  0
  8  7  1  0
  9  8  2  0
  9 10  1  0
 10 11  2  0
 11  6  1  0
 13 12  1  0
 13 14  1  0
 14 18  1  0
 15 14  2  0
 15 16  1  0
 16 17  2  0
 18 17  1  0
 18 19  1  0
 19 20  1  0
 20 24  1  0
 20 21  1  0
 21 22  1  0
 23 22  1  0
 24 23  1  0
  1 25  1  1
  2 26  1  0
  2 27  1  0
  3 28  1  0
  3 29  1  0
  4 30  1  0
  4 31  1  0
  5 32  1  6
  7 33  1  0
  8 34  1  0
 10 35  1  0
 12 36  1  0
 12 37  1  0
 13 38  1  0
 13 39  1  0
 15 40  1  0
 17 41  1  0
 19 42  1  0
 19 43  1  0
 21 44  1  0
 21 45  1  0
 22 46  1  0
 22 47  1  0
 23 48  1  0
 23 49  1  0
 24 50  1  0
 24 51  1  0
M  ISO  8  25  13  26  13  27  13  28  13  29  13  30  13  31  13  32  13
M  ISO  8  33  14  34  14  35  14  36   8  37   8  38   8  39   8  40  14
M  ISO  8  41  14  42   8  43   8  44  13  45  13  46  13  47  13  48  13
M  ISO  3  49  13  50  13  51  13
M  END
>  <minimizedAffinity>  (1) 
-6.24060249

>  <minimizedRMSD>  (1) 
1.21090174

$$$$
