
     RDKit          3D

 52 55  0  0  1  0  0  0  0  0999 V2000
   47.8910   34.5290   41.2750 C   0  0  2  0  0  0  0  0  0  0  0  0
   48.6410   35.6610   41.6390 C   0  0  0  0  0  0  0  0  0  0  0  0
   49.9310   35.1450   42.3310 C   0  0  0  0  0  0  0  0  0  0  0  0
   49.8960   33.6310   42.3050 C   0  0  0  0  0  0  0  0  0  0  0  0
   48.4680   33.3680   42.1700 C   0  0  1  0  0  0  0  0  0  0  0  0
   47.9140   33.9540   39.9000 C   0  0  0  0  0  0  0  0  0  0  0  0
   48.4120   34.7420   38.8950 C   0  0  0  0  0  0  0  0  0  0  0  0
   48.4650   34.2800   37.6010 C   0  0  0  0  0  0  0  0  0  0  0  0
   47.9910   32.9980   37.4000 N   0  0  0  0  0  0  0  0  0  0  0  0
   47.5170   32.2690   38.4040 C   0  0  0  0  0  0  0  0  0  0  0  0
   47.4650   32.7170   39.6620 N   0  0  0  0  0  0  0  0  0  0  0  0
   47.7960   33.3880   43.5080 C   0  0  0  0  0  0  0  0  0  0  0  0
   46.3480   33.0560   43.3990 C   0  0  0  0  0  0  0  0  0  0  0  0
   45.6260   33.9730   44.3240 C   0  0  0  0  0  0  0  0  0  0  0  0
   45.0460   35.1760   44.0680 C   0  0  0  0  0  0  0  0  0  0  0  0
   44.5000   35.6410   45.2170 N   0  0  0  0  0  0  0  0  0  0  0  0
   44.7390   34.7360   46.1710 C   0  0  0  0  0  0  0  0  0  0  0  0
   45.4190   33.7230   45.6460 N   0  0  0  0  0  0  0  0  0  0  0  0
   45.8520   32.5330   46.3710 C   0  0  0  0  0  0  0  0  0  0  0  0
   45.7130   32.5780   47.8360 C   0  0  0  0  0  0  0  0  0  0  0  0
   47.0510   32.1210   48.4360 C   0  0  0  0  0  0  0  0  0  0  0  0
   47.0370   30.6460   48.1730 C   0  0  0  0  0  0  0  0  0  0  0  0
   45.5750   30.2660   48.3740 C   0  0  0  0  0  0  0  0  0  0  0  0
   44.8000   31.5610   48.4380 C   0  0  0  0  0  0  0  0  0  0  0  0
   46.8568   34.8878   41.3829 H   0  0  0  0  0  0  0  0  0  0  0  0
   48.9001   36.2465   40.7446 H   0  0  0  0  0  0  0  0  0  0  0  0
   48.0667   36.3131   42.3135 H   0  0  0  0  0  0  0  0  0  0  0  0
   50.8170   35.5082   41.7897 H   0  0  0  0  0  0  0  0  0  0  0  0
   49.9839   35.5105   43.3671 H   0  0  0  0  0  0  0  0  0  0  0  0
   50.4595   33.2320   41.4487 H   0  0  0  0  0  0  0  0  0  0  0  0
   50.3544   33.1596   43.1868 H   0  0  0  0  0  0  0  0  0  0  0  0
   48.2932   32.3773   41.7250 H   0  0  0  0  0  0  0  0  0  0  0  0
   48.7732   35.7550   39.1262 H   0  0  0  0  0  0  0  0  0  0  0  0
   48.8601   34.8928   36.7774 H   0  0  0  0  0  0  0  0  0  0  0  0
   47.1518   31.2535   38.1910 H   0  0  0  0  0  0  0  0  0  0  0  0
   48.2830   32.6507   44.1632 H   0  0  0  0  0  0  0  0  0  0  0  0
   47.8862   34.4026   43.9233 H   0  0  0  0  0  0  0  0  0  0  0  0
   46.0010   33.2092   42.3665 H   0  0  0  0  0  0  0  0  0  0  0  0
   46.1632   32.0040   43.6619 H   0  0  0  0  0  0  0  0  0  0  0  0
   45.0240   35.6851   43.0932 H   0  0  0  0  0  0  0  0  0  0  0  0
   44.4234   34.8170   47.2216 H   0  0  0  0  0  0  0  0  0  0  0  0
   45.2596   31.6821   46.0036 H   0  0  0  0  0  0  0  0  0  0  0  0
   46.9320   32.4487   46.1802 H   0  0  0  0  0  0  0  0  0  0  0  0
   45.3550   33.5980   48.0395 H   0  0  0  0  0  0  0  0  0  0  0  0
   47.8994   32.6067   47.9318 H   0  0  0  0  0  0  0  0  0  0  0  0
   47.1644   32.3758   49.5001 H   0  0  0  0  0  0  0  0  0  0  0  0
   47.6839   30.1129   48.8853 H   0  0  0  0  0  0  0  0  0  0  0  0
   47.4157   30.3840   47.1740 H   0  0  0  0  0  0  0  0  0  0  0  0
   45.2223   29.6533   47.5312 H   0  0  0  0  0  0  0  0  0  0  0  0
   45.4401   29.6759   49.2925 H   0  0  0  0  0  0  0  0  0  0  0  0
   44.5634   31.8206   49.4804 H   0  0  0  0  0  0  0  0  0  0  0  0
   43.8387   31.4979   47.9071 H   0  0  0  0  0  0  0  0  0  0  0  0
  1  2  1  0
  1  5  1  0
  2  3  1  0
  4  3  1  0
  5  4  1  0
  5 12  1  0
  6  1  1  0
  7  6  2  0
  8  7  1  0
  9  8  2  0
  9 10  1  0
 10 11  2  0
 11  6  1  0
 13 12  1  0
 13 14  1  0
 14 18  1  0
 15 14  2  0
 15 16  1  0
 16 17  2  0
 18 17  1  0
 18 19  1  0
 19 20  1  0
 20 21  1  0
 20 24  1  0
 22 23  1  0
 22 21  1  0
 23 24  1  0
  1 25  1  1
  2 26  1  0
  2 27  1  0
  3 28  1  0
  3 29  1  0
  4 30  1  0
  4 31  1  0
  5 32  1  6
  7 33  1  0
  8 34  1  0
 10 35  1  0
 12 36  1  0
 12 37  1  0
 13 38  1  0
 13 39  1  0
 15 40  1  0
 17 41  1  0
 19 42  1  0
 19 43  1  0
 20 44  1  0
 21 45  1  0
 21 46  1  0
 22 47  1  0
 22 48  1  0
 23 49  1  0
 23 50  1  0
 24 51  1  0
 24 52  1  0
M  ISO  8  25  13  26  13  27  13  28  13  29  13  30  13  31  13  32  13
M  ISO  8  33  14  34  14  35  14  36   8  37   8  38   8  39   8  40  14
M  ISO  8  41  14  42   8  43   8  44  13  45  13  46  13  47  13  48  13
M  ISO  4  49  13  50  13  51  13  52  13
M  END
>  <minimizedAffinity>  (1) 
-6.22965765

>  <minimizedRMSD>  (1) 
1.43947721

$$$$
