
     RDKit          3D

 48 52  0  0  1  0  0  0  0  0999 V2000
   46.4740   31.7220   46.9740 C   0  0  2  0  0  0  0  0  0  0  0  0
   45.2950   30.7620   47.2270 C   0  0  0  0  0  0  0  0  0  0  0  0
   44.6990   31.2640   48.4980 C   0  0  0  0  0  0  0  0  0  0  0  0
   45.8720   31.6510   49.3330 C   0  0  0  0  0  0  0  0  0  0  0  0
   46.9070   32.1670   48.3440 C   0  0  1  0  0  0  0  0  0  0  0  0
   48.1490   31.4860   48.6570 N   0  0  0  0  0  0  0  0  0  0  0  0
   49.2350   31.9640   49.2740 C   0  0  0  0  0  0  0  0  0  0  0  0
   50.2010   31.0340   49.3890 N   0  0  0  0  0  0  0  0  0  0  0  0
   49.7330   29.9220   48.8310 C   0  0  0  0  0  0  0  0  0  0  0  0
   50.3530   28.6990   48.7030 C   0  0  0  0  0  0  0  0  0  0  0  0
   49.6360   27.7260   48.0840 N   0  0  0  0  0  0  0  0  0  0  0  0
   48.3770   27.9800   47.6270 C   0  0  0  0  0  0  0  0  0  0  0  0
   47.7790   29.1950   47.7610 N   0  0  0  0  0  0  0  0  0  0  0  0
   48.4600   30.2020   48.3760 C   0  0  0  0  0  0  0  0  0  0  0  0
   51.6680   28.4650   49.1910 N   0  0  0  0  0  0  0  0  0  0  0  0
   44.6560   34.8160   46.1090 C   0  0  0  0  0  0  0  0  0  0  0  0
   45.0570   35.1200   44.8200 C   0  0  0  0  0  0  0  0  0  0  0  0
   45.9900   34.2310   44.2170 C   0  0  0  0  0  0  0  0  0  0  0  0
   46.4140   33.1610   44.9430 N   0  0  0  0  0  0  0  0  0  0  0  0
   45.9940   32.9060   46.1950 C   0  0  0  0  0  0  0  0  0  0  0  0
   45.1140   33.7350   46.7750 N   0  0  0  0  0  0  0  0  0  0  0  0
   46.5830   34.5200   42.5550 S   0  0  0  0  0  0  0  0  0  0  0  0
   48.2010   33.8530   42.3580 C   0  0  0  0  0  0  0  0  0  0  0  0
   49.2530   34.7080   42.6370 C   0  0  0  0  0  0  0  0  0  0  0  0
   50.5480   34.2550   42.5050 C   0  0  0  0  0  0  0  0  0  0  0  0
   50.8290   32.9590   42.0960 C   0  0  0  0  0  0  0  0  0  0  0  0
   49.7630   32.1160   41.8210 C   0  0  0  0  0  0  0  0  0  0  0  0
   48.4690   32.5660   41.9520 C   0  0  0  0  0  0  0  0  0  0  0  0
   47.3360   31.8080   41.7030 O   0  0  0  0  0  0  0  0  0  0  0  0
   47.2891   31.2477   46.4077 H   0  0  0  0  0  0  0  0  0  0  0  0
   44.5655   30.8111   46.4051 H   0  0  0  0  0  0  0  0  0  0  0  0
   45.6074   29.7091   47.2886 H   0  0  0  0  0  0  0  0  0  0  0  0
   44.0533   32.1339   48.3077 H   0  0  0  0  0  0  0  0  0  0  0  0
   44.0661   30.5105   48.9895 H   0  0  0  0  0  0  0  0  0  0  0  0
   45.5941   32.4392   50.0482 H   0  0  0  0  0  0  0  0  0  0  0  0
   46.2529   30.8069   49.9266 H   0  0  0  0  0  0  0  0  0  0  0  0
   47.0177   33.2605   48.3887 H   0  0  0  0  0  0  0  0  0  0  0  0
   49.3278   32.9958   49.6439 H   0  0  0  0  0  0  0  0  0  0  0  0
   47.8223   27.1704   47.1301 H   0  0  0  0  0  0  0  0  0  0  0  0
   52.1017   27.5376   49.0783 H   0  0  0  0  0  0  0  0  0  0  0  0
   52.1868   29.2229   49.6572 H   0  0  0  0  0  0  0  0  0  0  0  0
   43.9367   35.4805   46.6099 H   0  0  0  0  0  0  0  0  0  0  0  0
   44.6740   36.0038   44.2887 H   0  0  0  0  0  0  0  0  0  0  0  0
   49.0572   35.7407   42.9614 H   0  0  0  0  0  0  0  0  0  0  0  0
   51.3802   34.9383   42.7296 H   0  0  0  0  0  0  0  0  0  0  0  0
   51.8673   32.6106   41.9930 H   0  0  0  0  0  0  0  0  0  0  0  0
   49.9526   31.0822   41.4965 H   0  0  0  0  0  0  0  0  0  0  0  0
   46.4377   32.2069   41.8213 H   0  0  0  0  0  0  0  0  0  0  0  0
  1  2  1  0
  1  5  1  0
  2  3  1  0
  3  4  1  0
  5  6  1  0
  5  4  1  0
  6  7  1  0
  7  8  2  0
  9  8  1  0
 10  9  2  0
 10 15  1  0
 11 10  1  0
 12 13  1  0
 12 11  2  0
 13 14  2  0
 14  6  1  0
 14  9  1  0
 16 21  2  0
 17 16  1  0
 18 17  2  0
 18 19  1  0
 19 20  2  0
 20 21  1  0
 20  1  1  0
 22 18  1  0
 23 22  1  0
 23 24  2  0
 25 24  1  0
 26 25  2  0
 27 28  2  0
 27 26  1  0
 28 23  1  0
 29 28  1  0
  1 30  1  6
  2 31  1  0
  2 32  1  0
  3 33  1  0
  3 34  1  0
  4 35  1  0
  4 36  1  0
  5 37  1  6
  7 38  1  0
 12 39  1  0
 15 40  1  0
 15 41  1  0
 16 42  1  0
 17 43  1  0
 24 44  1  0
 25 45  1  0
 26 46  1  0
 27 47  1  0
 29 48  1  0
M  ISO  8  30  13  31  13  32  13  33  13  34  13  35  13  36  13  37  13
M  ISO  8  38  14  39  14  42  14  43  14  44  14  45  14  46  14  47  14
M  ISO  1  48   3
M  END
>  <minimizedAffinity>  (1) 
-6.55864811

>  <minimizedRMSD>  (1) 
0.737465858

$$$$
