
     RDKit          3D

 42 45  0  0  1  0  0  0  0  0999 V2000
   44.6930   34.7640   46.1110 C   0  0  0  0  0  0  0  0  0  0  0  0
   45.0870   35.0540   44.8050 C   0  0  0  0  0  0  0  0  0  0  0  0
   46.0140   34.1690   44.2090 C   0  0  0  0  0  0  0  0  0  0  0  0
   46.4530   33.1080   44.9400 N   0  0  0  0  0  0  0  0  0  0  0  0
   46.0440   32.8660   46.2050 C   0  0  0  0  0  0  0  0  0  0  0  0
   45.1670   33.6910   46.7880 N   0  0  0  0  0  0  0  0  0  0  0  0
   46.5280   31.7080   46.9970 C   0  0  2  0  0  0  0  0  0  0  0  0
   45.3970   30.6790   47.1850 C   0  0  0  0  0  0  0  0  0  0  0  0
   44.7040   31.1490   48.4330 C   0  0  0  0  0  0  0  0  0  0  0  0
   45.8440   31.5410   49.3160 C   0  0  0  0  0  0  0  0  0  0  0  0
   46.8910   32.1420   48.3920 C   0  0  1  0  0  0  0  0  0  0  0  0
   48.2510   31.6360   48.7580 C   0  0  0  0  0  0  0  0  0  0  0  0
   48.6690   30.3420   48.5690 C   0  0  0  0  0  0  0  0  0  0  0  0
   49.9680   30.2680   49.0280 C   0  0  0  0  0  0  0  0  0  0  0  0
   50.2760   31.5550   49.4820 C   0  0  0  0  0  0  0  0  0  0  0  0
   49.2190   32.3030   49.2910 O   0  0  0  0  0  0  0  0  0  0  0  0
   46.5870   34.4410   42.5430 S   0  0  0  0  0  0  0  0  0  0  0  0
   48.2430   33.8100   42.3570 C   0  0  0  0  0  0  0  0  0  0  0  0
   49.2650   34.6810   42.6360 C   0  0  0  0  0  0  0  0  0  0  0  0
   50.5590   34.2500   42.5090 C   0  0  0  0  0  0  0  0  0  0  0  0
   50.8750   32.9520   42.1050 C   0  0  0  0  0  0  0  0  0  0  0  0
   49.8260   32.0890   41.8280 C   0  0  0  0  0  0  0  0  0  0  0  0
   48.5150   32.5230   41.9550 C   0  0  0  0  0  0  0  0  0  0  0  0
   47.3830   31.7430   41.7040 O   0  0  0  0  0  0  0  0  0  0  0  0
   43.9724   35.4297   46.6084 H   0  0  0  0  0  0  0  0  0  0  0  0
   44.6955   35.9288   44.2651 H   0  0  0  0  0  0  0  0  0  0  0  0
   47.3884   31.2872   46.4560 H   0  0  0  0  0  0  0  0  0  0  0  0
   44.7099   30.6876   46.3260 H   0  0  0  0  0  0  0  0  0  0  0  0
   45.7647   29.6451   47.2609 H   0  0  0  0  0  0  0  0  0  0  0  0
   44.0508   32.0090   48.2237 H   0  0  0  0  0  0  0  0  0  0  0  0
   44.0480   30.3877   48.8803 H   0  0  0  0  0  0  0  0  0  0  0  0
   45.5164   32.2832   50.0588 H   0  0  0  0  0  0  0  0  0  0  0  0
   46.2406   30.6800   49.8740 H   0  0  0  0  0  0  0  0  0  0  0  0
   46.9136   33.2389   48.4718 H   0  0  0  0  0  0  0  0  0  0  0  0
   48.0804   29.5207   48.1344 H   0  0  0  0  0  0  0  0  0  0  0  0
   50.6229   29.3842   49.0354 H   0  0  0  0  0  0  0  0  0  0  0  0
   51.2318   31.8791   49.9195 H   0  0  0  0  0  0  0  0  0  0  0  0
   49.0487   35.7106   42.9571 H   0  0  0  0  0  0  0  0  0  0  0  0
   51.3768   34.9507   42.7330 H   0  0  0  0  0  0  0  0  0  0  0  0
   51.9209   32.6248   42.0096 H   0  0  0  0  0  0  0  0  0  0  0  0
   50.0340   31.0577   41.5068 H   0  0  0  0  0  0  0  0  0  0  0  0
   46.4793   32.1306   41.8192 H   0  0  0  0  0  0  0  0  0  0  0  0
  1  6  2  0
  2  1  1  0
  3  2  2  0
  3  4  1  0
  4  5  2  0
  5  6  1  0
  5  7  1  0
  7  8  1  0
  7 11  1  0
  8  9  1  0
  9 10  1  0
 11 12  1  0
 11 10  1  0
 12 16  1  0
 13 12  2  0
 13 14  1  0
 14 15  2  0
 16 15  1  0
 17  3  1  0
 18 17  1  0
 18 19  2  0
 20 19  1  0
 21 20  2  0
 22 23  2  0
 22 21  1  0
 23 18  1  0
 24 23  1  0
  1 25  1  0
  2 26  1  0
  7 27  1  6
  8 28  1  0
  8 29  1  0
  9 30  1  0
  9 31  1  0
 10 32  1  0
 10 33  1  0
 11 34  1  6
 13 35  1  0
 14 36  1  0
 15 37  1  0
 19 38  1  0
 20 39  1  0
 21 40  1  0
 22 41  1  0
 24 42  1  0
M  ISO  8  25  14  26  14  27  13  28  13  29  13  30  13  31  13  32  13
M  ISO  8  33  13  34  13  35  14  36  14  37  14  38  14  39  14  40  14
M  ISO  2  41  14  42   3
M  END
>  <minimizedAffinity>  (1) 
-6.18299246

>  <minimizedRMSD>  (1) 
0.747557819

$$$$
