
     RDKit          3D

 52 55  0  0  1  0  0  0  0  0999 V2000
   48.1180   33.2000   43.5500 C   0  0  0  0  0  0  0  0  0  0  0  0
   47.8960   34.3510   41.3450 C   0  0  2  0  0  0  0  0  0  0  0  0
   48.4800   35.5830   41.6890 C   0  0  0  0  0  0  0  0  0  0  0  0
   49.8740   35.2830   42.2850 C   0  0  0  0  0  0  0  0  0  0  0  0
   50.0840   33.7750   42.2300 C   0  0  0  0  0  0  0  0  0  0  0  0
   48.7080   33.2840   42.1810 C   0  0  1  0  0  0  0  0  0  0  0  0
   47.9240   33.8050   39.9610 C   0  0  0  0  0  0  0  0  0  0  0  0
   48.3320   34.6440   38.9500 C   0  0  0  0  0  0  0  0  0  0  0  0
   48.3830   34.2020   37.6440 C   0  0  0  0  0  0  0  0  0  0  0  0
   48.0060   32.8980   37.4440 N   0  0  0  0  0  0  0  0  0  0  0  0
   47.6180   32.1130   38.4390 C   0  0  0  0  0  0  0  0  0  0  0  0
   47.5670   32.5430   39.7090 N   0  0  0  0  0  0  0  0  0  0  0  0
   46.7080   32.6690   43.5060 C   0  0  0  0  0  0  0  0  0  0  0  0
   45.9200   33.4990   44.4580 C   0  0  0  0  0  0  0  0  0  0  0  0
   45.0310   34.5050   44.1940 C   0  0  0  0  0  0  0  0  0  0  0  0
   44.5750   34.9890   45.3830 N   0  0  0  0  0  0  0  0  0  0  0  0
   45.1770   34.2880   46.3520 C   0  0  0  0  0  0  0  0  0  0  0  0
   45.9940   33.3810   45.8300 N   0  0  0  0  0  0  0  0  0  0  0  0
   46.8060   32.4270   46.5650 C   0  0  0  0  0  0  0  0  0  0  0  0
   46.1730   31.1840   46.8510 N   0  0  0  0  0  0  0  0  0  0  0  0
   45.5020   30.2990   46.1150 C   0  0  0  0  0  0  0  0  0  0  0  0
   44.9550   29.1230   46.5660 C   0  0  0  0  0  0  0  0  0  0  0  0
   44.2370   28.2540   45.6030 C   0  0  0  0  0  0  0  0  0  0  0  0
   45.0890   28.7870   47.8960 C   0  0  0  0  0  0  0  0  0  0  0  0
   44.5890   27.7210   48.2860 O   0  0  0  0  0  0  0  0  0  0  0  0
   45.7640   29.6590   48.6710 N   0  0  0  0  0  0  0  0  0  0  0  0
   46.2700   30.7890   48.1610 C   0  0  0  0  0  0  0  0  0  0  0  0
   46.8640   31.4760   49.0290 O   0  0  0  0  0  0  0  0  0  0  0  0
   48.7348   32.5288   44.1656 H   0  0  0  0  0  0  0  0  0  0  0  0
   48.0952   34.2116   43.9814 H   0  0  0  0  0  0  0  0  0  0  0  0
   46.8265   34.5383   41.5214 H   0  0  0  0  0  0  0  0  0  0  0  0
   48.5817   36.2140   40.7937 H   0  0  0  0  0  0  0  0  0  0  0  0
   47.8538   36.1201   42.4166 H   0  0  0  0  0  0  0  0  0  0  0  0
   50.6512   35.7916   41.6957 H   0  0  0  0  0  0  0  0  0  0  0  0
   49.9364   35.6440   43.3222 H   0  0  0  0  0  0  0  0  0  0  0  0
   50.6465   33.4813   41.3315 H   0  0  0  0  0  0  0  0  0  0  0  0
   50.6702   33.3755   43.0707 H   0  0  0  0  0  0  0  0  0  0  0  0
   48.6740   32.2781   41.7372 H   0  0  0  0  0  0  0  0  0  0  0  0
   48.6208   35.6789   39.1855 H   0  0  0  0  0  0  0  0  0  0  0  0
   48.7048   34.8524   36.8173 H   0  0  0  0  0  0  0  0  0  0  0  0
   47.3284   31.0754   38.2164 H   0  0  0  0  0  0  0  0  0  0  0  0
   46.2975   32.7616   42.4897 H   0  0  0  0  0  0  0  0  0  0  0  0
   46.6727   31.6041   43.7795 H   0  0  0  0  0  0  0  0  0  0  0  0
   44.7360   34.8609   43.1959 H   0  0  0  0  0  0  0  0  0  0  0  0
   45.0171   34.4420   47.4294 H   0  0  0  0  0  0  0  0  0  0  0  0
   47.7088   32.2203   45.9714 H   0  0  0  0  0  0  0  0  0  0  0  0
   47.0169   32.8928   47.5389 H   0  0  0  0  0  0  0  0  0  0  0  0
   45.3744   30.5319   45.0475 H   0  0  0  0  0  0  0  0  0  0  0  0
   43.6304   27.5198   46.1534 H   0  0  0  0  0  0  0  0  0  0  0  0
   43.5816   28.8708   44.9706 H   0  0  0  0  0  0  0  0  0  0  0  0
   44.9663   27.7267   44.9706 H   0  0  0  0  0  0  0  0  0  0  0  0
   45.8927   29.4528   49.6719 H   0  0  0  0  0  0  0  0  0  0  0  0
  2  3  1  0
  2  6  1  0
  3  4  1  0
  5  4  1  0
  6  5  1  0
  6  1  1  0
  7  2  1  0
  8  7  2  0
  9  8  1  0
 10  9  2  0
 10 11  1  0
 11 12  2  0
 12  7  1  0
 13  1  1  0
 13 14  1  0
 14 18  1  0
 15 14  2  0
 15 16  1  0
 16 17  2  0
 18 17  1  0
 18 19  1  0
 19 20  1  0
 20 27  1  0
 21 22  2  0
 21 20  1  0
 22 24  1  0
 23 22  1  0
 24 25  2  0
 24 26  1  0
 27 26  1  0
 27 28  2  0
  1 29  1  0
  1 30  1  0
  2 31  1  1
  3 32  1  0
  3 33  1  0
  4 34  1  0
  4 35  1  0
  5 36  1  0
  5 37  1  0
  6 38  1  6
  8 39  1  0
  9 40  1  0
 11 41  1  0
 13 42  1  0
 13 43  1  0
 15 44  1  0
 17 45  1  0
 19 46  1  0
 19 47  1  0
 21 48  1  0
 23 49  1  0
 23 50  1  0
 23 51  1  0
 26 52  1  0
M  ISO  8  29   8  30   8  31  13  32  13  33  13  34  13  35  13  36  13
M  ISO  8  37  13  38  13  39  14  40  14  41  14  42   8  43   8  44  14
M  ISO  8  45  14  46   8  47   8  48  14  49   8  50   8  51   8  52   9
M  END
>  <minimizedAffinity>  (1) 
-6.12699413

>  <minimizedRMSD>  (1) 
1.89400792

$$$$
