
     RDKit          3D

 51 54  0  0  1  0  0  0  0  0999 V2000
   44.6340   34.6630   46.3670 C   0  0  0  0  0  0  0  0  0  0  0  0
   45.0360   35.0300   45.0860 C   0  0  0  0  0  0  0  0  0  0  0  0
   45.9200   34.1470   44.4240 C   0  0  0  0  0  0  0  0  0  0  0  0
   46.3210   33.0070   45.0670 N   0  0  0  0  0  0  0  0  0  0  0  0
   45.8990   32.7000   46.3100 C   0  0  0  0  0  0  0  0  0  0  0  0
   45.0600   33.5250   46.9550 N   0  0  0  0  0  0  0  0  0  0  0  0
   46.3390   31.4540   47.0140 C   0  0  2  0  0  0  0  0  0  0  0  0
   45.0970   30.6840   47.4960 C   0  0  0  0  0  0  0  0  0  0  0  0
   44.8500   31.2470   48.8560 C   0  0  0  0  0  0  0  0  0  0  0  0
   46.2220   31.4370   49.4320 C   0  0  0  0  0  0  0  0  0  0  0  0
   47.0870   31.8270   48.2660 C   0  0  1  0  0  0  0  0  0  0  0  0
   48.4220   31.1380   48.2480 C   0  0  0  0  0  0  0  0  0  0  0  0
   48.3390   29.6630   48.0530 C   0  0  0  0  0  0  0  0  0  0  0  0
   49.7040   29.1960   47.5270 C   0  0  0  0  0  0  0  0  0  0  0  0
   50.7880   29.8330   48.3430 C   0  0  0  0  0  0  0  0  0  0  0  0
   50.3160   30.3770   49.6580 C   0  0  0  0  0  0  0  0  0  0  0  0
   49.2210   31.3970   49.5100 C   0  0  0  0  0  0  0  0  0  0  0  0
   46.5030   34.5160   42.7740 S   0  0  0  0  0  0  0  0  0  0  0  0
   48.1530   33.9040   42.5540 C   0  0  0  0  0  0  0  0  0  0  0  0
   49.1540   34.8400   42.6290 C   0  0  0  0  0  0  0  0  0  0  0  0
   50.4650   34.4290   42.4660 C   0  0  0  0  0  0  0  0  0  0  0  0
   50.7950   33.0970   42.2290 C   0  0  0  0  0  0  0  0  0  0  0  0
   49.7600   32.1730   42.1580 C   0  0  0  0  0  0  0  0  0  0  0  0
   48.4530   32.5810   42.3200 C   0  0  0  0  0  0  0  0  0  0  0  0
   47.3510   31.7460   42.2690 O   0  0  0  0  0  0  0  0  0  0  0  0
   43.9468   35.3217   46.9182 H   0  0  0  0  0  0  0  0  0  0  0  0
   44.6843   35.9588   44.6131 H   0  0  0  0  0  0  0  0  0  0  0  0
   46.9570   30.8611   46.3237 H   0  0  0  0  0  0  0  0  0  0  0  0
   44.2387   30.8658   46.8325 H   0  0  0  0  0  0  0  0  0  0  0  0
   45.2420   29.5936   47.5015 H   0  0  0  0  0  0  0  0  0  0  0  0
   44.3186   32.2078   48.7896 H   0  0  0  0  0  0  0  0  0  0  0  0
   44.2209   30.5906   49.4752 H   0  0  0  0  0  0  0  0  0  0  0  0
   46.2151   32.2333   50.1909 H   0  0  0  0  0  0  0  0  0  0  0  0
   46.5887   30.5276   49.9306 H   0  0  0  0  0  0  0  0  0  0  0  0
   47.2921   32.9050   48.3419 H   0  0  0  0  0  0  0  0  0  0  0  0
   48.9309   31.5776   47.3775 H   0  0  0  0  0  0  0  0  0  0  0  0
   48.1147   29.1686   49.0097 H   0  0  0  0  0  0  0  0  0  0  0  0
   47.5391   29.4079   47.3424 H   0  0  0  0  0  0  0  0  0  0  0  0
   49.7757   28.1014   47.6095 H   0  0  0  0  0  0  0  0  0  0  0  0
   49.8142   29.4876   46.4721 H   0  0  0  0  0  0  0  0  0  0  0  0
   51.5638   29.0781   48.5385 H   0  0  0  0  0  0  0  0  0  0  0  0
   51.1672   30.6861   47.7612 H   0  0  0  0  0  0  0  0  0  0  0  0
   49.9387   29.5429   50.2678 H   0  0  0  0  0  0  0  0  0  0  0  0
   51.1717   30.8779   50.1344 H   0  0  0  0  0  0  0  0  0  0  0  0
   49.6665   32.4014   49.4568 H   0  0  0  0  0  0  0  0  0  0  0  0
   48.5488   31.3261   50.3778 H   0  0  0  0  0  0  0  0  0  0  0  0
   48.9181   35.8981   42.8154 H   0  0  0  0  0  0  0  0  0  0  0  0
   51.2701   35.1762   42.5253 H   0  0  0  0  0  0  0  0  0  0  0  0
   51.8425   32.7862   42.1020 H   0  0  0  0  0  0  0  0  0  0  0  0
   49.9840   31.1123   41.9719 H   0  0  0  0  0  0  0  0  0  0  0  0
   46.4421   32.1175   42.3956 H   0  0  0  0  0  0  0  0  0  0  0  0
  1  6  2  0
  2  1  1  0
  3  4  1  0
  3  2  2  0
  4  5  2  0
  5  6  1  0
  5  7  1  0
  7  8  1  0
  7 11  1  0
  8  9  1  0
  9 10  1  0
 11 10  1  0
 12 11  1  0
 12 17  1  0
 13 12  1  0
 14 13  1  0
 14 15  1  0
 15 16  1  0
 17 16  1  0
 18  3  1  0
 19 20  2  0
 19 18  1  0
 21 20  1  0
 22 21  2  0
 23 22  1  0
 23 24  2  0
 24 19  1  0
 25 24  1  0
  1 26  1  0
  2 27  1  0
  7 28  1  6
  8 29  1  0
  8 30  1  0
  9 31  1  0
  9 32  1  0
 10 33  1  0
 10 34  1  0
 11 35  1  6
 12 36  1  0
 13 37  1  0
 13 38  1  0
 14 39  1  0
 14 40  1  0
 15 41  1  0
 15 42  1  0
 16 43  1  0
 16 44  1  0
 17 45  1  0
 17 46  1  0
 20 47  1  0
 21 48  1  0
 22 49  1  0
 23 50  1  0
 25 51  1  0
M  ISO  8  26  14  27  14  28  13  29  13  30  13  31  13  32  13  33  13
M  ISO  8  34  13  35  13  36  13  37  13  38  13  39  13  40  13  41  13
M  ISO  8  42  13  43  13  44  13  45  13  46  13  47  14  48  14  49  14
M  ISO  2  50  14  51   3
M  END
>  <minimizedAffinity>  (1) 
-6.12697935

>  <minimizedRMSD>  (1) 
1.23620582

$$$$
