
     RDKit          3D

 43 46  0  0  1  0  0  0  0  0999 V2000
   44.7230   34.7110   46.1540 C   0  0  0  0  0  0  0  0  0  0  0  0
   45.1250   35.0280   44.8580 C   0  0  0  0  0  0  0  0  0  0  0  0
   46.0200   34.1350   44.2350 C   0  0  0  0  0  0  0  0  0  0  0  0
   46.4240   33.0410   44.9320 N   0  0  0  0  0  0  0  0  0  0  0  0
   46.0140   32.7670   46.1870 C   0  0  0  0  0  0  0  0  0  0  0  0
   45.1620   33.6100   46.7920 N   0  0  0  0  0  0  0  0  0  0  0  0
   46.4740   31.5580   46.9350 C   0  0  2  0  0  0  0  0  0  0  0  0
   45.2580   30.6680   47.2480 C   0  0  0  0  0  0  0  0  0  0  0  0
   44.7490   31.2050   48.5540 C   0  0  0  0  0  0  0  0  0  0  0  0
   46.0070   31.4730   49.3110 C   0  0  0  0  0  0  0  0  0  0  0  0
   47.0010   31.9780   48.2820 C   0  0  1  0  0  0  0  0  0  0  0  0
   48.3490   31.4040   48.5400 C   0  0  0  0  0  0  0  0  0  0  0  0
   48.7450   30.1800   48.0270 C   0  0  0  0  0  0  0  0  0  0  0  0
   50.0330   29.7360   48.3320 C   0  0  0  0  0  0  0  0  0  0  0  0
   50.8620   30.4870   49.1050 N   0  0  0  0  0  0  0  0  0  0  0  0
   50.4450   31.6870   49.5960 C   0  0  0  0  0  0  0  0  0  0  0  0
   49.2050   32.1050   49.2970 N   0  0  0  0  0  0  0  0  0  0  0  0
   46.6020   34.4390   42.5710 S   0  0  0  0  0  0  0  0  0  0  0  0
   48.2390   33.8030   42.3700 C   0  0  0  0  0  0  0  0  0  0  0  0
   49.2690   34.6630   42.6530 C   0  0  0  0  0  0  0  0  0  0  0  0
   50.5700   34.2280   42.5160 C   0  0  0  0  0  0  0  0  0  0  0  0
   50.8690   32.9400   42.1000 C   0  0  0  0  0  0  0  0  0  0  0  0
   49.8100   32.0740   41.8160 C   0  0  0  0  0  0  0  0  0  0  0  0
   48.5190   32.5110   41.9520 C   0  0  0  0  0  0  0  0  0  0  0  0
   47.3940   31.7430   41.7010 O   0  0  0  0  0  0  0  0  0  0  0  0
   44.0236   35.3829   46.6730 H   0  0  0  0  0  0  0  0  0  0  0  0
   44.7615   35.9312   44.3461 H   0  0  0  0  0  0  0  0  0  0  0  0
   47.2328   31.0410   46.3293 H   0  0  0  0  0  0  0  0  0  0  0  0
   44.4935   30.7584   46.4623 H   0  0  0  0  0  0  0  0  0  0  0  0
   45.5141   29.5994   47.2979 H   0  0  0  0  0  0  0  0  0  0  0  0
   44.1713   32.1291   48.4048 H   0  0  0  0  0  0  0  0  0  0  0  0
   44.0657   30.5164   49.0726 H   0  0  0  0  0  0  0  0  0  0  0  0
   45.8346   32.2353   50.0851 H   0  0  0  0  0  0  0  0  0  0  0  0
   46.3738   30.5718   49.8240 H   0  0  0  0  0  0  0  0  0  0  0  0
   47.1095   33.0716   48.3288 H   0  0  0  0  0  0  0  0  0  0  0  0
   48.0687   29.5790   47.4014 H   0  0  0  0  0  0  0  0  0  0  0  0
   50.3810   28.7679   47.9426 H   0  0  0  0  0  0  0  0  0  0  0  0
   51.1092   32.2996   50.2233 H   0  0  0  0  0  0  0  0  0  0  0  0
   49.0591   35.6901   42.9861 H   0  0  0  0  0  0  0  0  0  0  0  0
   51.3930   34.9217   42.7429 H   0  0  0  0  0  0  0  0  0  0  0  0
   51.9127   32.6084   41.9962 H   0  0  0  0  0  0  0  0  0  0  0  0
   50.0123   31.0449   41.4844 H   0  0  0  0  0  0  0  0  0  0  0  0
   46.4918   32.1320   41.8229 H   0  0  0  0  0  0  0  0  0  0  0  0
  1  6  2  0
  2  1  1  0
  3  2  2  0
  3  4  1  0
  4  5  2  0
  5  6  1  0
  5  7  1  0
  7  8  1  0
  7 11  1  0
  8  9  1  0
  9 10  1  0
 11 12  1  0
 11 10  1  0
 12 17  2  0
 13 14  2  0
 13 12  1  0
 14 15  1  0
 15 16  2  0
 17 16  1  0
 18  3  1  0
 19 18  1  0
 19 20  2  0
 21 20  1  0
 22 21  2  0
 23 24  2  0
 23 22  1  0
 24 19  1  0
 25 24  1  0
  1 26  1  0
  2 27  1  0
  7 28  1  6
  8 29  1  0
  8 30  1  0
  9 31  1  0
  9 32  1  0
 10 33  1  0
 10 34  1  0
 11 35  1  6
 13 36  1  0
 14 37  1  0
 16 38  1  0
 20 39  1  0
 21 40  1  0
 22 41  1  0
 23 42  1  0
 25 43  1  0
M  ISO  8  26  14  27  14  28  13  29  13  30  13  31  13  32  13  33  13
M  ISO  8  34  13  35  13  36  14  37  14  38  14  39  14  40  14  41  14
M  ISO  2  42  14  43   3
M  END
>  <minimizedAffinity>  (1) 
-6.12094688

>  <minimizedRMSD>  (1) 
0.941749394

$$$$
