
     RDKit          3D

 49 52  0  0  1  0  0  0  0  0999 V2000
   48.0330   33.1640   43.3290 C   0  0  0  0  0  0  0  0  0  0  0  0
   48.0620   34.2900   41.1030 C   0  0  2  0  0  0  0  0  0  0  0  0
   48.5360   35.5490   41.5100 C   0  0  0  0  0  0  0  0  0  0  0  0
   49.8520   35.3060   42.2970 C   0  0  0  0  0  0  0  0  0  0  0  0
   50.1280   33.8150   42.2810 C   0  0  0  0  0  0  0  0  0  0  0  0
   48.7990   33.2610   42.0470 C   0  0  1  0  0  0  0  0  0  0  0  0
   48.3050   33.7430   39.7360 C   0  0  0  0  0  0  0  0  0  0  0  0
   48.3600   34.6410   38.6950 C   0  0  0  0  0  0  0  0  0  0  0  0
   48.5770   34.2050   37.4050 C   0  0  0  0  0  0  0  0  0  0  0  0
   48.7310   32.8410   37.2520 N   0  0  0  0  0  0  0  0  0  0  0  0
   48.6720   32.0090   38.2830 C   0  0  0  0  0  0  0  0  0  0  0  0
   48.4600   32.4260   39.5410 N   0  0  0  0  0  0  0  0  0  0  0  0
   46.5990   32.7780   43.0690 C   0  0  0  0  0  0  0  0  0  0  0  0
   45.7640   33.7300   43.8490 C   0  0  0  0  0  0  0  0  0  0  0  0
   44.7830   34.5650   43.4120 C   0  0  0  0  0  0  0  0  0  0  0  0
   44.3080   35.2670   44.4790 N   0  0  0  0  0  0  0  0  0  0  0  0
   44.9960   34.8600   45.5540 C   0  0  0  0  0  0  0  0  0  0  0  0
   45.8780   33.9330   45.2000 N   0  0  0  0  0  0  0  0  0  0  0  0
   46.7900   33.2420   46.0940 C   0  0  0  0  0  0  0  0  0  0  0  0
   46.1500   32.2530   46.9250 N   0  0  0  0  0  0  0  0  0  0  0  0
   45.2690   32.3310   47.9270 C   0  0  0  0  0  0  0  0  0  0  0  0
   44.7590   31.2510   48.6070 C   0  0  0  0  0  0  0  0  0  0  0  0
   45.1690   29.9840   48.2500 C   0  0  0  0  0  0  0  0  0  0  0  0
   44.6920   29.0080   48.8830 O   0  0  0  0  0  0  0  0  0  0  0  0
   46.0550   29.8810   47.2450 N   0  0  0  0  0  0  0  0  0  0  0  0
   46.5220   30.9720   46.6130 C   0  0  0  0  0  0  0  0  0  0  0  0
   47.3450   30.6360   45.6990 O   0  0  0  0  0  0  0  0  0  0  0  0
   48.5003   32.4031   43.9714 H   0  0  0  0  0  0  0  0  0  0  0  0
   48.0491   34.1462   43.8241 H   0  0  0  0  0  0  0  0  0  0  0  0
   46.9712   34.4282   41.1353 H   0  0  0  0  0  0  0  0  0  0  0  0
   48.7326   36.1808   40.6312 H   0  0  0  0  0  0  0  0  0  0  0  0
   47.7932   36.0642   42.1368 H   0  0  0  0  0  0  0  0  0  0  0  0
   50.6813   35.8460   41.8167 H   0  0  0  0  0  0  0  0  0  0  0  0
   49.7564   35.6698   43.3307 H   0  0  0  0  0  0  0  0  0  0  0  0
   50.8212   33.5459   41.4704 H   0  0  0  0  0  0  0  0  0  0  0  0
   50.6071   33.4436   43.1989 H   0  0  0  0  0  0  0  0  0  0  0  0
   48.8694   32.2539   41.6103 H   0  0  0  0  0  0  0  0  0  0  0  0
   48.2298   35.7151   38.8934 H   0  0  0  0  0  0  0  0  0  0  0  0
   48.6244   34.8988   36.5527 H   0  0  0  0  0  0  0  0  0  0  0  0
   48.8022   30.9323   38.0995 H   0  0  0  0  0  0  0  0  0  0  0  0
   46.3704   32.8611   41.9962 H   0  0  0  0  0  0  0  0  0  0  0  0
   46.4041   31.7373   43.3671 H   0  0  0  0  0  0  0  0  0  0  0  0
   44.4326   34.6578   42.3734 H   0  0  0  0  0  0  0  0  0  0  0  0
   44.8517   35.2375   46.5771 H   0  0  0  0  0  0  0  0  0  0  0  0
   47.5581   32.7407   45.4868 H   0  0  0  0  0  0  0  0  0  0  0  0
   47.2157   34.0004   46.7675 H   0  0  0  0  0  0  0  0  0  0  0  0
   44.9274   33.3320   48.2293 H   0  0  0  0  0  0  0  0  0  0  0  0
   44.0354   31.3951   49.4229 H   0  0  0  0  0  0  0  0  0  0  0  0
   46.3825   28.9490   46.9534 H   0  0  0  0  0  0  0  0  0  0  0  0
  2  3  1  0
  2  6  1  0
  3  4  1  0
  5  4  1  0
  6  5  1  0
  6  1  1  0
  7  2  1  0
  8  7  2  0
  9  8  1  0
 10  9  2  0
 10 11  1  0
 11 12  2  0
 12  7  1  0
 13  1  1  0
 13 14  1  0
 14 18  1  0
 15 14  2  0
 15 16  1  0
 16 17  2  0
 18 17  1  0
 18 19  1  0
 19 20  1  0
 20 21  1  0
 21 22  2  0
 23 22  1  0
 23 24  2  0
 25 23  1  0
 26 20  1  0
 26 25  1  0
 27 26  2  0
  1 28  1  0
  1 29  1  0
  2 30  1  1
  3 31  1  0
  3 32  1  0
  4 33  1  0
  4 34  1  0
  5 35  1  0
  5 36  1  0
  6 37  1  6
  8 38  1  0
  9 39  1  0
 11 40  1  0
 13 41  1  0
 13 42  1  0
 15 43  1  0
 17 44  1  0
 19 45  1  0
 19 46  1  0
 21 47  1  0
 22 48  1  0
 25 49  1  0
M  ISO  8  28   8  29   8  30  13  31  13  32  13  33  13  34  13  35  13
M  ISO  8  36  13  37  13  38  14  39  14  40  14  41   8  42   8  43  14
M  ISO  6  44  14  45   8  46   8  47  14  48  14  49   9
M  END
>  <minimizedAffinity>  (1) 
-6.0497756

>  <minimizedRMSD>  (1) 
1.41581202

$$$$
