
     RDKit          3D

 41 43  0  0  1  0  0  0  0  0999 V2000
   44.6400   35.2510   45.1140 C   0  0  0  0  0  0  0  0  0  0  0  0
   45.1630   35.4510   43.8380 C   0  0  0  0  0  0  0  0  0  0  0  0
   46.2540   34.6350   43.4700 C   0  0  0  0  0  0  0  0  0  0  0  0
   46.7190   33.7220   44.3670 N   0  0  0  0  0  0  0  0  0  0  0  0
   46.1740   33.5690   45.5950 C   0  0  0  0  0  0  0  0  0  0  0  0
   45.1430   34.3300   45.9590 N   0  0  0  0  0  0  0  0  0  0  0  0
   46.7020   32.5570   46.5660 C   0  0  2  0  0  0  0  0  0  0  0  0
   47.1690   31.3130   45.7920 C   0  0  0  0  0  0  0  0  0  0  0  0
   45.9270   30.4800   45.7020 C   0  0  0  0  0  0  0  0  0  0  0  0
   45.2790   30.6420   47.0370 C   0  0  0  0  0  0  0  0  0  0  0  0
   45.5560   32.0700   47.4310 C   0  0  1  0  0  0  0  0  0  0  0  0
   46.0280   32.2040   48.8690 C   0  0  0  0  0  0  0  0  0  0  0  0
   46.9850   31.1160   49.2740 C   0  0  0  0  0  0  0  0  0  0  0  0
   47.0130   34.7990   41.8560 S   0  0  0  0  0  0  0  0  0  0  0  0
   48.5390   33.9050   41.7960 C   0  0  0  0  0  0  0  0  0  0  0  0
   49.6050   34.4650   42.4870 C   0  0  0  0  0  0  0  0  0  0  0  0
   50.8150   33.8120   42.4740 C   0  0  0  0  0  0  0  0  0  0  0  0
   51.0010   32.6120   41.7920 C   0  0  0  0  0  0  0  0  0  0  0  0
   49.9270   32.0740   41.1110 C   0  0  0  0  0  0  0  0  0  0  0  0
   48.6990   32.7200   41.1140 C   0  0  0  0  0  0  0  0  0  0  0  0
   47.5620   32.2720   40.4680 O   0  0  0  0  0  0  0  0  0  0  0  0
   43.7885   35.8652   45.4422 H   0  0  0  0  0  0  0  0  0  0  0  0
   44.7474   36.2052   43.1536 H   0  0  0  0  0  0  0  0  0  0  0  0
   47.5128   33.0154   47.1513 H   0  0  0  0  0  0  0  0  0  0  0  0
   47.5347   31.5854   44.7910 H   0  0  0  0  0  0  0  0  0  0  0  0
   48.0049   30.7900   46.2796 H   0  0  0  0  0  0  0  0  0  0  0  0
   45.2681   30.8475   44.9015 H   0  0  0  0  0  0  0  0  0  0  0  0
   46.1420   29.4280   45.4632 H   0  0  0  0  0  0  0  0  0  0  0  0
   44.1960   30.4631   46.9659 H   0  0  0  0  0  0  0  0  0  0  0  0
   45.6674   29.9255   47.7758 H   0  0  0  0  0  0  0  0  0  0  0  0
   44.6225   32.6391   47.3100 H   0  0  0  0  0  0  0  0  0  0  0  0
   46.5314   33.1753   48.9843 H   0  0  0  0  0  0  0  0  0  0  0  0
   45.1424   32.1230   49.5164 H   0  0  0  0  0  0  0  0  0  0  0  0
   47.0338   31.0605   50.3715 H   0  0  0  0  0  0  0  0  0  0  0  0
   46.6360   30.1528   48.8733 H   0  0  0  0  0  0  0  0  0  0  0  0
   47.9848   31.3392   48.8733 H   0  0  0  0  0  0  0  0  0  0  0  0
   49.4841   35.4118   43.0338 H   0  0  0  0  0  0  0  0  0  0  0  0
   51.6631   34.2514   43.0196 H   0  0  0  0  0  0  0  0  0  0  0  0
   51.9778   32.1061   41.7958 H   0  0  0  0  0  0  0  0  0  0  0  0
   50.0456   31.1277   40.5629 H   0  0  0  0  0  0  0  0  0  0  0  0
   46.7236   32.7957   40.5213 H   0  0  0  0  0  0  0  0  0  0  0  0
  1  6  2  0
  2  1  1  0
  3  2  2  0
  3  4  1  0
  4  5  2  0
  5  6  1  0
  5  7  1  0
  7 11  1  0
  8  7  1  0
  9  8  1  0
  9 10  1  0
 10 11  1  0
 11 12  1  0
 12 13  1  0
 14  3  1  0
 15 14  1  0
 15 16  2  0
 17 16  1  0
 18 17  2  0
 19 20  2  0
 19 18  1  0
 20 15  1  0
 21 20  1  0
  1 22  1  0
  2 23  1  0
  7 24  1  1
  8 25  1  0
  8 26  1  0
  9 27  1  0
  9 28  1  0
 10 29  1  0
 10 30  1  0
 11 31  1  1
 12 32  1  0
 12 33  1  0
 13 34  1  0
 13 35  1  0
 13 36  1  0
 16 37  1  0
 17 38  1  0
 18 39  1  0
 19 40  1  0
 21 41  1  0
M  ISO  8  22  14  23  14  24  13  25  13  26  13  27  13  28  13  29  13
M  ISO  8  30  13  31  13  32   8  33   8  34   8  35   8  36   8  37  14
M  ISO  4  38  14  39  14  40  14  41   3
M  END
>  <minimizedAffinity>  (1) 
-5.79568338

>  <minimizedRMSD>  (1) 
1.41436315

$$$$
