
     RDKit          3D

 36 38  0  0  1  0  0  0  0  0999 V2000
   44.7360   34.9070   45.6870 C   0  0  0  0  0  0  0  0  0  0  0  0
   45.1840   35.2050   44.4050 C   0  0  0  0  0  0  0  0  0  0  0  0
   46.2160   34.3950   43.8800 C   0  0  0  0  0  0  0  0  0  0  0  0
   46.6970   33.3840   44.6620 N   0  0  0  0  0  0  0  0  0  0  0  0
   46.2290   33.1270   45.9100 C   0  0  0  0  0  0  0  0  0  0  0  0
   45.2530   33.8940   46.4060 N   0  0  0  0  0  0  0  0  0  0  0  0
   46.7700   32.0200   46.7430 C   0  0  2  0  0  0  0  0  0  0  0  0
   45.7000   30.9210   46.8850 C   0  0  0  0  0  0  0  0  0  0  0  0
   44.9030   31.3520   48.0850 C   0  0  0  0  0  0  0  0  0  0  0  0
   45.9570   31.8490   49.0280 C   0  0  0  0  0  0  0  0  0  0  0  0
   47.0000   32.5140   48.1460 C   0  0  1  0  0  0  0  0  0  0  0  0
   48.3040   32.1890   48.5260 O   0  0  0  0  0  0  0  0  0  0  0  0
   46.8740   34.6800   42.2450 S   0  0  0  0  0  0  0  0  0  0  0  0
   48.4270   33.8410   42.0490 C   0  0  0  0  0  0  0  0  0  0  0  0
   49.5360   34.4700   42.5930 C   0  0  0  0  0  0  0  0  0  0  0  0
   50.7640   33.8610   42.4680 C   0  0  0  0  0  0  0  0  0  0  0  0
   50.9280   32.6470   41.8220 C   0  0  0  0  0  0  0  0  0  0  0  0
   49.8050   32.0320   41.2840 C   0  0  0  0  0  0  0  0  0  0  0  0
   48.5680   32.6350   41.4030 C   0  0  0  0  0  0  0  0  0  0  0  0
   47.3720   32.1250   40.9100 O   0  0  0  0  0  0  0  0  0  0  0  0
   43.9342   35.5182   46.1270 H   0  0  0  0  0  0  0  0  0  0  0  0
   44.7540   36.0348   43.8249 H   0  0  0  0  0  0  0  0  0  0  0  0
   47.6931   31.6540   46.2698 H   0  0  0  0  0  0  0  0  0  0  0  0
   45.0645   30.8741   45.9883 H   0  0  0  0  0  0  0  0  0  0  0  0
   46.1334   29.9165   46.9996 H   0  0  0  0  0  0  0  0  0  0  0  0
   44.1965   32.1536   47.8235 H   0  0  0  0  0  0  0  0  0  0  0  0
   44.2869   30.5454   48.5091 H   0  0  0  0  0  0  0  0  0  0  0  0
   45.5302   32.5754   49.7352 H   0  0  0  0  0  0  0  0  0  0  0  0
   46.3867   31.0348   49.6300 H   0  0  0  0  0  0  0  0  0  0  0  0
   46.8969   33.6057   48.2329 H   0  0  0  0  0  0  0  0  0  0  0  0
   48.3657   32.1736   49.5140 H   0  0  0  0  0  0  0  0  0  0  0  0
   49.4369   35.4343   43.1130 H   0  0  0  0  0  0  0  0  0  0  0  0
   51.6474   34.3566   42.8969 H   0  0  0  0  0  0  0  0  0  0  0  0
   51.9214   32.1822   41.7373 H   0  0  0  0  0  0  0  0  0  0  0  0
   49.9004   31.0671   40.7644 H   0  0  0  0  0  0  0  0  0  0  0  0
   46.5285   32.6264   41.0413 H   0  0  0  0  0  0  0  0  0  0  0  0
  1  6  2  0
  2  1  1  0
  3  2  2  0
  3  4  1  0
  4  5  2  0
  5  6  1  0
  5  7  1  0
  7  8  1  0
  7 11  1  0
  8  9  1  0
  9 10  1  0
 11 12  1  0
 11 10  1  0
 13  3  1  0
 14 13  1  0
 14 15  2  0
 16 15  1  0
 17 16  2  0
 18 19  2  0
 18 17  1  0
 19 14  1  0
 20 19  1  0
  1 21  1  0
  2 22  1  0
  7 23  1  6
  8 24  1  0
  8 25  1  0
  9 26  1  0
  9 27  1  0
 10 28  1  0
 10 29  1  0
 11 30  1  6
 12 31  1  0
 15 32  1  0
 16 33  1  0
 17 34  1  0
 18 35  1  0
 20 36  1  0
M  ISO  8  21  14  22  14  23  13  24  13  25  13  26  13  27  13  28  13
M  ISO  8  29  13  30  13  31   3  32  14  33  14  34  14  35  14  36   3
M  END
>  <minimizedAffinity>  (1) 
-5.71524525

>  <minimizedRMSD>  (1) 
0.269440979

$$$$
