
     RDKit          3D

 44 46  0  0  1  0  0  0  0  0999 V2000
   44.6790   34.5170   46.5130 C   0  0  0  0  0  0  0  0  0  0  0  0
   45.0500   34.9050   45.2270 C   0  0  0  0  0  0  0  0  0  0  0  0
   45.8980   34.0120   44.5170 C   0  0  0  0  0  0  0  0  0  0  0  0
   46.2840   32.8550   45.1390 N   0  0  0  0  0  0  0  0  0  0  0  0
   45.8930   32.5330   46.3830 C   0  0  0  0  0  0  0  0  0  0  0  0
   45.0900   33.3630   47.0730 N   0  0  0  0  0  0  0  0  0  0  0  0
   46.3240   31.2710   47.0430 C   0  0  2  0  0  0  0  0  0  0  0  0
   45.1010   30.5280   47.6150 C   0  0  0  0  0  0  0  0  0  0  0  0
   44.9440   31.1070   48.9840 C   0  0  0  0  0  0  0  0  0  0  0  0
   46.3460   31.2210   49.4770 C   0  0  0  0  0  0  0  0  0  0  0  0
   47.1550   31.5900   48.2550 C   0  0  1  0  0  0  0  0  0  0  0  0
   48.5310   31.0020   48.2230 C   0  0  0  0  0  0  0  0  0  0  0  0
   48.4320   29.6620   47.5030 C   0  0  0  0  0  0  0  0  0  0  0  0
   48.8520   30.6420   49.6800 C   0  0  0  0  0  0  0  0  0  0  0  0
   46.4430   34.3930   42.8640 S   0  0  0  0  0  0  0  0  0  0  0  0
   48.1050   33.8380   42.6160 C   0  0  0  0  0  0  0  0  0  0  0  0
   49.0760   34.8270   42.6550 C   0  0  0  0  0  0  0  0  0  0  0  0
   50.3970   34.4760   42.4700 C   0  0  0  0  0  0  0  0  0  0  0  0
   50.7800   33.1550   42.2460 C   0  0  0  0  0  0  0  0  0  0  0  0
   49.7850   32.1750   42.2100 C   0  0  0  0  0  0  0  0  0  0  0  0
   48.4670   32.5330   42.3950 C   0  0  0  0  0  0  0  0  0  0  0  0
   47.4010   31.6540   42.3820 O   0  0  0  0  0  0  0  0  0  0  0  0
   44.0230   35.1810   47.0951 H   0  0  0  0  0  0  0  0  0  0  0  0
   44.7052   35.8515   44.7851 H   0  0  0  0  0  0  0  0  0  0  0  0
   46.8674   30.6790   46.2918 H   0  0  0  0  0  0  0  0  0  0  0  0
   44.2060   30.7170   47.0040 H   0  0  0  0  0  0  0  0  0  0  0  0
   45.2322   29.4359   47.6262 H   0  0  0  0  0  0  0  0  0  0  0  0
   44.4612   32.0944   48.9402 H   0  0  0  0  0  0  0  0  0  0  0  0
   44.3085   30.4924   49.6386 H   0  0  0  0  0  0  0  0  0  0  0  0
   46.4244   32.0046   50.2450 H   0  0  0  0  0  0  0  0  0  0  0  0
   46.6994   30.2898   49.9438 H   0  0  0  0  0  0  0  0  0  0  0  0
   47.3691   32.6687   48.2788 H   0  0  0  0  0  0  0  0  0  0  0  0
   49.2598   31.6797   47.7544 H   0  0  0  0  0  0  0  0  0  0  0  0
   48.3721   28.8512   48.2439 H   0  0  0  0  0  0  0  0  0  0  0  0
   47.5305   29.6501   46.8728 H   0  0  0  0  0  0  0  0  0  0  0  0
   49.3219   29.5178   46.8728 H   0  0  0  0  0  0  0  0  0  0  0  0
   48.2735   31.2908   50.3540 H   0  0  0  0  0  0  0  0  0  0  0  0
   48.5860   29.5908   49.8651 H   0  0  0  0  0  0  0  0  0  0  0  0
   49.9267   30.7863   49.8651 H   0  0  0  0  0  0  0  0  0  0  0  0
   48.7969   35.8764   42.8309 H   0  0  0  0  0  0  0  0  0  0  0  0
   51.1685   35.2595   42.5001 H   0  0  0  0  0  0  0  0  0  0  0  0
   51.8380   32.8908   42.1013 H   0  0  0  0  0  0  0  0  0  0  0  0
   50.0523   31.1224   42.0348 H   0  0  0  0  0  0  0  0  0  0  0  0
   46.4806   31.9901   42.5232 H   0  0  0  0  0  0  0  0  0  0  0  0
  1  6  2  0
  2  1  1  0
  3  4  1  0
  3  2  2  0
  4  5  2  0
  5  7  1  0
  5  6  1  0
  7  8  1  0
  7 11  1  0
  8  9  1  0
  9 10  1  0
 11 10  1  0
 12 11  1  0
 12 14  1  0
 13 12  1  0
 15  3  1  0
 16 17  2  0
 16 15  1  0
 18 17  1  0
 19 18  2  0
 20 19  1  0
 20 21  2  0
 21 16  1  0
 22 21  1  0
  1 23  1  0
  2 24  1  0
  7 25  1  6
  8 26  1  0
  8 27  1  0
  9 28  1  0
  9 29  1  0
 10 30  1  0
 10 31  1  0
 11 32  1  1
 12 33  1  0
 13 34  1  0
 13 35  1  0
 13 36  1  0
 14 37  1  0
 14 38  1  0
 14 39  1  0
 17 40  1  0
 18 41  1  0
 19 42  1  0
 20 43  1  0
 22 44  1  0
M  ISO  8  23  14  24  14  25  13  26  13  27  13  28  13  29  13  30  13
M  ISO  8  31  13  32  13  33   8  34   8  35   8  36   8  37   8  38   8
M  ISO  6  39   8  40  14  41  14  42  14  43  14  44   3
M  END
>  <minimizedAffinity>  (1) 
-5.55222988

>  <minimizedRMSD>  (1) 
1.22069526

$$$$
