
     RDKit          3D

 38 40  0  0  1  0  0  0  0  0999 V2000
   45.0330   34.0750   46.0440 C   0  0  0  0  0  0  0  0  0  0  0  0
   45.5060   34.6720   44.8820 C   0  0  0  0  0  0  0  0  0  0  0  0
   46.4700   33.9430   44.1430 C   0  0  0  0  0  0  0  0  0  0  0  0
   46.8700   32.7200   44.6080 N   0  0  0  0  0  0  0  0  0  0  0  0
   46.3680   32.1950   45.7530 C   0  0  0  0  0  0  0  0  0  0  0  0
   45.4610   32.8670   46.4580 N   0  0  0  0  0  0  0  0  0  0  0  0
   46.8130   30.8590   46.2500 C   0  0  2  0  0  0  0  0  0  0  0  0
   45.7620   29.7940   45.8790 C   0  0  0  0  0  0  0  0  0  0  0  0
   44.7990   29.8320   47.0190 C   0  0  0  0  0  0  0  0  0  0  0  0
   45.6820   29.9870   48.2210 C   0  0  0  0  0  0  0  0  0  0  0  0
   46.8240   30.8570   47.7530 C   0  0  2  0  0  0  0  0  0  0  0  0
   46.8030   32.1940   48.3650 C   0  0  0  0  0  0  0  0  0  0  0  0
   45.9280   32.6190   49.1790 O   0  0  0  0  0  0  0  0  0  0  0  0
   47.8050   33.0850   48.0490 O   0  0  0  0  0  0  0  0  0  0  0  0
   47.1540   34.6050   42.6280 S   0  0  0  0  0  0  0  0  0  0  0  0
   48.5910   33.6950   42.1510 C   0  0  0  0  0  0  0  0  0  0  0  0
   49.7900   34.1390   42.6670 C   0  0  0  0  0  0  0  0  0  0  0  0
   50.9550   33.4810   42.3420 C   0  0  0  0  0  0  0  0  0  0  0  0
   50.9530   32.3720   41.5000 C   0  0  0  0  0  0  0  0  0  0  0  0
   49.7420   31.9410   40.9900 C   0  0  0  0  0  0  0  0  0  0  0  0
   48.5720   32.5950   41.3130 C   0  0  0  0  0  0  0  0  0  0  0  0
   47.3070   32.2540   40.8650 O   0  0  0  0  0  0  0  0  0  0  0  0
   44.2827   34.6076   46.6469 H   0  0  0  0  0  0  0  0  0  0  0  0
   45.1504   35.6595   44.5529 H   0  0  0  0  0  0  0  0  0  0  0  0
   47.8025   30.6530   45.8160 H   0  0  0  0  0  0  0  0  0  0  0  0
   45.2609   30.0505   44.9340 H   0  0  0  0  0  0  0  0  0  0  0  0
   46.2017   28.7973   45.7266 H   0  0  0  0  0  0  0  0  0  0  0  0
   44.1114   30.6853   46.9241 H   0  0  0  0  0  0  0  0  0  0  0  0
   44.1609   28.9374   47.0697 H   0  0  0  0  0  0  0  0  0  0  0  0
   45.1359   30.4737   49.0425 H   0  0  0  0  0  0  0  0  0  0  0  0
   46.0305   29.0178   48.6072 H   0  0  0  0  0  0  0  0  0  0  0  0
   47.7856   30.4437   48.0915 H   0  0  0  0  0  0  0  0  0  0  0  0
   47.8078   33.9897   48.4510 H   0  0  0  0  0  0  0  0  0  0  0  0
   49.8157   35.0133   43.3340 H   0  0  0  0  0  0  0  0  0  0  0  0
   51.9087   33.8394   42.7568 H   0  0  0  0  0  0  0  0  0  0  0  0
   51.8893   31.8528   41.2474 H   0  0  0  0  0  0  0  0  0  0  0  0
   49.7119   31.0686   40.3207 H   0  0  0  0  0  0  0  0  0  0  0  0
   46.5211   32.7839   41.1509 H   0  0  0  0  0  0  0  0  0  0  0  0
  1  6  2  0
  2  1  1  0
  3  4  1  0
  3  2  2  0
  4  5  2  0
  5  7  1  0
  5  6  1  0
  7 11  1  0
  8  7  1  0
  8  9  1  0
  9 10  1  0
 11 10  1  0
 11 12  1  0
 12 13  2  0
 14 12  1  0
 15  3  1  0
 16 15  1  0
 16 17  2  0
 18 17  1  0
 19 18  2  0
 20 21  2  0
 20 19  1  0
 21 16  1  0
 22 21  1  0
  1 23  1  0
  2 24  1  0
  7 25  1  6
  8 26  1  0
  8 27  1  0
  9 28  1  0
  9 29  1  0
 10 30  1  0
 10 31  1  0
 11 32  1  6
 14 33  1  0
 17 34  1  0
 18 35  1  0
 19 36  1  0
 20 37  1  0
 22 38  1  0
M  ISO  8  23  14  24  14  25  13  26  13  27  13  28  13  29  13  30  13
M  ISO  8  31  13  32  13  33   3  34  14  35  14  36  14  37  14  38   3
M  END
>  <minimizedAffinity>  (1) 
-5.38683558

>  <minimizedRMSD>  (1) 
1.29154789

$$$$
