
     RDKit          3D

 47 49  0  0  1  0  0  0  0  0999 V2000
   44.6030   35.0670   46.0230 C   0  0  0  0  0  0  0  0  0  0  0  0
   45.0840   35.3220   44.7370 C   0  0  0  0  0  0  0  0  0  0  0  0
   45.8370   34.2950   44.1180 C   0  0  0  0  0  0  0  0  0  0  0  0
   46.0380   33.1360   44.8160 N   0  0  0  0  0  0  0  0  0  0  0  0
   45.5490   32.9360   46.0650 C   0  0  0  0  0  0  0  0  0  0  0  0
   44.8420   33.8910   46.6570 N   0  0  0  0  0  0  0  0  0  0  0  0
   45.7800   31.6750   46.7980 C   0  0  2  0  0  0  0  0  0  0  0  0
   45.0610   31.7160   48.1600 C   0  0  0  0  0  0  0  0  0  0  0  0
   46.0650   32.3580   49.0670 C   0  0  0  0  0  0  0  0  0  0  0  0
   47.3630   31.7370   48.6420 C   0  0  0  0  0  0  0  0  0  0  0  0
   47.2290   31.5380   47.1610 C   0  0  1  0  0  0  0  0  0  0  0  0
   47.7400   30.1880   46.7530 C   0  0  0  0  0  0  0  0  0  0  0  0
   46.6970   29.1250   46.9880 C   0  0  0  0  0  0  0  0  0  0  0  0
   48.9570   29.7630   47.5450 C   0  0  0  0  0  0  0  0  0  0  0  0
   48.1210   30.1560   45.2940 C   0  0  0  0  0  0  0  0  0  0  0  0
   46.4980   34.5140   42.4770 S   0  0  0  0  0  0  0  0  0  0  0  0
   48.1610   33.9060   42.4120 C   0  0  0  0  0  0  0  0  0  0  0  0
   49.1770   34.8440   42.5360 C   0  0  0  0  0  0  0  0  0  0  0  0
   50.4840   34.4190   42.4910 C   0  0  0  0  0  0  0  0  0  0  0  0
   50.8270   33.0720   42.3260 C   0  0  0  0  0  0  0  0  0  0  0  0
   49.7970   32.1590   42.2060 C   0  0  0  0  0  0  0  0  0  0  0  0
   48.4720   32.5680   42.2480 C   0  0  0  0  0  0  0  0  0  0  0  0
   47.3650   31.7420   42.1380 O   0  0  0  0  0  0  0  0  0  0  0  0
   44.0138   35.8410   46.5366 H   0  0  0  0  0  0  0  0  0  0  0  0
   44.8869   36.2771   44.2281 H   0  0  0  0  0  0  0  0  0  0  0  0
   45.4263   30.8608   46.1484 H   0  0  0  0  0  0  0  0  0  0  0  0
   44.1424   32.3183   48.1015 H   0  0  0  0  0  0  0  0  0  0  0  0
   44.7447   30.7213   48.5073 H   0  0  0  0  0  0  0  0  0  0  0  0
   46.0846   33.4485   48.9237 H   0  0  0  0  0  0  0  0  0  0  0  0
   45.8427   32.2024   50.1330 H   0  0  0  0  0  0  0  0  0  0  0  0
   48.2052   32.4077   48.8678 H   0  0  0  0  0  0  0  0  0  0  0  0
   47.5631   30.7931   49.1702 H   0  0  0  0  0  0  0  0  0  0  0  0
   47.8282   32.2937   46.6320 H   0  0  0  0  0  0  0  0  0  0  0  0
   46.5566   28.9819   48.0696 H   0  0  0  0  0  0  0  0  0  0  0  0
   45.7456   29.4378   46.5329 H   0  0  0  0  0  0  0  0  0  0  0  0
   47.0278   28.1798   46.5329 H   0  0  0  0  0  0  0  0  0  0  0  0
   48.7394   29.8390   48.6206 H   0  0  0  0  0  0  0  0  0  0  0  0
   49.2121   28.7226   47.2951 H   0  0  0  0  0  0  0  0  0  0  0  0
   49.8043   30.4184   47.2951 H   0  0  0  0  0  0  0  0  0  0  0  0
   49.2133   30.0643   45.2022 H   0  0  0  0  0  0  0  0  0  0  0  0
   47.6386   29.2952   44.8079 H   0  0  0  0  0  0  0  0  0  0  0  0
   47.7889   31.0852   44.8079 H   0  0  0  0  0  0  0  0  0  0  0  0
   48.9403   35.9101   42.6681 H   0  0  0  0  0  0  0  0  0  0  0  0
   51.2879   35.1635   42.5880 H   0  0  0  0  0  0  0  0  0  0  0  0
   51.8789   32.7518   42.2931 H   0  0  0  0  0  0  0  0  0  0  0  0
   50.0310   31.0922   42.0752 H   0  0  0  0  0  0  0  0  0  0  0  0
   46.4539   32.1271   42.1798 H   0  0  0  0  0  0  0  0  0  0  0  0
  1  6  2  0
  2  1  1  0
  3  2  2  0
  3  4  1  0
  4  5  2  0
  5  6  1  0
  5  7  1  0
  7 11  1  0
  7  8  1  0
  8  9  1  0
 10  9  1  0
 11 10  1  0
 12 13  1  0
 12 11  1  0
 12 14  1  0
 15 12  1  0
 16  3  1  0
 17 16  1  0
 17 18  2  0
 19 18  1  0
 20 19  2  0
 21 22  2  0
 21 20  1  0
 22 17  1  0
 23 22  1  0
  1 24  1  0
  2 25  1  0
  7 26  1  6
  8 27  1  0
  8 28  1  0
  9 29  1  0
  9 30  1  0
 10 31  1  0
 10 32  1  0
 11 33  1  6
 13 34  1  0
 13 35  1  0
 13 36  1  0
 14 37  1  0
 14 38  1  0
 14 39  1  0
 15 40  1  0
 15 41  1  0
 15 42  1  0
 18 43  1  0
 19 44  1  0
 20 45  1  0
 21 46  1  0
 23 47  1  0
M  ISO  8  24  14  25  14  26  13  27  13  28  13  29  13  30  13  31  13
M  ISO  8  32  13  33  13  34   8  35   8  36   8  37   8  38   8  39   8
M  ISO  8  40   8  41   8  42   8  43  14  44  14  45  14  46  14  47   3
M  END
>  <minimizedAffinity>  (1) 
-5.36987877

>  <minimizedRMSD>  (1) 
1.63860881

$$$$
