
     RDKit          3D

 18 19  0  0  0  0  0  0  0  0999 V2000
   44.4990   35.9560   44.7110 C   0  0  0  0  0  0  0  0  0  0  0  0
   45.1690   35.8880   43.4600 C   0  0  0  0  0  0  0  0  0  0  0  0
   46.0510   34.8170   43.2770 C   0  0  0  0  0  0  0  0  0  0  0  0
   46.2190   33.9170   44.2800 N   0  0  0  0  0  0  0  0  0  0  0  0
   45.5510   34.0260   45.4630 C   0  0  0  0  0  0  0  0  0  0  0  0
   44.7000   35.0410   45.6660 N   0  0  0  0  0  0  0  0  0  0  0  0
   46.7710   34.6910   42.0140 C   0  0  0  0  0  0  0  0  0  0  0  0
   47.9810   35.3330   41.8810 C   0  0  0  0  0  0  0  0  0  0  0  0
   48.6160   35.1870   40.6880 C   0  0  0  0  0  0  0  0  0  0  0  0
   48.0770   34.4510   39.7000 N   0  0  0  0  0  0  0  0  0  0  0  0
   46.8780   33.8230   39.8530 C   0  0  0  0  0  0  0  0  0  0  0  0
   46.2460   33.9660   41.0370 N   0  0  0  0  0  0  0  0  0  0  0  0
   43.7972   36.7819   44.8991 H   0  0  0  0  0  0  0  0  0  0  0  0
   45.0027   36.6398   42.6744 H   0  0  0  0  0  0  0  0  0  0  0  0
   45.7110   33.2783   46.2538 H   0  0  0  0  0  0  0  0  0  0  0  0
   48.4114   35.9324   42.6967 H   0  0  0  0  0  0  0  0  0  0  0  0
   49.5868   35.6790   40.5281 H   0  0  0  0  0  0  0  0  0  0  0  0
   46.4412   33.2218   39.0420 H   0  0  0  0  0  0  0  0  0  0  0  0
  1  6  2  0
  2  1  1  0
  3  2  2  0
  3  4  1  0
  4  5  2  0
  5  6  1  0
  7  3  1  0
  8  7  2  0
  9  8  1  0
 10 11  1  0
 10  9  2  0
 11 12  2  0
 12  7  1  0
  1 13  1  0
  2 14  1  0
  5 15  1  0
  8 16  1  0
  9 17  1  0
 11 18  1  0
M  ISO  6  13  14  14  14  15  14  16  14  17  14  18  14
M  END
>  <minimizedAffinity>  (1) 
-4.40766573

>  <minimizedRMSD>  (1) 
0.67489779

$$$$
