
     RDKit          3D

 46 49  0  0  1  0  0  0  0  0999 V2000
   47.8630   34.6950   41.3240 C   0  0  2  0  0  0  0  0  0  0  0  0
   48.7600   35.7080   41.7080 C   0  0  0  0  0  0  0  0  0  0  0  0
   50.0230   35.0060   42.2760 C   0  0  0  0  0  0  0  0  0  0  0  0
   49.8040   33.5070   42.1550 C   0  0  0  0  0  0  0  0  0  0  0  0
   48.3490   33.4120   42.1030 C   0  0  1  0  0  0  0  0  0  0  0  0
   47.7350   34.2260   39.9180 C   0  0  0  0  0  0  0  0  0  0  0  0
   48.5110   34.8610   38.9680 C   0  0  0  0  0  0  0  0  0  0  0  0
   48.4390   34.4790   37.6440 C   0  0  0  0  0  0  0  0  0  0  0  0
   47.5640   33.4520   37.3600 N   0  0  0  0  0  0  0  0  0  0  0  0
   46.8390   32.8720   38.3070 C   0  0  0  0  0  0  0  0  0  0  0  0
   46.9040   33.2390   39.5950 N   0  0  0  0  0  0  0  0  0  0  0  0
   47.7610   33.4310   43.4790 C   0  0  0  0  0  0  0  0  0  0  0  0
   46.3210   33.0000   43.4600 C   0  0  0  0  0  0  0  0  0  0  0  0
   45.5900   33.9490   44.3460 C   0  0  0  0  0  0  0  0  0  0  0  0
   44.9570   35.1080   44.0190 C   0  0  0  0  0  0  0  0  0  0  0  0
   44.4300   35.6440   45.1500 N   0  0  0  0  0  0  0  0  0  0  0  0
   44.7380   34.8190   46.1560 C   0  0  0  0  0  0  0  0  0  0  0  0
   45.4360   33.7910   45.6980 N   0  0  0  0  0  0  0  0  0  0  0  0
   45.9570   32.6740   46.4790 C   0  0  0  0  0  0  0  0  0  0  0  0
   45.1980   32.6660   47.7870 C   0  0  0  0  0  0  0  0  0  0  0  0
   46.0170   32.2450   48.9830 C   0  0  0  0  0  0  0  0  0  0  0  0
   44.8050   31.4210   48.4710 C   0  0  0  0  0  0  0  0  0  0  0  0
   46.8863   35.1588   41.5266 H   0  0  0  0  0  0  0  0  0  0  0  0
   49.0296   36.3236   40.8372 H   0  0  0  0  0  0  0  0  0  0  0  0
   48.3063   36.3686   42.4615 H   0  0  0  0  0  0  0  0  0  0  0  0
   50.9104   35.3040   41.6983 H   0  0  0  0  0  0  0  0  0  0  0  0
   50.1861   35.2908   43.3259 H   0  0  0  0  0  0  0  0  0  0  0  0
   50.2628   33.1095   41.2376 H   0  0  0  0  0  0  0  0  0  0  0  0
   50.2557   32.9270   42.9733 H   0  0  0  0  0  0  0  0  0  0  0  0
   48.0375   32.4752   41.6179 H   0  0  0  0  0  0  0  0  0  0  0  0
   49.1886   35.6739   39.2679 H   0  0  0  0  0  0  0  0  0  0  0  0
   49.0428   34.9642   36.8629 H   0  0  0  0  0  0  0  0  0  0  0  0
   46.1567   32.0568   38.0244 H   0  0  0  0  0  0  0  0  0  0  0  0
   48.3322   32.7461   44.1229 H   0  0  0  0  0  0  0  0  0  0  0  0
   47.8120   34.4595   43.8658 H   0  0  0  0  0  0  0  0  0  0  0  0
   45.9217   33.0499   42.4362 H   0  0  0  0  0  0  0  0  0  0  0  0
   46.2092   31.9620   43.8064 H   0  0  0  0  0  0  0  0  0  0  0  0
   44.8844   35.5382   43.0092 H   0  0  0  0  0  0  0  0  0  0  0  0
   44.4539   34.9714   47.2077 H   0  0  0  0  0  0  0  0  0  0  0  0
   45.7958   31.7279   45.9415 H   0  0  0  0  0  0  0  0  0  0  0  0
   47.0383   32.7814   46.6500 H   0  0  0  0  0  0  0  0  0  0  0  0
   44.5943   33.5339   47.4832 H   0  0  0  0  0  0  0  0  0  0  0  0
   47.0420   31.8682   48.8511 H   0  0  0  0  0  0  0  0  0  0  0  0
   46.3178   32.7017   49.9374 H   0  0  0  0  0  0  0  0  0  0  0  0
   43.8758   31.3853   49.0586 H   0  0  0  0  0  0  0  0  0  0  0  0
   44.6476   30.3776   48.1603 H   0  0  0  0  0  0  0  0  0  0  0  0
  1  2  1  0
  1  5  1  0
  2  3  1  0
  4  3  1  0
  5  4  1  0
  5 12  1  0
  6  1  1  0
  7  6  2  0
  8  7  1  0
  9  8  2  0
  9 10  1  0
 10 11  2  0
 11  6  1  0
 13 12  1  0
 13 14  1  0
 14 18  1  0
 15 14  2  0
 15 16  1  0
 16 17  2  0
 18 17  1  0
 18 19  1  0
 19 20  1  0
 20 22  1  0
 20 21  1  0
 22 21  1  0
  1 23  1  1
  2 24  1  0
  2 25  1  0
  3 26  1  0
  3 27  1  0
  4 28  1  0
  4 29  1  0
  5 30  1  6
  7 31  1  0
  8 32  1  0
 10 33  1  0
 12 34  1  0
 12 35  1  0
 13 36  1  0
 13 37  1  0
 15 38  1  0
 17 39  1  0
 19 40  1  0
 19 41  1  0
 20 42  1  0
 21 43  1  0
 21 44  1  0
 22 45  1  0
 22 46  1  0
M  ISO  8  23  13  24  13  25  13  26  13  27  13  28  13  29  13  30  13
M  ISO  8  31  14  32  14  33  14  34   8  35   8  36   8  37   8  38  14
M  ISO  8  39  14  40   8  41   8  42  13  43  13  44  13  45  13  46  13
M  END
>  <minimizedAffinity>  (1) 
-5.94091272

>  <minimizedRMSD>  (1) 
0.960595191

$$$$
