
     RDKit          3D

 29 31  0  0  0  0  0  0  0  0999 V2000
   46.7750   34.7120   42.0130 C   0  0  0  0  0  0  0  0  0  0  0  0
   48.0340   35.2390   41.9190 C   0  0  0  0  0  0  0  0  0  0  0  0
   48.6720   35.1320   40.7320 C   0  0  0  0  0  0  0  0  0  0  0  0
   48.0760   34.5280   39.6940 N   0  0  0  0  0  0  0  0  0  0  0  0
   46.8210   34.0050   39.7910 C   0  0  0  0  0  0  0  0  0  0  0  0
   46.2010   34.1220   40.9850 N   0  0  0  0  0  0  0  0  0  0  0  0
   46.1550   33.3570   38.7100 N   0  0  0  0  0  0  0  0  0  0  0  0
   44.9440   32.8360   39.0290 C   0  0  0  0  0  0  0  0  0  0  0  0
   44.2500   32.1890   38.0010 C   0  0  0  0  0  0  0  0  0  0  0  0
   44.8770   32.1500   36.7670 C   0  0  0  0  0  0  0  0  0  0  0  0
   44.2210   31.5090   35.6920 N   0  0  0  0  0  0  0  0  0  0  0  0
   46.0810   32.6820   36.4980 N   0  0  0  0  0  0  0  0  0  0  0  0
   46.7400   33.3080   37.5160 C   0  0  0  0  0  0  0  0  0  0  0  0
   47.8740   33.8380   37.3640 O   0  0  0  0  0  0  0  0  0  0  0  0
   44.5010   35.9200   44.7270 C   0  0  0  0  0  0  0  0  0  0  0  0
   45.1660   35.8680   43.4830 C   0  0  0  0  0  0  0  0  0  0  0  0
   46.0650   34.8120   43.2750 C   0  0  0  0  0  0  0  0  0  0  0  0
   46.2440   33.9120   44.2660 N   0  0  0  0  0  0  0  0  0  0  0  0
   45.5810   33.9980   45.4580 C   0  0  0  0  0  0  0  0  0  0  0  0
   44.7150   35.0070   45.6690 N   0  0  0  0  0  0  0  0  0  0  0  0
   48.5104   35.7324   42.7790 H   0  0  0  0  0  0  0  0  0  0  0  0
   49.6859   35.5428   40.6171 H   0  0  0  0  0  0  0  0  0  0  0  0
   44.5287   32.9180   40.0443 H   0  0  0  0  0  0  0  0  0  0  0  0
   43.2608   31.7362   38.1640 H   0  0  0  0  0  0  0  0  0  0  0  0
   44.6694   31.4684   34.7656 H   0  0  0  0  0  0  0  0  0  0  0  0
   43.2945   31.0823   35.8348 H   0  0  0  0  0  0  0  0  0  0  0  0
   43.7888   36.7354   44.9215 H   0  0  0  0  0  0  0  0  0  0  0  0
   44.9860   36.6264   42.7068 H   0  0  0  0  0  0  0  0  0  0  0  0
   45.7542   33.2459   46.2418 H   0  0  0  0  0  0  0  0  0  0  0  0
  1 17  1  0
  2  1  2  0
  3  2  1  0
  4  5  1  0
  4  3  2  0
  5  6  2  0
  6  1  1  0
  7  8  1  0
  7  5  1  0
  9  8  2  0
 10  9  1  0
 11 10  1  0
 12 10  2  0
 12 13  1  0
 13  7  1  0
 14 13  2  0
 15 20  2  0
 16 15  1  0
 17 16  2  0
 17 18  1  0
 18 19  2  0
 19 20  1  0
  2 21  1  0
  3 22  1  0
  8 23  1  0
  9 24  1  0
 11 25  1  0
 11 26  1  0
 15 27  1  0
 16 28  1  0
 19 29  1  0
M  ISO  7  21  14  22  14  23  14  24  14  27  14  28  14  29  14
M  END
>  <minimizedAffinity>  (1) 
-5.91910791

>  <minimizedRMSD>  (1) 
0.353821039

$$$$
