
     RDKit          3D

 25 27  0  0  0  0  0  0  0  0999 V2000
   46.7860   34.7210   41.9900 C   0  0  0  0  0  0  0  0  0  0  0  0
   48.0270   35.3200   41.8950 C   0  0  0  0  0  0  0  0  0  0  0  0
   48.6730   35.1880   40.7050 C   0  0  0  0  0  0  0  0  0  0  0  0
   48.1200   34.5050   39.6860 N   0  0  0  0  0  0  0  0  0  0  0  0
   46.9020   33.9270   39.8050 C   0  0  0  0  0  0  0  0  0  0  0  0
   46.2620   34.0570   40.9790 N   0  0  0  0  0  0  0  0  0  0  0  0
   46.3240   33.2070   38.7220 N   0  0  0  0  0  0  0  0  0  0  0  0
   46.6690   33.3540   37.4590 N   0  0  0  0  0  0  0  0  0  0  0  0
   45.9430   32.5360   36.6730 C   0  0  0  0  0  0  0  0  0  0  0  0
   45.0980   31.8470   37.5450 C   0  0  0  0  0  0  0  0  0  0  0  0
   45.3520   32.2860   38.8490 C   0  0  0  0  0  0  0  0  0  0  0  0
   44.5030   35.9380   44.6900 C   0  0  0  0  0  0  0  0  0  0  0  0
   45.1770   35.8900   43.4350 C   0  0  0  0  0  0  0  0  0  0  0  0
   46.0610   34.8370   43.2420 C   0  0  0  0  0  0  0  0  0  0  0  0
   46.2350   33.9260   44.2400 N   0  0  0  0  0  0  0  0  0  0  0  0
   45.5640   34.0170   45.4250 C   0  0  0  0  0  0  0  0  0  0  0  0
   44.7100   35.0130   45.6390 N   0  0  0  0  0  0  0  0  0  0  0  0
   48.4692   35.8739   42.7362 H   0  0  0  0  0  0  0  0  0  0  0  0
   49.6639   35.6472   40.5736 H   0  0  0  0  0  0  0  0  0  0  0  0
   46.0029   32.4330   35.5795 H   0  0  0  0  0  0  0  0  0  0  0  0
   44.3573   31.0870   37.2556 H   0  0  0  0  0  0  0  0  0  0  0  0
   44.8634   31.9510   39.7758 H   0  0  0  0  0  0  0  0  0  0  0  0
   43.7938   36.7558   44.8856 H   0  0  0  0  0  0  0  0  0  0  0  0
   45.0053   36.6495   42.6580 H   0  0  0  0  0  0  0  0  0  0  0  0
   45.7308   33.2620   46.2074 H   0  0  0  0  0  0  0  0  0  0  0  0
  1 14  1  0
  2  1  2  0
  3  2  1  0
  4  5  1  0
  4  3  2  0
  5  6  2  0
  6  1  1  0
  7 11  1  0
  7  5  1  0
  8  7  1  0
  9  8  2  0
  9 10  1  0
 10 11  2  0
 12 17  2  0
 13 12  1  0
 14 13  2  0
 14 15  1  0
 15 16  2  0
 16 17  1  0
  2 18  1  0
  3 19  1  0
  9 20  1  0
 10 21  1  0
 11 22  1  0
 12 23  1  0
 13 24  1  0
 16 25  1  0
M  ISO  8  18  14  19  14  20  14  21  14  22  14  23  14  24  14  25  14
M  END
>  <minimizedAffinity>  (1) 
-5.24189472

>  <minimizedRMSD>  (1) 
0.145749986

$$$$
