
     RDKit          3D

 28 30  0  0  0  0  0  0  0  0999 V2000
   46.7960   34.7320   41.9510 C   0  0  0  0  0  0  0  0  0  0  0  0
   48.0340   35.3290   41.8540 C   0  0  0  0  0  0  0  0  0  0  0  0
   48.6770   35.1760   40.6590 C   0  0  0  0  0  0  0  0  0  0  0  0
   48.1320   34.4890   39.6490 N   0  0  0  0  0  0  0  0  0  0  0  0
   46.9050   33.9060   39.7670 C   0  0  0  0  0  0  0  0  0  0  0  0
   46.2810   34.0610   40.9460 N   0  0  0  0  0  0  0  0  0  0  0  0
   44.5030   36.0130   44.6150 C   0  0  0  0  0  0  0  0  0  0  0  0
   45.1910   35.9390   43.3720 C   0  0  0  0  0  0  0  0  0  0  0  0
   46.0660   34.8620   43.1990 C   0  0  0  0  0  0  0  0  0  0  0  0
   46.2170   33.9550   44.2000 N   0  0  0  0  0  0  0  0  0  0  0  0
   45.5260   34.0790   45.3770 C   0  0  0  0  0  0  0  0  0  0  0  0
   44.6870   35.0940   45.5690 N   0  0  0  0  0  0  0  0  0  0  0  0
   46.2700   33.1510   38.7050 C   0  0  0  0  0  0  0  0  0  0  0  0
   46.6810   33.3060   37.3950 C   0  0  0  0  0  0  0  0  0  0  0  0
   46.0970   32.6020   36.3630 C   0  0  0  0  0  0  0  0  0  0  0  0
   45.0600   31.6980   36.6010 C   0  0  0  0  0  0  0  0  0  0  0  0
   44.6940   31.5860   37.9270 C   0  0  0  0  0  0  0  0  0  0  0  0
   45.2420   32.2630   38.9970 C   0  0  0  0  0  0  0  0  0  0  0  0
   48.4770   35.8939   42.6875 H   0  0  0  0  0  0  0  0  0  0  0  0
   49.6698   35.6299   40.5234 H   0  0  0  0  0  0  0  0  0  0  0  0
   43.8049   36.8437   44.7953 H   0  0  0  0  0  0  0  0  0  0  0  0
   45.0419   36.6927   42.5848 H   0  0  0  0  0  0  0  0  0  0  0  0
   45.6664   33.3314   46.1716 H   0  0  0  0  0  0  0  0  0  0  0  0
   47.4958   34.0097   37.1692 H   0  0  0  0  0  0  0  0  0  0  0  0
   46.4545   32.7554   35.3341 H   0  0  0  0  0  0  0  0  0  0  0  0
   44.5750   31.1229   35.7985 H   0  0  0  0  0  0  0  0  0  0  0  0
   43.8794   30.8828   38.1548 H   0  0  0  0  0  0  0  0  0  0  0  0
   44.8844   32.1081   40.0257 H   0  0  0  0  0  0  0  0  0  0  0  0
  1  9  1  0
  2  1  2  0
  3  2  1  0
  4  5  1  0
  4  3  2  0
  5  6  2  0
  6  1  1  0
  7 12  2  0
  8  7  1  0
  9  8  2  0
  9 10  1  0
 10 11  2  0
 11 12  1  0
 13 18  1  0
 13  5  1  0
 14 13  2  0
 15 16  2  0
 15 14  1  0
 16 17  1  0
 17 18  2  0
  2 19  1  0
  3 20  1  0
  7 21  1  0
  8 22  1  0
 11 23  1  0
 14 24  1  0
 15 25  1  0
 16 26  1  0
 17 27  1  0
 18 28  1  0
M  ISO  8  19  14  20  14  21  14  22  14  23  14  24  14  25  14  26  14
M  ISO  2  27  14  28  14
M  END
>  <minimizedAffinity>  (1) 
-5.1401372

>  <minimizedRMSD>  (1) 
0.188268095

$$$$
