
     RDKit          3D

 27 29  0  0  0  0  0  0  0  0999 V2000
   46.7780   34.7180   41.9680 C   0  0  0  0  0  0  0  0  0  0  0  0
   48.0140   35.3220   41.8500 C   0  0  0  0  0  0  0  0  0  0  0  0
   48.6610   35.1800   40.6700 C   0  0  0  0  0  0  0  0  0  0  0  0
   48.1040   34.4730   39.6580 N   0  0  0  0  0  0  0  0  0  0  0  0
   46.8920   33.8900   39.7960 C   0  0  0  0  0  0  0  0  0  0  0  0
   46.2490   34.0280   40.9630 N   0  0  0  0  0  0  0  0  0  0  0  0
   44.5080   36.0120   44.6460 C   0  0  0  0  0  0  0  0  0  0  0  0
   45.1940   35.9260   43.4040 C   0  0  0  0  0  0  0  0  0  0  0  0
   46.0530   34.8480   43.2220 C   0  0  0  0  0  0  0  0  0  0  0  0
   46.1860   33.9540   44.2210 N   0  0  0  0  0  0  0  0  0  0  0  0
   45.5160   34.0670   45.3920 C   0  0  0  0  0  0  0  0  0  0  0  0
   44.6870   35.0910   45.5940 N   0  0  0  0  0  0  0  0  0  0  0  0
   46.3050   33.1360   38.7080 C   0  0  0  0  0  0  0  0  0  0  0  0
   46.7500   33.3320   37.4220 C   0  0  0  0  0  0  0  0  0  0  0  0
   46.1760   32.6020   36.4010 C   0  0  0  0  0  0  0  0  0  0  0  0
   45.1640   31.6780   36.6320 C   0  0  0  0  0  0  0  0  0  0  0  0
   44.7590   31.5250   37.9410 C   0  0  0  0  0  0  0  0  0  0  0  0
   45.3230   32.2440   38.9550 N   0  0  0  0  0  0  0  0  0  0  0  0
   48.4541   35.8943   42.6799 H   0  0  0  0  0  0  0  0  0  0  0  0
   49.6490   35.6433   40.5314 H   0  0  0  0  0  0  0  0  0  0  0  0
   43.8195   36.8503   44.8279 H   0  0  0  0  0  0  0  0  0  0  0  0
   45.0509   36.6823   42.6181 H   0  0  0  0  0  0  0  0  0  0  0  0
   45.6562   33.3115   46.1791 H   0  0  0  0  0  0  0  0  0  0  0  0
   47.5492   34.0577   37.2106 H   0  0  0  0  0  0  0  0  0  0  0  0
   46.5309   32.7565   35.3714 H   0  0  0  0  0  0  0  0  0  0  0  0
   44.7102   31.0994   35.8139 H   0  0  0  0  0  0  0  0  0  0  0  0
   43.9608   30.8050   38.1742 H   0  0  0  0  0  0  0  0  0  0  0  0
  1  9  1  0
  2  1  2  0
  3  2  1  0
  4  5  1  0
  4  3  2  0
  5  6  2  0
  6  1  1  0
  7 12  2  0
  8  7  1  0
  9  8  2  0
  9 10  1  0
 10 11  2  0
 11 12  1  0
 13 18  1  0
 13  5  1  0
 14 13  2  0
 15 16  2  0
 15 14  1  0
 16 17  1  0
 17 18  2  0
  2 19  1  0
  3 20  1  0
  7 21  1  0
  8 22  1  0
 11 23  1  0
 14 24  1  0
 15 25  1  0
 16 26  1  0
 17 27  1  0
M  ISO  8  19  14  20  14  21  14  22  14  23  14  24  14  25  14  26  14
M  ISO  1  27  14
M  END
>  <minimizedAffinity>  (1) 
-5.11396599

>  <minimizedRMSD>  (1) 
0.282284766

$$$$
