
     RDKit          3D

 26 28  0  0  0  0  0  0  0  0999 V2000
   46.7790   34.7130   41.9620 C   0  0  0  0  0  0  0  0  0  0  0  0
   48.0040   35.3070   41.8420 C   0  0  0  0  0  0  0  0  0  0  0  0
   48.6540   35.1660   40.6560 C   0  0  0  0  0  0  0  0  0  0  0  0
   48.0910   34.4660   39.6540 N   0  0  0  0  0  0  0  0  0  0  0  0
   46.8770   33.8880   39.7950 C   0  0  0  0  0  0  0  0  0  0  0  0
   46.2310   34.0210   40.9600 N   0  0  0  0  0  0  0  0  0  0  0  0
   44.5080   36.0150   44.6370 C   0  0  0  0  0  0  0  0  0  0  0  0
   45.1850   35.9380   43.3940 C   0  0  0  0  0  0  0  0  0  0  0  0
   46.0560   34.8430   43.2200 C   0  0  0  0  0  0  0  0  0  0  0  0
   46.1900   33.9520   44.2230 N   0  0  0  0  0  0  0  0  0  0  0  0
   45.5190   34.0730   45.3920 C   0  0  0  0  0  0  0  0  0  0  0  0
   44.6810   35.1030   45.5920 N   0  0  0  0  0  0  0  0  0  0  0  0
   46.3130   33.1400   38.6770 C   0  0  0  0  0  0  0  0  0  0  0  0
   46.7480   33.3210   37.3970 C   0  0  0  0  0  0  0  0  0  0  0  0
   46.1930   32.5970   36.3630 C   0  0  0  0  0  0  0  0  0  0  0  0
   45.2110   31.7120   36.6790 N   0  0  0  0  0  0  0  0  0  0  0  0
   44.7760   31.5260   37.9370 C   0  0  0  0  0  0  0  0  0  0  0  0
   45.3360   32.2470   38.9340 N   0  0  0  0  0  0  0  0  0  0  0  0
   48.4468   35.8768   42.6723 H   0  0  0  0  0  0  0  0  0  0  0  0
   49.6434   35.6257   40.5151 H   0  0  0  0  0  0  0  0  0  0  0  0
   43.8191   36.8532   44.8182 H   0  0  0  0  0  0  0  0  0  0  0  0
   45.0386   36.6924   42.6070 H   0  0  0  0  0  0  0  0  0  0  0  0
   45.6610   33.3226   46.1836 H   0  0  0  0  0  0  0  0  0  0  0  0
   47.5461   34.0487   37.1884 H   0  0  0  0  0  0  0  0  0  0  0  0
   46.5312   32.7302   35.3248 H   0  0  0  0  0  0  0  0  0  0  0  0
   43.9782   30.7997   38.1516 H   0  0  0  0  0  0  0  0  0  0  0  0
  1  9  1  0
  2  1  2  0
  3  2  1  0
  4  5  1  0
  4  3  2  0
  5  6  2  0
  6  1  1  0
  7 12  2  0
  8  7  1  0
  9  8  2  0
  9 10  1  0
 10 11  2  0
 11 12  1  0
 13 18  1  0
 13  5  1  0
 14 13  2  0
 15 16  2  0
 15 14  1  0
 16 17  1  0
 17 18  2  0
  2 19  1  0
  3 20  1  0
  7 21  1  0
  8 22  1  0
 11 23  1  0
 14 24  1  0
 15 25  1  0
 17 26  1  0
M  ISO  8  19  14  20  14  21  14  22  14  23  14  24  14  25  14  26  14
M  END
>  <minimizedAffinity>  (1) 
-5.11149502

>  <minimizedRMSD>  (1) 
0.28868711

$$$$
