
     RDKit          3D

 25 27  0  0  0  0  0  0  0  0999 V2000
   46.8150   34.7400   42.0290 C   0  0  0  0  0  0  0  0  0  0  0  0
   48.0610   35.3340   41.9570 C   0  0  0  0  0  0  0  0  0  0  0  0
   48.7110   35.2070   40.7680 C   0  0  0  0  0  0  0  0  0  0  0  0
   48.1580   34.5430   39.7380 N   0  0  0  0  0  0  0  0  0  0  0  0
   46.9370   33.9730   39.8400 C   0  0  0  0  0  0  0  0  0  0  0  0
   46.2630   34.0790   41.0090 N   0  0  0  0  0  0  0  0  0  0  0  0
   44.4960   35.9310   44.7170 C   0  0  0  0  0  0  0  0  0  0  0  0
   45.1820   35.8820   43.4820 C   0  0  0  0  0  0  0  0  0  0  0  0
   46.0800   34.8450   43.2780 C   0  0  0  0  0  0  0  0  0  0  0  0
   46.2570   33.9250   44.2740 N   0  0  0  0  0  0  0  0  0  0  0  0
   45.5790   34.0040   45.4530 C   0  0  0  0  0  0  0  0  0  0  0  0
   44.7030   35.0120   45.6570 N   0  0  0  0  0  0  0  0  0  0  0  0
   46.2950   33.2420   38.7540 C   0  0  0  0  0  0  0  0  0  0  0  0
   45.7390   32.0060   38.9010 C   0  0  0  0  0  0  0  0  0  0  0  0
   45.2190   31.5730   37.7360 N   0  0  0  0  0  0  0  0  0  0  0  0
   45.4460   32.5480   36.8320 C   0  0  0  0  0  0  0  0  0  0  0  0
   46.1020   33.5540   37.4720 N   0  0  0  0  0  0  0  0  0  0  0  0
   48.5000   35.8757   42.8078 H   0  0  0  0  0  0  0  0  0  0  0  0
   49.7078   35.6562   40.6474 H   0  0  0  0  0  0  0  0  0  0  0  0
   43.7783   36.7432   44.9044 H   0  0  0  0  0  0  0  0  0  0  0  0
   45.0089   36.6429   42.7067 H   0  0  0  0  0  0  0  0  0  0  0  0
   45.7443   33.2495   46.2362 H   0  0  0  0  0  0  0  0  0  0  0  0
   45.7178   31.4389   39.8433 H   0  0  0  0  0  0  0  0  0  0  0  0
   45.1543   32.5328   35.7715 H   0  0  0  0  0  0  0  0  0  0  0  0
   46.4065   34.4325   37.0287 H   0  0  0  0  0  0  0  0  0  0  0  0
  1  9  1  0
  2  1  2  0
  3  2  1  0
  4  5  1  0
  4  3  2  0
  5  6  2  0
  6  1  1  0
  7 12  2  0
  8  7  1  0
  9  8  2  0
  9 10  1  0
 10 11  2  0
 11 12  1  0
 13 14  2  0
 13  5  1  0
 15 14  1  0
 16 17  1  0
 16 15  2  0
 17 13  1  0
  2 18  1  0
  3 19  1  0
  7 20  1  0
  8 21  1  0
 11 22  1  0
 14 23  1  0
 16 24  1  0
 17 25  1  0
M  ISO  8  18  14  19  14  20  14  21  14  22  14  23  14  24  14  25   9
M  END
>  <minimizedAffinity>  (1) 
-5.08747387

>  <minimizedRMSD>  (1) 
0.187962711

$$$$
