
     RDKit          3D

 31 33  0  0  0  0  0  0  0  0999 V2000
   46.8170   34.7340   41.9690 C   0  0  0  0  0  0  0  0  0  0  0  0
   48.0180   35.3840   41.8450 C   0  0  0  0  0  0  0  0  0  0  0  0
   48.6910   35.2490   40.6740 C   0  0  0  0  0  0  0  0  0  0  0  0
   48.1800   34.5030   39.6910 N   0  0  0  0  0  0  0  0  0  0  0  0
   46.9790   33.8570   39.8220 C   0  0  0  0  0  0  0  0  0  0  0  0
   46.3280   34.0020   40.9860 N   0  0  0  0  0  0  0  0  0  0  0  0
   44.4990   35.9990   44.6260 C   0  0  0  0  0  0  0  0  0  0  0  0
   45.1970   35.9250   43.3850 C   0  0  0  0  0  0  0  0  0  0  0  0
   46.0750   34.8630   43.2140 C   0  0  0  0  0  0  0  0  0  0  0  0
   46.2250   33.9590   44.2220 N   0  0  0  0  0  0  0  0  0  0  0  0
   45.5440   34.0590   45.3880 C   0  0  0  0  0  0  0  0  0  0  0  0
   44.6880   35.0780   45.5820 N   0  0  0  0  0  0  0  0  0  0  0  0
   46.3470   33.0180   38.7910 C   0  0  0  0  0  0  0  0  0  0  0  0
   46.7260   33.3990   37.3730 C   0  0  0  0  0  0  0  0  0  0  0  0
   45.8830   32.3420   36.6450 C   0  0  0  0  0  0  0  0  0  0  0  0
   44.5670   32.3440   37.4310 C   0  0  0  0  0  0  0  0  0  0  0  0
   44.8580   33.0870   38.7270 C   0  0  0  0  0  0  0  0  0  0  0  0
   48.4222   35.9939   42.6664 H   0  0  0  0  0  0  0  0  0  0  0  0
   49.6580   35.7544   40.5345 H   0  0  0  0  0  0  0  0  0  0  0  0
   43.7941   36.8249   44.8020 H   0  0  0  0  0  0  0  0  0  0  0  0
   45.0464   36.6772   42.5966 H   0  0  0  0  0  0  0  0  0  0  0  0
   45.6909   33.3066   46.1768 H   0  0  0  0  0  0  0  0  0  0  0  0
   46.7103   32.0291   39.1073 H   0  0  0  0  0  0  0  0  0  0  0  0
   46.4201   34.4248   37.1197 H   0  0  0  0  0  0  0  0  0  0  0  0
   47.8016   33.4060   37.1426 H   0  0  0  0  0  0  0  0  0  0  0  0
   45.7162   32.6247   35.5951 H   0  0  0  0  0  0  0  0  0  0  0  0
   46.3645   31.3536   36.6111 H   0  0  0  0  0  0  0  0  0  0  0  0
   43.7814   32.8616   36.8610 H   0  0  0  0  0  0  0  0  0  0  0  0
   44.2088   31.3218   37.6225 H   0  0  0  0  0  0  0  0  0  0  0  0
   44.5071   34.1284   38.6790 H   0  0  0  0  0  0  0  0  0  0  0  0
   44.3542   32.6611   39.6072 H   0  0  0  0  0  0  0  0  0  0  0  0
  1  9  1  0
  2  1  2  0
  3  2  1  0
  4  5  1  0
  4  3  2  0
  5  6  2  0
  6  1  1  0
  7 12  2  0
  8  7  1  0
  9  8  2  0
  9 10  1  0
 10 11  2  0
 11 12  1  0
 13  5  1  0
 14 13  1  0
 15 14  1  0
 15 16  1  0
 16 17  1  0
 17 13  1  0
  2 18  1  0
  3 19  1  0
  7 20  1  0
  8 21  1  0
 11 22  1  0
 13 23  1  0
 14 24  1  0
 14 25  1  0
 15 26  1  0
 15 27  1  0
 16 28  1  0
 16 29  1  0
 17 30  1  0
 17 31  1  0
M  ISO  8  18  14  19  14  20  14  21  14  22  14  23  13  24  13  25  13
M  ISO  6  26  13  27  13  28  13  29  13  30  13  31  13
M  END
>  <minimizedAffinity>  (1) 
-5.08130693

>  <minimizedRMSD>  (1) 
0.245555595

$$$$
