
     RDKit          3D

 24 26  0  0  0  0  0  0  0  0999 V2000
   46.7680   34.6990   42.0090 C   0  0  0  0  0  0  0  0  0  0  0  0
   47.9900   35.2970   41.8800 C   0  0  0  0  0  0  0  0  0  0  0  0
   48.6300   35.1710   40.6950 C   0  0  0  0  0  0  0  0  0  0  0  0
   48.0680   34.4790   39.6900 N   0  0  0  0  0  0  0  0  0  0  0  0
   46.8500   33.8850   39.8290 C   0  0  0  0  0  0  0  0  0  0  0  0
   46.2120   34.0130   41.0160 N   0  0  0  0  0  0  0  0  0  0  0  0
   44.4980   35.9540   44.7130 C   0  0  0  0  0  0  0  0  0  0  0  0
   45.1670   35.8940   43.4550 C   0  0  0  0  0  0  0  0  0  0  0  0
   46.0520   34.8150   43.2760 C   0  0  0  0  0  0  0  0  0  0  0  0
   46.2210   33.9200   44.2690 N   0  0  0  0  0  0  0  0  0  0  0  0
   45.5640   34.0150   45.4510 C   0  0  0  0  0  0  0  0  0  0  0  0
   44.7090   35.0260   45.6670 N   0  0  0  0  0  0  0  0  0  0  0  0
   46.2400   33.1250   38.7140 C   0  0  0  0  0  0  0  0  0  0  0  0
   45.1910   32.2050   38.8760 C   0  0  0  0  0  0  0  0  0  0  0  0
   44.9060   31.6290   37.1830 S   0  0  0  0  0  0  0  0  0  0  0  0
   46.3010   32.7660   36.5130 C   0  0  0  0  0  0  0  0  0  0  0  0
   46.7100   33.3210   37.4980 N   0  0  0  0  0  0  0  0  0  0  0  0
   48.4378   35.8614   42.7112 H   0  0  0  0  0  0  0  0  0  0  0  0
   49.6160   35.6377   40.5535 H   0  0  0  0  0  0  0  0  0  0  0  0
   43.7940   36.7762   44.9090 H   0  0  0  0  0  0  0  0  0  0  0  0
   45.0009   36.6471   42.6706 H   0  0  0  0  0  0  0  0  0  0  0  0
   45.7323   33.2616   46.2346 H   0  0  0  0  0  0  0  0  0  0  0  0
   44.6725   31.9087   39.7998 H   0  0  0  0  0  0  0  0  0  0  0  0
   46.6444   32.8820   35.4744 H   0  0  0  0  0  0  0  0  0  0  0  0
  1  9  1  0
  2  1  2  0
  3  2  1  0
  4  5  1  0
  4  3  2  0
  5  6  2  0
  6  1  1  0
  7 12  2  0
  8  7  1  0
  9  8  2  0
  9 10  1  0
 10 11  2  0
 11 12  1  0
 13 14  2  0
 13  5  1  0
 15 14  1  0
 16 15  1  0
 16 17  2  0
 17 13  1  0
  2 18  1  0
  3 19  1  0
  7 20  1  0
  8 21  1  0
 11 22  1  0
 14 23  1  0
 16 24  1  0
M  ISO  7  18  14  19  14  20  14  21  14  22  14  23  14  24  14
M  END
>  <minimizedAffinity>  (1) 
-4.98033476

>  <minimizedRMSD>  (1) 
0.159433618

$$$$
