
     RDKit          3D

 46 49  0  0  1  0  0  0  0  0999 V2000
   48.1430   34.4880   40.8900 C   0  0  2  0  0  0  0  0  0  0  0  0
   48.7390   35.6940   41.2960 C   0  0  0  0  0  0  0  0  0  0  0  0
   49.9260   35.3270   42.2270 C   0  0  0  0  0  0  0  0  0  0  0  0
   49.9950   33.8150   42.3050 C   0  0  0  0  0  0  0  0  0  0  0  0
   48.6350   33.4300   41.9500 C   0  0  1  0  0  0  0  0  0  0  0  0
   48.4420   33.8390   39.5830 C   0  0  0  0  0  0  0  0  0  0  0  0
   48.3880   34.6240   38.4610 C   0  0  0  0  0  0  0  0  0  0  0  0
   48.6550   34.0920   37.2200 C   0  0  0  0  0  0  0  0  0  0  0  0
   48.9710   32.7470   37.1990 N   0  0  0  0  0  0  0  0  0  0  0  0
   49.0140   32.0190   38.3080 C   0  0  0  0  0  0  0  0  0  0  0  0
   48.7540   32.5370   39.5160 N   0  0  0  0  0  0  0  0  0  0  0  0
   47.7410   33.4700   43.1520 C   0  0  0  0  0  0  0  0  0  0  0  0
   46.3170   33.7170   42.7650 C   0  0  0  0  0  0  0  0  0  0  0  0
   45.6440   34.3060   43.9630 C   0  0  0  0  0  0  0  0  0  0  0  0
   45.1440   35.5600   44.1370 C   0  0  0  0  0  0  0  0  0  0  0  0
   44.6210   35.6390   45.3810 N   0  0  0  0  0  0  0  0  0  0  0  0
   44.7980   34.4460   45.9640 C   0  0  0  0  0  0  0  0  0  0  0  0
   45.4150   33.6260   45.1210 N   0  0  0  0  0  0  0  0  0  0  0  0
   45.7800   32.2510   45.4050 C   0  0  0  0  0  0  0  0  0  0  0  0
   46.3020   32.0300   46.7250 C   0  0  0  0  0  0  0  0  0  0  0  0
   47.3620   32.3450   47.5570 C   0  0  0  0  0  0  0  0  0  0  0  0
   47.4080   31.8710   48.8360 C   0  0  0  0  0  0  0  0  0  0  0  0
   46.3250   31.0480   49.2650 C   0  0  0  0  0  0  0  0  0  0  0  0
   45.2540   30.9980   47.7380 S   0  0  0  0  0  0  0  0  0  0  0  0
   47.0837   34.7690   40.7951 H   0  0  0  0  0  0  0  0  0  0  0  0
   49.1049   36.2479   40.4189 H   0  0  0  0  0  0  0  0  0  0  0  0
   48.0128   36.3318   41.8211 H   0  0  0  0  0  0  0  0  0  0  0  0
   50.8644   35.7247   41.8132 H   0  0  0  0  0  0  0  0  0  0  0  0
   49.7808   35.7598   43.2278 H   0  0  0  0  0  0  0  0  0  0  0  0
   50.7247   33.4108   41.5879 H   0  0  0  0  0  0  0  0  0  0  0  0
   50.3213   33.4362   43.2848 H   0  0  0  0  0  0  0  0  0  0  0  0
   48.6089   32.4048   41.5522 H   0  0  0  0  0  0  0  0  0  0  0  0
   48.1289   35.6891   38.5531 H   0  0  0  0  0  0  0  0  0  0  0  0
   48.6191   34.6989   36.3033 H   0  0  0  0  0  0  0  0  0  0  0  0
   49.2723   30.9524   38.2326 H   0  0  0  0  0  0  0  0  0  0  0  0
   47.8067   32.5068   43.6792 H   0  0  0  0  0  0  0  0  0  0  0  0
   48.0711   34.2939   43.8018 H   0  0  0  0  0  0  0  0  0  0  0  0
   46.2699   34.4194   41.9198 H   0  0  0  0  0  0  0  0  0  0  0  0
   45.8240   32.7849   42.4517 H   0  0  0  0  0  0  0  0  0  0  0  0
   45.1624   36.3700   43.3930 H   0  0  0  0  0  0  0  0  0  0  0  0
   44.4809   34.1855   46.9846 H   0  0  0  0  0  0  0  0  0  0  0  0
   44.8834   31.6258   45.2818 H   0  0  0  0  0  0  0  0  0  0  0  0
   46.5871   31.9921   44.7038 H   0  0  0  0  0  0  0  0  0  0  0  0
   48.1758   32.9840   47.1837 H   0  0  0  0  0  0  0  0  0  0  0  0
   48.2448   32.1134   49.5075 H   0  0  0  0  0  0  0  0  0  0  0  0
   46.1633   30.5680   50.2414 H   0  0  0  0  0  0  0  0  0  0  0  0
  1  2  1  0
  1  5  1  0
  2  3  1  0
  3  4  1  0
  5  4  1  0
  5 12  1  0
  6  1  1  0
  7  6  2  0
  8  7  1  0
  9  8  2  0
  9 10  1  0
 10 11  2  0
 11  6  1  0
 13 12  1  0
 13 14  1  0
 14 15  2  0
 14 18  1  0
 15 16  1  0
 16 17  2  0
 18 19  1  0
 18 17  1  0
 19 20  1  0
 20 21  2  0
 20 24  1  0
 21 22  1  0
 22 23  2  0
 24 23  1  0
  1 25  1  1
  2 26  1  0
  2 27  1  0
  3 28  1  0
  3 29  1  0
  4 30  1  0
  4 31  1  0
  5 32  1  6
  7 33  1  0
  8 34  1  0
 10 35  1  0
 12 36  1  0
 12 37  1  0
 13 38  1  0
 13 39  1  0
 15 40  1  0
 17 41  1  0
 19 42  1  0
 19 43  1  0
 21 44  1  0
 22 45  1  0
 23 46  1  0
M  ISO  8  25  13  26  13  27  13  28  13  29  13  30  13  31  13  32  13
M  ISO  8  33  14  34  14  35  14  36   8  37   8  38   8  39   8  40  14
M  ISO  6  41  14  42   8  43   8  44  14  45  14  46  14
M  END
>  <minimizedAffinity>  (1) 
-5.76044369

>  <minimizedRMSD>  (1) 
1.45171309

$$$$
