
     RDKit          3D

 39 42  0  0  0  0  0  0  0  0999 V2000
   46.9580   34.8300   41.9610 C   0  0  0  0  0  0  0  0  0  0  0  0
   48.1970   35.4450   41.9360 C   0  0  0  0  0  0  0  0  0  0  0  0
   48.9000   35.3510   40.7800 C   0  0  0  0  0  0  0  0  0  0  0  0
   48.4030   34.6910   39.7250 N   0  0  0  0  0  0  0  0  0  0  0  0
   47.1880   34.0990   39.7760 C   0  0  0  0  0  0  0  0  0  0  0  0
   46.4800   34.1860   40.9200 N   0  0  0  0  0  0  0  0  0  0  0  0
   46.7230   33.4130   38.6100 N   0  0  0  0  0  0  0  0  0  0  0  0
   45.7910   32.4460   38.8610 C   0  0  0  0  0  0  0  0  0  0  0  0
   45.2550   31.7010   37.8050 C   0  0  0  0  0  0  0  0  0  0  0  0
   45.7320   32.0190   36.5590 C   0  0  0  0  0  0  0  0  0  0  0  0
   45.2290   31.3270   35.6250 O   0  0  0  0  0  0  0  0  0  0  0  0
   46.6490   32.9680   36.3010 N   0  0  0  0  0  0  0  0  0  0  0  0
   47.1400   33.6640   37.3550 C   0  0  0  0  0  0  0  0  0  0  0  0
   47.9890   34.5540   37.1880 O   0  0  0  0  0  0  0  0  0  0  0  0
   44.4910   35.9500   44.5430 C   0  0  0  0  0  0  0  0  0  0  0  0
   45.2320   35.9140   43.3260 C   0  0  0  0  0  0  0  0  0  0  0  0
   46.1790   34.9100   43.1780 C   0  0  0  0  0  0  0  0  0  0  0  0
   46.3400   34.0290   44.1950 N   0  0  0  0  0  0  0  0  0  0  0  0
   45.6140   34.0940   45.3430 C   0  0  0  0  0  0  0  0  0  0  0  0
   44.6830   35.0670   45.5100 N   0  0  0  0  0  0  0  0  0  0  0  0
   45.8760   33.0990   46.3540 N   0  0  0  0  0  0  0  0  0  0  0  0
   45.0990   33.1580   47.4470 C   0  0  0  0  0  0  0  0  0  0  0  0
   45.3270   32.2250   48.4210 C   0  0  0  0  0  0  0  0  0  0  0  0
   46.3260   31.2990   48.2210 C   0  0  0  0  0  0  0  0  0  0  0  0
   46.5150   30.3550   49.2670 N   0  0  0  0  0  0  0  0  0  0  0  0
   47.0630   31.3040   47.0950 N   0  0  0  0  0  0  0  0  0  0  0  0
   46.8640   32.2120   46.1110 C   0  0  0  0  0  0  0  0  0  0  0  0
   47.5360   32.2410   45.0540 O   0  0  0  0  0  0  0  0  0  0  0  0
   48.5922   35.9833   42.8101 H   0  0  0  0  0  0  0  0  0  0  0  0
   49.8911   35.8227   40.7075 H   0  0  0  0  0  0  0  0  0  0  0  0
   45.4622   32.2533   39.8929 H   0  0  0  0  0  0  0  0  0  0  0  0
   44.5027   30.9142   37.9632 H   0  0  0  0  0  0  0  0  0  0  0  0
   46.9659   33.1585   35.3397 H   0  0  0  0  0  0  0  0  0  0  0  0
   43.7353   36.7369   44.6830 H   0  0  0  0  0  0  0  0  0  0  0  0
   45.0595   36.6556   42.5321 H   0  0  0  0  0  0  0  0  0  0  0  0
   44.3147   33.9218   47.5545 H   0  0  0  0  0  0  0  0  0  0  0  0
   44.7263   32.2148   49.3424 H   0  0  0  0  0  0  0  0  0  0  0  0
   47.2453   29.6334   49.1838 H   0  0  0  0  0  0  0  0  0  0  0  0
   45.9217   30.3926   50.1081 H   0  0  0  0  0  0  0  0  0  0  0  0
  1 17  1  0
  2  1  2  0
  3  2  1  0
  4  5  1  0
  4  3  2  0
  5  6  2  0
  6  1  1  0
  7  8  1  0
  7  5  1  0
  9  8  2  0
 10  9  1  0
 11 10  2  0
 12 10  1  0
 12 13  1  0
 13  7  1  0
 14 13  2  0
 15 20  2  0
 16 15  1  0
 17 16  2  0
 17 18  1  0
 18 19  2  0
 19 20  1  0
 19 21  1  0
 21 22  1  0
 22 23  2  0
 24 23  1  0
 24 25  1  0
 26 24  2  0
 27 21  1  0
 27 26  1  0
 28 27  2  0
  2 29  1  0
  3 30  1  0
  8 31  1  0
  9 32  1  0
 12 33  1  0
 15 34  1  0
 16 35  1  0
 22 36  1  0
 23 37  1  0
 25 38  1  0
 25 39  1  0
M  ISO  8  29  14  30  14  31  14  32  14  33   9  34  14  35  14  36  14
M  ISO  1  37  14
M  END
>  <minimizedAffinity>  (1) 
-8.36617565

>  <minimizedRMSD>  (1) 
0.171527565

$$$$
