
     RDKit          3D

 44 48  0  0  0  0  0  0  0  0999 V2000
   46.9350   34.8910   42.0020 C   0  0  0  0  0  0  0  0  0  0  0  0
   48.1870   35.4970   42.0120 C   0  0  0  0  0  0  0  0  0  0  0  0
   48.9300   35.3840   40.8860 C   0  0  0  0  0  0  0  0  0  0  0  0
   48.4640   34.7160   39.8210 N   0  0  0  0  0  0  0  0  0  0  0  0
   47.2500   34.1380   39.8330 C   0  0  0  0  0  0  0  0  0  0  0  0
   46.4910   34.2410   40.9560 N   0  0  0  0  0  0  0  0  0  0  0  0
   46.8120   33.4420   38.6590 N   0  0  0  0  0  0  0  0  0  0  0  0
   45.8890   32.4800   38.8900 C   0  0  0  0  0  0  0  0  0  0  0  0
   45.3840   31.7340   37.8180 C   0  0  0  0  0  0  0  0  0  0  0  0
   45.8840   32.0530   36.5820 C   0  0  0  0  0  0  0  0  0  0  0  0
   45.3840   31.3420   35.6570 O   0  0  0  0  0  0  0  0  0  0  0  0
   46.7950   33.0020   36.3480 N   0  0  0  0  0  0  0  0  0  0  0  0
   47.2510   33.6940   37.4140 C   0  0  0  0  0  0  0  0  0  0  0  0
   48.1100   34.6020   37.2650 O   0  0  0  0  0  0  0  0  0  0  0  0
   44.4460   36.0160   44.5450 C   0  0  0  0  0  0  0  0  0  0  0  0
   45.1940   36.0180   43.3260 C   0  0  0  0  0  0  0  0  0  0  0  0
   46.1120   34.9970   43.1980 C   0  0  0  0  0  0  0  0  0  0  0  0
   46.2050   34.1260   44.2110 N   0  0  0  0  0  0  0  0  0  0  0  0
   45.4990   34.1290   45.3560 C   0  0  0  0  0  0  0  0  0  0  0  0
   44.6100   35.1070   45.4950 N   0  0  0  0  0  0  0  0  0  0  0  0
   45.8740   33.0220   46.2250 C   0  0  0  0  0  0  0  0  0  0  0  0
   45.4610   32.9300   47.5240 C   0  0  0  0  0  0  0  0  0  0  0  0
   45.7900   31.9040   48.3820 C   0  0  0  0  0  0  0  0  0  0  0  0
   46.5900   30.8720   47.9460 C   0  0  0  0  0  0  0  0  0  0  0  0
   47.0310   30.9200   46.6520 C   0  0  0  0  0  0  0  0  0  0  0  0
   47.8300   29.8780   46.2370 C   0  0  0  0  0  0  0  0  0  0  0  0
   48.3190   29.8430   44.9490 C   0  0  0  0  0  0  0  0  0  0  0  0
   47.9630   30.9030   44.1070 C   0  0  0  0  0  0  0  0  0  0  0  0
   47.1670   31.9080   44.5760 C   0  0  0  0  0  0  0  0  0  0  0  0
   46.6690   31.9630   45.8540 C   0  0  0  0  0  0  0  0  0  0  0  0
   48.5559   36.0423   42.8932 H   0  0  0  0  0  0  0  0  0  0  0  0
   49.9276   35.8456   40.8444 H   0  0  0  0  0  0  0  0  0  0  0  0
   45.5374   32.2851   39.9139 H   0  0  0  0  0  0  0  0  0  0  0  0
   44.6336   30.9421   37.9587 H   0  0  0  0  0  0  0  0  0  0  0  0
   47.1348   33.1973   35.3955 H   0  0  0  0  0  0  0  0  0  0  0  0
   43.6983   36.8075   44.7015 H   0  0  0  0  0  0  0  0  0  0  0  0
   45.0475   36.7797   42.5461 H   0  0  0  0  0  0  0  0  0  0  0  0
   44.8189   33.7340   47.9131 H   0  0  0  0  0  0  0  0  0  0  0  0
   45.4135   31.9092   49.4156 H   0  0  0  0  0  0  0  0  0  0  0  0
   46.8640   30.0409   48.6124 H   0  0  0  0  0  0  0  0  0  0  0  0
   48.0796   29.0681   46.9383 H   0  0  0  0  0  0  0  0  0  0  0  0
   48.9595   29.0201   44.5988 H   0  0  0  0  0  0  0  0  0  0  0  0
   48.3243   30.9262   43.0683 H   0  0  0  0  0  0  0  0  0  0  0  0
   46.9084   32.7251   43.8865 H   0  0  0  0  0  0  0  0  0  0  0  0
  1  2  2  0
  1 17  1  0
  3  2  1  0
  4  5  1  0
  4  3  2  0
  5  6  2  0
  6  1  1  0
  7  8  1  0
  7  5  1  0
  9  8  2  0
 10  9  1  0
 11 10  2  0
 12 10  1  0
 12 13  1  0
 13  7  1  0
 14 13  2  0
 15 20  2  0
 16 15  1  0
 17 16  2  0
 17 18  1  0
 18 19  2  0
 19 20  1  0
 19 21  1  0
 21 22  2  0
 22 23  1  0
 24 23  2  0
 25 24  1  0
 26 25  2  0
 27 26  1  0
 28 29  1  0
 28 27  2  0
 29 30  2  0
 30 21  1  0
 30 25  1  0
  2 31  1  0
  3 32  1  0
  8 33  1  0
  9 34  1  0
 12 35  1  0
 15 36  1  0
 16 37  1  0
 22 38  1  0
 23 39  1  0
 24 40  1  0
 26 41  1  0
 27 42  1  0
 28 43  1  0
 29 44  1  0
M  ISO  8  31  14  32  14  33  14  34  14  35   9  36  14  37  14  38  14
M  ISO  6  39  14  40  14  41  14  42  14  43  14  44  14
M  END
>  <minimizedAffinity>  (1) 
-8.13709259

>  <minimizedRMSD>  (1) 
0.221122921

$$$$
