
     RDKit          3D

 33 36  0  0  0  0  0  0  0  0999 V2000
   46.9990   34.8480   41.9890 C   0  0  0  0  0  0  0  0  0  0  0  0
   48.2100   35.4900   41.9750 C   0  0  0  0  0  0  0  0  0  0  0  0
   48.9310   35.4210   40.8290 C   0  0  0  0  0  0  0  0  0  0  0  0
   48.4570   34.7460   39.7640 N   0  0  0  0  0  0  0  0  0  0  0  0
   47.2620   34.1210   39.7990 C   0  0  0  0  0  0  0  0  0  0  0  0
   46.5350   34.1860   40.9450 N   0  0  0  0  0  0  0  0  0  0  0  0
   46.8310   33.4300   38.6390 N   0  0  0  0  0  0  0  0  0  0  0  0
   45.9210   32.4370   38.8760 C   0  0  0  0  0  0  0  0  0  0  0  0
   45.4140   31.6800   37.8170 C   0  0  0  0  0  0  0  0  0  0  0  0
   45.8910   32.0060   36.5720 C   0  0  0  0  0  0  0  0  0  0  0  0
   45.4170   31.3040   35.6320 O   0  0  0  0  0  0  0  0  0  0  0  0
   46.7920   32.9860   36.3260 N   0  0  0  0  0  0  0  0  0  0  0  0
   47.2450   33.6850   37.3900 C   0  0  0  0  0  0  0  0  0  0  0  0
   48.0820   34.6070   37.2220 O   0  0  0  0  0  0  0  0  0  0  0  0
   44.4650   35.8700   44.5480 C   0  0  0  0  0  0  0  0  0  0  0  0
   45.2070   35.8710   43.3300 C   0  0  0  0  0  0  0  0  0  0  0  0
   46.2020   34.9040   43.2080 C   0  0  0  0  0  0  0  0  0  0  0  0
   46.4000   34.0420   44.2300 N   0  0  0  0  0  0  0  0  0  0  0  0
   45.6690   34.0770   45.3730 C   0  0  0  0  0  0  0  0  0  0  0  0
   44.6940   35.0030   45.5270 N   0  0  0  0  0  0  0  0  0  0  0  0
   45.9650   33.0990   46.4160 C   0  0  0  0  0  0  0  0  0  0  0  0
   46.9260   32.1600   46.6000 N   0  0  0  0  0  0  0  0  0  0  0  0
   46.7140   31.5500   47.7310 O   0  0  0  0  0  0  0  0  0  0  0  0
   45.6420   32.0320   48.3330 C   0  0  0  0  0  0  0  0  0  0  0  0
   45.1810   32.9960   47.5080 N   0  0  0  0  0  0  0  0  0  0  0  0
   48.5804   36.0369   42.8546 H   0  0  0  0  0  0  0  0  0  0  0  0
   49.9097   35.9196   40.7684 H   0  0  0  0  0  0  0  0  0  0  0  0
   45.5871   32.2336   39.9042 H   0  0  0  0  0  0  0  0  0  0  0  0
   44.6803   30.8751   37.9709 H   0  0  0  0  0  0  0  0  0  0  0  0
   47.1177   33.1897   35.3703 H   0  0  0  0  0  0  0  0  0  0  0  0
   43.6701   36.6185   44.6818 H   0  0  0  0  0  0  0  0  0  0  0  0
   45.0042   36.5972   42.5291 H   0  0  0  0  0  0  0  0  0  0  0  0
   45.2170   31.7165   49.2973 H   0  0  0  0  0  0  0  0  0  0  0  0
  1 17  1  0
  2  1  2  0
  3  2  1  0
  4  5  1  0
  4  3  2  0
  5  6  2  0
  6  1  1  0
  7  8  1  0
  7  5  1  0
  9  8  2  0
 10  9  1  0
 11 10  2  0
 12 10  1  0
 12 13  1  0
 13  7  1  0
 14 13  2  0
 15 20  2  0
 16 15  1  0
 17 16  2  0
 17 18  1  0
 18 19  2  0
 19 20  1  0
 19 21  1  0
 21 22  2  0
 21 25  1  0
 22 23  1  0
 23 24  1  0
 25 24  2  0
  2 26  1  0
  3 27  1  0
  8 28  1  0
  9 29  1  0
 12 30  1  0
 15 31  1  0
 16 32  1  0
 24 33  1  0
M  ISO  8  26  14  27  14  28  14  29  14  30   9  31  14  32  14  33  14
M  END
>  <minimizedAffinity>  (1) 
-7.11306286

>  <minimizedRMSD>  (1) 
0.421759516

$$$$
