
     RDKit          3D

 31 33  0  0  0  0  0  0  0  0999 V2000
   46.9880   34.8490   42.0150 C   0  0  0  0  0  0  0  0  0  0  0  0
   48.2050   35.4880   42.0060 C   0  0  0  0  0  0  0  0  0  0  0  0
   48.9260   35.4110   40.8570 C   0  0  0  0  0  0  0  0  0  0  0  0
   48.4600   34.7400   39.7900 N   0  0  0  0  0  0  0  0  0  0  0  0
   47.2580   34.1180   39.8270 C   0  0  0  0  0  0  0  0  0  0  0  0
   46.5250   34.1880   40.9710 N   0  0  0  0  0  0  0  0  0  0  0  0
   46.8280   33.4240   38.6550 N   0  0  0  0  0  0  0  0  0  0  0  0
   45.9260   32.4300   38.8990 C   0  0  0  0  0  0  0  0  0  0  0  0
   45.4250   31.6730   37.8380 C   0  0  0  0  0  0  0  0  0  0  0  0
   45.8980   32.0020   36.5900 C   0  0  0  0  0  0  0  0  0  0  0  0
   45.4190   31.2910   35.6500 O   0  0  0  0  0  0  0  0  0  0  0  0
   46.7820   32.9780   36.3510 N   0  0  0  0  0  0  0  0  0  0  0  0
   47.2460   33.6920   37.4030 C   0  0  0  0  0  0  0  0  0  0  0  0
   48.0700   34.6120   37.2470 O   0  0  0  0  0  0  0  0  0  0  0  0
   44.4820   35.9330   44.5660 C   0  0  0  0  0  0  0  0  0  0  0  0
   45.2350   35.9270   43.3580 C   0  0  0  0  0  0  0  0  0  0  0  0
   46.1900   34.9080   43.2200 C   0  0  0  0  0  0  0  0  0  0  0  0
   46.3280   34.0170   44.2230 N   0  0  0  0  0  0  0  0  0  0  0  0
   45.5840   34.0660   45.3570 C   0  0  0  0  0  0  0  0  0  0  0  0
   44.6610   35.0220   45.5310 N   0  0  0  0  0  0  0  0  0  0  0  0
   45.9170   32.9660   46.3330 C   0  0  0  0  0  0  0  0  0  0  0  0
   47.1750   33.1280   46.8600 F   0  0  0  0  0  0  0  0  0  0  0  0
   45.7120   31.7670   45.7070 F   0  0  0  0  0  0  0  0  0  0  0  0
   45.0220   33.0170   47.4100 F   0  0  0  0  0  0  0  0  0  0  0  0
   48.5767   36.0345   42.8853 H   0  0  0  0  0  0  0  0  0  0  0  0
   49.9068   35.9058   40.7992 H   0  0  0  0  0  0  0  0  0  0  0  0
   45.5946   32.2256   39.9278 H   0  0  0  0  0  0  0  0  0  0  0  0
   44.6966   30.8631   37.9914 H   0  0  0  0  0  0  0  0  0  0  0  0
   47.1005   33.1803   35.3926 H   0  0  0  0  0  0  0  0  0  0  0  0
   43.7237   36.7163   44.7125 H   0  0  0  0  0  0  0  0  0  0  0  0
   45.0766   36.6817   42.5736 H   0  0  0  0  0  0  0  0  0  0  0  0
  1 17  1  0
  2  1  2  0
  3  2  1  0
  4  5  1  0
  4  3  2  0
  5  6  2  0
  6  1  1  0
  7  8  1  0
  7  5  1  0
  9  8  2  0
 10  9  1  0
 11 10  2  0
 12 10  1  0
 12 13  1  0
 13  7  1  0
 14 13  2  0
 15 20  2  0
 16 15  1  0
 17 16  2  0
 17 18  1  0
 18 19  2  0
 19 20  1  0
 19 21  1  0
 21 22  1  0
 21 24  1  0
 23 21  1  0
  2 25  1  0
  3 26  1  0
  8 27  1  0
  9 28  1  0
 12 29  1  0
 15 30  1  0
 16 31  1  0
M  ISO  7  25  14  26  14  27  14  28  14  29   9  30  14  31  14
M  END
>  <minimizedAffinity>  (1) 
-6.91665459

>  <minimizedRMSD>  (1) 
0.102427788

$$$$
