
     RDKit          3D

 31 33  0  0  0  0  0  0  0  0999 V2000
   47.0690   34.7840   41.9750 C   0  0  0  0  0  0  0  0  0  0  0  0
   48.2610   35.4950   41.9350 C   0  0  0  0  0  0  0  0  0  0  0  0
   48.9450   35.4760   40.7620 C   0  0  0  0  0  0  0  0  0  0  0  0
   48.4770   34.7970   39.7040 N   0  0  0  0  0  0  0  0  0  0  0  0
   47.3040   34.1050   39.7660 C   0  0  0  0  0  0  0  0  0  0  0  0
   46.6160   34.1180   40.9260 N   0  0  0  0  0  0  0  0  0  0  0  0
   46.8850   33.4170   38.6030 N   0  0  0  0  0  0  0  0  0  0  0  0
   46.0360   32.3750   38.8470 C   0  0  0  0  0  0  0  0  0  0  0  0
   45.5480   31.6120   37.7820 C   0  0  0  0  0  0  0  0  0  0  0  0
   45.9830   31.9940   36.5220 C   0  0  0  0  0  0  0  0  0  0  0  0
   45.5120   31.2700   35.5860 O   0  0  0  0  0  0  0  0  0  0  0  0
   46.8120   33.0110   36.2810 N   0  0  0  0  0  0  0  0  0  0  0  0
   47.2510   33.7100   37.3490 C   0  0  0  0  0  0  0  0  0  0  0  0
   48.0350   34.6800   37.1770 O   0  0  0  0  0  0  0  0  0  0  0  0
   44.5470   35.6260   44.5910 C   0  0  0  0  0  0  0  0  0  0  0  0
   45.2540   35.6740   43.3580 C   0  0  0  0  0  0  0  0  0  0  0  0
   46.3130   34.7810   43.2050 C   0  0  0  0  0  0  0  0  0  0  0  0
   46.5930   33.9420   44.2220 N   0  0  0  0  0  0  0  0  0  0  0  0
   45.8920   33.9260   45.3890 C   0  0  0  0  0  0  0  0  0  0  0  0
   44.8710   34.7660   45.5720 N   0  0  0  0  0  0  0  0  0  0  0  0
   46.2630   32.9830   46.4390 C   0  0  0  0  0  0  0  0  0  0  0  0
   45.7140   31.8540   46.4970 O   0  0  0  0  0  0  0  0  0  0  0  0
   47.2120   33.2890   47.3920 O   0  0  0  0  0  0  0  0  0  0  0  0
   48.6331   36.0468   42.8108 H   0  0  0  0  0  0  0  0  0  0  0  0
   49.8949   36.0244   40.6784 H   0  0  0  0  0  0  0  0  0  0  0  0
   45.7372   32.1370   39.8785 H   0  0  0  0  0  0  0  0  0  0  0  0
   44.8638   30.7642   37.9337 H   0  0  0  0  0  0  0  0  0  0  0  0
   47.1039   33.2520   35.3231 H   0  0  0  0  0  0  0  0  0  0  0  0
   43.7055   36.3169   44.7474 H   0  0  0  0  0  0  0  0  0  0  0  0
   44.9781   36.3823   42.5629 H   0  0  0  0  0  0  0  0  0  0  0  0
   47.4419   32.6276   48.0918 H   0  0  0  0  0  0  0  0  0  0  0  0
  1 17  1  0
  2  1  2  0
  3  2  1  0
  4  5  1  0
  4  3  2  0
  5  6  2  0
  6  1  1  0
  7  8  1  0
  7  5  1  0
  9  8  2  0
 10  9  1  0
 11 10  2  0
 12 10  1  0
 12 13  1  0
 13  7  1  0
 14 13  2  0
 15 20  2  0
 16 15  1  0
 17 16  2  0
 17 18  1  0
 18 19  2  0
 19 20  1  0
 19 21  1  0
 21 22  2  0
 21 23  1  0
  2 24  1  0
  3 25  1  0
  8 26  1  0
  9 27  1  0
 12 28  1  0
 15 29  1  0
 16 30  1  0
 23 31  1  0
M  ISO  8  24  14  25  14  26  14  27  14  28   9  29  14  30  14  31   3
M  END
>  <minimizedAffinity>  (1) 
-6.9070282

>  <minimizedRMSD>  (1) 
0.232605904

$$$$
