
     RDKit          3D

 41 44  0  0  0  0  0  0  0  0999 V2000
   47.3120   34.5760   41.8860 C   0  0  0  0  0  0  0  0  0  0  0  0
   48.3410   35.4910   41.8140 C   0  0  0  0  0  0  0  0  0  0  0  0
   48.9410   35.6400   40.6060 C   0  0  0  0  0  0  0  0  0  0  0  0
   48.5380   34.9230   39.5450 N   0  0  0  0  0  0  0  0  0  0  0  0
   47.5250   34.0300   39.6360 C   0  0  0  0  0  0  0  0  0  0  0  0
   46.9250   33.8780   40.8340 N   0  0  0  0  0  0  0  0  0  0  0  0
   47.1510   33.3030   38.4650 N   0  0  0  0  0  0  0  0  0  0  0  0
   46.5230   32.1250   38.7090 C   0  0  0  0  0  0  0  0  0  0  0  0
   46.1010   31.3120   37.6510 C   0  0  0  0  0  0  0  0  0  0  0  0
   46.3760   31.8020   36.3990 C   0  0  0  0  0  0  0  0  0  0  0  0
   45.9820   31.0440   35.4590 O   0  0  0  0  0  0  0  0  0  0  0  0
   46.9950   32.9620   36.1560 N   0  0  0  0  0  0  0  0  0  0  0  0
   47.3840   33.7160   37.2020 C   0  0  0  0  0  0  0  0  0  0  0  0
   47.9650   34.8050   37.0340 O   0  0  0  0  0  0  0  0  0  0  0  0
   44.8720   34.8950   44.6980 C   0  0  0  0  0  0  0  0  0  0  0  0
   45.4930   35.1110   43.4420 C   0  0  0  0  0  0  0  0  0  0  0  0
   46.6420   34.3870   43.1620 C   0  0  0  0  0  0  0  0  0  0  0  0
   47.1030   33.5220   44.0940 N   0  0  0  0  0  0  0  0  0  0  0  0
   46.4820   33.3380   45.2930 C   0  0  0  0  0  0  0  0  0  0  0  0
   45.3670   34.0280   45.5880 N   0  0  0  0  0  0  0  0  0  0  0  0
   48.0890   30.6270   48.0500 C   0  0  0  0  0  0  0  0  0  0  0  0
   47.9300   30.2480   46.7330 C   0  0  0  0  0  0  0  0  0  0  0  0
   47.4010   31.1350   45.8180 C   0  0  0  0  0  0  0  0  0  0  0  0
   47.0450   32.3820   46.2490 C   0  0  0  0  0  0  0  0  0  0  0  0
   47.2140   32.7250   47.5570 C   0  0  0  0  0  0  0  0  0  0  0  0
   47.7430   31.8740   48.5280 C   0  0  0  0  0  0  0  0  0  0  0  0
   48.7600   29.4650   49.1480 S   0  0  0  0  0  0  0  0  0  0  0  0
   49.7830   28.5950   48.5050 O   0  0  0  0  0  0  0  0  0  0  0  0
   49.4260   30.1300   50.3310 O   0  0  0  0  0  0  0  0  0  0  0  0
   48.6598   36.0715   42.6923 H   0  0  0  0  0  0  0  0  0  0  0  0
   49.7677   36.3571   40.4948 H   0  0  0  0  0  0  0  0  0  0  0  0
   46.3442   31.8067   39.7466 H   0  0  0  0  0  0  0  0  0  0  0  0
   45.5875   30.3524   37.8109 H   0  0  0  0  0  0  0  0  0  0  0  0
   47.1706   33.2723   35.1897 H   0  0  0  0  0  0  0  0  0  0  0  0
   43.9588   35.4553   44.9472 H   0  0  0  0  0  0  0  0  0  0  0  0
   45.0787   35.8265   42.7164 H   0  0  0  0  0  0  0  0  0  0  0  0
   48.2251   29.2381   46.4122 H   0  0  0  0  0  0  0  0  0  0  0  0
   47.2688   30.8449   44.7652 H   0  0  0  0  0  0  0  0  0  0  0  0
   46.9144   33.7370   47.8670 H   0  0  0  0  0  0  0  0  0  0  0  0
   47.8724   32.1705   49.5793 H   0  0  0  0  0  0  0  0  0  0  0  0
   47.6933   28.7077   49.5550 H   0  0  0  0  0  0  0  0  0  0  0  0
  1 17  1  0
  2  1  2  0
  3  2  1  0
  4  5  1  0
  4  3  2  0
  5  6  2  0
  6  1  1  0
  7  8  1  0
  7  5  1  0
  9  8  2  0
 10  9  1  0
 11 10  2  0
 12 10  1  0
 12 13  1  0
 13  7  1  0
 14 13  2  0
 15 20  2  0
 16 15  1  0
 17 16  2  0
 17 18  1  0
 18 19  2  0
 19 20  1  0
 19 24  1  0
 21 26  2  0
 21 27  1  0
 22 21  1  0
 23 24  1  0
 23 22  2  0
 24 25  2  0
 25 26  1  0
 27 29  2  0
 28 27  2  0
  2 30  1  0
  3 31  1  0
  8 32  1  0
  9 33  1  0
 12 34  1  0
 15 35  1  0
 16 36  1  0
 22 37  1  0
 23 38  1  0
 25 39  1  0
 26 40  1  0
 27 41  1  0
M  ISO  8  30  14  31  14  32  14  33  14  34   9  35  14  36  14  37  14
M  ISO  4  38  14  39  14  40  14  41  11
M  END
>  <minimizedAffinity>  (1) 
-6.51615858

>  <minimizedRMSD>  (1) 
1.20455801

$$$$
