
     RDKit          3D

 31 33  0  0  0  0  0  0  0  0999 V2000
   46.9980   34.8580   41.9580 C   0  0  0  0  0  0  0  0  0  0  0  0
   48.2200   35.5060   41.9510 C   0  0  0  0  0  0  0  0  0  0  0  0
   48.9410   35.4280   40.8030 C   0  0  0  0  0  0  0  0  0  0  0  0
   48.4790   34.7530   39.7360 N   0  0  0  0  0  0  0  0  0  0  0  0
   47.2880   34.1310   39.7670 C   0  0  0  0  0  0  0  0  0  0  0  0
   46.5490   34.1990   40.9140 N   0  0  0  0  0  0  0  0  0  0  0  0
   46.8370   33.4260   38.6070 N   0  0  0  0  0  0  0  0  0  0  0  0
   45.9370   32.4410   38.8420 C   0  0  0  0  0  0  0  0  0  0  0  0
   45.4270   31.6860   37.7820 C   0  0  0  0  0  0  0  0  0  0  0  0
   45.9050   32.0260   36.5370 C   0  0  0  0  0  0  0  0  0  0  0  0
   45.4220   31.3220   35.6010 O   0  0  0  0  0  0  0  0  0  0  0  0
   46.7950   32.9980   36.2940 N   0  0  0  0  0  0  0  0  0  0  0  0
   47.2590   33.6980   37.3490 C   0  0  0  0  0  0  0  0  0  0  0  0
   48.0960   34.6250   37.1860 O   0  0  0  0  0  0  0  0  0  0  0  0
   44.4980   35.9180   44.5160 C   0  0  0  0  0  0  0  0  0  0  0  0
   45.2480   35.9110   43.3090 C   0  0  0  0  0  0  0  0  0  0  0  0
   46.2030   34.9190   43.1630 C   0  0  0  0  0  0  0  0  0  0  0  0
   46.3670   34.0140   44.1750 N   0  0  0  0  0  0  0  0  0  0  0  0
   45.6320   34.0530   45.3140 C   0  0  0  0  0  0  0  0  0  0  0  0
   44.6900   35.0120   45.4860 N   0  0  0  0  0  0  0  0  0  0  0  0
   45.9670   32.9720   46.2970 C   0  0  0  0  0  0  0  0  0  0  0  0
   48.5885   36.0558   42.8296 H   0  0  0  0  0  0  0  0  0  0  0  0
   49.9202   35.9258   40.7450 H   0  0  0  0  0  0  0  0  0  0  0  0
   45.6064   32.2347   39.8707 H   0  0  0  0  0  0  0  0  0  0  0  0
   44.6959   30.8779   37.9321 H   0  0  0  0  0  0  0  0  0  0  0  0
   47.1131   33.2030   35.3360 H   0  0  0  0  0  0  0  0  0  0  0  0
   43.7323   36.6946   44.6599 H   0  0  0  0  0  0  0  0  0  0  0  0
   45.0771   36.6620   42.5237 H   0  0  0  0  0  0  0  0  0  0  0  0
   45.8476   33.3572   47.3204 H   0  0  0  0  0  0  0  0  0  0  0  0
   45.2917   32.1169   46.1460 H   0  0  0  0  0  0  0  0  0  0  0  0
   47.0075   32.6486   46.1460 H   0  0  0  0  0  0  0  0  0  0  0  0
  1 17  1  0
  2  1  2  0
  3  2  1  0
  4  5  1  0
  4  3  2  0
  5  6  2  0
  6  1  1  0
  7  8  1  0
  7  5  1  0
  9  8  2  0
 10  9  1  0
 11 10  2  0
 12 10  1  0
 12 13  1  0
 13  7  1  0
 14 13  2  0
 15 20  2  0
 16 15  1  0
 17 16  2  0
 17 18  1  0
 18 19  2  0
 19 20  1  0
 19 21  1  0
  2 22  1  0
  3 23  1  0
  8 24  1  0
  9 25  1  0
 12 26  1  0
 15 27  1  0
 16 28  1  0
 21 29  1  0
 21 30  1  0
 21 31  1  0
M  ISO  8  22  14  23  14  24  14  25  14  26   9  27  14  28  14  29   8
M  ISO  2  30   8  31   8
M  END
>  <minimizedAffinity>  (1) 
-6.37298346

>  <minimizedRMSD>  (1) 
0.0525557511

$$$$
