
     RDKit          3D

 30 32  0  0  0  0  0  0  0  0999 V2000
   47.0180   34.8430   41.9570 C   0  0  0  0  0  0  0  0  0  0  0  0
   48.2310   35.5070   41.9420 C   0  0  0  0  0  0  0  0  0  0  0  0
   48.9420   35.4420   40.7900 C   0  0  0  0  0  0  0  0  0  0  0  0
   48.4820   34.7660   39.7260 N   0  0  0  0  0  0  0  0  0  0  0  0
   47.3000   34.1270   39.7600 C   0  0  0  0  0  0  0  0  0  0  0  0
   46.5700   34.1790   40.9090 N   0  0  0  0  0  0  0  0  0  0  0  0
   46.8580   33.4240   38.6020 N   0  0  0  0  0  0  0  0  0  0  0  0
   45.9690   32.4210   38.8410 C   0  0  0  0  0  0  0  0  0  0  0  0
   45.4750   31.6690   37.7660 C   0  0  0  0  0  0  0  0  0  0  0  0
   45.9440   32.0190   36.5230 C   0  0  0  0  0  0  0  0  0  0  0  0
   45.4480   31.2920   35.6070 O   0  0  0  0  0  0  0  0  0  0  0  0
   46.8150   33.0030   36.2880 N   0  0  0  0  0  0  0  0  0  0  0  0
   47.2660   33.7010   37.3450 C   0  0  0  0  0  0  0  0  0  0  0  0
   48.0880   34.6380   37.1850 O   0  0  0  0  0  0  0  0  0  0  0  0
   44.5160   35.8600   44.5450 C   0  0  0  0  0  0  0  0  0  0  0  0
   45.2570   35.8700   43.3300 C   0  0  0  0  0  0  0  0  0  0  0  0
   46.2260   34.8880   43.1730 C   0  0  0  0  0  0  0  0  0  0  0  0
   46.4060   33.9950   44.1670 N   0  0  0  0  0  0  0  0  0  0  0  0
   45.6830   34.0050   45.3220 C   0  0  0  0  0  0  0  0  0  0  0  0
   44.7330   34.9540   45.4980 N   0  0  0  0  0  0  0  0  0  0  0  0
   46.0140   32.9810   46.2610 N   0  0  0  0  0  0  0  0  0  0  0  0
   48.5995   36.0590   42.8192 H   0  0  0  0  0  0  0  0  0  0  0  0
   49.9141   35.9528   40.7260 H   0  0  0  0  0  0  0  0  0  0  0  0
   45.6414   32.2027   39.8681 H   0  0  0  0  0  0  0  0  0  0  0  0
   44.7559   30.8489   37.9089 H   0  0  0  0  0  0  0  0  0  0  0  0
   47.1301   33.2197   35.3316 H   0  0  0  0  0  0  0  0  0  0  0  0
   43.7401   36.6237   44.7024 H   0  0  0  0  0  0  0  0  0  0  0  0
   45.0703   36.6225   42.5497 H   0  0  0  0  0  0  0  0  0  0  0  0
   45.5112   32.9228   47.1581 H   0  0  0  0  0  0  0  0  0  0  0  0
   46.7555   32.3008   46.0411 H   0  0  0  0  0  0  0  0  0  0  0  0
  1 17  1  0
  2  1  2  0
  3  2  1  0
  4  5  1  0
  4  3  2  0
  5  6  2  0
  6  1  1  0
  7  8  1  0
  7  5  1  0
  9  8  2  0
 10  9  1  0
 11 10  2  0
 12 10  1  0
 12 13  1  0
 13  7  1  0
 14 13  2  0
 15 20  2  0
 16 15  1  0
 17 16  2  0
 17 18  1  0
 18 19  2  0
 19 20  1  0
 19 21  1  0
  2 22  1  0
  3 23  1  0
  8 24  1  0
  9 25  1  0
 12 26  1  0
 15 27  1  0
 16 28  1  0
 21 29  1  0
 21 30  1  0
M  ISO  7  22  14  23  14  24  14  25  14  26   9  27  14  28  14
M  END
>  <minimizedAffinity>  (1) 
-6.32894468

>  <minimizedRMSD>  (1) 
0.0227466375

$$$$
