
     RDKit          3D

 48 51  0  0  1  0  0  0  0  0999 V2000
   48.3260   33.0740   43.3680 C   0  0  0  0  0  0  0  0  0  0  0  0
   48.1220   34.1860   41.1340 C   0  0  2  0  0  0  0  0  0  0  0  0
   48.4300   35.5000   41.5280 C   0  0  0  0  0  0  0  0  0  0  0  0
   49.7950   35.4480   42.2670 C   0  0  0  0  0  0  0  0  0  0  0  0
   50.2710   34.0070   42.2460 C   0  0  0  0  0  0  0  0  0  0  0  0
   49.0250   33.2730   42.0570 C   0  0  1  0  0  0  0  0  0  0  0  0
   48.3870   33.6710   39.7640 C   0  0  0  0  0  0  0  0  0  0  0  0
   48.2960   34.5630   38.7240 C   0  0  0  0  0  0  0  0  0  0  0  0
   48.5290   34.1630   37.4300 C   0  0  0  0  0  0  0  0  0  0  0  0
   48.8540   32.8300   37.2640 N   0  0  0  0  0  0  0  0  0  0  0  0
   48.9320   32.0010   38.2960 C   0  0  0  0  0  0  0  0  0  0  0  0
   48.7040   32.3910   39.5580 N   0  0  0  0  0  0  0  0  0  0  0  0
   46.8770   32.7280   43.1540 C   0  0  0  0  0  0  0  0  0  0  0  0
   46.1190   33.4550   44.2100 C   0  0  0  0  0  0  0  0  0  0  0  0
   45.2720   34.5120   44.0860 C   0  0  0  0  0  0  0  0  0  0  0  0
   44.8160   34.8500   45.3160 N   0  0  0  0  0  0  0  0  0  0  0  0
   45.3790   34.0040   46.1880 C   0  0  0  0  0  0  0  0  0  0  0  0
   46.1660   33.1570   45.5400 N   0  0  0  0  0  0  0  0  0  0  0  0
   46.9490   32.0780   46.1430 C   0  0  0  0  0  0  0  0  0  0  0  0
   46.0560   30.8920   46.2050 C   0  0  0  0  0  0  0  0  0  0  0  0
   45.7270   30.4800   47.4920 C   0  0  0  0  0  0  0  0  0  0  0  0
   44.9190   29.4050   47.7570 C   0  0  0  0  0  0  0  0  0  0  0  0
   44.3860   28.6730   46.7300 C   0  0  0  0  0  0  0  0  0  0  0  0
   44.7250   29.1000   45.4480 C   0  0  0  0  0  0  0  0  0  0  0  0
   45.5210   30.1570   45.2220 N   0  0  0  0  0  0  0  0  0  0  0  0
   48.8149   32.2556   43.9168 H   0  0  0  0  0  0  0  0  0  0  0  0
   48.3838   34.0094   43.9439 H   0  0  0  0  0  0  0  0  0  0  0  0
   47.0240   34.1735   41.1988 H   0  0  0  0  0  0  0  0  0  0  0  0
   48.5040   36.1511   40.6445 H   0  0  0  0  0  0  0  0  0  0  0  0
   47.6455   35.9059   42.1836 H   0  0  0  0  0  0  0  0  0  0  0  0
   50.5245   36.0919   41.7540 H   0  0  0  0  0  0  0  0  0  0  0  0
   49.6890   35.8058   43.3018 H   0  0  0  0  0  0  0  0  0  0  0  0
   50.9684   33.8296   41.4141 H   0  0  0  0  0  0  0  0  0  0  0  0
   50.8243   33.7118   43.1497 H   0  0  0  0  0  0  0  0  0  0  0  0
   49.2161   32.2828   41.6177 H   0  0  0  0  0  0  0  0  0  0  0  0
   48.0332   35.6112   38.9292 H   0  0  0  0  0  0  0  0  0  0  0  0
   48.4612   34.8591   36.5810 H   0  0  0  0  0  0  0  0  0  0  0  0
   49.1948   30.9494   38.1086 H   0  0  0  0  0  0  0  0  0  0  0  0
   46.5498   33.0545   42.1558 H   0  0  0  0  0  0  0  0  0  0  0  0
   46.7097   31.6425   43.2141 H   0  0  0  0  0  0  0  0  0  0  0  0
   45.0020   35.0099   43.1430 H   0  0  0  0  0  0  0  0  0  0  0  0
   45.2137   34.0109   47.2755 H   0  0  0  0  0  0  0  0  0  0  0  0
   47.8313   31.8573   45.5243 H   0  0  0  0  0  0  0  0  0  0  0  0
   47.3075   32.3586   47.1444 H   0  0  0  0  0  0  0  0  0  0  0  0
   46.1366   31.0463   48.3414 H   0  0  0  0  0  0  0  0  0  0  0  0
   44.6979   29.1293   48.7987 H   0  0  0  0  0  0  0  0  0  0  0  0
   43.7333   27.8052   46.9056 H   0  0  0  0  0  0  0  0  0  0  0  0
   44.3238   28.5481   44.5852 H   0  0  0  0  0  0  0  0  0  0  0  0
  2  3  1  0
  2  6  1  0
  3  4  1  0
  5  4  1  0
  6  5  1  0
  6  1  1  0
  7  2  1  0
  8  7  2  0
  9  8  1  0
 10  9  2  0
 10 11  1  0
 11 12  2  0
 12  7  1  0
 13  1  1  0
 13 14  1  0
 14 18  1  0
 15 14  2  0
 15 16  1  0
 16 17  2  0
 18 19  1  0
 18 17  1  0
 19 20  1  0
 20 21  2  0
 21 22  1  0
 23 22  2  0
 24 23  1  0
 25 24  2  0
 25 20  1  0
  1 26  1  0
  1 27  1  0
  2 28  1  1
  3 29  1  0
  3 30  1  0
  4 31  1  0
  4 32  1  0
  5 33  1  0
  5 34  1  0
  6 35  1  6
  8 36  1  0
  9 37  1  0
 11 38  1  0
 13 39  1  0
 13 40  1  0
 15 41  1  0
 17 42  1  0
 19 43  1  0
 19 44  1  0
 21 45  1  0
 22 46  1  0
 23 47  1  0
 24 48  1  0
M  ISO  8  26   8  27   8  28  13  29  13  30  13  31  13  32  13  33  13
M  ISO  8  34  13  35  13  36  14  37  14  38  14  39   8  40   8  41  14
M  ISO  7  42  14  43   8  44   8  45  14  46  14  47  14  48  14
M  END
>  <minimizedAffinity>  (1) 
-5.63641787

>  <minimizedRMSD>  (1) 
1.53835523

$$$$
