
     RDKit          3D

 45 49  0  0  0  0  0  0  0  0999 V2000
   44.4950   35.7250   44.4910 C   0  0  0  0  0  0  0  0  0  0  0  0
   45.2210   35.7330   43.2720 C   0  0  0  0  0  0  0  0  0  0  0  0
   46.2890   34.8570   43.1540 C   0  0  0  0  0  0  0  0  0  0  0  0
   46.5800   34.0470   44.2010 N   0  0  0  0  0  0  0  0  0  0  0  0
   45.8670   34.0560   45.3640 C   0  0  0  0  0  0  0  0  0  0  0  0
   44.8140   34.9070   45.5040 N   0  0  0  0  0  0  0  0  0  0  0  0
   47.0600   34.8290   41.9280 C   0  0  0  0  0  0  0  0  0  0  0  0
   48.2600   35.5040   41.9020 C   0  0  0  0  0  0  0  0  0  0  0  0
   48.9510   35.4520   40.7330 C   0  0  0  0  0  0  0  0  0  0  0  0
   48.4770   34.7740   39.6670 N   0  0  0  0  0  0  0  0  0  0  0  0
   47.2920   34.1210   39.7290 C   0  0  0  0  0  0  0  0  0  0  0  0
   46.5960   34.1650   40.8830 N   0  0  0  0  0  0  0  0  0  0  0  0
   46.8590   33.4270   38.5590 N   0  0  0  0  0  0  0  0  0  0  0  0
   45.9650   32.4240   38.8150 C   0  0  0  0  0  0  0  0  0  0  0  0
   45.4590   31.6640   37.7620 C   0  0  0  0  0  0  0  0  0  0  0  0
   45.9160   31.9970   36.5070 C   0  0  0  0  0  0  0  0  0  0  0  0
   45.4310   31.2820   35.5800 O   0  0  0  0  0  0  0  0  0  0  0  0
   46.7910   32.9800   36.2590 N   0  0  0  0  0  0  0  0  0  0  0  0
   47.2460   33.6810   37.3100 C   0  0  0  0  0  0  0  0  0  0  0  0
   48.0700   34.6140   37.1370 O   0  0  0  0  0  0  0  0  0  0  0  0
   46.2740   33.1290   46.4400 C   0  0  0  0  0  0  0  0  0  0  0  0
   45.1660   33.0150   47.5020 C   0  0  0  0  0  0  0  0  0  0  0  0
   45.2040   31.6350   47.9490 N   0  0  0  0  0  0  0  0  0  0  0  0
   45.0910   31.2270   49.2390 C   0  0  0  0  0  0  0  0  0  0  0  0
   45.1760   29.8690   49.2210 N   0  0  0  0  0  0  0  0  0  0  0  0
   45.3390   29.4360   47.9530 C   0  0  0  0  0  0  0  0  0  0  0  0
   45.4780   28.1780   47.3730 C   0  0  0  0  0  0  0  0  0  0  0  0
   45.6280   28.0640   46.0390 N   0  0  0  0  0  0  0  0  0  0  0  0
   45.6420   29.1660   45.2740 C   0  0  0  0  0  0  0  0  0  0  0  0
   45.5070   30.3870   45.8260 N   0  0  0  0  0  0  0  0  0  0  0  0
   45.3550   30.5670   47.1500 C   0  0  0  0  0  0  0  0  0  0  0  0
   43.6437   36.4116   44.6085 H   0  0  0  0  0  0  0  0  0  0  0  0
   44.9462   36.4102   42.4498 H   0  0  0  0  0  0  0  0  0  0  0  0
   48.6374   36.0535   42.7770 H   0  0  0  0  0  0  0  0  0  0  0  0
   49.9164   35.9733   40.6542 H   0  0  0  0  0  0  0  0  0  0  0  0
   45.6467   32.2181   39.8476 H   0  0  0  0  0  0  0  0  0  0  0  0
   44.7389   30.8484   37.9238 H   0  0  0  0  0  0  0  0  0  0  0  0
   47.1026   33.1900   35.3000 H   0  0  0  0  0  0  0  0  0  0  0  0
   46.4653   32.1354   46.0085 H   0  0  0  0  0  0  0  0  0  0  0  0
   47.1856   33.5173   46.9177 H   0  0  0  0  0  0  0  0  0  0  0  0
   45.3653   33.6974   48.3414 H   0  0  0  0  0  0  0  0  0  0  0  0
   44.1803   33.2877   47.0969 H   0  0  0  0  0  0  0  0  0  0  0  0
   44.9572   31.8673   50.1234 H   0  0  0  0  0  0  0  0  0  0  0  0
   45.4654   27.2771   48.0040 H   0  0  0  0  0  0  0  0  0  0  0  0
   45.7650   29.0713   44.1850 H   0  0  0  0  0  0  0  0  0  0  0  0
  1  6  2  0
  2  1  1  0
  3  2  2  0
  3  4  1  0
  4  5  2  0
  5  6  1  0
  5 21  1  0
  7  3  1  0
  8  7  2  0
  9  8  1  0
 10 11  1  0
 10  9  2  0
 11 12  2  0
 12  7  1  0
 13 14  1  0
 13 11  1  0
 15 14  2  0
 16 15  1  0
 17 16  2  0
 18 16  1  0
 18 19  1  0
 19 13  1  0
 20 19  2  0
 21 22  1  0
 22 23  1  0
 23 24  1  0
 25 24  2  0
 26 25  1  0
 27 26  2  0
 28 27  1  0
 29 30  1  0
 29 28  2  0
 30 31  2  0
 31 23  1  0
 31 26  1  0
  1 32  1  0
  2 33  1  0
  8 34  1  0
  9 35  1  0
 14 36  1  0
 15 37  1  0
 18 38  1  0
 21 39  1  0
 21 40  1  0
 22 41  1  0
 22 42  1  0
 24 43  1  0
 27 44  1  0
 29 45  1  0
M  ISO  8  32  14  33  14  34  14  35  14  36  14  37  14  38   9  39   8
M  ISO  6  40   8  41   8  42   8  43  14  44  14  45  14
M  END
>  <minimizedAffinity>  (1) 
-7.31250858

>  <minimizedRMSD>  (1) 
1.39602661

$$$$
