
     RDKit          3D

 47 50  0  0  0  0  0  0  0  0999 V2000
   44.6500   35.7480   44.6340 C   0  0  0  0  0  0  0  0  0  0  0  0
   45.4010   35.8060   43.4340 C   0  0  0  0  0  0  0  0  0  0  0  0
   46.2890   34.7790   43.1610 C   0  0  0  0  0  0  0  0  0  0  0  0
   46.3910   33.7790   44.0560 N   0  0  0  0  0  0  0  0  0  0  0  0
   45.6700   33.7300   45.2000 C   0  0  0  0  0  0  0  0  0  0  0  0
   44.7910   34.7190   45.4970 N   0  0  0  0  0  0  0  0  0  0  0  0
   47.0730   34.8060   41.9440 C   0  0  0  0  0  0  0  0  0  0  0  0
   48.2460   35.5320   41.9390 C   0  0  0  0  0  0  0  0  0  0  0  0
   48.9520   35.5330   40.7820 C   0  0  0  0  0  0  0  0  0  0  0  0
   48.5100   34.8530   39.7070 N   0  0  0  0  0  0  0  0  0  0  0  0
   47.3570   34.1500   39.7360 C   0  0  0  0  0  0  0  0  0  0  0  0
   46.6480   34.1390   40.8740 N   0  0  0  0  0  0  0  0  0  0  0  0
   46.9700   33.4610   38.5520 N   0  0  0  0  0  0  0  0  0  0  0  0
   46.1180   32.4110   38.7760 C   0  0  0  0  0  0  0  0  0  0  0  0
   45.6580   31.6440   37.7010 C   0  0  0  0  0  0  0  0  0  0  0  0
   46.1280   32.0350   36.4550 C   0  0  0  0  0  0  0  0  0  0  0  0
   45.6880   31.3140   35.5050 O   0  0  0  0  0  0  0  0  0  0  0  0
   46.9580   33.0590   36.2430 N   0  0  0  0  0  0  0  0  0  0  0  0
   47.3680   33.7610   37.3080 C   0  0  0  0  0  0  0  0  0  0  0  0
   48.1440   34.7270   37.1600 O   0  0  0  0  0  0  0  0  0  0  0  0
   45.8590   32.5720   46.1290 C   0  0  0  0  0  0  0  0  0  0  0  0
   45.4210   32.9320   47.5350 C   0  0  0  0  0  0  0  0  0  0  0  0
   46.2770   32.3650   48.5440 N   0  0  0  0  0  0  0  0  0  0  0  0
   47.6650   32.3520   48.1780 C   0  0  0  0  0  0  0  0  0  0  0  0
   48.3630   31.3450   49.0720 C   0  0  0  0  0  0  0  0  0  0  0  0
   48.0510   30.0670   48.6090 O   0  0  0  0  0  0  0  0  0  0  0  0
   46.7170   29.9750   48.2170 C   0  0  0  0  0  0  0  0  0  0  0  0
   45.8620   31.0200   48.9010 C   0  0  0  0  0  0  0  0  0  0  0  0
   43.9398   36.5551   44.8667 H   0  0  0  0  0  0  0  0  0  0  0  0
   45.2815   36.6472   42.7354 H   0  0  0  0  0  0  0  0  0  0  0  0
   48.5904   36.0814   42.8276 H   0  0  0  0  0  0  0  0  0  0  0  0
   49.8956   36.0950   40.7205 H   0  0  0  0  0  0  0  0  0  0  0  0
   45.7964   32.1719   39.8004 H   0  0  0  0  0  0  0  0  0  0  0  0
   44.9737   30.7930   37.8332 H   0  0  0  0  0  0  0  0  0  0  0  0
   47.2726   33.3012   35.2926 H   0  0  0  0  0  0  0  0  0  0  0  0
   45.2600   31.7215   45.7715 H   0  0  0  0  0  0  0  0  0  0  0  0
   46.9265   32.3073   46.1494 H   0  0  0  0  0  0  0  0  0  0  0  0
   45.4326   34.0271   47.6380 H   0  0  0  0  0  0  0  0  0  0  0  0
   44.4118   32.5209   47.6850 H   0  0  0  0  0  0  0  0  0  0  0  0
   47.7727   32.0565   47.1239 H   0  0  0  0  0  0  0  0  0  0  0  0
   48.1075   33.3515   48.3012 H   0  0  0  0  0  0  0  0  0  0  0  0
   49.4511   31.5012   49.0314 H   0  0  0  0  0  0  0  0  0  0  0  0
   48.0311   31.4651   50.1138 H   0  0  0  0  0  0  0  0  0  0  0  0
   46.6541   30.1191   47.1283 H   0  0  0  0  0  0  0  0  0  0  0  0
   46.3417   28.9817   48.5041 H   0  0  0  0  0  0  0  0  0  0  0  0
   45.9499   30.8963   49.9905 H   0  0  0  0  0  0  0  0  0  0  0  0
   44.8210   30.8820   48.5736 H   0  0  0  0  0  0  0  0  0  0  0  0
  1  6  2  0
  2  1  1  0
  3  2  2  0
  3  4  1  0
  4  5  2  0
  5  6  1  0
  5 21  1  0
  7  3  1  0
  8  7  2  0
  9  8  1  0
 10 11  1  0
 10  9  2  0
 11 12  2  0
 12  7  1  0
 13 14  1  0
 13 11  1  0
 15 14  2  0
 16 15  1  0
 17 16  2  0
 18 16  1  0
 18 19  1  0
 19 13  1  0
 20 19  2  0
 21 22  1  0
 22 23  1  0
 23 28  1  0
 24 23  1  0
 24 25  1  0
 26 25  1  0
 27 26  1  0
 27 28  1  0
  1 29  1  0
  2 30  1  0
  8 31  1  0
  9 32  1  0
 14 33  1  0
 15 34  1  0
 18 35  1  0
 21 36  1  0
 21 37  1  0
 22 38  1  0
 22 39  1  0
 24 40  1  0
 24 41  1  0
 25 42  1  0
 25 43  1  0
 27 44  1  0
 27 45  1  0
 28 46  1  0
 28 47  1  0
M  ISO  8  29  14  30  14  31  14  32  14  33  14  34  14  35   9  36   8
M  ISO  8  37   8  38   8  39   8  40  13  41  13  42  13  43  13  44  13
M  ISO  3  45  13  46  13  47  13
M  END
>  <minimizedAffinity>  (1) 
-6.99694824

>  <minimizedRMSD>  (1) 
0.548445106

$$$$
