
     RDKit          3D

 44 47  0  0  0  0  0  0  0  0999 V2000
   44.5710   35.5370   44.5840 C   0  0  0  0  0  0  0  0  0  0  0  0
   45.2670   35.5880   43.3490 C   0  0  0  0  0  0  0  0  0  0  0  0
   46.3610   34.7600   43.1890 C   0  0  0  0  0  0  0  0  0  0  0  0
   46.7110   33.9450   44.2170 N   0  0  0  0  0  0  0  0  0  0  0  0
   46.0350   33.9070   45.3930 C   0  0  0  0  0  0  0  0  0  0  0  0
   44.9520   34.7160   45.5740 N   0  0  0  0  0  0  0  0  0  0  0  0
   47.0980   34.7740   41.9540 C   0  0  0  0  0  0  0  0  0  0  0  0
   48.2780   35.5040   41.9100 C   0  0  0  0  0  0  0  0  0  0  0  0
   48.9490   35.4950   40.7270 C   0  0  0  0  0  0  0  0  0  0  0  0
   48.4780   34.8090   39.6650 N   0  0  0  0  0  0  0  0  0  0  0  0
   47.3270   34.1090   39.7360 C   0  0  0  0  0  0  0  0  0  0  0  0
   46.6380   34.1010   40.9050 N   0  0  0  0  0  0  0  0  0  0  0  0
   46.8930   33.4110   38.5750 N   0  0  0  0  0  0  0  0  0  0  0  0
   46.0490   32.3650   38.8250 C   0  0  0  0  0  0  0  0  0  0  0  0
   45.5570   31.6080   37.7710 C   0  0  0  0  0  0  0  0  0  0  0  0
   45.9750   31.9820   36.5140 C   0  0  0  0  0  0  0  0  0  0  0  0
   45.5020   31.2620   35.5790 O   0  0  0  0  0  0  0  0  0  0  0  0
   46.7970   32.9990   36.2670 N   0  0  0  0  0  0  0  0  0  0  0  0
   47.2570   33.7170   37.3150 C   0  0  0  0  0  0  0  0  0  0  0  0
   48.0280   34.6770   37.1370 O   0  0  0  0  0  0  0  0  0  0  0  0
   46.4970   32.9790   46.4610 C   0  0  0  0  0  0  0  0  0  0  0  0
   45.3900   32.7880   47.5110 C   0  0  0  0  0  0  0  0  0  0  0  0
   45.2910   31.3150   47.7180 C   0  0  0  0  0  0  0  0  0  0  0  0
   45.4540   30.5130   46.5910 C   0  0  0  0  0  0  0  0  0  0  0  0
   45.3900   29.1360   46.6240 C   0  0  0  0  0  0  0  0  0  0  0  0
   45.1500   28.5720   47.8600 C   0  0  0  0  0  0  0  0  0  0  0  0
   44.9820   29.3300   49.0070 C   0  0  0  0  0  0  0  0  0  0  0  0
   45.0530   30.7220   48.9410 C   0  0  0  0  0  0  0  0  0  0  0  0
   43.6965   36.1873   44.7336 H   0  0  0  0  0  0  0  0  0  0  0  0
   44.9457   36.2655   42.5442 H   0  0  0  0  0  0  0  0  0  0  0  0
   48.6498   36.0591   42.7838 H   0  0  0  0  0  0  0  0  0  0  0  0
   49.8907   36.0560   40.6346 H   0  0  0  0  0  0  0  0  0  0  0  0
   45.7606   32.1240   39.8588 H   0  0  0  0  0  0  0  0  0  0  0  0
   44.8743   30.7604   37.9305 H   0  0  0  0  0  0  0  0  0  0  0  0
   47.0750   33.2324   35.3031 H   0  0  0  0  0  0  0  0  0  0  0  0
   46.7463   32.0053   46.0140 H   0  0  0  0  0  0  0  0  0  0  0  0
   47.3858   33.4057   46.9488 H   0  0  0  0  0  0  0  0  0  0  0  0
   45.6601   33.2915   48.4510 H   0  0  0  0  0  0  0  0  0  0  0  0
   44.4338   33.2200   47.1807 H   0  0  0  0  0  0  0  0  0  0  0  0
   45.6436   31.0034   45.6248 H   0  0  0  0  0  0  0  0  0  0  0  0
   45.5223   28.5241   45.7195 H   0  0  0  0  0  0  0  0  0  0  0  0
   45.0896   27.4764   47.9377 H   0  0  0  0  0  0  0  0  0  0  0  0
   44.7925   28.8344   49.9705 H   0  0  0  0  0  0  0  0  0  0  0  0
   44.9219   31.3341   49.8455 H   0  0  0  0  0  0  0  0  0  0  0  0
  1  6  2  0
  2  1  1  0
  3  2  2  0
  3  4  1  0
  4  5  2  0
  5  6  1  0
  5 21  1  0
  7  3  1  0
  8  7  2  0
  9  8  1  0
 10 11  1  0
 10  9  2  0
 11 12  2  0
 12  7  1  0
 13 14  1  0
 13 11  1  0
 15 14  2  0
 16 15  1  0
 17 16  2  0
 18 16  1  0
 18 19  1  0
 19 13  1  0
 20 19  2  0
 21 22  1  0
 22 23  1  0
 23 28  2  0
 24 25  2  0
 24 23  1  0
 25 26  1  0
 26 27  2  0
 28 27  1  0
  1 29  1  0
  2 30  1  0
  8 31  1  0
  9 32  1  0
 14 33  1  0
 15 34  1  0
 18 35  1  0
 21 36  1  0
 21 37  1  0
 22 38  1  0
 22 39  1  0
 24 40  1  0
 25 41  1  0
 26 42  1  0
 27 43  1  0
 28 44  1  0
M  ISO  8  29  14  30  14  31  14  32  14  33  14  34  14  35   9  36   8
M  ISO  8  37   8  38   8  39   8  40  14  41  14  42  14  43  14  44  14
M  END
>  <minimizedAffinity>  (1) 
-6.9910965

>  <minimizedRMSD>  (1) 
1.10788143

$$$$
