
     RDKit          3D

 41 44  0  0  0  0  0  0  0  0999 V2000
   44.4970   35.8460   44.3940 C   0  0  0  0  0  0  0  0  0  0  0  0
   45.2390   35.8380   43.1860 C   0  0  0  0  0  0  0  0  0  0  0  0
   46.2540   34.9120   43.0580 C   0  0  0  0  0  0  0  0  0  0  0  0
   46.4720   34.0730   44.0970 N   0  0  0  0  0  0  0  0  0  0  0  0
   45.7540   34.0890   45.2470 C   0  0  0  0  0  0  0  0  0  0  0  0
   44.7520   34.9910   45.3970 N   0  0  0  0  0  0  0  0  0  0  0  0
   47.0370   34.8640   41.8510 C   0  0  0  0  0  0  0  0  0  0  0  0
   48.2490   35.5200   41.8270 C   0  0  0  0  0  0  0  0  0  0  0  0
   48.9580   35.4510   40.6720 C   0  0  0  0  0  0  0  0  0  0  0  0
   48.4850   34.7690   39.6090 N   0  0  0  0  0  0  0  0  0  0  0  0
   47.2910   34.1330   39.6600 C   0  0  0  0  0  0  0  0  0  0  0  0
   46.5760   34.1930   40.8020 N   0  0  0  0  0  0  0  0  0  0  0  0
   46.8680   33.4370   38.4950 N   0  0  0  0  0  0  0  0  0  0  0  0
   45.9670   32.4460   38.7450 C   0  0  0  0  0  0  0  0  0  0  0  0
   45.4660   31.6810   37.6880 C   0  0  0  0  0  0  0  0  0  0  0  0
   45.9420   32.0040   36.4370 C   0  0  0  0  0  0  0  0  0  0  0  0
   45.4600   31.2830   35.5050 O   0  0  0  0  0  0  0  0  0  0  0  0
   46.8250   32.9780   36.2000 N   0  0  0  0  0  0  0  0  0  0  0  0
   47.2760   33.6840   37.2450 C   0  0  0  0  0  0  0  0  0  0  0  0
   48.1020   34.6040   37.0750 O   0  0  0  0  0  0  0  0  0  0  0  0
   46.0900   33.1180   46.3080 C   0  0  0  0  0  0  0  0  0  0  0  0
   45.1350   33.2600   47.5020 C   0  0  0  0  0  0  0  0  0  0  0  0
   45.1220   31.9300   48.2080 C   0  0  0  0  0  0  0  0  0  0  0  0
   45.4520   30.8360   47.4310 C   0  0  0  0  0  0  0  0  0  0  0  0
   45.3970   29.7260   48.1900 N   0  0  0  0  0  0  0  0  0  0  0  0
   45.0330   30.1330   49.4390 C   0  0  0  0  0  0  0  0  0  0  0  0
   44.8650   31.4740   49.4510 N   0  0  0  0  0  0  0  0  0  0  0  0
   43.6845   36.5779   44.5135 H   0  0  0  0  0  0  0  0  0  0  0  0
   45.0128   36.5475   42.3764 H   0  0  0  0  0  0  0  0  0  0  0  0
   48.6233   36.0725   42.7014 H   0  0  0  0  0  0  0  0  0  0  0  0
   49.9316   35.9581   40.6018 H   0  0  0  0  0  0  0  0  0  0  0  0
   45.6351   32.2487   39.7750 H   0  0  0  0  0  0  0  0  0  0  0  0
   44.7375   30.8720   37.8456 H   0  0  0  0  0  0  0  0  0  0  0  0
   47.1489   33.1798   35.2433 H   0  0  0  0  0  0  0  0  0  0  0  0
   46.0102   32.0988   45.9020 H   0  0  0  0  0  0  0  0  0  0  0  0
   47.1159   33.3146   46.6528 H   0  0  0  0  0  0  0  0  0  0  0  0
   45.4934   34.0466   48.1823 H   0  0  0  0  0  0  0  0  0  0  0  0
   44.1249   33.5404   47.1688 H   0  0  0  0  0  0  0  0  0  0  0  0
   45.7170   30.8673   46.3639 H   0  0  0  0  0  0  0  0  0  0  0  0
   44.8966   29.4701   50.3062 H   0  0  0  0  0  0  0  0  0  0  0  0
   44.5902   32.0449   50.2631 H   0  0  0  0  0  0  0  0  0  0  0  0
  1  6  2  0
  2  1  1  0
  3  2  2  0
  3  4  1  0
  4  5  2  0
  5  6  1  0
  5 21  1  0
  7  3  1  0
  8  7  2  0
  9  8  1  0
 10 11  1  0
 10  9  2  0
 11 12  2  0
 12  7  1  0
 13 14  1  0
 13 11  1  0
 15 14  2  0
 16 15  1  0
 17 16  2  0
 18 16  1  0
 18 19  1  0
 19 13  1  0
 20 19  2  0
 21 22  1  0
 22 23  1  0
 23 27  1  0
 24 25  1  0
 24 23  2  0
 25 26  2  0
 26 27  1  0
  1 28  1  0
  2 29  1  0
  8 30  1  0
  9 31  1  0
 14 32  1  0
 15 33  1  0
 18 34  1  0
 21 35  1  0
 21 36  1  0
 22 37  1  0
 22 38  1  0
 24 39  1  0
 26 40  1  0
 27 41  1  0
M  ISO  8  28  14  29  14  30  14  31  14  32  14  33  14  34   9  35   8
M  ISO  6  36   8  37   8  38   8  39  14  40  14  41   9
M  END
>  <minimizedAffinity>  (1) 
-6.91040707

>  <minimizedRMSD>  (1) 
0.513978362

$$$$
