
     RDKit          3D

 40 43  0  0  0  0  0  0  0  0999 V2000
   47.0970   34.7850   41.9320 C   0  0  0  0  0  0  0  0  0  0  0  0
   48.2780   35.5030   41.8940 C   0  0  0  0  0  0  0  0  0  0  0  0
   48.9490   35.4870   40.7160 C   0  0  0  0  0  0  0  0  0  0  0  0
   48.4800   34.8050   39.6550 N   0  0  0  0  0  0  0  0  0  0  0  0
   47.3190   34.1110   39.7220 C   0  0  0  0  0  0  0  0  0  0  0  0
   46.6340   34.1140   40.8880 N   0  0  0  0  0  0  0  0  0  0  0  0
   46.8790   33.4100   38.5560 N   0  0  0  0  0  0  0  0  0  0  0  0
   46.0340   32.3890   38.8030 C   0  0  0  0  0  0  0  0  0  0  0  0
   45.5310   31.6260   37.7570 C   0  0  0  0  0  0  0  0  0  0  0  0
   45.9630   31.9960   36.4940 C   0  0  0  0  0  0  0  0  0  0  0  0
   45.4770   31.2710   35.5670 O   0  0  0  0  0  0  0  0  0  0  0  0
   46.7970   33.0030   36.2540 N   0  0  0  0  0  0  0  0  0  0  0  0
   47.2510   33.7070   37.3050 C   0  0  0  0  0  0  0  0  0  0  0  0
   48.0410   34.6690   37.1320 O   0  0  0  0  0  0  0  0  0  0  0  0
   44.5460   35.5620   44.5530 C   0  0  0  0  0  0  0  0  0  0  0  0
   45.2520   35.6030   43.3220 C   0  0  0  0  0  0  0  0  0  0  0  0
   46.3460   34.7750   43.1760 C   0  0  0  0  0  0  0  0  0  0  0  0
   46.6770   33.9800   44.2070 N   0  0  0  0  0  0  0  0  0  0  0  0
   45.9960   33.9470   45.3830 C   0  0  0  0  0  0  0  0  0  0  0  0
   44.9250   34.7450   45.5490 N   0  0  0  0  0  0  0  0  0  0  0  0
   46.4620   33.0230   46.4490 C   0  0  0  0  0  0  0  0  0  0  0  0
   45.3560   32.7830   47.4790 C   0  0  0  0  0  0  0  0  0  0  0  0
   45.2480   31.3850   47.8100 N   0  0  0  0  0  0  0  0  0  0  0  0
   45.0690   30.9850   49.0990 C   0  0  0  0  0  0  0  0  0  0  0  0
   44.9990   29.6490   49.1490 N   0  0  0  0  0  0  0  0  0  0  0  0
   45.1380   29.2220   47.8610 C   0  0  0  0  0  0  0  0  0  0  0  0
   45.2890   30.3010   47.0630 N   0  0  0  0  0  0  0  0  0  0  0  0
   48.6516   36.0553   42.7689 H   0  0  0  0  0  0  0  0  0  0  0  0
   49.8945   36.0419   40.6259 H   0  0  0  0  0  0  0  0  0  0  0  0
   45.7414   32.1590   39.8381 H   0  0  0  0  0  0  0  0  0  0  0  0
   44.8384   30.7871   37.9201 H   0  0  0  0  0  0  0  0  0  0  0  0
   47.0860   33.2363   35.2933 H   0  0  0  0  0  0  0  0  0  0  0  0
   43.6705   36.2129   44.6938 H   0  0  0  0  0  0  0  0  0  0  0  0
   44.9366   36.2742   42.5096 H   0  0  0  0  0  0  0  0  0  0  0  0
   46.7471   32.0625   45.9950 H   0  0  0  0  0  0  0  0  0  0  0  0
   47.3258   33.4765   46.9571 H   0  0  0  0  0  0  0  0  0  0  0  0
   45.5864   33.3514   48.3922 H   0  0  0  0  0  0  0  0  0  0  0  0
   44.3998   33.1141   47.0475 H   0  0  0  0  0  0  0  0  0  0  0  0
   44.9934   31.6568   49.9667 H   0  0  0  0  0  0  0  0  0  0  0  0
   45.1287   28.1737   47.5279 H   0  0  0  0  0  0  0  0  0  0  0  0
  1 17  1  0
  2  1  2  0
  3  2  1  0
  4  5  1  0
  4  3  2  0
  5  6  2  0
  6  1  1  0
  7  8  1  0
  7  5  1  0
  9  8  2  0
 10  9  1  0
 11 10  2  0
 12 10  1  0
 12 13  1  0
 13  7  1  0
 14 13  2  0
 15 20  2  0
 16 15  1  0
 17 16  2  0
 17 18  1  0
 18 19  2  0
 19 20  1  0
 19 21  1  0
 21 22  1  0
 22 23  1  0
 23 24  1  0
 24 25  2  0
 26 25  1  0
 27 23  1  0
 27 26  2  0
  2 28  1  0
  3 29  1  0
  8 30  1  0
  9 31  1  0
 12 32  1  0
 15 33  1  0
 16 34  1  0
 21 35  1  0
 21 36  1  0
 22 37  1  0
 22 38  1  0
 24 39  1  0
 26 40  1  0
M  ISO  8  28  14  29  14  30  14  31  14  32   9  33  14  34  14  35   8
M  ISO  5  36   8  37   8  38   8  39  14  40  14
M  END
>  <minimizedAffinity>  (1) 
-6.72546625

>  <minimizedRMSD>  (1) 
0.772287011

$$$$
