
     RDKit          3D

 36 38  0  0  0  0  0  0  0  0999 V2000
   47.0410   34.8160   41.9770 C   0  0  0  0  0  0  0  0  0  0  0  0
   48.2430   35.5030   41.9560 C   0  0  0  0  0  0  0  0  0  0  0  0
   48.9400   35.4580   40.7850 C   0  0  0  0  0  0  0  0  0  0  0  0
   48.4710   34.7770   39.7210 N   0  0  0  0  0  0  0  0  0  0  0  0
   47.2950   34.1180   39.7760 C   0  0  0  0  0  0  0  0  0  0  0  0
   46.5850   34.1510   40.9320 N   0  0  0  0  0  0  0  0  0  0  0  0
   46.8570   33.4160   38.6110 N   0  0  0  0  0  0  0  0  0  0  0  0
   45.9920   32.4110   38.8580 C   0  0  0  0  0  0  0  0  0  0  0  0
   45.4890   31.6490   37.8030 C   0  0  0  0  0  0  0  0  0  0  0  0
   45.9350   32.0010   36.5450 C   0  0  0  0  0  0  0  0  0  0  0  0
   45.4620   31.2930   35.6110 O   0  0  0  0  0  0  0  0  0  0  0  0
   46.7930   32.9980   36.2990 N   0  0  0  0  0  0  0  0  0  0  0  0
   47.2450   33.6990   37.3560 C   0  0  0  0  0  0  0  0  0  0  0  0
   48.0510   34.6470   37.1930 O   0  0  0  0  0  0  0  0  0  0  0  0
   44.5340   35.7540   44.5820 C   0  0  0  0  0  0  0  0  0  0  0  0
   45.2660   35.7760   43.3600 C   0  0  0  0  0  0  0  0  0  0  0  0
   46.2690   34.8370   43.1960 C   0  0  0  0  0  0  0  0  0  0  0  0
   46.4990   33.9560   44.1990 N   0  0  0  0  0  0  0  0  0  0  0  0
   45.7790   33.9610   45.3610 C   0  0  0  0  0  0  0  0  0  0  0  0
   44.7970   34.8610   45.5510 N   0  0  0  0  0  0  0  0  0  0  0  0
   46.1270   32.9380   46.3940 C   0  0  0  0  0  0  0  0  0  0  0  0
   45.0930   32.9630   47.5220 C   0  0  0  0  0  0  0  0  0  0  0  0
   45.7610   32.8570   48.7860 N   0  0  0  0  0  0  0  0  0  0  0  0
   48.6141   36.0532   42.8332 H   0  0  0  0  0  0  0  0  0  0  0  0
   49.9015   35.9866   40.7075 H   0  0  0  0  0  0  0  0  0  0  0  0
   45.6832   32.1922   39.8909 H   0  0  0  0  0  0  0  0  0  0  0  0
   44.7826   30.8212   37.9634 H   0  0  0  0  0  0  0  0  0  0  0  0
   47.0954   33.2202   35.3398 H   0  0  0  0  0  0  0  0  0  0  0  0
   43.7305   36.4891   44.7367 H   0  0  0  0  0  0  0  0  0  0  0  0
   45.0419   36.5131   42.5749 H   0  0  0  0  0  0  0  0  0  0  0  0
   46.1368   31.9405   45.9305 H   0  0  0  0  0  0  0  0  0  0  0  0
   47.1202   33.1656   46.8085 H   0  0  0  0  0  0  0  0  0  0  0  0
   44.5305   33.9075   47.4828 H   0  0  0  0  0  0  0  0  0  0  0  0
   44.3995   32.1176   47.4021 H   0  0  0  0  0  0  0  0  0  0  0  0
   45.0753   32.9658   49.5469 H   0  0  0  0  0  0  0  0  0  0  0  0
   46.2120   31.9339   48.8596 H   0  0  0  0  0  0  0  0  0  0  0  0
  1 17  1  0
  2  1  2  0
  3  2  1  0
  4  5  1  0
  4  3  2  0
  5  6  2  0
  6  1  1  0
  7  8  1  0
  7  5  1  0
  9  8  2  0
 10  9  1  0
 11 10  2  0
 12 10  1  0
 12 13  1  0
 13  7  1  0
 14 13  2  0
 15 20  2  0
 16 15  1  0
 17 16  2  0
 17 18  1  0
 18 19  2  0
 19 20  1  0
 19 21  1  0
 21 22  1  0
 22 23  1  0
  2 24  1  0
  3 25  1  0
  8 26  1  0
  9 27  1  0
 12 28  1  0
 15 29  1  0
 16 30  1  0
 21 31  1  0
 21 32  1  0
 22 33  1  0
 22 34  1  0
 23 35  1  0
 23 36  1  0
M  ISO  8  24  14  25  14  26  14  27  14  28   9  29  14  30  14  31   8
M  ISO  5  32   8  33   8  34   8  35   5  36   5
M  END
>  <minimizedAffinity>  (1) 
-6.56855631

>  <minimizedRMSD>  (1) 
0.206487402

$$$$
