
     RDKit          3D

 35 37  0  0  0  0  0  0  0  0999 V2000
   47.0470   34.8030   42.0030 C   0  0  0  0  0  0  0  0  0  0  0  0
   48.2390   35.5000   41.9740 C   0  0  0  0  0  0  0  0  0  0  0  0
   48.9340   35.4690   40.8070 C   0  0  0  0  0  0  0  0  0  0  0  0
   48.4730   34.7880   39.7390 N   0  0  0  0  0  0  0  0  0  0  0  0
   47.3120   34.1190   39.7910 C   0  0  0  0  0  0  0  0  0  0  0  0
   46.6040   34.1410   40.9530 N   0  0  0  0  0  0  0  0  0  0  0  0
   46.8670   33.4120   38.6300 N   0  0  0  0  0  0  0  0  0  0  0  0
   46.0180   32.3920   38.8750 C   0  0  0  0  0  0  0  0  0  0  0  0
   45.5140   31.6250   37.8130 C   0  0  0  0  0  0  0  0  0  0  0  0
   45.9560   32.0070   36.5570 C   0  0  0  0  0  0  0  0  0  0  0  0
   45.4710   31.2840   35.6390 O   0  0  0  0  0  0  0  0  0  0  0  0
   46.7910   33.0130   36.3200 N   0  0  0  0  0  0  0  0  0  0  0  0
   47.2390   33.7090   37.3760 C   0  0  0  0  0  0  0  0  0  0  0  0
   48.0290   34.6660   37.2030 O   0  0  0  0  0  0  0  0  0  0  0  0
   44.5570   35.7340   44.6290 C   0  0  0  0  0  0  0  0  0  0  0  0
   45.2880   35.7640   43.4150 C   0  0  0  0  0  0  0  0  0  0  0  0
   46.2790   34.8110   43.2220 C   0  0  0  0  0  0  0  0  0  0  0  0
   46.4900   33.9070   44.2000 N   0  0  0  0  0  0  0  0  0  0  0  0
   45.7760   33.8930   45.3640 C   0  0  0  0  0  0  0  0  0  0  0  0
   44.8000   34.8180   45.5750 N   0  0  0  0  0  0  0  0  0  0  0  0
   46.0900   32.8550   46.3760 C   0  0  0  0  0  0  0  0  0  0  0  0
   45.1740   32.9850   47.6020 C   0  0  0  0  0  0  0  0  0  0  0  0
   45.0980   31.4030   48.4850 S   0  0  0  0  0  0  0  0  0  0  0  0
   48.6070   36.0522   42.8513 H   0  0  0  0  0  0  0  0  0  0  0  0
   49.8894   36.0090   40.7324 H   0  0  0  0  0  0  0  0  0  0  0  0
   45.7205   32.1613   39.9086 H   0  0  0  0  0  0  0  0  0  0  0  0
   44.8209   30.7847   37.9664 H   0  0  0  0  0  0  0  0  0  0  0  0
   47.0835   33.2498   35.3612 H   0  0  0  0  0  0  0  0  0  0  0  0
   43.7693   36.4829   44.7985 H   0  0  0  0  0  0  0  0  0  0  0  0
   45.0759   36.5219   42.6465 H   0  0  0  0  0  0  0  0  0  0  0  0
   45.9502   31.8608   45.9266 H   0  0  0  0  0  0  0  0  0  0  0  0
   47.1321   32.9880   46.7021 H   0  0  0  0  0  0  0  0  0  0  0  0
   45.5719   33.7594   48.2743 H   0  0  0  0  0  0  0  0  0  0  0  0
   44.1628   33.2643   47.2710 H   0  0  0  0  0  0  0  0  0  0  0  0
   45.1090   31.6328   49.8355 H   0  0  0  0  0  0  0  0  0  0  0  0
  1 17  1  0
  2  1  2  0
  3  2  1  0
  4  5  1  0
  4  3  2  0
  5  6  2  0
  6  1  1  0
  7  8  1  0
  7  5  1  0
  9  8  2  0
 10  9  1  0
 11 10  2  0
 12 10  1  0
 12 13  1  0
 13  7  1  0
 14 13  2  0
 15 20  2  0
 16 15  1  0
 17 16  2  0
 17 18  1  0
 18 19  2  0
 19 20  1  0
 19 21  1  0
 21 22  1  0
 22 23  1  0
  2 24  1  0
  3 25  1  0
  8 26  1  0
  9 27  1  0
 12 28  1  0
 15 29  1  0
 16 30  1  0
 21 31  1  0
 21 32  1  0
 22 33  1  0
 22 34  1  0
 23 35  1  0
M  ISO  8  24  14  25  14  26  14  27  14  28   9  29  14  30  14  31   8
M  ISO  4  32   8  33   8  34   8  35  11
M  END
>  <minimizedAffinity>  (1) 
-6.31070757

>  <minimizedRMSD>  (1) 
0.52384913

$$$$
