
     RDKit          3D

 29 30  0  0  0  0  0  0  0  0999 V2000
   45.4410   35.7090   43.2990 C   0  0  0  0  0  0  0  0  0  0  0  0
   46.2060   34.5430   43.4320 C   0  0  0  0  0  0  0  0  0  0  0  0
   46.1420   33.7940   44.6000 C   0  0  0  0  0  0  0  0  0  0  0  0
   45.3180   34.2220   45.6080 N   0  0  0  0  0  0  0  0  0  0  0  0
   44.5900   35.3690   45.4290 C   0  0  0  0  0  0  0  0  0  0  0  0
   44.6560   36.0820   44.3090 N   0  0  0  0  0  0  0  0  0  0  0  0
   47.1160   34.0240   42.3810 C   0  0  0  0  0  0  0  0  0  0  0  0
   48.0970   33.3070   42.5280 O   0  0  0  0  0  0  0  0  0  0  0  0
   46.7640   34.4360   41.0740 O   0  0  0  0  0  0  0  0  0  0  0  0
   47.2870   33.7690   39.9440 C   0  0  0  0  0  0  0  0  0  0  0  0
   46.1910   33.2900   39.0120 C   0  0  0  0  0  0  0  0  0  0  0  0
   46.8050   32.1150   38.2450 C   0  0  0  0  0  0  0  0  0  0  0  0
   48.1530   32.5340   37.7110 C   0  0  0  0  0  0  0  0  0  0  0  0
   48.3490   34.0310   37.7680 C   0  0  0  0  0  0  0  0  0  0  0  0
   48.2350   34.6040   39.1490 C   0  0  0  0  0  0  0  0  0  0  0  0
   45.4876   36.3064   42.3765 H   0  0  0  0  0  0  0  0  0  0  0  0
   46.7396   32.8775   44.7134 H   0  0  0  0  0  0  0  0  0  0  0  0
   43.9290   35.7111   46.2390 H   0  0  0  0  0  0  0  0  0  0  0  0
   47.8358   32.9113   40.3602 H   0  0  0  0  0  0  0  0  0  0  0  0
   45.3128   32.9597   39.5861 H   0  0  0  0  0  0  0  0  0  0  0  0
   45.8459   34.0874   38.3374 H   0  0  0  0  0  0  0  0  0  0  0  0
   46.9259   31.2553   38.9205 H   0  0  0  0  0  0  0  0  0  0  0  0
   46.1462   31.8270   37.4125 H   0  0  0  0  0  0  0  0  0  0  0  0
   48.2374   32.2052   36.6647 H   0  0  0  0  0  0  0  0  0  0  0  0
   48.9254   32.0680   38.3405 H   0  0  0  0  0  0  0  0  0  0  0  0
   49.3502   34.2648   37.3770 H   0  0  0  0  0  0  0  0  0  0  0  0
   47.5462   34.4824   37.1665 H   0  0  0  0  0  0  0  0  0  0  0  0
   49.2232   34.6016   39.6322 H   0  0  0  0  0  0  0  0  0  0  0  0
   47.8633   35.6378   39.0933 H   0  0  0  0  0  0  0  0  0  0  0  0
  1  2  2  0
  1  6  1  0
  2  3  1  0
  3  4  2  0
  5  4  1  0
  6  5  2  0
  7  8  2  0
  7  2  1  0
  9  7  1  0
 10  9  1  0
 11 10  1  0
 12 11  1  0
 13 14  1  0
 13 12  1  0
 14 15  1  0
 15 10  1  0
  1 16  1  0
  3 17  1  0
  5 18  1  0
 10 19  1  0
 11 20  1  0
 11 21  1  0
 12 22  1  0
 12 23  1  0
 13 24  1  0
 13 25  1  0
 14 26  1  0
 14 27  1  0
 15 28  1  0
 15 29  1  0
M  ISO  8  16  14  17  14  18  14  19  13  20  13  21  13  22  13  23  13
M  ISO  6  24  13  25  13  26  13  27  13  28  13  29  13
M  END
>  <minimizedAffinity>  (1) 
-4.03146553

>  <minimizedRMSD>  (1) 
6.08463049

$$$$
