
     RDKit          3D

 17 17  0  0  0  0  0  0  0  0999 V2000
   45.7970   34.0830   45.1950 C   0  0  0  0  0  0  0  0  0  0  0  0
   46.6780   33.7410   44.1580 C   0  0  0  0  0  0  0  0  0  0  0  0
   47.3970   32.5550   44.2040 C   0  0  0  0  0  0  0  0  0  0  0  0
   47.2110   31.7430   45.2900 N   0  0  0  0  0  0  0  0  0  0  0  0
   46.3460   32.1090   46.2780 C   0  0  0  0  0  0  0  0  0  0  0  0
   45.6520   33.2550   46.2330 N   0  0  0  0  0  0  0  0  0  0  0  0
   46.8880   34.6150   42.9750 C   0  0  0  0  0  0  0  0  0  0  0  0
   46.1450   35.5420   42.6200 O   0  0  0  0  0  0  0  0  0  0  0  0
   48.0300   34.3380   42.2230 O   0  0  0  0  0  0  0  0  0  0  0  0
   49.1170   35.1650   42.1090 C   0  0  0  0  0  0  0  0  0  0  0  0
   50.1460   35.0720   43.0960 N   0  0  0  0  0  0  0  0  0  0  0  0
   49.0050   35.9050   41.0900 O   0  0  0  0  0  0  0  0  0  0  0  0
   45.2305   35.0250   45.1535 H   0  0  0  0  0  0  0  0  0  0  0  0
   48.0912   32.2776   43.3970 H   0  0  0  0  0  0  0  0  0  0  0  0
   46.2129   31.4410   47.1418 H   0  0  0  0  0  0  0  0  0  0  0  0
   50.9743   35.6812   43.0354 H   0  0  0  0  0  0  0  0  0  0  0  0
   50.0594   34.3958   43.8681 H   0  0  0  0  0  0  0  0  0  0  0  0
  1  6  2  0
  2  3  2  0
  2  1  1  0
  3  4  1  0
  4  5  2  0
  6  5  1  0
  7  2  1  0
  8  7  2  0
  9  7  1  0
 10  9  1  0
 10 11  1  0
 12 10  2  0
  1 13  1  0
  3 14  1  0
  5 15  1  0
 11 16  1  0
 11 17  1  0
M  ISO  3  13  14  14  14  15  14
M  END
>  <minimizedAffinity>  (1) 
-4.02451658

>  <minimizedRMSD>  (1) 
4.35456371

$$$$
