
     RDKit          3D

 16 16  0  0  0  0  0  0  0  0999 V2000
   45.8120   34.0480   45.2400 C   0  0  0  0  0  0  0  0  0  0  0  0
   46.6880   33.7010   44.1920 C   0  0  0  0  0  0  0  0  0  0  0  0
   47.3710   32.4980   44.2560 C   0  0  0  0  0  0  0  0  0  0  0  0
   47.1800   31.6750   45.3300 N   0  0  0  0  0  0  0  0  0  0  0  0
   46.3180   32.0600   46.3190 C   0  0  0  0  0  0  0  0  0  0  0  0
   45.6430   33.2250   46.2800 N   0  0  0  0  0  0  0  0  0  0  0  0
   46.9250   34.5500   43.0220 C   0  0  0  0  0  0  0  0  0  0  0  0
   46.1840   35.4580   42.6050 O   0  0  0  0  0  0  0  0  0  0  0  0
   48.1190   34.2800   42.3330 O   0  0  0  0  0  0  0  0  0  0  0  0
   49.1610   35.1740   42.2630 C   0  0  0  0  0  0  0  0  0  0  0  0
   49.1700   36.0300   41.3540 O   0  0  0  0  0  0  0  0  0  0  0  0
   50.1980   35.1350   43.1820 O   0  0  0  0  0  0  0  0  0  0  0  0
   45.2643   35.0012   45.2021 H   0  0  0  0  0  0  0  0  0  0  0  0
   48.0608   32.2077   43.4498 H   0  0  0  0  0  0  0  0  0  0  0  0
   46.1699   31.3921   47.1804 H   0  0  0  0  0  0  0  0  0  0  0  0
   50.9411   35.7860   43.1178 H   0  0  0  0  0  0  0  0  0  0  0  0
  1  6  2  0
  2  3  2  0
  2  1  1  0
  3  4  1  0
  4  5  2  0
  6  5  1  0
  7  2  1  0
  8  7  2  0
  9  7  1  0
 10  9  1  0
 10 12  1  0
 11 10  2  0
  1 13  1  0
  3 14  1  0
  5 15  1  0
 12 16  1  0
M  ISO  4  13  14  14  14  15  14  16   3
M  END
>  <minimizedAffinity>  (1) 
-4.00770664

>  <minimizedRMSD>  (1) 
4.37839794

$$$$
