
     RDKit          3D

 18 19  0  0  0  0  0  0  0  0999 V2000
   45.7460   29.9610   45.7970 C   0  0  0  0  0  0  0  0  0  0  0  0
   46.3670   30.7940   46.7520 C   0  0  0  0  0  0  0  0  0  0  0  0
   47.6370   30.4430   47.1940 C   0  0  0  0  0  0  0  0  0  0  0  0
   48.2530   29.3220   46.7070 N   0  0  0  0  0  0  0  0  0  0  0  0
   47.5890   28.5600   45.7820 C   0  0  0  0  0  0  0  0  0  0  0  0
   46.3580   28.8780   45.3370 N   0  0  0  0  0  0  0  0  0  0  0  0
   45.7640   32.0050   47.3120 C   0  0  0  0  0  0  0  0  0  0  0  0
   44.8050   32.0350   48.1060 O   0  0  0  0  0  0  0  0  0  0  0  0
   46.3620   33.1950   46.8750 O   0  0  0  0  0  0  0  0  0  0  0  0
   46.0510   33.7760   45.6520 C   0  0  0  0  0  0  0  0  0  0  0  0
   46.4850   33.7270   44.3770 N   0  0  0  0  0  0  0  0  0  0  0  0
   45.7850   34.5190   43.6410 O   0  0  0  0  0  0  0  0  0  0  0  0
   44.8720   35.1160   44.3870 C   0  0  0  0  0  0  0  0  0  0  0  0
   45.0190   34.6640   45.6540 N   0  0  0  0  0  0  0  0  0  0  0  0
   44.7406   30.2134   45.4291 H   0  0  0  0  0  0  0  0  0  0  0  0
   48.1497   31.0693   47.9390 H   0  0  0  0  0  0  0  0  0  0  0  0
   48.0784   27.6567   45.3889 H   0  0  0  0  0  0  0  0  0  0  0  0
   44.1274   35.8479   44.0407 H   0  0  0  0  0  0  0  0  0  0  0  0
  1  2  2  0
  2  3  1  0
  2  7  1  0
  4  3  2  0
  5  4  1  0
  6  5  2  0
  6  1  1  0
  7  8  2  0
  9  7  1  0
 10 14  1  0
 10  9  1  0
 11 10  2  0
 12 11  1  0
 12 13  1  0
 13 14  2  0
  1 15  1  0
  3 16  1  0
  5 17  1  0
 13 18  1  0
M  ISO  4  15  14  16  14  17  14  18  14
M  END
>  <minimizedAffinity>  (1) 
-3.14977598

>  <minimizedRMSD>  (1) 
5.1573658

$$$$
