
     RDKit          3D

 22 24  0  0  0  0  0  0  0  0999 V2000
   44.7370   35.1740   45.6240 C   0  0  0  0  0  0  0  0  0  0  0  0
   44.3330   35.6670   44.3780 C   0  0  0  0  0  0  0  0  0  0  0  0
   44.7450   34.9350   43.2420 C   0  0  0  0  0  0  0  0  0  0  0  0
   45.4960   33.8150   43.3940 N   0  0  0  0  0  0  0  0  0  0  0  0
   45.8680   33.3690   44.6350 C   0  0  0  0  0  0  0  0  0  0  0  0
   45.4840   34.0520   45.7070 N   0  0  0  0  0  0  0  0  0  0  0  0
   46.6540   32.2050   44.8150 N   0  0  0  0  0  0  0  0  0  0  0  0
   47.4500   31.8550   43.7700 C   0  0  0  0  0  0  0  0  0  0  0  0
   48.1140   30.6960   44.1910 C   0  0  0  0  0  0  0  0  0  0  0  0
   47.7220   30.3880   45.4230 N   0  0  0  0  0  0  0  0  0  0  0  0
   46.8220   31.3100   45.8220 C   0  0  0  0  0  0  0  0  0  0  0  0
   46.1020   31.4090   47.0820 C   0  0  0  0  0  0  0  0  0  0  0  0
   44.9260   30.9940   47.5720 N   0  0  0  0  0  0  0  0  0  0  0  0
   44.7500   31.3570   48.8040 O   0  0  0  0  0  0  0  0  0  0  0  0
   45.8060   32.0310   49.1920 C   0  0  0  0  0  0  0  0  0  0  0  0
   46.6310   32.0580   48.1320 N   0  0  0  0  0  0  0  0  0  0  0  0
   44.4440   35.7042   46.5422 H   0  0  0  0  0  0  0  0  0  0  0  0
   43.7249   36.5791   44.2876 H   0  0  0  0  0  0  0  0  0  0  0  0
   44.4573   35.2726   42.2354 H   0  0  0  0  0  0  0  0  0  0  0  0
   47.5507   32.3703   42.8034 H   0  0  0  0  0  0  0  0  0  0  0  0
   48.8451   30.1296   43.5955 H   0  0  0  0  0  0  0  0  0  0  0  0
   45.9802   32.4810   50.1805 H   0  0  0  0  0  0  0  0  0  0  0  0
  1  6  2  0
  2  1  1  0
  3  4  1  0
  3  2  2  0
  4  5  2  0
  5  7  1  0
  5  6  1  0
  7 11  1  0
  8  9  2  0
  8  7  1  0
  9 10  1  0
 10 11  2  0
 11 12  1  0
 12 13  2  0
 12 16  1  0
 13 14  1  0
 14 15  1  0
 16 15  2  0
  1 17  1  0
  2 18  1  0
  3 19  1  0
  8 20  1  0
  9 21  1  0
 15 22  1  0
M  ISO  6  17  14  18  14  19  14  20  14  21  14  22  14
M  END
>  <minimizedAffinity>  (1) 
-4.38597965

>  <minimizedRMSD>  (1) 
2.93308282

$$$$
