
     RDKit          3D

 26 27  0  0  0  0  0  0  0  0999 V2000
   46.3240   35.4030   42.7190 O   0  0  0  0  0  0  0  0  0  0  0  0
   44.9890   35.8450   42.8200 C   0  0  0  0  0  0  0  0  0  0  0  0
   44.7990   36.3960   44.2180 C   0  0  0  0  0  0  0  0  0  0  0  0
   45.0750   37.8660   44.1870 C   0  0  0  0  0  0  0  0  0  0  0  0
   45.3630   38.7760   43.1970 C   0  0  0  0  0  0  0  0  0  0  0  0
   45.5260   40.0270   43.7680 C   0  0  0  0  0  0  0  0  0  0  0  0
   45.3190   39.7890   45.1100 C   0  0  0  0  0  0  0  0  0  0  0  0
   45.0580   38.5260   45.3370 O   0  0  0  0  0  0  0  0  0  0  0  0
   46.7550   34.5780   41.6800 C   0  0  0  0  0  0  0  0  0  0  0  0
   45.9980   34.3330   40.7200 O   0  0  0  0  0  0  0  0  0  0  0  0
   48.5480   32.7610   41.5440 C   0  0  0  0  0  0  0  0  0  0  0  0
   48.1440   34.0620   41.8570 C   0  0  0  0  0  0  0  0  0  0  0  0
   49.0570   34.9880   42.3730 C   0  0  0  0  0  0  0  0  0  0  0  0
   50.3580   34.5660   42.5580 N   0  0  0  0  0  0  0  0  0  0  0  0
   50.6890   33.2750   42.2300 C   0  0  0  0  0  0  0  0  0  0  0  0
   49.8080   32.3960   41.7360 N   0  0  0  0  0  0  0  0  0  0  0  0
   44.7962   36.6321   42.0762 H   0  0  0  0  0  0  0  0  0  0  0  0
   44.2902   35.0168   42.6306 H   0  0  0  0  0  0  0  0  0  0  0  0
   43.7653   36.2189   44.5500 H   0  0  0  0  0  0  0  0  0  0  0  0
   45.4855   35.8969   44.9178 H   0  0  0  0  0  0  0  0  0  0  0  0
   45.4499   38.5471   42.1246 H   0  0  0  0  0  0  0  0  0  0  0  0
   45.7631   40.9794   43.2713 H   0  0  0  0  0  0  0  0  0  0  0  0
   45.3670   40.5620   45.8911 H   0  0  0  0  0  0  0  0  0  0  0  0
   47.8216   32.0411   41.1390 H   0  0  0  0  0  0  0  0  0  0  0  0
   48.7494   36.0143   42.6220 H   0  0  0  0  0  0  0  0  0  0  0  0
   51.7281   32.9467   42.3802 H   0  0  0  0  0  0  0  0  0  0  0  0
  1  2  1  0
  2  3  1  0
  4  3  1  0
  4  8  1  0
  5  6  1  0
  5  4  2  0
  6  7  2  0
  7  8  1  0
  9 12  1  0
  9  1  1  0
 10  9  2  0
 11 16  2  0
 11 12  1  0
 12 13  2  0
 13 14  1  0
 15 14  2  0
 16 15  1  0
  2 17  1  0
  2 18  1  0
  3 19  1  0
  3 20  1  0
  5 21  1  0
  6 22  1  0
  7 23  1  0
 11 24  1  0
 13 25  1  0
 15 26  1  0
M  ISO  8  17   8  18   8  19   8  20   8  21  14  22  14  23  14  24  14
M  ISO  2  25  14  26  14
M  END
>  <minimizedAffinity>  (1) 
-3.18331885

>  <minimizedRMSD>  (1) 
1.28146815

$$$$
