
     RDKit          3D

 46 49  0  0  0  0  0  0  0  0999 V2000
   48.1110   33.6430   37.4860 C   0  0  0  0  0  0  0  0  0  0  0  0
   48.6630   34.7470   37.5400 O   0  0  0  0  0  0  0  0  0  0  0  0
   46.5680   32.6190   35.7470 C   0  0  0  0  0  0  0  0  0  0  0  0
   47.8370   32.8440   36.2630 C   0  0  0  0  0  0  0  0  0  0  0  0
   48.9360   32.2920   35.6180 C   0  0  0  0  0  0  0  0  0  0  0  0
   48.6740   31.5490   34.4940 N   0  0  0  0  0  0  0  0  0  0  0  0
   47.4220   31.3580   34.0330 C   0  0  0  0  0  0  0  0  0  0  0  0
   46.4170   31.8880   34.6590 N   0  0  0  0  0  0  0  0  0  0  0  0
   47.5130   30.5160   32.8190 C   0  0  0  0  0  0  0  0  0  0  0  0
   47.0710   29.2450   32.6960 N   0  0  0  0  0  0  0  0  0  0  0  0
   47.1510   28.4930   31.6130 C   0  0  0  0  0  0  0  0  0  0  0  0
   47.7110   28.9580   30.4840 N   0  0  0  0  0  0  0  0  0  0  0  0
   48.1910   30.2280   30.4940 C   0  0  0  0  0  0  0  0  0  0  0  0
   48.7480   30.6530   29.3300 C   0  0  0  0  0  0  0  0  0  0  0  0
   49.2590   31.9280   29.2540 C   0  0  0  0  0  0  0  0  0  0  0  0
   49.1770   32.7310   30.3960 C   0  0  0  0  0  0  0  0  0  0  0  0
   48.5950   32.2110   31.5330 C   0  0  0  0  0  0  0  0  0  0  0  0
   48.0790   30.9620   31.6510 C   0  0  0  0  0  0  0  0  0  0  0  0
   47.6610   33.0010   38.6640 O   0  0  0  0  0  0  0  0  0  0  0  0
   48.2170   33.3340   39.9370 C   0  0  0  0  0  0  0  0  0  0  0  0
   47.3320   34.3810   40.5660 C   0  0  0  0  0  0  0  0  0  0  0  0
   46.6830   33.9400   41.7820 N   0  0  0  0  0  0  0  0  0  0  0  0
   46.4610   35.1190   42.5810 C   0  0  0  0  0  0  0  0  0  0  0  0
   45.4480   34.9630   43.6480 C   0  0  0  0  0  0  0  0  0  0  0  0
   45.0010   33.6370   43.7790 O   0  0  0  0  0  0  0  0  0  0  0  0
   44.4390   33.3340   42.5390 C   0  0  0  0  0  0  0  0  0  0  0  0
   45.5410   33.1320   41.5400 C   0  0  0  0  0  0  0  0  0  0  0  0
   45.6876   33.0505   36.2456 H   0  0  0  0  0  0  0  0  0  0  0  0
   49.9610   32.4421   35.9879 H   0  0  0  0  0  0  0  0  0  0  0  0
   46.7521   27.4681   31.6360 H   0  0  0  0  0  0  0  0  0  0  0  0
   48.7900   29.9846   28.4574 H   0  0  0  0  0  0  0  0  0  0  0  0
   49.7165   32.3031   28.3266 H   0  0  0  0  0  0  0  0  0  0  0  0
   49.5695   33.7585   30.3875 H   0  0  0  0  0  0  0  0  0  0  0  0
   48.5451   32.8631   32.4175 H   0  0  0  0  0  0  0  0  0  0  0  0
   48.2510   32.4394   40.5762 H   0  0  0  0  0  0  0  0  0  0  0  0
   49.2420   33.7160   39.8210 H   0  0  0  0  0  0  0  0  0  0  0  0
   47.9485   35.2612   40.8009 H   0  0  0  0  0  0  0  0  0  0  0  0
   46.5364   34.6072   39.8409 H   0  0  0  0  0  0  0  0  0  0  0  0
   47.4149   35.3975   43.0527 H   0  0  0  0  0  0  0  0  0  0  0  0
   46.0745   35.8888   41.8968 H   0  0  0  0  0  0  0  0  0  0  0  0
   45.8906   35.2816   44.6033 H   0  0  0  0  0  0  0  0  0  0  0  0
   44.5801   35.5819   43.3766 H   0  0  0  0  0  0  0  0  0  0  0  0
   43.8411   32.4142   42.6198 H   0  0  0  0  0  0  0  0  0  0  0  0
   43.7888   34.1594   42.2137 H   0  0  0  0  0  0  0  0  0  0  0  0
   45.1515   33.3713   40.5395 H   0  0  0  0  0  0  0  0  0  0  0  0
   45.8640   32.0838   41.6237 H   0  0  0  0  0  0  0  0  0  0  0  0
  1  2  2  0
  1 19  1  0
  3  4  2  0
  4  1  1  0
  5  4  1  0
  6  5  2  0
  7  6  1  0
  7  8  2  0
  8  3  1  0
  9  7  1  0
 10  9  2  0
 11 10  1  0
 12 13  1  0
 12 11  2  0
 13 18  2  0
 14 13  1  0
 15 14  2  0
 15 16  1  0
 16 17  2  0
 17 18  1  0
 18  9  1  0
 19 20  1  0
 20 21  1  0
 21 22  1  0
 22 23  1  0
 23 24  1  0
 24 25  1  0
 26 25  1  0
 27 22  1  0
 27 26  1  0
  3 28  1  0
  5 29  1  0
 11 30  1  0
 14 31  1  0
 15 32  1  0
 16 33  1  0
 17 34  1  0
 20 35  1  0
 20 36  1  0
 21 37  1  0
 21 38  1  0
 23 39  1  0
 23 40  1  0
 24 41  1  0
 24 42  1  0
 26 43  1  0
 26 44  1  0
 27 45  1  0
 27 46  1  0
M  ISO  8  28  14  29  14  30  14  31  14  32  14  33  14  34  14  35   8
M  ISO  8  36   8  37   8  38   8  39  13  40  13  41  13  42  13  43  13
M  ISO  3  44  13  45  13  46  13
M  END
>  <minimizedAffinity>  (1) 
-5.45473623

>  <minimizedRMSD>  (1) 
3.92952514

$$$$
