
     RDKit          3D

 45 47  0  0  0  0  0  0  0  0999 V2000
   48.0320   33.5780   39.3070 O   0  0  0  0  0  0  0  0  0  0  0  0
   47.9340   34.5120   40.3680 C   0  0  0  0  0  0  0  0  0  0  0  0
   46.5510   34.3810   40.9500 C   0  0  0  0  0  0  0  0  0  0  0  0
   46.5020   34.4040   42.3820 N   0  0  0  0  0  0  0  0  0  0  0  0
   45.5200   35.4030   42.7560 C   0  0  0  0  0  0  0  0  0  0  0  0
   44.9650   35.2510   44.1190 C   0  0  0  0  0  0  0  0  0  0  0  0
   45.7100   34.3270   44.8970 O   0  0  0  0  0  0  0  0  0  0  0  0
   45.5170   33.1290   44.2350 C   0  0  0  0  0  0  0  0  0  0  0  0
   46.3760   33.1340   43.0050 C   0  0  0  0  0  0  0  0  0  0  0  0
   48.0340   33.9830   37.9650 C   0  0  0  0  0  0  0  0  0  0  0  0
   48.6590   34.9930   37.6230 O   0  0  0  0  0  0  0  0  0  0  0  0
   45.8220   33.0560   37.0910 C   0  0  0  0  0  0  0  0  0  0  0  0
   47.2290   33.0810   37.0870 C   0  0  0  0  0  0  0  0  0  0  0  0
   47.9700   32.2430   36.2420 C   0  0  0  0  0  0  0  0  0  0  0  0
   47.2420   31.4010   35.4200 N   0  0  0  0  0  0  0  0  0  0  0  0
   45.8720   31.4260   35.4730 C   0  0  0  0  0  0  0  0  0  0  0  0
   45.1900   32.2170   36.2710 N   0  0  0  0  0  0  0  0  0  0  0  0
   45.2650   30.5040   34.5700 N   0  0  0  0  0  0  0  0  0  0  0  0
   44.0730   29.9040   34.7360 C   0  0  0  0  0  0  0  0  0  0  0  0
   43.6020   29.0280   33.7810 C   0  0  0  0  0  0  0  0  0  0  0  0
   42.2980   28.3880   33.9870 C   0  0  0  0  0  0  0  0  0  0  0  0
   44.3450   28.7450   32.6280 C   0  0  0  0  0  0  0  0  0  0  0  0
   43.9190   27.9590   31.7710 O   0  0  0  0  0  0  0  0  0  0  0  0
   45.5430   29.3900   32.5290 N   0  0  0  0  0  0  0  0  0  0  0  0
   46.0050   30.2530   33.4730 C   0  0  0  0  0  0  0  0  0  0  0  0
   47.1330   30.7300   33.1700 O   0  0  0  0  0  0  0  0  0  0  0  0
   48.6890   34.2899   41.1366 H   0  0  0  0  0  0  0  0  0  0  0  0
   48.1097   35.5354   40.0049 H   0  0  0  0  0  0  0  0  0  0  0  0
   45.9395   35.2137   40.5723 H   0  0  0  0  0  0  0  0  0  0  0  0
   46.1747   33.3947   40.6409 H   0  0  0  0  0  0  0  0  0  0  0  0
   45.9964   36.3922   42.6894 H   0  0  0  0  0  0  0  0  0  0  0  0
   44.6747   35.2794   42.0631 H   0  0  0  0  0  0  0  0  0  0  0  0
   44.9803   36.2303   44.6198 H   0  0  0  0  0  0  0  0  0  0  0  0
   43.9384   34.8669   44.0267 H   0  0  0  0  0  0  0  0  0  0  0  0
   45.8047   32.2916   44.8876 H   0  0  0  0  0  0  0  0  0  0  0  0
   44.4583   33.0108   43.9607 H   0  0  0  0  0  0  0  0  0  0  0  0
   45.9380   32.4356   42.2767 H   0  0  0  0  0  0  0  0  0  0  0  0
   47.3862   32.8408   43.3267 H   0  0  0  0  0  0  0  0  0  0  0  0
   45.2531   33.7183   37.7601 H   0  0  0  0  0  0  0  0  0  0  0  0
   49.0699   32.2542   36.2329 H   0  0  0  0  0  0  0  0  0  0  0  0
   43.4733   30.1122   35.6343 H   0  0  0  0  0  0  0  0  0  0  0  0
   42.1028   28.2922   35.0653 H   0  0  0  0  0  0  0  0  0  0  0  0
   41.5110   29.0022   33.5251 H   0  0  0  0  0  0  0  0  0  0  0  0
   42.3025   27.3897   33.5251 H   0  0  0  0  0  0  0  0  0  0  0  0
   46.1263   29.2147   31.6984 H   0  0  0  0  0  0  0  0  0  0  0  0
  1  2  1  0
  2  3  1  0
  3  4  1  0
  4  5  1  0
  4  9  1  0
  5  6  1  0
  6  7  1  0
  8  7  1  0
  9  8  1  0
 10  1  1  0
 11 10  2  0
 13 12  2  0
 13 10  1  0
 14 13  1  0
 15 16  1  0
 15 14  2  0
 16 17  2  0
 17 12  1  0
 18 19  1  0
 18 16  1  0
 20 21  1  0
 20 19  2  0
 22 20  1  0
 23 22  2  0
 24 22  1  0
 24 25  1  0
 25 18  1  0
 26 25  2  0
  2 27  1  0
  2 28  1  0
  3 29  1  0
  3 30  1  0
  5 31  1  0
  5 32  1  0
  6 33  1  0
  6 34  1  0
  8 35  1  0
  8 36  1  0
  9 37  1  0
  9 38  1  0
 12 39  1  0
 14 40  1  0
 19 41  1  0
 21 42  1  0
 21 43  1  0
 21 44  1  0
 24 45  1  0
M  ISO  8  27   8  28   8  29   8  30   8  31  13  32  13  33  13  34  13
M  ISO  8  35  13  36  13  37  13  38  13  39  14  40  14  41  14  42   8
M  ISO  3  43   8  44   8  45   9
M  END
>  <minimizedAffinity>  (1) 
-4.9620676

>  <minimizedRMSD>  (1) 
2.01651335

$$$$
