
     RDKit          3D

 48 51  0  0  0  0  0  0  0  0999 V2000
   48.0220   33.5320   39.3110 O   0  0  0  0  0  0  0  0  0  0  0  0
   47.8610   34.4570   40.3830 C   0  0  0  0  0  0  0  0  0  0  0  0
   46.4550   34.3090   40.9160 C   0  0  0  0  0  0  0  0  0  0  0  0
   46.3620   34.4870   42.3470 N   0  0  0  0  0  0  0  0  0  0  0  0
   45.2760   35.4110   42.5770 C   0  0  0  0  0  0  0  0  0  0  0  0
   44.7090   35.3820   43.9400 C   0  0  0  0  0  0  0  0  0  0  0  0
   45.5010   34.6260   44.8280 O   0  0  0  0  0  0  0  0  0  0  0  0
   45.4420   33.3360   44.2980 C   0  0  0  0  0  0  0  0  0  0  0  0
   46.3160   33.2730   43.0810 C   0  0  0  0  0  0  0  0  0  0  0  0
   48.0400   33.9700   37.9660 C   0  0  0  0  0  0  0  0  0  0  0  0
   48.7160   34.9500   37.6330 O   0  0  0  0  0  0  0  0  0  0  0  0
   45.8290   33.3440   36.8700 C   0  0  0  0  0  0  0  0  0  0  0  0
   47.1850   33.1350   37.0800 C   0  0  0  0  0  0  0  0  0  0  0  0
   47.8160   32.0710   36.4420 C   0  0  0  0  0  0  0  0  0  0  0  0
   47.0280   31.2820   35.6310 N   0  0  0  0  0  0  0  0  0  0  0  0
   45.7150   31.5330   35.4670 C   0  0  0  0  0  0  0  0  0  0  0  0
   45.1560   32.5330   36.0730 N   0  0  0  0  0  0  0  0  0  0  0  0
   45.1460   30.5270   34.5550 C   0  0  0  0  0  0  0  0  0  0  0  0
   45.7870   30.0170   33.4360 C   0  0  0  0  0  0  0  0  0  0  0  0
   45.2770   29.0830   32.5770 C   0  0  0  0  0  0  0  0  0  0  0  0
   44.0230   28.5830   32.8090 C   0  0  0  0  0  0  0  0  0  0  0  0
   43.3180   29.0380   33.8990 C   0  0  0  0  0  0  0  0  0  0  0  0
   42.0760   28.4950   34.0670 C   0  0  0  0  0  0  0  0  0  0  0  0
   41.2980   28.8900   35.1320 C   0  0  0  0  0  0  0  0  0  0  0  0
   41.8300   29.8460   36.0050 C   0  0  0  0  0  0  0  0  0  0  0  0
   43.0920   30.3400   35.7580 C   0  0  0  0  0  0  0  0  0  0  0  0
   43.8950   29.9780   34.7210 C   0  0  0  0  0  0  0  0  0  0  0  0
   48.5877   34.2370   41.1790 H   0  0  0  0  0  0  0  0  0  0  0  0
   48.0314   35.4852   40.0311 H   0  0  0  0  0  0  0  0  0  0  0  0
   45.8165   35.0607   40.4289 H   0  0  0  0  0  0  0  0  0  0  0  0
   46.1304   33.2815   40.6948 H   0  0  0  0  0  0  0  0  0  0  0  0
   45.6470   36.4283   42.3835 H   0  0  0  0  0  0  0  0  0  0  0  0
   44.4644   35.1055   41.9003 H   0  0  0  0  0  0  0  0  0  0  0  0
   44.6391   36.4130   44.3171 H   0  0  0  0  0  0  0  0  0  0  0  0
   43.7174   34.9092   43.8843 H   0  0  0  0  0  0  0  0  0  0  0  0
   45.7974   32.6123   45.0463 H   0  0  0  0  0  0  0  0  0  0  0  0
   44.4047   33.0907   44.0263 H   0  0  0  0  0  0  0  0  0  0  0  0
   45.9334   32.4817   42.4195 H   0  0  0  0  0  0  0  0  0  0  0  0
   47.3391   33.0703   43.4306 H   0  0  0  0  0  0  0  0  0  0  0  0
   45.3165   34.1818   37.3653 H   0  0  0  0  0  0  0  0  0  0  0  0
   48.8889   31.8698   36.5779 H   0  0  0  0  0  0  0  0  0  0  0  0
   46.7961   30.3978   33.2200 H   0  0  0  0  0  0  0  0  0  0  0  0
   45.8646   28.7386   31.7132 H   0  0  0  0  0  0  0  0  0  0  0  0
   43.5873   27.8306   32.1352 H   0  0  0  0  0  0  0  0  0  0  0  0
   41.6993   27.7459   33.3550 H   0  0  0  0  0  0  0  0  0  0  0  0
   40.2942   28.4693   35.2911 H   0  0  0  0  0  0  0  0  0  0  0  0
   41.2511   30.1964   36.8723 H   0  0  0  0  0  0  0  0  0  0  0  0
   43.4841   31.0914   36.4592 H   0  0  0  0  0  0  0  0  0  0  0  0
  1  2  1  0
  2  3  1  0
  3  4  1  0
  4  5  1  0
  4  9  1  0
  5  6  1  0
  6  7  1  0
  8  7  1  0
  9  8  1  0
 10  1  1  0
 11 10  2  0
 12 13  2  0
 13 10  1  0
 14 13  1  0
 15 14  2  0
 16 15  1  0
 16 17  2  0
 17 12  1  0
 18 27  1  0
 18 16  1  0
 19 18  2  0
 20 21  2  0
 20 19  1  0
 21 22  1  0
 22 23  1  0
 22 27  2  0
 23 24  2  0
 24 25  1  0
 26 25  2  0
 27 26  1  0
  2 28  1  0
  2 29  1  0
  3 30  1  0
  3 31  1  0
  5 32  1  0
  5 33  1  0
  6 34  1  0
  6 35  1  0
  8 36  1  0
  8 37  1  0
  9 38  1  0
  9 39  1  0
 12 40  1  0
 14 41  1  0
 19 42  1  0
 20 43  1  0
 21 44  1  0
 23 45  1  0
 24 46  1  0
 25 47  1  0
 26 48  1  0
M  ISO  8  28   8  29   8  30   8  31   8  32  13  33  13  34  13  35  13
M  ISO  8  36  13  37  13  38  13  39  13  40  14  41  14  42  14  43  14
M  ISO  5  44  14  45  14  46  14  47  14  48  14
M  END
>  <minimizedAffinity>  (1) 
-4.76546001

>  <minimizedRMSD>  (1) 
2.77036834

$$$$
