
     RDKit          3D

 43 45  0  0  0  0  0  0  0  0999 V2000
   47.4930   33.6120   38.8730 O   0  0  0  0  0  0  0  0  0  0  0  0
   48.0330   34.1170   40.0820 C   0  0  0  0  0  0  0  0  0  0  0  0
   46.8770   34.3520   41.0210 C   0  0  0  0  0  0  0  0  0  0  0  0
   46.7960   33.4220   42.1150 N   0  0  0  0  0  0  0  0  0  0  0  0
   47.1080   34.1670   43.3130 C   0  0  0  0  0  0  0  0  0  0  0  0
   46.6470   33.5380   44.5640 C   0  0  0  0  0  0  0  0  0  0  0  0
   46.1730   32.2150   44.3600 O   0  0  0  0  0  0  0  0  0  0  0  0
   45.0910   32.3710   43.5240 C   0  0  0  0  0  0  0  0  0  0  0  0
   45.5840   32.6770   42.1400 C   0  0  0  0  0  0  0  0  0  0  0  0
   48.0210   33.9610   37.6230 C   0  0  0  0  0  0  0  0  0  0  0  0
   48.7220   34.9760   37.5050 O   0  0  0  0  0  0  0  0  0  0  0  0
   46.4640   32.2340   36.5690 C   0  0  0  0  0  0  0  0  0  0  0  0
   47.6400   33.0030   36.5430 C   0  0  0  0  0  0  0  0  0  0  0  0
   48.5460   32.9100   35.4740 C   0  0  0  0  0  0  0  0  0  0  0  0
   48.2200   32.0290   34.4580 N   0  0  0  0  0  0  0  0  0  0  0  0
   47.0630   31.3140   34.5440 C   0  0  0  0  0  0  0  0  0  0  0  0
   46.2150   31.4060   35.5530 N   0  0  0  0  0  0  0  0  0  0  0  0
   46.9280   30.4770   33.3990 N   0  0  0  0  0  0  0  0  0  0  0  0
   47.8750   30.2590   32.4690 C   0  0  0  0  0  0  0  0  0  0  0  0
   47.5400   29.3980   31.4170 C   0  0  0  0  0  0  0  0  0  0  0  0
   46.2970   28.8060   31.3460 C   0  0  0  0  0  0  0  0  0  0  0  0
   46.0050   27.9280   30.2410 N   0  0  0  0  0  0  0  0  0  0  0  0
   45.3640   29.0420   32.2940 N   0  0  0  0  0  0  0  0  0  0  0  0
   45.7100   29.8760   33.3000 C   0  0  0  0  0  0  0  0  0  0  0  0
   44.7830   30.0550   34.1590 O   0  0  0  0  0  0  0  0  0  0  0  0
   48.7303   33.3864   40.5178 H   0  0  0  0  0  0  0  0  0  0  0  0
   48.5874   35.0501   39.9031 H   0  0  0  0  0  0  0  0  0  0  0  0
   46.9744   35.3651   41.4383 H   0  0  0  0  0  0  0  0  0  0  0  0
   45.9607   34.2161   40.4277 H   0  0  0  0  0  0  0  0  0  0  0  0
   48.2003   34.2837   43.3698 H   0  0  0  0  0  0  0  0  0  0  0  0
   46.5755   35.1260   43.2314 H   0  0  0  0  0  0  0  0  0  0  0  0
   47.4862   33.5073   45.2745 H   0  0  0  0  0  0  0  0  0  0  0  0
   45.8116   34.1380   44.9540 H   0  0  0  0  0  0  0  0  0  0  0  0
   44.5000   31.4434   43.5084 H   0  0  0  0  0  0  0  0  0  0  0  0
   44.4584   33.1956   43.8843 H   0  0  0  0  0  0  0  0  0  0  0  0
   44.8096   33.2564   41.6159 H   0  0  0  0  0  0  0  0  0  0  0  0
   45.7898   31.7128   41.6522 H   0  0  0  0  0  0  0  0  0  0  0  0
   45.7616   32.3134   37.4118 H   0  0  0  0  0  0  0  0  0  0  0  0
   49.4689   33.5078   35.4458 H   0  0  0  0  0  0  0  0  0  0  0  0
   48.8650   30.7343   32.5319 H   0  0  0  0  0  0  0  0  0  0  0  0
   48.2825   29.1900   30.6325 H   0  0  0  0  0  0  0  0  0  0  0  0
   45.0816   27.4770   30.1717 H   0  0  0  0  0  0  0  0  0  0  0  0
   46.7197   27.7516   29.5206 H   0  0  0  0  0  0  0  0  0  0  0  0
  1  2  1  0
  2  3  1  0
  3  4  1  0
  4  9  1  0
  4  5  1  0
  5  6  1  0
  7  6  1  0
  8  7  1  0
  9  8  1  0
 10  1  1  0
 11 10  2  0
 13 12  2  0
 13 10  1  0
 14 13  1  0
 15 16  1  0
 15 14  2  0
 16 17  2  0
 17 12  1  0
 18 16  1  0
 19 18  1  0
 20 19  2  0
 21 20  1  0
 21 23  2  0
 22 21  1  0
 23 24  1  0
 24 18  1  0
 24 25  2  0
  2 26  1  0
  2 27  1  0
  3 28  1  0
  3 29  1  0
  5 30  1  0
  5 31  1  0
  6 32  1  0
  6 33  1  0
  8 34  1  0
  8 35  1  0
  9 36  1  0
  9 37  1  0
 12 38  1  0
 14 39  1  0
 19 40  1  0
 20 41  1  0
 22 42  1  0
 22 43  1  0
M  ISO  8  26   8  27   8  28   8  29   8  30  13  31  13  32  13  33  13
M  ISO  8  34  13  35  13  36  13  37  13  38  14  39  14  40  14  41  14
M  END
>  <minimizedAffinity>  (1) 
-4.67058992

>  <minimizedRMSD>  (1) 
2.94239998

$$$$
