
     RDKit          3D

 39 40  0  0  0  0  0  0  0  0999 V2000
   48.1410   34.4180   40.2940 C   0  0  0  0  0  0  0  0  0  0  0  0
   47.0010   34.5680   41.2670 C   0  0  0  0  0  0  0  0  0  0  0  0
   46.8500   33.4950   42.2020 N   0  0  0  0  0  0  0  0  0  0  0  0
   47.2500   34.0180   43.4880 C   0  0  0  0  0  0  0  0  0  0  0  0
   46.7690   33.2430   44.6490 C   0  0  0  0  0  0  0  0  0  0  0  0
   46.1870   32.0140   44.2660 O   0  0  0  0  0  0  0  0  0  0  0  0
   45.0940   32.3810   43.4920 C   0  0  0  0  0  0  0  0  0  0  0  0
   45.5830   32.8510   42.1560 C   0  0  0  0  0  0  0  0  0  0  0  0
   47.6190   33.7960   39.1330 O   0  0  0  0  0  0  0  0  0  0  0  0
   48.0680   34.1410   37.8400 C   0  0  0  0  0  0  0  0  0  0  0  0
   48.9230   35.0120   37.7010 O   0  0  0  0  0  0  0  0  0  0  0  0
   46.0270   33.0830   36.7390 C   0  0  0  0  0  0  0  0  0  0  0  0
   47.4010   33.3520   36.7660 C   0  0  0  0  0  0  0  0  0  0  0  0
   48.2380   32.8740   35.7560 C   0  0  0  0  0  0  0  0  0  0  0  0
   47.6380   32.1360   34.7540 N   0  0  0  0  0  0  0  0  0  0  0  0
   46.2930   31.9070   34.7830 C   0  0  0  0  0  0  0  0  0  0  0  0
   45.5320   32.3680   35.7430 N   0  0  0  0  0  0  0  0  0  0  0  0
   45.8410   31.1250   33.6790 N   0  0  0  0  0  0  0  0  0  0  0  0
   44.5510   30.5480   33.7440 C   0  0  0  0  0  0  0  0  0  0  0  0
   43.5390   31.1500   34.2350 N   0  0  0  0  0  0  0  0  0  0  0  0
   44.2760   29.2320   33.2560 N   0  0  0  0  0  0  0  0  0  0  0  0
   43.6400   32.1110   34.6100 H   0  0  0  0  0  0  0  0  0  0  0  0
   48.5527   35.4059   40.0400 H   0  0  0  0  0  0  0  0  0  0  0  0
   48.9512   33.8153   40.7303 H   0  0  0  0  0  0  0  0  0  0  0  0
   47.1602   35.4954   41.8367 H   0  0  0  0  0  0  0  0  0  0  0  0
   46.0829   34.5752   40.6612 H   0  0  0  0  0  0  0  0  0  0  0  0
   48.3493   34.0385   43.5221 H   0  0  0  0  0  0  0  0  0  0  0  0
   46.7942   35.0156   43.5716 H   0  0  0  0  0  0  0  0  0  0  0  0
   47.6196   33.0395   45.3161 H   0  0  0  0  0  0  0  0  0  0  0  0
   45.9961   33.8391   45.1563 H   0  0  0  0  0  0  0  0  0  0  0  0
   44.4286   31.5154   43.3583 H   0  0  0  0  0  0  0  0  0  0  0  0
   44.5375   33.1881   43.9909 H   0  0  0  0  0  0  0  0  0  0  0  0
   44.8481   33.5604   41.7478 H   0  0  0  0  0  0  0  0  0  0  0  0
   45.7009   31.9572   41.5257 H   0  0  0  0  0  0  0  0  0  0  0  0
   45.3688   33.4612   37.5351 H   0  0  0  0  0  0  0  0  0  0  0  0
   49.3195   33.0747   35.7579 H   0  0  0  0  0  0  0  0  0  0  0  0
   46.4402   30.9836   32.8533 H   0  0  0  0  0  0  0  0  0  0  0  0
   43.3228   28.8472   33.3215 H   0  0  0  0  0  0  0  0  0  0  0  0
   45.0311   28.6691   32.8391 H   0  0  0  0  0  0  0  0  0  0  0  0
  1  2  1  0
  2  3  1  0
  3  4  1  0
  4  5  1  0
  6  5  1  0
  7  6  1  0
  8  3  1  0
  8  7  1  0
  9  1  1  0
 10  9  1  0
 11 10  2  0
 12 13  2  0
 13 10  1  0
 14 13  1  0
 15 16  1  0
 15 14  2  0
 16 17  2  0
 17 12  1  0
 18 19  1  0
 18 16  1  0
 19 20  2  0
 20 22  1  0
 21 19  1  0
  1 23  1  0
  1 24  1  0
  2 25  1  0
  2 26  1  0
  4 27  1  0
  4 28  1  0
  5 29  1  0
  5 30  1  0
  7 31  1  0
  7 32  1  0
  8 33  1  0
  8 34  1  0
 12 35  1  0
 14 36  1  0
 18 37  1  0
 21 38  1  0
 21 39  1  0
M  ISO  8  23   8  24   8  25   8  26   8  27  13  28  13  29  13  30  13
M  ISO  6  31  13  32  13  33  13  34  13  35  14  36  14
M  END
>  <minimizedAffinity>  (1) 
-4.55587149

>  <minimizedRMSD>  (1) 
1.75566375

$$$$
