
     RDKit          3D

 39 41  0  0  0  0  0  0  0  0999 V2000
   47.9500   34.5010   40.3910 C   0  0  0  0  0  0  0  0  0  0  0  0
   46.5480   34.4090   40.9730 C   0  0  0  0  0  0  0  0  0  0  0  0
   46.5010   34.4220   42.4050 N   0  0  0  0  0  0  0  0  0  0  0  0
   45.5090   35.3960   42.7720 C   0  0  0  0  0  0  0  0  0  0  0  0
   44.9650   35.2460   44.1370 C   0  0  0  0  0  0  0  0  0  0  0  0
   45.7200   34.3280   44.9140 O   0  0  0  0  0  0  0  0  0  0  0  0
   45.5180   33.1260   44.2290 C   0  0  0  0  0  0  0  0  0  0  0  0
   46.3650   33.1340   42.9920 C   0  0  0  0  0  0  0  0  0  0  0  0
   48.0160   33.5870   39.3150 O   0  0  0  0  0  0  0  0  0  0  0  0
   48.0150   34.0180   37.9810 C   0  0  0  0  0  0  0  0  0  0  0  0
   48.6860   34.9930   37.6360 O   0  0  0  0  0  0  0  0  0  0  0  0
   45.7730   33.0090   37.3120 C   0  0  0  0  0  0  0  0  0  0  0  0
   47.1430   33.1740   37.1060 C   0  0  0  0  0  0  0  0  0  0  0  0
   47.7900   32.5430   36.0450 C   0  0  0  0  0  0  0  0  0  0  0  0
   47.0270   31.7540   35.2090 N   0  0  0  0  0  0  0  0  0  0  0  0
   45.6850   31.6320   35.4650 C   0  0  0  0  0  0  0  0  0  0  0  0
   45.0710   32.2330   36.4770 N   0  0  0  0  0  0  0  0  0  0  0  0
   44.8360   30.8070   34.6090 C   0  0  0  0  0  0  0  0  0  0  0  0
   45.1310   29.8330   33.6770 C   0  0  0  0  0  0  0  0  0  0  0  0
   43.8990   29.4180   33.1960 C   0  0  0  0  0  0  0  0  0  0  0  0
   42.9100   30.0980   33.8010 N   0  0  0  0  0  0  0  0  0  0  0  0
   43.4970   30.9300   34.6460 N   0  0  0  0  0  0  0  0  0  0  0  0
   48.1422   35.5223   40.0304 H   0  0  0  0  0  0  0  0  0  0  0  0
   48.7060   34.2622   41.1535 H   0  0  0  0  0  0  0  0  0  0  0  0
   45.9642   35.2641   40.6016 H   0  0  0  0  0  0  0  0  0  0  0  0
   46.1378   33.4396   40.6536 H   0  0  0  0  0  0  0  0  0  0  0  0
   45.9647   36.3941   42.6936 H   0  0  0  0  0  0  0  0  0  0  0  0
   44.6628   35.2484   42.0848 H   0  0  0  0  0  0  0  0  0  0  0  0
   44.9787   36.2271   44.6343 H   0  0  0  0  0  0  0  0  0  0  0  0
   43.9399   34.8561   44.0526 H   0  0  0  0  0  0  0  0  0  0  0  0
   45.8067   32.2805   44.8707 H   0  0  0  0  0  0  0  0  0  0  0  0
   44.4571   33.0208   43.9581 H   0  0  0  0  0  0  0  0  0  0  0  0
   45.9069   32.4610   42.2522 H   0  0  0  0  0  0  0  0  0  0  0  0
   47.3723   32.8057   43.2879 H   0  0  0  0  0  0  0  0  0  0  0  0
   45.2740   33.5122   38.1533 H   0  0  0  0  0  0  0  0  0  0  0  0
   48.8702   32.6695   35.8800 H   0  0  0  0  0  0  0  0  0  0  0  0
   46.1250   29.4666   33.3810 H   0  0  0  0  0  0  0  0  0  0  0  0
   43.7518   28.6432   32.4291 H   0  0  0  0  0  0  0  0  0  0  0  0
   41.8982   29.9926   33.6393 H   0  0  0  0  0  0  0  0  0  0  0  0
  1  2  1  0
  2  3  1  0
  3  4  1  0
  3  8  1  0
  4  5  1  0
  5  6  1  0
  7  6  1  0
  8  7  1  0
  9  1  1  0
 10  9  1  0
 11 10  2  0
 13 12  2  0
 13 10  1  0
 14 13  1  0
 15 16  1  0
 15 14  2  0
 16 17  2  0
 17 12  1  0
 18 22  2  0
 18 16  1  0
 19 18  1  0
 20 19  2  0
 20 21  1  0
 21 22  1  0
  1 23  1  0
  1 24  1  0
  2 25  1  0
  2 26  1  0
  4 27  1  0
  4 28  1  0
  5 29  1  0
  5 30  1  0
  7 31  1  0
  7 32  1  0
  8 33  1  0
  8 34  1  0
 12 35  1  0
 14 36  1  0
 19 37  1  0
 20 38  1  0
 21 39  1  0
M  ISO  8  23   8  24   8  25   8  26   8  27  13  28  13  29  13  30  13
M  ISO  8  31  13  32  13  33  13  34  13  35  14  36  14  37  14  38  14
M  ISO  1  39   9
M  END
>  <minimizedAffinity>  (1) 
-4.41110611

>  <minimizedRMSD>  (1) 
1.6715796

$$$$
