
     RDKit          3D

 46 48  0  0  0  0  0  0  0  0999 V2000
   48.1770   34.6110   40.3570 C   0  0  0  0  0  0  0  0  0  0  0  0
   46.8090   34.4420   40.9890 C   0  0  0  0  0  0  0  0  0  0  0  0
   46.7810   33.4710   42.0410 N   0  0  0  0  0  0  0  0  0  0  0  0
   47.1510   34.1570   43.2590 C   0  0  0  0  0  0  0  0  0  0  0  0
   46.7330   33.4870   44.5090 C   0  0  0  0  0  0  0  0  0  0  0  0
   46.2430   32.1840   44.2790 O   0  0  0  0  0  0  0  0  0  0  0  0
   45.1240   32.3900   43.4800 C   0  0  0  0  0  0  0  0  0  0  0  0
   45.6050   32.6780   42.0950 C   0  0  0  0  0  0  0  0  0  0  0  0
   48.2960   33.6390   39.3410 O   0  0  0  0  0  0  0  0  0  0  0  0
   48.0770   33.9320   37.9950 C   0  0  0  0  0  0  0  0  0  0  0  0
   48.6600   34.8890   37.4640 O   0  0  0  0  0  0  0  0  0  0  0  0
   45.7260   33.1840   37.3440 C   0  0  0  0  0  0  0  0  0  0  0  0
   47.1140   32.9980   37.3380 C   0  0  0  0  0  0  0  0  0  0  0  0
   47.6880   31.8970   36.7000 C   0  0  0  0  0  0  0  0  0  0  0  0
   46.8260   31.0180   36.0850 N   0  0  0  0  0  0  0  0  0  0  0  0
   45.4900   31.2500   36.1220 C   0  0  0  0  0  0  0  0  0  0  0  0
   44.9500   32.2850   36.7230 N   0  0  0  0  0  0  0  0  0  0  0  0
   44.7190   30.2600   35.4460 N   0  0  0  0  0  0  0  0  0  0  0  0
   45.1130   29.7760   34.1370 C   0  0  0  0  0  0  0  0  0  0  0  0
   43.8800   29.4340   33.3240 C   0  0  0  0  0  0  0  0  0  0  0  0
   42.7330   30.2230   33.7540 N   0  0  0  0  0  0  0  0  0  0  0  0
   42.3360   29.8180   35.0820 C   0  0  0  0  0  0  0  0  0  0  0  0
   43.4960   29.6760   36.0160 C   0  0  0  0  0  0  0  0  0  0  0  0
   48.2700   35.6187   39.9259 H   0  0  0  0  0  0  0  0  0  0  0  0
   48.9701   34.4857   41.1089 H   0  0  0  0  0  0  0  0  0  0  0  0
   46.4942   35.4117   41.4020 H   0  0  0  0  0  0  0  0  0  0  0  0
   46.1307   34.0839   40.2005 H   0  0  0  0  0  0  0  0  0  0  0  0
   48.2465   34.2554   43.2752 H   0  0  0  0  0  0  0  0  0  0  0  0
   46.6242   35.1224   43.2385 H   0  0  0  0  0  0  0  0  0  0  0  0
   47.5992   33.4253   45.1842 H   0  0  0  0  0  0  0  0  0  0  0  0
   45.9195   34.0794   44.9531 H   0  0  0  0  0  0  0  0  0  0  0  0
   44.4932   31.4888   43.4783 H   0  0  0  0  0  0  0  0  0  0  0  0
   44.5247   33.2290   43.8632 H   0  0  0  0  0  0  0  0  0  0  0  0
   44.8063   33.2082   41.5556 H   0  0  0  0  0  0  0  0  0  0  0  0
   45.8559   31.7087   41.6394 H   0  0  0  0  0  0  0  0  0  0  0  0
   45.2803   34.0532   37.8498 H   0  0  0  0  0  0  0  0  0  0  0  0
   48.7766   31.7396   36.6894 H   0  0  0  0  0  0  0  0  0  0  0  0
   45.6885   30.5561   33.6171 H   0  0  0  0  0  0  0  0  0  0  0  0
   45.7326   28.8747   34.2542 H   0  0  0  0  0  0  0  0  0  0  0  0
   43.6499   28.3660   33.4523 H   0  0  0  0  0  0  0  0  0  0  0  0
   44.0841   29.6612   32.2672 H   0  0  0  0  0  0  0  0  0  0  0  0
   42.9872   31.2211   33.7618 H   0  0  0  0  0  0  0  0  0  0  0  0
   41.6477   30.5735   35.4888 H   0  0  0  0  0  0  0  0  0  0  0  0
   41.8560   28.8318   34.9978 H   0  0  0  0  0  0  0  0  0  0  0  0
   43.6679   28.6075   36.2131 H   0  0  0  0  0  0  0  0  0  0  0  0
   43.2582   30.2116   36.9469 H   0  0  0  0  0  0  0  0  0  0  0  0
  1  2  1  0
  2  3  1  0
  3  8  1  0
  3  4  1  0
  4  5  1  0
  6  5  1  0
  7  6  1  0
  8  7  1  0
  9  1  1  0
 10  9  1  0
 11 10  2  0
 13 12  2  0
 13 10  1  0
 14 13  1  0
 15 16  1  0
 15 14  2  0
 16 17  2  0
 17 12  1  0
 18 23  1  0
 18 16  1  0
 19 18  1  0
 20 21  1  0
 20 19  1  0
 21 22  1  0
 22 23  1  0
  1 24  1  0
  1 25  1  0
  2 26  1  0
  2 27  1  0
  4 28  1  0
  4 29  1  0
  5 30  1  0
  5 31  1  0
  7 32  1  0
  7 33  1  0
  8 34  1  0
  8 35  1  0
 12 36  1  0
 14 37  1  0
 19 38  1  0
 19 39  1  0
 20 40  1  0
 20 41  1  0
 21 42  1  0
 22 43  1  0
 22 44  1  0
 23 45  1  0
 23 46  1  0
M  ISO  8  24   8  25   8  26   8  27   8  28  13  29  13  30  13  31  13
M  ISO  8  32  13  33  13  34  13  35  13  36  14  37  14  38  13  39  13
M  ISO  7  40  13  41  13  42   5  43  13  44  13  45  13  46  13
M  END
>  <minimizedAffinity>  (1) 
-4.25353527

>  <minimizedRMSD>  (1) 
0.732928693

$$$$
