
     RDKit          3D

 35 36  0  0  0  0  0  0  0  0999 V2000
   47.6330   34.4560   40.5680 C   0  0  0  0  0  0  0  0  0  0  0  0
   46.2280   34.4130   41.1200 C   0  0  0  0  0  0  0  0  0  0  0  0
   46.1030   34.8100   42.4920 N   0  0  0  0  0  0  0  0  0  0  0  0
   44.8930   35.5930   42.5820 C   0  0  0  0  0  0  0  0  0  0  0  0
   44.3350   35.7170   43.9490 C   0  0  0  0  0  0  0  0  0  0  0  0
   45.2280   35.2430   44.9340 O   0  0  0  0  0  0  0  0  0  0  0  0
   45.3750   33.9050   44.6460 C   0  0  0  0  0  0  0  0  0  0  0  0
   46.2580   33.7740   43.4430 C   0  0  0  0  0  0  0  0  0  0  0  0
   47.6550   33.6180   39.4260 O   0  0  0  0  0  0  0  0  0  0  0  0
   48.0000   34.0930   38.1540 C   0  0  0  0  0  0  0  0  0  0  0  0
   48.7710   35.0430   38.0410 O   0  0  0  0  0  0  0  0  0  0  0  0
   45.9500   33.1260   36.9790 C   0  0  0  0  0  0  0  0  0  0  0  0
   47.3410   33.3310   37.0520 C   0  0  0  0  0  0  0  0  0  0  0  0
   48.2010   32.8210   36.0830 C   0  0  0  0  0  0  0  0  0  0  0  0
   47.6360   32.0980   35.0370 N   0  0  0  0  0  0  0  0  0  0  0  0
   46.2750   31.9330   35.0250 C   0  0  0  0  0  0  0  0  0  0  0  0
   45.4540   32.4240   35.9540 N   0  0  0  0  0  0  0  0  0  0  0  0
   45.7750   31.1590   33.8870 C   0  0  0  0  0  0  0  0  0  0  0  0
   44.5440   30.8900   33.8330 O   0  0  0  0  0  0  0  0  0  0  0  0
   46.5360   30.6880   32.8530 O   0  0  0  0  0  0  0  0  0  0  0  0
   47.8967   35.4860   40.2859 H   0  0  0  0  0  0  0  0  0  0  0  0
   48.3606   34.1151   41.3192 H   0  0  0  0  0  0  0  0  0  0  0  0
   45.6022   35.0833   40.5125 H   0  0  0  0  0  0  0  0  0  0  0  0
   45.9124   33.3602   41.0749 H   0  0  0  0  0  0  0  0  0  0  0  0
   45.1109   36.6043   42.2080 H   0  0  0  0  0  0  0  0  0  0  0  0
   44.1359   35.0639   41.9846 H   0  0  0  0  0  0  0  0  0  0  0  0
   44.1177   36.7768   44.1482 H   0  0  0  0  0  0  0  0  0  0  0  0
   43.4221   35.1053   43.9981 H   0  0  0  0  0  0  0  0  0  0  0  0
   45.8346   33.3891   45.5020 H   0  0  0  0  0  0  0  0  0  0  0  0
   44.3931   33.4518   44.4450 H   0  0  0  0  0  0  0  0  0  0  0  0
   46.0298   32.8172   42.9506 H   0  0  0  0  0  0  0  0  0  0  0  0
   47.2950   33.8313   43.8054 H   0  0  0  0  0  0  0  0  0  0  0  0
   45.2827   33.5360   37.7514 H   0  0  0  0  0  0  0  0  0  0  0  0
   49.2873   32.9837   36.1422 H   0  0  0  0  0  0  0  0  0  0  0  0
   46.1128   30.1714   32.1222 H   0  0  0  0  0  0  0  0  0  0  0  0
  1  2  1  0
  2  3  1  0
  3  4  1  0
  3  8  1  0
  4  5  1  0
  5  6  1  0
  7  6  1  0
  8  7  1  0
  9  1  1  0
 10  9  1  0
 11 10  2  0
 12 13  2  0
 13 10  1  0
 14 13  1  0
 15 14  2  0
 16 15  1  0
 16 17  2  0
 17 12  1  0
 18 16  1  0
 19 18  2  0
 20 18  1  0
  1 21  1  0
  1 22  1  0
  2 23  1  0
  2 24  1  0
  4 25  1  0
  4 26  1  0
  5 27  1  0
  5 28  1  0
  7 29  1  0
  7 30  1  0
  8 31  1  0
  8 32  1  0
 12 33  1  0
 14 34  1  0
 20 35  1  0
M  ISO  8  21   8  22   8  23   8  24   8  25  13  26  13  27  13  28  13
M  ISO  7  29  13  30  13  31  13  32  13  33  14  34  14  35   3
M  END
>  <minimizedAffinity>  (1) 
-4.20249891

>  <minimizedRMSD>  (1) 
2.25124669

$$$$
