
     RDKit          3D

 39 41  0  0  0  0  0  0  0  0999 V2000
   47.9950   34.5640   40.4630 C   0  0  0  0  0  0  0  0  0  0  0  0
   46.6030   34.4450   41.0110 C   0  0  0  0  0  0  0  0  0  0  0  0
   46.5160   34.4630   42.4420 N   0  0  0  0  0  0  0  0  0  0  0  0
   45.5090   35.4330   42.7920 C   0  0  0  0  0  0  0  0  0  0  0  0
   44.9290   35.2960   44.1380 C   0  0  0  0  0  0  0  0  0  0  0  0
   45.6600   34.3830   44.9280 O   0  0  0  0  0  0  0  0  0  0  0  0
   45.5160   33.1710   44.2720 C   0  0  0  0  0  0  0  0  0  0  0  0
   46.3590   33.1760   43.0320 C   0  0  0  0  0  0  0  0  0  0  0  0
   48.1250   33.6250   39.4180 O   0  0  0  0  0  0  0  0  0  0  0  0
   48.0230   34.0210   38.0680 C   0  0  0  0  0  0  0  0  0  0  0  0
   48.6950   34.9890   37.6520 O   0  0  0  0  0  0  0  0  0  0  0  0
   45.7370   32.9990   37.6290 C   0  0  0  0  0  0  0  0  0  0  0  0
   47.0860   33.1980   37.2810 C   0  0  0  0  0  0  0  0  0  0  0  0
   47.6230   32.6000   36.1230 C   0  0  0  0  0  0  0  0  0  0  0  0
   46.7740   31.8240   35.3650 N   0  0  0  0  0  0  0  0  0  0  0  0
   45.4690   31.6680   35.7570 C   0  0  0  0  0  0  0  0  0  0  0  0
   44.9800   32.2310   36.8380 N   0  0  0  0  0  0  0  0  0  0  0  0
   44.6430   30.8310   34.8950 C   0  0  0  0  0  0  0  0  0  0  0  0
   43.2950   30.5630   34.8650 C   0  0  0  0  0  0  0  0  0  0  0  0
   43.1060   29.6900   33.8140 C   0  0  0  0  0  0  0  0  0  0  0  0
   44.3390   29.4580   33.2450 C   0  0  0  0  0  0  0  0  0  0  0  0
   45.2380   30.1630   33.9250 O   0  0  0  0  0  0  0  0  0  0  0  0
   48.1600   35.5805   40.0763 H   0  0  0  0  0  0  0  0  0  0  0  0
   48.7377   34.3698   41.2508 H   0  0  0  0  0  0  0  0  0  0  0  0
   46.0091   35.2850   40.6216 H   0  0  0  0  0  0  0  0  0  0  0  0
   46.2273   33.4621   40.6905 H   0  0  0  0  0  0  0  0  0  0  0  0
   45.9633   36.4322   42.7202 H   0  0  0  0  0  0  0  0  0  0  0  0
   44.6782   35.2682   42.0901 H   0  0  0  0  0  0  0  0  0  0  0  0
   44.9349   36.2793   44.6311 H   0  0  0  0  0  0  0  0  0  0  0  0
   43.9023   34.9154   44.0332 H   0  0  0  0  0  0  0  0  0  0  0  0
   45.8403   32.3542   44.9336 H   0  0  0  0  0  0  0  0  0  0  0  0
   44.4607   33.0222   43.9998 H   0  0  0  0  0  0  0  0  0  0  0  0
   45.8892   32.5115   42.2919 H   0  0  0  0  0  0  0  0  0  0  0  0
   47.3628   32.8380   43.3289 H   0  0  0  0  0  0  0  0  0  0  0  0
   45.3146   33.4648   38.5316 H   0  0  0  0  0  0  0  0  0  0  0  0
   48.6750   32.7467   35.8369 H   0  0  0  0  0  0  0  0  0  0  0  0
   42.5248   30.9629   35.5409 H   0  0  0  0  0  0  0  0  0  0  0  0
   42.1475   29.2586   33.4899 H   0  0  0  0  0  0  0  0  0  0  0  0
   44.5431   28.8063   32.3827 H   0  0  0  0  0  0  0  0  0  0  0  0
  1  2  1  0
  2  3  1  0
  3  4  1  0
  3  8  1  0
  4  5  1  0
  5  6  1  0
  7  6  1  0
  8  7  1  0
  9  1  1  0
 10  9  1  0
 11 10  2  0
 13 12  2  0
 13 10  1  0
 14 13  1  0
 15 16  1  0
 15 14  2  0
 16 17  2  0
 17 12  1  0
 18 16  1  0
 19 18  2  0
 20 19  1  0
 21 20  2  0
 21 22  1  0
 22 18  1  0
  1 23  1  0
  1 24  1  0
  2 25  1  0
  2 26  1  0
  4 27  1  0
  4 28  1  0
  5 29  1  0
  5 30  1  0
  7 31  1  0
  7 32  1  0
  8 33  1  0
  8 34  1  0
 12 35  1  0
 14 36  1  0
 19 37  1  0
 20 38  1  0
 21 39  1  0
M  ISO  8  23   8  24   8  25   8  26   8  27  13  28  13  29  13  30  13
M  ISO  8  31  13  32  13  33  13  34  13  35  14  36  14  37  14  38  14
M  ISO  1  39  14
M  END
>  <minimizedAffinity>  (1) 
-4.18568659

>  <minimizedRMSD>  (1) 
1.81307471

$$$$
