
     RDKit          3D

 39 41  0  0  0  0  0  0  0  0999 V2000
   48.1070   34.1540   40.0740 C   0  0  0  0  0  0  0  0  0  0  0  0
   47.1520   34.5610   41.1620 C   0  0  0  0  0  0  0  0  0  0  0  0
   46.9100   33.5390   42.1460 N   0  0  0  0  0  0  0  0  0  0  0  0
   47.2540   34.1130   43.4280 C   0  0  0  0  0  0  0  0  0  0  0  0
   46.6970   33.4030   44.5910 C   0  0  0  0  0  0  0  0  0  0  0  0
   46.0690   32.1940   44.2380 O   0  0  0  0  0  0  0  0  0  0  0  0
   45.0480   32.5570   43.3900 C   0  0  0  0  0  0  0  0  0  0  0  0
   45.6380   32.9180   42.0600 C   0  0  0  0  0  0  0  0  0  0  0  0
   47.3430   33.7650   38.9470 O   0  0  0  0  0  0  0  0  0  0  0  0
   47.8040   33.9560   37.6330 C   0  0  0  0  0  0  0  0  0  0  0  0
   48.6380   34.8270   37.3930 O   0  0  0  0  0  0  0  0  0  0  0  0
   45.7830   32.8910   36.4960 C   0  0  0  0  0  0  0  0  0  0  0  0
   47.1740   33.0140   36.6570 C   0  0  0  0  0  0  0  0  0  0  0  0
   48.0640   32.2470   35.9080 C   0  0  0  0  0  0  0  0  0  0  0  0
   47.5240   31.3560   34.9960 N   0  0  0  0  0  0  0  0  0  0  0  0
   46.1580   31.2800   34.8850 C   0  0  0  0  0  0  0  0  0  0  0  0
   45.3070   32.0160   35.6030 N   0  0  0  0  0  0  0  0  0  0  0  0
   45.6380   30.3510   33.9370 N   0  0  0  0  0  0  0  0  0  0  0  0
   44.3790   29.8480   33.8720 C   0  0  0  0  0  0  0  0  0  0  0  0
   44.3200   28.9840   32.7980 C   0  0  0  0  0  0  0  0  0  0  0  0
   45.5210   28.9470   32.1980 N   0  0  0  0  0  0  0  0  0  0  0  0
   46.3050   29.7860   32.9100 C   0  0  0  0  0  0  0  0  0  0  0  0
   48.7566   35.0017   39.8106 H   0  0  0  0  0  0  0  0  0  0  0  0
   48.7413   33.3215   40.4127 H   0  0  0  0  0  0  0  0  0  0  0  0
   47.5671   35.4417   41.6740 H   0  0  0  0  0  0  0  0  0  0  0  0
   46.1871   34.7669   40.6756 H   0  0  0  0  0  0  0  0  0  0  0  0
   48.3502   34.1133   43.5199 H   0  0  0  0  0  0  0  0  0  0  0  0
   46.8173   35.1225   43.4428 H   0  0  0  0  0  0  0  0  0  0  0  0
   47.5141   33.1833   45.2939 H   0  0  0  0  0  0  0  0  0  0  0  0
   45.9350   34.0538   45.0447 H   0  0  0  0  0  0  0  0  0  0  0  0
   44.3492   31.7160   43.2697 H   0  0  0  0  0  0  0  0  0  0  0  0
   44.5018   33.4168   43.8052 H   0  0  0  0  0  0  0  0  0  0  0  0
   44.9491   33.6083   41.5512 H   0  0  0  0  0  0  0  0  0  0  0  0
   45.7781   31.9777   41.5066 H   0  0  0  0  0  0  0  0  0  0  0  0
   45.0956   33.5056   37.0958 H   0  0  0  0  0  0  0  0  0  0  0  0
   49.1521   32.3454   36.0361 H   0  0  0  0  0  0  0  0  0  0  0  0
   43.5511   30.0872   34.5556 H   0  0  0  0  0  0  0  0  0  0  0  0
   43.4317   28.4164   32.4835 H   0  0  0  0  0  0  0  0  0  0  0  0
   47.3620   29.9847   32.6793 H   0  0  0  0  0  0  0  0  0  0  0  0
  1  2  1  0
  2  3  1  0
  3  4  1  0
  4  5  1  0
  6  5  1  0
  7  6  1  0
  8  3  1  0
  8  7  1  0
  9  1  1  0
 10  9  1  0
 11 10  2  0
 12 13  2  0
 13 10  1  0
 14 13  1  0
 15 14  2  0
 16 15  1  0
 16 17  2  0
 17 12  1  0
 18 16  1  0
 19 18  1  0
 20 19  2  0
 21 20  1  0
 21 22  2  0
 22 18  1  0
  1 23  1  0
  1 24  1  0
  2 25  1  0
  2 26  1  0
  4 27  1  0
  4 28  1  0
  5 29  1  0
  5 30  1  0
  7 31  1  0
  7 32  1  0
  8 33  1  0
  8 34  1  0
 12 35  1  0
 14 36  1  0
 19 37  1  0
 20 38  1  0
 22 39  1  0
M  ISO  8  23   8  24   8  25   8  26   8  27  13  28  13  29  13  30  13
M  ISO  8  31  13  32  13  33  13  34  13  35  14  36  14  37  14  38  14
M  ISO  1  39  14
M  END
>  <minimizedAffinity>  (1) 
-4.17911911

>  <minimizedRMSD>  (1) 
1.85470748

$$$$
