
     RDKit          3D

 39 41  0  0  0  0  0  0  0  0999 V2000
   48.1490   34.5980   40.3800 C   0  0  0  0  0  0  0  0  0  0  0  0
   46.8170   34.4760   41.0990 C   0  0  0  0  0  0  0  0  0  0  0  0
   46.8040   33.4680   42.1290 N   0  0  0  0  0  0  0  0  0  0  0  0
   47.0980   34.1640   43.3630 C   0  0  0  0  0  0  0  0  0  0  0  0
   46.7120   33.4240   44.5890 C   0  0  0  0  0  0  0  0  0  0  0  0
   46.3350   32.0990   44.3190 O   0  0  0  0  0  0  0  0  0  0  0  0
   45.2130   32.2210   43.5030 C   0  0  0  0  0  0  0  0  0  0  0  0
   45.6550   32.6550   42.1300 C   0  0  0  0  0  0  0  0  0  0  0  0
   48.1500   33.6690   39.3160 O   0  0  0  0  0  0  0  0  0  0  0  0
   48.0830   34.0580   37.9810 C   0  0  0  0  0  0  0  0  0  0  0  0
   48.7820   34.9860   37.5660 O   0  0  0  0  0  0  0  0  0  0  0  0
   45.7590   33.0810   37.5500 C   0  0  0  0  0  0  0  0  0  0  0  0
   47.1110   33.2450   37.1890 C   0  0  0  0  0  0  0  0  0  0  0  0
   47.6240   32.6380   36.0380 C   0  0  0  0  0  0  0  0  0  0  0  0
   46.7340   31.8820   35.2930 N   0  0  0  0  0  0  0  0  0  0  0  0
   45.4470   31.7560   35.6830 C   0  0  0  0  0  0  0  0  0  0  0  0
   44.9790   32.3320   36.7670 N   0  0  0  0  0  0  0  0  0  0  0  0
   44.5630   30.9450   34.8520 C   0  0  0  0  0  0  0  0  0  0  0  0
   44.9190   30.0120   33.8970 C   0  0  0  0  0  0  0  0  0  0  0  0
   43.8300   29.4550   33.3270 N   0  0  0  0  0  0  0  0  0  0  0  0
   42.7580   30.0300   33.9160 C   0  0  0  0  0  0  0  0  0  0  0  0
   43.2190   30.9130   34.8200 N   0  0  0  0  0  0  0  0  0  0  0  0
   48.2702   35.6181   39.9867 H   0  0  0  0  0  0  0  0  0  0  0  0
   48.9798   34.3927   41.0711 H   0  0  0  0  0  0  0  0  0  0  0  0
   46.5812   35.4465   41.5601 H   0  0  0  0  0  0  0  0  0  0  0  0
   46.0724   34.1762   40.3469 H   0  0  0  0  0  0  0  0  0  0  0  0
   48.1808   34.3536   43.4018 H   0  0  0  0  0  0  0  0  0  0  0  0
   46.5018   35.0883   43.3526 H   0  0  0  0  0  0  0  0  0  0  0  0
   47.5682   33.4138   45.2795 H   0  0  0  0  0  0  0  0  0  0  0  0
   45.8440   33.9360   45.0300 H   0  0  0  0  0  0  0  0  0  0  0  0
   44.6976   31.2515   43.4360 H   0  0  0  0  0  0  0  0  0  0  0  0
   44.5230   32.9660   43.9259 H   0  0  0  0  0  0  0  0  0  0  0  0
   44.8328   33.2175   41.6636 H   0  0  0  0  0  0  0  0  0  0  0  0
   45.9113   31.7409   41.5744 H   0  0  0  0  0  0  0  0  0  0  0  0
   45.3558   33.5586   38.4552 H   0  0  0  0  0  0  0  0  0  0  0  0
   48.6766   32.7546   35.7407 H   0  0  0  0  0  0  0  0  0  0  0  0
   45.9563   29.7563   33.6351 H   0  0  0  0  0  0  0  0  0  0  0  0
   41.7018   29.8152   33.6963 H   0  0  0  0  0  0  0  0  0  0  0  0
   42.6144   31.4954   35.4168 H   0  0  0  0  0  0  0  0  0  0  0  0
  1  2  1  0
  2  3  1  0
  3  8  1  0
  3  4  1  0
  4  5  1  0
  6  5  1  0
  7  6  1  0
  8  7  1  0
  9  1  1  0
 10  9  1  0
 11 10  2  0
 13 12  2  0
 13 10  1  0
 14 13  1  0
 15 16  1  0
 15 14  2  0
 16 17  2  0
 17 12  1  0
 18 16  1  0
 19 18  2  0
 20 19  1  0
 20 21  2  0
 21 22  1  0
 22 18  1  0
  1 23  1  0
  1 24  1  0
  2 25  1  0
  2 26  1  0
  4 27  1  0
  4 28  1  0
  5 29  1  0
  5 30  1  0
  7 31  1  0
  7 32  1  0
  8 33  1  0
  8 34  1  0
 12 35  1  0
 14 36  1  0
 19 37  1  0
 21 38  1  0
 22 39  1  0
M  ISO  8  23   8  24   8  25   8  26   8  27  13  28  13  29  13  30  13
M  ISO  8  31  13  32  13  33  13  34  13  35  14  36  14  37  14  38  14
M  ISO  1  39   9
M  END
>  <minimizedAffinity>  (1) 
-4.05305386

>  <minimizedRMSD>  (1) 
1.36072063

$$$$
