
     RDKit          3D

 44 45  0  0  0  0  0  0  0  0999 V2000
   48.1930   34.6710   40.4020 C   0  0  0  0  0  0  0  0  0  0  0  0
   46.8380   34.5270   41.0520 C   0  0  0  0  0  0  0  0  0  0  0  0
   46.7880   33.5190   42.0720 N   0  0  0  0  0  0  0  0  0  0  0  0
   47.1900   34.1370   43.3100 C   0  0  0  0  0  0  0  0  0  0  0  0
   46.7730   33.4340   44.5340 C   0  0  0  0  0  0  0  0  0  0  0  0
   46.2480   32.1480   44.2610 O   0  0  0  0  0  0  0  0  0  0  0  0
   45.1390   32.3900   43.4840 C   0  0  0  0  0  0  0  0  0  0  0  0
   45.5720   32.7850   42.1040 C   0  0  0  0  0  0  0  0  0  0  0  0
   48.2960   33.6700   39.3890 O   0  0  0  0  0  0  0  0  0  0  0  0
   48.0650   33.9810   38.0380 C   0  0  0  0  0  0  0  0  0  0  0  0
   48.6650   34.9410   37.5180 O   0  0  0  0  0  0  0  0  0  0  0  0
   45.7850   32.8960   37.8240 C   0  0  0  0  0  0  0  0  0  0  0  0
   47.0930   33.0850   37.3850 C   0  0  0  0  0  0  0  0  0  0  0  0
   47.5680   32.3960   36.2480 C   0  0  0  0  0  0  0  0  0  0  0  0
   46.6680   31.5460   35.6190 N   0  0  0  0  0  0  0  0  0  0  0  0
   45.4030   31.4130   36.1070 C   0  0  0  0  0  0  0  0  0  0  0  0
   44.9730   32.0590   37.1660 N   0  0  0  0  0  0  0  0  0  0  0  0
   44.5230   30.4740   35.3510 C   0  0  0  0  0  0  0  0  0  0  0  0
   43.1220   30.7200   35.8700 C   0  0  0  0  0  0  0  0  0  0  0  0
   44.9910   29.0710   35.6790 C   0  0  0  0  0  0  0  0  0  0  0  0
   44.6380   30.7080   33.8680 C   0  0  0  0  0  0  0  0  0  0  0  0
   48.2888   35.6704   39.9525 H   0  0  0  0  0  0  0  0  0  0  0  0
   48.9931   34.5495   41.1471 H   0  0  0  0  0  0  0  0  0  0  0  0
   46.5665   35.4920   41.5048 H   0  0  0  0  0  0  0  0  0  0  0  0
   46.1359   34.2190   40.2632 H   0  0  0  0  0  0  0  0  0  0  0  0
   48.2880   34.2034   43.3147 H   0  0  0  0  0  0  0  0  0  0  0  0
   46.6865   35.1146   43.3369 H   0  0  0  0  0  0  0  0  0  0  0  0
   47.6454   33.3271   45.1955 H   0  0  0  0  0  0  0  0  0  0  0  0
   45.9791   34.0281   45.0101 H   0  0  0  0  0  0  0  0  0  0  0  0
   44.5242   31.4795   43.4288 H   0  0  0  0  0  0  0  0  0  0  0  0
   44.5492   33.2042   43.9303 H   0  0  0  0  0  0  0  0  0  0  0  0
   44.7810   33.4048   41.6566 H   0  0  0  0  0  0  0  0  0  0  0  0
   45.7452   31.8541   41.5441 H   0  0  0  0  0  0  0  0  0  0  0  0
   45.4191   33.4341   38.7109 H   0  0  0  0  0  0  0  0  0  0  0  0
   48.5965   32.5256   35.8799 H   0  0  0  0  0  0  0  0  0  0  0  0
   43.1329   30.7181   36.9699 H   0  0  0  0  0  0  0  0  0  0  0  0
   42.7630   31.6949   35.5085 H   0  0  0  0  0  0  0  0  0  0  0  0
   42.4523   29.9257   35.5085 H   0  0  0  0  0  0  0  0  0  0  0  0
   45.0332   28.9444   36.7709 H   0  0  0  0  0  0  0  0  0  0  0  0
   44.2878   28.3407   35.2521 H   0  0  0  0  0  0  0  0  0  0  0  0
   45.9918   28.9091   35.2521 H   0  0  0  0  0  0  0  0  0  0  0  0
   45.1165   31.6817   33.6865 H   0  0  0  0  0  0  0  0  0  0  0  0
   45.2468   29.9105   33.4171 H   0  0  0  0  0  0  0  0  0  0  0  0
   43.6347   30.7028   33.4171 H   0  0  0  0  0  0  0  0  0  0  0  0
  1  2  1  0
  2  3  1  0
  3  8  1  0
  3  4  1  0
  4  5  1  0
  6  5  1  0
  7  6  1  0
  8  7  1  0
  9  1  1  0
 10  9  1  0
 11 10  2  0
 13 12  2  0
 13 10  1  0
 14 13  1  0
 15 16  1  0
 15 14  2  0
 16 17  2  0
 17 12  1  0
 18 20  1  0
 18 19  1  0
 18 16  1  0
 21 18  1  0
  1 22  1  0
  1 23  1  0
  2 24  1  0
  2 25  1  0
  4 26  1  0
  4 27  1  0
  5 28  1  0
  5 29  1  0
  7 30  1  0
  7 31  1  0
  8 32  1  0
  8 33  1  0
 12 34  1  0
 14 35  1  0
 19 36  1  0
 19 37  1  0
 19 38  1  0
 20 39  1  0
 20 40  1  0
 20 41  1  0
 21 42  1  0
 21 43  1  0
 21 44  1  0
M  ISO  8  22   8  23   8  24   8  25   8  26  13  27  13  28  13  29  13
M  ISO  8  30  13  31  13  32  13  33  13  34  14  35  14  36   8  37   8
M  ISO  7  38   8  39   8  40   8  41   8  42   8  43   8  44   8
M  END
>  <minimizedAffinity>  (1) 
-3.59160614

>  <minimizedRMSD>  (1) 
0.828888237

$$$$
