
     RDKit          3D

 33 34  0  0  0  0  0  0  0  0999 V2000
   46.8140   34.4410   40.9830 C   0  0  0  0  0  0  0  0  0  0  0  0
   46.7720   33.4660   42.0330 N   0  0  0  0  0  0  0  0  0  0  0  0
   47.1620   34.1460   43.2400 C   0  0  0  0  0  0  0  0  0  0  0  0
   46.7360   33.4910   44.4970 C   0  0  0  0  0  0  0  0  0  0  0  0
   46.2430   32.1860   44.2630 O   0  0  0  0  0  0  0  0  0  0  0  0
   45.1170   32.3830   43.4830 C   0  0  0  0  0  0  0  0  0  0  0  0
   45.5740   32.7240   42.0880 C   0  0  0  0  0  0  0  0  0  0  0  0
   48.1890   34.6580   40.3810 C   0  0  0  0  0  0  0  0  0  0  0  0
   48.3520   33.6650   39.3800 O   0  0  0  0  0  0  0  0  0  0  0  0
   48.0890   33.9270   38.0220 C   0  0  0  0  0  0  0  0  0  0  0  0
   48.6090   34.8950   37.4680 O   0  0  0  0  0  0  0  0  0  0  0  0
   45.8660   33.2370   37.0130 C   0  0  0  0  0  0  0  0  0  0  0  0
   47.1700   32.9400   37.4180 C   0  0  0  0  0  0  0  0  0  0  0  0
   47.6870   31.6360   37.2610 C   0  0  0  0  0  0  0  0  0  0  0  0
   46.8460   30.6920   36.6960 N   0  0  0  0  0  0  0  0  0  0  0  0
   45.5840   31.0550   36.3250 C   0  0  0  0  0  0  0  0  0  0  0  0
   45.1020   32.2880   36.4760 N   0  0  0  0  0  0  0  0  0  0  0  0
   44.5030   29.8180   35.5940 S   0  0  0  0  0  0  0  0  0  0  0  0
   46.1360   34.1123   40.1816 H   0  0  0  0  0  0  0  0  0  0  0  0
   46.5149   35.3990   41.4334 H   0  0  0  0  0  0  0  0  0  0  0  0
   48.2595   34.2201   43.2496 H   0  0  0  0  0  0  0  0  0  0  0  0
   46.6564   35.1226   43.2176 H   0  0  0  0  0  0  0  0  0  0  0  0
   47.5979   33.4303   45.1778 H   0  0  0  0  0  0  0  0  0  0  0  0
   45.9269   34.0901   44.9401 H   0  0  0  0  0  0  0  0  0  0  0  0
   44.5104   31.4656   43.4638 H   0  0  0  0  0  0  0  0  0  0  0  0
   44.5031   33.1974   43.8950 H   0  0  0  0  0  0  0  0  0  0  0  0
   44.7823   33.3120   41.6006 H   0  0  0  0  0  0  0  0  0  0  0  0
   45.7726   31.7687   41.5801 H   0  0  0  0  0  0  0  0  0  0  0  0
   48.2546   35.6614   39.9351 H   0  0  0  0  0  0  0  0  0  0  0  0
   48.9749   34.5834   41.1470 H   0  0  0  0  0  0  0  0  0  0  0  0
   45.4704   34.2558   37.1380 H   0  0  0  0  0  0  0  0  0  0  0  0
   48.7106   31.3814   37.5730 H   0  0  0  0  0  0  0  0  0  0  0  0
   43.8829   29.1084   36.5884 H   0  0  0  0  0  0  0  0  0  0  0  0
  1  2  1  0
  2  7  1  0
  2  3  1  0
  3  4  1  0
  5  4  1  0
  6  5  1  0
  7  6  1  0
  8  1  1  0
  9  8  1  0
 10  9  1  0
 11 10  2  0
 12 13  2  0
 13 10  1  0
 14 13  1  0
 15 14  2  0
 16 17  2  0
 16 15  1  0
 17 12  1  0
 18 16  1  0
  1 19  1  0
  1 20  1  0
  3 21  1  0
  3 22  1  0
  4 23  1  0
  4 24  1  0
  6 25  1  0
  6 26  1  0
  7 27  1  0
  7 28  1  0
  8 29  1  0
  8 30  1  0
 12 31  1  0
 14 32  1  0
 18 33  1  0
M  ISO  8  19   8  20   8  21  13  22  13  23  13  24  13  25  13  26  13
M  ISO  7  27  13  28  13  29   8  30   8  31  14  32  14  33  11
M  END
>  <minimizedAffinity>  (1) 
-3.24087811

>  <minimizedRMSD>  (1) 
0.342018574

$$$$
