
     RDKit          3D

 52 56  0  0  1  0  0  0  0  0999 V2000
   46.4830   32.8440   38.0740 C   0  0  0  0  0  0  0  0  0  0  0  0
   47.6090   32.3860   37.3550 C   0  0  0  0  0  0  0  0  0  0  0  0
   48.6620   31.7090   38.0050 C   0  0  0  0  0  0  0  0  0  0  0  0
   48.5490   31.5110   39.3760 N   0  0  0  0  0  0  0  0  0  0  0  0
   47.4280   31.9850   39.9950 C   0  0  0  0  0  0  0  0  0  0  0  0
   46.4210   32.6320   39.3810 N   0  0  0  0  0  0  0  0  0  0  0  0
   47.3410   31.7750   41.4830 C   0  0  1  0  0  0  0  0  0  0  0  0
   48.5490   31.5830   42.2780 C   0  0  0  0  0  0  0  0  0  0  0  0
   47.9190   32.9220   42.3380 C   0  0  2  0  0  0  0  0  0  0  0  0
   47.1220   33.2470   43.5040 N   0  0  0  0  0  0  0  0  0  0  0  0
   47.1410   32.5120   44.6400 C   0  0  0  0  0  0  0  0  0  0  0  0
   46.3000   33.0520   45.5590 N   0  0  0  0  0  0  0  0  0  0  0  0
   45.7270   34.1440   45.0210 C   0  0  0  0  0  0  0  0  0  0  0  0
   44.8170   35.1200   45.3850 C   0  0  0  0  0  0  0  0  0  0  0  0
   44.4720   36.1110   44.5260 N   0  0  0  0  0  0  0  0  0  0  0  0
   44.9910   36.1960   43.2930 C   0  0  0  0  0  0  0  0  0  0  0  0
   45.8770   35.2510   42.9300 N   0  0  0  0  0  0  0  0  0  0  0  0
   46.2430   34.2590   43.7470 C   0  0  0  0  0  0  0  0  0  0  0  0
   44.2640   35.0330   46.6940 N   0  0  0  0  0  0  0  0  0  0  0  0
   47.7790   32.5710   35.8880 C   0  0  0  0  0  0  0  0  0  0  0  0
   48.7440   33.0690   35.3110 O   0  0  0  0  0  0  0  0  0  0  0  0
   46.6790   32.1020   35.1560 O   0  0  0  0  0  0  0  0  0  0  0  0
   46.8630   31.4660   33.8930 C   0  0  0  0  0  0  0  0  0  0  0  0
   46.2040   30.1110   33.9730 C   0  0  0  0  0  0  0  0  0  0  0  0
   45.5950   29.6670   32.7510 N   0  0  0  0  0  0  0  0  0  0  0  0
   46.6410   29.0760   31.9390 C   0  0  0  0  0  0  0  0  0  0  0  0
   46.1710   28.1540   30.8910 C   0  0  0  0  0  0  0  0  0  0  0  0
   44.7710   28.2510   30.6980 O   0  0  0  0  0  0  0  0  0  0  0  0
   44.2450   27.8260   31.8890 C   0  0  0  0  0  0  0  0  0  0  0  0
   44.4170   28.9160   32.8990 C   0  0  0  0  0  0  0  0  0  0  0  0
   45.6676   33.3701   37.5559 H   0  0  0  0  0  0  0  0  0  0  0  0
   49.5401   31.3510   37.4475 H   0  0  0  0  0  0  0  0  0  0  0  0
   46.3988   31.2134   41.4004 H   0  0  0  0  0  0  0  0  0  0  0  0
   48.5159   30.9299   43.1625 H   0  0  0  0  0  0  0  0  0  0  0  0
   49.5646   31.2333   42.0409 H   0  0  0  0  0  0  0  0  0  0  0  0
   48.2796   33.9501   42.1864 H   0  0  0  0  0  0  0  0  0  0  0  0
   47.7491   31.6088   44.7961 H   0  0  0  0  0  0  0  0  0  0  0  0
   44.7041   37.0056   42.6059 H   0  0  0  0  0  0  0  0  0  0  0  0
   43.5819   35.7359   47.0127 H   0  0  0  0  0  0  0  0  0  0  0  0
   44.5460   34.2671   47.3224 H   0  0  0  0  0  0  0  0  0  0  0  0
   47.9365   31.3507   33.6824 H   0  0  0  0  0  0  0  0  0  0  0  0
   46.4199   32.0676   33.0857 H   0  0  0  0  0  0  0  0  0  0  0  0
   46.9684   29.3747   34.2621 H   0  0  0  0  0  0  0  0  0  0  0  0
   45.3919   30.2035   34.7092 H   0  0  0  0  0  0  0  0  0  0  0  0
   47.1963   29.8912   31.4520 H   0  0  0  0  0  0  0  0  0  0  0  0
   47.2576   28.4744   32.6231 H   0  0  0  0  0  0  0  0  0  0  0  0
   46.6790   28.3989   29.9466 H   0  0  0  0  0  0  0  0  0  0  0  0
   46.4033   27.1267   31.2083 H   0  0  0  0  0  0  0  0  0  0  0  0
   43.1755   27.6017   31.7634 H   0  0  0  0  0  0  0  0  0  0  0  0
   44.7614   26.9149   32.2257 H   0  0  0  0  0  0  0  0  0  0  0  0
   44.4243   28.4591   33.8996 H   0  0  0  0  0  0  0  0  0  0  0  0
   43.5802   29.6144   32.7510 H   0  0  0  0  0  0  0  0  0  0  0  0
  1  6  2  0
  2  3  2  0
  2  1  1  0
  3  4  1  0
  4  5  2  0
  5  7  1  0
  6  5  1  0
  7  8  1  0
  7  9  1  0
  8  9  1  0
  9 10  1  0
 10 18  1  0
 10 11  1  0
 11 12  2  0
 13 14  2  0
 13 12  1  0
 14 19  1  0
 15 14  1  0
 16 15  2  0
 17 16  1  0
 17 18  2  0
 18 13  1  0
 20  2  1  0
 21 20  2  0
 22 20  1  0
 23 24  1  0
 23 22  1  0
 25 30  1  0
 25 24  1  0
 26 25  1  0
 27 26  1  0
 28 27  1  0
 28 29  1  0
 29 30  1  0
  1 31  1  0
  3 32  1  0
  7 33  1  1
  8 34  1  0
  8 35  1  0
  9 36  1  6
 11 37  1  0
 16 38  1  0
 19 39  1  0
 19 40  1  0
 23 41  1  0
 23 42  1  0
 24 43  1  0
 24 44  1  0
 26 45  1  0
 26 46  1  0
 27 47  1  0
 27 48  1  0
 29 49  1  0
 29 50  1  0
 30 51  1  0
 30 52  1  0
M  ISO  8  31  14  32  14  33  13  34  13  35  13  36  13  37  14  38  14
M  ISO  8  41   8  42   8  43   8  44   8  45  13  46  13  47  13  48  13
M  ISO  4  49  13  50  13  51  13  52  13
M  END
>  <minimizedAffinity>  (1) 
-5.92941999

>  <minimizedRMSD>  (1) 
11.1877346

$$$$
