
     RDKit          3D

 55 59  0  0  1  0  0  0  0  0999 V2000
   46.4140   33.1920   38.9920 C   0  0  0  0  0  0  0  0  0  0  0  0
   47.0930   32.0350   39.4100 C   0  0  0  0  0  0  0  0  0  0  0  0
   46.5530   30.7480   39.1980 C   0  0  0  0  0  0  0  0  0  0  0  0
   45.3190   30.6870   38.5560 N   0  0  0  0  0  0  0  0  0  0  0  0
   44.7360   31.8730   38.1850 C   0  0  0  0  0  0  0  0  0  0  0  0
   45.2420   33.0910   38.3830 N   0  0  0  0  0  0  0  0  0  0  0  0
   43.3760   31.7510   37.4840 C   0  0  1  0  0  0  0  0  0  0  0  0
   42.6350   30.4900   37.6160 C   0  0  0  0  0  0  0  0  0  0  0  0
   42.1870   31.6360   38.3390 C   0  0  2  0  0  0  0  0  0  0  0  0
   40.9530   32.3270   38.4330 C   0  0  0  0  0  0  0  0  0  0  0  0
   39.7430   31.9090   37.8400 C   0  0  0  0  0  0  0  0  0  0  0  0
   38.5040   32.4890   37.9230 C   0  0  0  0  0  0  0  0  0  0  0  0
   38.3860   33.6320   38.6770 C   0  0  0  0  0  0  0  0  0  0  0  0
   39.4870   34.1410   39.3030 C   0  0  0  0  0  0  0  0  0  0  0  0
   39.3230   35.2950   40.0320 C   0  0  0  0  0  0  0  0  0  0  0  0
   40.4050   35.8650   40.6700 C   0  0  0  0  0  0  0  0  0  0  0  0
   41.6550   35.2460   40.5580 C   0  0  0  0  0  0  0  0  0  0  0  0
   41.7210   34.1100   39.8180 C   0  0  0  0  0  0  0  0  0  0  0  0
   40.6870   33.4810   39.1540 C   0  0  0  0  0  0  0  0  0  0  0  0
   48.4190   32.0660   40.1010 C   0  0  0  0  0  0  0  0  0  0  0  0
   49.5280   32.1860   39.5650 O   0  0  0  0  0  0  0  0  0  0  0  0
   48.3100   31.9430   41.4850 O   0  0  0  0  0  0  0  0  0  0  0  0
   48.8110   32.9340   42.3600 C   0  0  0  0  0  0  0  0  0  0  0  0
   47.9330   34.1580   42.1960 C   0  0  0  0  0  0  0  0  0  0  0  0
   47.1550   34.4890   43.3550 N   0  0  0  0  0  0  0  0  0  0  0  0
   45.9750   35.1820   42.8860 C   0  0  0  0  0  0  0  0  0  0  0  0
   44.8430   35.1870   43.8300 C   0  0  0  0  0  0  0  0  0  0  0  0
   45.2130   34.7310   45.1080 O   0  0  0  0  0  0  0  0  0  0  0  0
   45.5930   33.4290   44.9080 C   0  0  0  0  0  0  0  0  0  0  0  0
   46.9390   33.4240   44.2530 C   0  0  0  0  0  0  0  0  0  0  0  0
   46.8564   34.1831   39.1708 H   0  0  0  0  0  0  0  0  0  0  0  0
   47.0805   29.8393   39.5236 H   0  0  0  0  0  0  0  0  0  0  0  0
   43.6939   32.3881   36.6455 H   0  0  0  0  0  0  0  0  0  0  0  0
   42.0437   30.1114   36.7692 H   0  0  0  0  0  0  0  0  0  0  0  0
   42.9061   29.4603   37.8919 H   0  0  0  0  0  0  0  0  0  0  0  0
   41.9295   31.8777   39.3808 H   0  0  0  0  0  0  0  0  0  0  0  0
   39.8019   30.9958   37.2296 H   0  0  0  0  0  0  0  0  0  0  0  0
   37.6358   32.0555   37.4051 H   0  0  0  0  0  0  0  0  0  0  0  0
   37.4116   34.1329   38.7753 H   0  0  0  0  0  0  0  0  0  0  0  0
   38.3304   35.7631   40.1064 H   0  0  0  0  0  0  0  0  0  0  0  0
   40.2875   36.7886   41.2557 H   0  0  0  0  0  0  0  0  0  0  0  0
   42.5468   35.6626   41.0491 H   0  0  0  0  0  0  0  0  0  0  0  0
   42.7108   33.6369   39.7384 H   0  0  0  0  0  0  0  0  0  0  0  0
   48.7690   32.5760   43.3993 H   0  0  0  0  0  0  0  0  0  0  0  0
   49.8595   33.1699   42.1253 H   0  0  0  0  0  0  0  0  0  0  0  0
   48.5795   35.0159   41.9591 H   0  0  0  0  0  0  0  0  0  0  0  0
   47.2174   33.9257   41.3935 H   0  0  0  0  0  0  0  0  0  0  0  0
   46.2517   36.2262   42.6784 H   0  0  0  0  0  0  0  0  0  0  0  0
   45.6311   34.6376   41.9942 H   0  0  0  0  0  0  0  0  0  0  0  0
   44.4600   36.2144   43.9180 H   0  0  0  0  0  0  0  0  0  0  0  0
   44.0744   34.5045   43.4382 H   0  0  0  0  0  0  0  0  0  0  0  0
   45.6481   32.9057   45.8740 H   0  0  0  0  0  0  0  0  0  0  0  0
   44.8599   32.9157   44.2684 H   0  0  0  0  0  0  0  0  0  0  0  0
   47.0483   32.4799   43.6992 H   0  0  0  0  0  0  0  0  0  0  0  0
   47.6797   33.5380   45.0582 H   0  0  0  0  0  0  0  0  0  0  0  0
  1  2  2  0
  2 20  1  0
  3  2  1  0
  4  3  2  0
  5  6  2  0
  5  4  1  0
  6  1  1  0
  7  8  1  0
  7  5  1  0
  7  9  1  0
  8  9  1  0
  9 10  1  0
 10 19  2  0
 11 12  2  0
 11 10  1  0
 12 13  1  0
 13 14  2  0
 14 15  1  0
 15 16  2  0
 17 16  1  0
 18 17  2  0
 19 14  1  0
 19 18  1  0
 20 22  1  0
 21 20  2  0
 22 23  1  0
 24 23  1  0
 24 25  1  0
 25 30  1  0
 26 25  1  0
 26 27  1  0
 27 28  1  0
 29 28  1  0
 30 29  1  0
  1 31  1  0
  3 32  1  0
  7 33  1  6
  8 34  1  0
  8 35  1  0
  9 36  1  1
 11 37  1  0
 12 38  1  0
 13 39  1  0
 15 40  1  0
 16 41  1  0
 17 42  1  0
 18 43  1  0
 23 44  1  0
 23 45  1  0
 24 46  1  0
 24 47  1  0
 26 48  1  0
 26 49  1  0
 27 50  1  0
 27 51  1  0
 29 52  1  0
 29 53  1  0
 30 54  1  0
 30 55  1  0
M  ISO  8  31  14  32  14  33  13  34  13  35  13  36  13  37  14  38  14
M  ISO  8  39  14  40  14  41  14  42  14  43  14  44   8  45   8  46   8
M  ISO  8  47   8  48  13  49  13  50  13  51  13  52  13  53  13  54  13
M  ISO  1  55  13
M  END
>  <minimizedAffinity>  (1) 
-5.68819571

>  <minimizedRMSD>  (1) 
6.56298399

$$$$
