
     RDKit          3D

 52 55  0  0  1  0  0  0  0  0999 V2000
   46.3860   32.6680   37.8150 C   0  0  0  0  0  0  0  0  0  0  0  0
   47.7640   32.8500   38.0710 C   0  0  0  0  0  0  0  0  0  0  0  0
   48.7160   31.8920   37.6600 C   0  0  0  0  0  0  0  0  0  0  0  0
   48.2410   30.7650   36.9940 N   0  0  0  0  0  0  0  0  0  0  0  0
   46.8990   30.6670   36.7880 C   0  0  0  0  0  0  0  0  0  0  0  0
   45.9850   31.5750   37.1760 N   0  0  0  0  0  0  0  0  0  0  0  0
   46.4100   29.4300   36.0810 C   0  0  1  0  0  0  0  0  0  0  0  0
   45.1510   29.4570   35.3380 C   0  0  0  0  0  0  0  0  0  0  0  0
   46.3820   29.5250   34.5410 C   0  0  1  0  0  0  0  0  0  0  0  0
   46.9180   30.7320   34.0060 N   0  0  0  0  0  0  0  0  0  0  0  0
   48.2500   30.6190   33.7240 C   0  0  0  0  0  0  0  0  0  0  0  0
   48.9790   31.6760   33.1930 C   0  0  0  0  0  0  0  0  0  0  0  0
   50.4240   31.5710   32.8800 C   0  0  0  0  0  0  0  0  0  0  0  0
   48.3250   32.8670   32.9490 C   0  0  0  0  0  0  0  0  0  0  0  0
   48.9840   33.8180   32.4700 O   0  0  0  0  0  0  0  0  0  0  0  0
   47.0110   32.9340   33.2430 N   0  0  0  0  0  0  0  0  0  0  0  0
   46.3260   31.9060   33.7540 C   0  0  0  0  0  0  0  0  0  0  0  0
   45.1090   31.9280   34.0390 O   0  0  0  0  0  0  0  0  0  0  0  0
   48.3120   34.0390   38.7780 C   0  0  0  0  0  0  0  0  0  0  0  0
   48.6470   35.1100   38.2830 O   0  0  0  0  0  0  0  0  0  0  0  0
   48.4300   33.8450   40.1590 O   0  0  0  0  0  0  0  0  0  0  0  0
   48.0820   34.8720   41.0820 C   0  0  0  0  0  0  0  0  0  0  0  0
   46.6340   34.6620   41.4860 C   0  0  0  0  0  0  0  0  0  0  0  0
   46.3520   34.9720   42.8540 N   0  0  0  0  0  0  0  0  0  0  0  0
   45.1390   35.7360   42.8860 C   0  0  0  0  0  0  0  0  0  0  0  0
   44.4260   35.7370   44.1760 C   0  0  0  0  0  0  0  0  0  0  0  0
   45.2200   35.1960   45.2160 O   0  0  0  0  0  0  0  0  0  0  0  0
   45.4190   33.8950   44.8410 C   0  0  0  0  0  0  0  0  0  0  0  0
   46.4510   33.8810   43.7540 C   0  0  0  0  0  0  0  0  0  0  0  0
   45.6547   33.4223   38.1410 H   0  0  0  0  0  0  0  0  0  0  0  0
   49.7892   32.0301   37.8578 H   0  0  0  0  0  0  0  0  0  0  0  0
   46.8218   28.7608   36.8508 H   0  0  0  0  0  0  0  0  0  0  0  0
   44.5297   28.5503   35.2954 H   0  0  0  0  0  0  0  0  0  0  0  0
   44.2519   30.0880   35.3962 H   0  0  0  0  0  0  0  0  0  0  0  0
   46.7190   28.9641   33.6568 H   0  0  0  0  0  0  0  0  0  0  0  0
   48.7595   29.6646   33.9229 H   0  0  0  0  0  0  0  0  0  0  0  0
   50.9999   31.5292   33.8163 H   0  0  0  0  0  0  0  0  0  0  0  0
   50.6072   30.6572   32.2957 H   0  0  0  0  0  0  0  0  0  0  0  0
   50.7373   32.4487   32.2957 H   0  0  0  0  0  0  0  0  0  0  0  0
   46.5121   33.8175   33.0658 H   0  0  0  0  0  0  0  0  0  0  0  0
   48.7301   34.8134   41.9688 H   0  0  0  0  0  0  0  0  0  0  0  0
   48.2126   35.8625   40.6217 H   0  0  0  0  0  0  0  0  0  0  0  0
   46.0033   35.3016   40.8511 H   0  0  0  0  0  0  0  0  0  0  0  0
   46.4240   33.5900   41.3569 H   0  0  0  0  0  0  0  0  0  0  0  0
   45.3874   36.7777   42.6348 H   0  0  0  0  0  0  0  0  0  0  0  0
   44.4602   35.2570   42.1650 H   0  0  0  0  0  0  0  0  0  0  0  0
   44.1584   36.7723   44.4341 H   0  0  0  0  0  0  0  0  0  0  0  0
   43.5277   35.1110   44.0707 H   0  0  0  0  0  0  0  0  0  0  0  0
   45.7742   33.3084   45.7011 H   0  0  0  0  0  0  0  0  0  0  0  0
   44.4785   33.4518   44.4818 H   0  0  0  0  0  0  0  0  0  0  0  0
   46.3385   32.9484   43.1816 H   0  0  0  0  0  0  0  0  0  0  0  0
   47.4325   33.9596   44.2444 H   0  0  0  0  0  0  0  0  0  0  0  0
  1  2  2  0
  2 19  1  0
  3  2  1  0
  4  3  2  0
  5  4  1  0
  5  6  2  0
  6  1  1  0
  7  5  1  0
  8  7  1  0
  9  8  1  0
  9  7  1  0
 10  9  1  0
 11 10  1  0
 12 11  2  0
 13 12  1  0
 14 12  1  0
 14 16  1  0
 15 14  2  0
 16 17  1  0
 17 10  1  0
 17 18  2  0
 19 21  1  0
 20 19  2  0
 21 22  1  0
 22 23  1  0
 23 24  1  0
 24 25  1  0
 24 29  1  0
 25 26  1  0
 26 27  1  0
 28 27  1  0
 29 28  1  0
  1 30  1  0
  3 31  1  0
  7 32  1  6
  8 33  1  0
  8 34  1  0
  9 35  1  6
 11 36  1  0
 13 37  1  0
 13 38  1  0
 13 39  1  0
 16 40  1  0
 22 41  1  0
 22 42  1  0
 23 43  1  0
 23 44  1  0
 25 45  1  0
 25 46  1  0
 26 47  1  0
 26 48  1  0
 28 49  1  0
 28 50  1  0
 29 51  1  0
 29 52  1  0
M  ISO  8  30  14  31  14  32  13  33  13  34  13  35  13  36  14  37   8
M  ISO  8  38   8  39   8  40   9  41   8  42   8  43   8  44   8  45  13
M  ISO  7  46  13  47  13  48  13  49  13  50  13  51  13  52  13
M  END
>  <minimizedAffinity>  (1) 
-5.31760931

>  <minimizedRMSD>  (1) 
1.50526369

$$$$
