
     RDKit          3D

 50 54  0  0  1  0  0  0  0  0999 V2000
   46.4820   32.7550   38.8550 C   0  0  0  0  0  0  0  0  0  0  0  0
   47.7890   33.0580   39.2990 C   0  0  0  0  0  0  0  0  0  0  0  0
   48.0040   33.9420   40.3670 C   0  0  0  0  0  0  0  0  0  0  0  0
   46.8910   34.5100   40.9740 N   0  0  0  0  0  0  0  0  0  0  0  0
   45.6550   34.1580   40.4770 C   0  0  0  0  0  0  0  0  0  0  0  0
   45.4410   33.3120   39.4530 N   0  0  0  0  0  0  0  0  0  0  0  0
   44.4770   34.8060   41.1520 C   0  0  1  0  0  0  0  0  0  0  0  0
   43.2030   34.1010   41.2450 C   0  0  0  0  0  0  0  0  0  0  0  0
   44.0300   34.1710   42.4660 C   0  0  1  0  0  0  0  0  0  0  0  0
   44.5880   32.9010   42.8730 N   0  0  0  0  0  0  0  0  0  0  0  0
   44.5220   31.6600   42.3570 C   0  0  0  0  0  0  0  0  0  0  0  0
   45.2240   30.7910   43.1130 N   0  0  0  0  0  0  0  0  0  0  0  0
   45.7570   31.4880   44.1490 C   0  0  0  0  0  0  0  0  0  0  0  0
   46.5500   31.0260   45.1810 C   0  0  0  0  0  0  0  0  0  0  0  0
   46.9340   31.9620   46.0720 N   0  0  0  0  0  0  0  0  0  0  0  0
   46.5600   33.2510   45.9470 C   0  0  0  0  0  0  0  0  0  0  0  0
   45.7860   33.6570   44.9260 N   0  0  0  0  0  0  0  0  0  0  0  0
   45.3540   32.7750   43.9790 C   0  0  0  0  0  0  0  0  0  0  0  0
   49.0160   32.4750   38.6910 C   0  0  0  0  0  0  0  0  0  0  0  0
   49.7990   31.6810   39.2150 O   0  0  0  0  0  0  0  0  0  0  0  0
   49.2300   32.9300   37.3780 O   0  0  0  0  0  0  0  0  0  0  0  0
   49.2160   32.0160   36.2870 C   0  0  0  0  0  0  0  0  0  0  0  0
   48.4550   32.6710   35.1510 C   0  0  0  0  0  0  0  0  0  0  0  0
   49.1470   32.6710   33.8920 N   0  0  0  0  0  0  0  0  0  0  0  0
   49.9270   31.4610   33.8360 C   0  0  0  0  0  0  0  0  0  0  0  0
   50.3280   31.0400   32.4790 C   0  0  0  0  0  0  0  0  0  0  0  0
   50.0800   32.0440   31.5160 O   0  0  0  0  0  0  0  0  0  0  0  0
   48.7180   32.1910   31.5350 C   0  0  0  0  0  0  0  0  0  0  0  0
   48.3550   32.9660   32.7620 C   0  0  0  0  0  0  0  0  0  0  0  0
   46.3306   32.0595   38.0163 H   0  0  0  0  0  0  0  0  0  0  0  0
   49.0213   34.1778   40.7127 H   0  0  0  0  0  0  0  0  0  0  0  0
   44.7649   35.8056   40.7943 H   0  0  0  0  0  0  0  0  0  0  0  0
   42.2630   34.6700   41.1931 H   0  0  0  0  0  0  0  0  0  0  0  0
   42.7466   33.2747   40.6803 H   0  0  0  0  0  0  0  0  0  0  0  0
   43.9430   34.5447   43.4969 H   0  0  0  0  0  0  0  0  0  0  0  0
   43.9710   31.3910   41.4437 H   0  0  0  0  0  0  0  0  0  0  0  0
   46.8469   29.9705   45.2696 H   0  0  0  0  0  0  0  0  0  0  0  0
   46.8947   33.9847   46.6951 H   0  0  0  0  0  0  0  0  0  0  0  0
   50.2457   31.7942   35.9701 H   0  0  0  0  0  0  0  0  0  0  0  0
   48.7352   31.0711   36.5803 H   0  0  0  0  0  0  0  0  0  0  0  0
   47.5038   32.1342   35.0202 H   0  0  0  0  0  0  0  0  0  0  0  0
   48.3187   33.7255   35.4329 H   0  0  0  0  0  0  0  0  0  0  0  0
   50.8403   31.6159   34.4292 H   0  0  0  0  0  0  0  0  0  0  0  0
   49.2822   30.6609   34.2284 H   0  0  0  0  0  0  0  0  0  0  0  0
   51.4036   30.8097   32.4824 H   0  0  0  0  0  0  0  0  0  0  0  0
   49.7315   30.1563   32.2084 H   0  0  0  0  0  0  0  0  0  0  0  0
   48.3886   32.7359   30.6380 H   0  0  0  0  0  0  0  0  0  0  0  0
   48.2270   31.2067   31.5449 H   0  0  0  0  0  0  0  0  0  0  0  0
   48.4621   34.0373   32.5367 H   0  0  0  0  0  0  0  0  0  0  0  0
   47.3233   32.6835   33.0186 H   0  0  0  0  0  0  0  0  0  0  0  0
  1  2  2  0
  1  6  1  0
  2  3  1  0
  3  4  2  0
  5  4  1  0
  5  7  1  0
  6  5  2  0
  7  8  1  0
  7  9  1  0
  8  9  1  0
  9 10  1  0
 10 18  1  0
 11 10  1  0
 11 12  2  0
 12 13  1  0
 13 14  2  0
 14 15  1  0
 16 15  2  0
 17 16  1  0
 18 13  1  0
 18 17  2  0
 19 20  2  0
 19  2  1  0
 21 19  1  0
 22 21  1  0
 23 22  1  0
 24 23  1  0
 25 24  1  0
 26 25  1  0
 27 28  1  0
 27 26  1  0
 28 29  1  0
 29 24  1  0
  1 30  1  0
  3 31  1  0
  7 32  1  1
  8 33  1  0
  8 34  1  0
  9 35  1  1
 11 36  1  0
 14 37  1  0
 16 38  1  0
 22 39  1  0
 22 40  1  0
 23 41  1  0
 23 42  1  0
 25 43  1  0
 25 44  1  0
 26 45  1  0
 26 46  1  0
 28 47  1  0
 28 48  1  0
 29 49  1  0
 29 50  1  0
M  ISO  8  30  14  31  14  32  13  33  13  34  13  35  13  36  14  37  14
M  ISO  8  38  14  39   8  40   8  41   8  42   8  43  13  44  13  45  13
M  ISO  5  46  13  47  13  48  13  49  13  50  13
M  END
>  <minimizedAffinity>  (1) 
-4.98392105

>  <minimizedRMSD>  (1) 
9.06794548

$$$$
