
     RDKit          3D

 46 49  0  0  1  0  0  0  0  0999 V2000
   48.1280   33.9580   38.4620 C   0  0  0  0  0  0  0  0  0  0  0  0
   48.6880   35.0310   38.2390 O   0  0  0  0  0  0  0  0  0  0  0  0
   46.4600   33.0890   36.7280 C   0  0  0  0  0  0  0  0  0  0  0  0
   47.6620   32.9630   37.4600 C   0  0  0  0  0  0  0  0  0  0  0  0
   48.5190   31.8570   37.2750 C   0  0  0  0  0  0  0  0  0  0  0  0
   48.1390   30.8930   36.3430 N   0  0  0  0  0  0  0  0  0  0  0  0
   46.9510   31.1000   35.6760 C   0  0  0  0  0  0  0  0  0  0  0  0
   46.1330   32.1520   35.8520 N   0  0  0  0  0  0  0  0  0  0  0  0
   46.5770   30.0300   34.6920 C   0  0  1  0  0  0  0  0  0  0  0  0
   45.8560   30.3730   33.4710 C   0  0  0  0  0  0  0  0  0  0  0  0
   47.3060   30.1220   33.3300 C   0  0  1  0  0  0  0  0  0  0  0  0
   48.1130   31.3020   33.0810 N   0  0  0  0  0  0  0  0  0  0  0  0
   49.4360   31.1730   33.1430 N   0  0  0  0  0  0  0  0  0  0  0  0
   50.0300   32.3330   32.8930 C   0  0  0  0  0  0  0  0  0  0  0  0
   49.0240   33.2410   32.6620 C   0  0  0  0  0  0  0  0  0  0  0  0
   47.8040   32.5770   32.7830 C   0  0  0  0  0  0  0  0  0  0  0  0
   47.8700   33.5650   39.7760 O   0  0  0  0  0  0  0  0  0  0  0  0
   47.8020   34.5060   40.8340 C   0  0  0  0  0  0  0  0  0  0  0  0
   46.3720   34.5380   41.3260 C   0  0  0  0  0  0  0  0  0  0  0  0
   46.2210   34.8540   42.7150 N   0  0  0  0  0  0  0  0  0  0  0  0
   45.0610   35.7010   42.8370 C   0  0  0  0  0  0  0  0  0  0  0  0
   44.4530   35.7400   44.1800 C   0  0  0  0  0  0  0  0  0  0  0  0
   45.2890   35.1510   45.1540 O   0  0  0  0  0  0  0  0  0  0  0  0
   45.3800   33.8430   44.7680 C   0  0  0  0  0  0  0  0  0  0  0  0
   46.3120   33.7620   43.5960 C   0  0  0  0  0  0  0  0  0  0  0  0
   45.8026   33.9570   36.8845 H   0  0  0  0  0  0  0  0  0  0  0  0
   49.4539   31.7593   37.8463 H   0  0  0  0  0  0  0  0  0  0  0  0
   46.4091   29.2816   35.4805 H   0  0  0  0  0  0  0  0  0  0  0  0
   45.1399   29.6538   33.0468 H   0  0  0  0  0  0  0  0  0  0  0  0
   45.2029   31.2120   33.1889 H   0  0  0  0  0  0  0  0  0  0  0  0
   47.9555   29.4524   32.7471 H   0  0  0  0  0  0  0  0  0  0  0  0
   51.1122   32.5290   32.8743 H   0  0  0  0  0  0  0  0  0  0  0  0
   49.1582   34.3063   32.4232 H   0  0  0  0  0  0  0  0  0  0  0  0
   46.7986   33.0061   32.6604 H   0  0  0  0  0  0  0  0  0  0  0  0
   48.4730   34.2014   41.6507 H   0  0  0  0  0  0  0  0  0  0  0  0
   48.1133   35.5020   40.4859 H   0  0  0  0  0  0  0  0  0  0  0  0
   45.8261   35.2936   40.7420 H   0  0  0  0  0  0  0  0  0  0  0  0
   45.9771   33.5196   41.1957 H   0  0  0  0  0  0  0  0  0  0  0  0
   45.3573   36.7254   42.5672 H   0  0  0  0  0  0  0  0  0  0  0  0
   44.2989   35.2747   42.1681 H   0  0  0  0  0  0  0  0  0  0  0  0
   44.2688   36.7886   44.4566 H   0  0  0  0  0  0  0  0  0  0  0  0
   43.5140   35.1680   44.1458 H   0  0  0  0  0  0  0  0  0  0  0  0
   45.7722   33.2367   45.5978 H   0  0  0  0  0  0  0  0  0  0  0  0
   44.3871   33.4598   44.4900 H   0  0  0  0  0  0  0  0  0  0  0  0
   46.0821   32.8446   43.0343 H   0  0  0  0  0  0  0  0  0  0  0  0
   47.3343   33.7658   44.0022 H   0  0  0  0  0  0  0  0  0  0  0  0
  1 17  1  0
  2  1  2  0
  3  4  2  0
  4  1  1  0
  5  4  1  0
  6  5  2  0
  7  8  2  0
  7  6  1  0
  8  3  1  0
  9  7  1  0
 10  9  1  0
 11 10  1  0
 11  9  1  0
 12 13  1  0
 12 11  1  0
 14 13  2  0
 15 16  2  0
 15 14  1  0
 16 12  1  0
 17 18  1  0
 18 19  1  0
 19 20  1  0
 20 21  1  0
 20 25  1  0
 21 22  1  0
 22 23  1  0
 24 23  1  0
 25 24  1  0
  3 26  1  0
  5 27  1  0
  9 28  1  1
 10 29  1  0
 10 30  1  0
 11 31  1  6
 14 32  1  0
 15 33  1  0
 16 34  1  0
 18 35  1  0
 18 36  1  0
 19 37  1  0
 19 38  1  0
 21 39  1  0
 21 40  1  0
 22 41  1  0
 22 42  1  0
 24 43  1  0
 24 44  1  0
 25 45  1  0
 25 46  1  0
M  ISO  8  26  14  27  14  28  13  29  13  30  13  31  13  32  14  33  14
M  ISO  8  34  14  35   8  36   8  37   8  38   8  39  13  40  13  41  13
M  ISO  5  42  13  43  13  44  13  45  13  46  13
M  END
>  <minimizedAffinity>  (1) 
-4.51636219

>  <minimizedRMSD>  (1) 
1.94470632

$$$$
