
     RDKit          3D

 53 56  0  0  1  0  0  0  0  0999 V2000
   50.0340   32.6510   41.4750 C   0  0  0  0  0  0  0  0  0  0  0  0
   51.2550   32.6860   41.6750 O   0  0  0  0  0  0  0  0  0  0  0  0
   48.0120   31.3680   40.6070 C   0  0  0  0  0  0  0  0  0  0  0  0
   49.3150   31.8620   40.4370 C   0  0  0  0  0  0  0  0  0  0  0  0
   50.0030   31.6390   39.2490 C   0  0  0  0  0  0  0  0  0  0  0  0
   49.3560   30.9240   38.2660 N   0  0  0  0  0  0  0  0  0  0  0  0
   48.0770   30.4770   38.5120 C   0  0  0  0  0  0  0  0  0  0  0  0
   47.4040   30.6870   39.6580 N   0  0  0  0  0  0  0  0  0  0  0  0
   47.3780   29.7140   37.4290 C   0  0  1  0  0  0  0  0  0  0  0  0
   45.9520   29.9230   37.1820 C   0  0  0  0  0  0  0  0  0  0  0  0
   46.9390   30.4300   36.2080 C   0  0  1  0  0  0  0  0  0  0  0  0
   46.9200   31.7730   35.8940 N   0  0  0  0  0  0  0  0  0  0  0  0
   47.8470   32.4220   35.0730 C   0  0  0  0  0  0  0  0  0  0  0  0
   47.6050   32.1800   33.5970 C   0  0  0  0  0  0  0  0  0  0  0  0
   46.5470   31.2530   33.3440 N   0  0  0  0  0  0  0  0  0  0  0  0
   45.3720   31.5390   34.0950 C   0  0  0  0  0  0  0  0  0  0  0  0
   45.6170   32.2210   35.4240 C   0  0  0  0  0  0  0  0  0  0  0  0
   49.1590   33.4120   42.2680 O   0  0  0  0  0  0  0  0  0  0  0  0
   48.7360   34.7050   41.8580 C   0  0  0  0  0  0  0  0  0  0  0  0
   47.2170   34.7190   41.8810 C   0  0  0  0  0  0  0  0  0  0  0  0
   46.6480   34.9800   43.1730 N   0  0  0  0  0  0  0  0  0  0  0  0
   45.4490   35.7620   42.9570 C   0  0  0  0  0  0  0  0  0  0  0  0
   44.4750   35.7250   44.0650 C   0  0  0  0  0  0  0  0  0  0  0  0
   45.0350   35.1730   45.2270 O   0  0  0  0  0  0  0  0  0  0  0  0
   45.3110   33.8670   44.8780 C   0  0  0  0  0  0  0  0  0  0  0  0
   46.5320   33.8550   44.0140 C   0  0  0  0  0  0  0  0  0  0  0  0
   47.4865   31.5542   41.5553 H   0  0  0  0  0  0  0  0  0  0  0  0
   51.0245   32.0191   39.1004 H   0  0  0  0  0  0  0  0  0  0  0  0
   48.0025   28.8330   37.6384 H   0  0  0  0  0  0  0  0  0  0  0  0
   45.3102   29.0694   36.9186 H   0  0  0  0  0  0  0  0  0  0  0  0
   45.1250   30.3720   37.7516 H   0  0  0  0  0  0  0  0  0  0  0  0
   47.2602   30.3076   35.1631 H   0  0  0  0  0  0  0  0  0  0  0  0
   47.7878   33.5035   35.2648 H   0  0  0  0  0  0  0  0  0  0  0  0
   48.8401   32.0150   35.3138 H   0  0  0  0  0  0  0  0  0  0  0  0
   47.3501   33.1392   33.1227 H   0  0  0  0  0  0  0  0  0  0  0  0
   48.5263   31.7454   33.1819 H   0  0  0  0  0  0  0  0  0  0  0  0
   46.3131   31.2862   32.3415 H   0  0  0  0  0  0  0  0  0  0  0  0
   44.7291   32.1935   33.4881 H   0  0  0  0  0  0  0  0  0  0  0  0
   44.9091   30.5683   34.3263 H   0  0  0  0  0  0  0  0  0  0  0  0
   45.6164   33.3134   35.2946 H   0  0  0  0  0  0  0  0  0  0  0  0
   44.8284   31.9683   36.1481 H   0  0  0  0  0  0  0  0  0  0  0  0
   49.0978   34.9130   40.8403 H   0  0  0  0  0  0  0  0  0  0  0  0
   49.1401   35.4756   42.5310 H   0  0  0  0  0  0  0  0  0  0  0  0
   46.8692   35.4988   41.1875 H   0  0  0  0  0  0  0  0  0  0  0  0
   46.8883   33.7104   41.5900 H   0  0  0  0  0  0  0  0  0  0  0  0
   45.7476   36.8089   42.7994 H   0  0  0  0  0  0  0  0  0  0  0  0
   44.9435   35.3177   42.0869 H   0  0  0  0  0  0  0  0  0  0  0  0
   44.1419   36.7507   44.2818 H   0  0  0  0  0  0  0  0  0  0  0  0
   43.6283   35.0935   43.7577 H   0  0  0  0  0  0  0  0  0  0  0  0
   45.4920   33.2709   45.7846 H   0  0  0  0  0  0  0  0  0  0  0  0
   44.4591   33.4342   44.3330 H   0  0  0  0  0  0  0  0  0  0  0  0
   46.5018   32.9536   43.3843 H   0  0  0  0  0  0  0  0  0  0  0  0
   47.4006   33.8701   44.6888 H   0  0  0  0  0  0  0  0  0  0  0  0
  1  2  2  0
  1 18  1  0
  4  3  2  0
  4  1  1  0
  5  4  1  0
  6  7  1  0
  6  5  2  0
  7  8  2  0
  8  3  1  0
  9  7  1  0
 10  9  1  0
 11 10  1  0
 11  9  1  0
 12 11  1  0
 13 12  1  0
 14 13  1  0
 15 14  1  0
 15 16  1  0
 16 17  1  0
 17 12  1  0
 19 20  1  0
 19 18  1  0
 20 21  1  0
 21 26  1  0
 22 21  1  0
 22 23  1  0
 23 24  1  0
 25 24  1  0
 26 25  1  0
  3 27  1  0
  5 28  1  0
  9 29  1  6
 10 30  1  0
 10 31  1  0
 11 32  1  6
 13 33  1  0
 13 34  1  0
 14 35  1  0
 14 36  1  0
 15 37  1  0
 16 38  1  0
 16 39  1  0
 17 40  1  0
 17 41  1  0
 19 42  1  0
 19 43  1  0
 20 44  1  0
 20 45  1  0
 22 46  1  0
 22 47  1  0
 23 48  1  0
 23 49  1  0
 25 50  1  0
 25 51  1  0
 26 52  1  0
 26 53  1  0
M  ISO  8  27  14  28  14  29  13  30  13  31  13  32  13  33  13  34  13
M  ISO  8  35  13  36  13  37   5  38  13  39  13  40  13  41  13  42   8
M  ISO  8  43   8  44   8  45   8  46  13  47  13  48  13  49  13  50  13
M  ISO  3  51  13  52  13  53  13
M  END
>  <minimizedAffinity>  (1) 
-4.36479568

>  <minimizedRMSD>  (1) 
3.06847572

$$$$
