
     RDKit          3D

 42 44  0  0  1  0  0  0  0  0999 V2000
   47.8350   33.5220   39.7790 O   0  0  0  0  0  0  0  0  0  0  0  0
   47.7710   34.5040   40.8070 C   0  0  0  0  0  0  0  0  0  0  0  0
   46.3370   34.5450   41.3040 C   0  0  0  0  0  0  0  0  0  0  0  0
   46.1990   34.8520   42.6960 N   0  0  0  0  0  0  0  0  0  0  0  0
   45.0470   35.7110   42.8370 C   0  0  0  0  0  0  0  0  0  0  0  0
   44.4530   35.7420   44.1890 C   0  0  0  0  0  0  0  0  0  0  0  0
   45.3120   35.1470   45.1490 O   0  0  0  0  0  0  0  0  0  0  0  0
   45.3820   33.8370   44.7630 C   0  0  0  0  0  0  0  0  0  0  0  0
   46.2620   33.7430   43.5590 C   0  0  0  0  0  0  0  0  0  0  0  0
   47.9490   33.8800   38.4370 C   0  0  0  0  0  0  0  0  0  0  0  0
   48.5820   34.8850   38.1200 O   0  0  0  0  0  0  0  0  0  0  0  0
   46.0940   33.2880   36.7820 C   0  0  0  0  0  0  0  0  0  0  0  0
   47.2440   32.9380   37.5250 C   0  0  0  0  0  0  0  0  0  0  0  0
   47.8010   31.6440   37.4410 C   0  0  0  0  0  0  0  0  0  0  0  0
   47.1770   30.7280   36.5980 N   0  0  0  0  0  0  0  0  0  0  0  0
   46.0740   31.1480   35.9170 C   0  0  0  0  0  0  0  0  0  0  0  0
   45.5370   32.3790   35.9930 N   0  0  0  0  0  0  0  0  0  0  0  0
   45.4000   30.1400   35.0260 C   0  0  1  0  0  0  0  0  0  0  0  0
   44.6270   30.5800   33.8670 C   0  0  0  0  0  0  0  0  0  0  0  0
   45.9730   30.0390   33.6020 C   0  0  1  0  0  0  0  0  0  0  0  0
   47.1740   30.9010   33.3250 C   0  0  0  0  0  0  0  0  0  0  0  0
   47.0580   32.1960   33.7170 F   0  0  0  0  0  0  0  0  0  0  0  0
   47.5630   30.7720   32.0130 F   0  0  0  0  0  0  0  0  0  0  0  0
   48.2220   30.3600   34.0820 F   0  0  0  0  0  0  0  0  0  0  0  0
   48.4472   34.2312   41.6307 H   0  0  0  0  0  0  0  0  0  0  0  0
   48.0788   35.4884   40.4247 H   0  0  0  0  0  0  0  0  0  0  0  0
   45.7957   35.3101   40.7282 H   0  0  0  0  0  0  0  0  0  0  0  0
   45.9289   33.5330   41.1651 H   0  0  0  0  0  0  0  0  0  0  0  0
   45.3508   36.7350   42.5742 H   0  0  0  0  0  0  0  0  0  0  0  0
   44.2739   35.3002   42.1710 H   0  0  0  0  0  0  0  0  0  0  0  0
   44.2686   36.7882   44.4743 H   0  0  0  0  0  0  0  0  0  0  0  0
   43.5134   35.1705   44.1660 H   0  0  0  0  0  0  0  0  0  0  0  0
   45.8040   33.2319   45.5790 H   0  0  0  0  0  0  0  0  0  0  0  0
   44.3763   33.4604   44.5247 H   0  0  0  0  0  0  0  0  0  0  0  0
   45.9688   32.8487   42.9895 H   0  0  0  0  0  0  0  0  0  0  0  0
   47.2956   33.6990   43.9328 H   0  0  0  0  0  0  0  0  0  0  0  0
   45.6673   34.2991   36.8569 H   0  0  0  0  0  0  0  0  0  0  0  0
   48.6950   31.3692   38.0200 H   0  0  0  0  0  0  0  0  0  0  0  0
   45.1827   29.4646   35.8666 H   0  0  0  0  0  0  0  0  0  0  0  0
   43.7421   30.0048   33.5569 H   0  0  0  0  0  0  0  0  0  0  0  0
   44.1229   31.5218   33.6047 H   0  0  0  0  0  0  0  0  0  0  0  0
   46.3427   29.2751   32.9022 H   0  0  0  0  0  0  0  0  0  0  0  0
  1  2  1  0
  2  3  1  0
  3  4  1  0
  4  5  1  0
  4  9  1  0
  5  6  1  0
  6  7  1  0
  8  7  1  0
  9  8  1  0
 10  1  1  0
 11 10  2  0
 12 13  2  0
 13 10  1  0
 14 13  1  0
 15 14  2  0
 16 17  2  0
 16 15  1  0
 17 12  1  0
 18 16  1  0
 19 18  1  0
 20 19  1  0
 20 18  1  0
 21 20  1  0
 21 22  1  0
 21 24  1  0
 23 21  1  0
  2 25  1  0
  2 26  1  0
  3 27  1  0
  3 28  1  0
  5 29  1  0
  5 30  1  0
  6 31  1  0
  6 32  1  0
  8 33  1  0
  8 34  1  0
  9 35  1  0
  9 36  1  0
 12 37  1  0
 14 38  1  0
 18 39  1  1
 19 40  1  0
 19 41  1  0
 20 42  1  6
M  ISO  8  25   8  26   8  27   8  28   8  29  13  30  13  31  13  32  13
M  ISO  8  33  13  34  13  35  13  36  13  37  14  38  14  39  13  40  13
M  ISO  2  41  13  42  13
M  END
>  <minimizedAffinity>  (1) 
-4.2446022

>  <minimizedRMSD>  (1) 
1.15725172

$$$$
