
     RDKit          3D

 55 58  0  0  1  0  0  0  0  0999 V2000
   47.9740   34.0170   42.8620 C   0  0  0  0  0  0  0  0  0  0  0  0
   48.8900   34.8380   42.7350 O   0  0  0  0  0  0  0  0  0  0  0  0
   46.3330   34.1950   40.9050 C   0  0  0  0  0  0  0  0  0  0  0  0
   47.1410   33.4250   41.7730 C   0  0  0  0  0  0  0  0  0  0  0  0
   47.2200   32.0350   41.6490 C   0  0  0  0  0  0  0  0  0  0  0  0
   46.4780   31.4450   40.6450 N   0  0  0  0  0  0  0  0  0  0  0  0
   45.7160   32.2660   39.8390 C   0  0  0  0  0  0  0  0  0  0  0  0
   45.6350   33.6030   39.9540 N   0  0  0  0  0  0  0  0  0  0  0  0
   44.9280   31.5890   38.7540 C   0  0  1  0  0  0  0  0  0  0  0  0
   44.5380   32.3310   37.5580 C   0  0  0  0  0  0  0  0  0  0  0  0
   45.6190   31.3400   37.4380 C   0  0  1  0  0  0  0  0  0  0  0  0
   47.0250   31.6250   37.1360 C   0  0  0  0  0  0  0  0  0  0  0  0
   47.9400   30.4680   36.8790 C   0  0  0  0  0  0  0  0  0  0  0  0
   49.3570   30.9470   37.2290 C   0  0  0  0  0  0  0  0  0  0  0  0
   49.4770   32.4370   37.2930 C   0  0  0  0  0  0  0  0  0  0  0  0
   48.6700   33.2000   36.3000 C   0  0  0  0  0  0  0  0  0  0  0  0
   47.2840   32.6410   36.0510 C   0  0  0  0  0  0  0  0  0  0  0  0
   47.6100   33.5360   44.1310 O   0  0  0  0  0  0  0  0  0  0  0  0
   46.3260   33.8410   44.6700 C   0  0  0  0  0  0  0  0  0  0  0  0
   45.8390   32.6130   45.4120 C   0  0  0  0  0  0  0  0  0  0  0  0
   46.4590   32.3890   46.6840 N   0  0  0  0  0  0  0  0  0  0  0  0
   45.4580   32.6030   47.6960 C   0  0  0  0  0  0  0  0  0  0  0  0
   45.7530   31.9850   49.0030 C   0  0  0  0  0  0  0  0  0  0  0  0
   47.0680   31.5120   49.0810 O   0  0  0  0  0  0  0  0  0  0  0  0
   47.1410   30.5320   48.1170 C   0  0  0  0  0  0  0  0  0  0  0  0
   47.2040   31.1950   46.7770 C   0  0  0  0  0  0  0  0  0  0  0  0
   46.2861   35.2877   41.0223 H   0  0  0  0  0  0  0  0  0  0  0  0
   47.8480   31.4352   42.3241 H   0  0  0  0  0  0  0  0  0  0  0  0
   44.3822   30.9842   39.4932 H   0  0  0  0  0  0  0  0  0  0  0  0
   43.5632   32.1335   37.0881 H   0  0  0  0  0  0  0  0  0  0  0  0
   44.4473   33.3999   37.3145 H   0  0  0  0  0  0  0  0  0  0  0  0
   45.8175   30.4639   36.8031 H   0  0  0  0  0  0  0  0  0  0  0  0
   47.2783   32.0470   38.1197 H   0  0  0  0  0  0  0  0  0  0  0  0
   47.6600   29.6139   37.5131 H   0  0  0  0  0  0  0  0  0  0  0  0
   47.8790   30.1374   35.8316 H   0  0  0  0  0  0  0  0  0  0  0  0
   49.6342   30.5316   38.2091 H   0  0  0  0  0  0  0  0  0  0  0  0
   50.0264   30.5995   36.4283 H   0  0  0  0  0  0  0  0  0  0  0  0
   49.1645   32.7570   38.2979 H   0  0  0  0  0  0  0  0  0  0  0  0
   50.5277   32.6605   37.0561 H   0  0  0  0  0  0  0  0  0  0  0  0
   48.5632   34.2322   36.6650 H   0  0  0  0  0  0  0  0  0  0  0  0
   49.2092   33.1344   35.3435 H   0  0  0  0  0  0  0  0  0  0  0  0
   46.5361   33.4462   36.0993 H   0  0  0  0  0  0  0  0  0  0  0  0
   47.2160   32.1813   35.0540 H   0  0  0  0  0  0  0  0  0  0  0  0
   46.4021   34.6923   45.3624 H   0  0  0  0  0  0  0  0  0  0  0  0
   45.6240   34.1122   43.8677 H   0  0  0  0  0  0  0  0  0  0  0  0
   44.7562   32.7192   45.5741 H   0  0  0  0  0  0  0  0  0  0  0  0
   46.1038   31.7493   44.7844 H   0  0  0  0  0  0  0  0  0  0  0  0
   45.3514   33.6873   47.8471 H   0  0  0  0  0  0  0  0  0  0  0  0
   44.5398   32.1220   47.3279 H   0  0  0  0  0  0  0  0  0  0  0  0
   45.5995   32.7357   49.7922 H   0  0  0  0  0  0  0  0  0  0  0  0
   45.0778   31.1259   49.1297 H   0  0  0  0  0  0  0  0  0  0  0  0
   48.0435   29.9229   48.2734 H   0  0  0  0  0  0  0  0  0  0  0  0
   46.2591   29.8771   48.1748 H   0  0  0  0  0  0  0  0  0  0  0  0
   46.8196   30.4898   46.0254 H   0  0  0  0  0  0  0  0  0  0  0  0
   48.2566   31.4669   46.6096 H   0  0  0  0  0  0  0  0  0  0  0  0
  1 18  1  0
  2  1  2  0
  3  4  2  0
  4  1  1  0
  5  4  1  0
  6  5  2  0
  7  8  2  0
  7  6  1  0
  8  3  1  0
  9  7  1  0
 10  9  1  0
 11 10  1  0
 11  9  1  0
 12 11  1  0
 13 12  1  0
 13 14  1  0
 14 15  1  0
 16 15  1  0
 17 16  1  0
 17 12  1  0
 18 19  1  0
 19 20  1  0
 20 21  1  0
 21 26  1  0
 21 22  1  0
 22 23  1  0
 23 24  1  0
 25 24  1  0
 26 25  1  0
  3 27  1  0
  5 28  1  0
  9 29  1  1
 10 30  1  0
 10 31  1  0
 11 32  1  6
 12 33  1  0
 13 34  1  0
 13 35  1  0
 14 36  1  0
 14 37  1  0
 15 38  1  0
 15 39  1  0
 16 40  1  0
 16 41  1  0
 17 42  1  0
 17 43  1  0
 19 44  1  0
 19 45  1  0
 20 46  1  0
 20 47  1  0
 22 48  1  0
 22 49  1  0
 23 50  1  0
 23 51  1  0
 25 52  1  0
 25 53  1  0
 26 54  1  0
 26 55  1  0
M  ISO  8  27  14  28  14  29  13  30  13  31  13  32  13  33  13  34  13
M  ISO  8  35  13  36  13  37  13  38  13  39  13  40  13  41  13  42  13
M  ISO  8  43  13  44   8  45   8  46   8  47   8  48  13  49  13  50  13
M  ISO  5  51  13  52  13  53  13  54  13  55  13
M  END
>  <minimizedAffinity>  (1) 
-4.11335707

>  <minimizedRMSD>  (1) 
4.80644083

$$$$
