
     RDKit          3D

 32 34  0  0  0  0  0  0  0  0999 V2000
   44.4020   36.1050   44.6730 C   0  0  0  0  0  0  0  0  0  0  0  0
   45.0660   36.0430   43.4420 C   0  0  0  0  0  0  0  0  0  0  0  0
   45.9810   35.0140   43.2300 C   0  0  0  0  0  0  0  0  0  0  0  0
   46.1980   34.0990   44.2380 N   0  0  0  0  0  0  0  0  0  0  0  0
   45.5300   34.2060   45.4110 C   0  0  0  0  0  0  0  0  0  0  0  0
   44.6320   35.2100   45.6250 N   0  0  0  0  0  0  0  0  0  0  0  0
   45.8680   33.1800   46.3520 N   0  0  0  0  0  0  0  0  0  0  0  0
   45.1250   33.1680   47.4880 C   0  0  0  0  0  0  0  0  0  0  0  0
   45.4250   32.1910   48.4190 C   0  0  0  0  0  0  0  0  0  0  0  0
   46.4380   31.2790   48.1810 C   0  0  0  0  0  0  0  0  0  0  0  0
   46.7070   30.2860   49.1790 N   0  0  0  0  0  0  0  0  0  0  0  0
   47.1530   31.3240   47.0390 N   0  0  0  0  0  0  0  0  0  0  0  0
   46.8510   32.2880   46.1310 C   0  0  0  0  0  0  0  0  0  0  0  0
   47.5060   32.3510   45.0530 O   0  0  0  0  0  0  0  0  0  0  0  0
   46.7300   34.8280   42.0200 N   0  0  0  0  0  0  0  0  0  0  0  0
   47.9730   35.3430   41.8980 C   0  0  0  0  0  0  0  0  0  0  0  0
   48.6550   35.1310   40.7020 C   0  0  0  0  0  0  0  0  0  0  0  0
   48.0040   34.4010   39.7180 C   0  0  0  0  0  0  0  0  0  0  0  0
   48.6180   34.1360   38.4700 N   0  0  0  0  0  0  0  0  0  0  0  0
   46.7690   33.9080   39.8820 N   0  0  0  0  0  0  0  0  0  0  0  0
   46.0900   34.1100   41.0520 C   0  0  0  0  0  0  0  0  0  0  0  0
   44.9270   33.6560   41.2300 O   0  0  0  0  0  0  0  0  0  0  0  0
   43.6758   36.9111   44.8543 H   0  0  0  0  0  0  0  0  0  0  0  0
   44.8695   36.7905   42.6592 H   0  0  0  0  0  0  0  0  0  0  0  0
   44.3226   33.9006   47.6596 H   0  0  0  0  0  0  0  0  0  0  0  0
   44.8533   32.1382   49.3573 H   0  0  0  0  0  0  0  0  0  0  0  0
   47.4552   29.5943   49.0287 H   0  0  0  0  0  0  0  0  0  0  0  0
   46.1521   30.2641   50.0464 H   0  0  0  0  0  0  0  0  0  0  0  0
   48.4329   35.9129   42.7188 H   0  0  0  0  0  0  0  0  0  0  0  0
   49.6692   35.5266   40.5440 H   0  0  0  0  0  0  0  0  0  0  0  0
   49.5674   34.4864   38.2784 H   0  0  0  0  0  0  0  0  0  0  0  0
   48.1152   33.5929   37.7537 H   0  0  0  0  0  0  0  0  0  0  0  0
  1  6  2  0
  2  1  1  0
  3  2  2  0
  3  4  1  0
  4  5  2  0
  5  6  1  0
  5  7  1  0
  7  8  1  0
  8  9  2  0
 10  9  1  0
 10 11  1  0
 12 10  2  0
 13  7  1  0
 13 12  1  0
 14 13  2  0
 15  3  1  0
 16 15  1  0
 17 16  2  0
 18 20  2  0
 18 17  1  0
 19 18  1  0
 20 21  1  0
 21 22  2  0
 21 15  1  0
  1 23  1  0
  2 24  1  0
  8 25  1  0
  9 26  1  0
 11 27  1  0
 11 28  1  0
 16 29  1  0
 17 30  1  0
 19 31  1  0
 19 32  1  0
M  ISO  6  23  14  24  14  25  14  26  14  29  14  30  14
M  END
>  <minimizedAffinity>  (1) 
-7.4476757

>  <minimizedRMSD>  (1) 
0.235900298

$$$$
