
     RDKit          3D

 34 36  0  0  0  0  0  0  0  0999 V2000
   44.4300   35.9560   44.8890 C   0  0  0  0  0  0  0  0  0  0  0  0
   45.0840   35.9270   43.6500 C   0  0  0  0  0  0  0  0  0  0  0  0
   45.9990   34.9040   43.4000 C   0  0  0  0  0  0  0  0  0  0  0  0
   46.2050   33.9860   44.3840 N   0  0  0  0  0  0  0  0  0  0  0  0
   45.5570   34.0410   45.5690 C   0  0  0  0  0  0  0  0  0  0  0  0
   44.6710   35.0270   45.8180 N   0  0  0  0  0  0  0  0  0  0  0  0
   45.8080   33.0620   46.5550 N   0  0  0  0  0  0  0  0  0  0  0  0
   44.9400   32.8690   47.7030 C   0  0  0  0  0  0  0  0  0  0  0  0
   45.4910   31.6220   48.4050 C   0  0  0  0  0  0  0  0  0  0  0  0
   46.7880   31.8670   48.8160 O   0  0  0  0  0  0  0  0  0  0  0  0
   47.6510   32.2620   47.8280 C   0  0  0  0  0  0  0  0  0  0  0  0
   46.9660   32.1940   46.4580 C   0  0  0  0  0  0  0  0  0  0  0  0
   46.7270   34.7580   42.1950 N   0  0  0  0  0  0  0  0  0  0  0  0
   47.9620   35.3040   42.0570 C   0  0  0  0  0  0  0  0  0  0  0  0
   48.6360   35.1310   40.8500 C   0  0  0  0  0  0  0  0  0  0  0  0
   47.9940   34.4050   39.8640 C   0  0  0  0  0  0  0  0  0  0  0  0
   48.5980   34.1700   38.5950 N   0  0  0  0  0  0  0  0  0  0  0  0
   46.7630   33.8690   40.0220 N   0  0  0  0  0  0  0  0  0  0  0  0
   46.1090   34.0440   41.2090 C   0  0  0  0  0  0  0  0  0  0  0  0
   44.9570   33.5540   41.3870 O   0  0  0  0  0  0  0  0  0  0  0  0
   43.7062   36.7570   45.1000 H   0  0  0  0  0  0  0  0  0  0  0  0
   44.8800   36.6954   42.8898 H   0  0  0  0  0  0  0  0  0  0  0  0
   44.9827   33.7411   48.3721 H   0  0  0  0  0  0  0  0  0  0  0  0
   43.8860   32.7499   47.4115 H   0  0  0  0  0  0  0  0  0  0  0  0
   44.8665   31.3859   49.2792 H   0  0  0  0  0  0  0  0  0  0  0  0
   45.4788   30.7704   47.7088 H   0  0  0  0  0  0  0  0  0  0  0  0
   47.9731   33.2960   48.0208 H   0  0  0  0  0  0  0  0  0  0  0  0
   48.5206   31.5883   47.8248 H   0  0  0  0  0  0  0  0  0  0  0  0
   46.6548   31.1627   46.2355 H   0  0  0  0  0  0  0  0  0  0  0  0
   47.6426   32.5083   45.6496 H   0  0  0  0  0  0  0  0  0  0  0  0
   48.4208   35.8709   42.8805 H   0  0  0  0  0  0  0  0  0  0  0  0
   49.6381   35.5548   40.6881 H   0  0  0  0  0  0  0  0  0  0  0  0
   49.5361   34.5447   38.3938 H   0  0  0  0  0  0  0  0  0  0  0  0
   48.0965   33.6254   37.8789 H   0  0  0  0  0  0  0  0  0  0  0  0
  1  6  2  0
  2  1  1  0
  3  2  2  0
  3  4  1  0
  4  5  2  0
  5  6  1  0
  5  7  1  0
  7  8  1  0
  8  9  1  0
  9 10  1  0
 11 10  1  0
 12  7  1  0
 12 11  1  0
 13  3  1  0
 14 13  1  0
 15 14  2  0
 16 18  2  0
 16 15  1  0
 17 16  1  0
 18 19  1  0
 19 20  2  0
 19 13  1  0
  1 21  1  0
  2 22  1  0
  8 23  1  0
  8 24  1  0
  9 25  1  0
  9 26  1  0
 11 27  1  0
 11 28  1  0
 12 29  1  0
 12 30  1  0
 14 31  1  0
 15 32  1  0
 17 33  1  0
 17 34  1  0
M  ISO  8  21  14  22  14  23  13  24  13  25  13  26  13  27  13  28  13
M  ISO  4  29  13  30  13  31  14  32  14
M  END
>  <minimizedAffinity>  (1) 
-6.70249176

>  <minimizedRMSD>  (1) 
0.173795968

$$$$
