
     RDKit          3D

 31 34  0  0  1  0  0  0  0  0999 V2000
   46.9090   34.4890   41.8790 C   0  0  1  0  0  0  0  0  0  0  0  0
   48.1540   35.3550   41.7160 C   0  0  0  0  0  0  0  0  0  0  0  0
   48.2490   33.8860   41.9640 C   0  0  2  0  0  0  0  0  0  0  0  0
   48.6720   32.9310   40.9320 C   0  0  0  0  0  0  0  0  0  0  0  0
   49.0310   31.7400   41.4940 N   0  0  0  0  0  0  0  0  0  0  0  0
   49.3950   30.7610   40.6190 C   0  0  0  0  0  0  0  0  0  0  0  0
   49.4290   30.8770   39.2600 N   0  0  0  0  0  0  0  0  0  0  0  0
   49.0740   32.0620   38.7080 C   0  0  0  0  0  0  0  0  0  0  0  0
   49.0780   32.3140   37.3510 C   0  0  0  0  0  0  0  0  0  0  0  0
   48.7100   33.5730   36.8730 C   0  0  0  0  0  0  0  0  0  0  0  0
   48.3350   34.5890   37.7500 C   0  0  0  0  0  0  0  0  0  0  0  0
   48.3420   34.3010   39.1000 C   0  0  0  0  0  0  0  0  0  0  0  0
   48.7040   33.0610   39.5640 C   0  0  0  0  0  0  0  0  0  0  0  0
   44.5820   36.1120   44.3260 C   0  0  0  0  0  0  0  0  0  0  0  0
   45.3150   35.8830   43.1490 C   0  0  0  0  0  0  0  0  0  0  0  0
   46.1360   34.7710   43.1240 C   0  0  0  0  0  0  0  0  0  0  0  0
   46.1930   33.9560   44.2380 N   0  0  0  0  0  0  0  0  0  0  0  0
   45.4700   34.2150   45.3450 C   0  0  0  0  0  0  0  0  0  0  0  0
   44.6760   35.2800   45.3830 N   0  0  0  0  0  0  0  0  0  0  0  0
   46.0122   34.2315   41.2964 H   0  0  0  0  0  0  0  0  0  0  0  0
   48.4163   35.7692   40.7313 H   0  0  0  0  0  0  0  0  0  0  0  0
   48.5507   36.2618   42.1960 H   0  0  0  0  0  0  0  0  0  0  0  0
   48.7990   33.2900   42.7071 H   0  0  0  0  0  0  0  0  0  0  0  0
   49.6875   29.7906   41.0464 H   0  0  0  0  0  0  0  0  0  0  0  0
   49.3713   31.5224   36.6458 H   0  0  0  0  0  0  0  0  0  0  0  0
   48.7161   33.7655   35.7900 H   0  0  0  0  0  0  0  0  0  0  0  0
   48.0443   35.5834   37.3803 H   0  0  0  0  0  0  0  0  0  0  0  0
   48.0515   35.0814   39.8188 H   0  0  0  0  0  0  0  0  0  0  0  0
   43.9185   36.9873   44.3862 H   0  0  0  0  0  0  0  0  0  0  0  0
   45.2388   36.5594   42.2849 H   0  0  0  0  0  0  0  0  0  0  0  0
   45.5368   33.5462   46.2157 H   0  0  0  0  0  0  0  0  0  0  0  0
  1  3  1  0
  1 16  1  0
  2  1  1  0
  2  3  1  0
  4  5  2  0
  4  3  1  0
  6  5  1  0
  7  6  2  0
  8  7  1  0
  8 13  2  0
  9  8  1  0
 10  9  2  0
 10 11  1  0
 11 12  2  0
 12 13  1  0
 13  4  1  0
 14 19  2  0
 15 14  1  0
 16 15  2  0
 16 17  1  0
 17 18  2  0
 18 19  1  0
  1 20  1  6
  2 21  1  0
  2 22  1  0
  3 23  1  1
  6 24  1  0
  9 25  1  0
 10 26  1  0
 11 27  1  0
 12 28  1  0
 14 29  1  0
 15 30  1  0
 18 31  1  0
M  ISO  8  20  13  21  13  22  13  23  13  24  14  25  14  26  14  27  14
M  ISO  4  28  14  29  14  30  14  31  14
M  END
>  <minimizedAffinity>  (1) 
-5.50549746

>  <minimizedRMSD>  (1) 
0.817233026

$$$$
