
     RDKit          3D

 29 31  0  0  0  0  0  0  0  0999 V2000
   44.4380   35.9440   44.7720 C   0  0  0  0  0  0  0  0  0  0  0  0
   45.0890   35.9110   43.5380 C   0  0  0  0  0  0  0  0  0  0  0  0
   46.0350   34.9080   43.2890 C   0  0  0  0  0  0  0  0  0  0  0  0
   46.2810   33.9950   44.2800 N   0  0  0  0  0  0  0  0  0  0  0  0
   45.6220   34.0680   45.4640 C   0  0  0  0  0  0  0  0  0  0  0  0
   44.7120   35.0250   45.7160 N   0  0  0  0  0  0  0  0  0  0  0  0
   46.7590   34.7720   42.0770 N   0  0  0  0  0  0  0  0  0  0  0  0
   47.9930   35.3360   41.9430 C   0  0  0  0  0  0  0  0  0  0  0  0
   48.6530   35.1700   40.7360 C   0  0  0  0  0  0  0  0  0  0  0  0
   48.0330   34.4480   39.7430 C   0  0  0  0  0  0  0  0  0  0  0  0
   48.6470   34.2390   38.4860 N   0  0  0  0  0  0  0  0  0  0  0  0
   46.8040   33.9020   39.9180 N   0  0  0  0  0  0  0  0  0  0  0  0
   46.1390   34.0540   41.0940 C   0  0  0  0  0  0  0  0  0  0  0  0
   45.0040   33.5590   41.2780 O   0  0  0  0  0  0  0  0  0  0  0  0
   45.9260   33.0690   46.4810 C   0  0  0  0  0  0  0  0  0  0  0  0
   46.9650   32.1970   46.3570 C   0  0  0  0  0  0  0  0  0  0  0  0
   47.2990   31.2280   47.2890 C   0  0  0  0  0  0  0  0  0  0  0  0
   46.5260   31.1540   48.4060 N   0  0  0  0  0  0  0  0  0  0  0  0
   45.4940   32.0140   48.5390 C   0  0  0  0  0  0  0  0  0  0  0  0
   45.2020   32.9410   47.6070 N   0  0  0  0  0  0  0  0  0  0  0  0
   43.6940   36.7285   44.9748 H   0  0  0  0  0  0  0  0  0  0  0  0
   44.8619   36.6643   42.7692 H   0  0  0  0  0  0  0  0  0  0  0  0
   48.4499   35.9045   42.7665 H   0  0  0  0  0  0  0  0  0  0  0  0
   49.6502   35.6058   40.5756 H   0  0  0  0  0  0  0  0  0  0  0  0
   49.5807   34.6309   38.2974 H   0  0  0  0  0  0  0  0  0  0  0  0
   48.1604   33.6949   37.7593 H   0  0  0  0  0  0  0  0  0  0  0  0
   47.5842   32.2674   45.4505 H   0  0  0  0  0  0  0  0  0  0  0  0
   48.1505   30.5493   47.1330 H   0  0  0  0  0  0  0  0  0  0  0  0
   44.8686   31.9554   49.4420 H   0  0  0  0  0  0  0  0  0  0  0  0
  1  6  2  0
  2  1  1  0
  3  2  2  0
  3  4  1  0
  4  5  2  0
  5  6  1  0
  5 15  1  0
  7  3  1  0
  8  7  1  0
  9  8  2  0
 10 12  2  0
 10  9  1  0
 11 10  1  0
 12 13  1  0
 13 14  2  0
 13  7  1  0
 15 20  1  0
 16 15  2  0
 16 17  1  0
 17 18  2  0
 18 19  1  0
 20 19  2  0
  1 21  1  0
  2 22  1  0
  8 23  1  0
  9 24  1  0
 11 25  1  0
 11 26  1  0
 16 27  1  0
 17 28  1  0
 19 29  1  0
M  ISO  7  21  14  22  14  23  14  24  14  27  14  28  14  29  14
M  END
>  <minimizedAffinity>  (1) 
-6.57822227

>  <minimizedRMSD>  (1) 
0.394527376

$$$$
