
     RDKit          3D

 27 29  0  0  0  0  0  0  0  0999 V2000
   44.4140   36.0840   44.7080 C   0  0  0  0  0  0  0  0  0  0  0  0
   45.0860   36.0130   43.4910 C   0  0  0  0  0  0  0  0  0  0  0  0
   45.9970   34.9910   43.2600 C   0  0  0  0  0  0  0  0  0  0  0  0
   46.1940   34.0850   44.2640 N   0  0  0  0  0  0  0  0  0  0  0  0
   45.5290   34.1720   45.4410 C   0  0  0  0  0  0  0  0  0  0  0  0
   44.6410   35.1770   45.6520 N   0  0  0  0  0  0  0  0  0  0  0  0
   45.8710   33.1320   46.3630 N   0  0  0  0  0  0  0  0  0  0  0  0
   46.9370   32.3400   46.1490 C   0  0  0  0  0  0  0  0  0  0  0  0
   47.0070   31.4660   47.1680 N   0  0  0  0  0  0  0  0  0  0  0  0
   45.9960   31.7040   48.0190 C   0  0  0  0  0  0  0  0  0  0  0  0
   45.3000   32.7460   47.4960 N   0  0  0  0  0  0  0  0  0  0  0  0
   46.7430   34.8200   42.0500 N   0  0  0  0  0  0  0  0  0  0  0  0
   47.9830   35.3410   41.9340 C   0  0  0  0  0  0  0  0  0  0  0  0
   48.6670   35.1500   40.7440 C   0  0  0  0  0  0  0  0  0  0  0  0
   48.0230   34.4320   39.7490 C   0  0  0  0  0  0  0  0  0  0  0  0
   48.6320   34.1780   38.4930 N   0  0  0  0  0  0  0  0  0  0  0  0
   46.7800   33.9270   39.9040 N   0  0  0  0  0  0  0  0  0  0  0  0
   46.1090   34.1150   41.0760 C   0  0  0  0  0  0  0  0  0  0  0  0
   44.9570   33.6590   41.2450 O   0  0  0  0  0  0  0  0  0  0  0  0
   43.6922   36.8942   44.8889 H   0  0  0  0  0  0  0  0  0  0  0  0
   44.8953   36.7664   42.7125 H   0  0  0  0  0  0  0  0  0  0  0  0
   47.6270   32.3972   45.2943 H   0  0  0  0  0  0  0  0  0  0  0  0
   45.7760   31.1638   48.9516 H   0  0  0  0  0  0  0  0  0  0  0  0
   48.4387   35.9027   42.7628 H   0  0  0  0  0  0  0  0  0  0  0  0
   49.6800   35.5520   40.5953 H   0  0  0  0  0  0  0  0  0  0  0  0
   49.5800   34.5312   38.2995 H   0  0  0  0  0  0  0  0  0  0  0  0
   48.1261   33.6404   37.7747 H   0  0  0  0  0  0  0  0  0  0  0  0
  1  6  2  0
  2  1  1  0
  3  2  2  0
  3  4  1  0
  4  5  2  0
  5  6  1  0
  5  7  1  0
  7 11  1  0
  8  7  1  0
  8  9  2  0
  9 10  1  0
 11 10  2  0
 12  3  1  0
 13 12  1  0
 14 13  2  0
 15 17  2  0
 15 14  1  0
 16 15  1  0
 17 18  1  0
 18 19  2  0
 18 12  1  0
  1 20  1  0
  2 21  1  0
  8 22  1  0
 10 23  1  0
 13 24  1  0
 14 25  1  0
 16 26  1  0
 16 27  1  0
M  ISO  6  20  14  21  14  22  14  23  14  24  14  25  14
M  END
>  <minimizedAffinity>  (1) 
-6.51372766

>  <minimizedRMSD>  (1) 
0.157898366

$$$$
