
     RDKit          3D

 28 31  0  0  1  0  0  0  0  0999 V2000
   47.0240   34.5630   41.7320 C   0  0  1  0  0  0  0  0  0  0  0  0
   48.3440   35.3370   41.6740 C   0  0  0  0  0  0  0  0  0  0  0  0
   48.3040   33.8470   41.7900 C   0  0  2  0  0  0  0  0  0  0  0  0
   48.7760   33.0080   40.7220 N   0  0  0  0  0  0  0  0  0  0  0  0
   49.3790   31.8100   40.7860 C   0  0  0  0  0  0  0  0  0  0  0  0
   49.6740   31.3340   39.5400 N   0  0  0  0  0  0  0  0  0  0  0  0
   49.2460   32.2570   38.6660 C   0  0  0  0  0  0  0  0  0  0  0  0
   49.2250   32.4190   37.3030 C   0  0  0  0  0  0  0  0  0  0  0  0
   48.7020   33.5060   36.6840 N   0  0  0  0  0  0  0  0  0  0  0  0
   48.1740   34.4850   37.4280 C   0  0  0  0  0  0  0  0  0  0  0  0
   48.1740   34.3660   38.7810 N   0  0  0  0  0  0  0  0  0  0  0  0
   48.6940   33.2840   39.4050 C   0  0  0  0  0  0  0  0  0  0  0  0
   44.6210   36.0880   44.1720 C   0  0  0  0  0  0  0  0  0  0  0  0
   45.3900   35.8980   42.9820 C   0  0  0  0  0  0  0  0  0  0  0  0
   46.2350   34.8070   42.9620 C   0  0  0  0  0  0  0  0  0  0  0  0
   46.3050   33.9680   44.0550 N   0  0  0  0  0  0  0  0  0  0  0  0
   45.5530   34.1910   45.1650 C   0  0  0  0  0  0  0  0  0  0  0  0
   44.7210   35.2420   45.2170 N   0  0  0  0  0  0  0  0  0  0  0  0
   46.1266   34.4268   41.1107 H   0  0  0  0  0  0  0  0  0  0  0  0
   48.6683   35.8126   40.7366 H   0  0  0  0  0  0  0  0  0  0  0  0
   48.8015   36.1609   42.2414 H   0  0  0  0  0  0  0  0  0  0  0  0
   48.7258   33.1121   42.4914 H   0  0  0  0  0  0  0  0  0  0  0  0
   49.6065   31.2795   41.7224 H   0  0  0  0  0  0  0  0  0  0  0  0
   49.6564   31.6228   36.6785 H   0  0  0  0  0  0  0  0  0  0  0  0
   47.7444   35.3770   36.9487 H   0  0  0  0  0  0  0  0  0  0  0  0
   43.9324   36.9434   44.2365 H   0  0  0  0  0  0  0  0  0  0  0  0
   45.3123   36.5855   42.1268 H   0  0  0  0  0  0  0  0  0  0  0  0
   45.6269   33.5074   46.0236 H   0  0  0  0  0  0  0  0  0  0  0  0
  1  3  1  0
  1 15  1  0
  2  1  1  0
  2  3  1  0
  4  5  1  0
  4  3  1  0
  6  5  2  0
  7 12  2  0
  7  6  1  0
  8  7  1  0
  9  8  2  0
  9 10  1  0
 10 11  2  0
 11 12  1  0
 12  4  1  0
 13 18  2  0
 14 13  1  0
 15 14  2  0
 15 16  1  0
 16 17  2  0
 17 18  1  0
  1 19  1  6
  2 20  1  0
  2 21  1  0
  3 22  1  1
  5 23  1  0
  8 24  1  0
 10 25  1  0
 13 26  1  0
 14 27  1  0
 17 28  1  0
M  ISO  8  19  13  20  13  21  13  22  13  23  14  24  14  25  14  26  14
M  ISO  2  27  14  28  14
M  END
>  <minimizedAffinity>  (1) 
-5.32133961

>  <minimizedRMSD>  (1) 
0.544711411

$$$$
