
     RDKit          3D

 26 28  0  0  0  0  0  0  0  0999 V2000
   44.4410   35.9450   44.7470 C   0  0  0  0  0  0  0  0  0  0  0  0
   45.0940   35.9260   43.5020 C   0  0  0  0  0  0  0  0  0  0  0  0
   46.0450   34.9290   43.2630 C   0  0  0  0  0  0  0  0  0  0  0  0
   46.2770   34.0350   44.2620 N   0  0  0  0  0  0  0  0  0  0  0  0
   45.6430   34.0650   45.4500 C   0  0  0  0  0  0  0  0  0  0  0  0
   44.7160   35.0400   45.6770 N   0  0  0  0  0  0  0  0  0  0  0  0
   46.7750   34.7930   42.0610 N   0  0  0  0  0  0  0  0  0  0  0  0
   47.9960   35.3510   41.9210 C   0  0  0  0  0  0  0  0  0  0  0  0
   48.6690   35.1850   40.7140 C   0  0  0  0  0  0  0  0  0  0  0  0
   48.0440   34.4590   39.7310 C   0  0  0  0  0  0  0  0  0  0  0  0
   48.6380   34.2240   38.4580 N   0  0  0  0  0  0  0  0  0  0  0  0
   46.8280   33.9140   39.8960 N   0  0  0  0  0  0  0  0  0  0  0  0
   46.1560   34.0700   41.0780 C   0  0  0  0  0  0  0  0  0  0  0  0
   45.0060   33.5660   41.2600 O   0  0  0  0  0  0  0  0  0  0  0  0
   45.9200   33.0860   46.4970 C   0  0  0  0  0  0  0  0  0  0  0  0
   46.8810   32.1560   46.6500 N   0  0  0  0  0  0  0  0  0  0  0  0
   46.7070   31.5100   47.7710 O   0  0  0  0  0  0  0  0  0  0  0  0
   45.6380   32.0020   48.3670 C   0  0  0  0  0  0  0  0  0  0  0  0
   45.1360   32.9820   47.5880 N   0  0  0  0  0  0  0  0  0  0  0  0
   43.6905   36.7223   44.9530 H   0  0  0  0  0  0  0  0  0  0  0  0
   44.8621   36.6782   42.7336 H   0  0  0  0  0  0  0  0  0  0  0  0
   48.4494   35.9245   42.7429 H   0  0  0  0  0  0  0  0  0  0  0  0
   49.6664   35.6202   40.5536 H   0  0  0  0  0  0  0  0  0  0  0  0
   49.5707   34.6063   38.2464 H   0  0  0  0  0  0  0  0  0  0  0  0
   48.1348   33.6717   37.7490 H   0  0  0  0  0  0  0  0  0  0  0  0
   45.2272   31.6705   49.3321 H   0  0  0  0  0  0  0  0  0  0  0  0
  1  6  2  0
  2  1  1  0
  3  2  2  0
  3  4  1  0
  4  5  2  0
  5  6  1  0
  5 15  1  0
  7  3  1  0
  8  7  1  0
  9  8  2  0
 10 12  2  0
 10  9  1  0
 11 10  1  0
 12 13  1  0
 13 14  2  0
 13  7  1  0
 15 16  2  0
 15 19  1  0
 16 17  1  0
 17 18  1  0
 19 18  2  0
  1 20  1  0
  2 21  1  0
  8 22  1  0
  9 23  1  0
 11 24  1  0
 11 25  1  0
 18 26  1  0
M  ISO  5  20  14  21  14  22  14  23  14  26  14
M  END
>  <minimizedAffinity>  (1) 
-6.25621414

>  <minimizedRMSD>  (1) 
0.329615176

$$$$
