
     RDKit          3D

 27 29  0  0  0  0  0  0  0  0999 V2000
   44.4850   35.8300   44.8760 C   0  0  0  0  0  0  0  0  0  0  0  0
   45.1310   35.8440   43.6350 C   0  0  0  0  0  0  0  0  0  0  0  0
   46.0650   34.8690   43.3420 C   0  0  0  0  0  0  0  0  0  0  0  0
   46.3320   33.9070   44.2910 N   0  0  0  0  0  0  0  0  0  0  0  0
   45.6870   33.9260   45.4820 C   0  0  0  0  0  0  0  0  0  0  0  0
   44.7660   34.8850   45.7720 N   0  0  0  0  0  0  0  0  0  0  0  0
   46.7900   34.7750   42.1150 N   0  0  0  0  0  0  0  0  0  0  0  0
   48.0070   35.3390   41.9750 C   0  0  0  0  0  0  0  0  0  0  0  0
   48.6710   35.2180   40.7640 C   0  0  0  0  0  0  0  0  0  0  0  0
   48.0260   34.5120   39.7590 C   0  0  0  0  0  0  0  0  0  0  0  0
   48.6280   34.3360   38.4920 N   0  0  0  0  0  0  0  0  0  0  0  0
   46.8180   33.9660   39.9330 N   0  0  0  0  0  0  0  0  0  0  0  0
   46.1620   34.0800   41.1150 C   0  0  0  0  0  0  0  0  0  0  0  0
   45.0170   33.5660   41.2940 O   0  0  0  0  0  0  0  0  0  0  0  0
   45.9820   32.8860   46.4960 C   0  0  0  0  0  0  0  0  0  0  0  0
   47.0070   31.8310   46.3810 C   0  0  0  0  0  0  0  0  0  0  0  0
   46.8240   30.9590   47.9080 S   0  0  0  0  0  0  0  0  0  0  0  0
   45.4180   32.0940   48.5080 C   0  0  0  0  0  0  0  0  0  0  0  0
   45.1860   33.0340   47.5350 N   0  0  0  0  0  0  0  0  0  0  0  0
   43.7404   36.6041   45.1133 H   0  0  0  0  0  0  0  0  0  0  0  0
   44.8968   36.6260   42.8976 H   0  0  0  0  0  0  0  0  0  0  0  0
   48.4666   35.8876   42.8104 H   0  0  0  0  0  0  0  0  0  0  0  0
   49.6651   35.6621   40.6070 H   0  0  0  0  0  0  0  0  0  0  0  0
   49.5583   34.7359   38.3038 H   0  0  0  0  0  0  0  0  0  0  0  0
   48.1363   33.8078   37.7571 H   0  0  0  0  0  0  0  0  0  0  0  0
   47.7071   31.6365   45.5551 H   0  0  0  0  0  0  0  0  0  0  0  0
   44.8849   32.0110   49.4666 H   0  0  0  0  0  0  0  0  0  0  0  0
  1  6  2  0
  2  1  1  0
  3  2  2  0
  3  4  1  0
  4  5  2  0
  5  6  1  0
  5 15  1  0
  7  3  1  0
  8  7  1  0
  9  8  2  0
 10 12  2  0
 10  9  1  0
 11 10  1  0
 12 13  1  0
 13 14  2  0
 13  7  1  0
 15 19  1  0
 16 15  2  0
 16 17  1  0
 17 18  1  0
 19 18  2  0
  1 20  1  0
  2 21  1  0
  8 22  1  0
  9 23  1  0
 11 24  1  0
 11 25  1  0
 16 26  1  0
 18 27  1  0
M  ISO  6  20  14  21  14  22  14  23  14  26  14  27  14
M  END
>  <minimizedAffinity>  (1) 
-6.24395132

>  <minimizedRMSD>  (1) 
0.23098509

$$$$
