
     RDKit          3D

 33 34  0  0  0  0  0  0  0  0999 V2000
   46.7600   34.6400   42.4020 N   0  0  0  0  0  0  0  0  0  0  0  0
   47.9540   35.2520   42.2600 C   0  0  0  0  0  0  0  0  0  0  0  0
   48.5880   35.1950   41.0200 C   0  0  0  0  0  0  0  0  0  0  0  0
   47.9500   34.5100   40.0110 C   0  0  0  0  0  0  0  0  0  0  0  0
   48.5110   34.3900   38.7060 N   0  0  0  0  0  0  0  0  0  0  0  0
   46.7640   33.9100   40.1790 N   0  0  0  0  0  0  0  0  0  0  0  0
   46.1380   33.9620   41.3890 C   0  0  0  0  0  0  0  0  0  0  0  0
   45.0140   33.4000   41.5680 O   0  0  0  0  0  0  0  0  0  0  0  0
   44.5200   35.5420   45.2590 C   0  0  0  0  0  0  0  0  0  0  0  0
   45.1430   35.6310   44.0050 C   0  0  0  0  0  0  0  0  0  0  0  0
   46.0650   34.6630   43.6390 C   0  0  0  0  0  0  0  0  0  0  0  0
   46.3190   33.6660   44.5300 N   0  0  0  0  0  0  0  0  0  0  0  0
   45.7090   33.6010   45.7310 C   0  0  0  0  0  0  0  0  0  0  0  0
   44.8050   34.5480   46.0910 N   0  0  0  0  0  0  0  0  0  0  0  0
   46.0090   32.4980   46.6810 C   0  0  0  0  0  0  0  0  0  0  0  0
   45.9170   31.1440   46.0110 C   0  0  0  0  0  0  0  0  0  0  0  0
   44.9920   32.4930   47.8290 C   0  0  0  0  0  0  0  0  0  0  0  0
   47.3730   32.6110   47.3130 C   0  0  0  0  0  0  0  0  0  0  0  0
   48.4169   35.7842   43.1041 H   0  0  0  0  0  0  0  0  0  0  0  0
   49.5616   35.6793   40.8541 H   0  0  0  0  0  0  0  0  0  0  0  0
   49.4212   34.8234   38.4949 H   0  0  0  0  0  0  0  0  0  0  0  0
   48.0061   33.8699   37.9742 H   0  0  0  0  0  0  0  0  0  0  0  0
   43.7862   36.3056   45.5563 H   0  0  0  0  0  0  0  0  0  0  0  0
   44.9028   36.4584   43.3211 H   0  0  0  0  0  0  0  0  0  0  0  0
   45.8636   30.3579   46.7786 H   0  0  0  0  0  0  0  0  0  0  0  0
   45.0142   31.1059   45.3837 H   0  0  0  0  0  0  0  0  0  0  0  0
   46.8064   30.9841   45.3837 H   0  0  0  0  0  0  0  0  0  0  0  0
   45.5251   32.4956   48.7912 H   0  0  0  0  0  0  0  0  0  0  0  0
   44.3563   33.3880   47.7596 H   0  0  0  0  0  0  0  0  0  0  0  0
   44.3651   31.5918   47.7596 H   0  0  0  0  0  0  0  0  0  0  0  0
   47.2715   32.6026   48.4083 H   0  0  0  0  0  0  0  0  0  0  0  0
   47.9956   31.7614   46.9959 H   0  0  0  0  0  0  0  0  0  0  0  0
   47.8472   33.5515   46.9959 H   0  0  0  0  0  0  0  0  0  0  0  0
  1 11  1  0
  2  1  1  0
  3  2  2  0
  4  6  2  0
  4  3  1  0
  5  4  1  0
  6  7  1  0
  7  8  2  0
  7  1  1  0
  9 14  2  0
 10  9  1  0
 11 10  2  0
 11 12  1  0
 12 13  2  0
 13 14  1  0
 13 15  1  0
 15 18  1  0
 15 17  1  0
 16 15  1  0
  2 19  1  0
  3 20  1  0
  5 21  1  0
  5 22  1  0
  9 23  1  0
 10 24  1  0
 16 25  1  0
 16 26  1  0
 16 27  1  0
 17 28  1  0
 17 29  1  0
 17 30  1  0
 18 31  1  0
 18 32  1  0
 18 33  1  0
M  ISO  8  19  14  20  14  23  14  24  14  25   8  26   8  27   8  28   8
M  ISO  5  29   8  30   8  31   8  32   8  33   8
M  END
>  <minimizedAffinity>  (1) 
-5.60035372

>  <minimizedRMSD>  (1) 
0.518643856

$$$$
