
     RDKit          3D

 27 29  0  0  1  0  0  0  0  0999 V2000
   46.9780   34.9920   41.6400 C   0  0  1  0  0  0  0  0  0  0  0  0
   48.4280   35.4750   41.7730 C   0  0  0  0  0  0  0  0  0  0  0  0
   48.0860   34.0690   41.3810 C   0  0  2  0  0  0  0  0  0  0  0  0
   44.6190   35.8720   44.4070 C   0  0  0  0  0  0  0  0  0  0  0  0
   45.3000   35.9510   43.1790 C   0  0  0  0  0  0  0  0  0  0  0  0
   46.2420   34.9650   42.9380 C   0  0  0  0  0  0  0  0  0  0  0  0
   46.4530   33.9860   43.8880 N   0  0  0  0  0  0  0  0  0  0  0  0
   45.7650   33.9650   45.0500 C   0  0  0  0  0  0  0  0  0  0  0  0
   44.8530   34.8990   45.3120 N   0  0  0  0  0  0  0  0  0  0  0  0
   48.4430   33.6210   40.0690 N   0  0  0  0  0  0  0  0  0  0  0  0
   48.0110   34.0640   38.8890 C   0  0  0  0  0  0  0  0  0  0  0  0
   48.4690   33.5100   37.7080 C   0  0  0  0  0  0  0  0  0  0  0  0
   49.3920   32.4770   37.7300 C   0  0  0  0  0  0  0  0  0  0  0  0
   49.7800   32.0030   36.6330 O   0  0  0  0  0  0  0  0  0  0  0  0
   49.8140   32.0480   38.9350 N   0  0  0  0  0  0  0  0  0  0  0  0
   49.3520   32.6050   40.0710 C   0  0  0  0  0  0  0  0  0  0  0  0
   49.8380   32.1000   41.1360 O   0  0  0  0  0  0  0  0  0  0  0  0
   46.0776   35.2403   41.0590 H   0  0  0  0  0  0  0  0  0  0  0  0
   48.8524   36.1707   41.0342 H   0  0  0  0  0  0  0  0  0  0  0  0
   49.0338   35.9521   42.5575 H   0  0  0  0  0  0  0  0  0  0  0  0
   48.3096   33.0626   41.7645 H   0  0  0  0  0  0  0  0  0  0  0  0
   43.8630   36.6364   44.6397 H   0  0  0  0  0  0  0  0  0  0  0  0
   45.0960   36.7504   42.4515 H   0  0  0  0  0  0  0  0  0  0  0  0
   45.9595   33.1704   45.7854 H   0  0  0  0  0  0  0  0  0  0  0  0
   47.2782   34.8836   38.8539 H   0  0  0  0  0  0  0  0  0  0  0  0
   48.0984   33.8916   36.7452 H   0  0  0  0  0  0  0  0  0  0  0  0
   50.5006   31.2821   38.9886 H   0  0  0  0  0  0  0  0  0  0  0  0
  1  2  1  0
  1  6  1  0
  3  1  1  0
  3  2  1  0
  4  9  2  0
  5  4  1  0
  6  5  2  0
  6  7  1  0
  7  8  2  0
  8  9  1  0
 10 16  1  0
 10  3  1  0
 11 10  1  0
 12 13  1  0
 12 11  2  0
 13 15  1  0
 14 13  2  0
 15 16  1  0
 16 17  2  0
  1 18  1  6
  2 19  1  0
  2 20  1  0
  3 21  1  1
  4 22  1  0
  5 23  1  0
  8 24  1  0
 11 25  1  0
 12 26  1  0
 15 27  1  0
M  ISO  8  18  13  19  13  20  13  21  13  22  14  23  14  24  14  25  14
M  ISO  2  26  14  27   9
M  END
>  <minimizedAffinity>  (1) 
-5.0678401

>  <minimizedRMSD>  (1) 
0.623809516

$$$$
