
     RDKit          3D

 42 45  0  0  0  0  0  0  0  0999 V2000
   44.6310   34.0540   41.3490 N   0  0  0  0  0  0  0  0  0  0  0  0
   45.7410   33.7440   40.6410 C   0  0  0  0  0  0  0  0  0  0  0  0
   45.6190   33.3500   39.3160 C   0  0  0  0  0  0  0  0  0  0  0  0
   44.3440   33.3040   38.8090 C   0  0  0  0  0  0  0  0  0  0  0  0
   44.0700   32.9160   37.4570 N   0  0  0  0  0  0  0  0  0  0  0  0
   43.2380   33.6150   39.5240 N   0  0  0  0  0  0  0  0  0  0  0  0
   43.3830   34.0020   40.8330 C   0  0  0  0  0  0  0  0  0  0  0  0
   42.3710   34.3030   41.5380 O   0  0  0  0  0  0  0  0  0  0  0  0
   44.6100   36.0320   44.5280 C   0  0  0  0  0  0  0  0  0  0  0  0
   44.4770   35.7320   43.1690 C   0  0  0  0  0  0  0  0  0  0  0  0
   44.7350   34.4570   42.7000 C   0  0  0  0  0  0  0  0  0  0  0  0
   45.1150   33.5490   43.6370 N   0  0  0  0  0  0  0  0  0  0  0  0
   45.2410   33.8370   44.9330 C   0  0  0  0  0  0  0  0  0  0  0  0
   44.9920   35.0690   45.3810 N   0  0  0  0  0  0  0  0  0  0  0  0
   45.6470   32.8450   45.8980 N   0  0  0  0  0  0  0  0  0  0  0  0
   45.6630   32.7420   47.2110 N   0  0  0  0  0  0  0  0  0  0  0  0
   46.1500   31.5740   47.5820 C   0  0  0  0  0  0  0  0  0  0  0  0
   46.4690   30.8760   46.4300 C   0  0  0  0  0  0  0  0  0  0  0  0
   46.1430   31.6990   45.3580 C   0  0  0  0  0  0  0  0  0  0  0  0
   47.0460   33.8050   41.2060 N   0  0  0  0  0  0  0  0  0  0  0  0
   47.5490   35.0690   41.1400 C   0  0  0  0  0  0  0  0  0  0  0  0
   48.8140   35.3640   41.6330 C   0  0  0  0  0  0  0  0  0  0  0  0
   49.5490   34.3190   42.1980 C   0  0  0  0  0  0  0  0  0  0  0  0
   50.8440   34.5890   42.7110 N   0  0  0  0  0  0  0  0  0  0  0  0
   49.0040   33.0880   42.2380 N   0  0  0  0  0  0  0  0  0  0  0  0
   47.7710   32.8360   41.7490 C   0  0  0  0  0  0  0  0  0  0  0  0
   47.2270   31.7230   41.7620 O   0  0  0  0  0  0  0  0  0  0  0  0
   46.7610   32.9940   38.4630 C   0  0  0  0  0  0  0  0  0  0  0  0
   47.7940   33.8970   38.6010 F   0  0  0  0  0  0  0  0  0  0  0  0
   46.3200   32.9590   37.1430 F   0  0  0  0  0  0  0  0  0  0  0  0
   47.1420   31.6960   38.7600 F   0  0  0  0  0  0  0  0  0  0  0  0
   43.0990   32.8941   37.1142 H   0  0  0  0  0  0  0  0  0  0  0  0
   44.8441   32.6590   36.8280 H   0  0  0  0  0  0  0  0  0  0  0  0
   44.4034   37.0483   44.8948 H   0  0  0  0  0  0  0  0  0  0  0  0
   44.1640   36.5179   42.4659 H   0  0  0  0  0  0  0  0  0  0  0  0
   46.2789   31.2200   48.6155 H   0  0  0  0  0  0  0  0  0  0  0  0
   46.8979   29.8647   46.3736 H   0  0  0  0  0  0  0  0  0  0  0  0
   46.2621   31.4698   44.2888 H   0  0  0  0  0  0  0  0  0  0  0  0
   46.9439   35.8693   40.6890 H   0  0  0  0  0  0  0  0  0  0  0  0
   49.2222   36.3841   41.5803 H   0  0  0  0  0  0  0  0  0  0  0  0
   51.4000   33.8305   43.1311 H   0  0  0  0  0  0  0  0  0  0  0  0
   51.2281   35.5435   42.6633 H   0  0  0  0  0  0  0  0  0  0  0  0
  1 11  1  0
  2 20  1  0
  2  1  1  0
  3  2  2  0
  4  3  1  0
  4  6  2  0
  5  4  1  0
  6  7  1  0
  7  1  1  0
  7  8  2  0
  9 14  2  0
 10  9  1  0
 11 10  2  0
 11 12  1  0
 12 13  2  0
 13 14  1  0
 13 15  1  0
 15 16  1  0
 16 17  2  0
 18 17  1  0
 19 15  1  0
 19 18  2  0
 20 26  1  0
 21 20  1  0
 21 22  2  0
 22 23  1  0
 23 25  2  0
 23 24  1  0
 26 27  2  0
 26 25  1  0
 28 29  1  0
 28 31  1  0
 28  3  1  0
 30 28  1  0
  5 32  1  0
  5 33  1  0
  9 34  1  0
 10 35  1  0
 17 36  1  0
 18 37  1  0
 19 38  1  0
 21 39  1  0
 22 40  1  0
 24 41  1  0
 24 42  1  0
M  ISO  7  34  14  35  14  36  14  37  14  38  14  39  14  40  14
M  END
>  <minimizedAffinity>  (1) 
-7.3991642

>  <minimizedRMSD>  (1) 
1.91034722

$$$$
