
     RDKit          3D

 41 44  0  0  0  0  0  0  0  0999 V2000
   45.2220   34.0040   41.1560 N   0  0  0  0  0  0  0  0  0  0  0  0
   46.4220   33.9010   40.5370 C   0  0  0  0  0  0  0  0  0  0  0  0
   46.4910   33.4470   39.2270 C   0  0  0  0  0  0  0  0  0  0  0  0
   45.2870   33.1250   38.6400 C   0  0  0  0  0  0  0  0  0  0  0  0
   45.1890   32.6420   37.2890 N   0  0  0  0  0  0  0  0  0  0  0  0
   44.0820   33.2340   39.2740 N   0  0  0  0  0  0  0  0  0  0  0  0
   44.0500   33.6830   40.5600 C   0  0  0  0  0  0  0  0  0  0  0  0
   42.9570   33.7970   41.1800 O   0  0  0  0  0  0  0  0  0  0  0  0
   44.7560   36.1080   44.2160 C   0  0  0  0  0  0  0  0  0  0  0  0
   44.8090   35.7560   42.8660 C   0  0  0  0  0  0  0  0  0  0  0  0
   45.1390   34.4670   42.4940 C   0  0  0  0  0  0  0  0  0  0  0  0
   45.3980   33.5960   43.4990 N   0  0  0  0  0  0  0  0  0  0  0  0
   45.3500   33.9210   44.7900 C   0  0  0  0  0  0  0  0  0  0  0  0
   45.0280   35.1820   45.1530 N   0  0  0  0  0  0  0  0  0  0  0  0
   45.6260   33.0090   45.8440 N   0  0  0  0  0  0  0  0  0  0  0  0
   45.4980   32.9670   47.1480 N   0  0  0  0  0  0  0  0  0  0  0  0
   45.9580   31.8110   47.6380 C   0  0  0  0  0  0  0  0  0  0  0  0
   46.4160   31.0550   46.5620 C   0  0  0  0  0  0  0  0  0  0  0  0
   46.1890   31.8470   45.4300 C   0  0  0  0  0  0  0  0  0  0  0  0
   47.6550   34.2610   41.2260 C   0  0  0  0  0  0  0  0  0  0  0  0
   48.2160   35.5430   41.2310 C   0  0  0  0  0  0  0  0  0  0  0  0
   49.3880   35.8100   41.9080 C   0  0  0  0  0  0  0  0  0  0  0  0
   50.0410   34.8060   42.6030 C   0  0  0  0  0  0  0  0  0  0  0  0
   49.4910   33.5340   42.6010 C   0  0  0  0  0  0  0  0  0  0  0  0
   48.3240   33.2620   41.9300 C   0  0  0  0  0  0  0  0  0  0  0  0
   47.7370   33.3020   38.4750 C   0  0  0  0  0  0  0  0  0  0  0  0
   48.4000   34.4940   38.3450 F   0  0  0  0  0  0  0  0  0  0  0  0
   47.4310   32.7590   37.2220 F   0  0  0  0  0  0  0  0  0  0  0  0
   48.5080   32.3300   39.1100 F   0  0  0  0  0  0  0  0  0  0  0  0
   44.2677   32.4130   36.8895 H   0  0  0  0  0  0  0  0  0  0  0  0
   46.0401   32.5250   36.7209 H   0  0  0  0  0  0  0  0  0  0  0  0
   44.4938   37.1347   44.5112 H   0  0  0  0  0  0  0  0  0  0  0  0
   44.5870   36.5084   42.0949 H   0  0  0  0  0  0  0  0  0  0  0  0
   45.9720   31.5122   48.6965 H   0  0  0  0  0  0  0  0  0  0  0  0
   46.8613   30.0497   46.5945 H   0  0  0  0  0  0  0  0  0  0  0  0
   46.4252   31.5752   44.3906 H   0  0  0  0  0  0  0  0  0  0  0  0
   47.7125   36.3539   40.6843 H   0  0  0  0  0  0  0  0  0  0  0  0
   49.8065   36.8272   41.8956 H   0  0  0  0  0  0  0  0  0  0  0  0
   50.9756   35.0135   43.1447 H   0  0  0  0  0  0  0  0  0  0  0  0
   49.9993   32.7261   43.1478 H   0  0  0  0  0  0  0  0  0  0  0  0
   47.9121   32.2422   41.9486 H   0  0  0  0  0  0  0  0  0  0  0  0
  1 11  1  0
  2  1  1  0
  2 20  1  0
  3  2  2  0
  4  3  1  0
  4  6  2  0
  5  4  1  0
  6  7  1  0
  7  1  1  0
  7  8  2  0
  9 14  2  0
 10  9  1  0
 11 10  2  0
 11 12  1  0
 12 13  2  0
 13 14  1  0
 13 15  1  0
 15 16  1  0
 16 17  2  0
 18 17  1  0
 19 15  1  0
 19 18  2  0
 20 21  2  0
 20 25  1  0
 21 22  1  0
 22 23  2  0
 24 23  1  0
 25 24  2  0
 26 29  1  0
 26  3  1  0
 27 26  1  0
 28 26  1  0
  5 30  1  0
  5 31  1  0
  9 32  1  0
 10 33  1  0
 17 34  1  0
 18 35  1  0
 19 36  1  0
 21 37  1  0
 22 38  1  0
 23 39  1  0
 24 40  1  0
 25 41  1  0
M  ISO  8  32  14  33  14  34  14  35  14  36  14  37  14  38  14  39  14
M  ISO  2  40  14  41  14
M  END
>  <minimizedAffinity>  (1) 
-7.34724283

>  <minimizedRMSD>  (1) 
1.26091218

$$$$
