
     RDKit          3D

 41 44  0  0  0  0  0  0  0  0999 V2000
   44.7940   33.6240   40.2650 N   0  0  0  0  0  0  0  0  0  0  0  0
   45.7270   33.9980   41.1650 C   0  0  0  0  0  0  0  0  0  0  0  0
   47.0560   34.0680   40.7910 C   0  0  0  0  0  0  0  0  0  0  0  0
   47.3420   33.7430   39.4920 C   0  0  0  0  0  0  0  0  0  0  0  0
   48.6720   33.7670   38.9510 N   0  0  0  0  0  0  0  0  0  0  0  0
   46.4050   33.3670   38.5890 N   0  0  0  0  0  0  0  0  0  0  0  0
   45.0930   33.3050   38.9840 C   0  0  0  0  0  0  0  0  0  0  0  0
   44.1840   32.9570   38.1660 O   0  0  0  0  0  0  0  0  0  0  0  0
   41.1660   34.3650   40.7930 C   0  0  0  0  0  0  0  0  0  0  0  0
   42.4930   34.5450   40.4030 C   0  0  0  0  0  0  0  0  0  0  0  0
   43.4300   33.5440   40.6200 C   0  0  0  0  0  0  0  0  0  0  0  0
   42.9730   32.4200   41.2170 N   0  0  0  0  0  0  0  0  0  0  0  0
   41.7050   32.2350   41.5930 C   0  0  0  0  0  0  0  0  0  0  0  0
   40.7970   33.2140   41.3800 N   0  0  0  0  0  0  0  0  0  0  0  0
   41.2320   31.0490   42.2220 N   0  0  0  0  0  0  0  0  0  0  0  0
   40.0780   30.5160   42.5310 N   0  0  0  0  0  0  0  0  0  0  0  0
   40.2430   29.3410   43.1540 C   0  0  0  0  0  0  0  0  0  0  0  0
   41.6160   29.1160   43.2460 C   0  0  0  0  0  0  0  0  0  0  0  0
   42.2200   30.2240   42.6420 C   0  0  0  0  0  0  0  0  0  0  0  0
   45.3790   34.3280   42.5070 N   0  0  0  0  0  0  0  0  0  0  0  0
   45.1740   35.6610   42.6960 C   0  0  0  0  0  0  0  0  0  0  0  0
   44.8260   36.1460   43.9570 C   0  0  0  0  0  0  0  0  0  0  0  0
   44.6930   35.2440   45.0090 C   0  0  0  0  0  0  0  0  0  0  0  0
   44.3810   35.6460   46.1590 O   0  0  0  0  0  0  0  0  0  0  0  0
   44.9090   33.9410   44.7560 N   0  0  0  0  0  0  0  0  0  0  0  0
   45.2440   33.4800   43.5440 C   0  0  0  0  0  0  0  0  0  0  0  0
   45.4510   32.2770   43.2760 O   0  0  0  0  0  0  0  0  0  0  0  0
   48.1430   34.4650   41.7000 C   0  0  0  0  0  0  0  0  0  0  0  0
   48.2170   35.8280   41.8380 F   0  0  0  0  0  0  0  0  0  0  0  0
   49.3410   33.9420   41.1960 F   0  0  0  0  0  0  0  0  0  0  0  0
   47.9530   33.8170   42.9110 F   0  0  0  0  0  0  0  0  0  0  0  0
   48.8318   33.5130   37.9657 H   0  0  0  0  0  0  0  0  0  0  0  0
   49.4661   34.0382   39.5483 H   0  0  0  0  0  0  0  0  0  0  0  0
   40.4260   35.1605   40.6211 H   0  0  0  0  0  0  0  0  0  0  0  0
   42.7987   35.4853   39.9209 H   0  0  0  0  0  0  0  0  0  0  0  0
   39.4458   28.6790   43.5231 H   0  0  0  0  0  0  0  0  0  0  0  0
   42.1190   28.2488   43.6987 H   0  0  0  0  0  0  0  0  0  0  0  0
   43.3009   30.3940   42.5289 H   0  0  0  0  0  0  0  0  0  0  0  0
   45.2832   36.3576   41.8517 H   0  0  0  0  0  0  0  0  0  0  0  0
   44.6597   37.2215   44.1171 H   0  0  0  0  0  0  0  0  0  0  0  0
   44.8125   33.2673   45.5291 H   0  0  0  0  0  0  0  0  0  0  0  0
  1 11  1  0
  1  2  1  0
  2 20  1  0
  3  2  2  0
  3 28  1  0
  4  3  1  0
  5  4  1  0
  6  7  1  0
  6  4  2  0
  7  1  1  0
  8  7  2  0
  9 14  2  0
 10 11  2  0
 10  9  1  0
 11 12  1  0
 12 13  2  0
 13 15  1  0
 14 13  1  0
 15 16  1  0
 15 19  1  0
 16 17  2  0
 17 18  1  0
 19 18  2  0
 20 21  1  0
 20 26  1  0
 21 22  2  0
 22 23  1  0
 23 24  2  0
 25 23  1  0
 26 25  1  0
 27 26  2  0
 28 29  1  0
 28 31  1  0
 30 28  1  0
  5 32  1  0
  5 33  1  0
  9 34  1  0
 10 35  1  0
 17 36  1  0
 18 37  1  0
 19 38  1  0
 21 39  1  0
 22 40  1  0
 25 41  1  0
M  ISO  8  34  14  35  14  36  14  37  14  38  14  39  14  40  14  41   9
M  END
>  <minimizedAffinity>  (1) 
-7.30643082

>  <minimizedRMSD>  (1) 
4.53636694

$$$$
