
     RDKit          3D

 39 42  0  0  0  0  0  0  0  0999 V2000
   45.2870   34.0340   41.1890 N   0  0  0  0  0  0  0  0  0  0  0  0
   46.4970   33.9590   40.5960 C   0  0  0  0  0  0  0  0  0  0  0  0
   46.5840   33.5030   39.2850 C   0  0  0  0  0  0  0  0  0  0  0  0
   45.3910   33.1580   38.6850 C   0  0  0  0  0  0  0  0  0  0  0  0
   45.3230   32.6720   37.3360 N   0  0  0  0  0  0  0  0  0  0  0  0
   44.1930   33.2400   39.2940 N   0  0  0  0  0  0  0  0  0  0  0  0
   44.1290   33.6920   40.5880 C   0  0  0  0  0  0  0  0  0  0  0  0
   43.0190   33.7830   41.1970 O   0  0  0  0  0  0  0  0  0  0  0  0
   44.7470   36.1410   44.2450 C   0  0  0  0  0  0  0  0  0  0  0  0
   44.8310   35.7880   42.8940 C   0  0  0  0  0  0  0  0  0  0  0  0
   45.1740   34.4980   42.5320 C   0  0  0  0  0  0  0  0  0  0  0  0
   45.4120   33.6330   43.5420 N   0  0  0  0  0  0  0  0  0  0  0  0
   45.3340   33.9560   44.8360 C   0  0  0  0  0  0  0  0  0  0  0  0
   45.0000   35.2180   45.1880 N   0  0  0  0  0  0  0  0  0  0  0  0
   45.5910   33.0430   45.8950 N   0  0  0  0  0  0  0  0  0  0  0  0
   45.4340   33.0050   47.1960 N   0  0  0  0  0  0  0  0  0  0  0  0
   45.8850   31.8500   47.6990 C   0  0  0  0  0  0  0  0  0  0  0  0
   46.3670   31.0950   46.6280 C   0  0  0  0  0  0  0  0  0  0  0  0
   46.1630   31.8840   45.4920 C   0  0  0  0  0  0  0  0  0  0  0  0
   47.7240   34.3400   41.2850 C   0  0  0  0  0  0  0  0  0  0  0  0
   48.3400   35.5810   41.2700 C   0  0  0  0  0  0  0  0  0  0  0  0
   49.5040   35.7950   41.9740 C   0  0  0  0  0  0  0  0  0  0  0  0
   50.0280   34.7540   42.6800 N   0  0  0  0  0  0  0  0  0  0  0  0
   49.4140   33.5450   42.6850 C   0  0  0  0  0  0  0  0  0  0  0  0
   48.2620   33.3090   41.9970 N   0  0  0  0  0  0  0  0  0  0  0  0
   47.8370   33.3790   38.5420 C   0  0  0  0  0  0  0  0  0  0  0  0
   48.3740   34.6090   38.2460 F   0  0  0  0  0  0  0  0  0  0  0  0
   47.5870   32.6570   37.3780 F   0  0  0  0  0  0  0  0  0  0  0  0
   48.7110   32.5900   39.2850 F   0  0  0  0  0  0  0  0  0  0  0  0
   44.4124   32.4246   36.9230 H   0  0  0  0  0  0  0  0  0  0  0  0
   46.1848   32.5707   36.7811 H   0  0  0  0  0  0  0  0  0  0  0  0
   44.4757   37.1673   44.5333 H   0  0  0  0  0  0  0  0  0  0  0  0
   44.6236   36.5387   42.1172 H   0  0  0  0  0  0  0  0  0  0  0  0
   45.8774   31.5514   48.7577 H   0  0  0  0  0  0  0  0  0  0  0  0
   46.8134   30.0905   46.6693 H   0  0  0  0  0  0  0  0  0  0  0  0
   46.4207   31.6122   44.4577 H   0  0  0  0  0  0  0  0  0  0  0  0
   47.8950   36.4031   40.6902 H   0  0  0  0  0  0  0  0  0  0  0  0
   49.9968   36.7784   41.9666 H   0  0  0  0  0  0  0  0  0  0  0  0
   49.8622   32.7252   43.2655 H   0  0  0  0  0  0  0  0  0  0  0  0
  1 11  1  0
  2  1  1  0
  2 20  1  0
  3  2  2  0
  4  3  1  0
  4  6  2  0
  5  4  1  0
  6  7  1  0
  7  1  1  0
  7  8  2  0
  9 14  2  0
 10  9  1  0
 11 10  2  0
 11 12  1  0
 12 13  2  0
 13 14  1  0
 13 15  1  0
 15 16  1  0
 16 17  2  0
 18 17  1  0
 19 15  1  0
 19 18  2  0
 20 25  1  0
 21 20  2  0
 21 22  1  0
 22 23  2  0
 23 24  1  0
 25 24  2  0
 26 29  1  0
 26  3  1  0
 27 26  1  0
 28 26  1  0
  5 30  1  0
  5 31  1  0
  9 32  1  0
 10 33  1  0
 17 34  1  0
 18 35  1  0
 19 36  1  0
 21 37  1  0
 22 38  1  0
 24 39  1  0
M  ISO  8  32  14  33  14  34  14  35  14  36  14  37  14  38  14  39  14
M  END
>  <minimizedAffinity>  (1) 
-6.94184732

>  <minimizedRMSD>  (1) 
1.18115425

$$$$
