
     RDKit          3D

 30 33  0  0  1  0  0  0  0  0999 V2000
   44.4210   33.2290   41.6490 C   0  0  1  0  0  0  0  0  0  0  0  0
   44.5330   34.1230   40.4120 C   0  0  0  0  0  0  0  0  0  0  0  0
   45.5160   33.0260   40.6890 C   0  0  1  0  0  0  0  0  0  0  0  0
   44.4540   35.8810   44.2970 C   0  0  0  0  0  0  0  0  0  0  0  0
   44.2530   35.2410   43.0500 C   0  0  0  0  0  0  0  0  0  0  0  0
   44.6520   33.9240   42.9360 C   0  0  0  0  0  0  0  0  0  0  0  0
   45.2210   33.2910   44.0220 N   0  0  0  0  0  0  0  0  0  0  0  0
   45.3940   33.9470   45.2000 C   0  0  0  0  0  0  0  0  0  0  0  0
   45.0150   35.2170   45.3260 N   0  0  0  0  0  0  0  0  0  0  0  0
   46.8660   33.4650   40.9890 N   0  0  0  0  0  0  0  0  0  0  0  0
   47.4850   34.6680   40.8120 C   0  0  0  0  0  0  0  0  0  0  0  0
   48.7450   34.6250   41.2340 N   0  0  0  0  0  0  0  0  0  0  0  0
   48.9850   33.3860   41.7000 C   0  0  0  0  0  0  0  0  0  0  0  0
   50.1500   32.8750   42.2390 C   0  0  0  0  0  0  0  0  0  0  0  0
   50.1080   31.5940   42.6270 N   0  0  0  0  0  0  0  0  0  0  0  0
   48.9660   30.8720   42.4830 C   0  0  0  0  0  0  0  0  0  0  0  0
   47.8320   31.3720   41.9600 N   0  0  0  0  0  0  0  0  0  0  0  0
   47.8100   32.6640   41.5470 C   0  0  0  0  0  0  0  0  0  0  0  0
   51.3250   33.6700   42.3700 N   0  0  0  0  0  0  0  0  0  0  0  0
   43.6882   32.5402   42.0945 H   0  0  0  0  0  0  0  0  0  0  0  0
   44.8333   35.1764   40.5135 H   0  0  0  0  0  0  0  0  0  0  0  0
   43.8738   34.3992   39.5758 H   0  0  0  0  0  0  0  0  0  0  0  0
   45.8771   32.1255   40.1707 H   0  0  0  0  0  0  0  0  0  0  0  0
   44.1492   36.9300   44.4266 H   0  0  0  0  0  0  0  0  0  0  0  0
   43.7957   35.7735   42.2030 H   0  0  0  0  0  0  0  0  0  0  0  0
   45.8499   33.4253   46.0544 H   0  0  0  0  0  0  0  0  0  0  0  0
   47.0045   35.5569   40.3772 H   0  0  0  0  0  0  0  0  0  0  0  0
   48.9689   29.8223   42.8117 H   0  0  0  0  0  0  0  0  0  0  0  0
   52.1797   33.2628   42.7756 H   0  0  0  0  0  0  0  0  0  0  0  0
   51.3197   34.6519   42.0591 H   0  0  0  0  0  0  0  0  0  0  0  0
  1  6  1  0
  2  3  1  0
  2  1  1  0
  3 10  1  0
  3  1  1  0
  4  9  2  0
  5  4  1  0
  6  5  2  0
  6  7  1  0
  7  8  2  0
  8  9  1  0
 10 18  1  0
 11 10  1  0
 11 12  2  0
 12 13  1  0
 13 14  2  0
 14 19  1  0
 14 15  1  0
 16 15  2  0
 17 16  1  0
 18 13  1  0
 18 17  2  0
  1 20  1  1
  2 21  1  0
  2 22  1  0
  3 23  1  6
  4 24  1  0
  5 25  1  0
  8 26  1  0
 11 27  1  0
 16 28  1  0
 19 29  1  0
 19 30  1  0
M  ISO  8  20  13  21  13  22  13  23  13  24  14  25  14  26  14  27  14
M  ISO  1  28  14
M  END
>  <minimizedAffinity>  (1) 
-4.78414965

>  <minimizedRMSD>  (1) 
2.82073331

$$$$
