
     RDKit          3D

 34 36  0  0  0  0  0  0  0  0999 V2000
   45.4300   34.1770   41.8690 N   0  0  0  0  0  0  0  0  0  0  0  0
   46.6620   34.2130   41.3370 C   0  0  0  0  0  0  0  0  0  0  0  0
   46.8850   33.8910   40.0130 C   0  0  0  0  0  0  0  0  0  0  0  0
   45.7680   33.5360   39.3030 C   0  0  0  0  0  0  0  0  0  0  0  0
   45.8180   33.1630   37.9110 N   0  0  0  0  0  0  0  0  0  0  0  0
   44.5290   33.4960   39.8340 N   0  0  0  0  0  0  0  0  0  0  0  0
   44.3520   33.8260   41.1530 C   0  0  0  0  0  0  0  0  0  0  0  0
   43.1850   33.7930   41.6680 O   0  0  0  0  0  0  0  0  0  0  0  0
   44.4430   35.9480   45.0180 C   0  0  0  0  0  0  0  0  0  0  0  0
   44.6290   35.7200   43.6510 C   0  0  0  0  0  0  0  0  0  0  0  0
   45.1920   34.5170   43.2270 C   0  0  0  0  0  0  0  0  0  0  0  0
   45.5310   33.6260   44.1840 N   0  0  0  0  0  0  0  0  0  0  0  0
   45.3520   33.8510   45.4930 C   0  0  0  0  0  0  0  0  0  0  0  0
   44.8070   35.0140   45.9080 N   0  0  0  0  0  0  0  0  0  0  0  0
   45.7110   32.9030   46.4910 N   0  0  0  0  0  0  0  0  0  0  0  0
   45.4990   32.7330   47.7820 N   0  0  0  0  0  0  0  0  0  0  0  0
   46.0890   31.6400   48.2270 C   0  0  0  0  0  0  0  0  0  0  0  0
   46.7280   31.0580   47.1470 C   0  0  0  0  0  0  0  0  0  0  0  0
   46.4800   31.8740   46.0450 C   0  0  0  0  0  0  0  0  0  0  0  0
   48.1960   33.9110   39.3740 C   0  0  0  0  0  0  0  0  0  0  0  0
   48.5990   35.1760   39.0530 F   0  0  0  0  0  0  0  0  0  0  0  0
   48.1310   33.1130   38.2220 F   0  0  0  0  0  0  0  0  0  0  0  0
   49.0980   33.2580   40.2050 F   0  0  0  0  0  0  0  0  0  0  0  0
   47.7340   34.5710   42.2280 C   0  0  0  0  0  0  0  0  0  0  0  0
   48.3070   35.6830   42.1110 O   0  0  0  0  0  0  0  0  0  0  0  0
   48.6110   34.4250   43.2390 O   0  0  0  0  0  0  0  0  0  0  0  0
   46.7182   33.1607   37.4105 H   0  0  0  0  0  0  0  0  0  0  0  0
   44.9535   32.8989   37.4172 H   0  0  0  0  0  0  0  0  0  0  0  0
   43.9983   36.8932   45.3628 H   0  0  0  0  0  0  0  0  0  0  0  0
   44.3336   36.4834   42.9162 H   0  0  0  0  0  0  0  0  0  0  0  0
   46.0753   31.2632   49.2604 H   0  0  0  0  0  0  0  0  0  0  0  0
   47.3182   30.1298   47.1563 H   0  0  0  0  0  0  0  0  0  0  0  0
   46.8363   31.7167   45.0163 H   0  0  0  0  0  0  0  0  0  0  0  0
   49.2535   35.1493   43.4454 H   0  0  0  0  0  0  0  0  0  0  0  0
  1 11  1  0
  2  1  1  0
  2 24  1  0
  3  2  2  0
  4  6  2  0
  4  3  1  0
  5  4  1  0
  6  7  1  0
  7  8  2  0
  7  1  1  0
  9 14  2  0
 10  9  1  0
 11 10  2  0
 11 12  1  0
 12 13  2  0
 13 14  1  0
 13 15  1  0
 15 16  1  0
 16 17  2  0
 18 17  1  0
 19 15  1  0
 19 18  2  0
 20  3  1  0
 20 23  1  0
 21 20  1  0
 22 20  1  0
 24 26  1  0
 25 24  2  0
  5 27  1  0
  5 28  1  0
  9 29  1  0
 10 30  1  0
 17 31  1  0
 18 32  1  0
 19 33  1  0
 26 34  1  0
M  ISO  6  29  14  30  14  31  14  32  14  33  14  34   3
M  END
>  <minimizedAffinity>  (1) 
-6.61561108

>  <minimizedRMSD>  (1) 
0.628449976

$$$$
