
     RDKit          3D

 32 34  0  0  0  0  0  0  0  0999 V2000
   44.3440   35.9690   45.0580 C   0  0  0  0  0  0  0  0  0  0  0  0
   44.5780   35.6810   43.7070 C   0  0  0  0  0  0  0  0  0  0  0  0
   45.1870   34.4980   43.3400 C   0  0  0  0  0  0  0  0  0  0  0  0
   45.5290   33.6660   44.3520 N   0  0  0  0  0  0  0  0  0  0  0  0
   45.3090   33.9350   45.6420 C   0  0  0  0  0  0  0  0  0  0  0  0
   44.7180   35.0840   45.9940 N   0  0  0  0  0  0  0  0  0  0  0  0
   45.6880   33.0260   46.6920 N   0  0  0  0  0  0  0  0  0  0  0  0
   45.4490   32.8960   47.9730 N   0  0  0  0  0  0  0  0  0  0  0  0
   46.0650   31.8490   48.4840 C   0  0  0  0  0  0  0  0  0  0  0  0
   46.7570   31.2620   47.4390 C   0  0  0  0  0  0  0  0  0  0  0  0
   46.5090   32.0230   46.2960 C   0  0  0  0  0  0  0  0  0  0  0  0
   45.4670   34.1120   42.0070 N   0  0  0  0  0  0  0  0  0  0  0  0
   46.6600   34.4390   41.4390 C   0  0  0  0  0  0  0  0  0  0  0  0
   46.9120   34.0440   40.1220 C   0  0  0  0  0  0  0  0  0  0  0  0
   45.9200   33.3460   39.4910 C   0  0  0  0  0  0  0  0  0  0  0  0
   46.0470   32.8810   38.1390 N   0  0  0  0  0  0  0  0  0  0  0  0
   44.7390   33.0270   40.0650 N   0  0  0  0  0  0  0  0  0  0  0  0
   44.5040   33.4210   41.3610 C   0  0  0  0  0  0  0  0  0  0  0  0
   43.4110   33.1430   41.9360 O   0  0  0  0  0  0  0  0  0  0  0  0
   48.1620   34.3450   39.4180 C   0  0  0  0  0  0  0  0  0  0  0  0
   48.7400   35.5030   39.8840 F   0  0  0  0  0  0  0  0  0  0  0  0
   47.8820   34.4500   38.0610 F   0  0  0  0  0  0  0  0  0  0  0  0
   49.0060   33.2530   39.5460 F   0  0  0  0  0  0  0  0  0  0  0  0
   47.6200   35.1410   42.1190 O   0  0  0  0  0  0  0  0  0  0  0  0
   43.8581   36.9121   45.3484 H   0  0  0  0  0  0  0  0  0  0  0  0
   44.2745   36.4022   42.9339 H   0  0  0  0  0  0  0  0  0  0  0  0
   46.0352   31.5100   49.5300 H   0  0  0  0  0  0  0  0  0  0  0  0
   47.3863   30.3618   47.4985 H   0  0  0  0  0  0  0  0  0  0  0  0
   46.8992   31.8455   45.2830 H   0  0  0  0  0  0  0  0  0  0  0  0
   46.9090   33.0705   37.6080 H   0  0  0  0  0  0  0  0  0  0  0  0
   45.2761   32.3578   37.6998 H   0  0  0  0  0  0  0  0  0  0  0  0
   48.4775   35.3629   41.6767 H   0  0  0  0  0  0  0  0  0  0  0  0
  1  6  2  0
  2  1  1  0
  3  2  2  0
  3  4  1  0
  4  5  2  0
  5  6  1  0
  5  7  1  0
  7  8  1  0
  8  9  2  0
 10  9  1  0
 11  7  1  0
 11 10  2  0
 12  3  1  0
 13 12  1  0
 13 24  1  0
 14 13  2  0
 15 17  2  0
 15 14  1  0
 16 15  1  0
 17 18  1  0
 18 19  2  0
 18 12  1  0
 20 23  1  0
 20 21  1  0
 20 14  1  0
 22 20  1  0
  1 25  1  0
  2 26  1  0
  9 27  1  0
 10 28  1  0
 11 29  1  0
 16 30  1  0
 16 31  1  0
 24 32  1  0
M  ISO  6  25  14  26  14  27  14  28  14  29  14  32   3
M  END
>  <minimizedAffinity>  (1) 
-6.56987906

>  <minimizedRMSD>  (1) 
0.213818133

$$$$
