
     RDKit          3D

 32 33  0  0  1  0  0  0  0  0999 V2000
   45.5460   34.2810   41.3460 N   0  0  0  0  0  0  0  0  0  0  0  0
   46.4350   33.4830   40.5290 C   0  0  0  0  0  0  0  0  0  0  0  0
   47.6920   34.1990   40.1430 C   0  0  0  0  0  0  0  0  0  0  0  0
   48.2060   35.1740   41.1550 C   0  0  0  0  0  0  0  0  0  0  0  0
   47.5420   35.0800   42.4920 C   0  0  0  0  0  0  0  0  0  0  0  0
   46.0410   35.0940   42.4010 C   0  0  2  0  0  0  0  0  0  0  0  0
   42.0290   35.2750   40.5160 C   0  0  0  0  0  0  0  0  0  0  0  0
   43.4160   35.3960   40.6640 C   0  0  0  0  0  0  0  0  0  0  0  0
   44.1500   34.3010   41.1470 C   0  0  0  0  0  0  0  0  0  0  0  0
   43.4460   33.1500   41.4520 N   0  0  0  0  0  0  0  0  0  0  0  0
   42.0960   33.0900   41.2880 C   0  0  0  0  0  0  0  0  0  0  0  0
   41.4000   34.1490   40.8220 N   0  0  0  0  0  0  0  0  0  0  0  0
   45.4660   34.6970   43.6740 N   0  0  0  0  0  0  0  0  0  0  0  0
   44.7820   35.6010   44.5200 C   0  0  0  0  0  0  0  0  0  0  0  0
   44.5510   36.7810   44.0470 N   0  0  0  0  0  0  0  0  0  0  0  0
   44.3780   35.2100   45.8240 N   0  0  0  0  0  0  0  0  0  0  0  0
   44.0480   37.5320   44.5960 H   0  0  0  0  0  0  0  0  0  0  0  0
   46.7080   32.5784   41.0922 H   0  0  0  0  0  0  0  0  0  0  0  0
   45.8970   33.2475   39.5989 H   0  0  0  0  0  0  0  0  0  0  0  0
   48.4737   33.4448   39.9694 H   0  0  0  0  0  0  0  0  0  0  0  0
   47.4447   34.7893   39.2484 H   0  0  0  0  0  0  0  0  0  0  0  0
   49.2825   34.9938   41.2914 H   0  0  0  0  0  0  0  0  0  0  0  0
   47.9872   36.1787   40.7643 H   0  0  0  0  0  0  0  0  0  0  0  0
   47.8558   34.1428   42.9749 H   0  0  0  0  0  0  0  0  0  0  0  0
   47.8461   35.9619   43.0749 H   0  0  0  0  0  0  0  0  0  0  0  0
   45.7351   36.1242   42.1664 H   0  0  0  0  0  0  0  0  0  0  0  0
   41.4501   36.1308   40.1385 H   0  0  0  0  0  0  0  0  0  0  0  0
   43.9240   36.3367   40.4052 H   0  0  0  0  0  0  0  0  0  0  0  0
   41.5623   32.1617   41.5398 H   0  0  0  0  0  0  0  0  0  0  0  0
   45.5602   33.7160   43.9734 H   0  0  0  0  0  0  0  0  0  0  0  0
   43.8805   35.8773   46.4308 H   0  0  0  0  0  0  0  0  0  0  0  0
   44.5824   34.2591   46.1631 H   0  0  0  0  0  0  0  0  0  0  0  0
  1  6  1  0
  2  1  1  0
  3  2  1  0
  3  4  1  0
  4  5  1  0
  6  5  1  0
  6 13  1  0
  7  8  2  0
  7 12  1  0
  8  9  1  0
  9  1  1  0
  9 10  2  0
 11 10  1  0
 12 11  2  0
 13 14  1  0
 14 16  1  0
 15 14  2  0
 15 17  1  0
  2 18  1  0
  2 19  1  0
  3 20  1  0
  3 21  1  0
  4 22  1  0
  4 23  1  0
  5 24  1  0
  5 25  1  0
  6 26  1  6
  7 27  1  0
  8 28  1  0
 11 29  1  0
 13 30  1  0
 16 31  1  0
 16 32  1  0
M  ISO  8  18  13  19  13  20  13  21  13  22  13  23  13  24  13  25  13
M  ISO  4  26  13  27  14  28  14  29  14
M  END
>  <minimizedAffinity>  (1) 
-5.5141921

>  <minimizedRMSD>  (1) 
4.07906055

$$$$
