
     RDKit          3D

 37 39  0  0  1  0  0  0  0  0999 V2000
   46.3350   34.3910   41.4790 N   0  0  0  0  0  0  0  0  0  0  0  0
   47.2080   34.1800   40.3690 C   0  0  0  0  0  0  0  0  0  0  0  0
   48.3950   35.0840   40.3530 C   0  0  0  0  0  0  0  0  0  0  0  0
   48.9310   35.4340   41.7070 C   0  0  0  0  0  0  0  0  0  0  0  0
   48.3540   34.6450   42.8450 C   0  0  0  0  0  0  0  0  0  0  0  0
   46.8650   34.5970   42.7990 C   0  0  2  0  0  0  0  0  0  0  0  0
   42.7210   35.3570   41.4900 C   0  0  0  0  0  0  0  0  0  0  0  0
   44.1110   35.5070   41.6390 C   0  0  0  0  0  0  0  0  0  0  0  0
   44.9230   34.4180   41.3800 C   0  0  0  0  0  0  0  0  0  0  0  0
   44.3020   33.2690   40.9960 N   0  0  0  0  0  0  0  0  0  0  0  0
   42.9700   33.1450   40.8600 C   0  0  0  0  0  0  0  0  0  0  0  0
   42.1850   34.2020   41.1110 N   0  0  0  0  0  0  0  0  0  0  0  0
   46.2270   33.7210   43.7050 N   0  0  0  0  0  0  0  0  0  0  0  0
   45.6510   34.3670   44.8480 C   0  0  0  0  0  0  0  0  0  0  0  0
   45.7970   33.4350   46.0180 C   0  0  0  0  0  0  0  0  0  0  0  0
   46.2070   32.1400   45.3650 C   0  0  0  0  0  0  0  0  0  0  0  0
   47.0620   32.6510   44.1970 C   0  0  0  0  0  0  0  0  0  0  0  0
   47.5651   33.1401   40.4020 H   0  0  0  0  0  0  0  0  0  0  0  0
   46.6278   34.3987   39.4604 H   0  0  0  0  0  0  0  0  0  0  0  0
   49.1959   34.5885   39.7846 H   0  0  0  0  0  0  0  0  0  0  0  0
   48.0618   36.0276   39.8964 H   0  0  0  0  0  0  0  0  0  0  0  0
   50.0186   35.2695   41.6956 H   0  0  0  0  0  0  0  0  0  0  0  0
   48.6473   36.4815   41.8866 H   0  0  0  0  0  0  0  0  0  0  0  0
   48.7432   33.6173   42.7968 H   0  0  0  0  0  0  0  0  0  0  0  0
   48.6471   35.1405   43.7823 H   0  0  0  0  0  0  0  0  0  0  0  0
   46.6170   35.6127   43.1409 H   0  0  0  0  0  0  0  0  0  0  0  0
   42.0628   36.2149   41.6917 H   0  0  0  0  0  0  0  0  0  0  0  0
   44.5426   36.4684   41.9543 H   0  0  0  0  0  0  0  0  0  0  0  0
   42.5296   32.1870   40.5463 H   0  0  0  0  0  0  0  0  0  0  0  0
   46.1791   35.3102   45.0516 H   0  0  0  0  0  0  0  0  0  0  0  0
   44.5907   34.5979   44.6679 H   0  0  0  0  0  0  0  0  0  0  0  0
   46.5716   33.7906   46.7134 H   0  0  0  0  0  0  0  0  0  0  0  0
   44.8815   33.3474   46.6215 H   0  0  0  0  0  0  0  0  0  0  0  0
   46.7951   31.5118   46.0502 H   0  0  0  0  0  0  0  0  0  0  0  0
   45.3643   31.5015   45.0614 H   0  0  0  0  0  0  0  0  0  0  0  0
   47.2148   31.8725   43.4350 H   0  0  0  0  0  0  0  0  0  0  0  0
   48.0811   32.9572   44.4758 H   0  0  0  0  0  0  0  0  0  0  0  0
  1  6  1  0
  2  1  1  0
  3  2  1  0
  3  4  1  0
  4  5  1  0
  6  5  1  0
  6 13  1  0
  7  8  2  0
  9  1  1  0
  9  8  1  0
 10  9  2  0
 11 10  1  0
 11 12  2  0
 12  7  1  0
 13 17  1  0
 13 14  1  0
 14 15  1  0
 16 15  1  0
 17 16  1  0
  2 18  1  0
  2 19  1  0
  3 20  1  0
  3 21  1  0
  4 22  1  0
  4 23  1  0
  5 24  1  0
  5 25  1  0
  6 26  1  1
  7 27  1  0
  8 28  1  0
 11 29  1  0
 14 30  1  0
 14 31  1  0
 15 32  1  0
 15 33  1  0
 16 34  1  0
 16 35  1  0
 17 36  1  0
 17 37  1  0
M  ISO  8  18  13  19  13  20  13  21  13  22  13  23  13  24  13  25  13
M  ISO  8  26  13  27  14  28  14  29  14  30  13  31  13  32  13  33  13
M  ISO  4  34  13  35  13  36  13  37  13
M  END
>  <minimizedAffinity>  (1) 
-4.99366713

>  <minimizedRMSD>  (1) 
3.65562892

$$$$
