
     RDKit          3D

 31 32  0  0  1  0  0  0  0  0999 V2000
   46.8660   34.1810   42.0980 N   0  0  0  0  0  0  0  0  0  0  0  0
   46.7100   32.8880   41.4840 C   0  0  0  0  0  0  0  0  0  0  0  0
   46.7030   32.9200   39.9980 C   0  0  0  0  0  0  0  0  0  0  0  0
   47.5370   34.0000   39.3800 C   0  0  0  0  0  0  0  0  0  0  0  0
   48.4670   34.6970   40.3290 C   0  0  0  0  0  0  0  0  0  0  0  0
   47.8240   35.1360   41.6070 C   0  0  2  0  0  0  0  0  0  0  0  0
   44.6240   36.0080   44.4810 C   0  0  0  0  0  0  0  0  0  0  0  0
   45.3150   35.7480   43.2850 C   0  0  0  0  0  0  0  0  0  0  0  0
   46.0990   34.6060   43.2170 C   0  0  0  0  0  0  0  0  0  0  0  0
   46.1470   33.8000   44.3350 N   0  0  0  0  0  0  0  0  0  0  0  0
   45.4660   34.0870   45.4660 C   0  0  0  0  0  0  0  0  0  0  0  0
   44.7040   35.1980   45.5300 N   0  0  0  0  0  0  0  0  0  0  0  0
   48.9140   35.2080   42.6640 C   0  0  0  0  0  0  0  0  0  0  0  0
   50.0670   34.2750   42.3630 C   0  0  0  0  0  0  0  0  0  0  0  0
   47.5416   32.2470   41.8120 H   0  0  0  0  0  0  0  0  0  0  0  0
   45.7285   32.5034   41.7981 H   0  0  0  0  0  0  0  0  0  0  0  0
   47.0769   31.9513   39.6349 H   0  0  0  0  0  0  0  0  0  0  0  0
   45.6644   33.1287   39.7018 H   0  0  0  0  0  0  0  0  0  0  0  0
   48.1405   33.5498   38.5781 H   0  0  0  0  0  0  0  0  0  0  0  0
   46.8344   34.7646   39.0170 H   0  0  0  0  0  0  0  0  0  0  0  0
   49.2886   34.0082   40.5751 H   0  0  0  0  0  0  0  0  0  0  0  0
   48.8130   35.6087   39.8199 H   0  0  0  0  0  0  0  0  0  0  0  0
   47.3177   36.0934   41.4148 H   0  0  0  0  0  0  0  0  0  0  0  0
   43.9980   36.9098   44.5500 H   0  0  0  0  0  0  0  0  0  0  0  0
   45.2361   36.4314   42.4267 H   0  0  0  0  0  0  0  0  0  0  0  0
   45.5330   33.4149   46.3342 H   0  0  0  0  0  0  0  0  0  0  0  0
   49.2954   36.2388   42.7095 H   0  0  0  0  0  0  0  0  0  0  0  0
   48.4734   34.9005   43.6239 H   0  0  0  0  0  0  0  0  0  0  0  0
   50.5067   33.9192   43.3064 H   0  0  0  0  0  0  0  0  0  0  0  0
   49.7012   33.4156   41.7819 H   0  0  0  0  0  0  0  0  0  0  0  0
   50.8311   34.8120   41.7819 H   0  0  0  0  0  0  0  0  0  0  0  0
  1  9  1  0
  2  1  1  0
  3  2  1  0
  4  3  1  0
  4  5  1  0
  5  6  1  0
  6  1  1  0
  6 13  1  0
  7 12  2  0
  8  7  1  0
  9  8  2  0
  9 10  1  0
 10 11  2  0
 11 12  1  0
 14 13  1  0
  2 15  1  0
  2 16  1  0
  3 17  1  0
  3 18  1  0
  4 19  1  0
  4 20  1  0
  5 21  1  0
  5 22  1  0
  6 23  1  6
  7 24  1  0
  8 25  1  0
 11 26  1  0
 13 27  1  0
 13 28  1  0
 14 29  1  0
 14 30  1  0
 14 31  1  0
M  ISO  8  15  13  16  13  17  13  18  13  19  13  20  13  21  13  22  13
M  ISO  8  23  13  24  14  25  14  26  14  27   8  28   8  29   8  30   8
M  ISO  1  31   8
M  END
>  <minimizedAffinity>  (1) 
-4.61864853

>  <minimizedRMSD>  (1) 
0.447183669

$$$$
