
     RDKit          3D

 37 38  0  0  1  0  0  0  0  0999 V2000
   44.9950   33.5280   41.7000 N   0  0  0  0  0  0  0  0  0  0  0  0
   44.1390   32.4050   41.3480 C   0  0  0  0  0  0  0  0  0  0  0  0
   43.5550   32.4830   39.9780 C   0  0  0  0  0  0  0  0  0  0  0  0
   44.4350   33.1470   38.9630 C   0  0  0  0  0  0  0  0  0  0  0  0
   45.8240   33.3840   39.4230 C   0  0  0  0  0  0  0  0  0  0  0  0
   45.9190   34.0540   40.7780 C   0  0  2  0  0  0  0  0  0  0  0  0
   44.4260   35.9230   44.5160 C   0  0  0  0  0  0  0  0  0  0  0  0
   44.4340   35.4210   43.2200 C   0  0  0  0  0  0  0  0  0  0  0  0
   44.9280   34.1300   42.9740 C   0  0  0  0  0  0  0  0  0  0  0  0
   45.3880   33.4150   44.0560 N   0  0  0  0  0  0  0  0  0  0  0  0
   45.3540   33.9600   45.3020 C   0  0  0  0  0  0  0  0  0  0  0  0
   44.8820   35.1910   45.5250 N   0  0  0  0  0  0  0  0  0  0  0  0
   47.3510   34.1560   41.1390 C   0  0  0  0  0  0  0  0  0  0  0  0
   47.7480   35.3160   42.0120 C   0  0  0  0  0  0  0  0  0  0  0  0
   48.1030   34.4040   39.8170 C   0  0  0  0  0  0  0  0  0  0  0  0
   47.9200   32.8470   41.6650 C   0  0  0  0  0  0  0  0  0  0  0  0
   44.7351   31.4831   41.4162 H   0  0  0  0  0  0  0  0  0  0  0  0
   43.2937   32.4212   42.0517 H   0  0  0  0  0  0  0  0  0  0  0  0
   43.3470   31.4589   39.6346 H   0  0  0  0  0  0  0  0  0  0  0  0
   42.6496   33.1023   40.0592 H   0  0  0  0  0  0  0  0  0  0  0  0
   43.9881   34.1176   38.7017 H   0  0  0  0  0  0  0  0  0  0  0  0
   44.4995   32.4617   38.1050 H   0  0  0  0  0  0  0  0  0  0  0  0
   46.3396   32.4140   39.4800 H   0  0  0  0  0  0  0  0  0  0  0  0
   46.2871   34.0682   38.6968 H   0  0  0  0  0  0  0  0  0  0  0  0
   45.5724   35.0980   40.7719 H   0  0  0  0  0  0  0  0  0  0  0  0
   44.0388   36.9347   44.7070 H   0  0  0  0  0  0  0  0  0  0  0  0
   44.0542   36.0336   42.3891 H   0  0  0  0  0  0  0  0  0  0  0  0
   45.7263   33.3698   46.1523 H   0  0  0  0  0  0  0  0  0  0  0  0
   47.6499   35.0295   43.0695 H   0  0  0  0  0  0  0  0  0  0  0  0
   48.7919   35.5923   41.8023 H   0  0  0  0  0  0  0  0  0  0  0  0
   47.0923   36.1740   41.8023 H   0  0  0  0  0  0  0  0  0  0  0  0
   49.1269   34.7417   40.0354 H   0  0  0  0  0  0  0  0  0  0  0  0
   48.1408   33.4707   39.2360 H   0  0  0  0  0  0  0  0  0  0  0  0
   47.5782   35.1766   39.2360 H   0  0  0  0  0  0  0  0  0  0  0  0
   47.9142   32.8604   42.7649 H   0  0  0  0  0  0  0  0  0  0  0  0
   47.3049   32.0090   41.3052 H   0  0  0  0  0  0  0  0  0  0  0  0
   48.9523   32.7251   41.3052 H   0  0  0  0  0  0  0  0  0  0  0  0
  1  9  1  0
  2  1  1  0
  3  2  1  0
  4  5  1  0
  4  3  1  0
  5  6  1  0
  6 13  1  0
  6  1  1  0
  7 12  2  0
  8  7  1  0
  9  8  2  0
  9 10  1  0
 10 11  2  0
 11 12  1  0
 13 16  1  0
 13 14  1  0
 15 13  1  0
  2 17  1  0
  2 18  1  0
  3 19  1  0
  3 20  1  0
  4 21  1  0
  4 22  1  0
  5 23  1  0
  5 24  1  0
  6 25  1  6
  7 26  1  0
  8 27  1  0
 11 28  1  0
 14 29  1  0
 14 30  1  0
 14 31  1  0
 15 32  1  0
 15 33  1  0
 15 34  1  0
 16 35  1  0
 16 36  1  0
 16 37  1  0
M  ISO  8  17  13  18  13  19  13  20  13  21  13  22  13  23  13  24  13
M  ISO  8  25  13  26  14  27  14  28  14  29   8  30   8  31   8  32   8
M  ISO  5  33   8  34   8  35   8  36   8  37   8
M  END
>  <minimizedAffinity>  (1) 
-4.32667112

>  <minimizedRMSD>  (1) 
2.67740703

$$$$
