
     RDKit          3D

 29 30  0  0  1  0  0  0  0  0999 V2000
   45.8910   34.3500   41.3130 N   0  0  0  0  0  0  0  0  0  0  0  0
   46.7080   33.6010   40.4070 C   0  0  0  0  0  0  0  0  0  0  0  0
   47.8760   34.3610   39.8690 C   0  0  0  0  0  0  0  0  0  0  0  0
   48.5210   35.2820   40.8600 C   0  0  0  0  0  0  0  0  0  0  0  0
   47.9880   35.2020   42.2420 C   0  0  0  0  0  0  0  0  0  0  0  0
   46.4970   35.1080   42.3650 C   0  0  2  0  0  0  0  0  0  0  0  0
   42.2920   35.3590   41.1600 C   0  0  0  0  0  0  0  0  0  0  0  0
   43.6800   35.5100   41.2190 C   0  0  0  0  0  0  0  0  0  0  0  0
   44.4730   34.3720   41.2670 C   0  0  0  0  0  0  0  0  0  0  0  0
   43.8390   33.1440   41.2710 N   0  0  0  0  0  0  0  0  0  0  0  0
   42.4990   33.0430   41.2270 C   0  0  0  0  0  0  0  0  0  0  0  0
   41.7310   34.1360   41.1810 N   0  0  0  0  0  0  0  0  0  0  0  0
   46.1610   34.2950   43.9760 S   0  0  0  0  0  0  0  0  0  0  0  0
   46.9280   32.6650   43.9320 C   0  0  0  0  0  0  0  0  0  0  0  0
   48.2420   32.8370   43.5110 F   0  0  0  0  0  0  0  0  0  0  0  0
   46.2430   31.7870   43.1220 F   0  0  0  0  0  0  0  0  0  0  0  0
   46.9180   32.1740   45.2300 F   0  0  0  0  0  0  0  0  0  0  0  0
   47.0869   32.7141   40.9359 H   0  0  0  0  0  0  0  0  0  0  0  0
   46.0734   33.3432   39.5463 H   0  0  0  0  0  0  0  0  0  0  0  0
   48.6312   33.6371   39.5290 H   0  0  0  0  0  0  0  0  0  0  0  0
   47.4928   34.9929   39.0542 H   0  0  0  0  0  0  0  0  0  0  0  0
   49.5944   35.0444   40.8958 H   0  0  0  0  0  0  0  0  0  0  0  0
   48.3062   36.3026   40.5104 H   0  0  0  0  0  0  0  0  0  0  0  0
   48.4222   34.3113   42.7195 H   0  0  0  0  0  0  0  0  0  0  0  0
   48.2669   36.1508   42.7236 H   0  0  0  0  0  0  0  0  0  0  0  0
   46.0661   36.1179   42.2977 H   0  0  0  0  0  0  0  0  0  0  0  0
   41.6505   36.2503   41.0956 H   0  0  0  0  0  0  0  0  0  0  0  0
   44.1352   36.5114   41.2272 H   0  0  0  0  0  0  0  0  0  0  0  0
   42.0289   32.0485   41.2289 H   0  0  0  0  0  0  0  0  0  0  0  0
  1  6  1  0
  2  1  1  0
  3  2  1  0
  3  4  1  0
  4  5  1  0
  5  6  1  0
  6 13  1  0
  7 12  2  0
  7  8  1  0
  8  9  2  0
  9 10  1  0
  9  1  1  0
 11 10  2  0
 12 11  1  0
 14 13  1  0
 14 17  1  0
 15 14  1  0
 16 14  1  0
  2 18  1  0
  2 19  1  0
  3 20  1  0
  3 21  1  0
  4 22  1  0
  4 23  1  0
  5 24  1  0
  5 25  1  0
  6 26  1  1
  7 27  1  0
  8 28  1  0
 11 29  1  0
M  ISO  8  18  13  19  13  20  13  21  13  22  13  23  13  24  13  25  13
M  ISO  4  26  13  27  14  28  14  29  14
M  END
>  <minimizedAffinity>  (1) 
-4.43920088

>  <minimizedRMSD>  (1) 
3.84653521

$$$$
