
     RDKit          3D

 35 36  0  0  1  0  0  0  0  0999 V2000
   45.4310   33.6270   41.5600 N   0  0  0  0  0  0  0  0  0  0  0  0
   44.5160   32.6610   41.0340 C   0  0  0  0  0  0  0  0  0  0  0  0
   44.2550   32.8050   39.5720 C   0  0  0  0  0  0  0  0  0  0  0  0
   45.4570   33.1960   38.7640 C   0  0  0  0  0  0  0  0  0  0  0  0
   46.7330   33.2660   39.5180 C   0  0  0  0  0  0  0  0  0  0  0  0
   46.6600   33.8940   40.8750 C   0  0  2  0  0  0  0  0  0  0  0  0
   44.7060   36.2520   44.1250 C   0  0  0  0  0  0  0  0  0  0  0  0
   44.9000   35.6930   42.8600 C   0  0  0  0  0  0  0  0  0  0  0  0
   45.2220   34.3450   42.7650 C   0  0  0  0  0  0  0  0  0  0  0  0
   45.3420   33.6280   43.9400 N   0  0  0  0  0  0  0  0  0  0  0  0
   45.1600   34.2070   45.1400 C   0  0  0  0  0  0  0  0  0  0  0  0
   44.8540   35.5060   45.2340 N   0  0  0  0  0  0  0  0  0  0  0  0
   48.0600   33.2130   41.8470 S   0  0  0  0  0  0  0  0  0  0  0  0
   49.0620   34.6070   42.3880 C   0  0  0  0  0  0  0  0  0  0  0  0
   48.9290   35.7720   41.4380 C   0  0  0  0  0  0  0  0  0  0  0  0
   50.5160   34.2670   42.5540 C   0  0  0  0  0  0  0  0  0  0  0  0
   44.9304   31.6581   41.2142 H   0  0  0  0  0  0  0  0  0  0  0  0
   43.5556   32.8209   41.5459 H   0  0  0  0  0  0  0  0  0  0  0  0
   43.8835   31.8418   39.1922 H   0  0  0  0  0  0  0  0  0  0  0  0
   43.5240   33.6196   39.4621 H   0  0  0  0  0  0  0  0  0  0  0  0
   45.2653   34.1875   38.3278 H   0  0  0  0  0  0  0  0  0  0  0  0
   45.5903   32.4025   38.0139 H   0  0  0  0  0  0  0  0  0  0  0  0
   47.1073   32.2391   39.6421 H   0  0  0  0  0  0  0  0  0  0  0  0
   47.3924   33.9170   38.9251 H   0  0  0  0  0  0  0  0  0  0  0  0
   46.7121   34.9869   40.7615 H   0  0  0  0  0  0  0  0  0  0  0  0
   44.4294   37.3128   44.2151 H   0  0  0  0  0  0  0  0  0  0  0  0
   44.7996   36.3094   41.9545 H   0  0  0  0  0  0  0  0  0  0  0  0
   45.2639   33.6055   46.0551 H   0  0  0  0  0  0  0  0  0  0  0  0
   48.6717   34.8835   43.3785 H   0  0  0  0  0  0  0  0  0  0  0  0
   48.8226   36.7037   42.0130 H   0  0  0  0  0  0  0  0  0  0  0  0
   49.8261   35.8326   40.8043 H   0  0  0  0  0  0  0  0  0  0  0  0
   48.0414   35.6289   40.8043 H   0  0  0  0  0  0  0  0  0  0  0  0
   50.7593   34.2101   43.6253 H   0  0  0  0  0  0  0  0  0  0  0  0
   50.7221   33.2964   42.0791 H   0  0  0  0  0  0  0  0  0  0  0  0
   51.1311   35.0455   42.0791 H   0  0  0  0  0  0  0  0  0  0  0  0
  1  9  1  0
  2  1  1  0
  3  2  1  0
  4  5  1  0
  4  3  1  0
  5  6  1  0
  6  1  1  0
  6 13  1  0
  7 12  2  0
  8  7  1  0
  9  8  2  0
  9 10  1  0
 10 11  2  0
 11 12  1  0
 13 14  1  0
 14 16  1  0
 15 14  1  0
  2 17  1  0
  2 18  1  0
  3 19  1  0
  3 20  1  0
  4 21  1  0
  4 22  1  0
  5 23  1  0
  5 24  1  0
  6 25  1  6
  7 26  1  0
  8 27  1  0
 11 28  1  0
 14 29  1  0
 15 30  1  0
 15 31  1  0
 15 32  1  0
 16 33  1  0
 16 34  1  0
 16 35  1  0
M  ISO  8  17  13  18  13  19  13  20  13  21  13  22  13  23  13  24  13
M  ISO  8  25  13  26  14  27  14  28  14  29   8  30   8  31   8  32   8
M  ISO  3  33   8  34   8  35   8
M  END
>  <minimizedAffinity>  (1) 
-4.31485701

>  <minimizedRMSD>  (1) 
1.61539197

$$$$
