
     RDKit          3D

 52 56  0  0  1  0  0  0  0  0999 V2000
   52.5410   32.2430   37.9840 N   0  0  0  0  0  0  0  0  0  0  0  0
   53.8550   31.8030   37.6010 C   0  0  0  0  0  0  0  0  0  0  0  0
   54.0670   30.5720   38.4440 C   0  0  0  0  0  0  0  0  0  0  0  0
   52.7280   29.8840   38.3290 C   0  0  0  0  0  0  0  0  0  0  0  0
   51.7760   31.1200   38.3600 C   0  0  2  0  0  0  0  0  0  0  0  0
   50.7550   30.8410   37.3720 N   0  0  0  0  0  0  0  0  0  0  0  0
   50.6310   29.6380   36.7240 C   0  0  0  0  0  0  0  0  0  0  0  0
   49.5690   29.7070   35.9170 N   0  0  0  0  0  0  0  0  0  0  0  0
   49.0620   30.9410   36.0810 C   0  0  0  0  0  0  0  0  0  0  0  0
   47.9450   31.4880   35.4480 C   0  0  0  0  0  0  0  0  0  0  0  0
   47.2850   30.8230   34.6230 O   0  0  0  0  0  0  0  0  0  0  0  0
   47.6480   32.7520   35.7900 N   0  0  0  0  0  0  0  0  0  0  0  0
   48.3450   33.4850   36.6780 C   0  0  0  0  0  0  0  0  0  0  0  0
   47.8800   34.8180   36.9190 N   0  0  0  0  0  0  0  0  0  0  0  0
   49.4380   32.9710   37.3050 N   0  0  0  0  0  0  0  0  0  0  0  0
   49.7660   31.7080   36.9870 C   0  0  0  0  0  0  0  0  0  0  0  0
   51.2880   31.2930   40.0720 S   0  0  0  0  0  0  0  0  0  0  0  0
   49.0930   31.6850   41.5350 N   0  0  0  0  0  0  0  0  0  0  0  0
   48.7780   30.9280   42.7110 C   0  0  0  0  0  0  0  0  0  0  0  0
   47.9030   29.7460   42.4550 C   0  0  0  0  0  0  0  0  0  0  0  0
   48.1440   29.0680   41.1540 C   0  0  0  0  0  0  0  0  0  0  0  0
   49.3370   29.5540   40.3940 C   0  0  0  0  0  0  0  0  0  0  0  0
   49.4870   31.0440   40.3040 C   0  0  2  0  0  0  0  0  0  0  0  0
   48.4320   35.2640   40.6560 C   0  0  0  0  0  0  0  0  0  0  0  0
   48.3760   33.8730   40.5700 C   0  0  0  0  0  0  0  0  0  0  0  0
   49.0490   33.1020   41.4870 C   0  0  0  0  0  0  0  0  0  0  0  0
   49.7470   33.7820   42.4470 N   0  0  0  0  0  0  0  0  0  0  0  0
   49.7950   35.1130   42.5210 C   0  0  0  0  0  0  0  0  0  0  0  0
   49.1380   35.8520   41.6250 N   0  0  0  0  0  0  0  0  0  0  0  0
   52.0901   32.7184   37.1893 H   0  0  0  0  0  0  0  0  0  0  0  0
   53.8918   31.5580   36.5293 H   0  0  0  0  0  0  0  0  0  0  0  0
   54.6283   32.5698   37.7562 H   0  0  0  0  0  0  0  0  0  0  0  0
   54.8755   29.9447   38.0405 H   0  0  0  0  0  0  0  0  0  0  0  0
   54.3692   30.7880   39.4794 H   0  0  0  0  0  0  0  0  0  0  0  0
   52.5440   29.2072   39.1764 H   0  0  0  0  0  0  0  0  0  0  0  0
   52.6162   29.2388   37.4452 H   0  0  0  0  0  0  0  0  0  0  0  0
   51.2919   28.7674   36.8477 H   0  0  0  0  0  0  0  0  0  0  0  0
   46.8308   33.1908   35.3421 H   0  0  0  0  0  0  0  0  0  0  0  0
   48.3758   35.4232   37.5890 H   0  0  0  0  0  0  0  0  0  0  0  0
   47.0498   35.1715   36.4223 H   0  0  0  0  0  0  0  0  0  0  0  0
   49.7190   30.5721   43.1558 H   0  0  0  0  0  0  0  0  0  0  0  0
   48.2200   31.5982   43.3814 H   0  0  0  0  0  0  0  0  0  0  0  0
   48.0704   29.0145   43.2593 H   0  0  0  0  0  0  0  0  0  0  0  0
   46.8703   30.1235   42.4233 H   0  0  0  0  0  0  0  0  0  0  0  0
   48.2796   27.9941   41.3499 H   0  0  0  0  0  0  0  0  0  0  0  0
   47.2695   29.2931   40.5259 H   0  0  0  0  0  0  0  0  0  0  0  0
   50.2365   29.1525   40.8837 H   0  0  0  0  0  0  0  0  0  0  0  0
   49.1981   29.2032   39.3607 H   0  0  0  0  0  0  0  0  0  0  0  0
   48.8647   31.4657   39.5009 H   0  0  0  0  0  0  0  0  0  0  0  0
   47.8918   35.8798   39.9218 H   0  0  0  0  0  0  0  0  0  0  0  0
   47.7938   33.3938   39.7691 H   0  0  0  0  0  0  0  0  0  0  0  0
   50.3748   35.6002   43.3188 H   0  0  0  0  0  0  0  0  0  0  0  0
  1  5  1  0
  2  1  1  0
  2  3  1  0
  4  5  1  0
  4  3  1  0
  5 17  1  1
  6  5  1  0
  7  6  1  0
  8  9  1  0
  8  7  2  0
  9 16  2  0
 10 12  1  0
 10  9  1  0
 11 10  2  0
 12 13  1  0
 13 14  1  0
 13 15  2  0
 16 15  1  0
 16  6  1  0
 17 23  1  0
 18 19  1  0
 20 19  1  0
 21 20  1  0
 22 21  1  0
 23 22  1  0
 23 18  1  0
 24 29  2  0
 25 24  1  0
 25 26  2  0
 26 18  1  0
 26 27  1  0
 27 28  2  0
 29 28  1  0
  1 30  1  0
  2 31  1  0
  2 32  1  0
  3 33  1  0
  3 34  1  0
  4 35  1  0
  4 36  1  0
  7 37  1  0
 12 38  1  0
 14 39  1  0
 14 40  1  0
 19 41  1  0
 19 42  1  0
 20 43  1  0
 20 44  1  0
 21 45  1  0
 21 46  1  0
 22 47  1  0
 22 48  1  0
 23 49  1  6
 24 50  1  0
 25 51  1  0
 28 52  1  0
M  ISO  8  30   5  31  13  32  13  33  13  34  13  35  13  36  13  37  14
M  ISO  8  38   9  41  13  42  13  43  13  44  13  45  13  46  13  47  13
M  ISO  5  48  13  49  13  50  14  51  14  52  14
M  END
>  <minimizedAffinity>  (1) 
-5.48760843

>  <minimizedRMSD>  (1) 
2.81574917

$$$$
