
     RDKit          3D

 52 55  0  0  1  0  0  0  0  0999 V2000
   47.1320   34.4680   41.6150 N   0  0  0  0  0  0  0  0  0  0  0  0
   47.9970   35.0090   40.6250 C   0  0  0  0  0  0  0  0  0  0  0  0
   49.1560   35.7780   41.1660 C   0  0  0  0  0  0  0  0  0  0  0  0
   49.7260   35.2290   42.4300 C   0  0  0  0  0  0  0  0  0  0  0  0
   49.1600   33.9210   42.8610 C   0  0  0  0  0  0  0  0  0  0  0  0
   47.6620   33.7860   42.7690 C   0  0  2  0  0  0  0  0  0  0  0  0
   43.5110   35.1270   42.3110 C   0  0  0  0  0  0  0  0  0  0  0  0
   44.8850   35.1310   42.4840 C   0  0  0  0  0  0  0  0  0  0  0  0
   45.7180   34.5410   41.5640 C   0  0  0  0  0  0  0  0  0  0  0  0
   45.1000   33.9610   40.4870 N   0  0  0  0  0  0  0  0  0  0  0  0
   43.7760   33.9620   40.3280 C   0  0  0  0  0  0  0  0  0  0  0  0
   42.9810   34.5410   41.2340 N   0  0  0  0  0  0  0  0  0  0  0  0
   47.3680   31.9780   42.5530 S   0  0  0  0  0  0  0  0  0  0  0  0
   45.0240   31.4830   43.6650 N   0  0  0  0  0  0  0  0  0  0  0  0
   44.4190   30.1650   43.5660 C   0  0  0  0  0  0  0  0  0  0  0  0
   45.5530   29.2790   43.1110 C   0  0  0  0  0  0  0  0  0  0  0  0
   46.7090   29.8120   43.9610 C   0  0  0  0  0  0  0  0  0  0  0  0
   46.3880   31.3210   43.9400 C   0  0  1  0  0  0  0  0  0  0  0  0
   46.7580   31.9020   45.2020 N   0  0  0  0  0  0  0  0  0  0  0  0
   46.8990   31.0030   46.2960 C   0  0  0  0  0  0  0  0  0  0  0  0
   47.5310   31.7760   47.4670 C   0  0  0  0  0  0  0  0  0  0  0  0
   46.9870   33.0920   47.6210 N   0  0  0  0  0  0  0  0  0  0  0  0
   45.6630   33.1050   47.0320 C   0  0  0  0  0  0  0  0  0  0  0  0
   45.8370   32.9810   45.5520 C   0  0  0  0  0  0  0  0  0  0  0  0
   47.4075   35.6819   39.9849 H   0  0  0  0  0  0  0  0  0  0  0  0
   48.4188   34.1529   40.0780 H   0  0  0  0  0  0  0  0  0  0  0  0
   49.9501   35.7836   40.4049 H   0  0  0  0  0  0  0  0  0  0  0  0
   48.7807   36.7845   41.4030 H   0  0  0  0  0  0  0  0  0  0  0  0
   50.8094   35.1017   42.2885 H   0  0  0  0  0  0  0  0  0  0  0  0
   49.4698   35.9497   43.2206 H   0  0  0  0  0  0  0  0  0  0  0  0
   49.6076   33.1372   42.2323 H   0  0  0  0  0  0  0  0  0  0  0  0
   49.4002   33.8324   43.9308 H   0  0  0  0  0  0  0  0  0  0  0  0
   47.1779   34.2188   43.6569 H   0  0  0  0  0  0  0  0  0  0  0  0
   42.8589   35.6043   43.0573 H   0  0  0  0  0  0  0  0  0  0  0  0
   45.3168   35.6145   43.3727 H   0  0  0  0  0  0  0  0  0  0  0  0
   43.3335   33.4818   39.4428 H   0  0  0  0  0  0  0  0  0  0  0  0
   44.5764   32.0156   44.4245 H   0  0  0  0  0  0  0  0  0  0  0  0
   44.0334   29.8369   44.5426 H   0  0  0  0  0  0  0  0  0  0  0  0
   43.5606   30.1425   42.8785 H   0  0  0  0  0  0  0  0  0  0  0  0
   45.3486   28.2201   43.3276 H   0  0  0  0  0  0  0  0  0  0  0  0
   45.7401   29.3072   42.0274 H   0  0  0  0  0  0  0  0  0  0  0  0
   46.6857   29.4044   44.9824 H   0  0  0  0  0  0  0  0  0  0  0  0
   47.7120   29.5479   43.5946 H   0  0  0  0  0  0  0  0  0  0  0  0
   45.9122   30.6175   46.5922 H   0  0  0  0  0  0  0  0  0  0  0  0
   47.5350   30.1516   46.0120 H   0  0  0  0  0  0  0  0  0  0  0  0
   47.3560   31.2125   48.3953 H   0  0  0  0  0  0  0  0  0  0  0  0
   48.6043   31.8843   47.2516 H   0  0  0  0  0  0  0  0  0  0  0  0
   46.9262   33.3295   48.6214 H   0  0  0  0  0  0  0  0  0  0  0  0
   45.0720   32.2597   47.4143 H   0  0  0  0  0  0  0  0  0  0  0  0
   45.1312   34.0337   47.2865 H   0  0  0  0  0  0  0  0  0  0  0  0
   46.2337   33.9290   45.1596 H   0  0  0  0  0  0  0  0  0  0  0  0
   44.8563   32.7497   45.1108 H   0  0  0  0  0  0  0  0  0  0  0  0
  1  6  1  0
  2  3  1  0
  2  1  1  0
  3  4  1  0
  4  5  1  0
  6  5  1  0
  7  8  2  0
  9  1  1  0
  9  8  1  0
 10  9  2  0
 11 10  1  0
 11 12  2  0
 12  7  1  0
 13  6  1  0
 14 18  1  0
 15 14  1  0
 16 15  1  0
 16 17  1  0
 18 13  1  6
 18 17  1  0
 18 19  1  0
 19 24  1  0
 19 20  1  0
 20 21  1  0
 21 22  1  0
 23 22  1  0
 24 23  1  0
  2 25  1  0
  2 26  1  0
  3 27  1  0
  3 28  1  0
  4 29  1  0
  4 30  1  0
  5 31  1  0
  5 32  1  0
  6 33  1  1
  7 34  1  0
  8 35  1  0
 11 36  1  0
 14 37  1  0
 15 38  1  0
 15 39  1  0
 16 40  1  0
 16 41  1  0
 17 42  1  0
 17 43  1  0
 20 44  1  0
 20 45  1  0
 21 46  1  0
 21 47  1  0
 22 48  1  0
 23 49  1  0
 23 50  1  0
 24 51  1  0
 24 52  1  0
M  ISO  8  25  13  26  13  27  13  28  13  29  13  30  13  31  13  32  13
M  ISO  8  33  13  34  14  35  14  36  14  37   5  38  13  39  13  40  13
M  ISO  8  41  13  42  13  43  13  44  13  45  13  46  13  47  13  48   5
M  ISO  4  49  13  50  13  51  13  52  13
M  END
>  <minimizedAffinity>  (1) 
-5.48618221

>  <minimizedRMSD>  (1) 
8.21191692

$$$$
