
     RDKit          3D

 46 49  0  0  1  0  0  0  0  0999 V2000
   46.9980   34.3780   41.4610 N   0  0  0  0  0  0  0  0  0  0  0  0
   47.9970   34.9080   40.5700 C   0  0  0  0  0  0  0  0  0  0  0  0
   49.0870   35.6580   41.2440 C   0  0  0  0  0  0  0  0  0  0  0  0
   49.4600   35.1500   42.5900 C   0  0  0  0  0  0  0  0  0  0  0  0
   48.8410   33.8430   42.9580 C   0  0  0  0  0  0  0  0  0  0  0  0
   47.3650   33.7220   42.6900 C   0  0  2  0  0  0  0  0  0  0  0  0
   43.3620   35.2170   41.4460 C   0  0  0  0  0  0  0  0  0  0  0  0
   44.7020   35.2670   41.8270 C   0  0  0  0  0  0  0  0  0  0  0  0
   45.6110   34.4540   41.1970 C   0  0  0  0  0  0  0  0  0  0  0  0
   45.1170   33.6310   40.2130 N   0  0  0  0  0  0  0  0  0  0  0  0
   43.8310   33.5940   39.8600 C   0  0  0  0  0  0  0  0  0  0  0  0
   42.9560   34.3900   40.4790 N   0  0  0  0  0  0  0  0  0  0  0  0
   47.0940   31.9160   42.4750 S   0  0  0  0  0  0  0  0  0  0  0  0
   44.5840   32.1020   43.1860 N   0  0  0  0  0  0  0  0  0  0  0  0
   43.5700   31.2200   42.6770 C   0  0  0  0  0  0  0  0  0  0  0  0
   44.3670   30.1270   42.0000 C   0  0  0  0  0  0  0  0  0  0  0  0
   45.4630   29.8810   43.0220 C   0  0  0  0  0  0  0  0  0  0  0  0
   45.7270   31.3340   43.4990 C   0  0  1  0  0  0  0  0  0  0  0  0
   45.9280   31.3230   44.9450 C   0  0  0  0  0  0  0  0  0  0  0  0
   46.1300   30.2910   45.8710 C   0  0  0  0  0  0  0  0  0  0  0  0
   46.2270   30.5930   47.2100 C   0  0  0  0  0  0  0  0  0  0  0  0
   46.1380   31.8350   47.7030 N   0  0  0  0  0  0  0  0  0  0  0  0
   45.9410   32.8270   46.7930 C   0  0  0  0  0  0  0  0  0  0  0  0
   45.8390   32.5920   45.4640 N   0  0  0  0  0  0  0  0  0  0  0  0
   47.5000   35.5868   39.8613 H   0  0  0  0  0  0  0  0  0  0  0  0
   48.4686   34.0440   40.0790 H   0  0  0  0  0  0  0  0  0  0  0  0
   49.9796   35.6126   40.6027 H   0  0  0  0  0  0  0  0  0  0  0  0
   48.7092   36.6800   41.3950 H   0  0  0  0  0  0  0  0  0  0  0  0
   50.5532   35.0318   42.6205 H   0  0  0  0  0  0  0  0  0  0  0  0
   49.0833   35.8866   43.3149 H   0  0  0  0  0  0  0  0  0  0  0  0
   49.3538   33.0538   42.3886 H   0  0  0  0  0  0  0  0  0  0  0  0
   48.9564   33.7527   44.0482 H   0  0  0  0  0  0  0  0  0  0  0  0
   46.7744   34.1777   43.4984 H   0  0  0  0  0  0  0  0  0  0  0  0
   42.6299   35.8667   41.9480 H   0  0  0  0  0  0  0  0  0  0  0  0
   45.0277   35.9511   42.6245 H   0  0  0  0  0  0  0  0  0  0  0  0
   43.4941   32.9127   39.0648 H   0  0  0  0  0  0  0  0  0  0  0  0
   44.2399   32.5750   44.0338 H   0  0  0  0  0  0  0  0  0  0  0  0
   42.9565   30.8120   43.4938 H   0  0  0  0  0  0  0  0  0  0  0  0
   42.8645   31.7216   41.9982 H   0  0  0  0  0  0  0  0  0  0  0  0
   43.7576   29.2256   41.8382 H   0  0  0  0  0  0  0  0  0  0  0  0
   44.7364   30.3933   40.9987 H   0  0  0  0  0  0  0  0  0  0  0  0
   45.1157   29.2391   43.8450 H   0  0  0  0  0  0  0  0  0  0  0  0
   46.3475   29.3561   42.6319 H   0  0  0  0  0  0  0  0  0  0  0  0
   46.2104   29.2481   45.5304 H   0  0  0  0  0  0  0  0  0  0  0  0
   46.3871   29.7656   47.9170 H   0  0  0  0  0  0  0  0  0  0  0  0
   45.8613   33.8636   47.1524 H   0  0  0  0  0  0  0  0  0  0  0  0
  1  6  1  0
  2  3  1  0
  2  1  1  0
  3  4  1  0
  4  5  1  0
  6  5  1  0
  7  8  2  0
  9  1  1  0
  9  8  1  0
 10  9  2  0
 11 10  1  0
 11 12  2  0
 12  7  1  0
 13  6  1  0
 14 18  1  0
 15 14  1  0
 16 15  1  0
 16 17  1  0
 17 18  1  0
 18 13  1  6
 18 19  1  0
 19 24  1  0
 19 20  2  0
 20 21  1  0
 21 22  2  0
 23 22  1  0
 24 23  2  0
  2 25  1  0
  2 26  1  0
  3 27  1  0
  3 28  1  0
  4 29  1  0
  4 30  1  0
  5 31  1  0
  5 32  1  0
  6 33  1  1
  7 34  1  0
  8 35  1  0
 11 36  1  0
 14 37  1  0
 15 38  1  0
 15 39  1  0
 16 40  1  0
 16 41  1  0
 17 42  1  0
 17 43  1  0
 20 44  1  0
 21 45  1  0
 23 46  1  0
M  ISO  8  25  13  26  13  27  13  28  13  29  13  30  13  31  13  32  13
M  ISO  8  33  13  34  14  35  14  36  14  37   5  38  13  39  13  40  13
M  ISO  6  41  13  42  13  43  13  44  14  45  14  46  14
M  END
>  <minimizedAffinity>  (1) 
-5.15418768

>  <minimizedRMSD>  (1) 
8.30434322

$$$$
