
     RDKit          3D

 45 48  0  0  1  0  0  0  0  0999 V2000
   44.5730   33.5460   41.1690 N   0  0  0  0  0  0  0  0  0  0  0  0
   43.3770   32.8510   40.7930 C   0  0  0  0  0  0  0  0  0  0  0  0
   42.9320   33.0980   39.3930 C   0  0  0  0  0  0  0  0  0  0  0  0
   44.0330   33.2920   38.4150 C   0  0  0  0  0  0  0  0  0  0  0  0
   45.4140   33.0400   38.9320 C   0  0  0  0  0  0  0  0  0  0  0  0
   45.7150   33.6000   40.2910 C   0  0  2  0  0  0  0  0  0  0  0  0
   44.7640   36.0740   43.9150 C   0  0  0  0  0  0  0  0  0  0  0  0
   44.5740   35.5630   42.6330 C   0  0  0  0  0  0  0  0  0  0  0  0
   44.7260   34.2170   42.4010 C   0  0  0  0  0  0  0  0  0  0  0  0
   45.0640   33.4540   43.4890 N   0  0  0  0  0  0  0  0  0  0  0  0
   45.2430   33.9550   44.7130 C   0  0  0  0  0  0  0  0  0  0  0  0
   45.0920   35.2630   44.9230 N   0  0  0  0  0  0  0  0  0  0  0  0
   47.0140   32.4920   40.9600 S   0  0  0  0  0  0  0  0  0  0  0  0
   48.5580   34.5150   40.3440 N   0  0  0  0  0  0  0  0  0  0  0  0
   48.8000   35.6050   41.2530 C   0  0  0  0  0  0  0  0  0  0  0  0
   48.2740   35.0910   42.5660 C   0  0  0  0  0  0  0  0  0  0  0  0
   48.7640   33.6680   42.5770 C   0  0  0  0  0  0  0  0  0  0  0  0
   48.6030   33.3080   41.0660 C   0  0  1  0  0  0  0  0  0  0  0  0
   49.7840   32.5370   40.7270 N   0  0  0  0  0  0  0  0  0  0  0  0
   50.0000   31.8280   39.6020 N   0  0  0  0  0  0  0  0  0  0  0  0
   51.1950   31.2270   39.6790 C   0  0  0  0  0  0  0  0  0  0  0  0
   51.7160   31.5940   40.9040 C   0  0  0  0  0  0  0  0  0  0  0  0
   50.8380   32.4310   41.5980 C   0  0  0  0  0  0  0  0  0  0  0  0
   43.5553   31.7720   40.9113 H   0  0  0  0  0  0  0  0  0  0  0  0
   42.5772   33.2296   41.4464 H   0  0  0  0  0  0  0  0  0  0  0  0
   42.3327   32.2351   39.0670 H   0  0  0  0  0  0  0  0  0  0  0  0
   42.3633   34.0394   39.4101 H   0  0  0  0  0  0  0  0  0  0  0  0
   43.9899   34.3323   38.0601 H   0  0  0  0  0  0  0  0  0  0  0  0
   43.8677   32.5434   37.6262 H   0  0  0  0  0  0  0  0  0  0  0  0
   45.5649   31.9512   38.9747 H   0  0  0  0  0  0  0  0  0  0  0  0
   46.0919   33.5589   38.2383 H   0  0  0  0  0  0  0  0  0  0  0  0
   46.0112   34.6570   40.2201 H   0  0  0  0  0  0  0  0  0  0  0  0
   44.6430   37.1520   44.0975 H   0  0  0  0  0  0  0  0  0  0  0  0
   44.3024   36.2366   41.8068 H   0  0  0  0  0  0  0  0  0  0  0  0
   45.5144   33.2905   45.5465 H   0  0  0  0  0  0  0  0  0  0  0  0
   49.2815   34.5077   39.6109 H   0  0  0  0  0  0  0  0  0  0  0  0
   49.8748   35.8292   41.3207 H   0  0  0  0  0  0  0  0  0  0  0  0
   48.3188   36.5420   40.9360 H   0  0  0  0  0  0  0  0  0  0  0  0
   48.6881   35.6608   43.4109 H   0  0  0  0  0  0  0  0  0  0  0  0
   47.1823   35.1802   42.6668 H   0  0  0  0  0  0  0  0  0  0  0  0
   49.8127   33.6008   42.9022 H   0  0  0  0  0  0  0  0  0  0  0  0
   48.2291   33.0014   43.2695 H   0  0  0  0  0  0  0  0  0  0  0  0
   51.6629   30.5775   38.9246 H   0  0  0  0  0  0  0  0  0  0  0  0
   52.6957   31.2694   41.2845 H   0  0  0  0  0  0  0  0  0  0  0  0
   50.9611   32.8886   42.5907 H   0  0  0  0  0  0  0  0  0  0  0  0
  1  9  1  0
  2  1  1  0
  3  2  1  0
  4  5  1  0
  4  3  1  0
  5  6  1  0
  6 13  1  0
  6  1  1  0
  7 12  2  0
  8  7  1  0
  9  8  2  0
  9 10  1  0
 10 11  2  0
 11 12  1  0
 14 18  1  0
 14 15  1  0
 15 16  1  0
 16 17  1  0
 18 13  1  1
 18 17  1  0
 19 18  1  0
 19 23  1  0
 20 21  2  0
 20 19  1  0
 21 22  1  0
 22 23  2  0
  2 24  1  0
  2 25  1  0
  3 26  1  0
  3 27  1  0
  4 28  1  0
  4 29  1  0
  5 30  1  0
  5 31  1  0
  6 32  1  6
  7 33  1  0
  8 34  1  0
 11 35  1  0
 14 36  1  0
 15 37  1  0
 15 38  1  0
 16 39  1  0
 16 40  1  0
 17 41  1  0
 17 42  1  0
 21 43  1  0
 22 44  1  0
 23 45  1  0
M  ISO  8  24  13  25  13  26  13  27  13  28  13  29  13  30  13  31  13
M  ISO  8  32  13  33  14  34  14  35  14  36   5  37  13  38  13  39  13
M  ISO  6  40  13  41  13  42  13  43  14  44  14  45  14
M  END
>  <minimizedAffinity>  (1) 
-5.14369059

>  <minimizedRMSD>  (1) 
4.89529896

$$$$
