
     RDKit          3D

 50 53  0  0  1  0  0  0  0  0999 V2000
   46.8870   34.1880   41.0050 N   0  0  0  0  0  0  0  0  0  0  0  0
   47.9540   34.5700   40.1410 C   0  0  0  0  0  0  0  0  0  0  0  0
   48.8770   35.5950   40.6900 C   0  0  0  0  0  0  0  0  0  0  0  0
   49.0780   35.5400   42.1800 C   0  0  0  0  0  0  0  0  0  0  0  0
   48.4910   34.3510   42.8400 C   0  0  0  0  0  0  0  0  0  0  0  0
   47.1150   33.9340   42.3980 C   0  0  2  0  0  0  0  0  0  0  0  0
   43.1970   34.4900   40.4860 C   0  0  0  0  0  0  0  0  0  0  0  0
   44.4580   34.7670   40.9860 C   0  0  0  0  0  0  0  0  0  0  0  0
   45.5430   34.0250   40.5800 C   0  0  0  0  0  0  0  0  0  0  0  0
   45.2970   33.0240   39.6770 N   0  0  0  0  0  0  0  0  0  0  0  0
   44.0740   32.7710   39.2060 C   0  0  0  0  0  0  0  0  0  0  0  0
   43.0220   33.5010   39.6080 N   0  0  0  0  0  0  0  0  0  0  0  0
   47.0380   32.1260   42.6900 S   0  0  0  0  0  0  0  0  0  0  0  0
   44.4820   32.3890   43.2220 N   0  0  0  0  0  0  0  0  0  0  0  0
   43.5010   31.4430   42.7490 C   0  0  0  0  0  0  0  0  0  0  0  0
   44.3430   30.2680   42.2850 C   0  0  0  0  0  0  0  0  0  0  0  0
   45.3520   30.1970   43.4110 C   0  0  0  0  0  0  0  0  0  0  0  0
   45.6220   31.6700   43.6890 C   0  0  1  0  0  0  0  0  0  0  0  0
   45.7480   31.8940   45.1020 N   0  0  0  0  0  0  0  0  0  0  0  0
   45.7870   30.5620   45.7920 C   0  0  0  0  0  0  0  0  0  0  0  0
   45.8570   31.1020   47.2290 C   0  0  0  0  0  0  0  0  0  0  0  0
   46.7050   32.3760   47.0860 C   0  0  0  0  0  0  0  0  0  0  0  0
   47.0340   32.3470   45.5780 C   0  0  0  0  0  0  0  0  0  0  0  0
   47.5152   34.9687   39.2144 H   0  0  0  0  0  0  0  0  0  0  0  0
   48.5602   33.6652   39.9868 H   0  0  0  0  0  0  0  0  0  0  0  0
   49.8574   35.4635   40.2088 H   0  0  0  0  0  0  0  0  0  0  0  0
   48.4128   36.5697   40.4792 H   0  0  0  0  0  0  0  0  0  0  0  0
   50.1596   35.5441   42.3803 H   0  0  0  0  0  0  0  0  0  0  0  0
   48.5576   36.4152   42.5963 H   0  0  0  0  0  0  0  0  0  0  0  0
   49.1684   33.5033   42.6599 H   0  0  0  0  0  0  0  0  0  0  0  0
   48.3771   34.6376   43.8959 H   0  0  0  0  0  0  0  0  0  0  0  0
   46.3527   34.5021   42.9513 H   0  0  0  0  0  0  0  0  0  0  0  0
   42.3347   35.0887   40.8145 H   0  0  0  0  0  0  0  0  0  0  0  0
   44.5929   35.5835   41.7107 H   0  0  0  0  0  0  0  0  0  0  0  0
   43.9269   31.9565   38.4815 H   0  0  0  0  0  0  0  0  0  0  0  0
   44.0839   32.9456   43.9918 H   0  0  0  0  0  0  0  0  0  0  0  0
   42.8197   31.1438   43.5591 H   0  0  0  0  0  0  0  0  0  0  0  0
   42.8576   31.8510   41.9556 H   0  0  0  0  0  0  0  0  0  0  0  0
   43.7488   29.3451   42.2121 H   0  0  0  0  0  0  0  0  0  0  0  0
   44.7797   30.3822   41.2819 H   0  0  0  0  0  0  0  0  0  0  0  0
   44.9305   29.6945   44.2941 H   0  0  0  0  0  0  0  0  0  0  0  0
   46.2549   29.6205   43.1612 H   0  0  0  0  0  0  0  0  0  0  0  0
   44.8806   29.9661   45.6094 H   0  0  0  0  0  0  0  0  0  0  0  0
   46.5852   29.8701   45.4851 H   0  0  0  0  0  0  0  0  0  0  0  0
   44.8527   31.3377   47.6109 H   0  0  0  0  0  0  0  0  0  0  0  0
   46.2822   30.3790   47.9407 H   0  0  0  0  0  0  0  0  0  0  0  0
   46.1315   33.2748   47.3566 H   0  0  0  0  0  0  0  0  0  0  0  0
   47.5881   32.4073   47.7410 H   0  0  0  0  0  0  0  0  0  0  0  0
   47.8401   31.6371   45.3407 H   0  0  0  0  0  0  0  0  0  0  0  0
   47.4051   33.2881   45.1461 H   0  0  0  0  0  0  0  0  0  0  0  0
  1  6  1  0
  2  3  1  0
  2  1  1  0
  3  4  1  0
  4  5  1  0
  6 13  1  0
  6  5  1  0
  7  8  2  0
  9  8  1  0
  9  1  1  0
 10  9  2  0
 11 12  2  0
 11 10  1  0
 12  7  1  0
 14 18  1  0
 15 14  1  0
 16 15  1  0
 16 17  1  0
 17 18  1  0
 18 13  1  6
 18 19  1  0
 19 23  1  0
 19 20  1  0
 20 21  1  0
 22 21  1  0
 23 22  1  0
  2 24  1  0
  2 25  1  0
  3 26  1  0
  3 27  1  0
  4 28  1  0
  4 29  1  0
  5 30  1  0
  5 31  1  0
  6 32  1  1
  7 33  1  0
  8 34  1  0
 11 35  1  0
 14 36  1  0
 15 37  1  0
 15 38  1  0
 16 39  1  0
 16 40  1  0
 17 41  1  0
 17 42  1  0
 20 43  1  0
 20 44  1  0
 21 45  1  0
 21 46  1  0
 22 47  1  0
 22 48  1  0
 23 49  1  0
 23 50  1  0
M  ISO  8  24  13  25  13  26  13  27  13  28  13  29  13  30  13  31  13
M  ISO  8  32  13  33  14  34  14  35  14  36   5  37  13  38  13  39  13
M  ISO  8  40  13  41  13  42  13  43  13  44  13  45  13  46  13  47  13
M  ISO  3  48  13  49  13  50  13
M  END
>  <minimizedAffinity>  (1) 
-4.88212347

>  <minimizedRMSD>  (1) 
7.83948517

$$$$
