
     RDKit          3D

 45 48  0  0  1  0  0  0  0  0999 V2000
   43.2740   33.7840   40.8530 N   0  0  0  0  0  0  0  0  0  0  0  0
   41.9250   33.2940   40.9930 C   0  0  0  0  0  0  0  0  0  0  0  0
   40.9960   33.7590   39.9250 C   0  0  0  0  0  0  0  0  0  0  0  0
   41.6140   33.9100   38.5810 C   0  0  0  0  0  0  0  0  0  0  0  0
   42.9980   33.3590   38.4730 C   0  0  0  0  0  0  0  0  0  0  0  0
   43.9420   33.7760   39.5760 C   0  0  2  0  0  0  0  0  0  0  0  0
   45.1310   35.9350   43.2710 C   0  0  0  0  0  0  0  0  0  0  0  0
   44.3770   35.6000   42.1480 C   0  0  0  0  0  0  0  0  0  0  0  0
   44.0270   34.2890   41.9350 C   0  0  0  0  0  0  0  0  0  0  0  0
   44.4620   33.3860   42.8750 N   0  0  0  0  0  0  0  0  0  0  0  0
   45.1830   33.7200   43.9450 C   0  0  0  0  0  0  0  0  0  0  0  0
   45.5170   34.9980   44.1410 N   0  0  0  0  0  0  0  0  0  0  0  0
   45.2020   32.4400   39.5930 S   0  0  0  0  0  0  0  0  0  0  0  0
   46.9290   34.3850   39.8860 N   0  0  0  0  0  0  0  0  0  0  0  0
   47.8920   34.4000   40.9560 C   0  0  0  0  0  0  0  0  0  0  0  0
   47.8440   32.9920   41.4930 C   0  0  0  0  0  0  0  0  0  0  0  0
   47.7690   32.1660   40.2320 C   0  0  0  0  0  0  0  0  0  0  0  0
   46.8600   33.0850   39.3550 C   0  0  1  0  0  0  0  0  0  0  0  0
   47.4550   33.0270   38.0220 C   0  0  0  0  0  0  0  0  0  0  0  0
   48.6800   33.4750   37.5090 C   0  0  0  0  0  0  0  0  0  0  0  0
   48.6310   33.1240   36.1650 C   0  0  0  0  0  0  0  0  0  0  0  0
   47.4190   32.5070   35.9500 C   0  0  0  0  0  0  0  0  0  0  0  0
   46.7180   32.4490   37.0630 O   0  0  0  0  0  0  0  0  0  0  0  0
   41.9527   32.1945   40.9723 H   0  0  0  0  0  0  0  0  0  0  0  0
   41.5400   33.6910   41.9439 H   0  0  0  0  0  0  0  0  0  0  0  0
   40.1758   33.0304   39.8443 H   0  0  0  0  0  0  0  0  0  0  0  0
   40.6586   34.7623   40.2243 H   0  0  0  0  0  0  0  0  0  0  0  0
   40.9784   33.3894   37.8496 H   0  0  0  0  0  0  0  0  0  0  0  0
   41.6905   34.9906   38.3902 H   0  0  0  0  0  0  0  0  0  0  0  0
   42.9292   32.2612   38.4804 H   0  0  0  0  0  0  0  0  0  0  0  0
   43.4175   33.7656   37.5410 H   0  0  0  0  0  0  0  0  0  0  0  0
   44.3486   34.7844   39.4092 H   0  0  0  0  0  0  0  0  0  0  0  0
   45.4119   36.9845   43.4431 H   0  0  0  0  0  0  0  0  0  0  0  0
   44.0645   36.3795   41.4376 H   0  0  0  0  0  0  0  0  0  0  0  0
   45.5007   32.9483   44.6617 H   0  0  0  0  0  0  0  0  0  0  0  0
   46.0049   34.6602   40.2484 H   0  0  0  0  0  0  0  0  0  0  0  0
   48.8961   34.6425   40.5778 H   0  0  0  0  0  0  0  0  0  0  0  0
   47.6699   35.1581   41.7215 H   0  0  0  0  0  0  0  0  0  0  0  0
   48.7499   32.7553   42.0704 H   0  0  0  0  0  0  0  0  0  0  0  0
   47.0077   32.8141   42.1851 H   0  0  0  0  0  0  0  0  0  0  0  0
   48.7611   32.0223   39.7792 H   0  0  0  0  0  0  0  0  0  0  0  0
   47.3923   31.1421   40.3722 H   0  0  0  0  0  0  0  0  0  0  0  0
   49.4925   33.9863   38.0460 H   0  0  0  0  0  0  0  0  0  0  0  0
   49.4139   33.3052   35.4138 H   0  0  0  0  0  0  0  0  0  0  0  0
   47.0818   32.1152   34.9790 H   0  0  0  0  0  0  0  0  0  0  0  0
  1  2  1  0
  1  9  1  0
  3  2  1  0
  4  3  1  0
  5  4  1  0
  5  6  1  0
  6 13  1  0
  6  1  1  0
  7 12  2  0
  8  7  1  0
  9  8  2  0
  9 10  1  0
 10 11  2  0
 11 12  1  0
 14 15  1  0
 15 16  1  0
 17 16  1  0
 18 13  1  6
 18 14  1  0
 18 17  1  0
 19 18  1  0
 20 19  2  0
 21 20  1  0
 22 21  2  0
 22 23  1  0
 23 19  1  0
  2 24  1  0
  2 25  1  0
  3 26  1  0
  3 27  1  0
  4 28  1  0
  4 29  1  0
  5 30  1  0
  5 31  1  0
  6 32  1  6
  7 33  1  0
  8 34  1  0
 11 35  1  0
 14 36  1  0
 15 37  1  0
 15 38  1  0
 16 39  1  0
 16 40  1  0
 17 41  1  0
 17 42  1  0
 20 43  1  0
 21 44  1  0
 22 45  1  0
M  ISO  8  24  13  25  13  26  13  27  13  28  13  29  13  30  13  31  13
M  ISO  8  32  13  33  14  34  14  35  14  36   5  37  13  38  13  39  13
M  ISO  6  40  13  41  13  42  13  43  14  44  14  45  14
M  END
>  <minimizedAffinity>  (1) 
-4.70133495

>  <minimizedRMSD>  (1) 
4.66727734

$$$$
