
     RDKit          3D

 49 53  0  0  1  0  0  0  0  0999 V2000
   46.4620   33.3820   40.0890 N   0  0  0  0  0  0  0  0  0  0  0  0
   45.1380   33.1010   40.5640 C   0  0  0  0  0  0  0  0  0  0  0  0
   44.0560   33.4890   39.6120 C   0  0  0  0  0  0  0  0  0  0  0  0
   44.3970   33.2980   38.1780 C   0  0  0  0  0  0  0  0  0  0  0  0
   45.6880   32.5820   37.9250 C   0  0  0  0  0  0  0  0  0  0  0  0
   46.8600   33.0650   38.7410 C   0  0  2  0  0  0  0  0  0  0  0  0
   49.1560   35.5680   41.4930 C   0  0  0  0  0  0  0  0  0  0  0  0
   48.1980   35.1030   40.5930 C   0  0  0  0  0  0  0  0  0  0  0  0
   47.4640   33.9810   40.8890 C   0  0  0  0  0  0  0  0  0  0  0  0
   47.7400   33.3820   42.0900 N   0  0  0  0  0  0  0  0  0  0  0  0
   48.6600   33.8340   42.9460 C   0  0  0  0  0  0  0  0  0  0  0  0
   49.3650   34.9250   42.6450 N   0  0  0  0  0  0  0  0  0  0  0  0
   47.9720   31.6070   38.7920 S   0  0  0  0  0  0  0  0  0  0  0  0
   50.0910   32.5260   37.5820 N   0  0  0  0  0  0  0  0  0  0  0  0
   51.3660   31.8610   37.6180 C   0  0  0  0  0  0  0  0  0  0  0  0
   51.0270   30.5210   38.2210 C   0  0  0  0  0  0  0  0  0  0  0  0
   49.7690   30.1600   37.4630 C   0  0  0  0  0  0  0  0  0  0  0  0
   49.0820   31.5580   37.3890 C   0  0  1  0  0  0  0  0  0  0  0  0
   48.5330   31.6670   36.0630 N   0  0  0  0  0  0  0  0  0  0  0  0
   48.8290   32.7110   35.2220 C   0  0  0  0  0  0  0  0  0  0  0  0
   48.1940   32.4870   34.0630 N   0  0  0  0  0  0  0  0  0  0  0  0
   47.5370   31.3450   34.2020 C   0  0  0  0  0  0  0  0  0  0  0  0
   46.7150   30.6350   33.3200 C   0  0  0  0  0  0  0  0  0  0  0  0
   46.1390   29.4710   33.6820 N   0  0  0  0  0  0  0  0  0  0  0  0
   46.3480   28.9600   34.9230 C   0  0  0  0  0  0  0  0  0  0  0  0
   47.1400   29.6050   35.8280 N   0  0  0  0  0  0  0  0  0  0  0  0
   47.7050   30.7650   35.4470 C   0  0  0  0  0  0  0  0  0  0  0  0
   45.0607   32.0202   40.7535 H   0  0  0  0  0  0  0  0  0  0  0  0
   44.9921   33.7022   41.4735 H   0  0  0  0  0  0  0  0  0  0  0  0
   43.1667   32.8820   39.8372 H   0  0  0  0  0  0  0  0  0  0  0  0
   43.8887   34.5671   39.7522 H   0  0  0  0  0  0  0  0  0  0  0  0
   43.5879   32.7190   37.7089 H   0  0  0  0  0  0  0  0  0  0  0  0
   44.5155   34.3056   37.7530 H   0  0  0  0  0  0  0  0  0  0  0  0
   45.5350   31.5156   38.1471 H   0  0  0  0  0  0  0  0  0  0  0  0
   45.9457   32.7791   36.8739 H   0  0  0  0  0  0  0  0  0  0  0  0
   47.3131   33.9716   38.3135 H   0  0  0  0  0  0  0  0  0  0  0  0
   49.7418   36.4677   41.2535 H   0  0  0  0  0  0  0  0  0  0  0  0
   48.0301   35.6354   39.6452 H   0  0  0  0  0  0  0  0  0  0  0  0
   48.8356   33.3081   43.8961 H   0  0  0  0  0  0  0  0  0  0  0  0
   49.9322   33.0197   38.4719 H   0  0  0  0  0  0  0  0  0  0  0  0
   51.7818   31.7463   36.6061 H   0  0  0  0  0  0  0  0  0  0  0  0
   52.1294   32.4134   38.1856 H   0  0  0  0  0  0  0  0  0  0  0  0
   51.8271   29.7869   38.0449 H   0  0  0  0  0  0  0  0  0  0  0  0
   50.9030   30.5390   39.3138 H   0  0  0  0  0  0  0  0  0  0  0  0
   49.9957   29.7638   36.4622 H   0  0  0  0  0  0  0  0  0  0  0  0
   49.1603   29.3703   37.9277 H   0  0  0  0  0  0  0  0  0  0  0  0
   49.4701   33.5736   35.4564 H   0  0  0  0  0  0  0  0  0  0  0  0
   46.5351   31.0345   32.3110 H   0  0  0  0  0  0  0  0  0  0  0  0
   45.8705   28.0096   35.2035 H   0  0  0  0  0  0  0  0  0  0  0  0
  1  2  1  0
  1  9  1  0
  3  2  1  0
  4  3  1  0
  5  4  1  0
  5  6  1  0
  6 13  1  0
  6  1  1  0
  7 12  2  0
  8  9  2  0
  8  7  1  0
  9 10  1  0
 10 11  2  0
 12 11  1  0
 14 15  1  0
 15 16  1  0
 17 16  1  0
 18 17  1  0
 18 14  1  0
 18 13  1  1
 19 18  1  0
 20 19  1  0
 21 22  1  0
 21 20  2  0
 22 27  2  0
 23 24  2  0
 23 22  1  0
 24 25  1  0
 25 26  2  0
 27 26  1  0
 27 19  1  0
  2 28  1  0
  2 29  1  0
  3 30  1  0
  3 31  1  0
  4 32  1  0
  4 33  1  0
  5 34  1  0
  5 35  1  0
  6 36  1  6
  7 37  1  0
  8 38  1  0
 11 39  1  0
 14 40  1  0
 15 41  1  0
 15 42  1  0
 16 43  1  0
 16 44  1  0
 17 45  1  0
 17 46  1  0
 20 47  1  0
 23 48  1  0
 25 49  1  0
M  ISO  8  28  13  29  13  30  13  31  13  32  13  33  13  34  13  35  13
M  ISO  8  36  13  37  14  38  14  39  14  40   5  41  13  42  13  43  13
M  ISO  6  44  13  45  13  46  13  47  14  48  14  49  14
M  END
>  <minimizedAffinity>  (1) 
-4.67092133

>  <minimizedRMSD>  (1) 
2.14294577

$$$$
