
     RDKit          3D

 45 48  0  0  1  0  0  0  0  0999 V2000
   47.4130   34.0380   41.3600 N   0  0  0  0  0  0  0  0  0  0  0  0
   46.7630   35.1900   41.9160 C   0  0  0  0  0  0  0  0  0  0  0  0
   45.9250   34.8900   43.1150 C   0  0  0  0  0  0  0  0  0  0  0  0
   46.4860   33.8460   44.0110 C   0  0  0  0  0  0  0  0  0  0  0  0
   47.8520   33.3540   43.6510 C   0  0  0  0  0  0  0  0  0  0  0  0
   48.0830   33.0720   42.1940 C   0  0  2  0  0  0  0  0  0  0  0  0
   46.9300   32.6130   37.9340 C   0  0  0  0  0  0  0  0  0  0  0  0
   46.7920   32.7510   39.3150 C   0  0  0  0  0  0  0  0  0  0  0  0
   47.4470   33.7660   39.9710 C   0  0  0  0  0  0  0  0  0  0  0  0
   48.2110   34.5910   39.1900 N   0  0  0  0  0  0  0  0  0  0  0  0
   48.3370   34.4500   37.8690 C   0  0  0  0  0  0  0  0  0  0  0  0
   47.6950   33.4590   37.2420 N   0  0  0  0  0  0  0  0  0  0  0  0
   49.8940   33.2940   41.9890 S   0  0  0  0  0  0  0  0  0  0  0  0
   51.7500   31.5230   42.4810 N   0  0  0  0  0  0  0  0  0  0  0  0
   51.4850   30.2930   43.1710 C   0  0  0  0  0  0  0  0  0  0  0  0
   49.9780   30.2130   43.1700 C   0  0  0  0  0  0  0  0  0  0  0  0
   49.6370   30.6550   41.7680 C   0  0  0  0  0  0  0  0  0  0  0  0
   50.7130   31.7680   41.5600 C   0  0  1  0  0  0  0  0  0  0  0  0
   51.1870   31.5870   40.2020 N   0  0  0  0  0  0  0  0  0  0  0  0
   52.5020   31.4740   39.8310 C   0  0  0  0  0  0  0  0  0  0  0  0
   52.3840   31.3680   38.4550 C   0  0  0  0  0  0  0  0  0  0  0  0
   51.1180   31.4120   38.0340 N   0  0  0  0  0  0  0  0  0  0  0  0
   50.3390   31.5500   39.1230 C   0  0  0  0  0  0  0  0  0  0  0  0
   47.5353   35.9176   42.2061 H   0  0  0  0  0  0  0  0  0  0  0  0
   46.0860   35.5803   41.1418 H   0  0  0  0  0  0  0  0  0  0  0  0
   45.8116   35.8171   43.6960 H   0  0  0  0  0  0  0  0  0  0  0  0
   44.9679   34.4994   42.7390 H   0  0  0  0  0  0  0  0  0  0  0  0
   46.5329   34.2620   45.0282 H   0  0  0  0  0  0  0  0  0  0  0  0
   45.8179   32.9772   43.9174 H   0  0  0  0  0  0  0  0  0  0  0  0
   48.5792   34.1166   43.9664 H   0  0  0  0  0  0  0  0  0  0  0  0
   47.9658   32.3875   44.1637 H   0  0  0  0  0  0  0  0  0  0  0  0
   47.7093   32.0773   41.9096 H   0  0  0  0  0  0  0  0  0  0  0  0
   46.4041   31.8004   37.4114 H   0  0  0  0  0  0  0  0  0  0  0  0
   46.1600   32.0487   39.8784 H   0  0  0  0  0  0  0  0  0  0  0  0
   48.9673   35.1472   37.2976 H   0  0  0  0  0  0  0  0  0  0  0  0
   51.7978   32.2959   43.1601 H   0  0  0  0  0  0  0  0  0  0  0  0
   51.9255   29.4384   42.6365 H   0  0  0  0  0  0  0  0  0  0  0  0
   51.9172   30.2645   44.1821 H   0  0  0  0  0  0  0  0  0  0  0  0
   49.6329   29.1859   43.3596 H   0  0  0  0  0  0  0  0  0  0  0  0
   49.5027   30.8219   43.9532 H   0  0  0  0  0  0  0  0  0  0  0  0
   49.7527   29.8358   41.0430 H   0  0  0  0  0  0  0  0  0  0  0  0
   48.5974   30.9863   41.6285 H   0  0  0  0  0  0  0  0  0  0  0  0
   53.4065   31.4689   40.4570 H   0  0  0  0  0  0  0  0  0  0  0  0
   53.2448   31.2588   37.7789 H   0  0  0  0  0  0  0  0  0  0  0  0
   49.2414   31.6193   39.1442 H   0  0  0  0  0  0  0  0  0  0  0  0
  1  2  1  0
  1  6  1  0
  2  3  1  0
  3  4  1  0
  5  4  1  0
  6  5  1  0
  7  8  2  0
  8  9  1  0
  9  1  1  0
 10  9  2  0
 11 10  1  0
 12 11  2  0
 12  7  1  0
 13  6  1  0
 14 15  1  0
 16 15  1  0
 17 16  1  0
 18 17  1  0
 18 13  1  6
 18 14  1  0
 19 18  1  0
 20 19  1  0
 21 20  2  0
 22 21  1  0
 22 23  2  0
 23 19  1  0
  2 24  1  0
  2 25  1  0
  3 26  1  0
  3 27  1  0
  4 28  1  0
  4 29  1  0
  5 30  1  0
  5 31  1  0
  6 32  1  6
  7 33  1  0
  8 34  1  0
 11 35  1  0
 14 36  1  0
 15 37  1  0
 15 38  1  0
 16 39  1  0
 16 40  1  0
 17 41  1  0
 17 42  1  0
 20 43  1  0
 21 44  1  0
 23 45  1  0
M  ISO  8  24  13  25  13  26  13  27  13  28  13  29  13  30  13  31  13
M  ISO  8  32  13  33  14  34  14  35  14  36   5  37  13  38  13  39  13
M  ISO  6  40  13  41  13  42  13  43  14  44  14  45  14
M  END
>  <minimizedAffinity>  (1) 
-4.59433413

>  <minimizedRMSD>  (1) 
4.70591259

$$$$
