
     RDKit          3D

 47 49  0  0  1  0  0  0  0  0999 V2000
   47.8200   33.2470   39.4290 N   0  0  0  0  0  0  0  0  0  0  0  0
   46.4500   32.8610   39.4030 C   0  0  0  0  0  0  0  0  0  0  0  0
   45.7520   33.1170   38.1170 C   0  0  0  0  0  0  0  0  0  0  0  0
   46.5940   32.9290   36.9140 C   0  0  0  0  0  0  0  0  0  0  0  0
   47.9670   32.3920   37.1480 C   0  0  0  0  0  0  0  0  0  0  0  0
   48.7050   32.9340   38.3410 C   0  0  2  0  0  0  0  0  0  0  0  0
   49.2450   35.8470   41.7100 C   0  0  0  0  0  0  0  0  0  0  0  0
   48.6430   35.3020   40.5870 C   0  0  0  0  0  0  0  0  0  0  0  0
   48.4190   33.9520   40.5010 C   0  0  0  0  0  0  0  0  0  0  0  0
   48.8220   33.2020   41.5740 N   0  0  0  0  0  0  0  0  0  0  0  0
   49.4030   33.7390   42.6560 C   0  0  0  0  0  0  0  0  0  0  0  0
   49.6140   35.0600   42.7250 N   0  0  0  0  0  0  0  0  0  0  0  0
   49.8130   31.5840   38.8430 S   0  0  0  0  0  0  0  0  0  0  0  0
   51.9980   32.3360   37.7220 N   0  0  0  0  0  0  0  0  0  0  0  0
   53.3010   31.9030   38.1300 C   0  0  0  0  0  0  0  0  0  0  0  0
   53.0060   30.7550   39.0600 C   0  0  0  0  0  0  0  0  0  0  0  0
   51.8910   30.0380   38.3620 C   0  0  0  0  0  0  0  0  0  0  0  0
   51.1310   31.2400   37.7190 C   0  0  1  0  0  0  0  0  0  0  0  0
   50.8900   30.7450   36.3520 C   0  0  0  0  0  0  0  0  0  0  0  0
   52.1590   30.1680   35.7110 C   0  0  0  0  0  0  0  0  0  0  0  0
   49.9770   29.5460   36.3960 C   0  0  0  0  0  0  0  0  0  0  0  0
   46.3949   31.7826   39.6129 H   0  0  0  0  0  0  0  0  0  0  0  0
   45.9414   33.4783   40.1581 H   0  0  0  0  0  0  0  0  0  0  0  0
   44.8958   32.4299   38.0480 H   0  0  0  0  0  0  0  0  0  0  0  0
   45.4538   34.1757   38.1280 H   0  0  0  0  0  0  0  0  0  0  0  0
   46.6956   33.9063   36.4194 H   0  0  0  0  0  0  0  0  0  0  0  0
   46.0789   32.1673   36.3102 H   0  0  0  0  0  0  0  0  0  0  0  0
   47.8828   31.3025   37.2738 H   0  0  0  0  0  0  0  0  0  0  0  0
   48.5557   32.7068   36.2737 H   0  0  0  0  0  0  0  0  0  0  0  0
   49.2288   33.8676   38.0879 H   0  0  0  0  0  0  0  0  0  0  0  0
   49.4198   36.9316   41.7661 H   0  0  0  0  0  0  0  0  0  0  0  0
   48.3422   35.9584   39.7571 H   0  0  0  0  0  0  0  0  0  0  0  0
   49.7080   33.0917   43.4914 H   0  0  0  0  0  0  0  0  0  0  0  0
   51.6502   33.0489   38.3791 H   0  0  0  0  0  0  0  0  0  0  0  0
   53.8941   31.5685   37.2661 H   0  0  0  0  0  0  0  0  0  0  0  0
   53.8925   32.7007   38.6031 H   0  0  0  0  0  0  0  0  0  0  0  0
   53.8846   30.1033   39.1756 H   0  0  0  0  0  0  0  0  0  0  0  0
   52.7452   31.0770   40.0790 H   0  0  0  0  0  0  0  0  0  0  0  0
   52.2712   29.3436   37.5982 H   0  0  0  0  0  0  0  0  0  0  0  0
   51.2739   29.4059   39.0175 H   0  0  0  0  0  0  0  0  0  0  0  0
   50.4927   31.6069   35.7959 H   0  0  0  0  0  0  0  0  0  0  0  0
   52.8567   29.8508   36.5001 H   0  0  0  0  0  0  0  0  0  0  0  0
   51.8933   29.3022   35.0867 H   0  0  0  0  0  0  0  0  0  0  0  0
   52.6368   30.9374   35.0867 H   0  0  0  0  0  0  0  0  0  0  0  0
   49.7733   29.2785   37.4434 H   0  0  0  0  0  0  0  0  0  0  0  0
   49.0312   29.7865   35.8884 H   0  0  0  0  0  0  0  0  0  0  0  0
   50.4604   28.6982   35.8884 H   0  0  0  0  0  0  0  0  0  0  0  0
  1  9  1  0
  2  1  1  0
  3  2  1  0
  4  5  1  0
  4  3  1  0
  5  6  1  0
  6 13  1  0
  6  1  1  0
  7 12  2  0
  8  7  1  0
  9  8  2  0
  9 10  1  0
 10 11  2  0
 11 12  1  0
 14 15  1  0
 15 16  1  0
 17 16  1  0
 18 19  1  0
 18 14  1  0
 18 17  1  0
 18 13  1  1
 19 21  1  0
 20 19  1  0
  2 22  1  0
  2 23  1  0
  3 24  1  0
  3 25  1  0
  4 26  1  0
  4 27  1  0
  5 28  1  0
  5 29  1  0
  6 30  1  6
  7 31  1  0
  8 32  1  0
 11 33  1  0
 14 34  1  0
 15 35  1  0
 15 36  1  0
 16 37  1  0
 16 38  1  0
 17 39  1  0
 17 40  1  0
 19 41  1  0
 20 42  1  0
 20 43  1  0
 20 44  1  0
 21 45  1  0
 21 46  1  0
 21 47  1  0
M  ISO  8  22  13  23  13  24  13  25  13  26  13  27  13  28  13  29  13
M  ISO  8  30  13  31  14  32  14  33  14  34   5  35  13  36  13  37  13
M  ISO  8  38  13  39  13  40  13  41   8  42   8  43   8  44   8  45   8
M  ISO  2  46   8  47   8
M  END
>  <minimizedAffinity>  (1) 
-4.31832647

>  <minimizedRMSD>  (1) 
0.804232597

$$$$
