
     RDKit          3D

 44 46  0  0  1  0  0  0  0  0999 V2000
   47.8060   33.1770   39.4990 N   0  0  0  0  0  0  0  0  0  0  0  0
   46.4430   32.7700   39.5490 C   0  0  0  0  0  0  0  0  0  0  0  0
   45.6770   32.9930   38.3010 C   0  0  0  0  0  0  0  0  0  0  0  0
   46.4700   32.7830   37.0530 C   0  0  0  0  0  0  0  0  0  0  0  0
   47.8490   32.2460   37.2430 C   0  0  0  0  0  0  0  0  0  0  0  0
   48.6400   32.8560   38.3690 C   0  0  2  0  0  0  0  0  0  0  0  0
   49.2230   35.8500   41.7000 C   0  0  0  0  0  0  0  0  0  0  0  0
   48.5640   35.2710   40.6280 C   0  0  0  0  0  0  0  0  0  0  0  0
   48.4440   33.9080   40.5260 C   0  0  0  0  0  0  0  0  0  0  0  0
   49.0110   33.1850   41.5440 N   0  0  0  0  0  0  0  0  0  0  0  0
   49.6440   33.7490   42.5730 C   0  0  0  0  0  0  0  0  0  0  0  0
   49.7510   35.0800   42.6550 N   0  0  0  0  0  0  0  0  0  0  0  0
   49.8080   31.5340   38.8650 S   0  0  0  0  0  0  0  0  0  0  0  0
   52.0370   32.3220   37.7550 N   0  0  0  0  0  0  0  0  0  0  0  0
   53.3150   31.7670   38.1560 C   0  0  0  0  0  0  0  0  0  0  0  0
   52.9470   30.5220   38.9190 C   0  0  0  0  0  0  0  0  0  0  0  0
   51.8110   29.9640   38.0970 C   0  0  0  0  0  0  0  0  0  0  0  0
   51.1100   31.2770   37.6560 C   0  0  1  0  0  0  0  0  0  0  0  0
   50.7290   31.1340   36.2340 C   0  0  0  0  0  0  0  0  0  0  0  0
   51.3140   29.8500   35.6710 C   0  0  0  0  0  0  0  0  0  0  0  0
   46.4162   31.6945   39.7783 H   0  0  0  0  0  0  0  0  0  0  0  0
   45.9642   33.3927   40.3190 H   0  0  0  0  0  0  0  0  0  0  0  0
   44.8248   32.2976   38.2899 H   0  0  0  0  0  0  0  0  0  0  0  0
   45.3647   34.0477   38.3047 H   0  0  0  0  0  0  0  0  0  0  0  0
   46.5529   33.7518   36.5387 H   0  0  0  0  0  0  0  0  0  0  0  0
   45.9274   32.0172   36.4794 H   0  0  0  0  0  0  0  0  0  0  0  0
   47.7672   31.1659   37.4344 H   0  0  0  0  0  0  0  0  0  0  0  0
   48.3968   32.4970   36.3227 H   0  0  0  0  0  0  0  0  0  0  0  0
   49.1234   33.7916   38.0513 H   0  0  0  0  0  0  0  0  0  0  0  0
   49.3115   36.9445   41.7648 H   0  0  0  0  0  0  0  0  0  0  0  0
   48.1306   35.9132   39.8472 H   0  0  0  0  0  0  0  0  0  0  0  0
   50.0810   33.1160   43.3594 H   0  0  0  0  0  0  0  0  0  0  0  0
   51.7182   33.0037   38.4583 H   0  0  0  0  0  0  0  0  0  0  0  0
   53.9275   31.5200   37.2763 H   0  0  0  0  0  0  0  0  0  0  0  0
   53.9131   32.4697   38.7547 H   0  0  0  0  0  0  0  0  0  0  0  0
   53.7907   29.8175   38.9623 H   0  0  0  0  0  0  0  0  0  0  0  0
   52.6787   30.7122   39.9687 H   0  0  0  0  0  0  0  0  0  0  0  0
   52.1782   29.3898   37.2336 H   0  0  0  0  0  0  0  0  0  0  0  0
   51.1622   29.2554   38.6327 H   0  0  0  0  0  0  0  0  0  0  0  0
   49.6326   31.1028   36.1511 H   0  0  0  0  0  0  0  0  0  0  0  0
   51.1196   31.9909   35.6655 H   0  0  0  0  0  0  0  0  0  0  0  0
   51.6145   29.1903   36.4984 H   0  0  0  0  0  0  0  0  0  0  0  0
   50.5582   29.3426   35.0535 H   0  0  0  0  0  0  0  0  0  0  0  0
   52.1928   30.0873   35.0535 H   0  0  0  0  0  0  0  0  0  0  0  0
  1  2  1  0
  1  9  1  0
  3  2  1  0
  4  5  1  0
  4  3  1  0
  5  6  1  0
  6 13  1  0
  6  1  1  0
  7 12  2  0
  8  7  1  0
  9  8  2  0
  9 10  1  0
 10 11  2  0
 11 12  1  0
 14 15  1  0
 15 16  1  0
 17 16  1  0
 18 19  1  0
 18 14  1  0
 18 17  1  0
 18 13  1  1
 20 19  1  0
  2 21  1  0
  2 22  1  0
  3 23  1  0
  3 24  1  0
  4 25  1  0
  4 26  1  0
  5 27  1  0
  5 28  1  0
  6 29  1  6
  7 30  1  0
  8 31  1  0
 11 32  1  0
 14 33  1  0
 15 34  1  0
 15 35  1  0
 16 36  1  0
 16 37  1  0
 17 38  1  0
 17 39  1  0
 19 40  1  0
 19 41  1  0
 20 42  1  0
 20 43  1  0
 20 44  1  0
M  ISO  8  21  13  22  13  23  13  24  13  25  13  26  13  27  13  28  13
M  ISO  8  29  13  30  14  31  14  32  14  33   5  34  13  35  13  36  13
M  ISO  8  37  13  38  13  39  13  40   8  41   8  42   8  43   8  44   8
M  END
>  <minimizedAffinity>  (1) 
-4.29780769

>  <minimizedRMSD>  (1) 
0.542577207

$$$$
