
     RDKit          3D

 39 41  0  0  1  0  0  0  0  0999 V2000
   47.2610   33.2560   39.6440 N   0  0  0  0  0  0  0  0  0  0  0  0
   45.8890   32.8930   39.8180 C   0  0  0  0  0  0  0  0  0  0  0  0
   45.0180   33.1530   38.6450 C   0  0  0  0  0  0  0  0  0  0  0  0
   45.7000   33.0450   37.3080 C   0  0  0  0  0  0  0  0  0  0  0  0
   47.0530   32.4250   37.3490 C   0  0  0  0  0  0  0  0  0  0  0  0
   47.9520   32.8940   38.4430 C   0  0  2  0  0  0  0  0  0  0  0  0
   49.2210   35.7540   41.6110 C   0  0  0  0  0  0  0  0  0  0  0  0
   48.4670   35.2360   40.5590 C   0  0  0  0  0  0  0  0  0  0  0  0
   48.0330   33.9220   40.6290 C   0  0  0  0  0  0  0  0  0  0  0  0
   48.3850   33.1880   41.7440 N   0  0  0  0  0  0  0  0  0  0  0  0
   49.1240   33.7190   42.7350 C   0  0  0  0  0  0  0  0  0  0  0  0
   49.5310   34.9910   42.6750 N   0  0  0  0  0  0  0  0  0  0  0  0
   49.1270   31.5460   38.7930 S   0  0  0  0  0  0  0  0  0  0  0  0
   51.2930   32.4180   37.6380 N   0  0  0  0  0  0  0  0  0  0  0  0
   52.5900   31.8540   37.8960 C   0  0  0  0  0  0  0  0  0  0  0  0
   52.2710   30.5630   38.6230 C   0  0  0  0  0  0  0  0  0  0  0  0
   51.1010   30.0480   37.8040 C   0  0  0  0  0  0  0  0  0  0  0  0
   50.3560   31.3320   37.5250 C   0  0  1  0  0  0  0  0  0  0  0  0
   49.7830   31.2310   35.8470 S   0  0  0  0  0  0  0  0  0  0  0  0
   45.8465   31.8170   40.0428 H   0  0  0  0  0  0  0  0  0  0  0  0
   45.5047   33.5247   40.6324 H   0  0  0  0  0  0  0  0  0  0  0  0
   44.1921   32.4268   38.6660 H   0  0  0  0  0  0  0  0  0  0  0  0
   44.6849   34.1974   38.7359 H   0  0  0  0  0  0  0  0  0  0  0  0
   45.7996   34.0581   36.8912 H   0  0  0  0  0  0  0  0  0  0  0  0
   45.0733   32.3836   36.6917 H   0  0  0  0  0  0  0  0  0  0  0  0
   46.9226   31.3387   37.4625 H   0  0  0  0  0  0  0  0  0  0  0  0
   47.5452   32.7226   36.4113 H   0  0  0  0  0  0  0  0  0  0  0  0
   48.4558   33.8108   38.1029 H   0  0  0  0  0  0  0  0  0  0  0  0
   49.5662   36.7977   41.5708 H   0  0  0  0  0  0  0  0  0  0  0  0
   48.2206   35.8603   39.6875 H   0  0  0  0  0  0  0  0  0  0  0  0
   49.3960   33.1005   43.6030 H   0  0  0  0  0  0  0  0  0  0  0  0
   51.0195   33.0374   38.4142 H   0  0  0  0  0  0  0  0  0  0  0  0
   53.1270   31.6549   36.9568 H   0  0  0  0  0  0  0  0  0  0  0  0
   53.2430   32.5237   38.4748 H   0  0  0  0  0  0  0  0  0  0  0  0
   53.1204   29.8646   38.5968 H   0  0  0  0  0  0  0  0  0  0  0  0
   52.0533   30.6886   39.6939 H   0  0  0  0  0  0  0  0  0  0  0  0
   51.4394   29.5673   36.8743 H   0  0  0  0  0  0  0  0  0  0  0  0
   50.5005   29.2759   38.3074 H   0  0  0  0  0  0  0  0  0  0  0  0
   48.4338   30.9932   35.8387 H   0  0  0  0  0  0  0  0  0  0  0  0
  1  2  1  0
  1  9  1  0
  3  2  1  0
  4  5  1  0
  4  3  1  0
  5  6  1  0
  6 13  1  0
  6  1  1  0
  7 12  2  0
  8  9  2  0
  8  7  1  0
  9 10  1  0
 10 11  2  0
 12 11  1  0
 14 15  1  0
 15 16  1  0
 17 16  1  0
 18 19  1  6
 18 14  1  0
 18 17  1  0
 18 13  1  0
  2 20  1  0
  2 21  1  0
  3 22  1  0
  3 23  1  0
  4 24  1  0
  4 25  1  0
  5 26  1  0
  5 27  1  0
  6 28  1  6
  7 29  1  0
  8 30  1  0
 11 31  1  0
 14 32  1  0
 15 33  1  0
 15 34  1  0
 16 35  1  0
 16 36  1  0
 17 37  1  0
 17 38  1  0
 19 39  1  0
M  ISO  8  20  13  21  13  22  13  23  13  24  13  25  13  26  13  27  13
M  ISO  8  28  13  29  14  30  14  31  14  32   5  33  13  34  13  35  13
M  ISO  4  36  13  37  13  38  13  39  11
M  END
>  <minimizedAffinity>  (1) 
-4.22321129

>  <minimizedRMSD>  (1) 
0.540884972

$$$$
