
     RDKit          3D

 27 29  0  0  0  0  0  0  0  0999 V2000
   47.2490   34.2020   42.2790 C   0  0  0  0  0  0  0  0  0  0  0  0
   46.4890   33.6120   41.1270 C   0  0  0  0  0  0  0  0  0  0  0  0
   45.3480   32.9440   41.3490 N   0  0  0  0  0  0  0  0  0  0  0  0
   44.5790   32.3760   40.4310 C   0  0  0  0  0  0  0  0  0  0  0  0
   44.9860   32.4790   39.1350 N   0  0  0  0  0  0  0  0  0  0  0  0
   46.1260   33.1340   38.8190 C   0  0  0  0  0  0  0  0  0  0  0  0
   46.5360   33.2380   37.5040 C   0  0  0  0  0  0  0  0  0  0  0  0
   47.7090   33.9130   37.1860 C   0  0  0  0  0  0  0  0  0  0  0  0
   48.4540   34.4800   38.2110 C   0  0  0  0  0  0  0  0  0  0  0  0
   48.0500   34.3810   39.5250 C   0  0  0  0  0  0  0  0  0  0  0  0
   46.8920   33.7110   39.8090 C   0  0  0  0  0  0  0  0  0  0  0  0
   44.6380   36.0850   44.3030 C   0  0  0  0  0  0  0  0  0  0  0  0
   45.5010   35.7600   43.2330 C   0  0  0  0  0  0  0  0  0  0  0  0
   46.3090   34.6170   43.3610 C   0  0  0  0  0  0  0  0  0  0  0  0
   46.2090   33.8860   44.5190 N   0  0  0  0  0  0  0  0  0  0  0  0
   45.3610   34.2380   45.5270 C   0  0  0  0  0  0  0  0  0  0  0  0
   44.5920   35.3300   45.4010 N   0  0  0  0  0  0  0  0  0  0  0  0
   47.8119   35.0805   41.9306 H   0  0  0  0  0  0  0  0  0  0  0  0
   47.9407   33.4448   42.6768 H   0  0  0  0  0  0  0  0  0  0  0  0
   43.6545   31.8457   40.7031 H   0  0  0  0  0  0  0  0  0  0  0  0
   45.9315   32.7846   36.7047 H   0  0  0  0  0  0  0  0  0  0  0  0
   48.0410   33.9963   36.1406 H   0  0  0  0  0  0  0  0  0  0  0  0
   49.3830   35.0177   37.9703 H   0  0  0  0  0  0  0  0  0  0  0  0
   48.6479   34.8325   40.3304 H   0  0  0  0  0  0  0  0  0  0  0  0
   43.9944   36.9740   44.2293 H   0  0  0  0  0  0  0  0  0  0  0  0
   45.5396   36.3826   42.3270 H   0  0  0  0  0  0  0  0  0  0  0  0
   45.3076   33.6283   46.4410 H   0  0  0  0  0  0  0  0  0  0  0  0
  1 14  1  0
  2  3  2  0
  2  1  1  0
  4  3  1  0
  5  4  2  0
  6  5  1  0
  6 11  2  0
  7  6  1  0
  8  7  2  0
  8  9  1  0
  9 10  2  0
 10 11  1  0
 11  2  1  0
 12 17  2  0
 13 14  2  0
 13 12  1  0
 14 15  1  0
 15 16  2  0
 17 16  1  0
  1 18  1  0
  1 19  1  0
  4 20  1  0
  7 21  1  0
  8 22  1  0
  9 23  1  0
 10 24  1  0
 12 25  1  0
 13 26  1  0
 16 27  1  0
M  ISO  8  18   8  19   8  20  14  21  14  22  14  23  14  24  14  25  14
M  ISO  2  26  14  27  14
M  END
>  <minimizedAffinity>  (1) 
-4.8842473

>  <minimizedRMSD>  (1) 
1.80727494

$$$$
