
     RDKit          3D

 24 25  0  0  0  0  0  0  0  0999 V2000
   47.5790   33.3790   43.2370 C   0  0  0  0  0  0  0  0  0  0  0  0
   47.7440   33.6970   41.8430 N   0  0  0  0  0  0  0  0  0  0  0  0
   48.4320   34.8020   41.4570 C   0  0  0  0  0  0  0  0  0  0  0  0
   48.6200   35.1520   40.1210 C   0  0  0  0  0  0  0  0  0  0  0  0
   48.0440   34.2790   39.2250 C   0  0  0  0  0  0  0  0  0  0  0  0
   48.1640   34.5270   37.8290 N   0  0  0  0  0  0  0  0  0  0  0  0
   47.3570   33.1790   39.5830 N   0  0  0  0  0  0  0  0  0  0  0  0
   47.2070   32.8870   40.9050 C   0  0  0  0  0  0  0  0  0  0  0  0
   46.5780   31.8790   41.3030 O   0  0  0  0  0  0  0  0  0  0  0  0
   44.8420   35.9300   43.8670 C   0  0  0  0  0  0  0  0  0  0  0  0
   45.8810   35.2240   43.2080 C   0  0  0  0  0  0  0  0  0  0  0  0
   46.4790   34.1610   43.8760 C   0  0  0  0  0  0  0  0  0  0  0  0
   46.0340   33.8530   45.1280 N   0  0  0  0  0  0  0  0  0  0  0  0
   45.0360   34.5490   45.7320 C   0  0  0  0  0  0  0  0  0  0  0  0
   44.4530   35.5750   45.0970 N   0  0  0  0  0  0  0  0  0  0  0  0
   48.5198   33.5993   43.7628 H   0  0  0  0  0  0  0  0  0  0  0  0
   47.3159   32.3133   43.3077 H   0  0  0  0  0  0  0  0  0  0  0  0
   48.8609   35.4511   42.2346 H   0  0  0  0  0  0  0  0  0  0  0  0
   49.1792   36.0467   39.8097 H   0  0  0  0  0  0  0  0  0  0  0  0
   48.6790   35.3543   37.4953 H   0  0  0  0  0  0  0  0  0  0  0  0
   47.7359   33.8793   37.1522 H   0  0  0  0  0  0  0  0  0  0  0  0
   44.3522   36.7761   43.3628 H   0  0  0  0  0  0  0  0  0  0  0  0
   46.2048   35.5096   42.1963 H   0  0  0  0  0  0  0  0  0  0  0  0
   44.7060   34.2701   46.7436 H   0  0  0  0  0  0  0  0  0  0  0  0
  1 12  1  0
  2  1  1  0
  3  2  1  0
  4  3  2  0
  5  7  2  0
  5  4  1  0
  6  5  1  0
  7  8  1  0
  8  9  2  0
  8  2  1  0
 10 15  2  0
 11 10  1  0
 11 12  2  0
 12 13  1  0
 13 14  2  0
 15 14  1  0
  1 16  1  0
  1 17  1  0
  3 18  1  0
  4 19  1  0
  6 20  1  0
  6 21  1  0
 10 22  1  0
 11 23  1  0
 14 24  1  0
M  ISO  7  16   8  17   8  18  14  19  14  22  14  23  14  24  14
M  END
>  <minimizedAffinity>  (1) 
-4.42967463

>  <minimizedRMSD>  (1) 
2.36055326

$$$$
