
     RDKit          3D

 26 27  0  0  0  0  0  0  0  0999 V2000
   44.5420   36.0480   44.4850 C   0  0  0  0  0  0  0  0  0  0  0  0
   45.3300   35.8940   43.3220 C   0  0  0  0  0  0  0  0  0  0  0  0
   46.2080   34.8060   43.2650 C   0  0  0  0  0  0  0  0  0  0  0  0
   46.2570   33.9560   44.3350 N   0  0  0  0  0  0  0  0  0  0  0  0
   45.4810   34.1340   45.4460 C   0  0  0  0  0  0  0  0  0  0  0  0
   44.6350   35.1810   45.5000 N   0  0  0  0  0  0  0  0  0  0  0  0
   47.0810   34.5570   42.0810 C   0  0  0  0  0  0  0  0  0  0  0  0
   48.1630   33.7030   42.5120 N   0  0  0  0  0  0  0  0  0  0  0  0
   49.3910   34.4520   42.4850 C   0  0  0  0  0  0  0  0  0  0  0  0
   50.6370   33.6320   42.4260 C   0  0  0  0  0  0  0  0  0  0  0  0
   50.6080   32.6700   41.4180 O   0  0  0  0  0  0  0  0  0  0  0  0
   49.5530   31.8380   41.6820 C   0  0  0  0  0  0  0  0  0  0  0  0
   48.2130   32.4790   41.7470 C   0  0  0  0  0  0  0  0  0  0  0  0
   43.8417   36.8932   44.5569 H   0  0  0  0  0  0  0  0  0  0  0  0
   45.2555   36.6071   42.4878 H   0  0  0  0  0  0  0  0  0  0  0  0
   45.5466   33.4291   46.2879 H   0  0  0  0  0  0  0  0  0  0  0  0
   47.4817   35.5091   41.7028 H   0  0  0  0  0  0  0  0  0  0  0  0
   46.5094   34.0797   41.2714 H   0  0  0  0  0  0  0  0  0  0  0  0
   49.3715   35.1048   41.5999 H   0  0  0  0  0  0  0  0  0  0  0  0
   49.4332   35.0015   43.4370 H   0  0  0  0  0  0  0  0  0  0  0  0
   51.4900   34.3028   42.2460 H   0  0  0  0  0  0  0  0  0  0  0  0
   50.7276   33.1012   43.3852 H   0  0  0  0  0  0  0  0  0  0  0  0
   49.5218   31.0740   40.8912 H   0  0  0  0  0  0  0  0  0  0  0  0
   49.7378   31.4383   42.6900 H   0  0  0  0  0  0  0  0  0  0  0  0
   47.8914   32.7044   40.7195 H   0  0  0  0  0  0  0  0  0  0  0  0
   47.5532   31.7652   42.2619 H   0  0  0  0  0  0  0  0  0  0  0  0
  1  6  2  0
  2  1  1  0
  3  2  2  0
  3  4  1  0
  4  5  2  0
  5  6  1  0
  7  8  1  0
  7  3  1  0
  9  8  1  0
 10  9  1  0
 11 12  1  0
 11 10  1  0
 12 13  1  0
 13  8  1  0
  1 14  1  0
  2 15  1  0
  5 16  1  0
  7 17  1  0
  7 18  1  0
  9 19  1  0
  9 20  1  0
 10 21  1  0
 10 22  1  0
 12 23  1  0
 12 24  1  0
 13 25  1  0
 13 26  1  0
M  ISO  8  14  14  15  14  16  14  17   8  18   8  19  13  20  13  21  13
M  ISO  5  22  13  23  13  24  13  25  13  26  13
M  END
>  <minimizedAffinity>  (1) 
-4.00567007

>  <minimizedRMSD>  (1) 
2.21439624

$$$$
