
     RDKit          3D

 21 22  0  0  0  0  0  0  0  0999 V2000
   46.8330   34.9680   41.9370 C   0  0  0  0  0  0  0  0  0  0  0  0
   44.5210   36.0160   44.7660 C   0  0  0  0  0  0  0  0  0  0  0  0
   45.2040   36.0600   43.5300 C   0  0  0  0  0  0  0  0  0  0  0  0
   46.0750   35.0080   43.2080 C   0  0  0  0  0  0  0  0  0  0  0  0
   46.2100   33.9890   44.1220 N   0  0  0  0  0  0  0  0  0  0  0  0
   45.5330   33.9910   45.2960 C   0  0  0  0  0  0  0  0  0  0  0  0
   44.6970   34.9940   45.6130 N   0  0  0  0  0  0  0  0  0  0  0  0
   45.9430   34.3200   40.9350 C   0  0  0  0  0  0  0  0  0  0  0  0
   44.5670   34.4250   40.9540 C   0  0  0  0  0  0  0  0  0  0  0  0
   43.8780   33.7680   39.9590 C   0  0  0  0  0  0  0  0  0  0  0  0
   44.4770   33.0470   38.9940 N   0  0  0  0  0  0  0  0  0  0  0  0
   45.8230   32.9650   39.0040 C   0  0  0  0  0  0  0  0  0  0  0  0
   46.5210   33.5930   39.9590 N   0  0  0  0  0  0  0  0  0  0  0  0
   47.0889   35.9881   41.6147 H   0  0  0  0  0  0  0  0  0  0  0  0
   47.7745   34.4109   42.0524 H   0  0  0  0  0  0  0  0  0  0  0  0
   43.8352   36.8325   45.0362 H   0  0  0  0  0  0  0  0  0  0  0  0
   45.0563   36.9002   42.8356 H   0  0  0  0  0  0  0  0  0  0  0  0
   45.6702   33.1578   46.0010 H   0  0  0  0  0  0  0  0  0  0  0  0
   44.0448   35.0065   41.7281 H   0  0  0  0  0  0  0  0  0  0  0  0
   42.7801   33.8363   39.9529 H   0  0  0  0  0  0  0  0  0  0  0  0
   46.3461   32.3841   38.2301 H   0  0  0  0  0  0  0  0  0  0  0  0
  1  4  1  0
  2  7  2  0
  3  2  1  0
  4  3  2  0
  4  5  1  0
  5  6  2  0
  6  7  1  0
  8  9  2  0
  8  1  1  0
 10  9  1  0
 11 12  1  0
 11 10  2  0
 12 13  2  0
 13  8  1  0
  1 14  1  0
  1 15  1  0
  2 16  1  0
  3 17  1  0
  6 18  1  0
  9 19  1  0
 10 20  1  0
 12 21  1  0
M  ISO  8  14   8  15   8  16  14  17  14  18  14  19  14  20  14  21  14
M  END
>  <minimizedAffinity>  (1) 
-3.95979214

>  <minimizedRMSD>  (1) 
0.48998943

$$$$
