
     RDKit          3D

 27 28  0  0  0  0  0  0  0  0999 V2000
   47.0340   35.2040   41.8720 C   0  0  0  0  0  0  0  0  0  0  0  0
   44.5600   35.7330   44.6940 C   0  0  0  0  0  0  0  0  0  0  0  0
   45.2490   35.9500   43.4720 C   0  0  0  0  0  0  0  0  0  0  0  0
   46.2640   35.0540   43.1280 C   0  0  0  0  0  0  0  0  0  0  0  0
   46.5380   34.0270   43.9780 N   0  0  0  0  0  0  0  0  0  0  0  0
   45.8540   33.8520   45.1430 C   0  0  0  0  0  0  0  0  0  0  0  0
   44.8790   34.7070   45.4800 N   0  0  0  0  0  0  0  0  0  0  0  0
   47.0410   34.0000   41.0560 N   0  0  0  0  0  0  0  0  0  0  0  0
   45.7340   33.8920   40.4870 C   0  0  0  0  0  0  0  0  0  0  0  0
   45.6780   33.0430   39.2470 C   0  0  0  0  0  0  0  0  0  0  0  0
   46.5450   33.7340   38.2830 N   0  0  0  0  0  0  0  0  0  0  0  0
   47.8880   33.5190   38.7790 C   0  0  0  0  0  0  0  0  0  0  0  0
   48.1110   34.1140   40.1200 C   0  0  0  0  0  0  0  0  0  0  0  0
   46.5895   36.0213   41.2851 H   0  0  0  0  0  0  0  0  0  0  0  0
   48.0767   35.4151   42.1515 H   0  0  0  0  0  0  0  0  0  0  0  0
   43.7546   36.4194   44.9944 H   0  0  0  0  0  0  0  0  0  0  0  0
   44.9921   36.7959   42.8175 H   0  0  0  0  0  0  0  0  0  0  0  0
   46.1018   33.0100   45.8061 H   0  0  0  0  0  0  0  0  0  0  0  0
   45.0639   33.4507   41.2395 H   0  0  0  0  0  0  0  0  0  0  0  0
   45.4285   34.9071   40.1933 H   0  0  0  0  0  0  0  0  0  0  0  0
   46.0559   32.0306   39.4525 H   0  0  0  0  0  0  0  0  0  0  0  0
   44.6513   32.9219   38.8713 H   0  0  0  0  0  0  0  0  0  0  0  0
   46.3254   34.7399   38.2526 H   0  0  0  0  0  0  0  0  0  0  0  0
   48.0700   32.4359   38.8410 H   0  0  0  0  0  0  0  0  0  0  0  0
   48.5804   34.0114   38.0804 H   0  0  0  0  0  0  0  0  0  0  0  0
   48.9924   33.6244   40.5598 H   0  0  0  0  0  0  0  0  0  0  0  0
   48.2267   35.1934   39.9424 H   0  0  0  0  0  0  0  0  0  0  0  0
  1  4  1  0
  2  7  2  0
  3  2  1  0
  4  3  2  0
  4  5  1  0
  5  6  2  0
  6  7  1  0
  8  1  1  0
  9  8  1  0
 10  9  1  0
 11 12  1  0
 11 10  1  0
 12 13  1  0
 13  8  1  0
  1 14  1  0
  1 15  1  0
  2 16  1  0
  3 17  1  0
  6 18  1  0
  9 19  1  0
  9 20  1  0
 10 21  1  0
 10 22  1  0
 11 23  1  0
 12 24  1  0
 12 25  1  0
 13 26  1  0
 13 27  1  0
M  ISO  8  14   8  15   8  16  14  17  14  18  14  19  13  20  13  21  13
M  ISO  6  22  13  23   5  24  13  25  13  26  13  27  13
M  END
>  <minimizedAffinity>  (1) 
-3.89754486

>  <minimizedRMSD>  (1) 
0.911328852

$$$$
