
     RDKit          3D

 20 21  0  0  0  0  0  0  0  0999 V2000
   44.8200   36.0080   43.8210 C   0  0  0  0  0  0  0  0  0  0  0  0
   45.8800   35.3940   43.1190 C   0  0  0  0  0  0  0  0  0  0  0  0
   46.5370   34.3140   43.7170 C   0  0  0  0  0  0  0  0  0  0  0  0
   46.1120   33.9170   44.9530 N   0  0  0  0  0  0  0  0  0  0  0  0
   45.0920   34.5230   45.6050 C   0  0  0  0  0  0  0  0  0  0  0  0
   44.4640   35.5560   45.0310 N   0  0  0  0  0  0  0  0  0  0  0  0
   47.6630   33.6200   43.0320 C   0  0  0  0  0  0  0  0  0  0  0  0
   47.6620   33.7420   41.5890 C   0  0  0  0  0  0  0  0  0  0  0  0
   48.3600   34.6610   40.7780 C   0  0  0  0  0  0  0  0  0  0  0  0
   48.2160   34.6010   39.4240 C   0  0  0  0  0  0  0  0  0  0  0  0
   47.3180   33.5530   38.9380 C   0  0  0  0  0  0  0  0  0  0  0  0
   46.7430   32.7160   40.5380 S   0  0  0  0  0  0  0  0  0  0  0  0
   44.2855   36.8590   43.3737 H   0  0  0  0  0  0  0  0  0  0  0  0
   46.1819   35.7565   42.1253 H   0  0  0  0  0  0  0  0  0  0  0  0
   44.7817   34.1689   46.5992 H   0  0  0  0  0  0  0  0  0  0  0  0
   48.6060   34.0412   43.4106 H   0  0  0  0  0  0  0  0  0  0  0  0
   47.5475   32.5486   43.2529 H   0  0  0  0  0  0  0  0  0  0  0  0
   49.0142   35.4188   41.2339 H   0  0  0  0  0  0  0  0  0  0  0  0
   48.7378   35.2913   38.7449 H   0  0  0  0  0  0  0  0  0  0  0  0
   47.0443   33.3109   37.9005 H   0  0  0  0  0  0  0  0  0  0  0  0
  1  6  2  0
  2  3  2  0
  2  1  1  0
  3  4  1  0
  4  5  2  0
  6  5  1  0
  7  3  1  0
  8  7  1  0
  9  8  2  0
 10  9  1  0
 11 10  2  0
 11 12  1  0
 12  8  1  0
  1 13  1  0
  2 14  1  0
  5 15  1  0
  7 16  1  0
  7 17  1  0
  9 18  1  0
 10 19  1  0
 11 20  1  0
M  ISO  8  13  14  14  14  15  14  16   8  17   8  18  14  19  14  20  14
M  END
>  <minimizedAffinity>  (1) 
-3.84881592

>  <minimizedRMSD>  (1) 
1.66838527

$$$$
