
     RDKit          3D

 20 21  0  0  0  0  0  0  0  0999 V2000
   44.5250   36.0480   44.5580 C   0  0  0  0  0  0  0  0  0  0  0  0
   45.2470   36.0420   43.3400 C   0  0  0  0  0  0  0  0  0  0  0  0
   46.1520   35.0070   43.0930 C   0  0  0  0  0  0  0  0  0  0  0  0
   46.2900   34.0420   44.0620 N   0  0  0  0  0  0  0  0  0  0  0  0
   45.5830   34.0840   45.2140 C   0  0  0  0  0  0  0  0  0  0  0  0
   44.7160   35.0670   45.4630 N   0  0  0  0  0  0  0  0  0  0  0  0
   46.9430   34.9300   41.8420 C   0  0  0  0  0  0  0  0  0  0  0  0
   46.2930   34.1480   40.7750 C   0  0  0  0  0  0  0  0  0  0  0  0
   46.9660   33.1430   40.0860 C   0  0  0  0  0  0  0  0  0  0  0  0
   46.1020   32.6330   39.1920 N   0  0  0  0  0  0  0  0  0  0  0  0
   44.9020   33.2690   39.2780 C   0  0  0  0  0  0  0  0  0  0  0  0
   45.0410   34.1920   40.2520 N   0  0  0  0  0  0  0  0  0  0  0  0
   43.8068   36.8547   44.7663 H   0  0  0  0  0  0  0  0  0  0  0  0
   45.0974   36.8410   42.5989 H   0  0  0  0  0  0  0  0  0  0  0  0
   45.7259   33.2903   45.9621 H   0  0  0  0  0  0  0  0  0  0  0  0
   47.1070   35.9527   41.4717 H   0  0  0  0  0  0  0  0  0  0  0  0
   47.8837   34.4159   42.0886 H   0  0  0  0  0  0  0  0  0  0  0  0
   48.0076   32.8263   40.2435 H   0  0  0  0  0  0  0  0  0  0  0  0
   44.0026   33.0710   38.6764 H   0  0  0  0  0  0  0  0  0  0  0  0
   44.3004   34.8398   40.5564 H   0  0  0  0  0  0  0  0  0  0  0  0
  1  6  2  0
  2  1  1  0
  3  2  2  0
  3  4  1  0
  4  5  2  0
  5  6  1  0
  7  3  1  0
  8  7  1  0
  9  8  2  0
 10 11  2  0
 10  9  1  0
 11 12  1  0
 12  8  1  0
  1 13  1  0
  2 14  1  0
  5 15  1  0
  7 16  1  0
  7 17  1  0
  9 18  1  0
 11 19  1  0
 12 20  1  0
M  ISO  8  13  14  14  14  15  14  16   8  17   8  18  14  19  14  20   9
M  END
>  <minimizedAffinity>  (1) 
-3.81548572

>  <minimizedRMSD>  (1) 
0.170357749

$$$$
