
     RDKit          3D

 18 18  0  0  0  0  0  0  0  0999 V2000
   44.5360   36.0490   44.5100 C   0  0  0  0  0  0  0  0  0  0  0  0
   45.1960   35.9630   43.2690 C   0  0  0  0  0  0  0  0  0  0  0  0
   46.0550   34.9060   43.0400 C   0  0  0  0  0  0  0  0  0  0  0  0
   46.2210   33.9890   44.0450 N   0  0  0  0  0  0  0  0  0  0  0  0
   45.5850   34.0790   45.2330 C   0  0  0  0  0  0  0  0  0  0  0  0
   44.7390   35.1170   45.4610 N   0  0  0  0  0  0  0  0  0  0  0  0
   46.7990   34.7230   41.7700 C   0  0  0  0  0  0  0  0  0  0  0  0
   48.1570   34.3460   42.1330 N   0  0  0  0  0  0  0  0  0  0  0  0
   49.2250   35.2630   42.2680 C   0  0  0  0  0  0  0  0  0  0  0  0
   49.3490   36.3400   41.6350 O   0  0  0  0  0  0  0  0  0  0  0  0
   50.3160   35.1690   43.0950 O   0  0  0  0  0  0  0  0  0  0  0  0
   43.8482   36.8851   44.7046 H   0  0  0  0  0  0  0  0  0  0  0  0
   45.0300   36.7258   42.4940 H   0  0  0  0  0  0  0  0  0  0  0  0
   45.7507   33.3179   46.0097 H   0  0  0  0  0  0  0  0  0  0  0  0
   46.8064   35.6614   41.1961 H   0  0  0  0  0  0  0  0  0  0  0  0
   46.3281   33.9520   41.1425 H   0  0  0  0  0  0  0  0  0  0  0  0
   48.3524   33.3490   42.3021 H   0  0  0  0  0  0  0  0  0  0  0  0
   50.9999   35.8848   43.0955 H   0  0  0  0  0  0  0  0  0  0  0  0
  1  6  2  0
  2  1  1  0
  3  2  2  0
  3  4  1  0
  4  5  2  0
  5  6  1  0
  7  8  1  0
  7  3  1  0
  8  9  1  0
  9 11  1  0
 10  9  2  0
  1 12  1  0
  2 13  1  0
  5 14  1  0
  7 15  1  0
  7 16  1  0
  8 17  1  0
 11 18  1  0
M  ISO  6  12  14  13  14  14  14  15   8  16   8  18   3
M  END
>  <minimizedAffinity>  (1) 
-4.65307379

>  <minimizedRMSD>  (1) 
1.18275714

$$$$
