
     RDKit          3D

 31 32  0  0  0  0  0  0  0  0999 V2000
   46.5620   34.6430   41.8640 C   0  0  0  0  0  0  0  0  0  0  0  0
   44.4880   35.9520   44.7470 C   0  0  0  0  0  0  0  0  0  0  0  0
   45.0570   35.8860   43.4670 C   0  0  0  0  0  0  0  0  0  0  0  0
   45.9030   34.8050   43.2050 C   0  0  0  0  0  0  0  0  0  0  0  0
   46.1410   33.8680   44.1860 N   0  0  0  0  0  0  0  0  0  0  0  0
   45.5610   33.9820   45.4110 C   0  0  0  0  0  0  0  0  0  0  0  0
   44.7490   35.0130   45.6750 N   0  0  0  0  0  0  0  0  0  0  0  0
   47.7470   35.4870   41.9080 N   0  0  0  0  0  0  0  0  0  0  0  0
   48.9380   34.8190   41.4140 C   0  0  0  0  0  0  0  0  0  0  0  0
   48.4520   33.5620   40.7460 C   0  0  0  0  0  0  0  0  0  0  0  0
   49.4400   32.4440   40.6910 C   0  0  0  0  0  0  0  0  0  0  0  0
   50.1390   32.2080   42.0130 C   0  0  0  0  0  0  0  0  0  0  0  0
   50.8620   33.4910   42.3630 C   0  0  0  0  0  0  0  0  0  0  0  0
   49.7990   34.5380   42.6190 C   0  0  0  0  0  0  0  0  0  0  0  0
   45.8857   34.9717   41.0612 H   0  0  0  0  0  0  0  0  0  0  0  0
   46.8167   33.5927   41.6589 H   0  0  0  0  0  0  0  0  0  0  0  0
   43.8162   36.7864   44.9970 H   0  0  0  0  0  0  0  0  0  0  0  0
   44.8470   36.6501   42.7041 H   0  0  0  0  0  0  0  0  0  0  0  0
   45.7593   33.2264   46.1854 H   0  0  0  0  0  0  0  0  0  0  0  0
   47.5762   36.3229   41.3309 H   0  0  0  0  0  0  0  0  0  0  0  0
   49.5308   35.4014   40.6934 H   0  0  0  0  0  0  0  0  0  0  0  0
   47.5671   33.2065   41.2943 H   0  0  0  0  0  0  0  0  0  0  0  0
   48.2438   33.8347   39.7009 H   0  0  0  0  0  0  0  0  0  0  0  0
   48.9116   31.5228   40.4043 H   0  0  0  0  0  0  0  0  0  0  0  0
   50.2101   32.7208   39.9559 H   0  0  0  0  0  0  0  0  0  0  0  0
   49.4020   31.9643   42.7924 H   0  0  0  0  0  0  0  0  0  0  0  0
   50.8432   31.3660   41.9413 H   0  0  0  0  0  0  0  0  0  0  0  0
   51.4752   33.3460   43.2646 H   0  0  0  0  0  0  0  0  0  0  0  0
   51.5320   33.8009   41.5475 H   0  0  0  0  0  0  0  0  0  0  0  0
   50.2946   35.4728   42.9199 H   0  0  0  0  0  0  0  0  0  0  0  0
   49.1391   34.1470   43.4075 H   0  0  0  0  0  0  0  0  0  0  0  0
  1  8  1  0
  1  4  1  0
  2  7  2  0
  3  2  1  0
  4  3  2  0
  4  5  1  0
  5  6  2  0
  6  7  1  0
  9  8  1  0
  9 14  1  0
 10  9  1  0
 11 10  1  0
 11 12  1  0
 12 13  1  0
 13 14  1  0
  1 15  1  0
  1 16  1  0
  2 17  1  0
  3 18  1  0
  6 19  1  0
  8 20  1  0
  9 21  1  0
 10 22  1  0
 10 23  1  0
 11 24  1  0
 11 25  1  0
 12 26  1  0
 12 27  1  0
 13 28  1  0
 13 29  1  0
 14 30  1  0
 14 31  1  0
M  ISO  8  15   8  16   8  17  14  18  14  19  14  20   5  21  13  22  13
M  ISO  8  23  13  24  13  25  13  26  13  27  13  28  13  29  13  30  13
M  ISO  1  31  13
M  END
>  <minimizedAffinity>  (1) 
-4.5309248

>  <minimizedRMSD>  (1) 
2.14694262

$$$$
