
     RDKit          3D

 18 18  0  0  0  0  0  0  0  0999 V2000
   44.7140   36.0540   44.0450 C   0  0  0  0  0  0  0  0  0  0  0  0
   45.6980   35.5630   43.1710 C   0  0  0  0  0  0  0  0  0  0  0  0
   46.4400   34.4530   43.5440 C   0  0  0  0  0  0  0  0  0  0  0  0
   46.1850   33.8740   44.7550 N   0  0  0  0  0  0  0  0  0  0  0  0
   45.2250   34.3710   45.5840 C   0  0  0  0  0  0  0  0  0  0  0  0
   44.4950   35.4570   45.2260 N   0  0  0  0  0  0  0  0  0  0  0  0
   47.4890   33.8950   42.6590 C   0  0  0  0  0  0  0  0  0  0  0  0
   48.7720   34.2620   43.2680 N   0  0  0  0  0  0  0  0  0  0  0  0
   49.5870   34.7690   42.1670 C   0  0  0  0  0  0  0  0  0  0  0  0
   50.9190   34.3890   42.3580 F   0  0  0  0  0  0  0  0  0  0  0  0
   49.1010   34.2190   40.9990 F   0  0  0  0  0  0  0  0  0  0  0  0
   49.5170   36.1350   42.0840 F   0  0  0  0  0  0  0  0  0  0  0  0
   44.1191   36.9339   43.7590 H   0  0  0  0  0  0  0  0  0  0  0  0
   45.8775   36.0531   42.2027 H   0  0  0  0  0  0  0  0  0  0  0  0
   45.0398   33.8866   46.5541 H   0  0  0  0  0  0  0  0  0  0  0  0
   47.4075   34.3271   41.6507 H   0  0  0  0  0  0  0  0  0  0  0  0
   47.3901   32.8043   42.5564 H   0  0  0  0  0  0  0  0  0  0  0  0
   48.6371   34.9910   43.9831 H   0  0  0  0  0  0  0  0  0  0  0  0
  1  6  2  0
  2  3  2  0
  2  1  1  0
  3  4  1  0
  4  5  2  0
  6  5  1  0
  7  8  1  0
  7  3  1  0
  9 10  1  0
  9  8  1  0
 11  9  1  0
 12  9  1  0
  1 13  1  0
  2 14  1  0
  5 15  1  0
  7 16  1  0
  7 17  1  0
  8 18  1  0
M  ISO  6  13  14  14  14  15  14  16   8  17   8  18   5
M  END
>  <minimizedAffinity>  (1) 
-4.35737562

>  <minimizedRMSD>  (1) 
1.38949299

$$$$
