
     RDKit          3D

 23 24  0  0  0  0  0  0  0  0999 V2000
   46.5450   34.9840   41.8500 C   0  0  0  0  0  0  0  0  0  0  0  0
   44.4770   35.9220   44.8880 C   0  0  0  0  0  0  0  0  0  0  0  0
   45.0330   35.9970   43.5840 C   0  0  0  0  0  0  0  0  0  0  0  0
   45.9110   34.9950   43.2040 C   0  0  0  0  0  0  0  0  0  0  0  0
   46.2100   33.9900   44.0740 N   0  0  0  0  0  0  0  0  0  0  0  0
   45.6560   33.9510   45.3180 C   0  0  0  0  0  0  0  0  0  0  0  0
   44.8010   34.9120   45.7120 N   0  0  0  0  0  0  0  0  0  0  0  0
   47.9770   34.8060   42.0660 N   0  0  0  0  0  0  0  0  0  0  0  0
   48.3760   33.9870   40.9450 C   0  0  0  0  0  0  0  0  0  0  0  0
   47.9810   34.2680   39.6500 C   0  0  0  0  0  0  0  0  0  0  0  0
   48.3790   33.4590   38.5840 C   0  0  0  0  0  0  0  0  0  0  0  0
   49.1590   32.3950   38.8510 N   0  0  0  0  0  0  0  0  0  0  0  0
   49.5270   32.1460   40.1210 C   0  0  0  0  0  0  0  0  0  0  0  0
   49.1650   32.9060   41.1940 N   0  0  0  0  0  0  0  0  0  0  0  0
   46.3539   35.9359   41.3329 H   0  0  0  0  0  0  0  0  0  0  0  0
   46.1334   34.1786   41.2239 H   0  0  0  0  0  0  0  0  0  0  0  0
   43.7746   36.6979   45.2266 H   0  0  0  0  0  0  0  0  0  0  0  0
   44.7763   36.8200   42.9008 H   0  0  0  0  0  0  0  0  0  0  0  0
   45.9092   33.1292   46.0040 H   0  0  0  0  0  0  0  0  0  0  0  0
   48.5606   35.1742   42.8307 H   0  0  0  0  0  0  0  0  0  0  0  0
   47.3430   35.1429   39.4566 H   0  0  0  0  0  0  0  0  0  0  0  0
   48.0639   33.6848   37.5546 H   0  0  0  0  0  0  0  0  0  0  0  0
   50.1640   31.2686   40.3067 H   0  0  0  0  0  0  0  0  0  0  0  0
  1  8  1  0
  1  4  1  0
  2  7  2  0
  3  2  1  0
  4  3  2  0
  4  5  1  0
  5  6  2  0
  6  7  1  0
  9 14  1  0
  9  8  1  0
 10  9  2  0
 11 12  2  0
 11 10  1  0
 12 13  1  0
 13 14  2  0
  1 15  1  0
  1 16  1  0
  2 17  1  0
  3 18  1  0
  6 19  1  0
  8 20  1  0
 10 21  1  0
 11 22  1  0
 13 23  1  0
M  ISO  8  15   8  16   8  17  14  18  14  19  14  21  14  22  14  23  14
M  END
>  <minimizedAffinity>  (1) 
-4.03739119

>  <minimizedRMSD>  (1) 
1.33465683

$$$$
