
     RDKit          3D

 17 17  0  0  0  0  0  0  0  0999 V2000
   44.7550   36.0170   43.9960 C   0  0  0  0  0  0  0  0  0  0  0  0
   45.7430   35.5410   43.1110 C   0  0  0  0  0  0  0  0  0  0  0  0
   46.4810   34.4250   43.5160 C   0  0  0  0  0  0  0  0  0  0  0  0
   46.2110   33.8510   44.7430 N   0  0  0  0  0  0  0  0  0  0  0  0
   45.2550   34.3520   45.5430 C   0  0  0  0  0  0  0  0  0  0  0  0
   44.5300   35.4280   45.1740 N   0  0  0  0  0  0  0  0  0  0  0  0
   47.5560   33.8370   42.6540 C   0  0  0  0  0  0  0  0  0  0  0  0
   48.8230   34.3310   43.2290 N   0  0  0  0  0  0  0  0  0  0  0  0
   49.7500   34.9840   42.3680 C   0  0  0  0  0  0  0  0  0  0  0  0
   49.2830   36.0330   41.8090 O   0  0  0  0  0  0  0  0  0  0  0  0
   44.1552   36.8937   43.7104 H   0  0  0  0  0  0  0  0  0  0  0  0
   45.9259   36.0275   42.1416 H   0  0  0  0  0  0  0  0  0  0  0  0
   45.0601   33.8766   46.5156 H   0  0  0  0  0  0  0  0  0  0  0  0
   47.4457   34.1766   41.6136 H   0  0  0  0  0  0  0  0  0  0  0  0
   47.5132   32.7380   42.6339 H   0  0  0  0  0  0  0  0  0  0  0  0
   49.0314   34.2061   44.2299 H   0  0  0  0  0  0  0  0  0  0  0  0
   50.7739   34.6187   42.1998 H   0  0  0  0  0  0  0  0  0  0  0  0
  1  6  2  0
  2  3  2  0
  2  1  1  0
  3  4  1  0
  4  5  2  0
  6  5  1  0
  7  8  1  0
  7  3  1  0
  9  8  1  0
 10  9  2  0
  1 11  1  0
  2 12  1  0
  5 13  1  0
  7 14  1  0
  7 15  1  0
  8 16  1  0
  9 17  1  0
M  ISO  6  11  14  12  14  13  14  14   8  15   8  17   6
M  END
>  <minimizedAffinity>  (1) 
-3.8306222

>  <minimizedRMSD>  (1) 
1.23349261

$$$$
