
     RDKit          3D

 18 18  0  0  0  0  0  0  0  0999 V2000
   44.5130   36.0600   44.6010 C   0  0  0  0  0  0  0  0  0  0  0  0
   45.1450   35.9920   43.3500 C   0  0  0  0  0  0  0  0  0  0  0  0
   45.9960   34.9080   43.1150 C   0  0  0  0  0  0  0  0  0  0  0  0
   46.1690   33.9690   44.1140 N   0  0  0  0  0  0  0  0  0  0  0  0
   45.5350   34.0900   45.2920 C   0  0  0  0  0  0  0  0  0  0  0  0
   44.7100   35.1310   45.5330 N   0  0  0  0  0  0  0  0  0  0  0  0
   46.7200   34.7410   41.8170 C   0  0  0  0  0  0  0  0  0  0  0  0
   48.0710   35.2910   42.0640 N   0  0  0  0  0  0  0  0  0  0  0  0
   48.7640   35.4730   40.7970 C   0  0  0  0  0  0  0  0  0  0  0  0
   43.8384   36.9017   44.8164 H   0  0  0  0  0  0  0  0  0  0  0  0
   44.9772   36.7626   42.5831 H   0  0  0  0  0  0  0  0  0  0  0  0
   45.6903   33.3298   46.0717 H   0  0  0  0  0  0  0  0  0  0  0  0
   46.2142   35.3007   41.0164 H   0  0  0  0  0  0  0  0  0  0  0  0
   46.7525   33.6906   41.4920 H   0  0  0  0  0  0  0  0  0  0  0  0
   47.9890   36.1990   42.5432 H   0  0  0  0  0  0  0  0  0  0  0  0
   49.8117   35.7482   40.9883 H   0  0  0  0  0  0  0  0  0  0  0  0
   48.7301   34.5355   40.2226 H   0  0  0  0  0  0  0  0  0  0  0  0
   48.2739   36.2729   40.2226 H   0  0  0  0  0  0  0  0  0  0  0  0
  1  6  2  0
  2  1  1  0
  3  2  2  0
  3  4  1  0
  4  5  2  0
  5  6  1  0
  7  8  1  0
  7  3  1  0
  9  8  1  0
  1 10  1  0
  2 11  1  0
  5 12  1  0
  7 13  1  0
  7 14  1  0
  8 15  1  0
  9 16  1  0
  9 17  1  0
  9 18  1  0
M  ISO  8  10  14  11  14  12  14  13   8  14   8  15   5  16   8  17   8
M  ISO  1  18   8
M  END
>  <minimizedAffinity>  (1) 
-3.26012635

>  <minimizedRMSD>  (1) 
0.118549965

$$$$
