
     RDKit          3D

 40 42  0  0  1  0  0  0  0  0999 V2000
   46.4180   33.9290   40.1510 N   0  0  0  0  0  0  0  0  0  0  0  0
   46.9450   33.5470   38.8590 C   0  0  0  0  0  0  0  0  0  0  0  0
   48.3410   34.0410   38.7750 C   0  0  0  0  0  0  0  0  0  0  0  0
   48.3830   35.0590   39.9240 C   0  0  0  0  0  0  0  0  0  0  0  0
   47.5710   34.3420   40.9400 C   0  0  2  0  0  0  0  0  0  0  0  0
   48.2810   33.2020   41.4480 N   0  0  0  0  0  0  0  0  0  0  0  0
   47.7150   31.9620   41.3610 C   0  0  0  0  0  0  0  0  0  0  0  0
   48.3260   30.8150   41.8220 C   0  0  0  0  0  0  0  0  0  0  0  0
   47.7060   29.4690   41.7230 C   0  0  0  0  0  0  0  0  0  0  0  0
   49.5740   30.8850   42.4080 C   0  0  0  0  0  0  0  0  0  0  0  0
   50.1380   29.8560   42.8280 O   0  0  0  0  0  0  0  0  0  0  0  0
   50.1210   32.1050   42.4900 N   0  0  0  0  0  0  0  0  0  0  0  0
   49.4800   33.1890   42.0230 C   0  0  0  0  0  0  0  0  0  0  0  0
   50.0960   34.2580   42.1590 O   0  0  0  0  0  0  0  0  0  0  0  0
   47.2070   35.1990   42.0190 N   0  0  0  0  0  0  0  0  0  0  0  0
   45.7820   35.1730   42.1640 C   0  0  0  0  0  0  0  0  0  0  0  0
   44.5260   35.2700   45.7600 C   0  0  0  0  0  0  0  0  0  0  0  0
   44.6660   35.6860   44.4210 C   0  0  0  0  0  0  0  0  0  0  0  0
   45.5130   34.8910   43.6260 C   0  0  0  0  0  0  0  0  0  0  0  0
   46.1310   33.8060   44.1690 N   0  0  0  0  0  0  0  0  0  0  0  0
   45.9690   33.4430   45.4580 C   0  0  0  0  0  0  0  0  0  0  0  0
   45.1520   34.1980   46.2440 N   0  0  0  0  0  0  0  0  0  0  0  0
   45.9454   33.1297   40.5968 H   0  0  0  0  0  0  0  0  0  0  0  0
   46.9288   32.4518   38.7571 H   0  0  0  0  0  0  0  0  0  0  0  0
   46.3351   33.9793   38.0521 H   0  0  0  0  0  0  0  0  0  0  0  0
   49.0641   33.2274   38.9339 H   0  0  0  0  0  0  0  0  0  0  0  0
   48.6058   34.4641   37.7948 H   0  0  0  0  0  0  0  0  0  0  0  0
   49.4106   35.2357   40.2744 H   0  0  0  0  0  0  0  0  0  0  0  0
   48.0160   36.0630   39.6646 H   0  0  0  0  0  0  0  0  0  0  0  0
   46.7205   31.8738   40.8994 H   0  0  0  0  0  0  0  0  0  0  0  0
   47.5240   29.0739   42.7333 H   0  0  0  0  0  0  0  0  0  0  0  0
   46.7516   29.5439   41.1812 H   0  0  0  0  0  0  0  0  0  0  0  0
   48.3832   28.7923   41.1812 H   0  0  0  0  0  0  0  0  0  0  0  0
   51.0509   32.2139   42.9194 H   0  0  0  0  0  0  0  0  0  0  0  0
   47.6501   34.8694   42.8884 H   0  0  0  0  0  0  0  0  0  0  0  0
   45.3515   36.1438   41.8771 H   0  0  0  0  0  0  0  0  0  0  0  0
   45.3266   34.4086   41.5173 H   0  0  0  0  0  0  0  0  0  0  0  0
   43.8761   35.8516   46.4303 H   0  0  0  0  0  0  0  0  0  0  0  0
   44.1486   36.5718   44.0240 H   0  0  0  0  0  0  0  0  0  0  0  0
   46.4836   32.5597   45.8641 H   0  0  0  0  0  0  0  0  0  0  0  0
  1  5  1  0
  2  1  1  0
  3  2  1  0
  3  4  1  0
  4  5  1  0
  5  6  1  0
  5 15  1  1
  6 13  1  0
  7  6  1  0
  7  8  2  0
  8 10  1  0
  9  8  1  0
 10 12  1  0
 10 11  2  0
 13 14  2  0
 13 12  1  0
 15 16  1  0
 16 19  1  0
 17 22  2  0
 18 17  1  0
 19 20  1  0
 19 18  2  0
 20 21  2  0
 21 22  1  0
  1 23  1  0
  2 24  1  0
  2 25  1  0
  3 26  1  0
  3 27  1  0
  4 28  1  0
  4 29  1  0
  7 30  1  0
  9 31  1  0
  9 32  1  0
  9 33  1  0
 12 34  1  0
 15 35  1  0
 16 36  1  0
 16 37  1  0
 17 38  1  0
 18 39  1  0
 21 40  1  0
M  ISO  8  23   5  24  13  25  13  26  13  27  13  28  13  29  13  30  14
M  ISO  8  31   8  32   8  33   8  34   9  35   5  36   8  37   8  38  14
M  ISO  2  39  14  40  14
M  END
>  <minimizedAffinity>  (1) 
-4.77662802

>  <minimizedRMSD>  (1) 
1.43373573

$$$$
