
     RDKit          3D

 42 44  0  0  1  0  0  0  0  0999 V2000
   46.7430   32.9650   40.0730 N   0  0  0  0  0  0  0  0  0  0  0  0
   47.3070   32.4490   38.8490 C   0  0  0  0  0  0  0  0  0  0  0  0
   48.4520   33.3030   38.4720 C   0  0  0  0  0  0  0  0  0  0  0  0
   48.1860   34.5650   39.3310 C   0  0  0  0  0  0  0  0  0  0  0  0
   47.7380   33.8960   40.5800 C   0  0  2  0  0  0  0  0  0  0  0  0
   48.8060   33.1890   41.2050 N   0  0  0  0  0  0  0  0  0  0  0  0
   48.3930   32.1250   42.1060 C   0  0  0  0  0  0  0  0  0  0  0  0
   49.6770   31.4310   42.5450 C   0  0  0  0  0  0  0  0  0  0  0  0
   50.9060   32.0960   42.0110 C   0  0  0  0  0  0  0  0  0  0  0  0
   50.9110   33.5600   42.3970 C   0  0  0  0  0  0  0  0  0  0  0  0
   49.5430   34.1240   42.0680 C   0  0  0  0  0  0  0  0  0  0  0  0
   47.1620   34.8360   41.4920 N   0  0  0  0  0  0  0  0  0  0  0  0
   45.7570   34.5780   41.5890 C   0  0  0  0  0  0  0  0  0  0  0  0
   44.4570   35.9750   44.8900 C   0  0  0  0  0  0  0  0  0  0  0  0
   44.7160   35.9440   43.5060 C   0  0  0  0  0  0  0  0  0  0  0  0
   45.3900   34.8040   43.0380 C   0  0  0  0  0  0  0  0  0  0  0  0
   45.7410   33.8310   43.9180 N   0  0  0  0  0  0  0  0  0  0  0  0
   45.4760   33.8900   45.2400 C   0  0  0  0  0  0  0  0  0  0  0  0
   44.8220   34.9880   45.7170 N   0  0  0  0  0  0  0  0  0  0  0  0
   46.5826   32.2033   40.7475 H   0  0  0  0  0  0  0  0  0  0  0  0
   47.6488   31.4149   39.0035 H   0  0  0  0  0  0  0  0  0  0  0  0
   46.5504   32.4538   38.0505 H   0  0  0  0  0  0  0  0  0  0  0  0
   49.4101   32.8312   38.7355 H   0  0  0  0  0  0  0  0  0  0  0  0
   48.5299   33.5011   37.3928 H   0  0  0  0  0  0  0  0  0  0  0  0
   49.0979   35.1606   39.4848 H   0  0  0  0  0  0  0  0  0  0  0  0
   47.4819   35.2932   38.9020 H   0  0  0  0  0  0  0  0  0  0  0  0
   47.8666   32.5431   42.9767 H   0  0  0  0  0  0  0  0  0  0  0  0
   47.7015   31.4244   41.6151 H   0  0  0  0  0  0  0  0  0  0  0  0
   49.7226   31.4383   43.6440 H   0  0  0  0  0  0  0  0  0  0  0  0
   49.6538   30.4066   42.1448 H   0  0  0  0  0  0  0  0  0  0  0  0
   50.9207   32.0082   40.9146 H   0  0  0  0  0  0  0  0  0  0  0  0
   51.7950   31.6072   42.4360 H   0  0  0  0  0  0  0  0  0  0  0  0
   51.1106   33.6636   43.4738 H   0  0  0  0  0  0  0  0  0  0  0  0
   51.6952   34.1021   41.8482 H   0  0  0  0  0  0  0  0  0  0  0  0
   49.6614   35.0849   41.5459 H   0  0  0  0  0  0  0  0  0  0  0  0
   48.9804   34.2725   43.0015 H   0  0  0  0  0  0  0  0  0  0  0  0
   47.5985   34.7319   42.4191 H   0  0  0  0  0  0  0  0  0  0  0  0
   45.1963   35.2676   40.9408 H   0  0  0  0  0  0  0  0  0  0  0  0
   45.5124   33.5552   41.2666 H   0  0  0  0  0  0  0  0  0  0  0  0
   43.9329   36.8468   45.3087 H   0  0  0  0  0  0  0  0  0  0  0  0
   44.4101   36.7600   42.8348 H   0  0  0  0  0  0  0  0  0  0  0  0
   45.7790   33.0753   45.9142 H   0  0  0  0  0  0  0  0  0  0  0  0
  1  5  1  0
  2  1  1  0
  3  2  1  0
  3  4  1  0
  4  5  1  0
  5  6  1  0
  5 12  1  1
  6 11  1  0
  6  7  1  0
  7  8  1  0
  9 10  1  0
  9  8  1  0
 11 10  1  0
 12 13  1  0
 13 16  1  0
 14 19  2  0
 15 14  1  0
 16 15  2  0
 16 17  1  0
 17 18  2  0
 18 19  1  0
  1 20  1  0
  2 21  1  0
  2 22  1  0
  3 23  1  0
  3 24  1  0
  4 25  1  0
  4 26  1  0
  7 27  1  0
  7 28  1  0
  8 29  1  0
  8 30  1  0
  9 31  1  0
  9 32  1  0
 10 33  1  0
 10 34  1  0
 11 35  1  0
 11 36  1  0
 12 37  1  0
 13 38  1  0
 13 39  1  0
 14 40  1  0
 15 41  1  0
 18 42  1  0
M  ISO  8  20   5  21  13  22  13  23  13  24  13  25  13  26  13  27  13
M  ISO  8  28  13  29  13  30  13  31  13  32  13  33  13  34  13  35  13
M  ISO  7  36  13  37   5  38   8  39   8  40  14  41  14  42  14
M  END
>  <minimizedAffinity>  (1) 
-4.77135944

>  <minimizedRMSD>  (1) 
1.92009497

$$$$
