
     RDKit          3D

 19 20  0  0  1  0  0  0  0  0999 V2000
   47.7570   34.8700   41.3860 C   0  0  1  0  0  0  0  0  0  0  0  0
   48.8690   35.9160   41.5270 C   0  0  0  0  0  0  0  0  0  0  0  0
   49.1660   34.4650   41.3020 C   0  0  1  0  0  0  0  0  0  0  0  0
   45.1720   35.1800   44.0870 C   0  0  0  0  0  0  0  0  0  0  0  0
   45.8910   35.4330   42.8890 C   0  0  0  0  0  0  0  0  0  0  0  0
   46.9950   34.6390   42.6460 C   0  0  0  0  0  0  0  0  0  0  0  0
   47.3350   33.6600   43.5610 N   0  0  0  0  0  0  0  0  0  0  0  0
   46.6290   33.4530   44.6800 C   0  0  0  0  0  0  0  0  0  0  0  0
   45.5550   34.2070   44.9410 N   0  0  0  0  0  0  0  0  0  0  0  0
   49.7810   33.7890   42.4800 C   0  0  0  0  0  0  0  0  0  0  0  0
   50.9120   33.3450   42.5850 O   0  0  0  0  0  0  0  0  0  0  0  0
   46.8896   34.6841   40.7355 H   0  0  0  0  0  0  0  0  0  0  0  0
   49.0461   36.6500   40.7270 H   0  0  0  0  0  0  0  0  0  0  0  0
   49.1508   36.6733   42.2734 H   0  0  0  0  0  0  0  0  0  0  0  0
   49.7217   33.8752   40.5582 H   0  0  0  0  0  0  0  0  0  0  0  0
   44.2864   35.7881   44.3237 H   0  0  0  0  0  0  0  0  0  0  0  0
   45.5837   36.2232   42.1882 H   0  0  0  0  0  0  0  0  0  0  0  0
   46.9318   32.6638   45.3839 H   0  0  0  0  0  0  0  0  0  0  0  0
   49.1350   33.6769   43.3633 H   0  0  0  0  0  0  0  0  0  0  0  0
  1  2  1  0
  1  6  1  0
  3  1  1  0
  3  2  1  0
  3 10  1  0
  4  9  2  0
  5  4  1  0
  6  5  2  0
  6  7  1  0
  7  8  2  0
  8  9  1  0
 10 11  2  0
  1 12  1  6
  2 13  1  0
  2 14  1  0
  3 15  1  6
  4 16  1  0
  5 17  1  0
  8 18  1  0
 10 19  1  0
M  ISO  8  12  13  13  13  14  13  15  13  16  14  17  14  18  14  19   6
M  END
>  <minimizedAffinity>  (1) 
-3.91103172

>  <minimizedRMSD>  (1) 
1.2442081

$$$$
