
     RDKit          3D

 18 19  0  0  1  0  0  0  0  0999 V2000
   44.6090   35.9180   44.3350 C   0  0  0  0  0  0  0  0  0  0  0  0
   45.3230   35.8300   43.1260 C   0  0  0  0  0  0  0  0  0  0  0  0
   46.2390   34.7990   43.0380 C   0  0  0  0  0  0  0  0  0  0  0  0
   46.4060   33.9350   44.1020 N   0  0  0  0  0  0  0  0  0  0  0  0
   45.6820   34.0770   45.2420 C   0  0  0  0  0  0  0  0  0  0  0  0
   44.7940   35.0620   45.3500 N   0  0  0  0  0  0  0  0  0  0  0  0
   47.0210   34.6310   41.7770 C   0  0  1  0  0  0  0  0  0  0  0  0
   48.2430   35.5520   41.7020 C   0  0  0  0  0  0  0  0  0  0  0  0
   48.3750   34.0660   41.8050 C   0  0  1  0  0  0  0  0  0  0  0  0
   48.9170   33.6760   43.0520 O   0  0  0  0  0  0  0  0  0  0  0  0
   43.8682   36.7226   44.4523 H   0  0  0  0  0  0  0  0  0  0  0  0
   45.1619   36.5390   42.3006 H   0  0  0  0  0  0  0  0  0  0  0  0
   45.8298   33.3768   46.0773 H   0  0  0  0  0  0  0  0  0  0  0  0
   46.1342   34.3875   41.1734 H   0  0  0  0  0  0  0  0  0  0  0  0
   48.4928   36.0682   40.7633 H   0  0  0  0  0  0  0  0  0  0  0  0
   48.6143   36.4188   42.2684 H   0  0  0  0  0  0  0  0  0  0  0  0
   48.8364   33.2554   41.2218 H   0  0  0  0  0  0  0  0  0  0  0  0
   48.3755   34.0656   43.7835 H   0  0  0  0  0  0  0  0  0  0  0  0
  1  6  2  0
  2  1  1  0
  3  2  2  0
  3  4  1  0
  4  5  2  0
  5  6  1  0
  7  9  1  0
  7  3  1  0
  8  7  1  0
  8  9  1  0
  9 10  1  0
  1 11  1  0
  2 12  1  0
  5 13  1  0
  7 14  1  6
  8 15  1  0
  8 16  1  0
  9 17  1  6
 10 18  1  0
M  ISO  8  11  14  12  14  13  14  14  13  15  13  16  13  17  13  18   3
M  END
>  <minimizedAffinity>  (1) 
-3.86814594

>  <minimizedRMSD>  (1) 
0.154089034

$$$$
