
     RDKit          3D

 33 35  0  0  1  0  0  0  0  0999 V2000
   46.4430   33.6660   39.0990 N   0  0  0  0  0  0  0  0  0  0  0  0
   47.0420   33.4480   37.7960 C   0  0  0  0  0  0  0  0  0  0  0  0
   48.3730   34.0820   37.8040 C   0  0  0  0  0  0  0  0  0  0  0  0
   48.4060   34.8130   39.1370 C   0  0  0  0  0  0  0  0  0  0  0  0
   47.5830   33.9110   39.9970 C   0  0  2  0  0  0  0  0  0  0  0  0
   48.2700   32.6270   40.2640 C   0  0  0  0  0  0  0  0  0  0  0  0
   47.5150   31.4350   40.4890 C   0  0  0  0  0  0  0  0  0  0  0  0
   48.8520   30.1250   40.7710 S   0  0  0  0  0  0  0  0  0  0  0  0
   50.1510   31.4340   40.5330 C   0  0  0  0  0  0  0  0  0  0  0  0
   49.5600   32.3870   40.3340 N   0  0  0  0  0  0  0  0  0  0  0  0
   47.1700   34.5710   41.1860 N   0  0  0  0  0  0  0  0  0  0  0  0
   45.7380   34.5280   41.2830 C   0  0  0  0  0  0  0  0  0  0  0  0
   44.5850   35.9810   44.6100 C   0  0  0  0  0  0  0  0  0  0  0  0
   44.8250   35.9290   43.2270 C   0  0  0  0  0  0  0  0  0  0  0  0
   45.4160   34.7460   42.7440 C   0  0  0  0  0  0  0  0  0  0  0  0
   45.7180   33.7370   43.6090 N   0  0  0  0  0  0  0  0  0  0  0  0
   45.4680   33.8320   44.9360 C   0  0  0  0  0  0  0  0  0  0  0  0
   44.8960   34.9700   45.4220 N   0  0  0  0  0  0  0  0  0  0  0  0
   45.9154   32.8342   39.4002 H   0  0  0  0  0  0  0  0  0  0  0  0
   46.4151   33.9023   37.0145 H   0  0  0  0  0  0  0  0  0  0  0  0
   47.1287   32.3716   37.5866 H   0  0  0  0  0  0  0  0  0  0  0  0
   49.1698   33.3256   37.7499 H   0  0  0  0  0  0  0  0  0  0  0  0
   48.5369   34.7483   36.9442 H   0  0  0  0  0  0  0  0  0  0  0  0
   49.4335   34.9039   39.5192 H   0  0  0  0  0  0  0  0  0  0  0  0
   48.0332   35.8468   39.0889 H   0  0  0  0  0  0  0  0  0  0  0  0
   46.4222   31.3091   40.4965 H   0  0  0  0  0  0  0  0  0  0  0  0
   51.2437   31.3148   40.5749 H   0  0  0  0  0  0  0  0  0  0  0  0
   47.5840   34.0990   42.0025 H   0  0  0  0  0  0  0  0  0  0  0  0
   45.2887   35.3227   40.6693 H   0  0  0  0  0  0  0  0  0  0  0  0
   45.3367   33.5707   40.9190 H   0  0  0  0  0  0  0  0  0  0  0  0
   44.1257   36.8848   45.0370 H   0  0  0  0  0  0  0  0  0  0  0  0
   44.5661   36.7644   42.5598 H   0  0  0  0  0  0  0  0  0  0  0  0
   45.7227   33.0028   45.6125 H   0  0  0  0  0  0  0  0  0  0  0  0
  1  5  1  0
  2  3  1  0
  2  1  1  0
  3  4  1  0
  4  5  1  0
  5  6  1  0
  5 11  1  1
  6 10  1  0
  6  7  2  0
  7  8  1  0
  9  8  1  0
 10  9  2  0
 11 12  1  0
 12 15  1  0
 13 18  2  0
 14 13  1  0
 15 14  2  0
 15 16  1  0
 16 17  2  0
 17 18  1  0
  1 19  1  0
  2 20  1  0
  2 21  1  0
  3 22  1  0
  3 23  1  0
  4 24  1  0
  4 25  1  0
  7 26  1  0
  9 27  1  0
 11 28  1  0
 12 29  1  0
 12 30  1  0
 13 31  1  0
 14 32  1  0
 17 33  1  0
M  ISO  8  19   5  20  13  21  13  22  13  23  13  24  13  25  13  26  14
M  ISO  7  27  14  28   5  29   8  30   8  31  14  32  14  33  14
M  END
>  <minimizedAffinity>  (1) 
-4.36355782

>  <minimizedRMSD>  (1) 
0.575442374

$$$$
