
     RDKit          3D

 33 34  0  0  1  0  0  0  0  0999 V2000
   46.4050   33.6500   39.0290 N   0  0  0  0  0  0  0  0  0  0  0  0
   46.9750   33.4730   37.7230 C   0  0  0  0  0  0  0  0  0  0  0  0
   48.3660   33.9790   37.7540 C   0  0  0  0  0  0  0  0  0  0  0  0
   48.4100   34.7310   39.0920 C   0  0  0  0  0  0  0  0  0  0  0  0
   47.5320   33.8770   39.9290 C   0  0  1  0  0  0  0  0  0  0  0  0
   47.1320   34.5580   41.1130 N   0  0  0  0  0  0  0  0  0  0  0  0
   45.7140   34.4300   41.2640 C   0  0  0  0  0  0  0  0  0  0  0  0
   44.5900   35.9940   44.5510 C   0  0  0  0  0  0  0  0  0  0  0  0
   44.8370   35.8880   43.1660 C   0  0  0  0  0  0  0  0  0  0  0  0
   45.4080   34.7130   42.7030 C   0  0  0  0  0  0  0  0  0  0  0  0
   45.7010   33.7280   43.5930 N   0  0  0  0  0  0  0  0  0  0  0  0
   45.4590   33.8430   44.9230 C   0  0  0  0  0  0  0  0  0  0  0  0
   44.9010   34.9860   45.3840 N   0  0  0  0  0  0  0  0  0  0  0  0
   48.2050   32.5940   40.2840 C   0  0  0  0  0  0  0  0  0  0  0  0
   49.3940   32.6980   41.1730 C   0  0  0  0  0  0  0  0  0  0  0  0
   45.8856   32.8064   39.3107 H   0  0  0  0  0  0  0  0  0  0  0  0
   46.3899   34.0369   36.9816 H   0  0  0  0  0  0  0  0  0  0  0  0
   46.9634   32.4091   37.4439 H   0  0  0  0  0  0  0  0  0  0  0  0
   49.0913   33.1521   37.7376 H   0  0  0  0  0  0  0  0  0  0  0  0
   48.6268   34.6049   36.8878 H   0  0  0  0  0  0  0  0  0  0  0  0
   49.4322   34.7767   39.4957 H   0  0  0  0  0  0  0  0  0  0  0  0
   48.0929   35.7825   39.0305 H   0  0  0  0  0  0  0  0  0  0  0  0
   47.6055   34.1424   41.9278 H   0  0  0  0  0  0  0  0  0  0  0  0
   45.1968   35.1537   40.6168 H   0  0  0  0  0  0  0  0  0  0  0  0
   45.3744   33.4238   40.9773 H   0  0  0  0  0  0  0  0  0  0  0  0
   44.1377   36.9122   44.9538 H   0  0  0  0  0  0  0  0  0  0  0  0
   44.5854   36.7087   42.4781 H   0  0  0  0  0  0  0  0  0  0  0  0
   45.7113   33.0238   45.6123 H   0  0  0  0  0  0  0  0  0  0  0  0
   47.4646   31.9552   40.7877 H   0  0  0  0  0  0  0  0  0  0  0  0
   48.5831   32.1881   39.3341 H   0  0  0  0  0  0  0  0  0  0  0  0
   49.0698   32.6696   42.2238 H   0  0  0  0  0  0  0  0  0  0  0  0
   50.0738   31.8559   40.9762 H   0  0  0  0  0  0  0  0  0  0  0  0
   49.9173   33.6453   40.9762 H   0  0  0  0  0  0  0  0  0  0  0  0
  1  5  1  0
  2  3  1  0
  2  1  1  0
  3  4  1  0
  4  5  1  0
  5 14  1  0
  5  6  1  1
  6  7  1  0
  7 10  1  0
  8 13  2  0
  9  8  1  0
 10  9  2  0
 10 11  1  0
 11 12  2  0
 12 13  1  0
 14 15  1  0
  1 16  1  0
  2 17  1  0
  2 18  1  0
  3 19  1  0
  3 20  1  0
  4 21  1  0
  4 22  1  0
  6 23  1  0
  7 24  1  0
  7 25  1  0
  8 26  1  0
  9 27  1  0
 12 28  1  0
 14 29  1  0
 14 30  1  0
 15 31  1  0
 15 32  1  0
 15 33  1  0
M  ISO  8  16   5  17  13  18  13  19  13  20  13  21  13  22  13  23   5
M  ISO  8  24   8  25   8  26  14  27  14  28  14  29   8  30   8  31   8
M  ISO  2  32   8  33   8
M  END
>  <minimizedAffinity>  (1) 
-4.09606552

>  <minimizedRMSD>  (1) 
0.139469296

$$$$
