
     RDKit          3D

 28 29  0  0  1  0  0  0  0  0999 V2000
   47.1220   34.5010   41.1350 N   0  0  0  0  0  0  0  0  0  0  0  0
   46.3730   33.6780   39.0170 N   0  0  0  0  0  0  0  0  0  0  0  0
   46.9820   33.4700   37.7200 C   0  0  0  0  0  0  0  0  0  0  0  0
   48.3690   33.9800   37.7710 C   0  0  0  0  0  0  0  0  0  0  0  0
   48.3930   34.7200   39.1070 C   0  0  0  0  0  0  0  0  0  0  0  0
   47.5040   33.8650   39.9170 C   0  0  1  0  0  0  0  0  0  0  0  0
   48.0500   32.6330   40.1720 O   0  0  0  0  0  0  0  0  0  0  0  0
   45.6900   34.4190   41.2430 C   0  0  0  0  0  0  0  0  0  0  0  0
   44.6050   35.9780   44.5540 C   0  0  0  0  0  0  0  0  0  0  0  0
   44.8130   35.9270   43.1790 C   0  0  0  0  0  0  0  0  0  0  0  0
   45.3720   34.7310   42.6890 C   0  0  0  0  0  0  0  0  0  0  0  0
   45.6670   33.7320   43.5610 N   0  0  0  0  0  0  0  0  0  0  0  0
   45.4470   33.8260   44.8970 C   0  0  0  0  0  0  0  0  0  0  0  0
   44.9040   34.9840   45.3760 N   0  0  0  0  0  0  0  0  0  0  0  0
   47.4166   35.4879   41.1224 H   0  0  0  0  0  0  0  0  0  0  0  0
   45.8166   32.8571   39.2952 H   0  0  0  0  0  0  0  0  0  0  0  0
   46.4139   34.0137   36.9509 H   0  0  0  0  0  0  0  0  0  0  0  0
   46.9810   32.3992   37.4683 H   0  0  0  0  0  0  0  0  0  0  0  0
   49.0975   33.1559   37.7586 H   0  0  0  0  0  0  0  0  0  0  0  0
   48.6385   34.6119   36.9119 H   0  0  0  0  0  0  0  0  0  0  0  0
   49.4083   34.7609   39.5282 H   0  0  0  0  0  0  0  0  0  0  0  0
   48.0803   35.7730   39.0484 H   0  0  0  0  0  0  0  0  0  0  0  0
   48.1111   32.4952   41.1505 H   0  0  0  0  0  0  0  0  0  0  0  0
   45.2122   35.1533   40.5778 H   0  0  0  0  0  0  0  0  0  0  0  0
   45.3160   33.4272   40.9490 H   0  0  0  0  0  0  0  0  0  0  0  0
   44.1688   36.8932   44.9809 H   0  0  0  0  0  0  0  0  0  0  0  0
   44.5571   36.7674   42.5170 H   0  0  0  0  0  0  0  0  0  0  0  0
   45.6982   32.9953   45.5729 H   0  0  0  0  0  0  0  0  0  0  0  0
  1  8  1  0
  2  6  1  0
  3  4  1  0
  3  2  1  0
  4  5  1  0
  5  6  1  0
  6  7  1  1
  6  1  1  0
  8 11  1  0
  9 14  2  0
 10  9  1  0
 11 10  2  0
 11 12  1  0
 12 13  2  0
 13 14  1  0
  1 15  1  0
  2 16  1  0
  3 17  1  0
  3 18  1  0
  4 19  1  0
  4 20  1  0
  5 21  1  0
  5 22  1  0
  7 23  1  0
  8 24  1  0
  8 25  1  0
  9 26  1  0
 10 27  1  0
 13 28  1  0
M  ISO  8  15   5  16   5  17  13  18  13  19  13  20  13  21  13  22  13
M  ISO  6  23   3  24   8  25   8  26  14  27  14  28  14
M  END
>  <minimizedAffinity>  (1) 
-4.06548882

>  <minimizedRMSD>  (1) 
0.0996559188

$$$$
