
     RDKit          3D

 29 30  0  0  1  0  0  0  0  0999 V2000
   46.3940   33.6960   39.0330 N   0  0  0  0  0  0  0  0  0  0  0  0
   47.0010   33.4590   37.7370 C   0  0  0  0  0  0  0  0  0  0  0  0
   48.3640   34.0370   37.7700 C   0  0  0  0  0  0  0  0  0  0  0  0
   48.4060   34.7490   39.1140 C   0  0  0  0  0  0  0  0  0  0  0  0
   47.5390   33.8850   39.9410 C   0  0  2  0  0  0  0  0  0  0  0  0
   48.1350   32.5500   40.1630 C   0  0  0  0  0  0  0  0  0  0  0  0
   49.1810   32.1900   40.6930 O   0  0  0  0  0  0  0  0  0  0  0  0
   47.1400   34.5280   41.1450 N   0  0  0  0  0  0  0  0  0  0  0  0
   45.7170   34.4240   41.2620 C   0  0  0  0  0  0  0  0  0  0  0  0
   44.6000   35.9800   44.5730 C   0  0  0  0  0  0  0  0  0  0  0  0
   44.8200   35.9270   43.1820 C   0  0  0  0  0  0  0  0  0  0  0  0
   45.3870   34.7370   42.6950 C   0  0  0  0  0  0  0  0  0  0  0  0
   45.6790   33.7420   43.5780 N   0  0  0  0  0  0  0  0  0  0  0  0
   45.4580   33.8210   44.9040 C   0  0  0  0  0  0  0  0  0  0  0  0
   44.9070   34.9730   45.3850 N   0  0  0  0  0  0  0  0  0  0  0  0
   45.8270   32.8868   39.3240 H   0  0  0  0  0  0  0  0  0  0  0  0
   46.4062   33.9449   36.9495 H   0  0  0  0  0  0  0  0  0  0  0  0
   47.0429   32.3813   37.5207 H   0  0  0  0  0  0  0  0  0  0  0  0
   49.1286   33.2480   37.7173 H   0  0  0  0  0  0  0  0  0  0  0  0
   48.5704   34.7050   36.9208 H   0  0  0  0  0  0  0  0  0  0  0  0
   49.4299   34.7893   39.5141 H   0  0  0  0  0  0  0  0  0  0  0  0
   48.0794   35.7986   39.0725 H   0  0  0  0  0  0  0  0  0  0  0  0
   47.5228   31.7206   39.7792 H   0  0  0  0  0  0  0  0  0  0  0  0
   47.5898   34.0692   41.9501 H   0  0  0  0  0  0  0  0  0  0  0  0
   45.2261   35.1451   40.5919 H   0  0  0  0  0  0  0  0  0  0  0  0
   45.3652   33.4204   40.9809 H   0  0  0  0  0  0  0  0  0  0  0  0
   44.1570   36.8901   45.0037 H   0  0  0  0  0  0  0  0  0  0  0  0
   44.5636   36.7658   42.5181 H   0  0  0  0  0  0  0  0  0  0  0  0
   45.7124   32.9873   45.5750 H   0  0  0  0  0  0  0  0  0  0  0  0
  1  5  1  0
  2  3  1  0
  2  1  1  0
  3  4  1  0
  4  5  1  0
  5  6  1  0
  5  8  1  1
  6  7  2  0
  8  9  1  0
  9 12  1  0
 10 15  2  0
 11 10  1  0
 12 11  2  0
 12 13  1  0
 13 14  2  0
 14 15  1  0
  1 16  1  0
  2 17  1  0
  2 18  1  0
  3 19  1  0
  3 20  1  0
  4 21  1  0
  4 22  1  0
  6 23  1  0
  8 24  1  0
  9 25  1  0
  9 26  1  0
 10 27  1  0
 11 28  1  0
 14 29  1  0
M  ISO  8  16   5  17  13  18  13  19  13  20  13  21  13  22  13  23   6
M  ISO  6  24   5  25   8  26   8  27  14  28  14  29  14
M  END
>  <minimizedAffinity>  (1) 
-4.05468559

>  <minimizedRMSD>  (1) 
0.20110622

$$$$
