
     RDKit          3D

 24 26  0  0  1  0  0  0  0  0999 V2000
   44.5180   34.5360   43.1180 C   0  0  1  0  0  0  0  0  0  0  0  0
   45.0090   35.9880   43.1170 C   0  0  0  0  0  0  0  0  0  0  0  0
   45.0940   35.1170   41.9000 C   0  0  1  0  0  0  0  0  0  0  0  0
   46.3790   33.1780   46.0730 C   0  0  0  0  0  0  0  0  0  0  0  0
   45.6120   34.0550   45.2860 C   0  0  0  0  0  0  0  0  0  0  0  0
   45.3440   33.6380   43.9730 C   0  0  0  0  0  0  0  0  0  0  0  0
   45.8380   32.4230   43.5480 N   0  0  0  0  0  0  0  0  0  0  0  0
   46.5620   31.6370   44.3550 C   0  0  0  0  0  0  0  0  0  0  0  0
   46.8300   32.0150   45.6110 N   0  0  0  0  0  0  0  0  0  0  0  0
   46.4530   34.7780   41.5140 N   0  0  0  0  0  0  0  0  0  0  0  0
   46.8010   33.9350   40.5620 N   0  0  0  0  0  0  0  0  0  0  0  0
   48.1590   33.8570   40.4700 C   0  0  0  0  0  0  0  0  0  0  0  0
   48.7110   34.7030   41.4230 C   0  0  0  0  0  0  0  0  0  0  0  0
   47.6120   35.2600   42.0540 C   0  0  0  0  0  0  0  0  0  0  0  0
   43.5825   33.9893   43.3076 H   0  0  0  0  0  0  0  0  0  0  0  0
   44.2886   36.8183   43.1570 H   0  0  0  0  0  0  0  0  0  0  0  0
   45.7160   36.5834   43.7134 H   0  0  0  0  0  0  0  0  0  0  0  0
   44.7279   35.1533   40.8634 H   0  0  0  0  0  0  0  0  0  0  0  0
   46.6147   33.4641   47.1087 H   0  0  0  0  0  0  0  0  0  0  0  0
   45.2426   35.0143   45.6775 H   0  0  0  0  0  0  0  0  0  0  0  0
   46.9395   30.6731   43.9829 H   0  0  0  0  0  0  0  0  0  0  0  0
   48.7215   33.2308   39.7618 H   0  0  0  0  0  0  0  0  0  0  0  0
   49.7756   34.8878   41.6289 H   0  0  0  0  0  0  0  0  0  0  0  0
   47.6644   35.9892   42.8759 H   0  0  0  0  0  0  0  0  0  0  0  0
  1  6  1  0
  2  1  1  0
  3  2  1  0
  3  1  1  0
  5  4  2  0
  6  5  1  0
  7  6  2  0
  7  8  1  0
  8  9  2  0
  9  4  1  0
 10  3  1  0
 10 14  1  0
 11 10  1  0
 12 11  2  0
 12 13  1  0
 13 14  2  0
  1 15  1  6
  2 16  1  0
  2 17  1  0
  3 18  1  6
  4 19  1  0
  5 20  1  0
  8 21  1  0
 12 22  1  0
 13 23  1  0
 14 24  1  0
M  ISO  8  15  13  16  13  17  13  18  13  19  14  20  14  21  14  22  14
M  ISO  2  23  14  24  14
M  END
>  <minimizedAffinity>  (1) 
-3.81549096

>  <minimizedRMSD>  (1) 
3.36688042

$$$$
