
     RDKit          3D

 30 31  0  0  1  0  0  0  0  0999 V2000
   46.4560   33.6680   39.0660 N   0  0  0  0  0  0  0  0  0  0  0  0
   47.0340   33.4860   37.7560 C   0  0  0  0  0  0  0  0  0  0  0  0
   48.3530   34.1540   37.7460 C   0  0  0  0  0  0  0  0  0  0  0  0
   48.4340   34.7990   39.1200 C   0  0  0  0  0  0  0  0  0  0  0  0
   47.5970   33.9060   39.9430 C   0  0  2  0  0  0  0  0  0  0  0  0
   48.1880   32.5640   40.2730 C   0  0  0  0  0  0  0  0  0  0  0  0
   48.2980   32.4170   41.6490 F   0  0  0  0  0  0  0  0  0  0  0  0
   47.4560   31.5190   39.7550 F   0  0  0  0  0  0  0  0  0  0  0  0
   49.4680   32.4110   39.7750 F   0  0  0  0  0  0  0  0  0  0  0  0
   47.1920   34.5470   41.1600 N   0  0  0  0  0  0  0  0  0  0  0  0
   45.7620   34.4550   41.2480 C   0  0  0  0  0  0  0  0  0  0  0  0
   44.5970   35.9760   44.5540 C   0  0  0  0  0  0  0  0  0  0  0  0
   44.8360   35.9200   43.1700 C   0  0  0  0  0  0  0  0  0  0  0  0
   45.4200   34.7300   42.6960 C   0  0  0  0  0  0  0  0  0  0  0  0
   45.7090   33.7370   43.5810 N   0  0  0  0  0  0  0  0  0  0  0  0
   45.4680   33.8250   44.8970 C   0  0  0  0  0  0  0  0  0  0  0  0
   44.9020   34.9680   45.3840 N   0  0  0  0  0  0  0  0  0  0  0  0
   45.9434   32.8235   39.3576 H   0  0  0  0  0  0  0  0  0  0  0  0
   47.1566   32.4130   37.5471 H   0  0  0  0  0  0  0  0  0  0  0  0
   46.3794   33.9175   36.9844 H   0  0  0  0  0  0  0  0  0  0  0  0
   49.1630   33.4230   37.6064 H   0  0  0  0  0  0  0  0  0  0  0  0
   48.4603   34.8786   36.9254 H   0  0  0  0  0  0  0  0  0  0  0  0
   49.4705   34.8223   39.4875 H   0  0  0  0  0  0  0  0  0  0  0  0
   48.0999   35.8470   39.1323 H   0  0  0  0  0  0  0  0  0  0  0  0
   47.6241   34.0736   41.9663 H   0  0  0  0  0  0  0  0  0  0  0  0
   45.2890   35.2024   40.5940 H   0  0  0  0  0  0  0  0  0  0  0  0
   45.3991   33.4676   40.9266 H   0  0  0  0  0  0  0  0  0  0  0  0
   44.1407   36.8846   44.9737 H   0  0  0  0  0  0  0  0  0  0  0  0
   44.5825   36.7540   42.4991 H   0  0  0  0  0  0  0  0  0  0  0  0
   45.7212   32.9931   45.5707 H   0  0  0  0  0  0  0  0  0  0  0  0
  1  5  1  0
  2  1  1  0
  3  2  1  0
  3  4  1  0
  4  5  1  0
  5  6  1  0
  5 10  1  1
  6  7  1  0
  8  6  1  0
  9  6  1  0
 10 11  1  0
 11 14  1  0
 12 17  2  0
 13 12  1  0
 14 13  2  0
 14 15  1  0
 15 16  2  0
 16 17  1  0
  1 18  1  0
  2 19  1  0
  2 20  1  0
  3 21  1  0
  3 22  1  0
  4 23  1  0
  4 24  1  0
 10 25  1  0
 11 26  1  0
 11 27  1  0
 12 28  1  0
 13 29  1  0
 16 30  1  0
M  ISO  8  18   5  19  13  20  13  21  13  22  13  23  13  24  13  25   5
M  ISO  5  26   8  27   8  28  14  29  14  30  14
M  END
>  <minimizedAffinity>  (1) 
-4.3012228

>  <minimizedRMSD>  (1) 
0.445611566

$$$$
