
     RDKit          3D

 18 19  0  0  1  0  0  0  0  0999 V2000
   44.6360   36.1480   44.4510 C   0  0  0  0  0  0  0  0  0  0  0  0
   45.3060   36.0720   43.2140 C   0  0  0  0  0  0  0  0  0  0  0  0
   46.0670   34.9420   42.9770 C   0  0  0  0  0  0  0  0  0  0  0  0
   46.1400   33.9560   43.9400 N   0  0  0  0  0  0  0  0  0  0  0  0
   45.4780   34.0730   45.1160 C   0  0  0  0  0  0  0  0  0  0  0  0
   44.7360   35.1590   45.3640 N   0  0  0  0  0  0  0  0  0  0  0  0
   46.7720   34.8110   41.6760 C   0  0  1  0  0  0  0  0  0  0  0  0
   48.1940   35.3860   41.6770 C   0  0  0  0  0  0  0  0  0  0  0  0
   47.9270   33.9210   41.5240 C   0  0  1  0  0  0  0  0  0  0  0  0
   48.5410   32.9310   42.9040 S   0  0  0  0  0  0  0  0  0  0  0  0
   44.0194   37.0305   44.6771 H   0  0  0  0  0  0  0  0  0  0  0  0
   45.2271   36.8771   42.4686 H   0  0  0  0  0  0  0  0  0  0  0  0
   45.5504   33.2740   45.8686 H   0  0  0  0  0  0  0  0  0  0  0  0
   45.8429   34.9189   41.0971 H   0  0  0  0  0  0  0  0  0  0  0  0
   48.5551   35.9774   40.8227 H   0  0  0  0  0  0  0  0  0  0  0  0
   48.7921   36.0138   42.3538 H   0  0  0  0  0  0  0  0  0  0  0  0
   48.1321   33.1316   40.7859 H   0  0  0  0  0  0  0  0  0  0  0  0
   48.1760   33.5194   44.0861 H   0  0  0  0  0  0  0  0  0  0  0  0
  1  6  2  0
  2  1  1  0
  3  2  2  0
  3  4  1  0
  4  5  2  0
  5  6  1  0
  7  8  1  0
  7  3  1  0
  9  7  1  0
  9  8  1  0
  9 10  1  0
  1 11  1  0
  2 12  1  0
  5 13  1  0
  7 14  1  6
  8 15  1  0
  8 16  1  0
  9 17  1  6
 10 18  1  0
M  ISO  8  11  14  12  14  13  14  14  13  15  13  16  13  17  13  18  11
M  END
>  <minimizedAffinity>  (1) 
-3.7889781

>  <minimizedRMSD>  (1) 
0.320566297

$$$$
