
     RDKit          3D

 42 44  0  0  1  0  0  0  0  0999 V2000
   47.0970   34.4390   41.5120 N   0  0  0  0  0  0  0  0  0  0  0  0
   46.4490   33.5860   39.3900 N   0  0  0  0  0  0  0  0  0  0  0  0
   47.0510   33.4960   38.0800 C   0  0  0  0  0  0  0  0  0  0  0  0
   48.3230   34.2470   38.1060 C   0  0  0  0  0  0  0  0  0  0  0  0
   48.3540   34.8520   39.5090 C   0  0  0  0  0  0  0  0  0  0  0  0
   47.5630   33.8750   40.2810 C   0  0  1  0  0  0  0  0  0  0  0  0
   48.2550   32.5790   40.5800 C   0  0  0  0  0  0  0  0  0  0  0  0
   48.5030   32.4650   41.9430 F   0  0  0  0  0  0  0  0  0  0  0  0
   47.5160   31.4870   40.1530 F   0  0  0  0  0  0  0  0  0  0  0  0
   49.4840   32.4700   39.9620 F   0  0  0  0  0  0  0  0  0  0  0  0
   45.7200   34.1000   41.6740 C   0  0  0  0  0  0  0  0  0  0  0  0
   44.4240   35.9630   44.7370 C   0  0  0  0  0  0  0  0  0  0  0  0
   44.6660   35.7420   43.3810 C   0  0  0  0  0  0  0  0  0  0  0  0
   45.3470   34.5500   43.0780 C   0  0  0  0  0  0  0  0  0  0  0  0
   45.7160   33.7170   44.0900 N   0  0  0  0  0  0  0  0  0  0  0  0
   45.4630   33.9690   45.3790 C   0  0  0  0  0  0  0  0  0  0  0  0
   44.8040   35.1170   45.6980 N   0  0  0  0  0  0  0  0  0  0  0  0
   45.8710   33.0620   46.3950 N   0  0  0  0  0  0  0  0  0  0  0  0
   45.1770   32.8800   47.6470 C   0  0  0  0  0  0  0  0  0  0  0  0
   46.1770   32.1690   48.5370 C   0  0  0  0  0  0  0  0  0  0  0  0
   46.9000   31.2980   47.5450 C   0  0  0  0  0  0  0  0  0  0  0  0
   47.0250   32.1910   46.3410 C   0  0  0  0  0  0  0  0  0  0  0  0
   47.2018   35.4633   41.4863 H   0  0  0  0  0  0  0  0  0  0  0  0
   45.9988   32.6957   39.6462 H   0  0  0  0  0  0  0  0  0  0  0  0
   46.3760   33.9321   37.3289 H   0  0  0  0  0  0  0  0  0  0  0  0
   47.2353   32.4439   37.8171 H   0  0  0  0  0  0  0  0  0  0  0  0
   49.1794   33.5747   37.9491 H   0  0  0  0  0  0  0  0  0  0  0  0
   48.3881   35.0053   37.3118 H   0  0  0  0  0  0  0  0  0  0  0  0
   49.3831   34.9241   39.8907 H   0  0  0  0  0  0  0  0  0  0  0  0
   47.9620   35.8786   39.5584 H   0  0  0  0  0  0  0  0  0  0  0  0
   45.1056   34.6245   40.9274 H   0  0  0  0  0  0  0  0  0  0  0  0
   45.5483   33.0225   41.5343 H   0  0  0  0  0  0  0  0  0  0  0  0
   43.8931   36.8809   45.0296 H   0  0  0  0  0  0  0  0  0  0  0  0
   44.3463   36.4510   42.6031 H   0  0  0  0  0  0  0  0  0  0  0  0
   44.8939   33.8512   48.0791 H   0  0  0  0  0  0  0  0  0  0  0  0
   44.2439   32.3097   47.5283 H   0  0  0  0  0  0  0  0  0  0  0  0
   46.8621   32.8814   49.0198 H   0  0  0  0  0  0  0  0  0  0  0  0
   45.7197   31.6142   49.3695 H   0  0  0  0  0  0  0  0  0  0  0  0
   47.8899   31.0042   47.9242 H   0  0  0  0  0  0  0  0  0  0  0  0
   46.3760   30.3543   47.3330 H   0  0  0  0  0  0  0  0  0  0  0  0
   47.0162   31.5955   45.4162 H   0  0  0  0  0  0  0  0  0  0  0  0
   47.9683   32.7568   46.3442 H   0  0  0  0  0  0  0  0  0  0  0  0
  1 11  1  0
  2  6  1  0
  3  4  1  0
  3  2  1  0
  4  5  1  0
  5  6  1  0
  6  7  1  0
  6  1  1  1
  7  8  1  0
  9  7  1  0
 10  7  1  0
 11 14  1  0
 12 17  2  0
 13 12  1  0
 14 13  2  0
 14 15  1  0
 15 16  2  0
 16 17  1  0
 16 18  1  0
 18 19  1  0
 19 20  1  0
 21 20  1  0
 22 18  1  0
 22 21  1  0
  1 23  1  0
  2 24  1  0
  3 25  1  0
  3 26  1  0
  4 27  1  0
  4 28  1  0
  5 29  1  0
  5 30  1  0
 11 31  1  0
 11 32  1  0
 12 33  1  0
 13 34  1  0
 19 35  1  0
 19 36  1  0
 20 37  1  0
 20 38  1  0
 21 39  1  0
 21 40  1  0
 22 41  1  0
 22 42  1  0
M  ISO  8  23   5  24   5  25  13  26  13  27  13  28  13  29  13  30  13
M  ISO  8  31   8  32   8  33  14  34  14  35  13  36  13  37  13  38  13
M  ISO  4  39  13  40  13  41  13  42  13
M  END
>  <minimizedAffinity>  (1) 
-5.54636335

>  <minimizedRMSD>  (1) 
0.5423612

$$$$
