
     RDKit          3D

 37 39  0  0  1  0  0  0  0  0999 V2000
   47.1430   34.4810   41.4600 N   0  0  0  0  0  0  0  0  0  0  0  0
   46.5060   33.6550   39.3180 N   0  0  0  0  0  0  0  0  0  0  0  0
   47.1210   33.5840   38.0080 C   0  0  0  0  0  0  0  0  0  0  0  0
   48.4010   34.3290   38.0630 C   0  0  0  0  0  0  0  0  0  0  0  0
   48.4140   34.9090   39.4720 C   0  0  0  0  0  0  0  0  0  0  0  0
   47.6110   33.9180   40.2330 C   0  0  1  0  0  0  0  0  0  0  0  0
   48.2710   32.6100   40.5120 C   0  0  0  0  0  0  0  0  0  0  0  0
   48.4790   32.4590   41.8800 F   0  0  0  0  0  0  0  0  0  0  0  0
   47.5550   31.5410   40.0340 F   0  0  0  0  0  0  0  0  0  0  0  0
   49.5340   32.5160   39.9370 F   0  0  0  0  0  0  0  0  0  0  0  0
   45.7540   34.2000   41.5830 C   0  0  0  0  0  0  0  0  0  0  0  0
   44.4220   36.0800   44.6240 C   0  0  0  0  0  0  0  0  0  0  0  0
   44.6960   35.8430   43.2760 C   0  0  0  0  0  0  0  0  0  0  0  0
   45.3630   34.6480   42.9830 C   0  0  0  0  0  0  0  0  0  0  0  0
   45.6960   33.8170   44.0010 N   0  0  0  0  0  0  0  0  0  0  0  0
   45.4190   34.0710   45.2890 C   0  0  0  0  0  0  0  0  0  0  0  0
   44.7670   35.2350   45.5930 N   0  0  0  0  0  0  0  0  0  0  0  0
   45.8270   33.1070   46.2550 N   0  0  0  0  0  0  0  0  0  0  0  0
   46.9360   32.3830   45.9610 C   0  0  0  0  0  0  0  0  0  0  0  0
   47.1260   31.5280   47.0380 C   0  0  0  0  0  0  0  0  0  0  0  0
   46.1590   31.7350   47.9490 N   0  0  0  0  0  0  0  0  0  0  0  0
   45.3570   32.7050   47.4730 C   0  0  0  0  0  0  0  0  0  0  0  0
   47.2924   35.5001   41.4543 H   0  0  0  0  0  0  0  0  0  0  0  0
   46.0454   32.7639   39.5516 H   0  0  0  0  0  0  0  0  0  0  0  0
   46.4564   34.0382   37.2583 H   0  0  0  0  0  0  0  0  0  0  0  0
   47.3002   32.5360   37.7258 H   0  0  0  0  0  0  0  0  0  0  0  0
   49.2557   33.6543   37.9075 H   0  0  0  0  0  0  0  0  0  0  0  0
   48.4828   35.0990   37.2817 H   0  0  0  0  0  0  0  0  0  0  0  0
   49.4392   34.9764   39.8650 H   0  0  0  0  0  0  0  0  0  0  0  0
   48.0166   35.9331   39.5291 H   0  0  0  0  0  0  0  0  0  0  0  0
   45.1818   34.7591   40.8281 H   0  0  0  0  0  0  0  0  0  0  0  0
   45.5414   33.1323   41.4254 H   0  0  0  0  0  0  0  0  0  0  0  0
   43.8972   37.0071   44.8980 H   0  0  0  0  0  0  0  0  0  0  0  0
   44.4045   36.5545   42.4893 H   0  0  0  0  0  0  0  0  0  0  0  0
   47.5566   32.4580   45.0559 H   0  0  0  0  0  0  0  0  0  0  0  0
   47.9409   30.7951   47.1316 H   0  0  0  0  0  0  0  0  0  0  0  0
   44.4687   33.1081   47.9813 H   0  0  0  0  0  0  0  0  0  0  0  0
  1 11  1  0
  2  6  1  0
  3  4  1  0
  3  2  1  0
  4  5  1  0
  5  6  1  0
  6  7  1  0
  6  1  1  1
  7  8  1  0
  9  7  1  0
 10  7  1  0
 11 14  1  0
 12 17  2  0
 13 12  1  0
 14 13  2  0
 14 15  1  0
 15 16  2  0
 16 17  1  0
 16 18  1  0
 18 22  1  0
 19 18  1  0
 19 20  2  0
 20 21  1  0
 22 21  2  0
  1 23  1  0
  2 24  1  0
  3 25  1  0
  3 26  1  0
  4 27  1  0
  4 28  1  0
  5 29  1  0
  5 30  1  0
 11 31  1  0
 11 32  1  0
 12 33  1  0
 13 34  1  0
 19 35  1  0
 20 36  1  0
 22 37  1  0
M  ISO  8  23   5  24   5  25  13  26  13  27  13  28  13  29  13  30  13
M  ISO  7  31   8  32   8  33  14  34  14  35  14  36  14  37  14
M  END
>  <minimizedAffinity>  (1) 
-5.4157815

>  <minimizedRMSD>  (1) 
0.509333611

$$$$
