
     RDKit          3D

 37 39  0  0  1  0  0  0  0  0999 V2000
   47.2440   35.2240   42.1230 N   0  0  0  0  0  0  0  0  0  0  0  0
   47.1630   32.9670   41.3550 N   0  0  0  0  0  0  0  0  0  0  0  0
   47.7870   32.2240   40.2810 C   0  0  0  0  0  0  0  0  0  0  0  0
   48.5480   33.1780   39.4370 C   0  0  0  0  0  0  0  0  0  0  0  0
   48.2340   34.5210   40.0550 C   0  0  0  0  0  0  0  0  0  0  0  0
   47.9630   34.1770   41.4680 C   0  0  1  0  0  0  0  0  0  0  0  0
   49.1680   33.8230   42.2920 C   0  0  0  0  0  0  0  0  0  0  0  0
   49.5600   34.9110   43.0580 F   0  0  0  0  0  0  0  0  0  0  0  0
   48.9430   32.7460   43.1210 F   0  0  0  0  0  0  0  0  0  0  0  0
   50.2690   33.4880   41.5270 F   0  0  0  0  0  0  0  0  0  0  0  0
   45.8690   34.8540   42.1710 C   0  0  0  0  0  0  0  0  0  0  0  0
   44.4190   35.4910   45.6410 C   0  0  0  0  0  0  0  0  0  0  0  0
   44.6460   35.7010   44.2810 C   0  0  0  0  0  0  0  0  0  0  0  0
   45.5050   34.7860   43.6410 C   0  0  0  0  0  0  0  0  0  0  0  0
   46.0410   33.7870   44.3730 N   0  0  0  0  0  0  0  0  0  0  0  0
   45.8050   33.6120   45.6700 C   0  0  0  0  0  0  0  0  0  0  0  0
   44.9770   34.4840   46.3090 N   0  0  0  0  0  0  0  0  0  0  0  0
   46.3920   32.5480   46.3880 C   0  0  0  0  0  0  0  0  0  0  0  0
   47.1550   32.4480   47.4960 C   0  0  0  0  0  0  0  0  0  0  0  0
   47.5950   31.2510   47.9810 C   0  0  0  0  0  0  0  0  0  0  0  0
   47.1780   30.1070   47.2130 C   0  0  0  0  0  0  0  0  0  0  0  0
   46.1670   30.9130   45.8370 S   0  0  0  0  0  0  0  0  0  0  0  0
   47.3508   36.1030   41.5969 H   0  0  0  0  0  0  0  0  0  0  0  0
   47.1885   32.4295   42.2333 H   0  0  0  0  0  0  0  0  0  0  0  0
   48.4700   31.4695   40.6983 H   0  0  0  0  0  0  0  0  0  0  0  0
   47.0218   31.7118   39.6793 H   0  0  0  0  0  0  0  0  0  0  0  0
   48.2078   33.1366   38.3917 H   0  0  0  0  0  0  0  0  0  0  0  0
   49.6259   32.9603   39.4082 H   0  0  0  0  0  0  0  0  0  0  0  0
   49.0909   35.2056   39.9713 H   0  0  0  0  0  0  0  0  0  0  0  0
   47.3971   35.0404   39.5653 H   0  0  0  0  0  0  0  0  0  0  0  0
   45.2524   35.6076   41.6592 H   0  0  0  0  0  0  0  0  0  0  0  0
   45.6931   33.8918   41.6677 H   0  0  0  0  0  0  0  0  0  0  0  0
   43.7551   36.1823   46.1808 H   0  0  0  0  0  0  0  0  0  0  0  0
   44.1796   36.5359   43.7375 H   0  0  0  0  0  0  0  0  0  0  0  0
   47.4336   33.3685   48.0299 H   0  0  0  0  0  0  0  0  0  0  0  0
   48.2171   31.1670   48.8843 H   0  0  0  0  0  0  0  0  0  0  0  0
   47.3924   29.0416   47.3833 H   0  0  0  0  0  0  0  0  0  0  0  0
  1 11  1  0
  2  6  1  0
  3  2  1  0
  4  5  1  0
  4  3  1  0
  5  6  1  0
  6  1  1  1
  6  7  1  0
  7  8  1  0
  7  9  1  0
 10  7  1  0
 11 14  1  0
 12 17  2  0
 13 12  1  0
 14 13  2  0
 14 15  1  0
 15 16  2  0
 16 17  1  0
 16 18  1  0
 18 19  2  0
 19 20  1  0
 21 20  2  0
 22 18  1  0
 22 21  1  0
  1 23  1  0
  2 24  1  0
  3 25  1  0
  3 26  1  0
  4 27  1  0
  4 28  1  0
  5 29  1  0
  5 30  1  0
 11 31  1  0
 11 32  1  0
 12 33  1  0
 13 34  1  0
 19 35  1  0
 20 36  1  0
 21 37  1  0
M  ISO  8  23   5  24   5  25  13  26  13  27  13  28  13  29  13  30  13
M  ISO  7  31   8  32   8  33  14  34  14  35  14  36  14  37  14
M  END
>  <minimizedAffinity>  (1) 
-5.32230473

>  <minimizedRMSD>  (1) 
1.86846519

$$$$
