
     RDKit          3D

 33 34  0  0  1  0  0  0  0  0999 V2000
   47.2310   34.6150   41.3370 N   0  0  0  0  0  0  0  0  0  0  0  0
   46.5330   33.6960   39.2470 N   0  0  0  0  0  0  0  0  0  0  0  0
   47.1140   33.5190   37.9390 C   0  0  0  0  0  0  0  0  0  0  0  0
   48.4110   34.2380   37.9290 C   0  0  0  0  0  0  0  0  0  0  0  0
   48.4700   34.8880   39.3020 C   0  0  0  0  0  0  0  0  0  0  0  0
   47.6480   33.9830   40.1210 C   0  0  1  0  0  0  0  0  0  0  0  0
   48.2860   32.6580   40.4670 C   0  0  0  0  0  0  0  0  0  0  0  0
   48.4560   32.5450   41.8370 F   0  0  0  0  0  0  0  0  0  0  0  0
   47.5400   31.5890   40.0230 F   0  0  0  0  0  0  0  0  0  0  0  0
   49.5370   32.5090   39.9060 F   0  0  0  0  0  0  0  0  0  0  0  0
   45.8040   34.4960   41.4180 C   0  0  0  0  0  0  0  0  0  0  0  0
   44.4610   35.8690   44.7180 C   0  0  0  0  0  0  0  0  0  0  0  0
   44.6870   35.8050   43.3390 C   0  0  0  0  0  0  0  0  0  0  0  0
   45.4540   34.7320   42.8690 C   0  0  0  0  0  0  0  0  0  0  0  0
   45.9230   33.8310   43.7650 N   0  0  0  0  0  0  0  0  0  0  0  0
   45.6900   33.9180   45.0790 C   0  0  0  0  0  0  0  0  0  0  0  0
   44.9520   34.9430   45.5710 N   0  0  0  0  0  0  0  0  0  0  0  0
   46.2200   32.9210   45.9980 C   0  0  0  0  0  0  0  0  0  0  0  0
   45.9350   31.7070   45.8660 O   0  0  0  0  0  0  0  0  0  0  0  0
   47.0530   33.3070   47.0370 O   0  0  0  0  0  0  0  0  0  0  0  0
   47.5009   35.6090   41.3271 H   0  0  0  0  0  0  0  0  0  0  0  0
   46.0505   32.8370   39.5472 H   0  0  0  0  0  0  0  0  0  0  0  0
   47.2757   32.4491   37.7410 H   0  0  0  0  0  0  0  0  0  0  0  0
   46.4450   33.9138   37.1601 H   0  0  0  0  0  0  0  0  0  0  0  0
   49.2474   33.5373   37.7899 H   0  0  0  0  0  0  0  0  0  0  0  0
   48.4900   34.9657   37.1079 H   0  0  0  0  0  0  0  0  0  0  0  0
   49.5035   34.9333   39.6758 H   0  0  0  0  0  0  0  0  0  0  0  0
   48.1143   35.9289   39.3090 H   0  0  0  0  0  0  0  0  0  0  0  0
   45.3197   35.2495   40.7795 H   0  0  0  0  0  0  0  0  0  0  0  0
   45.4593   33.5100   41.0731 H   0  0  0  0  0  0  0  0  0  0  0  0
   43.8641   36.7003   45.1212 H   0  0  0  0  0  0  0  0  0  0  0  0
   44.2803   36.5638   42.6544 H   0  0  0  0  0  0  0  0  0  0  0  0
   47.4128   32.6281   47.6613 H   0  0  0  0  0  0  0  0  0  0  0  0
  1 11  1  0
  2  6  1  0
  3  2  1  0
  4  3  1  0
  4  5  1  0
  5  6  1  0
  6  7  1  0
  6  1  1  1
  7  8  1  0
  9  7  1  0
 10  7  1  0
 11 14  1  0
 12 17  2  0
 13 12  1  0
 14 13  2  0
 14 15  1  0
 15 16  2  0
 16 17  1  0
 16 18  1  0
 18 20  1  0
 19 18  2  0
  1 21  1  0
  2 22  1  0
  3 23  1  0
  3 24  1  0
  4 25  1  0
  4 26  1  0
  5 27  1  0
  5 28  1  0
 11 29  1  0
 11 30  1  0
 12 31  1  0
 13 32  1  0
 20 33  1  0
M  ISO  8  21   5  22   5  23  13  24  13  25  13  26  13  27  13  28  13
M  ISO  5  29   8  30   8  31  14  32  14  33   3
M  END
>  <minimizedAffinity>  (1) 
-5.19175291

>  <minimizedRMSD>  (1) 
0.381418735

$$$$
