
     RDKit          3D

 24 26  0  0  1  0  0  0  0  0999 V2000
   47.1390   34.9200   41.3910 C   0  0  1  0  0  0  0  0  0  0  0  0
   48.5700   35.4080   41.6170 C   0  0  0  0  0  0  0  0  0  0  0  0
   48.1980   34.5460   40.4470 C   0  0  1  0  0  0  0  0  0  0  0  0
   46.7080   33.1340   44.6520 C   0  0  0  0  0  0  0  0  0  0  0  0
   47.1990   34.0500   43.7040 C   0  0  0  0  0  0  0  0  0  0  0  0
   46.6670   33.9590   42.4310 C   0  0  0  0  0  0  0  0  0  0  0  0
   45.7150   33.0130   42.1530 N   0  0  0  0  0  0  0  0  0  0  0  0
   45.2730   32.1520   43.1020 C   0  0  0  0  0  0  0  0  0  0  0  0
   45.7710   32.2170   44.3450 N   0  0  0  0  0  0  0  0  0  0  0  0
   48.8170   33.2270   40.4990 N   0  0  0  0  0  0  0  0  0  0  0  0
   48.5020   32.1560   39.7250 C   0  0  0  0  0  0  0  0  0  0  0  0
   49.2910   31.0700   40.0450 C   0  0  0  0  0  0  0  0  0  0  0  0
   50.0940   31.5040   41.0310 N   0  0  0  0  0  0  0  0  0  0  0  0
   49.8080   32.7980   41.3020 C   0  0  0  0  0  0  0  0  0  0  0  0
   46.1386   35.3521   41.2410 H   0  0  0  0  0  0  0  0  0  0  0  0
   48.8259   36.4673   41.4676 H   0  0  0  0  0  0  0  0  0  0  0  0
   49.3025   35.3547   42.4359 H   0  0  0  0  0  0  0  0  0  0  0  0
   48.2351   34.6026   39.3491 H   0  0  0  0  0  0  0  0  0  0  0  0
   47.1026   33.1680   45.6782 H   0  0  0  0  0  0  0  0  0  0  0  0
   47.9640   34.7974   43.9612 H   0  0  0  0  0  0  0  0  0  0  0  0
   44.5078   31.4020   42.8529 H   0  0  0  0  0  0  0  0  0  0  0  0
   47.7232   32.1546   38.9481 H   0  0  0  0  0  0  0  0  0  0  0  0
   49.2676   30.0679   39.5919 H   0  0  0  0  0  0  0  0  0  0  0  0
   50.3111   33.4092   42.0658 H   0  0  0  0  0  0  0  0  0  0  0  0
  1  2  1  0
  1  6  1  0
  3 10  1  0
  3  1  1  0
  3  2  1  0
  5  4  2  0
  6  5  1  0
  7  6  2  0
  7  8  1  0
  8  9  2  0
  9  4  1  0
 10 14  1  0
 11 12  2  0
 11 10  1  0
 12 13  1  0
 13 14  2  0
  1 15  1  6
  2 16  1  0
  2 17  1  0
  3 18  1  6
  4 19  1  0
  5 20  1  0
  8 21  1  0
 11 22  1  0
 12 23  1  0
 14 24  1  0
M  ISO  8  15  13  16  13  17  13  18  13  19  14  20  14  21  14  22  14
M  ISO  2  23  14  24  14
M  END
>  <minimizedAffinity>  (1) 
-3.37244487

>  <minimizedRMSD>  (1) 
2.79171515

$$$$
