
     RDKit          3D

 36 37  0  0  1  0  0  0  0  0999 V2000
   46.4750   33.7500   39.7050 N   0  0  0  0  0  0  0  0  0  0  0  0
   47.0510   33.5020   38.4020 C   0  0  0  0  0  0  0  0  0  0  0  0
   48.3350   34.2230   38.3320 C   0  0  0  0  0  0  0  0  0  0  0  0
   48.4200   34.9490   39.6570 C   0  0  0  0  0  0  0  0  0  0  0  0
   47.6090   34.0790   40.5430 C   0  0  2  0  0  0  0  0  0  0  0  0
   48.2650   32.7870   40.9500 C   0  0  0  0  0  0  0  0  0  0  0  0
   48.4450   32.7460   42.3290 F   0  0  0  0  0  0  0  0  0  0  0  0
   47.5380   31.6860   40.5570 F   0  0  0  0  0  0  0  0  0  0  0  0
   49.5250   32.6310   40.3990 F   0  0  0  0  0  0  0  0  0  0  0  0
   47.2220   34.7950   41.7310 N   0  0  0  0  0  0  0  0  0  0  0  0
   45.7850   34.7460   41.7960 C   0  0  0  0  0  0  0  0  0  0  0  0
   44.4450   35.7170   45.2330 C   0  0  0  0  0  0  0  0  0  0  0  0
   44.6660   35.8280   43.8620 C   0  0  0  0  0  0  0  0  0  0  0  0
   45.4390   34.8010   43.2630 C   0  0  0  0  0  0  0  0  0  0  0  0
   45.9040   33.8020   44.0390 N   0  0  0  0  0  0  0  0  0  0  0  0
   45.6690   33.7300   45.3590 C   0  0  0  0  0  0  0  0  0  0  0  0
   44.9340   34.6960   45.9630 N   0  0  0  0  0  0  0  0  0  0  0  0
   46.1660   32.6430   46.2440 C   0  0  0  0  0  0  0  0  0  0  0  0
   45.4630   32.6260   47.5710 C   0  0  0  0  0  0  0  0  0  0  0  0
   45.9935   32.9101   40.0565 H   0  0  0  0  0  0  0  0  0  0  0  0
   47.2196   32.4235   38.2666 H   0  0  0  0  0  0  0  0  0  0  0  0
   46.3718   33.8491   37.6094 H   0  0  0  0  0  0  0  0  0  0  0  0
   49.1727   33.5194   38.2172 H   0  0  0  0  0  0  0  0  0  0  0  0
   48.3909   34.9054   37.4710 H   0  0  0  0  0  0  0  0  0  0  0  0
   49.4601   35.0173   40.0084 H   0  0  0  0  0  0  0  0  0  0  0  0
   48.0651   35.9893   39.6143 H   0  0  0  0  0  0  0  0  0  0  0  0
   47.6302   34.3470   42.5638 H   0  0  0  0  0  0  0  0  0  0  0  0
   45.3479   35.6055   41.2667 H   0  0  0  0  0  0  0  0  0  0  0  0
   45.3885   33.8371   41.3199 H   0  0  0  0  0  0  0  0  0  0  0  0
   43.8492   36.4916   45.7380 H   0  0  0  0  0  0  0  0  0  0  0  0
   44.2627   36.6669   43.2758 H   0  0  0  0  0  0  0  0  0  0  0  0
   46.0028   31.6768   45.7442 H   0  0  0  0  0  0  0  0  0  0  0  0
   47.2353   32.8216   46.4305 H   0  0  0  0  0  0  0  0  0  0  0  0
   46.2075   32.6440   48.3806 H   0  0  0  0  0  0  0  0  0  0  0  0
   44.8116   33.5087   47.6522 H   0  0  0  0  0  0  0  0  0  0  0  0
   44.8550   31.7129   47.6522 H   0  0  0  0  0  0  0  0  0  0  0  0
  1  5  1  0
  2  1  1  0
  3  2  1  0
  3  4  1  0
  4  5  1  0
  5  6  1  0
  5 10  1  1
  6  7  1  0
  8  6  1  0
  9  6  1  0
 10 11  1  0
 11 14  1  0
 12 17  2  0
 13 12  1  0
 14 13  2  0
 14 15  1  0
 15 16  2  0
 16 17  1  0
 16 18  1  0
 18 19  1  0
  1 20  1  0
  2 21  1  0
  2 22  1  0
  3 23  1  0
  3 24  1  0
  4 25  1  0
  4 26  1  0
 10 27  1  0
 11 28  1  0
 11 29  1  0
 12 30  1  0
 13 31  1  0
 18 32  1  0
 18 33  1  0
 19 34  1  0
 19 35  1  0
 19 36  1  0
M  ISO  8  20   5  21  13  22  13  23  13  24  13  25  13  26  13  27   5
M  ISO  8  28   8  29   8  30  14  31  14  32   8  33   8  34   8  35   8
M  ISO  1  36   8
M  END
>  <minimizedAffinity>  (1) 
-4.66846609

>  <minimizedRMSD>  (1) 
0.644383073

$$$$
