
     RDKit          3D

 33 34  0  0  1  0  0  0  0  0999 V2000
   46.4580   33.6640   39.0580 N   0  0  0  0  0  0  0  0  0  0  0  0
   47.0510   33.4880   37.7530 C   0  0  0  0  0  0  0  0  0  0  0  0
   48.3630   34.1500   37.7360 C   0  0  0  0  0  0  0  0  0  0  0  0
   48.4400   34.8000   39.1140 C   0  0  0  0  0  0  0  0  0  0  0  0
   47.6110   33.9010   39.9360 C   0  0  2  0  0  0  0  0  0  0  0  0
   48.1940   32.5680   40.2630 C   0  0  0  0  0  0  0  0  0  0  0  0
   48.3130   32.4240   41.6420 F   0  0  0  0  0  0  0  0  0  0  0  0
   47.4670   31.5240   39.7590 F   0  0  0  0  0  0  0  0  0  0  0  0
   49.4760   32.4080   39.7760 F   0  0  0  0  0  0  0  0  0  0  0  0
   47.1970   34.5440   41.1500 N   0  0  0  0  0  0  0  0  0  0  0  0
   45.7780   34.4480   41.2510 C   0  0  0  0  0  0  0  0  0  0  0  0
   44.4590   35.9130   44.5200 C   0  0  0  0  0  0  0  0  0  0  0  0
   44.6790   35.8160   43.1400 C   0  0  0  0  0  0  0  0  0  0  0  0
   45.4350   34.7240   42.6980 C   0  0  0  0  0  0  0  0  0  0  0  0
   45.9060   33.8310   43.6140 N   0  0  0  0  0  0  0  0  0  0  0  0
   45.6790   33.9530   44.9210 C   0  0  0  0  0  0  0  0  0  0  0  0
   44.9420   35.0120   45.3790 N   0  0  0  0  0  0  0  0  0  0  0  0
   46.2050   32.9630   45.9050 C   0  0  0  0  0  0  0  0  0  0  0  0
   45.9453   32.8182   39.3454 H   0  0  0  0  0  0  0  0  0  0  0  0
   47.1755   32.4150   37.5451 H   0  0  0  0  0  0  0  0  0  0  0  0
   46.3998   33.9290   36.9839 H   0  0  0  0  0  0  0  0  0  0  0  0
   49.1728   33.4183   37.5986 H   0  0  0  0  0  0  0  0  0  0  0  0
   48.4737   34.8697   36.9115 H   0  0  0  0  0  0  0  0  0  0  0  0
   49.4764   34.8321   39.4813 H   0  0  0  0  0  0  0  0  0  0  0  0
   48.0984   35.8455   39.1259 H   0  0  0  0  0  0  0  0  0  0  0  0
   47.6352   34.0777   41.9571 H   0  0  0  0  0  0  0  0  0  0  0  0
   45.2986   35.1917   40.5975 H   0  0  0  0  0  0  0  0  0  0  0  0
   45.4215   33.4555   40.9382 H   0  0  0  0  0  0  0  0  0  0  0  0
   43.8703   36.7573   44.9079 H   0  0  0  0  0  0  0  0  0  0  0  0
   44.2773   36.5615   42.4380 H   0  0  0  0  0  0  0  0  0  0  0  0
   46.0133   33.3238   46.9263 H   0  0  0  0  0  0  0  0  0  0  0  0
   45.7017   31.9962   45.7572 H   0  0  0  0  0  0  0  0  0  0  0  0
   47.2879   32.8390   45.7572 H   0  0  0  0  0  0  0  0  0  0  0  0
  1  5  1  0
  2  1  1  0
  3  2  1  0
  3  4  1  0
  4  5  1  0
  5  6  1  0
  5 10  1  1
  6  7  1  0
  8  6  1  0
  9  6  1  0
 10 11  1  0
 11 14  1  0
 12 17  2  0
 13 12  1  0
 14 13  2  0
 14 15  1  0
 15 16  2  0
 16 17  1  0
 16 18  1  0
  1 19  1  0
  2 20  1  0
  2 21  1  0
  3 22  1  0
  3 23  1  0
  4 24  1  0
  4 25  1  0
 10 26  1  0
 11 27  1  0
 11 28  1  0
 12 29  1  0
 13 30  1  0
 18 31  1  0
 18 32  1  0
 18 33  1  0
M  ISO  8  19   5  20  13  21  13  22  13  23  13  24  13  25  13  26   5
M  ISO  7  27   8  28   8  29  14  30  14  31   8  32   8  33   8
M  END
>  <minimizedAffinity>  (1) 
-4.57758713

>  <minimizedRMSD>  (1) 
0.151344359

$$$$
