
     RDKit          3D

 38 40  0  0  1  0  0  0  0  0999 V2000
   47.1700   34.6110   41.4580 N   0  0  0  0  0  0  0  0  0  0  0  0
   46.4770   33.6410   39.3740 N   0  0  0  0  0  0  0  0  0  0  0  0
   47.0790   33.4740   38.0720 C   0  0  0  0  0  0  0  0  0  0  0  0
   48.3460   34.2040   38.0550 C   0  0  0  0  0  0  0  0  0  0  0  0
   48.4080   34.8740   39.4230 C   0  0  0  0  0  0  0  0  0  0  0  0
   47.6050   33.9560   40.2580 C   0  0  1  0  0  0  0  0  0  0  0  0
   48.2700   32.6700   40.6180 C   0  0  0  0  0  0  0  0  0  0  0  0
   48.4580   32.5920   41.9950 F   0  0  0  0  0  0  0  0  0  0  0  0
   47.5250   31.5720   40.2030 F   0  0  0  0  0  0  0  0  0  0  0  0
   49.5130   32.5130   40.0520 F   0  0  0  0  0  0  0  0  0  0  0  0
   45.7580   34.4690   41.5440 C   0  0  0  0  0  0  0  0  0  0  0  0
   44.4430   36.0130   44.7680 C   0  0  0  0  0  0  0  0  0  0  0  0
   44.6970   35.9030   43.4040 C   0  0  0  0  0  0  0  0  0  0  0  0
   45.3980   34.7520   42.9940 C   0  0  0  0  0  0  0  0  0  0  0  0
   45.7820   33.8310   43.9170 N   0  0  0  0  0  0  0  0  0  0  0  0
   45.5220   33.9670   45.2260 C   0  0  0  0  0  0  0  0  0  0  0  0
   44.8400   35.0830   45.6390 N   0  0  0  0  0  0  0  0  0  0  0  0
   46.0990   32.6680   46.2790 S   0  0  0  0  0  0  0  0  0  0  0  0
   45.3030   32.5980   47.8770 C   0  0  0  0  0  0  0  0  0  0  0  0
   44.9210   31.1650   48.3200 C   0  0  0  0  0  0  0  0  0  0  0  0
   45.9100   32.0330   49.0810 C   0  0  0  0  0  0  0  0  0  0  0  0
   47.4201   35.6095   41.4224 H   0  0  0  0  0  0  0  0  0  0  0  0
   46.0098   32.7734   39.6738 H   0  0  0  0  0  0  0  0  0  0  0  0
   47.2623   32.4063   37.8811 H   0  0  0  0  0  0  0  0  0  0  0  0
   46.4077   33.8616   37.2915 H   0  0  0  0  0  0  0  0  0  0  0  0
   49.1921   33.5143   37.9193 H   0  0  0  0  0  0  0  0  0  0  0  0
   48.4055   34.9268   37.2280 H   0  0  0  0  0  0  0  0  0  0  0  0
   49.4437   34.9414   39.7874 H   0  0  0  0  0  0  0  0  0  0  0  0
   48.0374   35.9097   39.4242 H   0  0  0  0  0  0  0  0  0  0  0  0
   45.2598   35.1894   40.8785 H   0  0  0  0  0  0  0  0  0  0  0  0
   45.4338   33.4639   41.2362 H   0  0  0  0  0  0  0  0  0  0  0  0
   43.8983   36.8935   45.1395 H   0  0  0  0  0  0  0  0  0  0  0  0
   44.3693   36.6706   42.6875 H   0  0  0  0  0  0  0  0  0  0  0  0
   44.8307   33.5775   47.7113 H   0  0  0  0  0  0  0  0  0  0  0  0
   43.9248   30.9565   48.7372 H   0  0  0  0  0  0  0  0  0  0  0  0
   44.9273   30.1635   47.8651 H   0  0  0  0  0  0  0  0  0  0  0  0
   46.9780   31.7695   49.0782 H   0  0  0  0  0  0  0  0  0  0  0  0
   45.9848   32.3672   50.1263 H   0  0  0  0  0  0  0  0  0  0  0  0
  1 11  1  0
  2  6  1  0
  3  2  1  0
  4  3  1  0
  4  5  1  0
  5  6  1  0
  6  7  1  0
  6  1  1  1
  7  8  1  0
  9  7  1  0
 10  7  1  0
 11 14  1  0
 12 17  2  0
 13 12  1  0
 14 13  2  0
 14 15  1  0
 15 16  2  0
 16 17  1  0
 16 18  1  0
 18 19  1  0
 19 20  1  0
 19 21  1  0
 20 21  1  0
  1 22  1  0
  2 23  1  0
  3 24  1  0
  3 25  1  0
  4 26  1  0
  4 27  1  0
  5 28  1  0
  5 29  1  0
 11 30  1  0
 11 31  1  0
 12 32  1  0
 13 33  1  0
 19 34  1  0
 20 35  1  0
 20 36  1  0
 21 37  1  0
 21 38  1  0
M  ISO  8  22   5  23   5  24  13  25  13  26  13  27  13  28  13  29  13
M  ISO  8  30   8  31   8  32  14  33  14  34  13  35  13  36  13  37  13
M  ISO  1  38  13
M  END
>  <minimizedAffinity>  (1) 
-5.19499779

>  <minimizedRMSD>  (1) 
0.506390989

$$$$
