
     RDKit          3D

 43 46  0  0  1  0  0  0  0  0999 V2000
   46.0000   35.1520   42.4480 C   0  0  0  0  0  0  0  0  0  0  0  0
   44.4440   35.2380   45.9220 C   0  0  0  0  0  0  0  0  0  0  0  0
   44.6950   35.6180   44.6150 C   0  0  0  0  0  0  0  0  0  0  0  0
   45.6150   34.8660   43.8900 C   0  0  0  0  0  0  0  0  0  0  0  0
   46.2230   33.8000   44.4880 N   0  0  0  0  0  0  0  0  0  0  0  0
   45.9620   33.4570   45.7480 C   0  0  0  0  0  0  0  0  0  0  0  0
   45.0630   34.1840   46.4710 N   0  0  0  0  0  0  0  0  0  0  0  0
   46.8430   32.0370   46.3800 S   0  0  0  0  0  0  0  0  0  0  0  0
   46.0350   30.5870   45.6990 C   0  0  0  0  0  0  0  0  0  0  0  0
   46.4020   29.8560   44.6210 N   0  0  0  0  0  0  0  0  0  0  0  0
   45.5820   28.8750   44.4190 O   0  0  0  0  0  0  0  0  0  0  0  0
   44.6660   28.9490   45.3600 C   0  0  0  0  0  0  0  0  0  0  0  0
   44.9280   29.9930   46.1540 N   0  0  0  0  0  0  0  0  0  0  0  0
   43.5020   28.0920   45.6080 C   0  0  0  0  0  0  0  0  0  0  0  0
   42.1910   28.1950   45.1770 C   0  0  0  0  0  0  0  0  0  0  0  0
   41.4770   27.1310   45.6890 C   0  0  0  0  0  0  0  0  0  0  0  0
   42.3620   26.4040   46.4190 N   0  0  0  0  0  0  0  0  0  0  0  0
   43.5460   26.9670   46.3710 N   0  0  0  0  0  0  0  0  0  0  0  0
   47.3920   35.0950   42.3830 N   0  0  0  0  0  0  0  0  0  0  0  0
   46.6420   33.7590   40.5720 N   0  0  0  0  0  0  0  0  0  0  0  0
   47.1330   33.4490   39.2450 C   0  0  0  0  0  0  0  0  0  0  0  0
   48.3010   34.2770   38.9770 C   0  0  0  0  0  0  0  0  0  0  0  0
   48.4130   35.1590   40.2230 C   0  0  0  0  0  0  0  0  0  0  0  0
   47.7880   34.3100   41.2640 C   0  0  1  0  0  0  0  0  0  0  0  0
   48.6120   33.1640   41.7480 C   0  0  0  0  0  0  0  0  0  0  0  0
   49.0410   33.3770   43.0440 F   0  0  0  0  0  0  0  0  0  0  0  0
   47.9230   31.9650   41.6840 F   0  0  0  0  0  0  0  0  0  0  0  0
   49.7710   32.9790   41.0040 F   0  0  0  0  0  0  0  0  0  0  0  0
   45.5586   34.3965   41.7814 H   0  0  0  0  0  0  0  0  0  0  0  0
   45.6303   36.1377   42.1292 H   0  0  0  0  0  0  0  0  0  0  0  0
   43.7225   35.8123   46.5216 H   0  0  0  0  0  0  0  0  0  0  0  0
   44.1858   36.4832   44.1654 H   0  0  0  0  0  0  0  0  0  0  0  0
   41.7863   28.9909   44.5345 H   0  0  0  0  0  0  0  0  0  0  0  0
   40.4091   26.9156   45.5370 H   0  0  0  0  0  0  0  0  0  0  0  0
   42.1373   25.5403   46.9331 H   0  0  0  0  0  0  0  0  0  0  0  0
   47.7694   36.0482   42.2834 H   0  0  0  0  0  0  0  0  0  0  0  0
   46.3067   32.9072   41.0442 H   0  0  0  0  0  0  0  0  0  0  0  0
   47.4119   32.3863   39.1919 H   0  0  0  0  0  0  0  0  0  0  0  0
   46.3506   33.6495   38.4982 H   0  0  0  0  0  0  0  0  0  0  0  0
   49.2012   33.6572   38.8528 H   0  0  0  0  0  0  0  0  0  0  0  0
   48.2069   34.8598   38.0488 H   0  0  0  0  0  0  0  0  0  0  0  0
   49.4638   35.3772   40.4641 H   0  0  0  0  0  0  0  0  0  0  0  0
   47.9362   36.1440   40.1113 H   0  0  0  0  0  0  0  0  0  0  0  0
  1  4  1  0
  2  7  2  0
  3  2  1  0
  4  5  1  0
  4  3  2  0
  5  6  2  0
  6  8  1  0
  6  7  1  0
  9 13  1  0
  9  8  1  0
 10  9  2  0
 11 10  1  0
 11 12  1  0
 12 14  1  0
 12 13  2  0
 14 18  2  0
 15 14  1  0
 15 16  2  0
 16 17  1  0
 18 17  1  0
 19  1  1  0
 20 24  1  0
 21 20  1  0
 22 21  1  0
 22 23  1  0
 23 24  1  0
 24 25  1  0
 24 19  1  1
 25 26  1  0
 27 25  1  0
 28 25  1  0
  1 29  1  0
  1 30  1  0
  2 31  1  0
  3 32  1  0
 15 33  1  0
 16 34  1  0
 17 35  1  0
 19 36  1  0
 20 37  1  0
 21 38  1  0
 21 39  1  0
 22 40  1  0
 22 41  1  0
 23 42  1  0
 23 43  1  0
M  ISO  8  29   8  30   8  31  14  32  14  33  14  34  14  35   9  36   5
M  ISO  7  37   5  38  13  39  13  40  13  41  13  42  13  43  13
M  END
>  <minimizedAffinity>  (1) 
-5.11482906

>  <minimizedRMSD>  (1) 
3.8866272

$$$$
