
     RDKit          3D

 43 46  0  0  1  0  0  0  0  0999 V2000
   46.2050   33.3560   39.6020 C   0  0  0  0  0  0  0  0  0  0  0  0
   48.2340   34.4690   42.6300 C   0  0  0  0  0  0  0  0  0  0  0  0
   47.4210   34.5860   41.5010 C   0  0  0  0  0  0  0  0  0  0  0  0
   47.0810   33.3950   40.8420 C   0  0  0  0  0  0  0  0  0  0  0  0
   47.5510   32.2060   41.3240 N   0  0  0  0  0  0  0  0  0  0  0  0
   48.3210   32.1340   42.3980 C   0  0  0  0  0  0  0  0  0  0  0  0
   48.6680   33.2840   43.0600 N   0  0  0  0  0  0  0  0  0  0  0  0
   48.8480   30.5150   42.8940 S   0  0  0  0  0  0  0  0  0  0  0  0
   48.3870   30.3100   44.6170 C   0  0  0  0  0  0  0  0  0  0  0  0
   48.9200   29.4230   45.5020 N   0  0  0  0  0  0  0  0  0  0  0  0
   48.3540   29.5460   46.6530 O   0  0  0  0  0  0  0  0  0  0  0  0
   47.4560   30.5030   46.5400 C   0  0  0  0  0  0  0  0  0  0  0  0
   47.4410   31.0000   45.3000 N   0  0  0  0  0  0  0  0  0  0  0  0
   46.6030   30.9360   47.6410 C   0  0  0  0  0  0  0  0  0  0  0  0
   45.5560   30.2080   48.2100 C   0  0  0  0  0  0  0  0  0  0  0  0
   44.9880   30.9510   49.2270 C   0  0  0  0  0  0  0  0  0  0  0  0
   45.7320   32.1300   49.2360 C   0  0  0  0  0  0  0  0  0  0  0  0
   46.6370   32.0550   48.3070 O   0  0  0  0  0  0  0  0  0  0  0  0
   46.9010   34.0500   38.6060 N   0  0  0  0  0  0  0  0  0  0  0  0
   47.5140   31.8130   38.1170 N   0  0  0  0  0  0  0  0  0  0  0  0
   47.4230   30.9420   36.9600 C   0  0  0  0  0  0  0  0  0  0  0  0
   46.6330   31.6320   35.9330 C   0  0  0  0  0  0  0  0  0  0  0  0
   46.2230   32.9340   36.6010 C   0  0  0  0  0  0  0  0  0  0  0  0
   47.3080   33.1470   37.5940 C   0  0  1  0  0  0  0  0  0  0  0  0
   48.5980   33.6180   37.0200 C   0  0  0  0  0  0  0  0  0  0  0  0
   48.8210   34.9560   37.3470 F   0  0  0  0  0  0  0  0  0  0  0  0
   49.6700   32.8560   37.4430 F   0  0  0  0  0  0  0  0  0  0  0  0
   48.6380   33.5690   35.6320 F   0  0  0  0  0  0  0  0  0  0  0  0
   46.0320   32.3152   39.2907 H   0  0  0  0  0  0  0  0  0  0  0  0
   45.2220   33.8111   39.7931 H   0  0  0  0  0  0  0  0  0  0  0  0
   48.5237   35.3774   43.1785 H   0  0  0  0  0  0  0  0  0  0  0  0
   47.0645   35.5641   41.1456 H   0  0  0  0  0  0  0  0  0  0  0  0
   45.2347   29.2032   47.8983 H   0  0  0  0  0  0  0  0  0  0  0  0
   44.1450   30.6762   49.8780 H   0  0  0  0  0  0  0  0  0  0  0  0
   45.5785   32.9811   49.9158 H   0  0  0  0  0  0  0  0  0  0  0  0
   46.2877   34.7694   38.1971 H   0  0  0  0  0  0  0  0  0  0  0  0
   46.7860   31.5774   38.8065 H   0  0  0  0  0  0  0  0  0  0  0  0
   48.4306   30.7275   36.5742 H   0  0  0  0  0  0  0  0  0  0  0  0
   46.9442   29.9906   37.2350 H   0  0  0  0  0  0  0  0  0  0  0  0
   45.7490   31.0392   35.6553 H   0  0  0  0  0  0  0  0  0  0  0  0
   47.1955   31.7919   35.0013 H   0  0  0  0  0  0  0  0  0  0  0  0
   46.1837   33.7580   35.8734 H   0  0  0  0  0  0  0  0  0  0  0  0
   45.2201   32.8969   37.0513 H   0  0  0  0  0  0  0  0  0  0  0  0
  1  4  1  0
  2  7  2  0
  3  2  1  0
  4  5  1  0
  4  3  2  0
  5  6  2  0
  6  8  1  0
  6  7  1  0
  8  9  1  0
  9 13  1  0
  9 10  2  0
 10 11  1  0
 12 11  1  0
 12 14  1  0
 13 12  2  0
 14 15  2  0
 14 18  1  0
 15 16  1  0
 16 17  2  0
 18 17  1  0
 19  1  1  0
 21 20  1  0
 22 23  1  0
 22 21  1  0
 23 24  1  0
 24 25  1  0
 24 20  1  0
 24 19  1  1
 25 26  1  0
 25 27  1  0
 28 25  1  0
  1 29  1  0
  1 30  1  0
  2 31  1  0
  3 32  1  0
 15 33  1  0
 16 34  1  0
 17 35  1  0
 19 36  1  0
 20 37  1  0
 21 38  1  0
 21 39  1  0
 22 40  1  0
 22 41  1  0
 23 42  1  0
 23 43  1  0
M  ISO  8  29   8  30   8  31  14  32  14  33  14  34  14  35  14  36   5
M  ISO  7  37   5  38  13  39  13  40  13  41  13  42  13  43  13
M  END
>  <minimizedAffinity>  (1) 
-5.00210857

>  <minimizedRMSD>  (1) 
4.07268476

$$$$
