
     RDKit          3D

 17 18  0  0  0  0  0  0  0  0999 V2000
   44.4990   36.0250   44.5860 C   0  0  0  0  0  0  0  0  0  0  0  0
   45.2230   35.9680   43.3640 C   0  0  0  0  0  0  0  0  0  0  0  0
   46.1230   34.9140   43.1930 C   0  0  0  0  0  0  0  0  0  0  0  0
   46.2670   34.0030   44.1880 N   0  0  0  0  0  0  0  0  0  0  0  0
   45.5580   34.0860   45.3460 C   0  0  0  0  0  0  0  0  0  0  0  0
   44.6860   35.0890   45.5370 N   0  0  0  0  0  0  0  0  0  0  0  0
   46.8830   34.7850   42.0040 N   0  0  0  0  0  0  0  0  0  0  0  0
   46.5300   34.1350   40.9300 N   0  0  0  0  0  0  0  0  0  0  0  0
   47.4880   34.2100   39.9750 C   0  0  0  0  0  0  0  0  0  0  0  0
   48.5170   34.9770   40.5180 C   0  0  0  0  0  0  0  0  0  0  0  0
   48.1000   35.3130   41.7790 C   0  0  0  0  0  0  0  0  0  0  0  0
   43.7802   36.8400   44.7566 H   0  0  0  0  0  0  0  0  0  0  0  0
   45.0794   36.7271   42.5810 H   0  0  0  0  0  0  0  0  0  0  0  0
   45.6998   33.3275   46.1300 H   0  0  0  0  0  0  0  0  0  0  0  0
   47.4594   33.7569   38.9731 H   0  0  0  0  0  0  0  0  0  0  0  0
   49.4656   35.2546   40.0352 H   0  0  0  0  0  0  0  0  0  0  0  0
   48.6715   35.9203   42.4963 H   0  0  0  0  0  0  0  0  0  0  0  0
  1  6  2  0
  2  1  1  0
  3  2  2  0
  3  4  1  0
  4  5  2  0
  5  6  1  0
  7  3  1  0
  8  7  1  0
  9 10  1  0
  9  8  2  0
 10 11  2  0
 11  7  1  0
  1 12  1  0
  2 13  1  0
  5 14  1  0
  9 15  1  0
 10 16  1  0
 11 17  1  0
M  ISO  6  12  14  13  14  14  14  15  14  16  14  17  14
M  END
>  <minimizedAffinity>  (1) 
-4.20496464

>  <minimizedRMSD>  (1) 
0.636161387

$$$$
