
     RDKit          3D

 24 25  0  0  0  0  0  0  0  0999 V2000
   46.1640   34.1240   41.2820 N   0  0  0  0  0  0  0  0  0  0  0  0
   45.4900   33.4700   40.3950 N   0  0  0  0  0  0  0  0  0  0  0  0
   46.1920   33.3220   39.2520 C   0  0  0  0  0  0  0  0  0  0  0  0
   47.4120   33.9500   39.4710 C   0  0  0  0  0  0  0  0  0  0  0  0
   47.3730   34.4490   40.7580 C   0  0  0  0  0  0  0  0  0  0  0  0
   44.5160   35.8250   44.1710 C   0  0  0  0  0  0  0  0  0  0  0  0
   44.8950   35.5400   42.8370 C   0  0  0  0  0  0  0  0  0  0  0  0
   45.7410   34.4630   42.5930 C   0  0  0  0  0  0  0  0  0  0  0  0
   46.1550   33.7430   43.6530 N   0  0  0  0  0  0  0  0  0  0  0  0
   45.7860   34.0230   44.9290 C   0  0  0  0  0  0  0  0  0  0  0  0
   44.9740   35.0560   45.1730 N   0  0  0  0  0  0  0  0  0  0  0  0
   48.4130   35.1680   41.4090 N   0  0  0  0  0  0  0  0  0  0  0  0
   49.5270   34.5110   42.0420 C   0  0  0  0  0  0  0  0  0  0  0  0
   49.9680   33.4570   41.4180 N   0  0  0  0  0  0  0  0  0  0  0  0
   50.0150   35.0860   43.2700 N   0  0  0  0  0  0  0  0  0  0  0  0
   50.7750   32.9570   41.8500 H   0  0  0  0  0  0  0  0  0  0  0  0
   45.8654   32.8094   38.3351 H   0  0  0  0  0  0  0  0  0  0  0  0
   48.2459   34.0334   38.7585 H   0  0  0  0  0  0  0  0  0  0  0  0
   43.8491   36.6728   44.3863 H   0  0  0  0  0  0  0  0  0  0  0  0
   44.5264   36.1603   42.0067 H   0  0  0  0  0  0  0  0  0  0  0  0
   46.1540   33.4020   45.7590 H   0  0  0  0  0  0  0  0  0  0  0  0
   48.3677   36.1968   41.4284 H   0  0  0  0  0  0  0  0  0  0  0  0
   50.8100   34.6529   43.7612 H   0  0  0  0  0  0  0  0  0  0  0  0
   49.5688   35.9300   43.6565 H   0  0  0  0  0  0  0  0  0  0  0  0
  1  8  1  0
  2  1  1  0
  3  4  1  0
  3  2  2  0
  4  5  2  0
  5  1  1  0
  5 12  1  0
  6 11  2  0
  7  6  1  0
  8  7  2  0
  8  9  1  0
  9 10  2  0
 10 11  1  0
 12 13  1  0
 13 15  1  0
 14 16  1  0
 14 13  2  0
  3 17  1  0
  4 18  1  0
  6 19  1  0
  7 20  1  0
 10 21  1  0
 12 22  1  0
 15 23  1  0
 15 24  1  0
M  ISO  5  17  14  18  14  19  14  20  14  21  14
M  END
>  <minimizedAffinity>  (1) 
-5.12077856

>  <minimizedRMSD>  (1) 
1.38167882

$$$$
