
     RDKit          3D

 26 28  0  0  0  0  0  0  0  0999 V2000
   46.2570   34.2100   40.8370 N   0  0  0  0  0  0  0  0  0  0  0  0
   47.1880   34.2500   39.9300 N   0  0  0  0  0  0  0  0  0  0  0  0
   48.3310   34.7770   40.4160 C   0  0  0  0  0  0  0  0  0  0  0  0
   48.0780   35.0890   41.7400 C   0  0  0  0  0  0  0  0  0  0  0  0
   46.7680   34.7210   41.9710 C   0  0  0  0  0  0  0  0  0  0  0  0
   42.5880   34.0170   40.2480 C   0  0  0  0  0  0  0  0  0  0  0  0
   43.8770   34.5690   40.3980 C   0  0  0  0  0  0  0  0  0  0  0  0
   44.9390   33.7220   40.6750 C   0  0  0  0  0  0  0  0  0  0  0  0
   44.6940   32.3850   40.7920 N   0  0  0  0  0  0  0  0  0  0  0  0
   43.4360   31.8840   40.6420 C   0  0  0  0  0  0  0  0  0  0  0  0
   42.4010   32.6980   40.3730 N   0  0  0  0  0  0  0  0  0  0  0  0
   46.0430   34.8600   43.2450 C   0  0  0  0  0  0  0  0  0  0  0  0
   46.1710   33.8780   44.2050 C   0  0  0  0  0  0  0  0  0  0  0  0
   45.4760   34.0390   45.3870 C   0  0  0  0  0  0  0  0  0  0  0  0
   44.6850   35.1510   45.5880 C   0  0  0  0  0  0  0  0  0  0  0  0
   44.5650   36.1340   44.6090 C   0  0  0  0  0  0  0  0  0  0  0  0
   45.2580   35.9290   43.4840 N   0  0  0  0  0  0  0  0  0  0  0  0
   49.2738   34.9281   39.8698 H   0  0  0  0  0  0  0  0  0  0  0  0
   48.7773   35.5381   42.4606 H   0  0  0  0  0  0  0  0  0  0  0  0
   41.7331   34.6732   40.0274 H   0  0  0  0  0  0  0  0  0  0  0  0
   44.0370   35.6526   40.2970 H   0  0  0  0  0  0  0  0  0  0  0  0
   43.2656   30.8019   40.7421 H   0  0  0  0  0  0  0  0  0  0  0  0
   46.8057   32.9959   44.0346 H   0  0  0  0  0  0  0  0  0  0  0  0
   45.5536   33.2748   46.1744 H   0  0  0  0  0  0  0  0  0  0  0  0
   44.1402   35.2631   46.5370 H   0  0  0  0  0  0  0  0  0  0  0  0
   43.9375   37.0260   44.7526 H   0  0  0  0  0  0  0  0  0  0  0  0
  1  5  1  0
  2  3  2  0
  2  1  1  0
  3  4  1  0
  4  5  2  0
  5 12  1  0
  6 11  2  0
  6  7  1  0
  7  8  2  0
  8  9  1  0
  8  1  1  0
 10  9  2  0
 11 10  1  0
 12 17  1  0
 12 13  2  0
 13 14  1  0
 14 15  2  0
 16 15  1  0
 17 16  2  0
  3 18  1  0
  4 19  1  0
  6 20  1  0
  7 21  1  0
 10 22  1  0
 13 23  1  0
 14 24  1  0
 15 25  1  0
 16 26  1  0
M  ISO  8  18  14  19  14  20  14  21  14  22  14  23  14  24  14  25  14
M  ISO  1  26  14
M  END
>  <minimizedAffinity>  (1) 
-4.91124582

>  <minimizedRMSD>  (1) 
4.05914497

$$$$
