
     RDKit          3D

 20 21  0  0  0  0  0  0  0  0999 V2000
   46.6190   34.4100   41.4760 N   0  0  0  0  0  0  0  0  0  0  0  0
   46.0200   33.8560   40.4460 N   0  0  0  0  0  0  0  0  0  0  0  0
   46.8670   33.7390   39.3930 C   0  0  0  0  0  0  0  0  0  0  0  0
   48.0860   34.2680   39.8230 C   0  0  0  0  0  0  0  0  0  0  0  0
   47.8780   34.6650   41.1080 C   0  0  0  0  0  0  0  0  0  0  0  0
   44.6880   36.0160   44.2230 C   0  0  0  0  0  0  0  0  0  0  0  0
   45.2560   35.8200   42.9370 C   0  0  0  0  0  0  0  0  0  0  0  0
   46.0250   34.6760   42.7270 C   0  0  0  0  0  0  0  0  0  0  0  0
   46.1990   33.7990   43.7540 N   0  0  0  0  0  0  0  0  0  0  0  0
   45.6440   34.0130   44.9770 C   0  0  0  0  0  0  0  0  0  0  0  0
   44.8960   35.1190   45.1950 N   0  0  0  0  0  0  0  0  0  0  0  0
   48.8590   35.2850   41.9960 C   0  0  0  0  0  0  0  0  0  0  0  0
   49.3340   36.4330   41.7000 O   0  0  0  0  0  0  0  0  0  0  0  0
   49.3130   34.7070   43.1470 O   0  0  0  0  0  0  0  0  0  0  0  0
   46.6404   33.3147   38.4037 H   0  0  0  0  0  0  0  0  0  0  0  0
   49.0183   34.3471   39.2446 H   0  0  0  0  0  0  0  0  0  0  0  0
   44.0751   36.9076   44.4216 H   0  0  0  0  0  0  0  0  0  0  0  0
   45.0942   36.5494   42.1296 H   0  0  0  0  0  0  0  0  0  0  0  0
   45.8032   33.2874   45.7883 H   0  0  0  0  0  0  0  0  0  0  0  0
   49.9794   35.1777   43.7078 H   0  0  0  0  0  0  0  0  0  0  0  0
  1  8  1  0
  2  1  1  0
  3  4  1  0
  3  2  2  0
  4  5  2  0
  5  1  1  0
  5 12  1  0
  6 11  2  0
  7  6  1  0
  8  7  2  0
  8  9  1  0
  9 10  2  0
 10 11  1  0
 12 14  1  0
 13 12  2  0
  3 15  1  0
  4 16  1  0
  6 17  1  0
  7 18  1  0
 10 19  1  0
 14 20  1  0
M  ISO  6  15  14  16  14  17  14  18  14  19  14  20   3
M  END
>  <minimizedAffinity>  (1) 
-4.86098337

>  <minimizedRMSD>  (1) 
1.10549986

$$$$
