
     RDKit          3D

 19 20  0  0  0  0  0  0  0  0999 V2000
   46.5250   34.4330   41.5690 N   0  0  0  0  0  0  0  0  0  0  0  0
   45.9430   33.7990   40.5780 N   0  0  0  0  0  0  0  0  0  0  0  0
   46.8010   33.6810   39.5270 C   0  0  0  0  0  0  0  0  0  0  0  0
   47.9840   34.2860   39.9080 C   0  0  0  0  0  0  0  0  0  0  0  0
   47.7640   34.7330   41.1740 C   0  0  0  0  0  0  0  0  0  0  0  0
   44.6610   36.1550   44.2970 C   0  0  0  0  0  0  0  0  0  0  0  0
   45.2300   35.9180   43.0220 C   0  0  0  0  0  0  0  0  0  0  0  0
   45.9310   34.7330   42.8160 C   0  0  0  0  0  0  0  0  0  0  0  0
   46.0350   33.8610   43.8460 N   0  0  0  0  0  0  0  0  0  0  0  0
   45.4880   34.0960   45.0590 C   0  0  0  0  0  0  0  0  0  0  0  0
   44.8040   35.2430   45.2760 N   0  0  0  0  0  0  0  0  0  0  0  0
   48.7460   35.4420   41.9840 C   0  0  0  0  0  0  0  0  0  0  0  0
   49.3560   36.4730   41.5950 O   0  0  0  0  0  0  0  0  0  0  0  0
   46.5928   33.1975   38.5612 H   0  0  0  0  0  0  0  0  0  0  0  0
   48.9052   34.3848   39.3151 H   0  0  0  0  0  0  0  0  0  0  0  0
   44.1027   37.0836   44.4868 H   0  0  0  0  0  0  0  0  0  0  0  0
   45.1205   36.6542   42.2121 H   0  0  0  0  0  0  0  0  0  0  0  0
   45.5984   33.3577   45.8669 H   0  0  0  0  0  0  0  0  0  0  0  0
   48.9666   35.0558   42.9901 H   0  0  0  0  0  0  0  0  0  0  0  0
  1  8  1  0
  2  1  1  0
  3  4  1  0
  3  2  2  0
  4  5  2  0
  5  1  1  0
  5 12  1  0
  6 11  2  0
  7  6  1  0
  8  7  2  0
  8  9  1  0
  9 10  2  0
 10 11  1  0
 13 12  2  0
  3 14  1  0
  4 15  1  0
  6 16  1  0
  7 17  1  0
 10 18  1  0
 12 19  1  0
M  ISO  6  14  14  15  14  16  14  17  14  18  14  19   6
M  END
>  <minimizedAffinity>  (1) 
-4.39409256

>  <minimizedRMSD>  (1) 
0.728472948

$$$$
