
     RDKit          3D

 33 35  0  0  1  0  0  0  0  0999 V2000
   46.4780   34.4090   41.5910 N   0  0  0  0  0  0  0  0  0  0  0  0
   45.8720   33.9080   40.5670 N   0  0  0  0  0  0  0  0  0  0  0  0
   46.7360   33.7430   39.5270 C   0  0  0  0  0  0  0  0  0  0  0  0
   47.9730   34.1920   39.9770 C   0  0  0  0  0  0  0  0  0  0  0  0
   47.7840   34.5990   41.2610 C   0  0  0  0  0  0  0  0  0  0  0  0
   44.6680   36.1800   44.3250 C   0  0  0  0  0  0  0  0  0  0  0  0
   45.2400   35.9270   43.0610 C   0  0  0  0  0  0  0  0  0  0  0  0
   45.8850   34.7120   42.8460 C   0  0  0  0  0  0  0  0  0  0  0  0
   45.9310   33.8380   43.8560 N   0  0  0  0  0  0  0  0  0  0  0  0
   45.3860   34.0720   45.0700 C   0  0  0  0  0  0  0  0  0  0  0  0
   44.7530   35.2420   45.3080 N   0  0  0  0  0  0  0  0  0  0  0  0
   48.8300   35.1570   42.1670 C   0  0  2  0  0  0  0  0  0  0  0  0
   49.3300   36.4730   41.5850 C   0  0  0  0  0  0  0  0  0  0  0  0
   50.0200   34.2480   42.2500 C   0  0  0  0  0  0  0  0  0  0  0  0
   49.6490   32.8200   42.4340 C   0  0  0  0  0  0  0  0  0  0  0  0
   50.2640   31.7880   41.7210 C   0  0  0  0  0  0  0  0  0  0  0  0
   49.6690   30.6420   42.1540 C   0  0  0  0  0  0  0  0  0  0  0  0
   48.7140   30.9950   43.1100 C   0  0  0  0  0  0  0  0  0  0  0  0
   48.7620   32.2890   43.2190 O   0  0  0  0  0  0  0  0  0  0  0  0
   46.5025   33.3366   38.5319 H   0  0  0  0  0  0  0  0  0  0  0  0
   48.9147   34.2136   39.4089 H   0  0  0  0  0  0  0  0  0  0  0  0
   44.1541   37.1336   44.5163 H   0  0  0  0  0  0  0  0  0  0  0  0
   45.1776   36.6768   42.2586 H   0  0  0  0  0  0  0  0  0  0  0  0
   45.4573   33.3123   45.8623 H   0  0  0  0  0  0  0  0  0  0  0  0
   48.3811   35.2810   43.1636 H   0  0  0  0  0  0  0  0  0  0  0  0
   49.5911   37.1601   42.4033 H   0  0  0  0  0  0  0  0  0  0  0  0
   50.2196   36.2856   40.9657 H   0  0  0  0  0  0  0  0  0  0  0  0
   48.5404   36.9236   40.9657 H   0  0  0  0  0  0  0  0  0  0  0  0
   50.5989   34.3426   41.3194 H   0  0  0  0  0  0  0  0  0  0  0  0
   50.6052   34.5518   43.1305 H   0  0  0  0  0  0  0  0  0  0  0  0
   51.0609   31.8813   40.9685 H   0  0  0  0  0  0  0  0  0  0  0  0
   49.8991   29.6221   41.8123 H   0  0  0  0  0  0  0  0  0  0  0  0
   48.0516   30.3121   43.6620 H   0  0  0  0  0  0  0  0  0  0  0  0
  1  8  1  0
  2  1  1  0
  3  4  1  0
  3  2  2  0
  4  5  2  0
  5  1  1  0
  5 12  1  0
  6 11  2  0
  7  6  1  0
  8  7  2  0
  8  9  1  0
  9 10  2  0
 10 11  1  0
 12 14  1  0
 13 12  1  0
 14 15  1  0
 15 19  1  0
 16 17  1  0
 16 15  2  0
 17 18  2  0
 18 19  1  0
  3 20  1  0
  4 21  1  0
  6 22  1  0
  7 23  1  0
 10 24  1  0
 12 25  1  1
 13 26  1  0
 13 27  1  0
 13 28  1  0
 14 29  1  0
 14 30  1  0
 16 31  1  0
 17 32  1  0
 18 33  1  0
M  ISO  8  20  14  21  14  22  14  23  14  24  14  25   8  26   8  27   8
M  ISO  6  28   8  29   8  30   8  31  14  32  14  33  14
M  END
>  <minimizedAffinity>  (1) 
-5.14161682

>  <minimizedRMSD>  (1) 
0.834127545

$$$$
