
     RDKit          3D

 32 34  0  0  1  0  0  0  0  0999 V2000
   46.4270   34.4170   41.5720 N   0  0  0  0  0  0  0  0  0  0  0  0
   45.7950   33.9610   40.5290 N   0  0  0  0  0  0  0  0  0  0  0  0
   46.6480   33.7530   39.4900 C   0  0  0  0  0  0  0  0  0  0  0  0
   47.9090   34.1170   39.9530 C   0  0  0  0  0  0  0  0  0  0  0  0
   47.7440   34.5270   41.2520 C   0  0  0  0  0  0  0  0  0  0  0  0
   44.6840   36.2090   44.3190 C   0  0  0  0  0  0  0  0  0  0  0  0
   45.2420   35.9640   43.0450 C   0  0  0  0  0  0  0  0  0  0  0  0
   45.8490   34.7370   42.8100 C   0  0  0  0  0  0  0  0  0  0  0  0
   45.8660   33.8530   43.8260 N   0  0  0  0  0  0  0  0  0  0  0  0
   45.3270   34.0930   45.0490 C   0  0  0  0  0  0  0  0  0  0  0  0
   44.7420   35.2660   45.2890 N   0  0  0  0  0  0  0  0  0  0  0  0
   48.8160   35.0070   42.1550 C   0  0  2  0  0  0  0  0  0  0  0  0
   49.3250   36.3400   41.6620 C   0  0  0  0  0  0  0  0  0  0  0  0
   49.9980   34.0510   42.1330 C   0  0  0  0  0  0  0  0  0  0  0  0
   49.5600   32.6440   42.3370 C   0  0  0  0  0  0  0  0  0  0  0  0
   50.0560   31.5550   41.5260 C   0  0  0  0  0  0  0  0  0  0  0  0
   49.1900   30.1080   42.2150 S   0  0  0  0  0  0  0  0  0  0  0  0
   48.2970   31.1970   43.4850 C   0  0  0  0  0  0  0  0  0  0  0  0
   48.6970   32.2290   43.2460 N   0  0  0  0  0  0  0  0  0  0  0  0
   46.3933   33.3746   38.4890 H   0  0  0  0  0  0  0  0  0  0  0  0
   48.8525   34.0827   39.3885 H   0  0  0  0  0  0  0  0  0  0  0  0
   44.1981   37.1741   44.5251 H   0  0  0  0  0  0  0  0  0  0  0  0
   45.1969   36.7287   42.2556 H   0  0  0  0  0  0  0  0  0  0  0  0
   45.3729   33.3252   45.8354 H   0  0  0  0  0  0  0  0  0  0  0  0
   48.3985   35.0815   43.1699 H   0  0  0  0  0  0  0  0  0  0  0  0
   49.5694   36.9802   42.5225 H   0  0  0  0  0  0  0  0  0  0  0  0
   50.2273   36.1852   41.0521 H   0  0  0  0  0  0  0  0  0  0  0  0
   48.5492   36.8260   41.0521 H   0  0  0  0  0  0  0  0  0  0  0  0
   50.5052   34.1308   41.1602 H   0  0  0  0  0  0  0  0  0  0  0  0
   50.6803   34.3241   42.9515 H   0  0  0  0  0  0  0  0  0  0  0  0
   50.7783   31.5912   40.6972 H   0  0  0  0  0  0  0  0  0  0  0  0
   47.5732   30.9009   44.2586 H   0  0  0  0  0  0  0  0  0  0  0  0
  1  8  1  0
  2  1  1  0
  3  4  1  0
  3  2  2  0
  4  5  2  0
  5  1  1  0
  5 12  1  0
  6 11  2  0
  7  6  1  0
  8  7  2  0
  8  9  1  0
  9 10  2  0
 10 11  1  0
 13 12  1  0
 14 12  1  0
 14 15  1  0
 15 19  1  0
 16 17  1  0
 16 15  2  0
 17 18  1  0
 19 18  2  0
  3 20  1  0
  4 21  1  0
  6 22  1  0
  7 23  1  0
 10 24  1  0
 12 25  1  1
 13 26  1  0
 13 27  1  0
 13 28  1  0
 14 29  1  0
 14 30  1  0
 16 31  1  0
 18 32  1  0
M  ISO  8  20  14  21  14  22  14  23  14  24  14  25   8  26   8  27   8
M  ISO  5  28   8  29   8  30   8  31  14  32  14
M  END
>  <minimizedAffinity>  (1) 
-4.9891181

>  <minimizedRMSD>  (1) 
0.594064713

$$$$
