
     RDKit          3D

 49 52  0  0  1  0  0  0  0  0999 V2000
   48.8370   35.1560   42.1810 C   0  0  2  0  0  0  0  0  0  0  0  0
   46.4820   34.4240   41.5950 N   0  0  0  0  0  0  0  0  0  0  0  0
   45.8810   33.9280   40.5650 N   0  0  0  0  0  0  0  0  0  0  0  0
   46.7420   33.7620   39.5250 C   0  0  0  0  0  0  0  0  0  0  0  0
   47.9850   34.2020   39.9770 C   0  0  0  0  0  0  0  0  0  0  0  0
   47.7930   34.6100   41.2750 C   0  0  0  0  0  0  0  0  0  0  0  0
   44.6660   36.1530   44.3490 C   0  0  0  0  0  0  0  0  0  0  0  0
   45.2380   35.9190   43.0760 C   0  0  0  0  0  0  0  0  0  0  0  0
   45.8840   34.7270   42.8470 C   0  0  0  0  0  0  0  0  0  0  0  0
   45.9450   33.8310   43.8480 N   0  0  0  0  0  0  0  0  0  0  0  0
   45.3980   34.0540   45.0650 C   0  0  0  0  0  0  0  0  0  0  0  0
   44.7610   35.2060   45.3200 N   0  0  0  0  0  0  0  0  0  0  0  0
   49.3210   36.4880   41.6060 C   0  0  0  0  0  0  0  0  0  0  0  0
   50.0310   34.2610   42.2440 C   0  0  0  0  0  0  0  0  0  0  0  0
   49.7230   32.8510   42.2140 C   0  0  0  0  0  0  0  0  0  0  0  0
   48.8700   32.0740   43.0010 C   0  0  0  0  0  0  0  0  0  0  0  0
   48.7710   30.7570   42.7500 C   0  0  0  0  0  0  0  0  0  0  0  0
   49.5290   30.2050   41.7080 C   0  0  0  0  0  0  0  0  0  0  0  0
   50.4200   31.7180   41.0830 S   0  0  0  0  0  0  0  0  0  0  0  0
   49.7160   28.8820   41.1210 C   0  0  0  0  0  0  0  0  0  0  0  0
   50.9840   28.2220   41.6260 C   0  0  0  0  0  0  0  0  0  0  0  0
   52.1200   28.3070   40.6230 C   0  0  0  0  0  0  0  0  0  0  0  0
   51.7770   27.4120   39.4470 C   0  0  0  0  0  0  0  0  0  0  0  0
   50.3010   27.6230   39.1440 C   0  0  0  0  0  0  0  0  0  0  0  0
   49.8550   29.0010   39.6170 C   0  0  0  0  0  0  0  0  0  0  0  0
   48.3973   35.2578   43.1842 H   0  0  0  0  0  0  0  0  0  0  0  0
   46.5051   33.3613   38.5283 H   0  0  0  0  0  0  0  0  0  0  0  0
   48.9275   34.2191   39.4101 H   0  0  0  0  0  0  0  0  0  0  0  0
   44.1450   37.1001   44.5528 H   0  0  0  0  0  0  0  0  0  0  0  0
   45.1670   36.6780   42.2830 H   0  0  0  0  0  0  0  0  0  0  0  0
   45.4762   33.2866   45.8492 H   0  0  0  0  0  0  0  0  0  0  0  0
   49.5702   37.1738   42.4292 H   0  0  0  0  0  0  0  0  0  0  0  0
   50.2146   36.3174   40.9876 H   0  0  0  0  0  0  0  0  0  0  0  0
   48.5263   36.9308   40.9876 H   0  0  0  0  0  0  0  0  0  0  0  0
   50.6780   34.4899   41.3844 H   0  0  0  0  0  0  0  0  0  0  0  0
   50.5174   34.4550   43.2113 H   0  0  0  0  0  0  0  0  0  0  0  0
   48.2880   32.5327   43.8139 H   0  0  0  0  0  0  0  0  0  0  0  0
   48.1053   30.1222   43.3531 H   0  0  0  0  0  0  0  0  0  0  0  0
   48.8397   28.2798   41.4029 H   0  0  0  0  0  0  0  0  0  0  0  0
   51.2956   28.7207   42.5556 H   0  0  0  0  0  0  0  0  0  0  0  0
   50.7639   27.1574   41.7937 H   0  0  0  0  0  0  0  0  0  0  0  0
   52.2376   29.3454   40.2797 H   0  0  0  0  0  0  0  0  0  0  0  0
   53.0634   27.9829   41.0867 H   0  0  0  0  0  0  0  0  0  0  0  0
   52.3853   27.6870   38.5728 H   0  0  0  0  0  0  0  0  0  0  0  0
   51.9828   26.3575   39.6827 H   0  0  0  0  0  0  0  0  0  0  0  0
   50.1382   27.5416   38.0592 H   0  0  0  0  0  0  0  0  0  0  0  0
   49.7146   26.8567   39.6720 H   0  0  0  0  0  0  0  0  0  0  0  0
   50.6085   29.7596   39.3586 H   0  0  0  0  0  0  0  0  0  0  0  0
   48.9133   29.3128   39.1416 H   0  0  0  0  0  0  0  0  0  0  0  0
  1 14  1  0
  2  9  1  0
  3  2  1  0
  4  5  1  0
  4  3  2  0
  5  6  2  0
  6  2  1  0
  6  1  1  0
  7 12  2  0
  8  7  1  0
  9  8  2  0
  9 10  1  0
 10 11  2  0
 11 12  1  0
 13  1  1  0
 15 14  1  0
 15 16  2  0
 17 16  1  0
 18 17  2  0
 19 18  1  0
 19 15  1  0
 20 21  1  0
 20 18  1  0
 22 21  1  0
 23 22  1  0
 24 23  1  0
 24 25  1  0
 25 20  1  0
  1 26  1  1
  4 27  1  0
  5 28  1  0
  7 29  1  0
  8 30  1  0
 11 31  1  0
 13 32  1  0
 13 33  1  0
 13 34  1  0
 14 35  1  0
 14 36  1  0
 16 37  1  0
 17 38  1  0
 20 39  1  0
 21 40  1  0
 21 41  1  0
 22 42  1  0
 22 43  1  0
 23 44  1  0
 23 45  1  0
 24 46  1  0
 24 47  1  0
 25 48  1  0
 25 49  1  0
M  ISO  8  26   8  27  14  28  14  29  14  30  14  31  14  32   8  33   8
M  ISO  8  34   8  35   8  36   8  37  14  38  14  39  13  40  13  41  13
M  ISO  8  42  13  43  13  44  13  45  13  46  13  47  13  48  13  49  13
M  END
>  <minimizedAffinity>  (1) 
-5.10836697

>  <minimizedRMSD>  (1) 
0.439988524

$$$$
