
     RDKit          3D

 34 36  0  0  1  0  0  0  0  0999 V2000
   48.8110   35.0550   42.1740 C   0  0  2  0  0  0  0  0  0  0  0  0
   46.4450   34.4220   41.5900 N   0  0  0  0  0  0  0  0  0  0  0  0
   45.8240   33.9580   40.5490 N   0  0  0  0  0  0  0  0  0  0  0  0
   46.6750   33.7690   39.5080 C   0  0  0  0  0  0  0  0  0  0  0  0
   47.9300   34.1570   39.9670 C   0  0  0  0  0  0  0  0  0  0  0  0
   47.7570   34.5580   41.2630 C   0  0  0  0  0  0  0  0  0  0  0  0
   44.6730   36.1810   44.3480 C   0  0  0  0  0  0  0  0  0  0  0  0
   45.2360   35.9410   43.0740 C   0  0  0  0  0  0  0  0  0  0  0  0
   45.8560   34.7330   42.8420 C   0  0  0  0  0  0  0  0  0  0  0  0
   45.8990   33.8300   43.8380 N   0  0  0  0  0  0  0  0  0  0  0  0
   45.3590   34.0630   45.0560 C   0  0  0  0  0  0  0  0  0  0  0  0
   44.7480   35.2310   45.3160 N   0  0  0  0  0  0  0  0  0  0  0  0
   49.3410   36.3840   41.6320 C   0  0  0  0  0  0  0  0  0  0  0  0
   49.9860   34.1280   42.1880 C   0  0  0  0  0  0  0  0  0  0  0  0
   49.6310   32.7300   42.2980 C   0  0  0  0  0  0  0  0  0  0  0  0
   48.7790   32.0500   43.1720 C   0  0  0  0  0  0  0  0  0  0  0  0
   48.6490   30.7170   43.0270 C   0  0  0  0  0  0  0  0  0  0  0  0
   49.3700   30.0680   42.0130 C   0  0  0  0  0  0  0  0  0  0  0  0
   50.2700   31.4880   41.2490 S   0  0  0  0  0  0  0  0  0  0  0  0
   49.3060   28.2660   41.6870 S   0  0  0  0  0  0  0  0  0  0  0  0
   48.3729   35.1457   43.1789 H   0  0  0  0  0  0  0  0  0  0  0  0
   46.4239   33.3875   38.5073 H   0  0  0  0  0  0  0  0  0  0  0  0
   48.8729   34.1438   39.4006 H   0  0  0  0  0  0  0  0  0  0  0  0
   44.1733   37.1386   44.5560 H   0  0  0  0  0  0  0  0  0  0  0  0
   45.1802   36.7038   42.2834 H   0  0  0  0  0  0  0  0  0  0  0  0
   45.4204   33.2919   45.8381 H   0  0  0  0  0  0  0  0  0  0  0  0
   49.6041   37.0437   42.4719 H   0  0  0  0  0  0  0  0  0  0  0  0
   50.2342   36.1992   41.0172 H   0  0  0  0  0  0  0  0  0  0  0  0
   48.5657   36.8646   41.0172 H   0  0  0  0  0  0  0  0  0  0  0  0
   50.5493   34.2694   41.2538 H   0  0  0  0  0  0  0  0  0  0  0  0
   50.5776   34.3774   43.0812 H   0  0  0  0  0  0  0  0  0  0  0  0
   48.2290   32.5888   43.9576 H   0  0  0  0  0  0  0  0  0  0  0  0
   47.9870   30.1453   43.6941 H   0  0  0  0  0  0  0  0  0  0  0  0
   49.2819   27.5873   42.8768 H   0  0  0  0  0  0  0  0  0  0  0  0
  1 14  1  0
  2  9  1  0
  3  2  1  0
  4  5  1  0
  4  3  2  0
  5  6  2  0
  6  2  1  0
  6  1  1  0
  7 12  2  0
  8  7  1  0
  9  8  2  0
  9 10  1  0
 10 11  2  0
 11 12  1  0
 13  1  1  0
 14 15  1  0
 15 16  2  0
 17 16  1  0
 18 17  2  0
 19 18  1  0
 19 15  1  0
 20 18  1  0
  1 21  1  1
  4 22  1  0
  5 23  1  0
  7 24  1  0
  8 25  1  0
 11 26  1  0
 13 27  1  0
 13 28  1  0
 13 29  1  0
 14 30  1  0
 14 31  1  0
 16 32  1  0
 17 33  1  0
 20 34  1  0
M  ISO  8  21   8  22  14  23  14  24  14  25  14  26  14  27   8  28   8
M  ISO  6  29   8  30   8  31   8  32  14  33  14  34  11
M  END
>  <minimizedAffinity>  (1) 
-5.05703926

>  <minimizedRMSD>  (1) 
0.014439458

$$$$
