
     RDKit          3D

 44 48  0  0  1  0  0  0  0  0999 V2000
   48.8320   35.1780   42.1700 C   0  0  2  0  0  0  0  0  0  0  0  0
   46.4970   34.4170   41.6010 N   0  0  0  0  0  0  0  0  0  0  0  0
   45.9060   33.8980   40.5700 N   0  0  0  0  0  0  0  0  0  0  0  0
   46.7710   33.7260   39.5370 C   0  0  0  0  0  0  0  0  0  0  0  0
   47.9960   34.1850   39.9940 C   0  0  0  0  0  0  0  0  0  0  0  0
   47.8020   34.6090   41.2790 C   0  0  0  0  0  0  0  0  0  0  0  0
   44.6660   36.1700   44.3260 C   0  0  0  0  0  0  0  0  0  0  0  0
   45.2480   35.9290   43.0590 C   0  0  0  0  0  0  0  0  0  0  0  0
   45.8900   34.7280   42.8430 C   0  0  0  0  0  0  0  0  0  0  0  0
   45.9370   33.8360   43.8490 N   0  0  0  0  0  0  0  0  0  0  0  0
   45.3810   34.0670   45.0600 C   0  0  0  0  0  0  0  0  0  0  0  0
   44.7480   35.2270   45.3050 N   0  0  0  0  0  0  0  0  0  0  0  0
   49.3050   36.5090   41.6030 C   0  0  0  0  0  0  0  0  0  0  0  0
   50.0380   34.3010   42.2380 C   0  0  0  0  0  0  0  0  0  0  0  0
   49.7540   32.8840   42.3030 C   0  0  0  0  0  0  0  0  0  0  0  0
   48.8820   32.1590   43.1170 C   0  0  0  0  0  0  0  0  0  0  0  0
   48.8270   30.8210   42.9510 C   0  0  0  0  0  0  0  0  0  0  0  0
   49.6370   30.2140   41.9820 C   0  0  0  0  0  0  0  0  0  0  0  0
   50.5180   31.6910   41.2850 S   0  0  0  0  0  0  0  0  0  0  0  0
   49.7570   28.8650   41.6280 N   0  0  0  0  0  0  0  0  0  0  0  0
   48.6920   28.1020   41.3250 C   0  0  0  0  0  0  0  0  0  0  0  0
   49.1600   26.8810   41.0360 N   0  0  0  0  0  0  0  0  0  0  0  0
   50.4880   26.8910   41.1590 C   0  0  0  0  0  0  0  0  0  0  0  0
   51.4930   25.9370   40.9910 C   0  0  0  0  0  0  0  0  0  0  0  0
   52.8020   26.2380   41.1900 N   0  0  0  0  0  0  0  0  0  0  0  0
   53.1690   27.4940   41.5630 C   0  0  0  0  0  0  0  0  0  0  0  0
   52.2120   28.4360   41.7320 N   0  0  0  0  0  0  0  0  0  0  0  0
   50.9040   28.1640   41.5410 C   0  0  0  0  0  0  0  0  0  0  0  0
   48.3808   35.2837   43.1676 H   0  0  0  0  0  0  0  0  0  0  0  0
   46.5459   33.3091   38.5443 H   0  0  0  0  0  0  0  0  0  0  0  0
   48.9413   34.2044   39.4318 H   0  0  0  0  0  0  0  0  0  0  0  0
   44.1468   37.1201   44.5204 H   0  0  0  0  0  0  0  0  0  0  0  0
   45.1894   36.6849   42.2620 H   0  0  0  0  0  0  0  0  0  0  0  0
   45.4471   33.3022   45.8478 H   0  0  0  0  0  0  0  0  0  0  0  0
   49.5483   37.1937   42.4289 H   0  0  0  0  0  0  0  0  0  0  0  0
   50.2006   36.3469   40.9852 H   0  0  0  0  0  0  0  0  0  0  0  0
   48.5080   36.9484   40.9852 H   0  0  0  0  0  0  0  0  0  0  0  0
   50.6476   34.4872   41.3415 H   0  0  0  0  0  0  0  0  0  0  0  0
   50.5548   34.5568   43.1747 H   0  0  0  0  0  0  0  0  0  0  0  0
   48.2589   32.6629   43.8705 H   0  0  0  0  0  0  0  0  0  0  0  0
   48.1523   30.2122   43.5708 H   0  0  0  0  0  0  0  0  0  0  0  0
   47.6389   28.4197   41.3162 H   0  0  0  0  0  0  0  0  0  0  0  0
   51.2176   24.9155   40.6898 H   0  0  0  0  0  0  0  0  0  0  0  0
   54.2288   27.7404   41.7249 H   0  0  0  0  0  0  0  0  0  0  0  0
  1 14  1  0
  2  9  1  0
  3  2  1  0
  4  5  1  0
  4  3  2  0
  5  6  2  0
  6  2  1  0
  6  1  1  0
  7 12  2  0
  8  7  1  0
  9  8  2  0
  9 10  1  0
 10 11  2  0
 11 12  1  0
 13  1  1  0
 14 15  1  0
 15 16  2  0
 17 16  1  0
 18 17  2  0
 19 18  1  0
 19 15  1  0
 20 18  1  0
 21 20  1  0
 22 23  1  0
 22 21  2  0
 23 28  2  0
 24 23  1  0
 24 25  2  0
 25 26  1  0
 26 27  2  0
 28 20  1  0
 28 27  1  0
  1 29  1  1
  4 30  1  0
  5 31  1  0
  7 32  1  0
  8 33  1  0
 11 34  1  0
 13 35  1  0
 13 36  1  0
 13 37  1  0
 14 38  1  0
 14 39  1  0
 16 40  1  0
 17 41  1  0
 21 42  1  0
 24 43  1  0
 26 44  1  0
M  ISO  8  29   8  30  14  31  14  32  14  33  14  34  14  35   8  36   8
M  ISO  8  37   8  38   8  39   8  40  14  41  14  42  14  43  14  44  14
M  END
>  <minimizedAffinity>  (1) 
-5.04142284

>  <minimizedRMSD>  (1) 
0.503651381

$$$$
