
     RDKit          3D

 46 49  0  0  1  0  0  0  0  0999 V2000
   48.8260   35.1590   42.1540 C   0  0  2  0  0  0  0  0  0  0  0  0
   46.4840   34.4330   41.6050 N   0  0  0  0  0  0  0  0  0  0  0  0
   45.8780   33.9120   40.5650 N   0  0  0  0  0  0  0  0  0  0  0  0
   46.7340   33.7320   39.5280 C   0  0  0  0  0  0  0  0  0  0  0  0
   47.9780   34.1910   39.9870 C   0  0  0  0  0  0  0  0  0  0  0  0
   47.7810   34.6100   41.2630 C   0  0  0  0  0  0  0  0  0  0  0  0
   44.6660   36.1690   44.3400 C   0  0  0  0  0  0  0  0  0  0  0  0
   45.2490   35.9360   43.0570 C   0  0  0  0  0  0  0  0  0  0  0  0
   45.8830   34.7430   42.8490 C   0  0  0  0  0  0  0  0  0  0  0  0
   45.9330   33.8410   43.8560 N   0  0  0  0  0  0  0  0  0  0  0  0
   45.3860   34.0570   45.0680 C   0  0  0  0  0  0  0  0  0  0  0  0
   44.7500   35.2200   45.3160 N   0  0  0  0  0  0  0  0  0  0  0  0
   49.3150   36.4920   41.6030 C   0  0  0  0  0  0  0  0  0  0  0  0
   50.0200   34.2540   42.2300 C   0  0  0  0  0  0  0  0  0  0  0  0
   49.7070   32.8680   42.3250 C   0  0  0  0  0  0  0  0  0  0  0  0
   48.8350   32.1540   43.1490 C   0  0  0  0  0  0  0  0  0  0  0  0
   48.7360   30.8150   43.0220 C   0  0  0  0  0  0  0  0  0  0  0  0
   49.5350   30.1790   42.0470 C   0  0  0  0  0  0  0  0  0  0  0  0
   50.4340   31.6460   41.3250 S   0  0  0  0  0  0  0  0  0  0  0  0
   49.6980   28.8880   41.6290 N   0  0  0  0  0  0  0  0  0  0  0  0
   48.6870   27.8550   41.4450 C   0  0  0  0  0  0  0  0  0  0  0  0
   49.2590   26.6430   40.7650 C   0  0  0  0  0  0  0  0  0  0  0  0
   50.0900   26.9340   39.7000 O   0  0  0  0  0  0  0  0  0  0  0  0
   51.0730   27.8550   39.9380 C   0  0  0  0  0  0  0  0  0  0  0  0
   51.0530   28.4500   41.3090 C   0  0  0  0  0  0  0  0  0  0  0  0
   48.3774   35.2675   43.1525 H   0  0  0  0  0  0  0  0  0  0  0  0
   46.5020   33.3146   38.5371 H   0  0  0  0  0  0  0  0  0  0  0  0
   48.9236   34.2079   39.4252 H   0  0  0  0  0  0  0  0  0  0  0  0
   44.1471   37.1177   44.5417 H   0  0  0  0  0  0  0  0  0  0  0  0
   45.1896   36.6930   42.2611 H   0  0  0  0  0  0  0  0  0  0  0  0
   45.4578   33.2884   45.8516 H   0  0  0  0  0  0  0  0  0  0  0  0
   49.5619   37.1652   42.4372 H   0  0  0  0  0  0  0  0  0  0  0  0
   50.2113   36.3275   40.9869 H   0  0  0  0  0  0  0  0  0  0  0  0
   48.5249   36.9461   40.9869 H   0  0  0  0  0  0  0  0  0  0  0  0
   50.6256   34.4079   41.3247 H   0  0  0  0  0  0  0  0  0  0  0  0
   50.5533   34.5178   43.1552 H   0  0  0  0  0  0  0  0  0  0  0  0
   48.2299   32.6825   43.9003 H   0  0  0  0  0  0  0  0  0  0  0  0
   48.0525   30.2351   43.6596 H   0  0  0  0  0  0  0  0  0  0  0  0
   48.2928   27.5607   42.4289 H   0  0  0  0  0  0  0  0  0  0  0  0
   47.8868   28.2629   40.8100 H   0  0  0  0  0  0  0  0  0  0  0  0
   49.8353   26.0704   41.5066 H   0  0  0  0  0  0  0  0  0  0  0  0
   48.4086   26.0760   40.3585 H   0  0  0  0  0  0  0  0  0  0  0  0
   52.0460   27.3630   39.7922 H   0  0  0  0  0  0  0  0  0  0  0  0
   50.8979   28.6844   39.2369 H   0  0  0  0  0  0  0  0  0  0  0  0
   51.3771   27.6956   42.0410 H   0  0  0  0  0  0  0  0  0  0  0  0
   51.7353   29.3121   41.3448 H   0  0  0  0  0  0  0  0  0  0  0  0
  1 14  1  0
  2  9  1  0
  3  2  1  0
  4  5  1  0
  4  3  2  0
  5  6  2  0
  6  2  1  0
  6  1  1  0
  7 12  2  0
  8  7  1  0
  9  8  2  0
  9 10  1  0
 10 11  2  0
 11 12  1  0
 13  1  1  0
 14 15  1  0
 15 16  2  0
 17 16  1  0
 18 17  2  0
 19 18  1  0
 19 15  1  0
 20 18  1  0
 21 20  1  0
 22 21  1  0
 23 24  1  0
 23 22  1  0
 24 25  1  0
 25 20  1  0
  1 26  1  1
  4 27  1  0
  5 28  1  0
  7 29  1  0
  8 30  1  0
 11 31  1  0
 13 32  1  0
 13 33  1  0
 13 34  1  0
 14 35  1  0
 14 36  1  0
 16 37  1  0
 17 38  1  0
 21 39  1  0
 21 40  1  0
 22 41  1  0
 22 42  1  0
 24 43  1  0
 24 44  1  0
 25 45  1  0
 25 46  1  0
M  ISO  8  26   8  27  14  28  14  29  14  30  14  31  14  32   8  33   8
M  ISO  8  34   8  35   8  36   8  37  14  38  14  39  13  40  13  41  13
M  ISO  5  42  13  43  13  44  13  45  13  46  13
M  END
>  <minimizedAffinity>  (1) 
-4.97659397

>  <minimizedRMSD>  (1) 
0.186166048

$$$$
