
     RDKit          3D

 45 47  0  0  1  0  0  0  0  0999 V2000
   48.8300   35.1520   42.1760 C   0  0  2  0  0  0  0  0  0  0  0  0
   46.4770   34.4270   41.5970 N   0  0  0  0  0  0  0  0  0  0  0  0
   45.8690   33.9250   40.5640 N   0  0  0  0  0  0  0  0  0  0  0  0
   46.7310   33.7490   39.5270 C   0  0  0  0  0  0  0  0  0  0  0  0
   47.9740   34.1840   39.9750 C   0  0  0  0  0  0  0  0  0  0  0  0
   47.7860   34.6040   41.2720 C   0  0  0  0  0  0  0  0  0  0  0  0
   44.6680   36.1770   44.3400 C   0  0  0  0  0  0  0  0  0  0  0  0
   45.2430   35.9370   43.0700 C   0  0  0  0  0  0  0  0  0  0  0  0
   45.8770   34.7380   42.8440 C   0  0  0  0  0  0  0  0  0  0  0  0
   45.9240   33.8360   43.8430 N   0  0  0  0  0  0  0  0  0  0  0  0
   45.3730   34.0660   45.0570 C   0  0  0  0  0  0  0  0  0  0  0  0
   44.7480   35.2260   45.3110 N   0  0  0  0  0  0  0  0  0  0  0  0
   49.3180   36.4790   41.6030 C   0  0  0  0  0  0  0  0  0  0  0  0
   50.0250   34.2550   42.2290 C   0  0  0  0  0  0  0  0  0  0  0  0
   49.7130   32.8470   42.3070 C   0  0  0  0  0  0  0  0  0  0  0  0
   48.8400   32.1390   43.1380 C   0  0  0  0  0  0  0  0  0  0  0  0
   48.7490   30.8040   42.9860 C   0  0  0  0  0  0  0  0  0  0  0  0
   49.5290   30.1750   42.0030 C   0  0  0  0  0  0  0  0  0  0  0  0
   50.4220   31.6260   41.2910 S   0  0  0  0  0  0  0  0  0  0  0  0
   49.6340   28.7770   41.6240 C   0  0  0  0  0  0  0  0  0  0  0  0
   48.2770   28.1420   41.8270 C   0  0  0  0  0  0  0  0  0  0  0  0
   49.9620   28.5860   40.1460 C   0  0  0  0  0  0  0  0  0  0  0  0
   50.6860   28.1170   42.4440 C   0  0  0  0  0  0  0  0  0  0  0  0
   48.3898   35.2566   43.1786 H   0  0  0  0  0  0  0  0  0  0  0  0
   46.4929   33.3436   38.5325 H   0  0  0  0  0  0  0  0  0  0  0  0
   48.9163   34.1909   39.4075 H   0  0  0  0  0  0  0  0  0  0  0  0
   44.1573   37.1300   44.5426 H   0  0  0  0  0  0  0  0  0  0  0  0
   45.1839   36.6967   42.2767 H   0  0  0  0  0  0  0  0  0  0  0  0
   45.4377   33.2971   45.8410 H   0  0  0  0  0  0  0  0  0  0  0  0
   49.5697   37.1635   42.4264 H   0  0  0  0  0  0  0  0  0  0  0  0
   50.2110   36.3052   40.9847 H   0  0  0  0  0  0  0  0  0  0  0  0
   48.5251   36.9251   40.9847 H   0  0  0  0  0  0  0  0  0  0  0  0
   50.6228   34.4248   41.3214 H   0  0  0  0  0  0  0  0  0  0  0  0
   50.5656   34.5077   43.1531 H   0  0  0  0  0  0  0  0  0  0  0  0
   48.2409   32.6605   43.8989 H   0  0  0  0  0  0  0  0  0  0  0  0
   48.0730   30.2148   43.6231 H   0  0  0  0  0  0  0  0  0  0  0  0
   48.0740   28.0470   42.9039 H   0  0  0  0  0  0  0  0  0  0  0  0
   47.5042   28.7720   41.3624 H   0  0  0  0  0  0  0  0  0  0  0  0
   48.2655   27.1450   41.3624 H   0  0  0  0  0  0  0  0  0  0  0  0
   50.9089   28.0346   40.0488 H   0  0  0  0  0  0  0  0  0  0  0  0
   49.1548   28.0167   39.6619 H   0  0  0  0  0  0  0  0  0  0  0  0
   50.0588   29.5690   39.6619 H   0  0  0  0  0  0  0  0  0  0  0  0
   50.4611   28.2581   43.5115 H   0  0  0  0  0  0  0  0  0  0  0  0
   50.7099   27.0417   42.2133 H   0  0  0  0  0  0  0  0  0  0  0  0
   51.6645   28.5634   42.2133 H   0  0  0  0  0  0  0  0  0  0  0  0
  1 14  1  0
  2  9  1  0
  3  2  1  0
  4  5  1  0
  4  3  2  0
  5  6  2  0
  6  2  1  0
  6  1  1  0
  7 12  2  0
  8  7  1  0
  9  8  2  0
  9 10  1  0
 10 11  2  0
 11 12  1  0
 13  1  1  0
 14 15  1  0
 15 16  2  0
 17 16  1  0
 18 17  2  0
 19 18  1  0
 19 15  1  0
 20 21  1  0
 20 18  1  0
 20 23  1  0
 22 20  1  0
  1 24  1  1
  4 25  1  0
  5 26  1  0
  7 27  1  0
  8 28  1  0
 11 29  1  0
 13 30  1  0
 13 31  1  0
 13 32  1  0
 14 33  1  0
 14 34  1  0
 16 35  1  0
 17 36  1  0
 21 37  1  0
 21 38  1  0
 21 39  1  0
 22 40  1  0
 22 41  1  0
 22 42  1  0
 23 43  1  0
 23 44  1  0
 23 45  1  0
M  ISO  8  24   8  25  14  26  14  27  14  28  14  29  14  30   8  31   8
M  ISO  8  32   8  33   8  34   8  35  14  36  14  37   8  38   8  39   8
M  ISO  6  40   8  41   8  42   8  43   8  44   8  45   8
M  END
>  <minimizedAffinity>  (1) 
-4.96834421

>  <minimizedRMSD>  (1) 
0.266671091

$$$$
