
     RDKit          3D

 36 38  0  0  1  0  0  0  0  0999 V2000
   48.8230   35.1430   42.1820 C   0  0  2  0  0  0  0  0  0  0  0  0
   46.4670   34.4230   41.5930 N   0  0  0  0  0  0  0  0  0  0  0  0
   45.8640   33.9250   40.5600 N   0  0  0  0  0  0  0  0  0  0  0  0
   46.7260   33.7500   39.5240 C   0  0  0  0  0  0  0  0  0  0  0  0
   47.9650   34.1840   39.9780 C   0  0  0  0  0  0  0  0  0  0  0  0
   47.7760   34.5980   41.2710 C   0  0  0  0  0  0  0  0  0  0  0  0
   44.6710   36.1770   44.3430 C   0  0  0  0  0  0  0  0  0  0  0  0
   45.2410   35.9400   43.0670 C   0  0  0  0  0  0  0  0  0  0  0  0
   45.8690   34.7350   42.8410 C   0  0  0  0  0  0  0  0  0  0  0  0
   45.9140   33.8360   43.8420 N   0  0  0  0  0  0  0  0  0  0  0  0
   45.3680   34.0690   45.0570 C   0  0  0  0  0  0  0  0  0  0  0  0
   44.7470   35.2290   45.3190 N   0  0  0  0  0  0  0  0  0  0  0  0
   49.3190   36.4680   41.6010 C   0  0  0  0  0  0  0  0  0  0  0  0
   50.0160   34.2430   42.2360 C   0  0  0  0  0  0  0  0  0  0  0  0
   49.6930   32.8370   42.3290 C   0  0  0  0  0  0  0  0  0  0  0  0
   48.8230   32.1400   43.1730 C   0  0  0  0  0  0  0  0  0  0  0  0
   48.7260   30.8040   43.0300 C   0  0  0  0  0  0  0  0  0  0  0  0
   49.4940   30.1610   42.0520 C   0  0  0  0  0  0  0  0  0  0  0  0
   50.3960   31.6030   41.3130 S   0  0  0  0  0  0  0  0  0  0  0  0
   49.6220   28.7740   41.6540 C   0  0  0  0  0  0  0  0  0  0  0  0
   50.6270   28.1540   42.3430 F   0  0  0  0  0  0  0  0  0  0  0  0
   49.9320   28.6950   40.2900 F   0  0  0  0  0  0  0  0  0  0  0  0
   48.4200   28.0980   41.7830 F   0  0  0  0  0  0  0  0  0  0  0  0
   48.3822   35.2491   43.1842 H   0  0  0  0  0  0  0  0  0  0  0  0
   46.4904   33.3466   38.5281 H   0  0  0  0  0  0  0  0  0  0  0  0
   48.9088   34.1935   39.4131 H   0  0  0  0  0  0  0  0  0  0  0  0
   44.1643   37.1319   44.5466 H   0  0  0  0  0  0  0  0  0  0  0  0
   45.1831   36.7012   42.2751 H   0  0  0  0  0  0  0  0  0  0  0  0
   45.4338   33.2986   45.8394 H   0  0  0  0  0  0  0  0  0  0  0  0
   49.5760   37.1546   42.4211 H   0  0  0  0  0  0  0  0  0  0  0  0
   50.2100   36.2863   40.9820 H   0  0  0  0  0  0  0  0  0  0  0  0
   48.5277   36.9160   40.9820 H   0  0  0  0  0  0  0  0  0  0  0  0
   50.6092   34.4012   41.3233 H   0  0  0  0  0  0  0  0  0  0  0  0
   50.5668   34.5024   43.1521 H   0  0  0  0  0  0  0  0  0  0  0  0
   48.2323   32.6695   43.9350 H   0  0  0  0  0  0  0  0  0  0  0  0
   48.0499   30.2240   43.6754 H   0  0  0  0  0  0  0  0  0  0  0  0
  1 14  1  0
  2  9  1  0
  3  2  1  0
  4  5  1  0
  4  3  2  0
  5  6  2  0
  6  2  1  0
  6  1  1  0
  7 12  2  0
  8  7  1  0
  9  8  2  0
  9 10  1  0
 10 11  2  0
 11 12  1  0
 13  1  1  0
 14 15  1  0
 15 16  2  0
 17 16  1  0
 18 17  2  0
 19 18  1  0
 19 15  1  0
 20 23  1  0
 20 18  1  0
 20 21  1  0
 22 20  1  0
  1 24  1  1
  4 25  1  0
  5 26  1  0
  7 27  1  0
  8 28  1  0
 11 29  1  0
 13 30  1  0
 13 31  1  0
 13 32  1  0
 14 33  1  0
 14 34  1  0
 16 35  1  0
 17 36  1  0
M  ISO  8  24   8  25  14  26  14  27  14  28  14  29  14  30   8  31   8
M  ISO  5  32   8  33   8  34   8  35  14  36  14
M  END
>  <minimizedAffinity>  (1) 
-4.95164919

>  <minimizedRMSD>  (1) 
0.128087059

$$$$
