
     RDKit          3D

 45 48  0  0  1  0  0  0  0  0999 V2000
   48.8210   35.1420   42.1760 C   0  0  2  0  0  0  0  0  0  0  0  0
   46.4870   34.4270   41.6050 N   0  0  0  0  0  0  0  0  0  0  0  0
   45.8760   33.9170   40.5660 N   0  0  0  0  0  0  0  0  0  0  0  0
   46.7380   33.7410   39.5350 C   0  0  0  0  0  0  0  0  0  0  0  0
   47.9770   34.1800   39.9870 C   0  0  0  0  0  0  0  0  0  0  0  0
   47.7850   34.5960   41.2710 C   0  0  0  0  0  0  0  0  0  0  0  0
   44.6690   36.1750   44.3320 C   0  0  0  0  0  0  0  0  0  0  0  0
   45.2440   35.9380   43.0700 C   0  0  0  0  0  0  0  0  0  0  0  0
   45.8800   34.7410   42.8480 C   0  0  0  0  0  0  0  0  0  0  0  0
   45.9230   33.8460   43.8500 N   0  0  0  0  0  0  0  0  0  0  0  0
   45.3680   34.0730   45.0680 C   0  0  0  0  0  0  0  0  0  0  0  0
   44.7430   35.2310   45.3130 N   0  0  0  0  0  0  0  0  0  0  0  0
   49.3100   36.4800   41.6180 C   0  0  0  0  0  0  0  0  0  0  0  0
   50.0330   34.2560   42.2040 C   0  0  0  0  0  0  0  0  0  0  0  0
   49.7280   32.8450   42.3140 C   0  0  0  0  0  0  0  0  0  0  0  0
   48.8530   32.1530   43.1520 C   0  0  0  0  0  0  0  0  0  0  0  0
   48.7640   30.8010   43.0190 C   0  0  0  0  0  0  0  0  0  0  0  0
   49.5660   30.1740   42.0370 C   0  0  0  0  0  0  0  0  0  0  0  0
   50.4600   31.6220   41.3060 S   0  0  0  0  0  0  0  0  0  0  0  0
   49.5590   28.8250   41.7950 N   0  0  0  0  0  0  0  0  0  0  0  0
   48.5160   27.9120   41.3540 C   0  0  0  0  0  0  0  0  0  0  0  0
   48.5610   26.8610   42.4630 C   0  0  0  0  0  0  0  0  0  0  0  0
   50.0330   26.8260   42.8560 C   0  0  0  0  0  0  0  0  0  0  0  0
   50.6620   27.8850   41.9480 C   0  0  0  0  0  0  0  0  0  0  0  0
   48.3746   35.2303   43.1775 H   0  0  0  0  0  0  0  0  0  0  0  0
   46.5042   33.3329   38.5406 H   0  0  0  0  0  0  0  0  0  0  0  0
   48.9213   34.1898   39.4229 H   0  0  0  0  0  0  0  0  0  0  0  0
   44.1564   37.1282   44.5285 H   0  0  0  0  0  0  0  0  0  0  0  0
   45.1853   36.6971   42.2760 H   0  0  0  0  0  0  0  0  0  0  0  0
   45.4319   33.3055   45.8534 H   0  0  0  0  0  0  0  0  0  0  0  0
   49.5570   37.1559   42.4499 H   0  0  0  0  0  0  0  0  0  0  0  0
   50.2058   36.3147   41.0014 H   0  0  0  0  0  0  0  0  0  0  0  0
   48.5187   36.9313   41.0014 H   0  0  0  0  0  0  0  0  0  0  0  0
   50.6001   34.4160   41.2751 H   0  0  0  0  0  0  0  0  0  0  0  0
   50.6063   34.5289   43.1023 H   0  0  0  0  0  0  0  0  0  0  0  0
   48.2500   32.6866   43.9015 H   0  0  0  0  0  0  0  0  0  0  0  0
   48.0877   30.2131   43.6570 H   0  0  0  0  0  0  0  0  0  0  0  0
   47.5361   28.4097   41.3085 H   0  0  0  0  0  0  0  0  0  0  0  0
   48.6641   27.5093   40.3411 H   0  0  0  0  0  0  0  0  0  0  0  0
   47.9330   27.1605   43.3150 H   0  0  0  0  0  0  0  0  0  0  0  0
   48.1786   25.8809   42.1419 H   0  0  0  0  0  0  0  0  0  0  0  0
   50.1646   27.0870   43.9165 H   0  0  0  0  0  0  0  0  0  0  0  0
   50.4876   25.8313   42.7382 H   0  0  0  0  0  0  0  0  0  0  0  0
   50.9634   27.4575   40.9803 H   0  0  0  0  0  0  0  0  0  0  0  0
   51.5822   28.3334   42.3508 H   0  0  0  0  0  0  0  0  0  0  0  0
  1 14  1  0
  2  9  1  0
  3  2  1  0
  4  5  1  0
  4  3  2  0
  5  6  2  0
  6  2  1  0
  6  1  1  0
  7 12  2  0
  8  7  1  0
  9  8  2  0
  9 10  1  0
 10 11  2  0
 11 12  1  0
 13  1  1  0
 14 15  1  0
 15 16  2  0
 17 16  1  0
 18 17  2  0
 19 18  1  0
 19 15  1  0
 20 24  1  0
 20 18  1  0
 21 20  1  0
 21 22  1  0
 22 23  1  0
 24 23  1  0
  1 25  1  1
  4 26  1  0
  5 27  1  0
  7 28  1  0
  8 29  1  0
 11 30  1  0
 13 31  1  0
 13 32  1  0
 13 33  1  0
 14 34  1  0
 14 35  1  0
 16 36  1  0
 17 37  1  0
 21 38  1  0
 21 39  1  0
 22 40  1  0
 22 41  1  0
 23 42  1  0
 23 43  1  0
 24 44  1  0
 24 45  1  0
M  ISO  8  25   8  26  14  27  14  28  14  29  14  30  14  31   8  32   8
M  ISO  8  33   8  34   8  35   8  36  14  37  14  38  13  39  13  40  13
M  ISO  5  41  13  42  13  43  13  44  13  45  13
M  END
>  <minimizedAffinity>  (1) 
-4.92361307

>  <minimizedRMSD>  (1) 
0.238222152

$$$$
