
     RDKit          3D

 39 41  0  0  1  0  0  0  0  0999 V2000
   48.8140   35.1360   42.1690 C   0  0  2  0  0  0  0  0  0  0  0  0
   46.4660   34.4300   41.5970 N   0  0  0  0  0  0  0  0  0  0  0  0
   45.8570   33.9340   40.5630 N   0  0  0  0  0  0  0  0  0  0  0  0
   46.7140   33.7560   39.5250 C   0  0  0  0  0  0  0  0  0  0  0  0
   47.9590   34.1860   39.9760 C   0  0  0  0  0  0  0  0  0  0  0  0
   47.7730   34.5980   41.2660 C   0  0  0  0  0  0  0  0  0  0  0  0
   44.6670   36.1790   44.3470 C   0  0  0  0  0  0  0  0  0  0  0  0
   45.2380   35.9410   43.0770 C   0  0  0  0  0  0  0  0  0  0  0  0
   45.8680   34.7390   42.8450 C   0  0  0  0  0  0  0  0  0  0  0  0
   45.9110   33.8390   43.8430 N   0  0  0  0  0  0  0  0  0  0  0  0
   45.3630   34.0700   45.0580 C   0  0  0  0  0  0  0  0  0  0  0  0
   44.7440   35.2310   45.3150 N   0  0  0  0  0  0  0  0  0  0  0  0
   49.3280   36.4590   41.5980 C   0  0  0  0  0  0  0  0  0  0  0  0
   50.0010   34.2280   42.2220 C   0  0  0  0  0  0  0  0  0  0  0  0
   49.6680   32.8260   42.3230 C   0  0  0  0  0  0  0  0  0  0  0  0
   48.8110   32.1330   43.1790 C   0  0  0  0  0  0  0  0  0  0  0  0
   48.7080   30.7990   43.0350 C   0  0  0  0  0  0  0  0  0  0  0  0
   49.4540   30.1600   42.0470 C   0  0  0  0  0  0  0  0  0  0  0  0
   50.3510   31.5930   41.2900 S   0  0  0  0  0  0  0  0  0  0  0  0
   49.6380   28.7790   41.5580 C   0  0  0  0  0  0  0  0  0  0  0  0
   50.1640   28.6970   40.1510 C   0  0  0  0  0  0  0  0  0  0  0  0
   48.3655   35.2477   43.1672 H   0  0  0  0  0  0  0  0  0  0  0  0
   46.4735   33.3537   38.5298 H   0  0  0  0  0  0  0  0  0  0  0  0
   48.9016   34.1928   39.4090 H   0  0  0  0  0  0  0  0  0  0  0  0
   44.1596   37.1334   44.5514 H   0  0  0  0  0  0  0  0  0  0  0  0
   45.1802   36.7036   42.2863 H   0  0  0  0  0  0  0  0  0  0  0  0
   45.4258   33.2997   45.8407 H   0  0  0  0  0  0  0  0  0  0  0  0
   49.5914   37.1369   42.4233 H   0  0  0  0  0  0  0  0  0  0  0  0
   50.2183   36.2704   40.9801 H   0  0  0  0  0  0  0  0  0  0  0  0
   48.5439   36.9209   40.9801 H   0  0  0  0  0  0  0  0  0  0  0  0
   50.5913   34.3776   41.3059 H   0  0  0  0  0  0  0  0  0  0  0  0
   50.5582   34.4878   43.1342 H   0  0  0  0  0  0  0  0  0  0  0  0
   48.2347   32.6634   43.9514 H   0  0  0  0  0  0  0  0  0  0  0  0
   48.0417   30.2191   43.6906 H   0  0  0  0  0  0  0  0  0  0  0  0
   50.3484   28.2673   42.2240 H   0  0  0  0  0  0  0  0  0  0  0  0
   48.6453   28.3052   41.5565 H   0  0  0  0  0  0  0  0  0  0  0  0
   51.2506   28.5276   40.1751 H   0  0  0  0  0  0  0  0  0  0  0  0
   49.6747   27.8643   39.6246 H   0  0  0  0  0  0  0  0  0  0  0  0
   49.9513   29.6391   39.6246 H   0  0  0  0  0  0  0  0  0  0  0  0
  1 14  1  0
  2  9  1  0
  3  2  1  0
  4  5  1  0
  4  3  2  0
  5  6  2  0
  6  2  1  0
  6  1  1  0
  7 12  2  0
  8  7  1  0
  9  8  2  0
  9 10  1  0
 10 11  2  0
 11 12  1  0
 13  1  1  0
 14 15  1  0
 15 16  2  0
 17 16  1  0
 18 17  2  0
 19 18  1  0
 19 15  1  0
 20 18  1  0
 21 20  1  0
  1 22  1  1
  4 23  1  0
  5 24  1  0
  7 25  1  0
  8 26  1  0
 11 27  1  0
 13 28  1  0
 13 29  1  0
 13 30  1  0
 14 31  1  0
 14 32  1  0
 16 33  1  0
 17 34  1  0
 20 35  1  0
 20 36  1  0
 21 37  1  0
 21 38  1  0
 21 39  1  0
M  ISO  8  22   8  23  14  24  14  25  14  26  14  27  14  28   8  29   8
M  ISO  8  30   8  31   8  32   8  33  14  34  14  35   8  36   8  37   8
M  ISO  2  38   8  39   8
M  END
>  <minimizedAffinity>  (1) 
-4.91012859

>  <minimizedRMSD>  (1) 
0.118834145

$$$$
