
     RDKit          3D

 37 39  0  0  1  0  0  0  0  0999 V2000
   49.3400   34.2180   41.3410 C   0  0  1  0  0  0  0  0  0  0  0  0
   49.0000   35.6520   41.6630 C   0  0  0  0  0  0  0  0  0  0  0  0
   48.8710   34.6380   42.6930 C   0  0  1  0  0  0  0  0  0  0  0  0
   47.2060   33.4810   38.3660 C   0  0  0  0  0  0  0  0  0  0  0  0
   48.0480   34.1980   39.2700 C   0  0  0  0  0  0  0  0  0  0  0  0
   48.4720   33.5060   40.4000 C   0  0  0  0  0  0  0  0  0  0  0  0
   48.0780   32.2120   40.5980 N   0  0  0  0  0  0  0  0  0  0  0  0
   47.2850   31.5720   39.7240 C   0  0  0  0  0  0  0  0  0  0  0  0
   46.8440   32.1960   38.6080 N   0  0  0  0  0  0  0  0  0  0  0  0
   47.5560   34.2130   43.2470 C   0  0  0  0  0  0  0  0  0  0  0  0
   46.3430   34.8710   43.0930 C   0  0  0  0  0  0  0  0  0  0  0  0
   45.1960   34.3630   43.6350 C   0  0  0  0  0  0  0  0  0  0  0  0
   45.1760   33.2380   44.3240 N   0  0  0  0  0  0  0  0  0  0  0  0
   46.3470   32.5920   44.4790 C   0  0  0  0  0  0  0  0  0  0  0  0
   47.4850   33.0700   43.9580 N   0  0  0  0  0  0  0  0  0  0  0  0
   46.4470   31.3120   45.2370 C   0  0  0  0  0  0  0  0  0  0  0  0
   47.8220   30.6860   45.0840 C   0  0  0  0  0  0  0  0  0  0  0  0
   45.4660   30.2940   44.6930 C   0  0  0  0  0  0  0  0  0  0  0  0
   46.2400   31.4870   46.7240 C   0  0  0  0  0  0  0  0  0  0  0  0
   50.2064   33.6471   40.9756 H   0  0  0  0  0  0  0  0  0  0  0  0
   49.8002   36.4038   41.7303 H   0  0  0  0  0  0  0  0  0  0  0  0
   48.3264   36.4052   41.2283 H   0  0  0  0  0  0  0  0  0  0  0  0
   49.2649   34.5299   43.7144 H   0  0  0  0  0  0  0  0  0  0  0  0
   46.8438   33.9806   37.4554 H   0  0  0  0  0  0  0  0  0  0  0  0
   48.3450   35.2405   39.0829 H   0  0  0  0  0  0  0  0  0  0  0  0
   46.9910   30.5298   39.9174 H   0  0  0  0  0  0  0  0  0  0  0  0
   46.3048   35.8136   42.5273 H   0  0  0  0  0  0  0  0  0  0  0  0
   44.2540   34.9127   43.4915 H   0  0  0  0  0  0  0  0  0  0  0  0
   48.2491   30.4915   46.0789 H   0  0  0  0  0  0  0  0  0  0  0  0
   47.7343   29.7391   44.5311 H   0  0  0  0  0  0  0  0  0  0  0  0
   48.4786   31.3739   44.5311 H   0  0  0  0  0  0  0  0  0  0  0  0
   44.9701   29.7794   45.5292 H   0  0  0  0  0  0  0  0  0  0  0  0
   44.7110   30.8049   44.0774 H   0  0  0  0  0  0  0  0  0  0  0  0
   46.0045   29.5585   44.0774 H   0  0  0  0  0  0  0  0  0  0  0  0
   46.9689   30.8707   47.2707 H   0  0  0  0  0  0  0  0  0  0  0  0
   46.3801   32.5447   46.9917 H   0  0  0  0  0  0  0  0  0  0  0  0
   45.2204   31.1729   46.9917 H   0  0  0  0  0  0  0  0  0  0  0  0
  1  2  1  0
  1  3  1  0
  2  3  1  0
  3 10  1  0
  4  9  2  0
  4  5  1  0
  5  6  2  0
  6  7  1  0
  6  1  1  0
  8  7  2  0
  9  8  1  0
 10 15  1  0
 11 10  2  0
 11 12  1  0
 12 13  2  0
 13 14  1  0
 14 16  1  0
 15 14  2  0
 16 19  1  0
 17 16  1  0
 18 16  1  0
  1 20  1  1
  2 21  1  0
  2 22  1  0
  3 23  1  1
  4 24  1  0
  5 25  1  0
  8 26  1  0
 11 27  1  0
 12 28  1  0
 17 29  1  0
 17 30  1  0
 17 31  1  0
 18 32  1  0
 18 33  1  0
 18 34  1  0
 19 35  1  0
 19 36  1  0
 19 37  1  0
M  ISO  8  20  13  21  13  22  13  23  13  24  14  25  14  26  14  27  14
M  ISO  8  28  14  29   8  30   8  31   8  32   8  33   8  34   8  35   8
M  ISO  2  36   8  37   8
M  END
>  <minimizedAffinity>  (1) 
-4.39399815

>  <minimizedRMSD>  (1) 
4.7961688

$$$$
