
     RDKit          3D

 40 44  0  0  0  0  0  0  0  0999 V2000
   44.9430   35.2960   44.4590 C   0  0  0  0  0  0  0  0  0  0  0  0
   45.5840   35.5140   43.2230 C   0  0  0  0  0  0  0  0  0  0  0  0
   46.5420   34.5670   42.8390 C   0  0  0  0  0  0  0  0  0  0  0  0
   46.7460   33.5460   43.6990 N   0  0  0  0  0  0  0  0  0  0  0  0
   46.1370   33.3310   44.8830 C   0  0  0  0  0  0  0  0  0  0  0  0
   45.2580   34.2490   45.1770 N   0  0  0  0  0  0  0  0  0  0  0  0
   46.6070   32.1280   45.5310 C   0  0  0  0  0  0  0  0  0  0  0  0
   47.4410   31.2310   44.9020 C   0  0  0  0  0  0  0  0  0  0  0  0
   47.8980   30.0720   45.4970 C   0  0  0  0  0  0  0  0  0  0  0  0
   47.5370   29.7470   46.7680 C   0  0  0  0  0  0  0  0  0  0  0  0
   46.7170   30.6080   47.4180 C   0  0  0  0  0  0  0  0  0  0  0  0
   46.3500   30.2760   48.7170 C   0  0  0  0  0  0  0  0  0  0  0  0
   45.5240   31.0950   49.4360 C   0  0  0  0  0  0  0  0  0  0  0  0
   45.0600   32.2600   48.8520 C   0  0  0  0  0  0  0  0  0  0  0  0
   45.4640   32.5260   47.5650 C   0  0  0  0  0  0  0  0  0  0  0  0
   46.2840   31.7480   46.7980 C   0  0  0  0  0  0  0  0  0  0  0  0
   47.2480   34.6910   41.6090 N   0  0  0  0  0  0  0  0  0  0  0  0
   48.3940   35.4230   41.5700 C   0  0  0  0  0  0  0  0  0  0  0  0
   48.8870   35.4000   40.3060 N   0  0  0  0  0  0  0  0  0  0  0  0
   48.0420   34.6520   39.5710 C   0  0  0  0  0  0  0  0  0  0  0  0
   47.9880   34.2590   38.2490 C   0  0  0  0  0  0  0  0  0  0  0  0
   48.9090   34.6480   37.4850 O   0  0  0  0  0  0  0  0  0  0  0  0
   46.9640   33.4790   37.8210 N   0  0  0  0  0  0  0  0  0  0  0  0
   45.9830   33.0700   38.6570 C   0  0  0  0  0  0  0  0  0  0  0  0
   44.9890   32.2610   38.0480 N   0  0  0  0  0  0  0  0  0  0  0  0
   45.9790   33.4240   39.9680 N   0  0  0  0  0  0  0  0  0  0  0  0
   47.0090   34.2010   40.3750 C   0  0  0  0  0  0  0  0  0  0  0  0
   44.1810   36.0033   44.8184 H   0  0  0  0  0  0  0  0  0  0  0  0
   45.3444   36.3829   42.5924 H   0  0  0  0  0  0  0  0  0  0  0  0
   47.7597   31.4491   43.8720 H   0  0  0  0  0  0  0  0  0  0  0  0
   48.5642   29.4010   44.9349 H   0  0  0  0  0  0  0  0  0  0  0  0
   47.8956   28.8243   47.2476 H   0  0  0  0  0  0  0  0  0  0  0  0
   46.7270   29.3472   49.1701 H   0  0  0  0  0  0  0  0  0  0  0  0
   45.2329   30.8313   50.4635 H   0  0  0  0  0  0  0  0  0  0  0  0
   44.3942   32.9464   49.3957 H   0  0  0  0  0  0  0  0  0  0  0  0
   45.0909   33.4549   47.1090 H   0  0  0  0  0  0  0  0  0  0  0  0
   48.8471   35.9479   42.4239 H   0  0  0  0  0  0  0  0  0  0  0  0
   46.9329   33.1905   36.8327 H   0  0  0  0  0  0  0  0  0  0  0  0
   44.2021   31.9030   38.6080 H   0  0  0  0  0  0  0  0  0  0  0  0
   45.0543   32.0318   37.0460 H   0  0  0  0  0  0  0  0  0  0  0  0
  1  6  2  0
  2  1  1  0
  3  2  2  0
  3  4  1  0
  4  5  2  0
  5  6  1  0
  5  7  1  0
  7 16  2  0
  8  9  2  0
  8  7  1  0
  9 10  1  0
 10 11  2  0
 11 12  1  0
 12 13  2  0
 14 13  1  0
 15 14  2  0
 16 11  1  0
 16 15  1  0
 17  3  1  0
 18 17  1  0
 19 18  2  0
 20 19  1  0
 20 27  2  0
 21 20  1  0
 22 21  2  0
 23 21  1  0
 23 24  1  0
 24 26  2  0
 25 24  1  0
 26 27  1  0
 27 17  1  0
  1 28  1  0
  2 29  1  0
  8 30  1  0
  9 31  1  0
 10 32  1  0
 12 33  1  0
 13 34  1  0
 14 35  1  0
 15 36  1  0
 18 37  1  0
 23 38  1  0
 25 39  1  0
 25 40  1  0
M  ISO  8  28  14  29  14  30  14  31  14  32  14  33  14  34  14  35  14
M  ISO  3  36  14  37  14  38   9
M  END
>  <minimizedAffinity>  (1) 
-7.07376194

>  <minimizedRMSD>  (1) 
1.02124965

$$$$
