
     RDKit          3D

 37 41  0  0  0  0  0  0  0  0999 V2000
   44.9040   35.2600   44.3200 C   0  0  0  0  0  0  0  0  0  0  0  0
   45.6720   35.5880   43.1840 C   0  0  0  0  0  0  0  0  0  0  0  0
   46.7230   34.7270   42.8750 C   0  0  0  0  0  0  0  0  0  0  0  0
   46.8960   33.6730   43.6900 N   0  0  0  0  0  0  0  0  0  0  0  0
   46.1710   33.3440   44.7820 C   0  0  0  0  0  0  0  0  0  0  0  0
   45.2050   34.1910   45.0130 N   0  0  0  0  0  0  0  0  0  0  0  0
   46.6430   32.1360   45.4160 C   0  0  0  0  0  0  0  0  0  0  0  0
   47.4440   31.2300   44.7500 C   0  0  0  0  0  0  0  0  0  0  0  0
   47.9090   30.0630   45.3200 C   0  0  0  0  0  0  0  0  0  0  0  0
   47.5860   29.7410   46.6190 C   0  0  0  0  0  0  0  0  0  0  0  0
   46.8060   30.6090   47.2920 C   0  0  0  0  0  0  0  0  0  0  0  0
   46.4850   30.2730   48.6050 C   0  0  0  0  0  0  0  0  0  0  0  0
   45.6860   31.1180   49.3600 C   0  0  0  0  0  0  0  0  0  0  0  0
   45.2180   32.2990   48.7740 C   0  0  0  0  0  0  0  0  0  0  0  0
   45.5800   32.5520   47.4800 C   0  0  0  0  0  0  0  0  0  0  0  0
   46.3630   31.7590   46.6890 C   0  0  0  0  0  0  0  0  0  0  0  0
   47.5570   34.9760   41.7440 N   0  0  0  0  0  0  0  0  0  0  0  0
   48.6270   35.7350   41.5700 C   0  0  0  0  0  0  0  0  0  0  0  0
   49.0420   35.6100   40.2840 N   0  0  0  0  0  0  0  0  0  0  0  0
   48.2090   34.7510   39.6400 C   0  0  0  0  0  0  0  0  0  0  0  0
   48.1060   34.2340   38.3690 C   0  0  0  0  0  0  0  0  0  0  0  0
   47.1460   33.3720   37.9970 N   0  0  0  0  0  0  0  0  0  0  0  0
   46.2450   32.9990   38.9150 C   0  0  0  0  0  0  0  0  0  0  0  0
   46.3280   33.4850   40.1440 N   0  0  0  0  0  0  0  0  0  0  0  0
   47.2870   34.3620   40.5610 C   0  0  0  0  0  0  0  0  0  0  0  0
   44.0592   35.8968   44.6213 H   0  0  0  0  0  0  0  0  0  0  0  0
   45.4530   36.4767   42.5739 H   0  0  0  0  0  0  0  0  0  0  0  0
   47.7263   31.4503   43.7099 H   0  0  0  0  0  0  0  0  0  0  0  0
   48.5434   29.3838   44.7315 H   0  0  0  0  0  0  0  0  0  0  0  0
   47.9494   28.8144   47.0874 H   0  0  0  0  0  0  0  0  0  0  0  0
   46.8650   29.3381   49.0426 H   0  0  0  0  0  0  0  0  0  0  0  0
   45.4255   30.8650   50.3983 H   0  0  0  0  0  0  0  0  0  0  0  0
   44.5813   32.9993   49.3345 H   0  0  0  0  0  0  0  0  0  0  0  0
   45.2047   33.4840   47.0323 H   0  0  0  0  0  0  0  0  0  0  0  0
   49.1009   36.3624   42.3393 H   0  0  0  0  0  0  0  0  0  0  0  0
   48.8487   34.5429   37.6187 H   0  0  0  0  0  0  0  0  0  0  0  0
   45.4426   32.2947   38.6502 H   0  0  0  0  0  0  0  0  0  0  0  0
  1  6  2  0
  2  1  1  0
  3  2  2  0
  3  4  1  0
  4  5  2  0
  5  6  1  0
  5  7  1  0
  7 16  2  0
  8  9  2  0
  8  7  1  0
  9 10  1  0
 10 11  2  0
 11 12  1  0
 12 13  2  0
 14 13  1  0
 15 14  2  0
 16 11  1  0
 16 15  1  0
 17  3  1  0
 18 17  1  0
 19 18  2  0
 20 19  1  0
 20 25  2  0
 21 20  1  0
 22 21  2  0
 22 23  1  0
 23 24  2  0
 24 25  1  0
 25 17  1  0
  1 26  1  0
  2 27  1  0
  8 28  1  0
  9 29  1  0
 10 30  1  0
 12 31  1  0
 13 32  1  0
 14 33  1  0
 15 34  1  0
 18 35  1  0
 21 36  1  0
 23 37  1  0
M  ISO  8  26  14  27  14  28  14  29  14  30  14  31  14  32  14  33  14
M  ISO  4  34  14  35  14  36  14  37  14
M  END
>  <minimizedAffinity>  (1) 
-6.64402008

>  <minimizedRMSD>  (1) 
0.925560296

$$$$
