
     RDKit          3D

 36 39  0  0  0  0  0  0  0  0999 V2000
   45.8940   30.9710   45.3460 C   0  0  0  0  0  0  0  0  0  0  0  0
   45.5260   29.7420   44.8440 C   0  0  0  0  0  0  0  0  0  0  0  0
   45.0250   28.7200   45.6170 C   0  0  0  0  0  0  0  0  0  0  0  0
   44.8650   28.8830   46.9700 C   0  0  0  0  0  0  0  0  0  0  0  0
   45.2150   30.0740   47.4920 C   0  0  0  0  0  0  0  0  0  0  0  0
   45.0450   30.2220   48.8650 C   0  0  0  0  0  0  0  0  0  0  0  0
   45.3830   31.4120   49.4730 C   0  0  0  0  0  0  0  0  0  0  0  0
   45.8950   32.4560   48.6810 C   0  0  0  0  0  0  0  0  0  0  0  0
   46.0290   32.2260   47.3400 C   0  0  0  0  0  0  0  0  0  0  0  0
   45.7100   31.0660   46.6870 C   0  0  0  0  0  0  0  0  0  0  0  0
   47.9050   33.4710   43.4230 C   0  0  0  0  0  0  0  0  0  0  0  0
   46.8720   34.1580   42.7510 C   0  0  0  0  0  0  0  0  0  0  0  0
   45.5770   33.7260   42.9990 C   0  0  0  0  0  0  0  0  0  0  0  0
   45.4280   32.6910   43.8560 N   0  0  0  0  0  0  0  0  0  0  0  0
   46.4130   32.0280   44.5010 C   0  0  0  0  0  0  0  0  0  0  0  0
   47.6000   32.4870   44.2220 N   0  0  0  0  0  0  0  0  0  0  0  0
   44.4750   34.3610   42.3650 N   0  0  0  0  0  0  0  0  0  0  0  0
   44.1950   33.7270   41.1900 C   0  0  0  0  0  0  0  0  0  0  0  0
   43.1440   34.1670   40.3780 C   0  0  0  0  0  0  0  0  0  0  0  0
   42.4030   35.2640   40.8060 C   0  0  0  0  0  0  0  0  0  0  0  0
   41.4480   35.6930   40.1030 O   0  0  0  0  0  0  0  0  0  0  0  0
   42.7330   35.8390   41.9680 N   0  0  0  0  0  0  0  0  0  0  0  0
   43.7330   35.4150   42.7370 C   0  0  0  0  0  0  0  0  0  0  0  0
   44.1100   35.8920   43.8360 O   0  0  0  0  0  0  0  0  0  0  0  0
   45.6391   29.5679   43.7638 H   0  0  0  0  0  0  0  0  0  0  0  0
   44.7505   27.7644   45.1465 H   0  0  0  0  0  0  0  0  0  0  0  0
   44.4676   28.0749   47.6016 H   0  0  0  0  0  0  0  0  0  0  0  0
   44.6420   29.3917   49.4636 H   0  0  0  0  0  0  0  0  0  0  0  0
   45.2548   31.5430   50.5576 H   0  0  0  0  0  0  0  0  0  0  0  0
   46.1772   33.4222   49.1246 H   0  0  0  0  0  0  0  0  0  0  0  0
   46.4300   33.0487   46.7297 H   0  0  0  0  0  0  0  0  0  0  0  0
   48.9553   33.7622   43.2745 H   0  0  0  0  0  0  0  0  0  0  0  0
   47.0823   34.9927   42.0661 H   0  0  0  0  0  0  0  0  0  0  0  0
   44.8003   32.8630   40.8785 H   0  0  0  0  0  0  0  0  0  0  0  0
   42.9106   33.6608   39.4297 H   0  0  0  0  0  0  0  0  0  0  0  0
   42.1848   36.6518   42.2838 H   0  0  0  0  0  0  0  0  0  0  0  0
  1 10  1  0
  2  1  2  0
  2  3  1  0
  3  4  2  0
  4  5  1  0
  5  6  2  0
  6  7  1  0
  8  7  2  0
  9  8  1  0
 10  9  2  0
 10  5  1  0
 11 16  2  0
 12 13  2  0
 12 11  1  0
 13 14  1  0
 14 15  2  0
 15  1  1  0
 16 15  1  0
 17 23  1  0
 17 13  1  0
 18 17  1  0
 19 20  1  0
 19 18  2  0
 20 22  1  0
 21 20  2  0
 22 23  1  0
 23 24  2  0
  2 25  1  0
  3 26  1  0
  4 27  1  0
  6 28  1  0
  7 29  1  0
  8 30  1  0
  9 31  1  0
 11 32  1  0
 12 33  1  0
 18 34  1  0
 19 35  1  0
 22 36  1  0
M  ISO  8  25  14  26  14  27  14  28  14  29  14  30  14  31  14  32  14
M  ISO  4  33  14  34  14  35  14  36   9
M  END
>  <minimizedAffinity>  (1) 
-6.48122358

>  <minimizedRMSD>  (1) 
3.50313234

$$$$
