
     RDKit          3D

 33 36  0  0  0  0  0  0  0  0999 V2000
   46.6360   32.1370   45.4530 C   0  0  0  0  0  0  0  0  0  0  0  0
   47.4450   31.2220   44.8090 C   0  0  0  0  0  0  0  0  0  0  0  0
   47.9040   30.0610   45.3950 C   0  0  0  0  0  0  0  0  0  0  0  0
   47.5640   29.7530   46.6950 C   0  0  0  0  0  0  0  0  0  0  0  0
   46.7750   30.6290   47.3470 C   0  0  0  0  0  0  0  0  0  0  0  0
   46.4370   30.3080   48.6590 C   0  0  0  0  0  0  0  0  0  0  0  0
   45.6270   31.1590   49.3980 C   0  0  0  0  0  0  0  0  0  0  0  0
   45.1690   32.3310   48.7950 C   0  0  0  0  0  0  0  0  0  0  0  0
   45.5490   32.5720   47.4970 C   0  0  0  0  0  0  0  0  0  0  0  0
   46.3420   31.7700   46.7260 C   0  0  0  0  0  0  0  0  0  0  0  0
   44.9280   35.2730   44.3420 C   0  0  0  0  0  0  0  0  0  0  0  0
   45.6520   35.5430   43.1650 C   0  0  0  0  0  0  0  0  0  0  0  0
   46.6620   34.6520   42.8300 C   0  0  0  0  0  0  0  0  0  0  0  0
   46.8530   33.6100   43.6690 N   0  0  0  0  0  0  0  0  0  0  0  0
   46.1730   33.3340   44.7990 C   0  0  0  0  0  0  0  0  0  0  0  0
   45.2460   34.2150   45.0400 N   0  0  0  0  0  0  0  0  0  0  0  0
   47.4610   34.8530   41.6280 C   0  0  0  0  0  0  0  0  0  0  0  0
   47.2650   34.2510   40.4090 C   0  0  0  0  0  0  0  0  0  0  0  0
   48.3000   34.8000   39.6440 C   0  0  0  0  0  0  0  0  0  0  0  0
   49.0530   35.6660   40.3680 N   0  0  0  0  0  0  0  0  0  0  0  0
   48.5170   35.6850   41.5990 N   0  0  0  0  0  0  0  0  0  0  0  0
   47.7400   31.4308   43.7701 H   0  0  0  0  0  0  0  0  0  0  0  0
   48.5457   29.3761   44.8212 H   0  0  0  0  0  0  0  0  0  0  0  0
   47.9214   28.8321   47.1789 H   0  0  0  0  0  0  0  0  0  0  0  0
   46.8127   29.3781   49.1108 H   0  0  0  0  0  0  0  0  0  0  0  0
   45.3525   30.9152   50.4349 H   0  0  0  0  0  0  0  0  0  0  0  0
   44.5259   33.0376   49.3401 H   0  0  0  0  0  0  0  0  0  0  0  0
   45.1796   33.4991   47.0344 H   0  0  0  0  0  0  0  0  0  0  0  0
   44.1135   35.9373   44.6665 H   0  0  0  0  0  0  0  0  0  0  0  0
   45.4275   36.4197   42.5398 H   0  0  0  0  0  0  0  0  0  0  0  0
   46.4939   33.5252   40.1113 H   0  0  0  0  0  0  0  0  0  0  0  0
   48.4809   34.5592   38.5860 H   0  0  0  0  0  0  0  0  0  0  0  0
   49.8701   36.2004   40.0399 H   0  0  0  0  0  0  0  0  0  0  0  0
  1 10  2  0
  2  3  2  0
  2  1  1  0
  3  4  1  0
  4  5  2  0
  5  6  1  0
  6  7  2  0
  8  7  1  0
  9  8  2  0
 10  5  1  0
 10  9  1  0
 11 16  2  0
 12 11  1  0
 13 12  2  0
 13 14  1  0
 14 15  2  0
 15 16  1  0
 15  1  1  0
 17 13  1  0
 18 17  1  0
 19 20  1  0
 19 18  2  0
 20 21  1  0
 21 17  2  0
  2 22  1  0
  3 23  1  0
  4 24  1  0
  6 25  1  0
  7 26  1  0
  8 27  1  0
  9 28  1  0
 11 29  1  0
 12 30  1  0
 18 31  1  0
 19 32  1  0
 20 33  1  0
M  ISO  8  22  14  23  14  24  14  25  14  26  14  27  14  28  14  29  14
M  ISO  4  30  14  31  14  32  14  33   9
M  END
>  <minimizedAffinity>  (1) 
-6.40435457

>  <minimizedRMSD>  (1) 
0.949553609

$$$$
