
     RDKit          3D

 38 40  0  0  0  0  0  0  0  0999 V2000
   46.9040   32.0460   45.2160 C   0  0  0  0  0  0  0  0  0  0  0  0
   47.6860   31.0200   44.7140 C   0  0  0  0  0  0  0  0  0  0  0  0
   48.0180   29.8970   45.4360 C   0  0  0  0  0  0  0  0  0  0  0  0
   47.5880   29.7280   46.7170 C   0  0  0  0  0  0  0  0  0  0  0  0
   46.8240   30.7100   47.2350 C   0  0  0  0  0  0  0  0  0  0  0  0
   46.3820   30.5360   48.5470 C   0  0  0  0  0  0  0  0  0  0  0  0
   45.6030   31.4850   49.1480 C   0  0  0  0  0  0  0  0  0  0  0  0
   45.2600   32.6170   48.4380 C   0  0  0  0  0  0  0  0  0  0  0  0
   45.7290   32.7250   47.1520 C   0  0  0  0  0  0  0  0  0  0  0  0
   46.5080   31.8150   46.4940 C   0  0  0  0  0  0  0  0  0  0  0  0
   45.3910   35.0540   43.6110 C   0  0  0  0  0  0  0  0  0  0  0  0
   46.3870   35.3620   42.6650 C   0  0  0  0  0  0  0  0  0  0  0  0
   47.5040   34.5210   42.6440 C   0  0  0  0  0  0  0  0  0  0  0  0
   47.5050   33.5120   43.5280 N   0  0  0  0  0  0  0  0  0  0  0  0
   46.5630   33.2090   44.4330 C   0  0  0  0  0  0  0  0  0  0  0  0
   45.5490   34.0270   44.4050 N   0  0  0  0  0  0  0  0  0  0  0  0
   48.6320   34.7440   41.6830 C   0  0  0  0  0  0  0  0  0  0  0  0
   49.7490   33.7680   41.9250 C   0  0  0  0  0  0  0  0  0  0  0  0
   48.1110   34.5050   40.2810 C   0  0  0  0  0  0  0  0  0  0  0  0
   49.1680   36.1500   41.7600 C   0  0  0  0  0  0  0  0  0  0  0  0
   48.0616   31.1072   43.6838 H   0  0  0  0  0  0  0  0  0  0  0  0
   48.6426   29.1209   44.9697 H   0  0  0  0  0  0  0  0  0  0  0  0
   47.8514   28.8335   47.3006 H   0  0  0  0  0  0  0  0  0  0  0  0
   46.6625   29.6285   49.1018 H   0  0  0  0  0  0  0  0  0  0  0  0
   45.2548   31.3481   50.1824 H   0  0  0  0  0  0  0  0  0  0  0  0
   44.6344   33.4035   48.8852 H   0  0  0  0  0  0  0  0  0  0  0  0
   45.4504   33.6329   46.5970 H   0  0  0  0  0  0  0  0  0  0  0  0
   44.4849   35.6737   43.6819 H   0  0  0  0  0  0  0  0  0  0  0  0
   46.2918   36.2173   41.9799 H   0  0  0  0  0  0  0  0  0  0  0  0
   49.8958   33.6398   43.0076 H   0  0  0  0  0  0  0  0  0  0  0  0
   49.4934   32.7986   41.4723 H   0  0  0  0  0  0  0  0  0  0  0  0
   50.6753   34.1513   41.4723 H   0  0  0  0  0  0  0  0  0  0  0  0
   47.1123   34.0469   40.3341 H   0  0  0  0  0  0  0  0  0  0  0  0
   48.0467   35.4636   39.7454 H   0  0  0  0  0  0  0  0  0  0  0  0
   48.7956   33.8309   39.7454 H   0  0  0  0  0  0  0  0  0  0  0  0
   49.2796   36.4426   42.8145 H   0  0  0  0  0  0  0  0  0  0  0  0
   50.1471   36.1970   41.2609 H   0  0  0  0  0  0  0  0  0  0  0  0
   48.4687   36.8369   41.2609 H   0  0  0  0  0  0  0  0  0  0  0  0
  1 10  1  0
  2  1  2  0
  2  3  1  0
  3  4  2  0
  4  5  1  0
  5  6  2  0
  6  7  1  0
  8  7  2  0
  9  8  1  0
 10  9  2  0
 10  5  1  0
 11 16  2  0
 12 11  1  0
 13 12  2  0
 13 14  1  0
 14 15  2  0
 15  1  1  0
 16 15  1  0
 17 20  1  0
 17 18  1  0
 17 13  1  0
 19 17  1  0
  2 21  1  0
  3 22  1  0
  4 23  1  0
  6 24  1  0
  7 25  1  0
  8 26  1  0
  9 27  1  0
 11 28  1  0
 12 29  1  0
 18 30  1  0
 18 31  1  0
 18 32  1  0
 19 33  1  0
 19 34  1  0
 19 35  1  0
 20 36  1  0
 20 37  1  0
 20 38  1  0
M  ISO  8  21  14  22  14  23  14  24  14  25  14  26  14  27  14  28  14
M  ISO  8  29  14  30   8  31   8  32   8  33   8  34   8  35   8  36   8
M  ISO  2  37   8  38   8
M  END
>  <minimizedAffinity>  (1) 
-6.25192976

>  <minimizedRMSD>  (1) 
1.43914068

$$$$
