
     RDKit          3D

 24 26  0  0  0  0  0  0  0  0999 V2000
   46.5340   32.5610   45.5180 C   0  0  0  0  0  0  0  0  0  0  0  0
   47.4510   31.9470   44.7340 N   0  0  0  0  0  0  0  0  0  0  0  0
   47.8300   32.3750   43.5290 C   0  0  0  0  0  0  0  0  0  0  0  0
   47.3120   33.4820   42.9920 N   0  0  0  0  0  0  0  0  0  0  0  0
   46.3980   34.1630   43.6870 C   0  0  0  0  0  0  0  0  0  0  0  0
   45.8810   35.3030   43.1060 C   0  0  0  0  0  0  0  0  0  0  0  0
   44.9340   36.0490   43.7740 C   0  0  0  0  0  0  0  0  0  0  0  0
   44.5330   35.6030   45.0410 C   0  0  0  0  0  0  0  0  0  0  0  0
   45.0930   34.4560   45.5570 C   0  0  0  0  0  0  0  0  0  0  0  0
   46.0270   33.6980   44.9270 C   0  0  0  0  0  0  0  0  0  0  0  0
   45.0660   30.2460   47.8350 C   0  0  0  0  0  0  0  0  0  0  0  0
   45.2040   30.7690   49.1230 C   0  0  0  0  0  0  0  0  0  0  0  0
   45.8460   31.9980   49.2010 C   0  0  0  0  0  0  0  0  0  0  0  0
   46.2620   32.5550   48.0580 N   0  0  0  0  0  0  0  0  0  0  0  0
   46.1380   32.0750   46.8290 C   0  0  0  0  0  0  0  0  0  0  0  0
   45.5230   30.8990   46.7760 N   0  0  0  0  0  0  0  0  0  0  0  0
   48.5841   31.8047   42.9667 H   0  0  0  0  0  0  0  0  0  0  0  0
   46.2249   35.6164   42.1093 H   0  0  0  0  0  0  0  0  0  0  0  0
   44.5086   36.9607   43.3293 H   0  0  0  0  0  0  0  0  0  0  0  0
   43.7803   36.1625   45.6158 H   0  0  0  0  0  0  0  0  0  0  0  0
   44.7592   34.1296   46.5530 H   0  0  0  0  0  0  0  0  0  0  0  0
   44.5690   29.2744   47.6972 H   0  0  0  0  0  0  0  0  0  0  0  0
   44.8299   30.2436   50.0141 H   0  0  0  0  0  0  0  0  0  0  0  0
   46.0068   32.4960   50.1686 H   0  0  0  0  0  0  0  0  0  0  0  0
  1 15  1  0
  2  1  2  0
  3  2  1  0
  4  3  2  0
  4  5  1  0
  5 10  2  0
  6  5  1  0
  6  7  2  0
  7  8  1  0
  8  9  2  0
 10  1  1  0
 10  9  1  0
 11 12  2  0
 12 13  1  0
 14 13  2  0
 15 14  1  0
 16 15  2  0
 16 11  1  0
  3 17  1  0
  6 18  1  0
  7 19  1  0
  8 20  1  0
  9 21  1  0
 11 22  1  0
 12 23  1  0
 13 24  1  0
M  ISO  8  17  14  18  14  19  14  20  14  21  14  22  14  23  14  24  14
M  END
>  <minimizedAffinity>  (1) 
-5.44170856

>  <minimizedRMSD>  (1) 
5.5934329

$$$$
