
     RDKit          3D

 42 45  0  0  0  0  0  0  0  0999 V2000
   46.4840   32.1670   45.7210 C   0  0  0  0  0  0  0  0  0  0  0  0
   47.3540   31.3250   45.0620 C   0  0  0  0  0  0  0  0  0  0  0  0
   47.8440   30.1590   45.5940 C   0  0  0  0  0  0  0  0  0  0  0  0
   47.4800   29.7630   46.8440 C   0  0  0  0  0  0  0  0  0  0  0  0
   46.6210   30.5650   47.5350 C   0  0  0  0  0  0  0  0  0  0  0  0
   46.2530   30.1550   48.8130 C   0  0  0  0  0  0  0  0  0  0  0  0
   45.3940   30.9120   49.5590 C   0  0  0  0  0  0  0  0  0  0  0  0
   44.9010   32.0880   49.0250 C   0  0  0  0  0  0  0  0  0  0  0  0
   45.3060   32.4290   47.7610 C   0  0  0  0  0  0  0  0  0  0  0  0
   46.1580   31.7180   46.9660 C   0  0  0  0  0  0  0  0  0  0  0  0
   44.7940   35.3710   44.8140 C   0  0  0  0  0  0  0  0  0  0  0  0
   45.3260   35.5780   43.5260 C   0  0  0  0  0  0  0  0  0  0  0  0
   46.2250   34.6150   43.0550 C   0  0  0  0  0  0  0  0  0  0  0  0
   46.4830   33.5920   43.8880 N   0  0  0  0  0  0  0  0  0  0  0  0
   45.9820   33.3820   45.1230 C   0  0  0  0  0  0  0  0  0  0  0  0
   45.1540   34.3110   45.5030 N   0  0  0  0  0  0  0  0  0  0  0  0
   46.8390   34.7480   41.7080 C   0  0  0  0  0  0  0  0  0  0  0  0
   46.9740   33.4050   41.0230 C   0  0  0  0  0  0  0  0  0  0  0  0
   47.0190   33.7060   39.5210 C   0  0  0  0  0  0  0  0  0  0  0  0
   48.1410   34.6700   39.3030 C   0  0  0  0  0  0  0  0  0  0  0  0
   48.9650   34.9090   40.5470 C   0  0  0  0  0  0  0  0  0  0  0  0
   48.1270   35.4920   41.6820 C   0  0  0  0  0  0  0  0  0  0  0  0
   47.6750   31.6049   44.0478 H   0  0  0  0  0  0  0  0  0  0  0  0
   48.5366   29.5394   45.0054 H   0  0  0  0  0  0  0  0  0  0  0  0
   47.8649   28.8298   47.2810 H   0  0  0  0  0  0  0  0  0  0  0  0
   46.6553   29.2175   49.2244 H   0  0  0  0  0  0  0  0  0  0  0  0
   45.0993   30.5906   50.5689 H   0  0  0  0  0  0  0  0  0  0  0  0
   44.2091   32.7265   49.5938 H   0  0  0  0  0  0  0  0  0  0  0  0
   44.9058   33.3663   47.3470 H   0  0  0  0  0  0  0  0  0  0  0  0
   44.0814   36.0923   45.2406 H   0  0  0  0  0  0  0  0  0  0  0  0
   45.0483   36.4534   42.9206 H   0  0  0  0  0  0  0  0  0  0  0  0
   46.1322   35.3697   41.1389 H   0  0  0  0  0  0  0  0  0  0  0  0
   47.9000   32.9039   41.3413 H   0  0  0  0  0  0  0  0  0  0  0  0
   46.1396   32.7348   41.2771 H   0  0  0  0  0  0  0  0  0  0  0  0
   47.2007   32.7803   38.9553 H   0  0  0  0  0  0  0  0  0  0  0  0
   46.0642   34.1297   39.1763 H   0  0  0  0  0  0  0  0  0  0  0  0
   48.7995   34.2696   38.5181 H   0  0  0  0  0  0  0  0  0  0  0  0
   47.6954   35.6332   39.0137 H   0  0  0  0  0  0  0  0  0  0  0  0
   49.3951   33.9522   40.8778 H   0  0  0  0  0  0  0  0  0  0  0  0
   49.7541   35.6341   40.2989 H   0  0  0  0  0  0  0  0  0  0  0  0
   48.6528   35.3680   42.6402 H   0  0  0  0  0  0  0  0  0  0  0  0
   47.9529   36.5668   41.5253 H   0  0  0  0  0  0  0  0  0  0  0  0
  1 10  2  0
  2  3  2  0
  2  1  1  0
  3  4  1  0
  4  5  2  0
  5  6  1  0
  6  7  2  0
  8  7  1  0
  9  8  2  0
 10  5  1  0
 10  9  1  0
 11 16  2  0
 12 11  1  0
 13 12  2  0
 13 14  1  0
 14 15  2  0
 15 16  1  0
 15  1  1  0
 17 13  1  0
 18 17  1  0
 19 18  1  0
 20 19  1  0
 20 21  1  0
 21 22  1  0
 22 17  1  0
  2 23  1  0
  3 24  1  0
  4 25  1  0
  6 26  1  0
  7 27  1  0
  8 28  1  0
  9 29  1  0
 11 30  1  0
 12 31  1  0
 17 32  1  0
 18 33  1  0
 18 34  1  0
 19 35  1  0
 19 36  1  0
 20 37  1  0
 20 38  1  0
 21 39  1  0
 21 40  1  0
 22 41  1  0
 22 42  1  0
M  ISO  8  23  14  24  14  25  14  26  14  27  14  28  14  29  14  30  14
M  ISO  8  31  14  32  13  33  13  34  13  35  13  36  13  37  13  38  13
M  ISO  4  39  13  40  13  41  13  42  13
M  END
>  <minimizedAffinity>  (1) 
-6.09174538

>  <minimizedRMSD>  (1) 
1.14857268

$$$$
