
     RDKit          3D

 29 31  0  0  0  0  0  0  0  0999 V2000
   47.0210   32.0730   44.9890 C   0  0  0  0  0  0  0  0  0  0  0  0
   47.7990   31.0880   44.4370 C   0  0  0  0  0  0  0  0  0  0  0  0
   48.2060   29.9670   45.1170 C   0  0  0  0  0  0  0  0  0  0  0  0
   47.8480   29.7670   46.4140 C   0  0  0  0  0  0  0  0  0  0  0  0
   47.0810   30.7150   46.9970 C   0  0  0  0  0  0  0  0  0  0  0  0
   46.7110   30.5170   48.3230 C   0  0  0  0  0  0  0  0  0  0  0  0
   45.9350   31.4390   48.9690 C   0  0  0  0  0  0  0  0  0  0  0  0
   45.5190   32.5720   48.2970 C   0  0  0  0  0  0  0  0  0  0  0  0
   45.9190   32.7040   46.9940 C   0  0  0  0  0  0  0  0  0  0  0  0
   46.6910   31.8230   46.2880 C   0  0  0  0  0  0  0  0  0  0  0  0
   45.3090   35.0210   43.4490 C   0  0  0  0  0  0  0  0  0  0  0  0
   46.3130   35.4570   42.5630 C   0  0  0  0  0  0  0  0  0  0  0  0
   47.4990   34.7150   42.5580 C   0  0  0  0  0  0  0  0  0  0  0  0
   47.5550   33.6680   43.3960 N   0  0  0  0  0  0  0  0  0  0  0  0
   46.5960   33.2450   44.2470 C   0  0  0  0  0  0  0  0  0  0  0  0
   45.5150   33.9730   44.2100 N   0  0  0  0  0  0  0  0  0  0  0  0
   48.6080   35.1100   41.6510 C   0  0  0  0  0  0  0  0  0  0  0  0
   48.1550   35.1160   40.3340 F   0  0  0  0  0  0  0  0  0  0  0  0
   49.6950   34.2820   41.8350 F   0  0  0  0  0  0  0  0  0  0  0  0
   48.9920   36.4290   41.9100 F   0  0  0  0  0  0  0  0  0  0  0  0
   48.1150   31.2026   43.3896 H   0  0  0  0  0  0  0  0  0  0  0  0
   48.8306   29.2197   44.6057 H   0  0  0  0  0  0  0  0  0  0  0  0
   48.1693   28.8711   46.9654 H   0  0  0  0  0  0  0  0  0  0  0  0
   47.0445   29.6138   48.8549 H   0  0  0  0  0  0  0  0  0  0  0  0
   45.6437   31.2795   50.0177 H   0  0  0  0  0  0  0  0  0  0  0  0
   44.8945   33.3339   48.7865 H   0  0  0  0  0  0  0  0  0  0  0  0
   45.5866   33.6079   46.4626 H   0  0  0  0  0  0  0  0  0  0  0  0
   44.3515   35.5597   43.5028 H   0  0  0  0  0  0  0  0  0  0  0  0
   46.1726   36.3320   41.9113 H   0  0  0  0  0  0  0  0  0  0  0  0
  1 10  1  0
  2  1  2  0
  2  3  1  0
  3  4  2  0
  4  5  1  0
  5  6  2  0
  6  7  1  0
  8  7  2  0
  9  8  1  0
 10  9  2  0
 10  5  1  0
 11 16  2  0
 12 11  1  0
 13 12  2  0
 13 14  1  0
 14 15  2  0
 15  1  1  0
 16 15  1  0
 17 19  1  0
 17 20  1  0
 17 13  1  0
 18 17  1  0
  2 21  1  0
  3 22  1  0
  4 23  1  0
  6 24  1  0
  7 25  1  0
  8 26  1  0
  9 27  1  0
 11 28  1  0
 12 29  1  0
M  ISO  8  21  14  22  14  23  14  24  14  25  14  26  14  27  14  28  14
M  ISO  1  29  14
M  END
>  <minimizedAffinity>  (1) 
-6.0245223

>  <minimizedRMSD>  (1) 
1.36820507

$$$$
