
     RDKit          3D

 33 36  0  0  0  0  0  0  0  0999 V2000
   46.6990   32.2700   45.2050 C   0  0  0  0  0  0  0  0  0  0  0  0
   47.4800   31.3550   44.5240 C   0  0  0  0  0  0  0  0  0  0  0  0
   47.9640   30.1930   45.0780 C   0  0  0  0  0  0  0  0  0  0  0  0
   47.6860   29.8760   46.3710 C   0  0  0  0  0  0  0  0  0  0  0  0
   46.9270   30.7400   47.0770 C   0  0  0  0  0  0  0  0  0  0  0  0
   46.6450   30.4110   48.3980 C   0  0  0  0  0  0  0  0  0  0  0  0
   45.8810   31.2420   49.1710 C   0  0  0  0  0  0  0  0  0  0  0  0
   45.3910   32.4120   48.6250 C   0  0  0  0  0  0  0  0  0  0  0  0
   45.7050   32.6780   47.3130 C   0  0  0  0  0  0  0  0  0  0  0  0
   46.4610   31.8900   46.4900 C   0  0  0  0  0  0  0  0  0  0  0  0
   44.9290   35.3900   44.1890 C   0  0  0  0  0  0  0  0  0  0  0  0
   45.6280   35.7080   43.0080 C   0  0  0  0  0  0  0  0  0  0  0  0
   46.6580   34.8320   42.6450 C   0  0  0  0  0  0  0  0  0  0  0  0
   46.8710   33.7820   43.4570 N   0  0  0  0  0  0  0  0  0  0  0  0
   46.2030   33.4740   44.5890 C   0  0  0  0  0  0  0  0  0  0  0  0
   45.2570   34.3260   44.8760 N   0  0  0  0  0  0  0  0  0  0  0  0
   47.4810   35.0480   41.4170 C   0  0  0  0  0  0  0  0  0  0  0  0
   48.7670   34.3080   41.3080 C   0  0  0  0  0  0  0  0  0  0  0  0
   48.8180   35.7250   41.6980 C   0  0  0  0  0  0  0  0  0  0  0  0
   47.7297   31.5695   43.4744 H   0  0  0  0  0  0  0  0  0  0  0  0
   48.5809   29.5146   44.4704 H   0  0  0  0  0  0  0  0  0  0  0  0
   48.0661   28.9489   46.8249 H   0  0  0  0  0  0  0  0  0  0  0  0
   47.0387   29.4766   48.8244 H   0  0  0  0  0  0  0  0  0  0  0  0
   45.6594   30.9810   50.2163 H   0  0  0  0  0  0  0  0  0  0  0  0
   44.7737   33.1041   49.2165 H   0  0  0  0  0  0  0  0  0  0  0  0
   45.3113   33.6119   46.8855 H   0  0  0  0  0  0  0  0  0  0  0  0
   44.1079   36.0359   44.5334 H   0  0  0  0  0  0  0  0  0  0  0  0
   45.3788   36.5939   42.4055 H   0  0  0  0  0  0  0  0  0  0  0  0
   46.6226   35.1908   40.7442 H   0  0  0  0  0  0  0  0  0  0  0  0
   49.0121   33.5310   42.0470 H   0  0  0  0  0  0  0  0  0  0  0  0
   49.2440   33.7149   40.5139 H   0  0  0  0  0  0  0  0  0  0  0  0
   49.2138   36.4756   40.9980 H   0  0  0  0  0  0  0  0  0  0  0  0
   49.2461   36.2878   42.5406 H   0  0  0  0  0  0  0  0  0  0  0  0
  1 10  2  0
  2  3  2  0
  2  1  1  0
  3  4  1  0
  4  5  2  0
  5  6  1  0
  6  7  2  0
  8  7  1  0
  9  8  2  0
 10  5  1  0
 10  9  1  0
 11 16  2  0
 12 11  1  0
 13 12  2  0
 13 14  1  0
 14 15  2  0
 15 16  1  0
 15  1  1  0
 17 19  1  0
 17 13  1  0
 18 17  1  0
 18 19  1  0
  2 20  1  0
  3 21  1  0
  4 22  1  0
  6 23  1  0
  7 24  1  0
  8 25  1  0
  9 26  1  0
 11 27  1  0
 12 28  1  0
 17 29  1  0
 18 30  1  0
 18 31  1  0
 19 32  1  0
 19 33  1  0
M  ISO  8  20  14  21  14  22  14  23  14  24  14  25  14  26  14  27  14
M  ISO  6  28  14  29  13  30  13  31  13  32  13  33  13
M  END
>  <minimizedAffinity>  (1) 
-6.00185633

>  <minimizedRMSD>  (1) 
0.680585623

$$$$
