
     RDKit          3D

 35 37  0  0  0  0  0  0  0  0999 V2000
   46.8860   32.0980   45.0620 C   0  0  0  0  0  0  0  0  0  0  0  0
   47.6880   31.1380   44.4680 C   0  0  0  0  0  0  0  0  0  0  0  0
   48.1760   30.0330   45.1340 C   0  0  0  0  0  0  0  0  0  0  0  0
   47.8750   29.8340   46.4570 C   0  0  0  0  0  0  0  0  0  0  0  0
   47.0970   30.7520   47.0640 C   0  0  0  0  0  0  0  0  0  0  0  0
   46.8070   30.5270   48.4050 C   0  0  0  0  0  0  0  0  0  0  0  0
   46.0120   31.4280   49.0940 C   0  0  0  0  0  0  0  0  0  0  0  0
   45.5180   32.5460   48.4200 C   0  0  0  0  0  0  0  0  0  0  0  0
   45.8510   32.6940   47.0980 C   0  0  0  0  0  0  0  0  0  0  0  0
   46.6300   31.8380   46.3690 C   0  0  0  0  0  0  0  0  0  0  0  0
   44.9410   34.8950   43.5210 C   0  0  0  0  0  0  0  0  0  0  0  0
   45.9350   35.4710   42.7050 C   0  0  0  0  0  0  0  0  0  0  0  0
   47.1980   34.8700   42.7350 C   0  0  0  0  0  0  0  0  0  0  0  0
   47.3360   33.7980   43.5440 N   0  0  0  0  0  0  0  0  0  0  0  0
   46.3880   33.2410   44.3280 C   0  0  0  0  0  0  0  0  0  0  0  0
   45.2430   33.8540   44.2480 N   0  0  0  0  0  0  0  0  0  0  0  0
   48.3120   35.4040   41.9080 C   0  0  0  0  0  0  0  0  0  0  0  0
   49.6410   34.9690   42.4730 C   0  0  0  0  0  0  0  0  0  0  0  0
   48.1970   34.7410   40.5400 C   0  0  0  0  0  0  0  0  0  0  0  0
   47.9502   31.2635   43.4071 H   0  0  0  0  0  0  0  0  0  0  0  0
   48.8094   29.3082   44.6015 H   0  0  0  0  0  0  0  0  0  0  0  0
   48.2545   28.9575   47.0027 H   0  0  0  0  0  0  0  0  0  0  0  0
   47.2066   29.6386   48.9159 H   0  0  0  0  0  0  0  0  0  0  0  0
   45.7737   31.2651   50.1555 H   0  0  0  0  0  0  0  0  0  0  0  0
   44.8828   33.2837   48.9322 H   0  0  0  0  0  0  0  0  0  0  0  0
   45.4568   33.5794   46.5778 H   0  0  0  0  0  0  0  0  0  0  0  0
   43.9253   35.3166   43.5449 H   0  0  0  0  0  0  0  0  0  0  0  0
   45.7282   36.3493   42.0759 H   0  0  0  0  0  0  0  0  0  0  0  0
   48.2548   36.5020   41.8739 H   0  0  0  0  0  0  0  0  0  0  0  0
   49.5949   34.9841   43.5719 H   0  0  0  0  0  0  0  0  0  0  0  0
   49.8693   33.9492   42.1296 H   0  0  0  0  0  0  0  0  0  0  0  0
   50.4281   35.6564   42.1296 H   0  0  0  0  0  0  0  0  0  0  0  0
   48.0103   33.6646   40.6687 H   0  0  0  0  0  0  0  0  0  0  0  0
   47.3639   35.1935   39.9821 H   0  0  0  0  0  0  0  0  0  0  0  0
   49.1338   34.8865   39.9821 H   0  0  0  0  0  0  0  0  0  0  0  0
  1 10  1  0
  2  1  2  0
  2  3  1  0
  3  4  2  0
  4  5  1  0
  5  6  1  0
  6  7  2  0
  8  7  1  0
  9  8  2  0
 10  5  2  0
 10  9  1  0
 11 16  2  0
 12 13  2  0
 12 11  1  0
 13 14  1  0
 14 15  2  0
 15  1  1  0
 16 15  1  0
 17 18  1  0
 17 13  1  0
 19 17  1  0
  2 20  1  0
  3 21  1  0
  4 22  1  0
  6 23  1  0
  7 24  1  0
  8 25  1  0
  9 26  1  0
 11 27  1  0
 12 28  1  0
 17 29  1  0
 18 30  1  0
 18 31  1  0
 18 32  1  0
 19 33  1  0
 19 34  1  0
 19 35  1  0
M  ISO  8  20  14  21  14  22  14  23  14  24  14  25  14  26  14  27  14
M  ISO  8  28  14  29   8  30   8  31   8  32   8  33   8  34   8  35   8
M  END
>  <minimizedAffinity>  (1) 
-5.98965073

>  <minimizedRMSD>  (1) 
1.08841944

$$$$
