
     RDKit          3D

 33 36  0  0  0  0  0  0  0  0999 V2000
   46.7610   32.0890   45.2330 C   0  0  0  0  0  0  0  0  0  0  0  0
   47.5360   31.1320   44.6570 C   0  0  0  0  0  0  0  0  0  0  0  0
   47.9700   29.9910   45.2980 C   0  0  0  0  0  0  0  0  0  0  0  0
   47.6190   29.7680   46.6010 C   0  0  0  0  0  0  0  0  0  0  0  0
   46.8560   30.6770   47.2190 C   0  0  0  0  0  0  0  0  0  0  0  0
   46.5020   30.4570   48.5410 C   0  0  0  0  0  0  0  0  0  0  0  0
   45.7400   31.3320   49.2340 C   0  0  0  0  0  0  0  0  0  0  0  0
   45.2980   32.4960   48.5840 C   0  0  0  0  0  0  0  0  0  0  0  0
   45.6720   32.6790   47.2650 C   0  0  0  0  0  0  0  0  0  0  0  0
   46.4400   31.8230   46.5250 C   0  0  0  0  0  0  0  0  0  0  0  0
   45.2200   35.2840   44.0030 C   0  0  0  0  0  0  0  0  0  0  0  0
   45.8350   35.3690   42.7300 C   0  0  0  0  0  0  0  0  0  0  0  0
   46.6770   34.3590   42.4210 C   0  0  0  0  0  0  0  0  0  0  0  0
   46.8790   33.3680   43.3140 N   0  0  0  0  0  0  0  0  0  0  0  0
   46.3160   33.2650   44.5180 C   0  0  0  0  0  0  0  0  0  0  0  0
   45.5280   34.2490   44.7510 N   0  0  0  0  0  0  0  0  0  0  0  0
   47.2840   34.4100   41.1210 C   0  0  0  0  0  0  0  0  0  0  0  0
   46.6590   33.7030   40.0710 C   0  0  0  0  0  0  0  0  0  0  0  0
   47.3560   33.8250   38.9530 N   0  0  0  0  0  0  0  0  0  0  0  0
   48.4380   34.5810   39.1670 C   0  0  0  0  0  0  0  0  0  0  0  0
   48.3250   34.8930   40.4750 N   0  0  0  0  0  0  0  0  0  0  0  0
   47.8371   31.2778   43.6091 H   0  0  0  0  0  0  0  0  0  0  0  0
   48.5967   29.2622   44.7630 H   0  0  0  0  0  0  0  0  0  0  0  0
   47.9558   28.8632   47.1282 H   0  0  0  0  0  0  0  0  0  0  0  0
   46.8520   29.5421   49.0414 H   0  0  0  0  0  0  0  0  0  0  0  0
   45.4721   31.1371   50.2829 H   0  0  0  0  0  0  0  0  0  0  0  0
   44.6753   33.2372   49.1064 H   0  0  0  0  0  0  0  0  0  0  0  0
   45.3204   33.5946   46.7669 H   0  0  0  0  0  0  0  0  0  0  0  0
   44.5140   36.0525   44.3508 H   0  0  0  0  0  0  0  0  0  0  0  0
   45.6399   36.2022   42.0388 H   0  0  0  0  0  0  0  0  0  0  0  0
   45.7243   33.1313   40.1686 H   0  0  0  0  0  0  0  0  0  0  0  0
   49.2234   34.8749   38.4552 H   0  0  0  0  0  0  0  0  0  0  0  0
   49.0234   35.4840   40.9481 H   0  0  0  0  0  0  0  0  0  0  0  0
  1 10  1  0
  2  1  2  0
  2  3  1  0
  3  4  2  0
  4  5  1  0
  5  6  1  0
  6  7  2  0
  8  7  1  0
  9  8  2  0
 10  5  2  0
 10  9  1  0
 11 16  2  0
 12 11  1  0
 13 12  2  0
 13 14  1  0
 14 15  2  0
 15 16  1  0
 15  1  1  0
 17 13  1  0
 18 17  2  0
 19 20  2  0
 19 18  1  0
 20 21  1  0
 21 17  1  0
  2 22  1  0
  3 23  1  0
  4 24  1  0
  6 25  1  0
  7 26  1  0
  8 27  1  0
  9 28  1  0
 11 29  1  0
 12 30  1  0
 18 31  1  0
 20 32  1  0
 21 33  1  0
M  ISO  8  22  14  23  14  24  14  25  14  26  14  27  14  28  14  29  14
M  ISO  4  30  14  31  14  32  14  33   9
M  END
>  <minimizedAffinity>  (1) 
-5.61580086

>  <minimizedRMSD>  (1) 
1.25302303

$$$$
