
     RDKit          3D

 35 38  0  0  0  0  0  0  0  0999 V2000
   47.1350   31.0780   47.3970 C   0  0  0  0  0  0  0  0  0  0  0  0
   46.4070   31.2040   48.5660 C   0  0  0  0  0  0  0  0  0  0  0  0
   45.4300   32.1610   48.7590 C   0  0  0  0  0  0  0  0  0  0  0  0
   45.1260   33.0620   47.7630 C   0  0  0  0  0  0  0  0  0  0  0  0
   45.8210   32.9620   46.6110 C   0  0  0  0  0  0  0  0  0  0  0  0
   45.5100   33.8750   45.6060 C   0  0  0  0  0  0  0  0  0  0  0  0
   46.1770   33.8340   44.4060 C   0  0  0  0  0  0  0  0  0  0  0  0
   47.1570   32.8760   44.2100 C   0  0  0  0  0  0  0  0  0  0  0  0
   47.4100   32.0090   45.2460 C   0  0  0  0  0  0  0  0  0  0  0  0
   46.7850   31.9960   46.4610 C   0  0  0  0  0  0  0  0  0  0  0  0
   49.5300   28.4630   46.2360 C   0  0  0  0  0  0  0  0  0  0  0  0
   50.1460   28.1220   47.4560 C   0  0  0  0  0  0  0  0  0  0  0  0
   49.7050   28.8070   48.5920 C   0  0  0  0  0  0  0  0  0  0  0  0
   48.7340   29.7260   48.4010 N   0  0  0  0  0  0  0  0  0  0  0  0
   48.1390   30.0580   47.2370 C   0  0  0  0  0  0  0  0  0  0  0  0
   48.5990   29.3820   46.2230 N   0  0  0  0  0  0  0  0  0  0  0  0
   50.2810   28.5240   49.9000 C   0  0  0  0  0  0  0  0  0  0  0  0
   50.2770   29.5290   50.8440 C   0  0  0  0  0  0  0  0  0  0  0  0
   50.8420   29.1920   52.0690 C   0  0  0  0  0  0  0  0  0  0  0  0
   51.3450   27.9290   52.2480 C   0  0  0  0  0  0  0  0  0  0  0  0
   51.3390   26.9270   51.2790 C   0  0  0  0  0  0  0  0  0  0  0  0
   50.7780   27.2870   50.0870 N   0  0  0  0  0  0  0  0  0  0  0  0
   46.6177   30.5034   49.3875 H   0  0  0  0  0  0  0  0  0  0  0  0
   44.8901   32.2038   49.7165 H   0  0  0  0  0  0  0  0  0  0  0  0
   44.3504   33.8297   47.9006 H   0  0  0  0  0  0  0  0  0  0  0  0
   44.7284   34.6306   45.7738 H   0  0  0  0  0  0  0  0  0  0  0  0
   45.9354   34.5538   43.6101 H   0  0  0  0  0  0  0  0  0  0  0  0
   47.7115   32.8112   43.2622 H   0  0  0  0  0  0  0  0  0  0  0  0
   48.1912   31.2524   45.0811 H   0  0  0  0  0  0  0  0  0  0  0  0
   49.8288   27.9616   45.3036 H   0  0  0  0  0  0  0  0  0  0  0  0
   50.9336   27.3561   47.5120 H   0  0  0  0  0  0  0  0  0  0  0  0
   49.8571   30.5255   50.6425 H   0  0  0  0  0  0  0  0  0  0  0  0
   50.8849   29.9293   52.8842 H   0  0  0  0  0  0  0  0  0  0  0  0
   51.7851   27.6892   53.2272 H   0  0  0  0  0  0  0  0  0  0  0  0
   51.7538   25.9245   51.4603 H   0  0  0  0  0  0  0  0  0  0  0  0
  1  2  2  0
  2  3  1  0
  4  3  2  0
  5  4  1  0
  6  5  2  0
  7  6  1  0
  8  7  2  0
  8  9  1  0
  9 10  2  0
 10  5  1  0
 10  1  1  0
 11 12  2  0
 12 13  1  0
 13 17  1  0
 14 13  2  0
 15  1  1  0
 15 14  1  0
 16 11  1  0
 16 15  2  0
 17 22  1  0
 17 18  2  0
 18 19  1  0
 19 20  2  0
 21 20  1  0
 22 21  2  0
  2 23  1  0
  3 24  1  0
  4 25  1  0
  6 26  1  0
  7 27  1  0
  8 28  1  0
  9 29  1  0
 11 30  1  0
 12 31  1  0
 18 32  1  0
 19 33  1  0
 20 34  1  0
 21 35  1  0
M  ISO  8  23  14  24  14  25  14  26  14  27  14  28  14  29  14  30  14
M  ISO  5  31  14  32  14  33  14  34  14  35  14
M  END
>  <minimizedAffinity>  (1) 
-5.35459614

>  <minimizedRMSD>  (1) 
8.74952793

$$$$
