
     RDKit          3D

 28 30  0  0  1  0  0  0  0  0999 V2000
   46.4550   33.2220   40.9300 C   0  0  1  0  0  0  0  0  0  0  0  0
   47.1040   34.5580   41.1920 C   0  0  0  0  0  0  0  0  0  0  0  0
   47.3220   33.4630   42.1210 C   0  0  1  0  0  0  0  0  0  0  0  0
   42.8410   34.0720   40.5390 C   0  0  0  0  0  0  0  0  0  0  0  0
   44.2630   34.1600   40.4350 C   0  0  0  0  0  0  0  0  0  0  0  0
   44.9980   33.1410   41.0310 C   0  0  0  0  0  0  0  0  0  0  0  0
   44.3430   32.1290   41.6730 N   0  0  0  0  0  0  0  0  0  0  0  0
   43.0100   32.0740   41.7540 C   0  0  0  0  0  0  0  0  0  0  0  0
   42.2470   33.0390   41.1920 N   0  0  0  0  0  0  0  0  0  0  0  0
   46.7860   33.4670   43.5090 C   0  0  0  0  0  0  0  0  0  0  0  0
   47.0970   32.5740   44.5260 C   0  0  0  0  0  0  0  0  0  0  0  0
   46.5330   32.7230   45.7730 C   0  0  0  0  0  0  0  0  0  0  0  0
   45.6830   33.7030   46.0670 N   0  0  0  0  0  0  0  0  0  0  0  0
   45.3870   34.5590   45.0870 C   0  0  0  0  0  0  0  0  0  0  0  0
   45.9180   34.4410   43.8650 N   0  0  0  0  0  0  0  0  0  0  0  0
   44.4410   35.6920   45.3280 C   0  0  0  0  0  0  0  0  0  0  0  0
   46.4435   32.4631   40.1338 H   0  0  0  0  0  0  0  0  0  0  0  0
   47.9267   34.9038   40.5488 H   0  0  0  0  0  0  0  0  0  0  0  0
   46.7393   35.5916   41.2846 H   0  0  0  0  0  0  0  0  0  0  0  0
   48.2168   32.9750   42.5348 H   0  0  0  0  0  0  0  0  0  0  0  0
   42.2162   34.8539   40.0826 H   0  0  0  0  0  0  0  0  0  0  0  0
   44.7526   34.9930   39.9092 H   0  0  0  0  0  0  0  0  0  0  0  0
   42.5296   31.2371   42.2820 H   0  0  0  0  0  0  0  0  0  0  0  0
   47.7954   31.7459   44.3348 H   0  0  0  0  0  0  0  0  0  0  0  0
   46.7965   32.0008   46.5598 H   0  0  0  0  0  0  0  0  0  0  0  0
   44.3162   35.8415   46.4106 H   0  0  0  0  0  0  0  0  0  0  0  0
   44.8449   36.6096   44.8753 H   0  0  0  0  0  0  0  0  0  0  0  0
   43.4661   35.4583   44.8753 H   0  0  0  0  0  0  0  0  0  0  0  0
  1  6  1  0
  1  2  1  0
  1  3  1  0
  2  3  1  0
  3 10  1  0
  4  9  2  0
  5  4  1  0
  5  6  2  0
  6  7  1  0
  7  8  2  0
  9  8  1  0
 10 15  1  0
 10 11  2  0
 11 12  1  0
 12 13  2  0
 14 16  1  0
 14 13  1  0
 15 14  2  0
  1 17  1  6
  2 18  1  0
  2 19  1  0
  3 20  1  1
  4 21  1  0
  5 22  1  0
  8 23  1  0
 11 24  1  0
 12 25  1  0
 16 26  1  0
 16 27  1  0
 16 28  1  0
M  ISO  8  17  13  18  13  19  13  20  13  21  14  22  14  23  14  24  14
M  ISO  4  25  14  26   8  27   8  28   8
M  END
>  <minimizedAffinity>  (1) 
-3.96159577

>  <minimizedRMSD>  (1) 
1.22626424

$$$$
