
     RDKit          3D

 44 48  0  0  0  0  0  0  0  0999 V2000
   44.5990   35.7340   44.7300 C   0  0  0  0  0  0  0  0  0  0  0  0
   44.1550   35.5780   43.4070 C   0  0  0  0  0  0  0  0  0  0  0  0
   44.4820   34.4030   42.7880 C   0  0  0  0  0  0  0  0  0  0  0  0
   45.1920   33.5320   43.5160 N   0  0  0  0  0  0  0  0  0  0  0  0
   45.6380   33.6360   44.7840 C   0  0  0  0  0  0  0  0  0  0  0  0
   45.2810   34.7690   45.2750 N   0  0  0  0  0  0  0  0  0  0  0  0
   46.3530   32.4800   45.2290 C   0  0  0  0  0  0  0  0  0  0  0  0
   47.1600   31.7340   44.3910 C   0  0  0  0  0  0  0  0  0  0  0  0
   47.8450   30.6100   44.7880 C   0  0  0  0  0  0  0  0  0  0  0  0
   47.7600   30.1580   46.0780 C   0  0  0  0  0  0  0  0  0  0  0  0
   46.9740   30.8690   46.9330 C   0  0  0  0  0  0  0  0  0  0  0  0
   46.8930   30.4060   48.2430 C   0  0  0  0  0  0  0  0  0  0  0  0
   46.1180   31.0740   49.1730 C   0  0  0  0  0  0  0  0  0  0  0  0
   45.4250   32.2190   48.7570 C   0  0  0  0  0  0  0  0  0  0  0  0
   45.5700   32.5930   47.4430 C   0  0  0  0  0  0  0  0  0  0  0  0
   46.3130   31.9810   46.4890 C   0  0  0  0  0  0  0  0  0  0  0  0
   44.0740   34.1470   41.4070 C   0  0  0  0  0  0  0  0  0  0  0  0
   44.8690   33.2940   40.5640 C   0  0  0  0  0  0  0  0  0  0  0  0
   43.9150   33.3470   38.9580 S   0  0  0  0  0  0  0  0  0  0  0  0
   42.6530   34.4880   39.7300 C   0  0  0  0  0  0  0  0  0  0  0  0
   43.0100   34.6370   40.7850 N   0  0  0  0  0  0  0  0  0  0  0  0
   41.4120   35.1390   39.2000 N   0  0  0  0  0  0  0  0  0  0  0  0
   40.9500   35.5890   37.8960 C   0  0  0  0  0  0  0  0  0  0  0  0
   39.7560   34.6210   37.7400 C   0  0  0  0  0  0  0  0  0  0  0  0
   39.2380   34.5360   39.1870 C   0  0  0  0  0  0  0  0  0  0  0  0
   40.1950   35.4920   39.9400 C   0  0  0  0  0  0  0  0  0  0  0  0
   44.3752   36.6519   45.2934 H   0  0  0  0  0  0  0  0  0  0  0  0
   43.5746   36.3598   42.8953 H   0  0  0  0  0  0  0  0  0  0  0  0
   47.2602   32.0586   43.3448 H   0  0  0  0  0  0  0  0  0  0  0  0
   48.4682   30.0678   44.0616 H   0  0  0  0  0  0  0  0  0  0  0  0
   48.3027   29.2602   46.4089 H   0  0  0  0  0  0  0  0  0  0  0  0
   47.4483   29.5041   48.5400 H   0  0  0  0  0  0  0  0  0  0  0  0
   46.0473   30.7166   50.2109 H   0  0  0  0  0  0  0  0  0  0  0  0
   44.7934   32.7925   49.4514 H   0  0  0  0  0  0  0  0  0  0  0  0
   45.0199   33.4924   47.1292 H   0  0  0  0  0  0  0  0  0  0  0  0
   45.7961   32.7522   40.8026 H   0  0  0  0  0  0  0  0  0  0  0  0
   40.6328   36.6422   37.9078 H   0  0  0  0  0  0  0  0  0  0  0  0
   41.6957   35.5673   37.0876 H   0  0  0  0  0  0  0  0  0  0  0  0
   38.9920   35.0313   37.0633 H   0  0  0  0  0  0  0  0  0  0  0  0
   40.0221   33.6480   37.3013 H   0  0  0  0  0  0  0  0  0  0  0  0
   38.1955   34.8800   39.2572 H   0  0  0  0  0  0  0  0  0  0  0  0
   39.2308   33.5131   39.5916 H   0  0  0  0  0  0  0  0  0  0  0  0
   40.2698   35.2556   41.0117 H   0  0  0  0  0  0  0  0  0  0  0  0
   39.9180   36.5564   39.9563 H   0  0  0  0  0  0  0  0  0  0  0  0
  1  6  2  0
  2  1  1  0
  3  2  2  0
  3  4  1  0
  4  5  2  0
  5  7  1  0
  5  6  1  0
  7 16  2  0
  8  9  2  0
  8  7  1  0
  9 10  1  0
 10 11  2  0
 11 12  1  0
 12 13  2  0
 14 13  1  0
 15 14  2  0
 16 11  1  0
 16 15  1  0
 17  3  1  0
 18 17  2  0
 19 20  1  0
 19 18  1  0
 20 21  2  0
 21 17  1  0
 22 20  1  0
 22 26  1  0
 23 22  1  0
 24 23  1  0
 24 25  1  0
 25 26  1  0
  1 27  1  0
  2 28  1  0
  8 29  1  0
  9 30  1  0
 10 31  1  0
 12 32  1  0
 13 33  1  0
 14 34  1  0
 15 35  1  0
 18 36  1  0
 23 37  1  0
 23 38  1  0
 24 39  1  0
 24 40  1  0
 25 41  1  0
 25 42  1  0
 26 43  1  0
 26 44  1  0
M  ISO  8  27  14  28  14  29  14  30  14  31  14  32  14  33  14  34  14
M  ISO  8  35  14  36  14  37  13  38  13  39  13  40  13  41  13  42  13
M  ISO  2  43  13  44  13
M  END
>  <minimizedAffinity>  (1) 
-7.60922527

>  <minimizedRMSD>  (1) 
1.15102518

$$$$
