
     RDKit          3D

 34 37  0  0  0  0  0  0  0  0999 V2000
   45.8590   32.1260   44.6850 C   0  0  0  0  0  0  0  0  0  0  0  0
   45.7480   31.0270   43.8380 C   0  0  0  0  0  0  0  0  0  0  0  0
   46.2120   29.7730   44.1570 C   0  0  0  0  0  0  0  0  0  0  0  0
   46.8260   29.5370   45.3670 C   0  0  0  0  0  0  0  0  0  0  0  0
   46.9480   30.5900   46.2140 C   0  0  0  0  0  0  0  0  0  0  0  0
   47.5700   30.3470   47.4340 C   0  0  0  0  0  0  0  0  0  0  0  0
   47.7320   31.3650   48.3470 C   0  0  0  0  0  0  0  0  0  0  0  0
   47.2610   32.6280   48.0130 C   0  0  0  0  0  0  0  0  0  0  0  0
   46.6620   32.7840   46.7950 C   0  0  0  0  0  0  0  0  0  0  0  0
   46.4720   31.8240   45.8550 C   0  0  0  0  0  0  0  0  0  0  0  0
   44.7900   35.6860   44.4160 C   0  0  0  0  0  0  0  0  0  0  0  0
   44.2410   35.6870   43.1220 C   0  0  0  0  0  0  0  0  0  0  0  0
   44.2720   34.4990   42.4430 C   0  0  0  0  0  0  0  0  0  0  0  0
   44.8280   33.4600   43.0940 N   0  0  0  0  0  0  0  0  0  0  0  0
   45.3620   33.4170   44.3240 C   0  0  0  0  0  0  0  0  0  0  0  0
   45.2850   34.5770   44.8790 N   0  0  0  0  0  0  0  0  0  0  0  0
   43.7220   34.3900   41.0930 C   0  0  0  0  0  0  0  0  0  0  0  0
   44.2750   33.4550   40.1620 C   0  0  0  0  0  0  0  0  0  0  0  0
   43.2420   33.6940   38.6290 S   0  0  0  0  0  0  0  0  0  0  0  0
   42.2500   35.0290   39.5510 C   0  0  0  0  0  0  0  0  0  0  0  0
   42.7280   35.0530   40.5550 N   0  0  0  0  0  0  0  0  0  0  0  0
   41.1460   35.6610   38.7380 C   0  0  0  0  0  0  0  0  0  0  0  0
   41.3710   36.2090   37.6530 O   0  0  0  0  0  0  0  0  0  0  0  0
   45.2630   31.1696   42.8611 H   0  0  0  0  0  0  0  0  0  0  0  0
   46.0916   28.9492   43.4381 H   0  0  0  0  0  0  0  0  0  0  0  0
   47.2012   28.5383   45.6351 H   0  0  0  0  0  0  0  0  0  0  0  0
   47.9344   29.3365   47.6708 H   0  0  0  0  0  0  0  0  0  0  0  0
   48.2214   31.1827   49.3151 H   0  0  0  0  0  0  0  0  0  0  0  0
   47.3668   33.4753   48.7065 H   0  0  0  0  0  0  0  0  0  0  0  0
   46.2958   33.7922   46.5511 H   0  0  0  0  0  0  0  0  0  0  0  0
   44.8005   36.6032   45.0231 H   0  0  0  0  0  0  0  0  0  0  0  0
   43.8087   36.5958   42.6779 H   0  0  0  0  0  0  0  0  0  0  0  0
   45.1128   32.7588   40.3149 H   0  0  0  0  0  0  0  0  0  0  0  0
   40.1152   35.6331   39.1208 H   0  0  0  0  0  0  0  0  0  0  0  0
  1 10  2  0
  2  3  2  0
  2  1  1  0
  3  4  1  0
  4  5  2  0
  5  6  1  0
  6  7  2  0
  8  7  1  0
  9  8  2  0
 10  5  1  0
 10  9  1  0
 11 16  2  0
 12 11  1  0
 13 14  1  0
 13 12  2  0
 14 15  2  0
 15  1  1  0
 15 16  1  0
 17 13  1  0
 18 17  2  0
 19 20  1  0
 19 18  1  0
 20 21  2  0
 21 17  1  0
 22 20  1  0
 23 22  2  0
  2 24  1  0
  3 25  1  0
  4 26  1  0
  6 27  1  0
  7 28  1  0
  8 29  1  0
  9 30  1  0
 11 31  1  0
 12 32  1  0
 18 33  1  0
 22 34  1  0
M  ISO  8  24  14  25  14  26  14  27  14  28  14  29  14  30  14  31  14
M  ISO  3  32  14  33  14  34   6
M  END
>  <minimizedAffinity>  (1) 
-5.54937553

>  <minimizedRMSD>  (1) 
0.288646877

$$$$
