
     RDKit          3D

 11 11  0  0  0  0  0  0  0  0999 V2000
   44.5190   36.0440   44.5460 C   0  0  0  0  0  0  0  0  0  0  0  0
   45.1780   36.0680   43.2960 C   0  0  0  0  0  0  0  0  0  0  0  0
   46.0840   35.0290   43.0180 C   0  0  0  0  0  0  0  0  0  0  0  0
   46.2600   34.0730   43.9770 N   0  0  0  0  0  0  0  0  0  0  0  0
   45.6150   34.0820   45.1600 C   0  0  0  0  0  0  0  0  0  0  0  0
   44.7390   35.0760   45.4410 N   0  0  0  0  0  0  0  0  0  0  0  0
   46.7970   34.9340   41.8290 O   0  0  0  0  0  0  0  0  0  0  0  0
   43.8049   36.8446   44.7892 H   0  0  0  0  0  0  0  0  0  0  0  0
   44.9892   36.8700   42.5672 H   0  0  0  0  0  0  0  0  0  0  0  0
   45.7993   33.2847   45.8951 H   0  0  0  0  0  0  0  0  0  0  0  0
   47.4226   34.1802   41.6859 H   0  0  0  0  0  0  0  0  0  0  0  0
  1  6  2  0
  2  1  1  0
  3  2  2  0
  3  4  1  0
  4  5  2  0
  5  6  1  0
  7  3  1  0
  1  8  1  0
  2  9  1  0
  5 10  1  0
  7 11  1  0
M  ISO  4   8  14   9  14  10  14  11   3
M  END
>  <minimizedAffinity>  (1) 
-2.94672751

>  <minimizedRMSD>  (1) 
0.535874367

$$$$
