
     RDKit          3D

 26 27  0  0  0  0  0  0  0  0999 V2000
   44.8750   35.9230   44.4220 C   0  0  0  0  0  0  0  0  0  0  0  0
   45.3680   35.9370   43.0980 C   0  0  0  0  0  0  0  0  0  0  0  0
   45.9600   34.7660   42.6160 C   0  0  0  0  0  0  0  0  0  0  0  0
   46.0260   33.6820   43.4540 N   0  0  0  0  0  0  0  0  0  0  0  0
   45.5400   33.7200   44.7110 C   0  0  0  0  0  0  0  0  0  0  0  0
   44.9640   34.8430   45.1940 N   0  0  0  0  0  0  0  0  0  0  0  0
   46.4800   34.6570   41.3360 O   0  0  0  0  0  0  0  0  0  0  0  0
   49.5100   35.3220   42.9910 N   0  0  0  0  0  0  0  0  0  0  0  0
   49.6280   33.8980   42.7680 C   0  0  0  0  0  0  0  0  0  0  0  0
   48.2820   33.4210   42.2650 C   0  0  0  0  0  0  0  0  0  0  0  0
   47.8160   34.1880   41.0830 C   0  0  0  0  0  0  0  0  0  0  0  0
   48.6560   35.3490   40.6760 C   0  0  0  0  0  0  0  0  0  0  0  0
   49.3650   36.0630   41.7730 C   0  0  0  0  0  0  0  0  0  0  0  0
   44.4040   36.8312   44.8262 H   0  0  0  0  0  0  0  0  0  0  0  0
   45.2889   36.8363   42.4696 H   0  0  0  0  0  0  0  0  0  0  0  0
   45.6131   32.8277   45.3500 H   0  0  0  0  0  0  0  0  0  0  0  0
   48.6847   35.4955   43.5824 H   0  0  0  0  0  0  0  0  0  0  0  0
   50.4062   33.6954   42.0174 H   0  0  0  0  0  0  0  0  0  0  0  0
   49.9111   33.3756   43.6937 H   0  0  0  0  0  0  0  0  0  0  0  0
   48.3643   32.3598   41.9875 H   0  0  0  0  0  0  0  0  0  0  0  0
   47.5498   33.5707   43.0722 H   0  0  0  0  0  0  0  0  0  0  0  0
   47.8773   33.4806   40.2428 H   0  0  0  0  0  0  0  0  0  0  0  0
   49.4145   34.9829   39.9684 H   0  0  0  0  0  0  0  0  0  0  0  0
   47.9569   36.0836   40.2499 H   0  0  0  0  0  0  0  0  0  0  0  0
   50.3707   36.3261   41.4132 H   0  0  0  0  0  0  0  0  0  0  0  0
   48.7434   36.9364   42.0198 H   0  0  0  0  0  0  0  0  0  0  0  0
  1  6  2  0
  2  1  1  0
  3  2  2  0
  3  4  1  0
  4  5  2  0
  5  6  1  0
  7  3  1  0
  9  8  1  0
 10  9  1  0
 11  7  1  0
 11 10  1  0
 12 11  1  0
 12 13  1  0
 13  8  1  0
  1 14  1  0
  2 15  1  0
  5 16  1  0
  8 17  1  0
  9 18  1  0
  9 19  1  0
 10 20  1  0
 10 21  1  0
 11 22  1  0
 12 23  1  0
 12 24  1  0
 13 25  1  0
 13 26  1  0
M  ISO  8  14  14  15  14  16  14  17   5  18  13  19  13  20  13  21  13
M  ISO  5  22  13  23  13  24  13  25  13  26  13
M  END
>  <minimizedAffinity>  (1) 
-4.43675327

>  <minimizedRMSD>  (1) 
0.735624611

$$$$
