
     RDKit          3D

 24 25  0  0  0  0  0  0  0  0999 V2000
   44.4340   35.7180   45.2690 C   0  0  0  0  0  0  0  0  0  0  0  0
   44.9510   35.9070   43.9770 C   0  0  0  0  0  0  0  0  0  0  0  0
   45.8580   34.9610   43.4890 C   0  0  0  0  0  0  0  0  0  0  0  0
   46.1770   33.9150   44.3070 N   0  0  0  0  0  0  0  0  0  0  0  0
   45.6650   33.7570   45.5490 C   0  0  0  0  0  0  0  0  0  0  0  0
   44.7920   34.6670   46.0230 N   0  0  0  0  0  0  0  0  0  0  0  0
   46.4380   35.0330   42.2300 O   0  0  0  0  0  0  0  0  0  0  0  0
   47.4700   34.1820   41.7830 C   0  0  0  0  0  0  0  0  0  0  0  0
   47.5990   34.3750   40.2940 C   0  0  0  0  0  0  0  0  0  0  0  0
   48.8140   35.2470   40.0570 C   0  0  0  0  0  0  0  0  0  0  0  0
   48.9780   35.9500   41.3930 C   0  0  0  0  0  0  0  0  0  0  0  0
   48.7720   34.7690   42.3360 C   0  0  0  0  0  0  0  0  0  0  0  0
   43.7182   36.4492   45.6728 H   0  0  0  0  0  0  0  0  0  0  0  0
   44.6517   36.7725   43.3676 H   0  0  0  0  0  0  0  0  0  0  0  0
   45.9584   32.8945   46.1655 H   0  0  0  0  0  0  0  0  0  0  0  0
   47.2790   33.1383   42.0733 H   0  0  0  0  0  0  0  0  0  0  0  0
   47.7314   33.4020   39.7983 H   0  0  0  0  0  0  0  0  0  0  0  0
   46.6945   34.8468   39.8825 H   0  0  0  0  0  0  0  0  0  0  0  0
   49.6987   34.6394   39.8160 H   0  0  0  0  0  0  0  0  0  0  0  0
   48.6999   35.9377   39.2085 H   0  0  0  0  0  0  0  0  0  0  0  0
   49.9797   36.3910   41.5028 H   0  0  0  0  0  0  0  0  0  0  0  0
   48.2994   36.8000   41.5574 H   0  0  0  0  0  0  0  0  0  0  0  0
   48.6561   35.0994   43.3788 H   0  0  0  0  0  0  0  0  0  0  0  0
   49.6128   34.0605   42.3681 H   0  0  0  0  0  0  0  0  0  0  0  0
  1  6  2  0
  2  1  1  0
  3  2  2  0
  3  4  1  0
  4  5  2  0
  5  6  1  0
  7  3  1  0
  8  7  1  0
  8 12  1  0
  9  8  1  0
 10  9  1  0
 10 11  1  0
 11 12  1  0
  1 13  1  0
  2 14  1  0
  5 15  1  0
  8 16  1  0
  9 17  1  0
  9 18  1  0
 10 19  1  0
 10 20  1  0
 11 21  1  0
 11 22  1  0
 12 23  1  0
 12 24  1  0
M  ISO  8  13  14  14  14  15  14  16  13  17  13  18  13  19  13  20  13
M  ISO  4  21  13  22  13  23  13  24  13
M  END
>  <minimizedAffinity>  (1) 
-4.40446377

>  <minimizedRMSD>  (1) 
1.79871118

$$$$
