
     RDKit          3D

 19 20  0  0  0  0  0  0  0  0999 V2000
   44.6000   36.2100   44.4430 C   0  0  0  0  0  0  0  0  0  0  0  0
   45.2710   36.0990   43.2100 C   0  0  0  0  0  0  0  0  0  0  0  0
   46.0340   34.9590   42.9430 C   0  0  0  0  0  0  0  0  0  0  0  0
   46.0810   33.9980   43.9240 N   0  0  0  0  0  0  0  0  0  0  0  0
   45.4320   34.1280   45.0880 C   0  0  0  0  0  0  0  0  0  0  0  0
   44.6960   35.2220   45.3530 N   0  0  0  0  0  0  0  0  0  0  0  0
   46.7210   34.7760   41.7570 O   0  0  0  0  0  0  0  0  0  0  0  0
   48.0000   34.2490   41.8710 C   0  0  0  0  0  0  0  0  0  0  0  0
   48.9640   35.0960   42.3770 C   0  0  0  0  0  0  0  0  0  0  0  0
   50.2480   34.5910   42.5010 C   0  0  0  0  0  0  0  0  0  0  0  0
   50.5760   33.3350   42.1520 N   0  0  0  0  0  0  0  0  0  0  0  0
   49.6040   32.5260   41.6570 C   0  0  0  0  0  0  0  0  0  0  0  0
   48.3370   32.9750   41.5190 N   0  0  0  0  0  0  0  0  0  0  0  0
   43.9975   37.1037   44.6628 H   0  0  0  0  0  0  0  0  0  0  0  0
   45.1952   36.9030   42.4631 H   0  0  0  0  0  0  0  0  0  0  0  0
   45.5019   33.3275   45.8392 H   0  0  0  0  0  0  0  0  0  0  0  0
   48.7234   36.1287   42.6697 H   0  0  0  0  0  0  0  0  0  0  0  0
   51.0342   35.2470   42.9030 H   0  0  0  0  0  0  0  0  0  0  0  0
   49.8507   31.4944   41.3654 H   0  0  0  0  0  0  0  0  0  0  0  0
  1  6  2  0
  2  1  1  0
  3  2  2  0
  3  4  1  0
  4  5  2  0
  5  6  1  0
  7  8  1  0
  7  3  1  0
  8  9  2  0
  9 10  1  0
 11 10  2  0
 12 11  1  0
 13 12  2  0
 13  8  1  0
  1 14  1  0
  2 15  1  0
  5 16  1  0
  9 17  1  0
 10 18  1  0
 12 19  1  0
M  ISO  6  14  14  15  14  16  14  17  14  18  14  19  14
M  END
>  <minimizedAffinity>  (1) 
-4.23730516

>  <minimizedRMSD>  (1) 
1.28366411

$$$$
