
     RDKit          3D

 31 33  0  0  0  0  0  0  0  0999 V2000
   46.8410   34.3800   43.4700 C   0  0  0  0  0  0  0  0  0  0  0  0
   46.3260   34.1010   42.1440 N   0  0  0  0  0  0  0  0  0  0  0  0
   46.8820   33.5650   41.0570 C   0  0  0  0  0  0  0  0  0  0  0  0
   46.0020   33.5080   40.0490 N   0  0  0  0  0  0  0  0  0  0  0  0
   44.8240   34.0300   40.4990 C   0  0  0  0  0  0  0  0  0  0  0  0
   43.6150   34.1900   39.8340 C   0  0  0  0  0  0  0  0  0  0  0  0
   43.5430   33.8150   38.6380 O   0  0  0  0  0  0  0  0  0  0  0  0
   42.6090   34.7500   40.5660 N   0  0  0  0  0  0  0  0  0  0  0  0
   42.7940   35.1150   41.8400 C   0  0  0  0  0  0  0  0  0  0  0  0
   41.6970   35.6960   42.5470 N   0  0  0  0  0  0  0  0  0  0  0  0
   43.9920   34.9290   42.4200 N   0  0  0  0  0  0  0  0  0  0  0  0
   45.0560   34.3900   41.8060 C   0  0  0  0  0  0  0  0  0  0  0  0
   46.6930   33.1640   44.3540 C   0  0  0  0  0  0  0  0  0  0  0  0
   45.9410   33.4770   45.5020 O   0  0  0  0  0  0  0  0  0  0  0  0
   45.5680   32.0310   48.9030 C   0  0  0  0  0  0  0  0  0  0  0  0
   45.2270   32.7490   47.7560 C   0  0  0  0  0  0  0  0  0  0  0  0
   46.1540   32.7970   46.7020 C   0  0  0  0  0  0  0  0  0  0  0  0
   47.3370   32.1260   46.8850 N   0  0  0  0  0  0  0  0  0  0  0  0
   47.6410   31.4440   47.9950 C   0  0  0  0  0  0  0  0  0  0  0  0
   46.7560   31.4000   48.9960 N   0  0  0  0  0  0  0  0  0  0  0  0
   46.2801   35.2184   43.9086 H   0  0  0  0  0  0  0  0  0  0  0  0
   47.9070   34.6403   43.3934 H   0  0  0  0  0  0  0  0  0  0  0  0
   47.9236   33.2165   40.9963 H   0  0  0  0  0  0  0  0  0  0  0  0
   41.6877   34.8949   40.1288 H   0  0  0  0  0  0  0  0  0  0  0  0
   41.8125   35.9858   43.5286 H   0  0  0  0  0  0  0  0  0  0  0  0
   40.7906   35.8251   42.0751 H   0  0  0  0  0  0  0  0  0  0  0  0
   46.1817   32.3683   43.7923 H   0  0  0  0  0  0  0  0  0  0  0  0
   47.6928   32.8267   44.6650 H   0  0  0  0  0  0  0  0  0  0  0  0
   44.8585   31.9791   49.7420 H   0  0  0  0  0  0  0  0  0  0  0  0
   44.2579   33.2637   47.6794 H   0  0  0  0  0  0  0  0  0  0  0  0
   48.6073   30.9258   48.0830 H   0  0  0  0  0  0  0  0  0  0  0  0
  1 13  1  0
  2  1  1  0
  3  2  1  0
  4  5  1  0
  4  3  2  0
  5 12  2  0
  6  5  1  0
  6  8  1  0
  7  6  2  0
  8  9  1  0
  9 11  2  0
  9 10  1  0
 12  2  1  0
 12 11  1  0
 13 14  1  0
 14 17  1  0
 15 20  2  0
 16 15  1  0
 17 18  1  0
 17 16  2  0
 18 19  2  0
 19 20  1  0
  1 21  1  0
  1 22  1  0
  3 23  1  0
  8 24  1  0
 10 25  1  0
 10 26  1  0
 13 27  1  0
 13 28  1  0
 15 29  1  0
 16 30  1  0
 19 31  1  0
M  ISO  8  21   8  22   8  23  14  24   9  27   8  28   8  29  14  30  14
M  ISO  1  31  14
M  END
>  <minimizedAffinity>  (1) 
-4.97501945

>  <minimizedRMSD>  (1) 
6.76538372

$$$$
