
     RDKit          3D

 31 32  0  0  0  0  0  0  0  0999 V2000
   47.9890   35.3090   41.8140 C   0  0  0  0  0  0  0  0  0  0  0  0
   48.6590   34.4730   40.7700 C   0  0  0  0  0  0  0  0  0  0  0  0
   48.7340   33.0960   41.2090 N   0  0  0  0  0  0  0  0  0  0  0  0
   49.4640   32.9540   42.4480 C   0  0  0  0  0  0  0  0  0  0  0  0
   50.9070   33.3210   42.3700 C   0  0  0  0  0  0  0  0  0  0  0  0
   51.5690   32.6580   41.2740 N   0  0  0  0  0  0  0  0  0  0  0  0
   50.6840   31.6820   40.6470 C   0  0  0  0  0  0  0  0  0  0  0  0
   49.3720   32.2700   40.2080 C   0  0  0  0  0  0  0  0  0  0  0  0
   46.6290   34.9790   41.9200 O   0  0  0  0  0  0  0  0  0  0  0  0
   44.4700   35.9840   44.7670 C   0  0  0  0  0  0  0  0  0  0  0  0
   45.0700   36.0460   43.4930 C   0  0  0  0  0  0  0  0  0  0  0  0
   45.9630   35.0500   43.1310 C   0  0  0  0  0  0  0  0  0  0  0  0
   46.2060   34.0520   44.0570 N   0  0  0  0  0  0  0  0  0  0  0  0
   45.6230   34.0160   45.2620 C   0  0  0  0  0  0  0  0  0  0  0  0
   44.7590   34.9730   45.6190 N   0  0  0  0  0  0  0  0  0  0  0  0
   48.0822   36.3704   41.5406 H   0  0  0  0  0  0  0  0  0  0  0  0
   48.4743   35.1189   42.7827 H   0  0  0  0  0  0  0  0  0  0  0  0
   49.6756   34.8551   40.5950 H   0  0  0  0  0  0  0  0  0  0  0  0
   48.0752   34.5231   39.8390 H   0  0  0  0  0  0  0  0  0  0  0  0
   48.9875   33.5983   43.2015 H   0  0  0  0  0  0  0  0  0  0  0  0
   49.4302   31.8853   42.7062 H   0  0  0  0  0  0  0  0  0  0  0  0
   50.9908   34.4090   42.2311 H   0  0  0  0  0  0  0  0  0  0  0  0
   51.3918   33.0037   43.3050 H   0  0  0  0  0  0  0  0  0  0  0  0
   51.8476   33.3599   40.5736 H   0  0  0  0  0  0  0  0  0  0  0  0
   51.1925   31.2642   39.7656 H   0  0  0  0  0  0  0  0  0  0  0  0
   50.4618   30.9108   41.3993 H   0  0  0  0  0  0  0  0  0  0  0  0
   49.5505   32.8855   39.3140 H   0  0  0  0  0  0  0  0  0  0  0  0
   48.6943   31.4260   40.0123 H   0  0  0  0  0  0  0  0  0  0  0  0
   43.7590   36.7660   45.0721 H   0  0  0  0  0  0  0  0  0  0  0  0
   44.8344   36.8677   42.8007 H   0  0  0  0  0  0  0  0  0  0  0  0
   45.8550   33.1979   45.9597 H   0  0  0  0  0  0  0  0  0  0  0  0
  1  9  1  0
  2  3  1  0
  2  1  1  0
  3  4  1  0
  5  4  1  0
  6  5  1  0
  7  6  1  0
  8  7  1  0
  8  3  1  0
  9 12  1  0
 10 15  2  0
 11 10  1  0
 12 11  2  0
 12 13  1  0
 13 14  2  0
 14 15  1  0
  1 16  1  0
  1 17  1  0
  2 18  1  0
  2 19  1  0
  4 20  1  0
  4 21  1  0
  5 22  1  0
  5 23  1  0
  6 24  1  0
  7 25  1  0
  7 26  1  0
  8 27  1  0
  8 28  1  0
 10 29  1  0
 11 30  1  0
 14 31  1  0
M  ISO  8  16   8  17   8  18   8  19   8  20  13  21  13  22  13  23  13
M  ISO  8  24   5  25  13  26  13  27  13  28  13  29  14  30  14  31  14
M  END
>  <minimizedAffinity>  (1) 
-4.39937925

>  <minimizedRMSD>  (1) 
2.74691772

$$$$
