
     RDKit          3D

 28 30  0  0  0  0  0  0  0  0999 V2000
   45.1440   33.4250   40.5630 C   0  0  0  0  0  0  0  0  0  0  0  0
   46.2920   33.4860   39.5760 C   0  0  0  0  0  0  0  0  0  0  0  0
   47.4880   32.9930   40.2350 N   0  0  0  0  0  0  0  0  0  0  0  0
   47.9450   31.7110   40.2110 C   0  0  0  0  0  0  0  0  0  0  0  0
   49.0760   31.6240   40.9310 N   0  0  0  0  0  0  0  0  0  0  0  0
   49.3820   32.8450   41.4410 C   0  0  0  0  0  0  0  0  0  0  0  0
   50.4240   33.2860   42.2360 C   0  0  0  0  0  0  0  0  0  0  0  0
   50.4520   34.6030   42.5880 N   0  0  0  0  0  0  0  0  0  0  0  0
   49.4600   35.3720   42.1310 C   0  0  0  0  0  0  0  0  0  0  0  0
   48.4390   34.9690   41.3590 N   0  0  0  0  0  0  0  0  0  0  0  0
   48.3700   33.6790   40.9880 C   0  0  0  0  0  0  0  0  0  0  0  0
   45.0300   34.6790   41.2150 O   0  0  0  0  0  0  0  0  0  0  0  0
   44.5840   35.8070   44.7310 C   0  0  0  0  0  0  0  0  0  0  0  0
   44.5550   35.8470   43.3260 C   0  0  0  0  0  0  0  0  0  0  0  0
   45.0080   34.7600   42.5920 C   0  0  0  0  0  0  0  0  0  0  0  0
   45.4610   33.7010   43.3270 N   0  0  0  0  0  0  0  0  0  0  0  0
   45.4920   33.6580   44.6580 C   0  0  0  0  0  0  0  0  0  0  0  0
   45.0470   34.7250   45.3640 N   0  0  0  0  0  0  0  0  0  0  0  0
   45.3385   32.6386   41.3071 H   0  0  0  0  0  0  0  0  0  0  0  0
   44.2085   33.1953   40.0319 H   0  0  0  0  0  0  0  0  0  0  0  0
   46.4481   34.5253   39.2512 H   0  0  0  0  0  0  0  0  0  0  0  0
   46.0652   32.8702   38.6932 H   0  0  0  0  0  0  0  0  0  0  0  0
   47.4626   30.8750   39.6834 H   0  0  0  0  0  0  0  0  0  0  0  0
   51.2085   32.5935   42.5750 H   0  0  0  0  0  0  0  0  0  0  0  0
   49.4821   36.4348   42.4139 H   0  0  0  0  0  0  0  0  0  0  0  0
   44.2243   36.6694   45.3113 H   0  0  0  0  0  0  0  0  0  0  0  0
   44.1734   36.7396   42.8087 H   0  0  0  0  0  0  0  0  0  0  0  0
   45.8743   32.7669   45.1775 H   0  0  0  0  0  0  0  0  0  0  0  0
  1 12  1  0
  2  3  1  0
  2  1  1  0
  3 11  1  0
  4  3  1  0
  4  5  2  0
  5  6  1  0
  6  7  2  0
  7  8  1  0
  9  8  2  0
 10  9  1  0
 11 10  2  0
 11  6  1  0
 12 15  1  0
 13 18  2  0
 14 13  1  0
 15 14  2  0
 15 16  1  0
 16 17  2  0
 17 18  1  0
  1 19  1  0
  1 20  1  0
  2 21  1  0
  2 22  1  0
  4 23  1  0
  7 24  1  0
  9 25  1  0
 13 26  1  0
 14 27  1  0
 17 28  1  0
M  ISO  8  19   8  20   8  21   8  22   8  23  14  24  14  25  14  26  14
M  ISO  2  27  14  28  14
M  END
>  <minimizedAffinity>  (1) 
-4.34378242

>  <minimizedRMSD>  (1) 
3.20280814

$$$$
