
     RDKit          3D

 26 27  0  0  0  0  0  0  0  0999 V2000
   47.7870   34.9630   41.6650 C   0  0  0  0  0  0  0  0  0  0  0  0
   48.1800   34.5950   40.2640 C   0  0  0  0  0  0  0  0  0  0  0  0
   47.0160   34.0550   39.5950 N   0  0  0  0  0  0  0  0  0  0  0  0
   47.2410   33.1060   36.1600 N   0  0  0  0  0  0  0  0  0  0  0  0
   46.5020   33.2380   37.2320 N   0  0  0  0  0  0  0  0  0  0  0  0
   47.2680   33.7220   38.2340 C   0  0  0  0  0  0  0  0  0  0  0  0
   48.5580   33.8940   37.7370 C   0  0  0  0  0  0  0  0  0  0  0  0
   48.4990   33.4940   36.4200 C   0  0  0  0  0  0  0  0  0  0  0  0
   46.3840   34.9080   41.8040 O   0  0  0  0  0  0  0  0  0  0  0  0
   44.4940   36.0400   44.8090 C   0  0  0  0  0  0  0  0  0  0  0  0
   44.9960   36.0790   43.5080 C   0  0  0  0  0  0  0  0  0  0  0  0
   45.8050   35.0240   43.0680 C   0  0  0  0  0  0  0  0  0  0  0  0
   46.0410   34.0220   43.9720 N   0  0  0  0  0  0  0  0  0  0  0  0
   45.5510   34.0040   45.2140 C   0  0  0  0  0  0  0  0  0  0  0  0
   44.7700   35.0260   45.6330 N   0  0  0  0  0  0  0  0  0  0  0  0
   48.1349   35.9832   41.8846 H   0  0  0  0  0  0  0  0  0  0  0  0
   48.2471   34.2521   42.3671 H   0  0  0  0  0  0  0  0  0  0  0  0
   48.5353   35.4887   39.7300 H   0  0  0  0  0  0  0  0  0  0  0  0
   48.9891   33.8499   40.2796 H   0  0  0  0  0  0  0  0  0  0  0  0
   46.1032   33.9255   40.0542 H   0  0  0  0  0  0  0  0  0  0  0  0
   46.9064   32.7560   35.2509 H   0  0  0  0  0  0  0  0  0  0  0  0
   49.4373   34.2696   38.2808 H   0  0  0  0  0  0  0  0  0  0  0  0
   49.3363   33.4929   35.7066 H   0  0  0  0  0  0  0  0  0  0  0  0
   43.8564   36.8631   45.1641 H   0  0  0  0  0  0  0  0  0  0  0  0
   44.7611   36.9216   42.8411 H   0  0  0  0  0  0  0  0  0  0  0  0
   45.7801   33.1667   45.8896 H   0  0  0  0  0  0  0  0  0  0  0  0
  1  9  1  0
  2  1  1  0
  3  2  1  0
  4  8  1  0
  4  5  1  0
  5  6  2  0
  6  3  1  0
  7  6  1  0
  8  7  2  0
  9 12  1  0
 10 15  2  0
 11 10  1  0
 12 11  2  0
 12 13  1  0
 13 14  2  0
 14 15  1  0
  1 16  1  0
  1 17  1  0
  2 18  1  0
  2 19  1  0
  3 20  1  0
  4 21  1  0
  7 22  1  0
  8 23  1  0
 10 24  1  0
 11 25  1  0
 14 26  1  0
M  ISO  8  16   8  17   8  18   8  19   8  21   9  22  14  23  14  24  14
M  ISO  2  25  14  26  14
M  END
>  <minimizedAffinity>  (1) 
-4.47205353

>  <minimizedRMSD>  (1) 
2.13390398

$$$$
