
     RDKit          3D

 33 35  0  0  0  0  0  0  0  0999 V2000
   48.1900   35.0100   42.1070 C   0  0  0  0  0  0  0  0  0  0  0  0
   48.4960   35.1750   40.6400 C   0  0  0  0  0  0  0  0  0  0  0  0
   47.5290   34.4250   39.9160 N   0  0  0  0  0  0  0  0  0  0  0  0
   47.8700   33.9960   38.6040 C   0  0  0  0  0  0  0  0  0  0  0  0
   48.4820   34.5120   37.4970 C   0  0  0  0  0  0  0  0  0  0  0  0
   48.4240   33.4770   36.5460 C   0  0  0  0  0  0  0  0  0  0  0  0
   47.8070   32.4200   37.0870 N   0  0  0  0  0  0  0  0  0  0  0  0
   47.4710   32.7280   38.3300 N   0  0  0  0  0  0  0  0  0  0  0  0
   46.9350   34.3820   42.2740 O   0  0  0  0  0  0  0  0  0  0  0  0
   44.4990   35.8810   44.6560 C   0  0  0  0  0  0  0  0  0  0  0  0
   45.2300   35.7100   43.4880 C   0  0  0  0  0  0  0  0  0  0  0  0
   46.1520   34.6560   43.3780 C   0  0  0  0  0  0  0  0  0  0  0  0
   46.2770   33.8280   44.4800 N   0  0  0  0  0  0  0  0  0  0  0  0
   45.5480   34.0320   45.5920 C   0  0  0  0  0  0  0  0  0  0  0  0
   44.6720   35.0510   45.6670 N   0  0  0  0  0  0  0  0  0  0  0  0
   45.8200   33.0660   46.6280 N   0  0  0  0  0  0  0  0  0  0  0  0
   46.8890   32.2790   46.3140 C   0  0  0  0  0  0  0  0  0  0  0  0
   47.0810   31.3850   47.3540 C   0  0  0  0  0  0  0  0  0  0  0  0
   46.1120   31.6650   48.2670 N   0  0  0  0  0  0  0  0  0  0  0  0
   45.3640   32.6790   47.8130 C   0  0  0  0  0  0  0  0  0  0  0  0
   48.1686   35.9992   42.5876 H   0  0  0  0  0  0  0  0  0  0  0  0
   48.9691   34.3859   42.5692 H   0  0  0  0  0  0  0  0  0  0  0  0
   48.4342   36.2371   40.3604 H   0  0  0  0  0  0  0  0  0  0  0  0
   49.5120   34.8195   40.4132 H   0  0  0  0  0  0  0  0  0  0  0  0
   46.6123   34.2000   40.3281 H   0  0  0  0  0  0  0  0  0  0  0  0
   48.9218   35.5130   37.3763 H   0  0  0  0  0  0  0  0  0  0  0  0
   48.8220   33.5284   35.5218 H   0  0  0  0  0  0  0  0  0  0  0  0
   47.6249   31.5216   36.6173 H   0  0  0  0  0  0  0  0  0  0  0  0
   43.7770   36.7068   44.7383 H   0  0  0  0  0  0  0  0  0  0  0  0
   45.0866   36.4026   42.6455 H   0  0  0  0  0  0  0  0  0  0  0  0
   47.4922   32.3432   45.3964 H   0  0  0  0  0  0  0  0  0  0  0  0
   47.8569   30.6087   47.4269 H   0  0  0  0  0  0  0  0  0  0  0  0
   44.5059   33.1219   48.3398 H   0  0  0  0  0  0  0  0  0  0  0  0
  1  9  1  0
  2  1  1  0
  3  2  1  0
  4  3  1  0
  5  4  1  0
  6  7  1  0
  6  5  2  0
  7  8  1  0
  8  4  2  0
  9 12  1  0
 10 15  2  0
 11 10  1  0
 12 11  2  0
 12 13  1  0
 13 14  2  0
 14 15  1  0
 14 16  1  0
 16 20  1  0
 17 16  1  0
 17 18  2  0
 18 19  1  0
 20 19  2  0
  1 21  1  0
  1 22  1  0
  2 23  1  0
  2 24  1  0
  3 25  1  0
  5 26  1  0
  6 27  1  0
  7 28  1  0
 10 29  1  0
 11 30  1  0
 17 31  1  0
 18 32  1  0
 20 33  1  0
M  ISO  8  21   8  22   8  23   8  24   8  26  14  27  14  28   9  29  14
M  ISO  4  30  14  31  14  32  14  33  14
M  END
>  <minimizedAffinity>  (1) 
-5.64086866

>  <minimizedRMSD>  (1) 
0.437357366

$$$$
