
     RDKit          3D

 33 35  0  0  0  0  0  0  0  0999 V2000
   48.2410   34.9290   42.1110 C   0  0  0  0  0  0  0  0  0  0  0  0
   48.4870   35.1710   40.6490 C   0  0  0  0  0  0  0  0  0  0  0  0
   47.5230   34.4210   39.9210 N   0  0  0  0  0  0  0  0  0  0  0  0
   47.8660   33.9910   38.6100 C   0  0  0  0  0  0  0  0  0  0  0  0
   48.4820   34.5200   37.5000 C   0  0  0  0  0  0  0  0  0  0  0  0
   48.4240   33.4760   36.5550 C   0  0  0  0  0  0  0  0  0  0  0  0
   47.8150   32.4180   37.0920 N   0  0  0  0  0  0  0  0  0  0  0  0
   47.4750   32.7200   38.3360 N   0  0  0  0  0  0  0  0  0  0  0  0
   46.9920   34.2810   42.3000 O   0  0  0  0  0  0  0  0  0  0  0  0
   44.5200   35.7900   44.6330 C   0  0  0  0  0  0  0  0  0  0  0  0
   45.2510   35.6070   43.4580 C   0  0  0  0  0  0  0  0  0  0  0  0
   46.1980   34.5820   43.3890 C   0  0  0  0  0  0  0  0  0  0  0  0
   46.3330   33.8150   44.5200 N   0  0  0  0  0  0  0  0  0  0  0  0
   45.6230   34.0080   45.6340 C   0  0  0  0  0  0  0  0  0  0  0  0
   44.7140   35.0020   45.6820 N   0  0  0  0  0  0  0  0  0  0  0  0
   45.9190   33.0780   46.7320 C   0  0  0  0  0  0  0  0  0  0  0  0
   47.0300   32.2790   46.9290 C   0  0  0  0  0  0  0  0  0  0  0  0
   46.8210   31.5830   48.1260 C   0  0  0  0  0  0  0  0  0  0  0  0
   45.6070   31.9820   48.6060 N   0  0  0  0  0  0  0  0  0  0  0  0
   45.0780   32.8780   47.7610 N   0  0  0  0  0  0  0  0  0  0  0  0
   48.2340   35.8923   42.6421 H   0  0  0  0  0  0  0  0  0  0  0  0
   49.0411   34.2861   42.5068 H   0  0  0  0  0  0  0  0  0  0  0  0
   48.3781   36.2419   40.4225 H   0  0  0  0  0  0  0  0  0  0  0  0
   49.5059   34.8623   40.3724 H   0  0  0  0  0  0  0  0  0  0  0  0
   46.6050   34.1963   40.3306 H   0  0  0  0  0  0  0  0  0  0  0  0
   48.9177   35.5227   37.3783 H   0  0  0  0  0  0  0  0  0  0  0  0
   48.8207   33.5262   35.5303 H   0  0  0  0  0  0  0  0  0  0  0  0
   47.6391   31.5196   36.6200 H   0  0  0  0  0  0  0  0  0  0  0  0
   43.7746   36.5969   44.6895 H   0  0  0  0  0  0  0  0  0  0  0  0
   45.0827   36.2650   42.5927 H   0  0  0  0  0  0  0  0  0  0  0  0
   47.9090   32.2044   46.2719 H   0  0  0  0  0  0  0  0  0  0  0  0
   47.5032   30.8554   48.5898 H   0  0  0  0  0  0  0  0  0  0  0  0
   45.1686   31.6486   49.4764 H   0  0  0  0  0  0  0  0  0  0  0  0
  1  9  1  0
  2  1  1  0
  3  2  1  0
  4  3  1  0
  5  4  1  0
  6  7  1  0
  6  5  2  0
  7  8  1  0
  8  4  2  0
  9 12  1  0
 10 15  2  0
 11 10  1  0
 12 11  2  0
 12 13  1  0
 13 14  2  0
 14 15  1  0
 14 16  1  0
 16 17  1  0
 16 20  2  0
 17 18  2  0
 18 19  1  0
 20 19  1  0
  1 21  1  0
  1 22  1  0
  2 23  1  0
  2 24  1  0
  3 25  1  0
  5 26  1  0
  6 27  1  0
  7 28  1  0
 10 29  1  0
 11 30  1  0
 17 31  1  0
 18 32  1  0
 19 33  1  0
M  ISO  8  21   8  22   8  23   8  24   8  26  14  27  14  28   9  29  14
M  ISO  4  30  14  31  14  32  14  33   9
M  END
>  <minimizedAffinity>  (1) 
-5.46281958

>  <minimizedRMSD>  (1) 
0.521994233

$$$$
