
     RDKit          3D

 31 33  0  0  0  0  0  0  0  0999 V2000
   48.2380   34.9300   42.0990 C   0  0  0  0  0  0  0  0  0  0  0  0
   48.4930   35.1580   40.6390 C   0  0  0  0  0  0  0  0  0  0  0  0
   47.5190   34.4230   39.9070 N   0  0  0  0  0  0  0  0  0  0  0  0
   47.8720   33.9820   38.6000 C   0  0  0  0  0  0  0  0  0  0  0  0
   48.4720   34.5170   37.4810 C   0  0  0  0  0  0  0  0  0  0  0  0
   48.4510   33.4600   36.5500 C   0  0  0  0  0  0  0  0  0  0  0  0
   47.8760   32.3920   37.1040 N   0  0  0  0  0  0  0  0  0  0  0  0
   47.5210   32.6940   38.3430 N   0  0  0  0  0  0  0  0  0  0  0  0
   47.0020   34.2920   42.2840 O   0  0  0  0  0  0  0  0  0  0  0  0
   44.5190   35.7700   44.6380 C   0  0  0  0  0  0  0  0  0  0  0  0
   45.2480   35.5900   43.4680 C   0  0  0  0  0  0  0  0  0  0  0  0
   46.2080   34.5800   43.3900 C   0  0  0  0  0  0  0  0  0  0  0  0
   46.3640   33.8140   44.5150 N   0  0  0  0  0  0  0  0  0  0  0  0
   45.6530   34.0020   45.6340 C   0  0  0  0  0  0  0  0  0  0  0  0
   44.7330   34.9820   45.6850 N   0  0  0  0  0  0  0  0  0  0  0  0
   45.8930   33.1330   46.7810 C   0  0  0  0  0  0  0  0  0  0  0  0
   47.0430   32.4500   47.0570 N   0  0  0  0  0  0  0  0  0  0  0  0
   46.8900   31.7850   48.1540 O   0  0  0  0  0  0  0  0  0  0  0  0
   45.6840   31.9890   48.6310 C   0  0  0  0  0  0  0  0  0  0  0  0
   45.0540   32.8380   47.7660 N   0  0  0  0  0  0  0  0  0  0  0  0
   48.2283   35.8981   42.6211 H   0  0  0  0  0  0  0  0  0  0  0  0
   49.0351   34.2903   42.5057 H   0  0  0  0  0  0  0  0  0  0  0  0
   48.4054   36.2296   40.4068 H   0  0  0  0  0  0  0  0  0  0  0  0
   49.5067   34.8264   40.3698 H   0  0  0  0  0  0  0  0  0  0  0  0
   46.5927   34.2175   40.3078 H   0  0  0  0  0  0  0  0  0  0  0  0
   48.8735   35.5322   37.3461 H   0  0  0  0  0  0  0  0  0  0  0  0
   48.8474   33.5082   35.5250 H   0  0  0  0  0  0  0  0  0  0  0  0
   47.7318   31.4819   36.6437 H   0  0  0  0  0  0  0  0  0  0  0  0
   43.7632   36.5671   44.6965 H   0  0  0  0  0  0  0  0  0  0  0  0
   45.0679   36.2446   42.6025 H   0  0  0  0  0  0  0  0  0  0  0  0
   45.2617   31.5587   49.5510 H   0  0  0  0  0  0  0  0  0  0  0  0
  1  9  1  0
  2  1  1  0
  3  2  1  0
  4  3  1  0
  5  4  1  0
  6  7  1  0
  6  5  2  0
  7  8  1  0
  8  4  2  0
  9 12  1  0
 10 15  2  0
 11 10  1  0
 12 11  2  0
 12 13  1  0
 13 14  2  0
 14 15  1  0
 14 16  1  0
 16 17  2  0
 16 20  1  0
 17 18  1  0
 18 19  1  0
 20 19  2  0
  1 21  1  0
  1 22  1  0
  2 23  1  0
  2 24  1  0
  3 25  1  0
  5 26  1  0
  6 27  1  0
  7 28  1  0
 10 29  1  0
 11 30  1  0
 19 31  1  0
M  ISO  8  21   8  22   8  23   8  24   8  26  14  27  14  28   9  29  14
M  ISO  2  30  14  31  14
M  END
>  <minimizedAffinity>  (1) 
-5.42670059

>  <minimizedRMSD>  (1) 
0.57504034

$$$$
