
     RDKit          3D

 29 30  0  0  0  0  0  0  0  0999 V2000
   48.2120   35.0180   42.0510 C   0  0  0  0  0  0  0  0  0  0  0  0
   48.5220   35.1990   40.5840 C   0  0  0  0  0  0  0  0  0  0  0  0
   47.5700   34.4340   39.8600 N   0  0  0  0  0  0  0  0  0  0  0  0
   47.9080   33.9930   38.5480 C   0  0  0  0  0  0  0  0  0  0  0  0
   48.5070   34.5080   37.4290 C   0  0  0  0  0  0  0  0  0  0  0  0
   48.4370   33.4550   36.5050 C   0  0  0  0  0  0  0  0  0  0  0  0
   47.8370   32.3990   37.0530 N   0  0  0  0  0  0  0  0  0  0  0  0
   47.5120   32.7180   38.3000 N   0  0  0  0  0  0  0  0  0  0  0  0
   46.9290   34.4280   42.2030 O   0  0  0  0  0  0  0  0  0  0  0  0
   44.5070   36.0640   44.5010 C   0  0  0  0  0  0  0  0  0  0  0  0
   45.2500   35.8750   43.3150 C   0  0  0  0  0  0  0  0  0  0  0  0
   46.1170   34.7820   43.2660 C   0  0  0  0  0  0  0  0  0  0  0  0
   46.1590   33.9940   44.3880 N   0  0  0  0  0  0  0  0  0  0  0  0
   45.4540   34.1850   45.4910 C   0  0  0  0  0  0  0  0  0  0  0  0
   44.6110   35.2490   45.5370 N   0  0  0  0  0  0  0  0  0  0  0  0
   45.5630   33.2920   46.6370 C   0  0  0  0  0  0  0  0  0  0  0  0
   46.4190   32.3700   46.6670 O   0  0  0  0  0  0  0  0  0  0  0  0
   44.6990   33.4730   47.7080 O   0  0  0  0  0  0  0  0  0  0  0  0
   48.2246   35.9980   42.5504 H   0  0  0  0  0  0  0  0  0  0  0  0
   48.9694   34.3612   42.5037 H   0  0  0  0  0  0  0  0  0  0  0  0
   48.4407   36.2610   40.3091 H   0  0  0  0  0  0  0  0  0  0  0  0
   49.5460   34.8682   40.3559 H   0  0  0  0  0  0  0  0  0  0  0  0
   46.6555   34.2030   40.2739 H   0  0  0  0  0  0  0  0  0  0  0  0
   48.9400   35.5094   37.2884 H   0  0  0  0  0  0  0  0  0  0  0  0
   48.8222   33.4952   35.4755 H   0  0  0  0  0  0  0  0  0  0  0  0
   47.6573   31.4960   36.5913 H   0  0  0  0  0  0  0  0  0  0  0  0
   43.8178   36.9189   44.5652 H   0  0  0  0  0  0  0  0  0  0  0  0
   45.1494   36.5627   42.4624 H   0  0  0  0  0  0  0  0  0  0  0  0
   44.7564   32.8771   48.4965 H   0  0  0  0  0  0  0  0  0  0  0  0
  1  9  1  0
  2  1  1  0
  3  2  1  0
  4  3  1  0
  5  4  1  0
  6  7  1  0
  6  5  2  0
  7  8  1  0
  8  4  2  0
  9 12  1  0
 10 15  2  0
 11 10  1  0
 12 11  2  0
 12 13  1  0
 13 14  2  0
 14 15  1  0
 14 16  1  0
 16 17  2  0
 16 18  1  0
  1 19  1  0
  1 20  1  0
  2 21  1  0
  2 22  1  0
  3 23  1  0
  5 24  1  0
  6 25  1  0
  7 26  1  0
 10 27  1  0
 11 28  1  0
 18 29  1  0
M  ISO  8  19   8  20   8  21   8  22   8  24  14  25  14  26   9  27  14
M  ISO  2  28  14  29   3
M  END
>  <minimizedAffinity>  (1) 
-5.33289814

>  <minimizedRMSD>  (1) 
0.512652457

$$$$
