
     RDKit          3D

 38 39  0  0  0  0  0  0  0  0999 V2000
   48.1290   34.8400   42.2560 C   0  0  0  0  0  0  0  0  0  0  0  0
   48.4060   35.1310   40.8000 C   0  0  0  0  0  0  0  0  0  0  0  0
   47.4440   34.4060   40.0390 N   0  0  0  0  0  0  0  0  0  0  0  0
   47.8130   33.9840   38.7270 C   0  0  0  0  0  0  0  0  0  0  0  0
   48.4250   34.5250   37.6270 C   0  0  0  0  0  0  0  0  0  0  0  0
   48.4090   33.4840   36.6810 C   0  0  0  0  0  0  0  0  0  0  0  0
   47.8230   32.4110   37.2110 N   0  0  0  0  0  0  0  0  0  0  0  0
   47.4550   32.7000   38.4540 N   0  0  0  0  0  0  0  0  0  0  0  0
   46.8210   34.3040   42.3970 O   0  0  0  0  0  0  0  0  0  0  0  0
   44.6310   35.4390   45.1790 C   0  0  0  0  0  0  0  0  0  0  0  0
   45.2410   35.4570   43.9090 C   0  0  0  0  0  0  0  0  0  0  0  0
   46.1380   34.4360   43.5920 C   0  0  0  0  0  0  0  0  0  0  0  0
   46.3490   33.4890   44.5620 N   0  0  0  0  0  0  0  0  0  0  0  0
   45.7620   33.4920   45.7570 C   0  0  0  0  0  0  0  0  0  0  0  0
   44.8920   34.4870   46.0570 N   0  0  0  0  0  0  0  0  0  0  0  0
   46.0260   32.4440   46.7680 C   0  0  0  0  0  0  0  0  0  0  0  0
   47.3780   32.6050   47.4450 C   0  0  0  0  0  0  0  0  0  0  0  0
   44.9790   32.6470   47.8700 C   0  0  0  0  0  0  0  0  0  0  0  0
   45.9040   31.0640   46.1870 C   0  0  0  0  0  0  0  0  0  0  0  0
   48.2070   35.7713   42.8362 H   0  0  0  0  0  0  0  0  0  0  0  0
   48.8635   34.1104   42.6277 H   0  0  0  0  0  0  0  0  0  0  0  0
   48.3071   36.2090   40.6049 H   0  0  0  0  0  0  0  0  0  0  0  0
   49.4286   34.8307   40.5277 H   0  0  0  0  0  0  0  0  0  0  0  0
   46.5124   34.1935   40.4236 H   0  0  0  0  0  0  0  0  0  0  0  0
   48.8344   35.5393   37.5105 H   0  0  0  0  0  0  0  0  0  0  0  0
   48.8171   33.5461   35.6614 H   0  0  0  0  0  0  0  0  0  0  0  0
   47.6794   31.5084   36.7361 H   0  0  0  0  0  0  0  0  0  0  0  0
   43.9212   36.2359   45.4455 H   0  0  0  0  0  0  0  0  0  0  0  0
   45.0160   36.2551   43.1862 H   0  0  0  0  0  0  0  0  0  0  0  0
   47.2455   32.5892   48.5369 H   0  0  0  0  0  0  0  0  0  0  0  0
   48.0395   31.7793   47.1439 H   0  0  0  0  0  0  0  0  0  0  0  0
   47.8271   33.5630   47.1439 H   0  0  0  0  0  0  0  0  0  0  0  0
   45.4603   32.5537   48.8547 H   0  0  0  0  0  0  0  0  0  0  0  0
   44.5338   33.6482   47.7729 H   0  0  0  0  0  0  0  0  0  0  0  0
   44.1919   31.8847   47.7729 H   0  0  0  0  0  0  0  0  0  0  0  0
   45.8389   30.3277   47.0016 H   0  0  0  0  0  0  0  0  0  0  0  0
   44.9972   31.0060   45.5670 H   0  0  0  0  0  0  0  0  0  0  0  0
   46.7865   30.8479   45.5670 H   0  0  0  0  0  0  0  0  0  0  0  0
  1  9  1  0
  2  1  1  0
  3  2  1  0
  4  3  1  0
  5  4  1  0
  6  7  1  0
  6  5  2  0
  7  8  1  0
  8  4  2  0
  9 12  1  0
 10 15  2  0
 11 10  1  0
 12 11  2  0
 12 13  1  0
 13 14  2  0
 14 15  1  0
 14 16  1  0
 16 17  1  0
 16 18  1  0
 19 16  1  0
  1 20  1  0
  1 21  1  0
  2 22  1  0
  2 23  1  0
  3 24  1  0
  5 25  1  0
  6 26  1  0
  7 27  1  0
 10 28  1  0
 11 29  1  0
 17 30  1  0
 17 31  1  0
 17 32  1  0
 18 33  1  0
 18 34  1  0
 18 35  1  0
 19 36  1  0
 19 37  1  0
 19 38  1  0
M  ISO  8  20   8  21   8  22   8  23   8  25  14  26  14  27   9  28  14
M  ISO  8  29  14  30   8  31   8  32   8  33   8  34   8  35   8  36   8
M  ISO  2  37   8  38   8
M  END
>  <minimizedAffinity>  (1) 
-4.90753651

>  <minimizedRMSD>  (1) 
0.612709522

$$$$
