
     RDKit          3D

 28 29  0  0  0  0  0  0  0  0999 V2000
   48.0550   35.2420   41.9380 C   0  0  0  0  0  0  0  0  0  0  0  0
   48.5430   35.1380   40.5190 C   0  0  0  0  0  0  0  0  0  0  0  0
   47.5670   34.3980   39.7830 N   0  0  0  0  0  0  0  0  0  0  0  0
   47.9170   33.9550   38.4790 C   0  0  0  0  0  0  0  0  0  0  0  0
   48.5310   34.4600   37.3670 C   0  0  0  0  0  0  0  0  0  0  0  0
   48.4860   33.4060   36.4340 C   0  0  0  0  0  0  0  0  0  0  0  0
   47.8770   32.3500   36.9890 N   0  0  0  0  0  0  0  0  0  0  0  0
   47.5320   32.6780   38.2230 N   0  0  0  0  0  0  0  0  0  0  0  0
   46.6970   34.8680   42.0170 O   0  0  0  0  0  0  0  0  0  0  0  0
   44.4790   36.1530   44.7150 C   0  0  0  0  0  0  0  0  0  0  0  0
   45.1500   36.1120   43.5000 C   0  0  0  0  0  0  0  0  0  0  0  0
   45.9760   35.0320   43.1860 C   0  0  0  0  0  0  0  0  0  0  0  0
   46.0670   34.0520   44.1440 N   0  0  0  0  0  0  0  0  0  0  0  0
   45.4120   34.1100   45.3100 C   0  0  0  0  0  0  0  0  0  0  0  0
   44.6200   35.1650   45.5870 N   0  0  0  0  0  0  0  0  0  0  0  0
   45.5750   33.0410   46.2320 N   0  0  0  0  0  0  0  0  0  0  0  0
   48.1664   36.2799   42.2850 H   0  0  0  0  0  0  0  0  0  0  0  0
   48.6496   34.5673   42.5714 H   0  0  0  0  0  0  0  0  0  0  0  0
   48.6573   36.1429   40.0864 H   0  0  0  0  0  0  0  0  0  0  0  0
   49.5206   34.6351   40.4811 H   0  0  0  0  0  0  0  0  0  0  0  0
   46.6409   34.1926   40.1842 H   0  0  0  0  0  0  0  0  0  0  0  0
   48.9626   35.4627   37.2315 H   0  0  0  0  0  0  0  0  0  0  0  0
   48.8877   33.4440   35.4107 H   0  0  0  0  0  0  0  0  0  0  0  0
   47.7071   31.4415   36.5344 H   0  0  0  0  0  0  0  0  0  0  0  0
   43.8289   37.0075   44.9543 H   0  0  0  0  0  0  0  0  0  0  0  0
   45.0297   36.9356   42.7809 H   0  0  0  0  0  0  0  0  0  0  0  0
   45.0822   33.0611   47.1362 H   0  0  0  0  0  0  0  0  0  0  0  0
   46.1859   32.2460   45.9960 H   0  0  0  0  0  0  0  0  0  0  0  0
  1  9  1  0
  2  1  1  0
  3  2  1  0
  4  3  1  0
  5  4  1  0
  6  7  1  0
  6  5  2  0
  7  8  1  0
  8  4  2  0
  9 12  1  0
 10 15  2  0
 11 10  1  0
 12 11  2  0
 12 13  1  0
 13 14  2  0
 14 15  1  0
 14 16  1  0
  1 17  1  0
  1 18  1  0
  2 19  1  0
  2 20  1  0
  3 21  1  0
  5 22  1  0
  6 23  1  0
  7 24  1  0
 10 25  1  0
 11 26  1  0
 16 27  1  0
 16 28  1  0
M  ISO  8  17   8  18   8  19   8  20   8  22  14  23  14  24   9  25  14
M  ISO  1  26  14
M  END
>  <minimizedAffinity>  (1) 
-4.78174973

>  <minimizedRMSD>  (1) 
0.134883314

$$$$
