
     RDKit          3D

 39 41  0  0  0  0  0  0  0  0999 V2000
   48.1040   34.9900   42.0800 C   0  0  0  0  0  0  0  0  0  0  0  0
   48.4900   35.1170   40.6300 C   0  0  0  0  0  0  0  0  0  0  0  0
   47.5220   34.4000   39.8720 N   0  0  0  0  0  0  0  0  0  0  0  0
   47.8790   33.9750   38.5580 C   0  0  0  0  0  0  0  0  0  0  0  0
   48.4980   34.5050   37.4600 C   0  0  0  0  0  0  0  0  0  0  0  0
   48.4520   33.4670   36.5120 C   0  0  0  0  0  0  0  0  0  0  0  0
   47.8410   32.4050   37.0400 N   0  0  0  0  0  0  0  0  0  0  0  0
   47.4860   32.6980   38.2870 N   0  0  0  0  0  0  0  0  0  0  0  0
   46.7610   34.5790   42.1960 O   0  0  0  0  0  0  0  0  0  0  0  0
   44.4730   35.8460   44.8380 C   0  0  0  0  0  0  0  0  0  0  0  0
   45.1080   35.7860   43.6020 C   0  0  0  0  0  0  0  0  0  0  0  0
   46.0450   34.7790   43.3600 C   0  0  0  0  0  0  0  0  0  0  0  0
   46.2670   33.9040   44.3960 N   0  0  0  0  0  0  0  0  0  0  0  0
   45.6440   33.9810   45.5770 C   0  0  0  0  0  0  0  0  0  0  0  0
   44.7450   34.9580   45.7910 N   0  0  0  0  0  0  0  0  0  0  0  0
   45.9150   33.0470   46.6150 N   0  0  0  0  0  0  0  0  0  0  0  0
   47.0650   32.1810   46.5910 C   0  0  0  0  0  0  0  0  0  0  0  0
   46.5800   30.7910   46.9270 C   0  0  0  0  0  0  0  0  0  0  0  0
   45.9930   30.7220   48.1780 O   0  0  0  0  0  0  0  0  0  0  0  0
   45.7190   31.9560   48.7350 C   0  0  0  0  0  0  0  0  0  0  0  0
   45.0470   32.9110   47.7570 C   0  0  0  0  0  0  0  0  0  0  0  0
   48.2291   35.9642   42.5752 H   0  0  0  0  0  0  0  0  0  0  0  0
   48.7500   34.2382   42.5570 H   0  0  0  0  0  0  0  0  0  0  0  0
   48.4929   36.1759   40.3322 H   0  0  0  0  0  0  0  0  0  0  0  0
   49.4983   34.7126   40.4577 H   0  0  0  0  0  0  0  0  0  0  0  0
   46.5908   34.1940   40.2610 H   0  0  0  0  0  0  0  0  0  0  0  0
   48.9312   35.5095   37.3449 H   0  0  0  0  0  0  0  0  0  0  0  0
   48.8578   33.5224   35.4911 H   0  0  0  0  0  0  0  0  0  0  0  0
   47.6726   31.5085   36.5616 H   0  0  0  0  0  0  0  0  0  0  0  0
   43.7353   36.6389   45.0305 H   0  0  0  0  0  0  0  0  0  0  0  0
   44.8742   36.5253   42.8218 H   0  0  0  0  0  0  0  0  0  0  0  0
   47.5231   32.1895   45.5910 H   0  0  0  0  0  0  0  0  0  0  0  0
   47.8235   32.5167   47.3134 H   0  0  0  0  0  0  0  0  0  0  0  0
   45.8404   30.4837   46.1730 H   0  0  0  0  0  0  0  0  0  0  0  0
   47.4547   30.1240   46.9313 H   0  0  0  0  0  0  0  0  0  0  0  0
   45.0529   31.8114   49.5984 H   0  0  0  0  0  0  0  0  0  0  0  0
   46.6786   32.4059   49.0296 H   0  0  0  0  0  0  0  0  0  0  0  0
   44.8970   33.8913   48.2330 H   0  0  0  0  0  0  0  0  0  0  0  0
   44.0643   32.5226   47.4513 H   0  0  0  0  0  0  0  0  0  0  0  0
  1  9  1  0
  2  1  1  0
  3  2  1  0
  4  3  1  0
  5  4  1  0
  6  7  1  0
  6  5  2  0
  7  8  1  0
  8  4  2  0
  9 12  1  0
 10 15  2  0
 11 10  1  0
 12 11  2  0
 12 13  1  0
 13 14  2  0
 14 15  1  0
 14 16  1  0
 16 21  1  0
 17 16  1  0
 17 18  1  0
 18 19  1  0
 19 20  1  0
 21 20  1  0
  1 22  1  0
  1 23  1  0
  2 24  1  0
  2 25  1  0
  3 26  1  0
  5 27  1  0
  6 28  1  0
  7 29  1  0
 10 30  1  0
 11 31  1  0
 17 32  1  0
 17 33  1  0
 18 34  1  0
 18 35  1  0
 20 36  1  0
 20 37  1  0
 21 38  1  0
 21 39  1  0
M  ISO  8  22   8  23   8  24   8  25   8  27  14  28  14  29   9  30  14
M  ISO  8  31  14  32  13  33  13  34  13  35  13  36  13  37  13  38  13
M  ISO  1  39  13
M  END
>  <minimizedAffinity>  (1) 
-5.81221676

>  <minimizedRMSD>  (1) 
0.34832409

$$$$
