
     RDKit          3D

 42 44  0  0  1  0  0  0  0  0999 V2000
   45.2660   34.5520   45.1260 C   0  0  0  0  0  0  0  0  0  0  0  0
   44.8770   34.2240   43.8420 C   0  0  0  0  0  0  0  0  0  0  0  0
   45.1840   32.9650   43.3320 C   0  0  0  0  0  0  0  0  0  0  0  0
   45.8750   32.1210   44.1830 N   0  0  0  0  0  0  0  0  0  0  0  0
   46.2400   32.4560   45.4170 C   0  0  0  0  0  0  0  0  0  0  0  0
   45.9290   33.6870   45.8880 N   0  0  0  0  0  0  0  0  0  0  0  0
   46.9440   31.5750   46.2670 N   0  0  0  0  0  0  0  0  0  0  0  0
   47.5900   30.3870   45.7350 C   0  0  0  0  0  0  0  0  0  0  0  0
   47.2380   29.2410   46.6300 C   0  0  0  0  0  0  0  0  0  0  0  0
   47.6220   29.4440   47.9480 O   0  0  0  0  0  0  0  0  0  0  0  0
   48.0820   30.7340   48.1920 C   0  0  0  0  0  0  0  0  0  0  0  0
   47.0850   31.7750   47.6740 C   0  0  2  0  0  0  0  0  0  0  0  0
   45.8100   31.7300   48.4690 C   0  0  0  0  0  0  0  0  0  0  0  0
   45.9590   31.0760   49.6760 F   0  0  0  0  0  0  0  0  0  0  0  0
   45.2980   33.0120   48.6650 F   0  0  0  0  0  0  0  0  0  0  0  0
   44.8270   31.0510   47.7890 F   0  0  0  0  0  0  0  0  0  0  0  0
   44.8790   32.4650   42.0760 O   0  0  0  0  0  0  0  0  0  0  0  0
   45.5570   32.9300   40.9190 C   0  0  0  0  0  0  0  0  0  0  0  0
   44.5790   33.4600   39.9110 C   0  0  0  0  0  0  0  0  0  0  0  0
   44.2150   34.7700   40.3340 N   0  0  0  0  0  0  0  0  0  0  0  0
   42.8310   35.1230   40.4300 C   0  0  0  0  0  0  0  0  0  0  0  0
   41.7520   34.9790   39.5830 C   0  0  0  0  0  0  0  0  0  0  0  0
   40.7010   35.5640   40.3060 C   0  0  0  0  0  0  0  0  0  0  0  0
   41.1600   36.0040   41.4800 N   0  0  0  0  0  0  0  0  0  0  0  0
   42.4580   35.7410   41.5680 N   0  0  0  0  0  0  0  0  0  0  0  0
   45.0228   35.5475   45.5258 H   0  0  0  0  0  0  0  0  0  0  0  0
   44.3285   34.9522   43.2265 H   0  0  0  0  0  0  0  0  0  0  0  0
   47.2305   30.1899   44.7143 H   0  0  0  0  0  0  0  0  0  0  0  0
   48.6806   30.5253   45.6956 H   0  0  0  0  0  0  0  0  0  0  0  0
   46.1480   29.0956   46.6010 H   0  0  0  0  0  0  0  0  0  0  0  0
   47.7803   28.3576   46.2618 H   0  0  0  0  0  0  0  0  0  0  0  0
   48.2152   30.8703   49.2754 H   0  0  0  0  0  0  0  0  0  0  0  0
   49.0392   30.8717   47.6677 H   0  0  0  0  0  0  0  0  0  0  0  0
   47.4438   32.8049   47.8172 H   0  0  0  0  0  0  0  0  0  0  0  0
   46.2519   33.7331   41.2055 H   0  0  0  0  0  0  0  0  0  0  0  0
   46.1093   32.0911   40.4703 H   0  0  0  0  0  0  0  0  0  0  0  0
   43.6891   32.8145   39.8722 H   0  0  0  0  0  0  0  0  0  0  0  0
   45.0241   33.4814   38.9053 H   0  0  0  0  0  0  0  0  0  0  0  0
   44.9431   35.4594   40.5695 H   0  0  0  0  0  0  0  0  0  0  0  0
   41.7225   34.5182   38.5846 H   0  0  0  0  0  0  0  0  0  0  0  0
   39.6604   35.6471   39.9592 H   0  0  0  0  0  0  0  0  0  0  0  0
   40.5961   36.4733   42.2030 H   0  0  0  0  0  0  0  0  0  0  0  0
  1  6  2  0
  2  1  1  0
  3  2  2  0
  3  4  1  0
  4  5  2  0
  5  6  1  0
  5  7  1  0
  7 12  1  0
  8  7  1  0
  8  9  1  0
  9 10  1  0
 10 11  1  0
 12 11  1  0
 12 13  1  0
 13 15  1  0
 13 14  1  0
 16 13  1  0
 17  3  1  0
 18 17  1  0
 19 20  1  0
 19 18  1  0
 20 21  1  0
 21 25  2  0
 22 23  2  0
 22 21  1  0
 23 24  1  0
 24 25  1  0
  1 26  1  0
  2 27  1  0
  8 28  1  0
  8 29  1  0
  9 30  1  0
  9 31  1  0
 11 32  1  0
 11 33  1  0
 12 34  1  6
 18 35  1  0
 18 36  1  0
 19 37  1  0
 19 38  1  0
 20 39  1  0
 22 40  1  0
 23 41  1  0
 24 42  1  0
M  ISO  8  26  14  27  14  28  13  29  13  30  13  31  13  32  13  33  13
M  ISO  8  34  13  35   8  36   8  37   8  38   8  40  14  41  14  42   9
M  END
>  <minimizedAffinity>  (1) 
-5.70290089

>  <minimizedRMSD>  (1) 
4.02767372

$$$$
