
     RDKit          3D

 48 50  0  0  1  0  0  0  0  0999 V2000
   44.6460   35.2650   45.7010 C   0  0  0  0  0  0  0  0  0  0  0  0
   44.4150   35.6630   44.3910 C   0  0  0  0  0  0  0  0  0  0  0  0
   44.9330   34.8990   43.3450 C   0  0  0  0  0  0  0  0  0  0  0  0
   45.6400   33.7950   43.7190 N   0  0  0  0  0  0  0  0  0  0  0  0
   45.8570   33.4190   44.9810 C   0  0  0  0  0  0  0  0  0  0  0  0
   45.3460   34.1770   45.9740 N   0  0  0  0  0  0  0  0  0  0  0  0
   46.5930   32.2660   45.3280 N   0  0  0  0  0  0  0  0  0  0  0  0
   47.4600   31.6250   44.3470 C   0  0  0  0  0  0  0  0  0  0  0  0
   47.2370   30.1590   44.4360 C   0  0  0  0  0  0  0  0  0  0  0  0
   47.4490   29.6280   45.7020 O   0  0  0  0  0  0  0  0  0  0  0  0
   47.7290   30.6230   46.6380 C   0  0  0  0  0  0  0  0  0  0  0  0
   46.5880   31.6730   46.6220 C   0  0  2  0  0  0  0  0  0  0  0  0
   45.3810   31.0690   47.1850 C   0  0  0  0  0  0  0  0  0  0  0  0
   44.7340   31.7650   48.3490 C   0  0  0  0  0  0  0  0  0  0  0  0
   45.4480   29.5820   47.3760 C   0  0  0  0  0  0  0  0  0  0  0  0
   44.8030   35.1460   41.9900 O   0  0  0  0  0  0  0  0  0  0  0  0
   45.1190   34.1370   41.0370 C   0  0  0  0  0  0  0  0  0  0  0  0
   43.8550   33.5960   40.4190 C   0  0  0  0  0  0  0  0  0  0  0  0
   43.7560   34.1520   39.1030 N   0  0  0  0  0  0  0  0  0  0  0  0
   42.4440   34.3790   38.5870 C   0  0  0  0  0  0  0  0  0  0  0  0
   41.2720   33.6790   38.5090 C   0  0  0  0  0  0  0  0  0  0  0  0
   40.3930   34.5580   37.8610 C   0  0  0  0  0  0  0  0  0  0  0  0
   41.0180   35.6940   37.5850 N   0  0  0  0  0  0  0  0  0  0  0  0
   42.2680   35.5950   38.0220 N   0  0  0  0  0  0  0  0  0  0  0  0
   44.2389   35.8662   46.5274 H   0  0  0  0  0  0  0  0  0  0  0  0
   43.8301   36.5705   44.1803 H   0  0  0  0  0  0  0  0  0  0  0  0
   48.5121   31.8579   44.5681 H   0  0  0  0  0  0  0  0  0  0  0  0
   47.2306   31.9886   43.3345 H   0  0  0  0  0  0  0  0  0  0  0  0
   46.1975   29.9495   44.1434 H   0  0  0  0  0  0  0  0  0  0  0  0
   47.9709   29.6858   43.7671 H   0  0  0  0  0  0  0  0  0  0  0  0
   47.8031   30.1753   47.6400 H   0  0  0  0  0  0  0  0  0  0  0  0
   48.6829   31.1096   46.3863 H   0  0  0  0  0  0  0  0  0  0  0  0
   46.6991   32.5431   47.2857 H   0  0  0  0  0  0  0  0  0  0  0  0
   44.6785   31.2523   46.3586 H   0  0  0  0  0  0  0  0  0  0  0  0
   45.1231   31.3464   49.2889 H   0  0  0  0  0  0  0  0  0  0  0  0
   44.9605   32.8405   48.3051 H   0  0  0  0  0  0  0  0  0  0  0  0
   43.6448   31.6175   48.3051 H   0  0  0  0  0  0  0  0  0  0  0  0
   45.4584   29.3505   48.4513 H   0  0  0  0  0  0  0  0  0  0  0  0
   44.5701   29.1123   46.9083 H   0  0  0  0  0  0  0  0  0  0  0  0
   46.3646   29.1932   46.9083 H   0  0  0  0  0  0  0  0  0  0  0  0
   45.7546   34.5669   40.2488 H   0  0  0  0  0  0  0  0  0  0  0  0
   45.6525   33.3183   41.5421 H   0  0  0  0  0  0  0  0  0  0  0  0
   43.9031   32.4985   40.3619 H   0  0  0  0  0  0  0  0  0  0  0  0
   42.9773   33.8665   41.0244 H   0  0  0  0  0  0  0  0  0  0  0  0
   44.5960   34.3787   38.5517 H   0  0  0  0  0  0  0  0  0  0  0  0
   41.0663   32.6609   38.8712 H   0  0  0  0  0  0  0  0  0  0  0  0
   39.3429   34.3382   37.6181 H   0  0  0  0  0  0  0  0  0  0  0  0
   40.6056   36.5116   37.1134 H   0  0  0  0  0  0  0  0  0  0  0  0
  1  6  2  0
  2  1  1  0
  3  4  1  0
  3  2  2  0
  4  5  2  0
  5  7  1  0
  5  6  1  0
  7 12  1  0
  8  9  1  0
  8  7  1  0
  9 10  1  0
 10 11  1  0
 12 11  1  0
 12 13  1  0
 13 15  1  0
 13 14  1  0
 16  3  1  0
 17 16  1  0
 18 17  1  0
 19 18  1  0
 20 19  1  0
 21 20  1  0
 22 21  2  0
 23 22  1  0
 23 24  1  0
 24 20  2  0
  1 25  1  0
  2 26  1  0
  8 27  1  0
  8 28  1  0
  9 29  1  0
  9 30  1  0
 11 31  1  0
 11 32  1  0
 12 33  1  1
 13 34  1  0
 14 35  1  0
 14 36  1  0
 14 37  1  0
 15 38  1  0
 15 39  1  0
 15 40  1  0
 17 41  1  0
 17 42  1  0
 18 43  1  0
 18 44  1  0
 19 45  1  0
 21 46  1  0
 22 47  1  0
 23 48  1  0
M  ISO  8  25  14  26  14  27  13  28  13  29  13  30  13  31  13  32  13
M  ISO  8  33  13  34   8  35   8  36   8  37   8  38   8  39   8  40   8
M  ISO  7  41   8  42   8  43   8  44   8  46  14  47  14  48   9
M  END
>  <minimizedAffinity>  (1) 
-5.58633661

>  <minimizedRMSD>  (1) 
3.89061761

$$$$
