
     RDKit          3D

 55 58  0  0  1  0  0  0  0  0999 V2000
   44.6540   35.3100   45.3100 C   0  0  0  0  0  0  0  0  0  0  0  0
   45.1530   35.6510   44.0570 C   0  0  0  0  0  0  0  0  0  0  0  0
   46.0850   34.8150   43.4370 C   0  0  0  0  0  0  0  0  0  0  0  0
   46.4370   33.7060   44.1330 N   0  0  0  0  0  0  0  0  0  0  0  0
   45.9370   33.3990   45.3490 C   0  0  0  0  0  0  0  0  0  0  0  0
   45.0490   34.2100   45.9200 N   0  0  0  0  0  0  0  0  0  0  0  0
   46.3580   32.2080   46.0190 N   0  0  0  0  0  0  0  0  0  0  0  0
   47.5190   31.4750   45.6440 C   0  0  0  0  0  0  0  0  0  0  0  0
   47.1090   30.0220   45.5790 C   0  0  0  0  0  0  0  0  0  0  0  0
   46.6470   29.5390   46.7860 O   0  0  0  0  0  0  0  0  0  0  0  0
   46.4160   30.5220   47.7150 C   0  0  0  0  0  0  0  0  0  0  0  0
   45.6180   31.6810   47.1260 C   0  0  1  0  0  0  0  0  0  0  0  0
   45.1910   32.6470   48.1580 C   0  0  0  0  0  0  0  0  0  0  0  0
   46.6750   35.0100   42.1990 O   0  0  0  0  0  0  0  0  0  0  0  0
   48.0980   34.9760   42.0610 C   0  0  0  0  0  0  0  0  0  0  0  0
   48.4790   35.1050   40.6280 C   0  0  0  0  0  0  0  0  0  0  0  0
   47.5180   34.4040   39.8460 N   0  0  0  0  0  0  0  0  0  0  0  0
   47.8700   33.9380   38.5320 C   0  0  0  0  0  0  0  0  0  0  0  0
   48.4490   34.5620   37.4490 C   0  0  0  0  0  0  0  0  0  0  0  0
   48.5150   33.5510   36.4870 C   0  0  0  0  0  0  0  0  0  0  0  0
   48.0060   32.4330   36.9980 N   0  0  0  0  0  0  0  0  0  0  0  0
   47.6080   32.6480   38.2410 N   0  0  0  0  0  0  0  0  0  0  0  0
   47.9140   31.1640   36.2590 C   0  0  0  0  0  0  0  0  0  0  0  0
   47.0710   31.3770   35.0230 C   0  0  0  0  0  0  0  0  0  0  0  0
   47.9230   30.9450   33.8560 C   0  0  0  0  0  0  0  0  0  0  0  0
   49.3120   31.3260   34.3000 C   0  0  0  0  0  0  0  0  0  0  0  0
   49.3070   30.8280   35.7340 C   0  0  0  0  0  0  0  0  0  0  0  0
   43.9197   35.9673   45.7986 H   0  0  0  0  0  0  0  0  0  0  0  0
   44.8163   36.5718   43.5582 H   0  0  0  0  0  0  0  0  0  0  0  0
   47.8798   31.8120   44.6610 H   0  0  0  0  0  0  0  0  0  0  0  0
   48.3342   31.6255   46.3670 H   0  0  0  0  0  0  0  0  0  0  0  0
   46.3104   29.9160   44.8299 H   0  0  0  0  0  0  0  0  0  0  0  0
   48.0025   29.4391   45.3109 H   0  0  0  0  0  0  0  0  0  0  0  0
   45.8518   30.0920   48.5557 H   0  0  0  0  0  0  0  0  0  0  0  0
   47.3886   30.9116   48.0500 H   0  0  0  0  0  0  0  0  0  0  0  0
   44.6513   31.3431   46.7243 H   0  0  0  0  0  0  0  0  0  0  0  0
   45.3780   32.2239   49.1560 H   0  0  0  0  0  0  0  0  0  0  0  0
   45.7599   33.5814   48.0434 H   0  0  0  0  0  0  0  0  0  0  0  0
   44.1170   32.8552   48.0434 H   0  0  0  0  0  0  0  0  0  0  0  0
   48.5382   35.8080   42.6303 H   0  0  0  0  0  0  0  0  0  0  0  0
   48.4731   34.0167   42.4470 H   0  0  0  0  0  0  0  0  0  0  0  0
   48.4902   36.1666   40.3400 H   0  0  0  0  0  0  0  0  0  0  0  0
   49.4820   34.6846   40.4628 H   0  0  0  0  0  0  0  0  0  0  0  0
   46.5740   34.2312   40.2200 H   0  0  0  0  0  0  0  0  0  0  0  0
   48.7804   35.6073   37.3623 H   0  0  0  0  0  0  0  0  0  0  0  0
   48.9221   33.6615   35.4711 H   0  0  0  0  0  0  0  0  0  0  0  0
   47.4987   30.3849   36.9152 H   0  0  0  0  0  0  0  0  0  0  0  0
   46.1569   30.7673   35.0747 H   0  0  0  0  0  0  0  0  0  0  0  0
   46.7588   32.4273   34.9256 H   0  0  0  0  0  0  0  0  0  0  0  0
   47.6392   31.4806   32.9381 H   0  0  0  0  0  0  0  0  0  0  0  0
   47.8203   29.8772   33.6126 H   0  0  0  0  0  0  0  0  0  0  0  0
   50.0812   30.8186   33.6992 H   0  0  0  0  0  0  0  0  0  0  0  0
   49.5437   32.3960   34.1933 H   0  0  0  0  0  0  0  0  0  0  0  0
   49.4824   29.7426   35.7678 H   0  0  0  0  0  0  0  0  0  0  0  0
   50.1010   31.2922   36.3373 H   0  0  0  0  0  0  0  0  0  0  0  0
  1  6  2  0
  2  1  1  0
  3  2  2  0
  3  4  1  0
  4  5  2  0
  5  6  1  0
  5  7  1  0
  7 12  1  0
  8  7  1  0
  9  8  1  0
  9 10  1  0
 10 11  1  0
 12 11  1  0
 12 13  1  0
 14  3  1  0
 15 14  1  0
 16 15  1  0
 17 16  1  0
 18 17  1  0
 19 18  1  0
 20 21  1  0
 20 19  2  0
 21 22  1  0
 22 18  2  0
 23 21  1  0
 24 23  1  0
 25 26  1  0
 25 24  1  0
 26 27  1  0
 27 23  1  0
  1 28  1  0
  2 29  1  0
  8 30  1  0
  8 31  1  0
  9 32  1  0
  9 33  1  0
 11 34  1  0
 11 35  1  0
 12 36  1  6
 13 37  1  0
 13 38  1  0
 13 39  1  0
 15 40  1  0
 15 41  1  0
 16 42  1  0
 16 43  1  0
 17 44  1  0
 19 45  1  0
 20 46  1  0
 23 47  1  0
 24 48  1  0
 24 49  1  0
 25 50  1  0
 25 51  1  0
 26 52  1  0
 26 53  1  0
 27 54  1  0
 27 55  1  0
M  ISO  8  28  14  29  14  30  13  31  13  32  13  33  13  34  13  35  13
M  ISO  8  36  13  37   8  38   8  39   8  40   8  41   8  42   8  43   8
M  ISO  8  45  14  46  14  47  13  48  13  49  13  50  13  51  13  52  13
M  ISO  3  53  13  54  13  55  13
M  END
>  <minimizedAffinity>  (1) 
-5.77324247

>  <minimizedRMSD>  (1) 
0.225690782

$$$$
