
     RDKit          3D

 54 57  0  0  1  0  0  0  0  0999 V2000
   44.6620   35.2940   45.3090 C   0  0  0  0  0  0  0  0  0  0  0  0
   45.1670   35.6360   44.0620 C   0  0  0  0  0  0  0  0  0  0  0  0
   46.1020   34.8020   43.4390 C   0  0  0  0  0  0  0  0  0  0  0  0
   46.4470   33.6850   44.1390 N   0  0  0  0  0  0  0  0  0  0  0  0
   45.9440   33.3750   45.3480 C   0  0  0  0  0  0  0  0  0  0  0  0
   45.0560   34.1850   45.9190 N   0  0  0  0  0  0  0  0  0  0  0  0
   46.3490   32.1920   46.0240 N   0  0  0  0  0  0  0  0  0  0  0  0
   47.5340   31.4670   45.6500 C   0  0  0  0  0  0  0  0  0  0  0  0
   47.1290   30.0100   45.5950 C   0  0  0  0  0  0  0  0  0  0  0  0
   46.7010   29.5350   46.8170 O   0  0  0  0  0  0  0  0  0  0  0  0
   46.4180   30.5150   47.7240 C   0  0  0  0  0  0  0  0  0  0  0  0
   45.5930   31.6530   47.1220 C   0  0  1  0  0  0  0  0  0  0  0  0
   45.2100   32.6350   48.1700 C   0  0  0  0  0  0  0  0  0  0  0  0
   46.7000   34.9960   42.2030 O   0  0  0  0  0  0  0  0  0  0  0  0
   48.1020   34.9600   42.0570 C   0  0  0  0  0  0  0  0  0  0  0  0
   48.4870   35.0950   40.6210 C   0  0  0  0  0  0  0  0  0  0  0  0
   47.5020   34.4250   39.8370 N   0  0  0  0  0  0  0  0  0  0  0  0
   47.8490   33.9370   38.5330 C   0  0  0  0  0  0  0  0  0  0  0  0
   48.4280   34.5190   37.4410 C   0  0  0  0  0  0  0  0  0  0  0  0
   48.4940   33.5180   36.4890 C   0  0  0  0  0  0  0  0  0  0  0  0
   47.9750   32.4050   37.0140 N   0  0  0  0  0  0  0  0  0  0  0  0
   47.5750   32.6390   38.2610 N   0  0  0  0  0  0  0  0  0  0  0  0
   46.4830   30.8150   35.9790 N   0  0  0  0  0  0  0  0  0  0  0  0
   46.6550   29.6610   35.1110 C   0  0  0  0  0  0  0  0  0  0  0  0
   47.9490   29.9020   34.3570 C   0  0  0  0  0  0  0  0  0  0  0  0
   48.5540   31.1200   35.0230 C   0  0  0  0  0  0  0  0  0  0  0  0
   47.8330   31.0960   36.3780 C   0  0  1  0  0  0  0  0  0  0  0  0
   43.9265   35.9508   45.7965 H   0  0  0  0  0  0  0  0  0  0  0  0
   44.8334   36.5591   43.5655 H   0  0  0  0  0  0  0  0  0  0  0  0
   47.8926   31.8018   44.6655 H   0  0  0  0  0  0  0  0  0  0  0  0
   48.3515   31.6320   46.3672 H   0  0  0  0  0  0  0  0  0  0  0  0
   46.3120   29.8981   44.8670 H   0  0  0  0  0  0  0  0  0  0  0  0
   48.0146   29.4275   45.3012 H   0  0  0  0  0  0  0  0  0  0  0  0
   45.8520   30.0717   48.5565 H   0  0  0  0  0  0  0  0  0  0  0  0
   47.3738   30.9402   48.0641 H   0  0  0  0  0  0  0  0  0  0  0  0
   44.6291   31.3054   46.7220 H   0  0  0  0  0  0  0  0  0  0  0  0
   45.3812   32.1960   49.1640 H   0  0  0  0  0  0  0  0  0  0  0  0
   45.8194   33.5442   48.0608 H   0  0  0  0  0  0  0  0  0  0  0  0
   44.1459   32.8915   48.0608 H   0  0  0  0  0  0  0  0  0  0  0  0
   48.5459   35.7880   42.6292 H   0  0  0  0  0  0  0  0  0  0  0  0
   48.4719   33.9946   42.4329 H   0  0  0  0  0  0  0  0  0  0  0  0
   48.5256   36.1586   40.3430 H   0  0  0  0  0  0  0  0  0  0  0  0
   49.4794   34.6532   40.4477 H   0  0  0  0  0  0  0  0  0  0  0  0
   46.5488   34.2924   40.2040 H   0  0  0  0  0  0  0  0  0  0  0  0
   48.7685   35.5601   37.3405 H   0  0  0  0  0  0  0  0  0  0  0  0
   48.9038   33.6209   35.4734 H   0  0  0  0  0  0  0  0  0  0  0  0
   45.8929   30.5867   36.7917 H   0  0  0  0  0  0  0  0  0  0  0  0
   46.7250   28.7396   35.7077 H   0  0  0  0  0  0  0  0  0  0  0  0
   45.8033   29.5385   34.4258 H   0  0  0  0  0  0  0  0  0  0  0  0
   47.7485   30.0995   33.2936 H   0  0  0  0  0  0  0  0  0  0  0  0
   48.6202   29.0311   34.3885 H   0  0  0  0  0  0  0  0  0  0  0  0
   49.6427   31.0172   35.1420 H   0  0  0  0  0  0  0  0  0  0  0  0
   48.4305   32.0559   34.4583 H   0  0  0  0  0  0  0  0  0  0  0  0
   48.2117   30.3711   37.1136 H   0  0  0  0  0  0  0  0  0  0  0  0
  1  6  2  0
  2  1  1  0
  3  2  2  0
  3  4  1  0
  4  5  2  0
  5  6  1  0
  5  7  1  0
  7 12  1  0
  8  7  1  0
  9  8  1  0
  9 10  1  0
 10 11  1  0
 12 11  1  0
 12 13  1  0
 14  3  1  0
 15 14  1  0
 16 15  1  0
 17 16  1  0
 18 17  1  0
 19 18  1  0
 20 21  1  0
 20 19  2  0
 21 22  1  0
 22 18  2  0
 23 27  1  0
 24 23  1  0
 25 26  1  0
 25 24  1  0
 27 26  1  0
 27 21  1  0
  1 28  1  0
  2 29  1  0
  8 30  1  0
  8 31  1  0
  9 32  1  0
  9 33  1  0
 11 34  1  0
 11 35  1  0
 12 36  1  6
 13 37  1  0
 13 38  1  0
 13 39  1  0
 15 40  1  0
 15 41  1  0
 16 42  1  0
 16 43  1  0
 17 44  1  0
 19 45  1  0
 20 46  1  0
 23 47  1  0
 24 48  1  0
 24 49  1  0
 25 50  1  0
 25 51  1  0
 26 52  1  0
 26 53  1  0
 27 54  1  1
M  ISO  8  28  14  29  14  30  13  31  13  32  13  33  13  34  13  35  13
M  ISO  8  36  13  37   8  38   8  39   8  40   8  41   8  42   8  43   8
M  ISO  8  45  14  46  14  47   5  48  13  49  13  50  13  51  13  52  13
M  ISO  2  53  13  54  13
M  END
>  <minimizedAffinity>  (1) 
-5.64599037

>  <minimizedRMSD>  (1) 
0.193096921

$$$$
