
     RDKit          3D

 49 52  0  0  1  0  0  0  0  0999 V2000
   44.6580   35.3080   45.3100 C   0  0  0  0  0  0  0  0  0  0  0  0
   45.1600   35.6390   44.0560 C   0  0  0  0  0  0  0  0  0  0  0  0
   46.0890   34.8100   43.4390 C   0  0  0  0  0  0  0  0  0  0  0  0
   46.4420   33.6980   44.1460 N   0  0  0  0  0  0  0  0  0  0  0  0
   45.9390   33.3980   45.3640 C   0  0  0  0  0  0  0  0  0  0  0  0
   45.0510   34.2110   45.9290 N   0  0  0  0  0  0  0  0  0  0  0  0
   46.3670   32.2080   46.0330 N   0  0  0  0  0  0  0  0  0  0  0  0
   47.5280   31.4750   45.6660 C   0  0  0  0  0  0  0  0  0  0  0  0
   47.1230   30.0200   45.6000 C   0  0  0  0  0  0  0  0  0  0  0  0
   46.6640   29.5420   46.8120 O   0  0  0  0  0  0  0  0  0  0  0  0
   46.4290   30.5370   47.7400 C   0  0  0  0  0  0  0  0  0  0  0  0
   45.6240   31.6830   47.1370 C   0  0  1  0  0  0  0  0  0  0  0  0
   45.1600   32.6440   48.1570 C   0  0  0  0  0  0  0  0  0  0  0  0
   46.6820   34.9950   42.2040 O   0  0  0  0  0  0  0  0  0  0  0  0
   48.1030   34.9660   42.0680 C   0  0  0  0  0  0  0  0  0  0  0  0
   48.4980   35.1050   40.6350 C   0  0  0  0  0  0  0  0  0  0  0  0
   47.5120   34.4460   39.8430 N   0  0  0  0  0  0  0  0  0  0  0  0
   47.8500   33.9390   38.5430 C   0  0  0  0  0  0  0  0  0  0  0  0
   48.4400   34.5200   37.4500 C   0  0  0  0  0  0  0  0  0  0  0  0
   48.4890   33.5060   36.5050 C   0  0  0  0  0  0  0  0  0  0  0  0
   47.9550   32.4060   37.0340 N   0  0  0  0  0  0  0  0  0  0  0  0
   47.5600   32.6540   38.2770 N   0  0  0  0  0  0  0  0  0  0  0  0
   47.8010   31.1240   36.4070 C   0  0  0  0  0  0  0  0  0  0  0  0
   47.8220   29.7840   36.7220 C   0  0  0  0  0  0  0  0  0  0  0  0
   47.5890   29.1020   35.5710 N   0  0  0  0  0  0  0  0  0  0  0  0
   47.4280   29.9900   34.5600 C   0  0  0  0  0  0  0  0  0  0  0  0
   47.5570   31.2290   35.0700 N   0  0  0  0  0  0  0  0  0  0  0  0
   43.9234   35.9696   45.7923 H   0  0  0  0  0  0  0  0  0  0  0  0
   44.8218   36.5568   43.5527 H   0  0  0  0  0  0  0  0  0  0  0  0
   47.8936   31.8112   44.6845 H   0  0  0  0  0  0  0  0  0  0  0  0
   48.3375   31.6268   46.3951 H   0  0  0  0  0  0  0  0  0  0  0  0
   46.3238   29.9101   44.8522 H   0  0  0  0  0  0  0  0  0  0  0  0
   48.0154   29.4373   45.3278 H   0  0  0  0  0  0  0  0  0  0  0  0
   45.8683   30.1122   48.5856 H   0  0  0  0  0  0  0  0  0  0  0  0
   47.3989   30.9342   48.0741 H   0  0  0  0  0  0  0  0  0  0  0  0
   44.6653   31.3346   46.7254 H   0  0  0  0  0  0  0  0  0  0  0  0
   45.3563   32.2374   49.1601 H   0  0  0  0  0  0  0  0  0  0  0  0
   45.6978   33.5959   48.0355 H   0  0  0  0  0  0  0  0  0  0  0  0
   44.0802   32.8148   48.0355 H   0  0  0  0  0  0  0  0  0  0  0  0
   48.5381   35.7955   42.6448 H   0  0  0  0  0  0  0  0  0  0  0  0
   48.4752   34.0024   42.4460 H   0  0  0  0  0  0  0  0  0  0  0  0
   48.5463   36.1695   40.3621 H   0  0  0  0  0  0  0  0  0  0  0  0
   49.4882   34.6571   40.4651 H   0  0  0  0  0  0  0  0  0  0  0  0
   46.5542   34.3334   40.2048 H   0  0  0  0  0  0  0  0  0  0  0  0
   48.7944   35.5562   37.3462 H   0  0  0  0  0  0  0  0  0  0  0  0
   48.9001   33.5951   35.4886 H   0  0  0  0  0  0  0  0  0  0  0  0
   47.9947   29.3484   37.7172 H   0  0  0  0  0  0  0  0  0  0  0  0
   47.2271   29.7418   33.5074 H   0  0  0  0  0  0  0  0  0  0  0  0
   47.4837   32.1086   34.5392 H   0  0  0  0  0  0  0  0  0  0  0  0
  1  6  2  0
  2  1  1  0
  3  2  2  0
  3  4  1  0
  4  5  2  0
  5  6  1  0
  5  7  1  0
  7 12  1  0
  8  7  1  0
  9  8  1  0
  9 10  1  0
 10 11  1  0
 12 11  1  0
 12 13  1  0
 14  3  1  0
 15 14  1  0
 16 15  1  0
 17 16  1  0
 18 17  1  0
 19 18  1  0
 20 21  1  0
 20 19  2  0
 21 22  1  0
 22 18  2  0
 23 24  2  0
 23 21  1  0
 25 24  1  0
 26 27  1  0
 26 25  2  0
 27 23  1  0
  1 28  1  0
  2 29  1  0
  8 30  1  0
  8 31  1  0
  9 32  1  0
  9 33  1  0
 11 34  1  0
 11 35  1  0
 12 36  1  6
 13 37  1  0
 13 38  1  0
 13 39  1  0
 15 40  1  0
 15 41  1  0
 16 42  1  0
 16 43  1  0
 17 44  1  0
 19 45  1  0
 20 46  1  0
 24 47  1  0
 26 48  1  0
 27 49  1  0
M  ISO  8  28  14  29  14  30  13  31  13  32  13  33  13  34  13  35  13
M  ISO  8  36  13  37   8  38   8  39   8  40   8  41   8  42   8  43   8
M  ISO  5  45  14  46  14  47  14  48  14  49   9
M  END
>  <minimizedAffinity>  (1) 
-5.58928776

>  <minimizedRMSD>  (1) 
0.179814115

$$$$
