
     RDKit          3D

 45 47  0  0  1  0  0  0  0  0999 V2000
   44.6550   35.3090   45.3140 C   0  0  0  0  0  0  0  0  0  0  0  0
   45.1550   35.6480   44.0590 C   0  0  0  0  0  0  0  0  0  0  0  0
   46.0820   34.8140   43.4360 C   0  0  0  0  0  0  0  0  0  0  0  0
   46.4400   33.6960   44.1320 N   0  0  0  0  0  0  0  0  0  0  0  0
   45.9400   33.3940   45.3460 C   0  0  0  0  0  0  0  0  0  0  0  0
   45.0530   34.2060   45.9210 N   0  0  0  0  0  0  0  0  0  0  0  0
   46.3590   32.2050   46.0150 N   0  0  0  0  0  0  0  0  0  0  0  0
   47.5180   31.4720   45.6360 C   0  0  0  0  0  0  0  0  0  0  0  0
   47.1180   30.0160   45.5710 C   0  0  0  0  0  0  0  0  0  0  0  0
   46.6520   29.5330   46.7770 O   0  0  0  0  0  0  0  0  0  0  0  0
   46.4240   30.5150   47.7060 C   0  0  0  0  0  0  0  0  0  0  0  0
   45.6260   31.6750   47.1210 C   0  0  1  0  0  0  0  0  0  0  0  0
   45.2090   32.6420   48.1590 C   0  0  0  0  0  0  0  0  0  0  0  0
   46.6710   35.0090   42.1970 O   0  0  0  0  0  0  0  0  0  0  0  0
   48.0940   35.0060   42.0630 C   0  0  0  0  0  0  0  0  0  0  0  0
   48.4870   35.1310   40.6300 C   0  0  0  0  0  0  0  0  0  0  0  0
   47.5260   34.4410   39.8570 N   0  0  0  0  0  0  0  0  0  0  0  0
   47.8610   33.9250   38.5570 C   0  0  0  0  0  0  0  0  0  0  0  0
   48.4350   34.5150   37.4550 C   0  0  0  0  0  0  0  0  0  0  0  0
   48.4870   33.4920   36.5160 C   0  0  0  0  0  0  0  0  0  0  0  0
   47.9690   32.3810   37.0620 N   0  0  0  0  0  0  0  0  0  0  0  0
   47.5840   32.6250   38.3000 N   0  0  0  0  0  0  0  0  0  0  0  0
   47.8730   31.1240   36.3450 C   0  0  0  0  0  0  0  0  0  0  0  0
   46.5570   30.6910   36.2370 F   0  0  0  0  0  0  0  0  0  0  0  0
   48.3490   31.2560   35.0580 F   0  0  0  0  0  0  0  0  0  0  0  0
   48.6130   30.1500   36.9800 F   0  0  0  0  0  0  0  0  0  0  0  0
   43.9217   35.9663   45.8041 H   0  0  0  0  0  0  0  0  0  0  0  0
   44.8197   36.5700   43.5616 H   0  0  0  0  0  0  0  0  0  0  0  0
   47.8739   31.8103   44.6517 H   0  0  0  0  0  0  0  0  0  0  0  0
   48.3325   31.6235   46.3596 H   0  0  0  0  0  0  0  0  0  0  0  0
   46.3246   29.9032   44.8175 H   0  0  0  0  0  0  0  0  0  0  0  0
   48.0165   29.4381   45.3088 H   0  0  0  0  0  0  0  0  0  0  0  0
   45.8615   30.0848   48.5478 H   0  0  0  0  0  0  0  0  0  0  0  0
   47.3980   30.9037   48.0381 H   0  0  0  0  0  0  0  0  0  0  0  0
   44.6587   31.3364   46.7215 H   0  0  0  0  0  0  0  0  0  0  0  0
   45.3939   32.2133   49.1550 H   0  0  0  0  0  0  0  0  0  0  0  0
   45.7862   33.5717   48.0471 H   0  0  0  0  0  0  0  0  0  0  0  0
   44.1367   32.8604   48.0471 H   0  0  0  0  0  0  0  0  0  0  0  0
   48.5120   35.8525   42.6275 H   0  0  0  0  0  0  0  0  0  0  0  0
   48.4850   34.0560   42.4561 H   0  0  0  0  0  0  0  0  0  0  0  0
   48.5096   36.1916   40.3393 H   0  0  0  0  0  0  0  0  0  0  0  0
   49.4883   34.7056   40.4676 H   0  0  0  0  0  0  0  0  0  0  0  0
   46.5750   34.3061   40.2288 H   0  0  0  0  0  0  0  0  0  0  0  0
   48.7742   35.5554   37.3430 H   0  0  0  0  0  0  0  0  0  0  0  0
   48.8864   33.5785   35.4947 H   0  0  0  0  0  0  0  0  0  0  0  0
  1  6  2  0
  2  1  1  0
  3  2  2  0
  3  4  1  0
  4  5  2  0
  5  6  1  0
  5  7  1  0
  7 12  1  0
  8  7  1  0
  9  8  1  0
  9 10  1  0
 10 11  1  0
 12 11  1  0
 12 13  1  0
 14  3  1  0
 15 14  1  0
 16 15  1  0
 17 16  1  0
 18 17  1  0
 19 18  1  0
 20 21  1  0
 20 19  2  0
 21 22  1  0
 22 18  2  0
 23 26  1  0
 23 21  1  0
 24 23  1  0
 25 23  1  0
  1 27  1  0
  2 28  1  0
  8 29  1  0
  8 30  1  0
  9 31  1  0
  9 32  1  0
 11 33  1  0
 11 34  1  0
 12 35  1  6
 13 36  1  0
 13 37  1  0
 13 38  1  0
 15 39  1  0
 15 40  1  0
 16 41  1  0
 16 42  1  0
 17 43  1  0
 19 44  1  0
 20 45  1  0
M  ISO  8  27  14  28  14  29  13  30  13  31  13  32  13  33  13  34  13
M  ISO  8  35  13  36   8  37   8  38   8  39   8  40   8  41   8  42   8
M  ISO  2  44  14  45  14
M  END
>  <minimizedAffinity>  (1) 
-5.53228426

>  <minimizedRMSD>  (1) 
0.129602909

$$$$
