
     RDKit          3D

 45 47  0  0  1  0  0  0  0  0999 V2000
   44.6660   35.3000   45.3050 C   0  0  0  0  0  0  0  0  0  0  0  0
   45.1620   35.6410   44.0510 C   0  0  0  0  0  0  0  0  0  0  0  0
   46.0900   34.8100   43.4180 C   0  0  0  0  0  0  0  0  0  0  0  0
   46.4430   33.6940   44.1100 N   0  0  0  0  0  0  0  0  0  0  0  0
   45.9520   33.3800   45.3250 C   0  0  0  0  0  0  0  0  0  0  0  0
   45.0650   34.1930   45.9070 N   0  0  0  0  0  0  0  0  0  0  0  0
   46.3700   32.1910   45.9880 N   0  0  0  0  0  0  0  0  0  0  0  0
   47.5250   31.4560   45.5990 C   0  0  0  0  0  0  0  0  0  0  0  0
   47.1180   30.0030   45.5390 C   0  0  0  0  0  0  0  0  0  0  0  0
   46.6690   29.5230   46.7530 O   0  0  0  0  0  0  0  0  0  0  0  0
   46.4500   30.5100   47.6840 C   0  0  0  0  0  0  0  0  0  0  0  0
   45.6420   31.6620   47.1010 C   0  0  1  0  0  0  0  0  0  0  0  0
   45.2250   32.6320   48.1380 C   0  0  0  0  0  0  0  0  0  0  0  0
   46.6700   35.0160   42.1760 O   0  0  0  0  0  0  0  0  0  0  0  0
   48.0900   35.0820   42.0440 C   0  0  0  0  0  0  0  0  0  0  0  0
   48.4650   35.1610   40.6030 C   0  0  0  0  0  0  0  0  0  0  0  0
   47.5230   34.4050   39.8550 N   0  0  0  0  0  0  0  0  0  0  0  0
   47.8790   33.9020   38.5540 C   0  0  0  0  0  0  0  0  0  0  0  0
   48.4270   34.5060   37.4480 C   0  0  0  0  0  0  0  0  0  0  0  0
   48.5190   33.4700   36.5170 C   0  0  0  0  0  0  0  0  0  0  0  0
   48.0510   32.3500   37.0710 N   0  0  0  0  0  0  0  0  0  0  0  0
   47.6580   32.5970   38.3080 N   0  0  0  0  0  0  0  0  0  0  0  0
   47.9740   31.0500   36.4300 C   0  0  0  0  0  0  0  0  0  0  0  0
   43.9356   35.9571   45.7998 H   0  0  0  0  0  0  0  0  0  0  0  0
   44.8239   36.5643   43.5579 H   0  0  0  0  0  0  0  0  0  0  0  0
   47.8733   31.7928   44.6114 H   0  0  0  0  0  0  0  0  0  0  0  0
   48.3476   31.6062   46.3137 H   0  0  0  0  0  0  0  0  0  0  0  0
   46.3123   29.8939   44.7981 H   0  0  0  0  0  0  0  0  0  0  0  0
   48.0089   29.4205   45.2614 H   0  0  0  0  0  0  0  0  0  0  0  0
   45.8992   30.0823   48.5347 H   0  0  0  0  0  0  0  0  0  0  0  0
   47.4261   30.9025   48.0051 H   0  0  0  0  0  0  0  0  0  0  0  0
   44.6731   31.3183   46.7097 H   0  0  0  0  0  0  0  0  0  0  0  0
   45.4087   32.2047   49.1348 H   0  0  0  0  0  0  0  0  0  0  0  0
   45.8033   33.5609   48.0250 H   0  0  0  0  0  0  0  0  0  0  0  0
   44.1530   32.8514   48.0250 H   0  0  0  0  0  0  0  0  0  0  0  0
   48.4634   35.9747   42.5671 H   0  0  0  0  0  0  0  0  0  0  0  0
   48.5360   34.1779   42.4842 H   0  0  0  0  0  0  0  0  0  0  0  0
   48.4480   36.2096   40.2711 H   0  0  0  0  0  0  0  0  0  0  0  0
   49.4781   34.7599   40.4524 H   0  0  0  0  0  0  0  0  0  0  0  0
   46.5874   34.2172   40.2427 H   0  0  0  0  0  0  0  0  0  0  0  0
   48.7234   35.5582   37.3252 H   0  0  0  0  0  0  0  0  0  0  0  0
   48.9129   33.5619   35.4940 H   0  0  0  0  0  0  0  0  0  0  0  0
   47.9275   30.2644   37.1986 H   0  0  0  0  0  0  0  0  0  0  0  0
   47.0715   31.0033   35.8028 H   0  0  0  0  0  0  0  0  0  0  0  0
   48.8647   30.8971   35.8028 H   0  0  0  0  0  0  0  0  0  0  0  0
  1  6  2  0
  2  1  1  0
  3  2  2  0
  3  4  1  0
  4  5  2  0
  5  6  1  0
  5  7  1  0
  7 12  1  0
  8  7  1  0
  9  8  1  0
  9 10  1  0
 10 11  1  0
 12 11  1  0
 12 13  1  0
 14  3  1  0
 15 14  1  0
 16 15  1  0
 17 16  1  0
 18 17  1  0
 19 18  1  0
 20 21  1  0
 20 19  2  0
 21 22  1  0
 22 18  2  0
 23 21  1  0
  1 24  1  0
  2 25  1  0
  8 26  1  0
  8 27  1  0
  9 28  1  0
  9 29  1  0
 11 30  1  0
 11 31  1  0
 12 32  1  6
 13 33  1  0
 13 34  1  0
 13 35  1  0
 15 36  1  0
 15 37  1  0
 16 38  1  0
 16 39  1  0
 17 40  1  0
 19 41  1  0
 20 42  1  0
 23 43  1  0
 23 44  1  0
 23 45  1  0
M  ISO  8  24  14  25  14  26  13  27  13  28  13  29  13  30  13  31  13
M  ISO  8  32  13  33   8  34   8  35   8  36   8  37   8  38   8  39   8
M  ISO  5  41  14  42  14  43   8  44   8  45   8
M  END
>  <minimizedAffinity>  (1) 
-5.4971056

>  <minimizedRMSD>  (1) 
0.100840911

$$$$
