
     RDKit          3D

 48 50  0  0  1  0  0  0  0  0999 V2000
   44.6630   35.3030   45.3100 C   0  0  0  0  0  0  0  0  0  0  0  0
   45.1600   35.6380   44.0560 C   0  0  0  0  0  0  0  0  0  0  0  0
   46.0850   34.8100   43.4220 C   0  0  0  0  0  0  0  0  0  0  0  0
   46.4380   33.6910   44.1200 N   0  0  0  0  0  0  0  0  0  0  0  0
   45.9460   33.3800   45.3350 C   0  0  0  0  0  0  0  0  0  0  0  0
   45.0610   34.1940   45.9160 N   0  0  0  0  0  0  0  0  0  0  0  0
   46.3640   32.1890   46.0020 N   0  0  0  0  0  0  0  0  0  0  0  0
   47.5330   31.4580   45.6140 C   0  0  0  0  0  0  0  0  0  0  0  0
   47.1180   30.0060   45.5520 C   0  0  0  0  0  0  0  0  0  0  0  0
   46.6800   29.5240   46.7670 O   0  0  0  0  0  0  0  0  0  0  0  0
   46.4260   30.4980   47.6890 C   0  0  0  0  0  0  0  0  0  0  0  0
   45.6200   31.6600   47.1120 C   0  0  1  0  0  0  0  0  0  0  0  0
   45.2310   32.6300   48.1540 C   0  0  0  0  0  0  0  0  0  0  0  0
   46.6660   35.0090   42.1830 O   0  0  0  0  0  0  0  0  0  0  0  0
   48.0900   35.0370   42.0560 C   0  0  0  0  0  0  0  0  0  0  0  0
   48.4820   35.1360   40.6120 C   0  0  0  0  0  0  0  0  0  0  0  0
   47.5160   34.4140   39.8510 N   0  0  0  0  0  0  0  0  0  0  0  0
   47.8710   33.9050   38.5570 C   0  0  0  0  0  0  0  0  0  0  0  0
   48.4180   34.5110   37.4480 C   0  0  0  0  0  0  0  0  0  0  0  0
   48.5200   33.4940   36.5160 C   0  0  0  0  0  0  0  0  0  0  0  0
   48.0510   32.3570   37.0700 N   0  0  0  0  0  0  0  0  0  0  0  0
   47.6550   32.6010   38.3120 N   0  0  0  0  0  0  0  0  0  0  0  0
   47.9910   31.0700   36.4130 C   0  0  0  0  0  0  0  0  0  0  0  0
   47.7390   31.3170   34.9440 C   0  0  0  0  0  0  0  0  0  0  0  0
   43.9341   35.9632   45.8028 H   0  0  0  0  0  0  0  0  0  0  0  0
   44.8219   36.5606   43.5616 H   0  0  0  0  0  0  0  0  0  0  0  0
   47.8855   31.7967   44.6286 H   0  0  0  0  0  0  0  0  0  0  0  0
   48.3571   31.6103   46.3265 H   0  0  0  0  0  0  0  0  0  0  0  0
   46.3040   29.9039   44.8192 H   0  0  0  0  0  0  0  0  0  0  0  0
   48.0030   29.4203   45.2625 H   0  0  0  0  0  0  0  0  0  0  0  0
   45.8591   30.0555   48.5213 H   0  0  0  0  0  0  0  0  0  0  0  0
   47.3940   30.8990   48.0240 H   0  0  0  0  0  0  0  0  0  0  0  0
   44.6452   31.3301   46.7236 H   0  0  0  0  0  0  0  0  0  0  0  0
   45.4069   32.1914   49.1473 H   0  0  0  0  0  0  0  0  0  0  0  0
   45.8317   33.5451   48.0457 H   0  0  0  0  0  0  0  0  0  0  0  0
   44.1645   32.8765   48.0457 H   0  0  0  0  0  0  0  0  0  0  0  0
   48.4858   35.9074   42.5999 H   0  0  0  0  0  0  0  0  0  0  0  0
   48.5050   34.1091   42.4766 H   0  0  0  0  0  0  0  0  0  0  0  0
   48.4944   36.1903   40.2984 H   0  0  0  0  0  0  0  0  0  0  0  0
   49.4872   34.7176   40.4557 H   0  0  0  0  0  0  0  0  0  0  0  0
   46.5699   34.2589   40.2275 H   0  0  0  0  0  0  0  0  0  0  0  0
   48.7082   35.5654   37.3300 H   0  0  0  0  0  0  0  0  0  0  0  0
   48.9167   33.5953   35.4951 H   0  0  0  0  0  0  0  0  0  0  0  0
   48.9439   30.5367   36.5454 H   0  0  0  0  0  0  0  0  0  0  0  0
   47.1881   30.4539   36.8439 H   0  0  0  0  0  0  0  0  0  0  0  0
   46.9577   32.0828   34.8297 H   0  0  0  0  0  0  0  0  0  0  0  0
   48.6666   31.6654   34.4664 H   0  0  0  0  0  0  0  0  0  0  0  0
   47.4092   30.3826   34.4664 H   0  0  0  0  0  0  0  0  0  0  0  0
  1  6  2  0
  2  1  1  0
  3  2  2  0
  3  4  1  0
  4  5  2  0
  5  6  1  0
  5  7  1  0
  7 12  1  0
  8  7  1  0
  9  8  1  0
  9 10  1  0
 10 11  1  0
 12 11  1  0
 12 13  1  0
 14  3  1  0
 15 14  1  0
 16 15  1  0
 17 16  1  0
 18 17  1  0
 19 18  1  0
 20 21  1  0
 20 19  2  0
 21 22  1  0
 22 18  2  0
 23 21  1  0
 24 23  1  0
  1 25  1  0
  2 26  1  0
  8 27  1  0
  8 28  1  0
  9 29  1  0
  9 30  1  0
 11 31  1  0
 11 32  1  0
 12 33  1  6
 13 34  1  0
 13 35  1  0
 13 36  1  0
 15 37  1  0
 15 38  1  0
 16 39  1  0
 16 40  1  0
 17 41  1  0
 19 42  1  0
 20 43  1  0
 23 44  1  0
 23 45  1  0
 24 46  1  0
 24 47  1  0
 24 48  1  0
M  ISO  8  25  14  26  14  27  13  28  13  29  13  30  13  31  13  32  13
M  ISO  8  33  13  34   8  35   8  36   8  37   8  38   8  39   8  40   8
M  ISO  7  42  14  43  14  44   8  45   8  46   8  47   8  48   8
M  END
>  <minimizedAffinity>  (1) 
-5.37300301

>  <minimizedRMSD>  (1) 
0.105838038

$$$$
