
     RDKit          3D

 30 31  0  0  1  0  0  0  0  0999 V2000
   42.7450   34.9560   41.2250 C   0  0  2  0  0  0  0  0  0  0  0  0
   43.0490   35.0080   39.7630 C   0  0  0  0  0  0  0  0  0  0  0  0
   41.3650   35.5780   41.4820 C   0  0  0  0  0  0  0  0  0  0  0  0
   40.2950   34.6790   41.0180 C   0  0  0  0  0  0  0  0  0  0  0  0
   40.1790   33.4320   41.6330 C   0  0  0  0  0  0  0  0  0  0  0  0
   39.2350   32.4880   41.3120 C   0  0  0  0  0  0  0  0  0  0  0  0
   38.3360   32.7850   40.3120 C   0  0  0  0  0  0  0  0  0  0  0  0
   38.4090   34.0000   39.6750 C   0  0  0  0  0  0  0  0  0  0  0  0
   39.3750   34.9260   40.0280 C   0  0  0  0  0  0  0  0  0  0  0  0
   43.6980   35.6420   41.9900 O   0  0  0  0  0  0  0  0  0  0  0  0
   44.2240   35.2000   43.1500 C   0  0  0  0  0  0  0  0  0  0  0  0
   44.8800   33.9650   43.0690 C   0  0  0  0  0  0  0  0  0  0  0  0
   45.4540   33.4300   44.2360 C   0  0  0  0  0  0  0  0  0  0  0  0
   45.3330   34.1660   45.3920 N   0  0  0  0  0  0  0  0  0  0  0  0
   44.7010   35.3400   45.4340 C   0  0  0  0  0  0  0  0  0  0  0  0
   44.1630   35.8270   44.3110 N   0  0  0  0  0  0  0  0  0  0  0  0
   42.7625   33.8984   41.5268 H   0  0  0  0  0  0  0  0  0  0  0  0
   44.1238   35.1919   39.6183 H   0  0  0  0  0  0  0  0  0  0  0  0
   42.7749   34.0499   39.2972 H   0  0  0  0  0  0  0  0  0  0  0  0
   42.4721   35.8205   39.2972 H   0  0  0  0  0  0  0  0  0  0  0  0
   41.2444   35.7564   42.5607 H   0  0  0  0  0  0  0  0  0  0  0  0
   41.2955   36.5261   40.9286 H   0  0  0  0  0  0  0  0  0  0  0  0
   40.8947   33.1878   42.4318 H   0  0  0  0  0  0  0  0  0  0  0  0
   39.1979   31.5227   41.8382 H   0  0  0  0  0  0  0  0  0  0  0  0
   37.5650   32.0547   40.0253 H   0  0  0  0  0  0  0  0  0  0  0  0
   37.6920   34.2394   38.8759 H   0  0  0  0  0  0  0  0  0  0  0  0
   39.4072   35.8901   39.4993 H   0  0  0  0  0  0  0  0  0  0  0  0
   44.9448   33.4251   42.1128 H   0  0  0  0  0  0  0  0  0  0  0  0
   45.9781   32.4629   44.2250 H   0  0  0  0  0  0  0  0  0  0  0  0
   44.6236   35.8990   46.3782 H   0  0  0  0  0  0  0  0  0  0  0  0
  1  3  1  0
  1 10  1  0
  2  1  1  0
  4  3  1  0
  4  5  2  0
  6  5  1  0
  7  6  2  0
  8  9  2  0
  8  7  1  0
  9  4  1  0
 10 11  1  0
 11 16  1  0
 12 11  2  0
 12 13  1  0
 13 14  2  0
 14 15  1  0
 16 15  2  0
  1 17  1  1
  2 18  1  0
  2 19  1  0
  2 20  1  0
  3 21  1  0
  3 22  1  0
  5 23  1  0
  6 24  1  0
  7 25  1  0
  8 26  1  0
  9 27  1  0
 12 28  1  0
 13 29  1  0
 15 30  1  0
M  ISO  8  17   8  18   8  19   8  20   8  21   8  22   8  23  14  24  14
M  ISO  6  25  14  26  14  27  14  28  14  29  14  30  14
M  END
>  <minimizedAffinity>  (1) 
-5.08799791

>  <minimizedRMSD>  (1) 
3.42583084

$$$$
