
     RDKit          3D

 31 32  0  0  1  0  0  0  0  0999 V2000
   41.8590   35.1360   41.5500 C   0  0  2  0  0  0  0  0  0  0  0  0
   41.7260   33.6920   41.1750 C   0  0  0  0  0  0  0  0  0  0  0  0
   40.7800   35.9600   40.8340 C   0  0  0  0  0  0  0  0  0  0  0  0
   40.0070   35.1800   39.9110 N   0  0  0  0  0  0  0  0  0  0  0  0
   38.9430   34.4140   40.2140 C   0  0  0  0  0  0  0  0  0  0  0  0
   38.3050   33.7230   39.2130 C   0  0  0  0  0  0  0  0  0  0  0  0
   38.6820   33.7560   37.8890 C   0  0  0  0  0  0  0  0  0  0  0  0
   38.0240   33.0420   36.8490 N   0  0  0  0  0  0  0  0  0  0  0  0
   39.7540   34.5370   37.6380 N   0  0  0  0  0  0  0  0  0  0  0  0
   40.4010   35.2290   38.6060 C   0  0  0  0  0  0  0  0  0  0  0  0
   41.3850   35.9030   38.1490 O   0  0  0  0  0  0  0  0  0  0  0  0
   43.1300   35.6380   41.2420 O   0  0  0  0  0  0  0  0  0  0  0  0
   44.2750   35.2910   41.8740 C   0  0  0  0  0  0  0  0  0  0  0  0
   44.2760   35.5330   43.2530 C   0  0  0  0  0  0  0  0  0  0  0  0
   45.4250   35.2120   44.0010 C   0  0  0  0  0  0  0  0  0  0  0  0
   46.4850   34.6700   43.3120 N   0  0  0  0  0  0  0  0  0  0  0  0
   46.4370   34.4560   41.9980 C   0  0  0  0  0  0  0  0  0  0  0  0
   45.3530   34.7640   41.3110 N   0  0  0  0  0  0  0  0  0  0  0  0
   41.7247   35.2160   42.6388 H   0  0  0  0  0  0  0  0  0  0  0  0
   41.6696   33.0800   42.0873 H   0  0  0  0  0  0  0  0  0  0  0  0
   40.8110   33.5502   40.5812 H   0  0  0  0  0  0  0  0  0  0  0  0
   42.5997   33.3854   40.5812 H   0  0  0  0  0  0  0  0  0  0  0  0
   40.1023   36.3841   41.5896 H   0  0  0  0  0  0  0  0  0  0  0  0
   41.2907   36.7455   40.2577 H   0  0  0  0  0  0  0  0  0  0  0  0
   38.5878   34.3420   41.2526 H   0  0  0  0  0  0  0  0  0  0  0  0
   37.4378   33.1039   39.4863 H   0  0  0  0  0  0  0  0  0  0  0  0
   38.3635   33.1153   35.8793 H   0  0  0  0  0  0  0  0  0  0  0  0
   37.2082   32.4518   37.0658 H   0  0  0  0  0  0  0  0  0  0  0  0
   43.3929   35.9672   43.7445 H   0  0  0  0  0  0  0  0  0  0  0  0
   45.4727   35.3866   45.0860 H   0  0  0  0  0  0  0  0  0  0  0  0
   47.3057   34.0202   41.4827 H   0  0  0  0  0  0  0  0  0  0  0  0
  2  1  1  0
  3  1  1  0
  4  5  1  0
  4  3  1  0
  6  5  2  0
  7  6  1  0
  8  7  1  0
  9  7  2  0
  9 10  1  0
 10  4  1  0
 11 10  2  0
 12  1  1  0
 12 13  1  0
 13 14  2  0
 14 15  1  0
 16 15  2  0
 17 16  1  0
 18 13  1  0
 18 17  2  0
  1 19  1  1
  2 20  1  0
  2 21  1  0
  2 22  1  0
  3 23  1  0
  3 24  1  0
  5 25  1  0
  6 26  1  0
  8 27  1  0
  8 28  1  0
 14 29  1  0
 15 30  1  0
 17 31  1  0
M  ISO  8  19   8  20   8  21   8  22   8  23   8  24   8  25  14  26  14
M  ISO  3  29  14  30  14  31  14
M  END
>  <minimizedAffinity>  (1) 
-4.89238501

>  <minimizedRMSD>  (1) 
3.72946453

$$$$
