
     RDKit          3D

 28 29  0  0  1  0  0  0  0  0999 V2000
   43.8660   34.2160   40.7430 C   0  0  2  0  0  0  0  0  0  0  0  0
   44.3700   33.4720   39.5460 C   0  0  0  0  0  0  0  0  0  0  0  0
   42.8780   35.2990   40.3120 C   0  0  0  0  0  0  0  0  0  0  0  0
   41.4860   34.8510   40.3200 C   0  0  0  0  0  0  0  0  0  0  0  0
   40.4420   35.2220   39.4880 C   0  0  0  0  0  0  0  0  0  0  0  0
   39.1760   34.6850   39.6500 C   0  0  0  0  0  0  0  0  0  0  0  0
   38.9460   33.7750   40.6410 N   0  0  0  0  0  0  0  0  0  0  0  0
   39.9770   33.4270   41.4400 C   0  0  0  0  0  0  0  0  0  0  0  0
   41.2150   33.9450   41.2900 N   0  0  0  0  0  0  0  0  0  0  0  0
   44.8890   34.7690   41.5160 O   0  0  0  0  0  0  0  0  0  0  0  0
   44.9130   34.8160   42.8650 C   0  0  0  0  0  0  0  0  0  0  0  0
   45.4610   33.6800   43.4760 C   0  0  0  0  0  0  0  0  0  0  0  0
   45.5250   33.6290   44.8820 C   0  0  0  0  0  0  0  0  0  0  0  0
   45.0390   34.7150   45.5740 N   0  0  0  0  0  0  0  0  0  0  0  0
   44.5270   35.7750   44.9480 C   0  0  0  0  0  0  0  0  0  0  0  0
   44.4760   35.8030   43.6300 N   0  0  0  0  0  0  0  0  0  0  0  0
   43.3547   33.4809   41.3819 H   0  0  0  0  0  0  0  0  0  0  0  0
   44.9586   32.6031   39.8754 H   0  0  0  0  0  0  0  0  0  0  0  0
   43.5173   33.1293   38.9414 H   0  0  0  0  0  0  0  0  0  0  0  0
   45.0045   34.1368   38.9414 H   0  0  0  0  0  0  0  0  0  0  0  0
   43.1353   35.6198   39.2918 H   0  0  0  0  0  0  0  0  0  0  0  0
   42.9591   36.1207   41.0388 H   0  0  0  0  0  0  0  0  0  0  0  0
   40.6216   35.9540   38.6868 H   0  0  0  0  0  0  0  0  0  0  0  0
   38.3576   34.9910   38.9817 H   0  0  0  0  0  0  0  0  0  0  0  0
   39.8023   32.6950   42.2423 H   0  0  0  0  0  0  0  0  0  0  0  0
   45.8346   32.8428   42.8681 H   0  0  0  0  0  0  0  0  0  0  0  0
   45.9458   32.7577   45.4052 H   0  0  0  0  0  0  0  0  0  0  0  0
   44.1468   36.6269   45.5309 H   0  0  0  0  0  0  0  0  0  0  0  0
  1 10  1  0
  2  1  1  0
  3  4  1  0
  3  1  1  0
  4  9  2  0
  5  6  2  0
  5  4  1  0
  6  7  1  0
  7  8  2  0
  9  8  1  0
 10 11  1  0
 11 12  2  0
 11 16  1  0
 12 13  1  0
 13 14  2  0
 15 14  1  0
 16 15  2  0
  1 17  1  1
  2 18  1  0
  2 19  1  0
  2 20  1  0
  3 21  1  0
  3 22  1  0
  5 23  1  0
  6 24  1  0
  8 25  1  0
 12 26  1  0
 13 27  1  0
 15 28  1  0
M  ISO  8  17   8  18   8  19   8  20   8  21   8  22   8  23  14  24  14
M  ISO  4  25  14  26  14  27  14  28  14
M  END
>  <minimizedAffinity>  (1) 
-4.44260788

>  <minimizedRMSD>  (1) 
3.62070608

$$$$
