
     RDKit          3D

 33 34  0  0  1  0  0  0  0  0999 V2000
   43.1080   33.7590   40.4690 C   0  0  2  0  0  0  0  0  0  0  0  0
   42.6920   32.5330   41.2230 C   0  0  0  0  0  0  0  0  0  0  0  0
   42.2320   33.9130   39.2180 C   0  0  0  0  0  0  0  0  0  0  0  0
   41.3300   35.1030   39.2750 C   0  0  0  0  0  0  0  0  0  0  0  0
   40.5450   35.1620   37.9800 C   0  0  0  0  0  0  0  0  0  0  0  0
   39.4030   34.2130   38.2690 C   0  0  0  0  0  0  0  0  0  0  0  0
   38.9450   34.7470   39.6240 C   0  0  0  0  0  0  0  0  0  0  0  0
   40.2620   34.9840   40.3380 C   0  0  0  0  0  0  0  0  0  0  0  0
   44.4580   33.7110   40.0880 O   0  0  0  0  0  0  0  0  0  0  0  0
   45.4790   34.2140   40.8150 C   0  0  0  0  0  0  0  0  0  0  0  0
   46.7500   34.0460   40.2480 C   0  0  0  0  0  0  0  0  0  0  0  0
   47.8720   34.5360   40.9440 C   0  0  0  0  0  0  0  0  0  0  0  0
   47.6420   35.1510   42.1430 N   0  0  0  0  0  0  0  0  0  0  0  0
   46.4230   35.2990   42.6600 C   0  0  0  0  0  0  0  0  0  0  0  0
   45.3860   34.8320   41.9900 N   0  0  0  0  0  0  0  0  0  0  0  0
   42.9778   34.6222   41.1383 H   0  0  0  0  0  0  0  0  0  0  0  0
   42.7579   32.7272   42.3037 H   0  0  0  0  0  0  0  0  0  0  0  0
   41.6558   32.2744   40.9594 H   0  0  0  0  0  0  0  0  0  0  0  0
   43.3569   31.6972   40.9594 H   0  0  0  0  0  0  0  0  0  0  0  0
   41.6132   33.0099   39.1109 H   0  0  0  0  0  0  0  0  0  0  0  0
   42.9071   34.0547   38.3611 H   0  0  0  0  0  0  0  0  0  0  0  0
   41.9752   35.9719   39.4718 H   0  0  0  0  0  0  0  0  0  0  0  0
   41.1491   34.8147   37.1289 H   0  0  0  0  0  0  0  0  0  0  0  0
   40.2227   36.1756   37.6994 H   0  0  0  0  0  0  0  0  0  0  0  0
   38.6088   34.2885   37.5117 H   0  0  0  0  0  0  0  0  0  0  0  0
   39.6751   33.1472   38.2609 H   0  0  0  0  0  0  0  0  0  0  0  0
   38.3778   35.6829   39.5126 H   0  0  0  0  0  0  0  0  0  0  0  0
   38.2685   34.0657   40.1609 H   0  0  0  0  0  0  0  0  0  0  0  0
   40.4866   34.1389   41.0053 H   0  0  0  0  0  0  0  0  0  0  0  0
   40.2162   35.8967   40.9502 H   0  0  0  0  0  0  0  0  0  0  0  0
   46.8687   33.5411   39.2780 H   0  0  0  0  0  0  0  0  0  0  0  0
   48.8896   34.4285   40.5402 H   0  0  0  0  0  0  0  0  0  0  0  0
   46.2832   35.8017   43.6284 H   0  0  0  0  0  0  0  0  0  0  0  0
  1  2  1  0
  3  4  1  0
  3  1  1  0
  4  8  1  0
  5  6  1  0
  5  4  1  0
  6  7  1  0
  7  8  1  0
  9  1  1  0
  9 10  1  0
 10 15  1  0
 11 10  2  0
 11 12  1  0
 12 13  2  0
 13 14  1  0
 15 14  2  0
  1 16  1  1
  2 17  1  0
  2 18  1  0
  2 19  1  0
  3 20  1  0
  3 21  1  0
  4 22  1  0
  5 23  1  0
  5 24  1  0
  6 25  1  0
  6 26  1  0
  7 27  1  0
  7 28  1  0
  8 29  1  0
  8 30  1  0
 11 31  1  0
 12 32  1  0
 14 33  1  0
M  ISO  8  16   8  17   8  18   8  19   8  20   8  21   8  22  13  23  13
M  ISO  8  24  13  25  13  26  13  27  13  28  13  29  13  30  13  31  14
M  ISO  2  32  14  33  14
M  END
>  <minimizedAffinity>  (1) 
-4.24280643

>  <minimizedRMSD>  (1) 
4.17245197

$$$$
