
     RDKit          3D

 27 28  0  0  1  0  0  0  0  0999 V2000
   39.3040   33.6340   40.9520 C   0  0  2  0  0  0  0  0  0  0  0  0
   38.4010   33.8060   39.7730 C   0  0  0  0  0  0  0  0  0  0  0  0
   40.2290   34.8490   41.0940 C   0  0  0  0  0  0  0  0  0  0  0  0
   41.2440   34.8680   40.0240 C   0  0  0  0  0  0  0  0  0  0  0  0
   40.9990   35.7270   38.9540 C   0  0  0  0  0  0  0  0  0  0  0  0
   42.0660   35.5900   38.0710 C   0  0  0  0  0  0  0  0  0  0  0  0
   42.9060   34.6850   38.6050 N   0  0  0  0  0  0  0  0  0  0  0  0
   42.4300   34.2510   39.7610 N   0  0  0  0  0  0  0  0  0  0  0  0
   40.0750   32.4650   40.8800 O   0  0  0  0  0  0  0  0  0  0  0  0
   39.8620   31.3490   41.6080 C   0  0  0  0  0  0  0  0  0  0  0  0
   40.7810   31.1240   42.6420 C   0  0  0  0  0  0  0  0  0  0  0  0
   40.6270   29.9760   43.4440 C   0  0  0  0  0  0  0  0  0  0  0  0
   39.5750   29.1460   43.1570 N   0  0  0  0  0  0  0  0  0  0  0  0
   38.7210   29.3940   42.1640 C   0  0  0  0  0  0  0  0  0  0  0  0
   38.8780   30.4900   41.4100 N   0  0  0  0  0  0  0  0  0  0  0  0
   38.6548   33.5470   41.8358 H   0  0  0  0  0  0  0  0  0  0  0  0
   37.3761   34.0012   40.1215 H   0  0  0  0  0  0  0  0  0  0  0  0
   38.7493   34.6540   39.1650 H   0  0  0  0  0  0  0  0  0  0  0  0
   38.4132   32.8894   39.1650 H   0  0  0  0  0  0  0  0  0  0  0  0
   39.6274   35.7680   41.0356 H   0  0  0  0  0  0  0  0  0  0  0  0
   40.7435   34.7865   42.0643 H   0  0  0  0  0  0  0  0  0  0  0  0
   40.1280   36.3875   38.8309 H   0  0  0  0  0  0  0  0  0  0  0  0
   42.1976   36.1213   37.1168 H   0  0  0  0  0  0  0  0  0  0  0  0
   43.7901   34.3753   38.1768 H   0  0  0  0  0  0  0  0  0  0  0  0
   41.6055   31.8292   42.8236 H   0  0  0  0  0  0  0  0  0  0  0  0
   41.3227   29.7549   44.2669 H   0  0  0  0  0  0  0  0  0  0  0  0
   37.8903   28.7011   41.9644 H   0  0  0  0  0  0  0  0  0  0  0  0
  1  3  1  0
  2  1  1  0
  4  3  1  0
  5  4  1  0
  6  7  1  0
  6  5  2  0
  7  8  1  0
  8  4  2  0
  9  1  1  0
  9 10  1  0
 10 11  2  0
 11 12  1  0
 13 12  2  0
 14 13  1  0
 15 10  1  0
 15 14  2  0
  1 16  1  1
  2 17  1  0
  2 18  1  0
  2 19  1  0
  3 20  1  0
  3 21  1  0
  5 22  1  0
  6 23  1  0
  7 24  1  0
 11 25  1  0
 12 26  1  0
 14 27  1  0
M  ISO  8  16   8  17   8  18   8  19   8  20   8  21   8  22  14  23  14
M  ISO  4  24   9  25  14  26  14  27  14
M  END
>  <minimizedAffinity>  (1) 
-4.02134514

>  <minimizedRMSD>  (1) 
6.48302889

$$$$
