
     RDKit          3D

 43 45  0  0  1  0  0  0  0  0999 V2000
   43.9860   32.0780   39.8890 C   0  0  2  0  0  0  0  0  0  0  0  0
   43.3450   30.7350   39.9570 C   0  0  0  0  0  0  0  0  0  0  0  0
   42.9770   33.1000   40.3470 C   0  0  0  0  0  0  0  0  0  0  0  0
   43.4200   33.9260   41.4260 N   0  0  0  0  0  0  0  0  0  0  0  0
   44.5880   33.6760   42.0210 C   0  0  0  0  0  0  0  0  0  0  0  0
   45.1320   34.3970   43.0570 C   0  0  0  0  0  0  0  0  0  0  0  0
   44.3550   35.4700   43.4840 C   0  0  0  0  0  0  0  0  0  0  0  0
   44.7790   36.1930   44.4380 O   0  0  0  0  0  0  0  0  0  0  0  0
   43.1700   35.7500   42.9060 N   0  0  0  0  0  0  0  0  0  0  0  0
   42.7100   34.9910   41.8940 C   0  0  0  0  0  0  0  0  0  0  0  0
   41.5990   35.2410   41.3410 O   0  0  0  0  0  0  0  0  0  0  0  0
   46.4360   34.0370   43.6500 C   0  0  0  0  0  0  0  0  0  0  0  0
   44.4570   32.4390   38.5930 O   0  0  0  0  0  0  0  0  0  0  0  0
   45.6820   32.9700   38.4090 C   0  0  0  0  0  0  0  0  0  0  0  0
   46.1530   33.1810   37.1230 C   0  0  0  0  0  0  0  0  0  0  0  0
   47.4250   33.7380   36.9740 C   0  0  0  0  0  0  0  0  0  0  0  0
   48.1520   34.0520   38.1060 N   0  0  0  0  0  0  0  0  0  0  0  0
   47.6660   33.8330   39.3160 C   0  0  0  0  0  0  0  0  0  0  0  0
   46.4480   33.3000   39.4460 N   0  0  0  0  0  0  0  0  0  0  0  0
   48.4930   34.1900   40.4630 C   0  0  0  0  0  0  0  0  0  0  0  0
   48.6120   35.4990   40.8750 C   0  0  0  0  0  0  0  0  0  0  0  0
   49.3980   35.8240   41.9630 C   0  0  0  0  0  0  0  0  0  0  0  0
   50.0720   34.8100   42.6430 C   0  0  0  0  0  0  0  0  0  0  0  0
   49.9450   33.5050   42.2210 C   0  0  0  0  0  0  0  0  0  0  0  0
   49.1540   33.1700   41.1260 C   0  0  0  0  0  0  0  0  0  0  0  0
   44.8750   32.0437   40.5359 H   0  0  0  0  0  0  0  0  0  0  0  0
   43.2076   30.4472   41.0097 H   0  0  0  0  0  0  0  0  0  0  0  0
   42.3665   30.7699   39.4557 H   0  0  0  0  0  0  0  0  0  0  0  0
   43.9876   29.9962   39.4557 H   0  0  0  0  0  0  0  0  0  0  0  0
   42.7344   33.7501   39.4935 H   0  0  0  0  0  0  0  0  0  0  0  0
   42.1079   32.5376   40.7191 H   0  0  0  0  0  0  0  0  0  0  0  0
   45.1664   32.8172   41.6496 H   0  0  0  0  0  0  0  0  0  0  0  0
   42.6132   36.5494   43.2406 H   0  0  0  0  0  0  0  0  0  0  0  0
   46.3584   34.0584   44.7470 H   0  0  0  0  0  0  0  0  0  0  0  0
   46.7214   33.0265   43.3223 H   0  0  0  0  0  0  0  0  0  0  0  0
   47.1994   34.7580   43.3223 H   0  0  0  0  0  0  0  0  0  0  0  0
   45.5434   32.9177   36.2460 H   0  0  0  0  0  0  0  0  0  0  0  0
   47.8408   33.9235   35.9727 H   0  0  0  0  0  0  0  0  0  0  0  0
   48.0764   36.2922   40.3328 H   0  0  0  0  0  0  0  0  0  0  0  0
   49.4913   36.8703   42.2894 H   0  0  0  0  0  0  0  0  0  0  0  0
   50.7019   35.0512   43.5120 H   0  0  0  0  0  0  0  0  0  0  0  0
   50.4804   32.7103   42.7612 H   0  0  0  0  0  0  0  0  0  0  0  0
   49.0568   32.1249   40.7968 H   0  0  0  0  0  0  0  0  0  0  0  0
  1  2  1  0
  1  3  1  0
  3  4  1  0
  4 10  1  0
  4  5  1  0
  5  6  2  0
  6  7  1  0
  6 12  1  0
  7  8  2  0
  9  7  1  0
 10  9  1  0
 11 10  2  0
 13  1  1  0
 14 13  1  0
 14 19  1  0
 15 14  2  0
 16 15  1  0
 16 17  2  0
 17 18  1  0
 18 19  2  0
 18 20  1  0
 20 21  2  0
 20 25  1  0
 21 22  1  0
 22 23  2  0
 24 23  1  0
 25 24  2  0
  1 26  1  1
  2 27  1  0
  2 28  1  0
  2 29  1  0
  3 30  1  0
  3 31  1  0
  5 32  1  0
  9 33  1  0
 12 34  1  0
 12 35  1  0
 12 36  1  0
 15 37  1  0
 16 38  1  0
 21 39  1  0
 22 40  1  0
 23 41  1  0
 24 42  1  0
 25 43  1  0
M  ISO  8  26   8  27   8  28   8  29   8  30   8  31   8  32  14  33   9
M  ISO  8  34   8  35   8  36   8  37  14  38  14  39  14  40  14  41  14
M  ISO  2  42  14  43  14
M  END
>  <minimizedAffinity>  (1) 
-6.11237335

>  <minimizedRMSD>  (1) 
3.45568347

$$$$
