
     RDKit          3D

 40 42  0  0  1  0  0  0  0  0999 V2000
   47.3840   34.2900   41.6300 C   0  0  2  0  0  0  0  0  0  0  0  0
   48.3860   35.1110   40.8970 C   0  0  0  0  0  0  0  0  0  0  0  0
   46.6340   35.1960   42.5730 C   0  0  0  0  0  0  0  0  0  0  0  0
   45.2210   35.2360   42.3580 N   0  0  0  0  0  0  0  0  0  0  0  0
   44.7110   34.8690   41.1820 C   0  0  0  0  0  0  0  0  0  0  0  0
   43.3740   34.8500   40.8580 C   0  0  0  0  0  0  0  0  0  0  0  0
   42.5300   35.2590   41.8860 C   0  0  0  0  0  0  0  0  0  0  0  0
   41.2770   35.2700   41.6650 O   0  0  0  0  0  0  0  0  0  0  0  0
   43.0090   35.6360   43.0860 N   0  0  0  0  0  0  0  0  0  0  0  0
   44.3340   35.6240   43.3150 C   0  0  0  0  0  0  0  0  0  0  0  0
   44.7980   35.9780   44.4390 O   0  0  0  0  0  0  0  0  0  0  0  0
   42.9150   34.4190   39.5190 C   0  0  0  0  0  0  0  0  0  0  0  0
   47.9440   33.2090   42.3720 O   0  0  0  0  0  0  0  0  0  0  0  0
   47.1700   32.3840   43.1120 C   0  0  0  0  0  0  0  0  0  0  0  0
   46.1590   31.6630   42.5000 C   0  0  0  0  0  0  0  0  0  0  0  0
   45.3830   30.8170   43.2980 C   0  0  0  0  0  0  0  0  0  0  0  0
   45.6560   30.7380   44.6520 N   0  0  0  0  0  0  0  0  0  0  0  0
   46.6360   31.4500   45.1900 C   0  0  0  0  0  0  0  0  0  0  0  0
   47.3700   32.2530   44.4210 N   0  0  0  0  0  0  0  0  0  0  0  0
   46.8840   31.3400   46.5840 N   0  0  0  0  0  0  0  0  0  0  0  0
   46.9880   30.2690   47.3570 N   0  0  0  0  0  0  0  0  0  0  0  0
   47.2320   30.6570   48.6410 C   0  0  0  0  0  0  0  0  0  0  0  0
   47.2750   32.0310   48.6220 C   0  0  0  0  0  0  0  0  0  0  0  0
   47.0570   32.4650   47.3320 C   0  0  0  0  0  0  0  0  0  0  0  0
   46.7269   33.8342   40.8747 H   0  0  0  0  0  0  0  0  0  0  0  0
   49.0279   35.6370   41.6190 H   0  0  0  0  0  0  0  0  0  0  0  0
   49.0045   34.4567   40.2651 H   0  0  0  0  0  0  0  0  0  0  0  0
   47.8661   35.8461   40.2651 H   0  0  0  0  0  0  0  0  0  0  0  0
   46.8155   34.8484   43.6007 H   0  0  0  0  0  0  0  0  0  0  0  0
   47.0072   36.2147   42.3915 H   0  0  0  0  0  0  0  0  0  0  0  0
   45.4210   34.5540   40.4031 H   0  0  0  0  0  0  0  0  0  0  0  0
   42.3606   35.9337   43.8289 H   0  0  0  0  0  0  0  0  0  0  0  0
   42.1171   33.6698   39.6285 H   0  0  0  0  0  0  0  0  0  0  0  0
   42.5285   35.2882   38.9665 H   0  0  0  0  0  0  0  0  0  0  0  0
   43.7581   33.9787   38.9665 H   0  0  0  0  0  0  0  0  0  0  0  0
   45.9721   31.7529   41.4197 H   0  0  0  0  0  0  0  0  0  0  0  0
   44.5686   30.2238   42.8565 H   0  0  0  0  0  0  0  0  0  0  0  0
   47.3671   30.0031   49.5152 H   0  0  0  0  0  0  0  0  0  0  0  0
   47.4540   32.6780   49.4934 H   0  0  0  0  0  0  0  0  0  0  0  0
   47.0286   33.5064   46.9790 H   0  0  0  0  0  0  0  0  0  0  0  0
  1 13  1  0
  1  3  1  0
  2  1  1  0
  4  3  1  0
  4 10  1  0
  5  4  1  0
  6  5  2  0
  6  7  1  0
  7  9  1  0
  8  7  2  0
  9 10  1  0
 10 11  2  0
 12  6  1  0
 13 14  1  0
 14 19  1  0
 15 14  2  0
 15 16  1  0
 16 17  2  0
 17 18  1  0
 18 20  1  0
 19 18  2  0
 20 24  1  0
 20 21  1  0
 21 22  2  0
 23 22  1  0
 24 23  2  0
  1 25  1  6
  2 26  1  0
  2 27  1  0
  2 28  1  0
  3 29  1  0
  3 30  1  0
  5 31  1  0
  9 32  1  0
 12 33  1  0
 12 34  1  0
 12 35  1  0
 15 36  1  0
 16 37  1  0
 22 38  1  0
 23 39  1  0
 24 40  1  0
M  ISO  8  25   8  26   8  27   8  28   8  29   8  30   8  31  14  32   9
M  ISO  8  33   8  34   8  35   8  36  14  37  14  38  14  39  14  40  14
M  END
>  <minimizedAffinity>  (1) 
-5.85366774

>  <minimizedRMSD>  (1) 
5.60273695

$$$$
