
     RDKit          3D

 42 44  0  0  1  0  0  0  0  0999 V2000
   43.7870   32.0380   39.9230 C   0  0  2  0  0  0  0  0  0  0  0  0
   43.1170   30.7510   39.5860 C   0  0  0  0  0  0  0  0  0  0  0  0
   42.8500   32.8410   40.7870 C   0  0  0  0  0  0  0  0  0  0  0  0
   43.4720   33.9170   41.4940 N   0  0  0  0  0  0  0  0  0  0  0  0
   44.5310   33.6790   42.2720 C   0  0  0  0  0  0  0  0  0  0  0  0
   45.2210   34.6200   42.9960 C   0  0  0  0  0  0  0  0  0  0  0  0
   44.7310   35.9180   42.8740 C   0  0  0  0  0  0  0  0  0  0  0  0
   45.3090   36.8510   43.5110 O   0  0  0  0  0  0  0  0  0  0  0  0
   43.6650   36.1920   42.0980 N   0  0  0  0  0  0  0  0  0  0  0  0
   43.0460   35.2060   41.4190 C   0  0  0  0  0  0  0  0  0  0  0  0
   42.0430   35.4500   40.6860 O   0  0  0  0  0  0  0  0  0  0  0  0
   46.3890   34.2530   43.8270 C   0  0  0  0  0  0  0  0  0  0  0  0
   44.1520   32.8180   38.7860 O   0  0  0  0  0  0  0  0  0  0  0  0
   45.4410   33.0950   38.5020 C   0  0  0  0  0  0  0  0  0  0  0  0
   45.8820   33.0510   37.1910 C   0  0  0  0  0  0  0  0  0  0  0  0
   47.2230   33.3500   36.9410 C   0  0  0  0  0  0  0  0  0  0  0  0
   48.0390   33.6710   37.9960 N   0  0  0  0  0  0  0  0  0  0  0  0
   47.5840   33.7030   39.2390 C   0  0  0  0  0  0  0  0  0  0  0  0
   46.2960   33.4150   39.4690 N   0  0  0  0  0  0  0  0  0  0  0  0
   48.4120   34.0410   40.3940 C   0  0  0  0  0  0  0  0  0  0  0  0
   48.4540   35.3700   40.7930 C   0  0  0  0  0  0  0  0  0  0  0  0
   49.2420   35.6820   41.8890 C   0  0  0  0  0  0  0  0  0  0  0  0
   49.9700   34.7490   42.5860 C   0  0  0  0  0  0  0  0  0  0  0  0
   49.8930   33.4370   42.1480 C   0  0  0  0  0  0  0  0  0  0  0  0
   49.1280   33.1340   41.0820 N   0  0  0  0  0  0  0  0  0  0  0  0
   44.7254   31.7897   40.4404 H   0  0  0  0  0  0  0  0  0  0  0  0
   42.8437   30.2261   40.5132 H   0  0  0  0  0  0  0  0  0  0  0  0
   42.2096   30.9530   38.9979 H   0  0  0  0  0  0  0  0  0  0  0  0
   43.8029   30.1235   38.9979 H   0  0  0  0  0  0  0  0  0  0  0  0
   42.0640   33.2619   40.1427 H   0  0  0  0  0  0  0  0  0  0  0  0
   42.4576   32.1512   41.5487 H   0  0  0  0  0  0  0  0  0  0  0  0
   44.8811   32.6384   42.3387 H   0  0  0  0  0  0  0  0  0  0  0  0
   43.3210   37.1600   42.0230 H   0  0  0  0  0  0  0  0  0  0  0  0
   46.1228   34.3367   44.8910 H   0  0  0  0  0  0  0  0  0  0  0  0
   46.6870   33.2179   43.6039 H   0  0  0  0  0  0  0  0  0  0  0  0
   47.2255   34.9316   43.6039 H   0  0  0  0  0  0  0  0  0  0  0  0
   45.1973   32.7886   36.3711 H   0  0  0  0  0  0  0  0  0  0  0  0
   47.6186   33.3285   35.9148 H   0  0  0  0  0  0  0  0  0  0  0  0
   47.8839   36.1451   40.2598 H   0  0  0  0  0  0  0  0  0  0  0  0
   49.2869   36.7308   42.2178 H   0  0  0  0  0  0  0  0  0  0  0  0
   50.5862   35.0307   43.4526 H   0  0  0  0  0  0  0  0  0  0  0  0
   50.4539   32.6467   42.6684 H   0  0  0  0  0  0  0  0  0  0  0  0
  1  3  1  0
  2  1  1  0
  3  4  1  0
  4  5  1  0
  5  6  2  0
  6 12  1  0
  7  6  1  0
  7  8  2  0
  9  7  1  0
 10  4  1  0
 10  9  1  0
 11 10  2  0
 13  1  1  0
 14 13  1  0
 14 19  1  0
 15 14  2  0
 16 15  1  0
 16 17  2  0
 17 18  1  0
 18 19  2  0
 18 20  1  0
 20 21  2  0
 20 25  1  0
 21 22  1  0
 22 23  2  0
 24 23  1  0
 25 24  2  0
  1 26  1  1
  2 27  1  0
  2 28  1  0
  2 29  1  0
  3 30  1  0
  3 31  1  0
  5 32  1  0
  9 33  1  0
 12 34  1  0
 12 35  1  0
 12 36  1  0
 15 37  1  0
 16 38  1  0
 21 39  1  0
 22 40  1  0
 23 41  1  0
 24 42  1  0
M  ISO  8  26   8  27   8  28   8  29   8  30   8  31   8  32  14  33   9
M  ISO  8  34   8  35   8  36   8  37  14  38  14  39  14  40  14  41  14
M  ISO  1  42  14
M  END
>  <minimizedAffinity>  (1) 
-5.80020809

>  <minimizedRMSD>  (1) 
3.60037303

$$$$
