
     RDKit          3D

 39 41  0  0  1  0  0  0  0  0999 V2000
   44.2950   32.1430   39.9320 C   0  0  2  0  0  0  0  0  0  0  0  0
   43.6840   30.7850   39.9140 C   0  0  0  0  0  0  0  0  0  0  0  0
   43.2410   33.1320   40.3580 C   0  0  0  0  0  0  0  0  0  0  0  0
   43.6090   33.9430   41.4760 N   0  0  0  0  0  0  0  0  0  0  0  0
   44.7210   33.6740   42.1620 C   0  0  0  0  0  0  0  0  0  0  0  0
   45.1920   34.3770   43.2430 C   0  0  0  0  0  0  0  0  0  0  0  0
   44.3920   35.4580   43.6120 C   0  0  0  0  0  0  0  0  0  0  0  0
   44.7510   36.1670   44.6060 O   0  0  0  0  0  0  0  0  0  0  0  0
   43.2540   35.7630   42.9430 N   0  0  0  0  0  0  0  0  0  0  0  0
   42.8780   35.0120   41.8940 C   0  0  0  0  0  0  0  0  0  0  0  0
   41.8170   35.2830   41.2560 O   0  0  0  0  0  0  0  0  0  0  0  0
   46.4400   33.9940   43.9330 C   0  0  0  0  0  0  0  0  0  0  0  0
   44.8380   32.5570   38.6790 O   0  0  0  0  0  0  0  0  0  0  0  0
   46.0390   33.1660   38.5950 C   0  0  0  0  0  0  0  0  0  0  0  0
   46.5890   33.4270   37.3500 C   0  0  0  0  0  0  0  0  0  0  0  0
   47.8300   34.0630   37.3020 C   0  0  0  0  0  0  0  0  0  0  0  0
   48.4440   34.3970   38.4780 N   0  0  0  0  0  0  0  0  0  0  0  0
   47.8950   34.1350   39.6540 C   0  0  0  0  0  0  0  0  0  0  0  0
   46.7040   33.5230   39.6910 N   0  0  0  0  0  0  0  0  0  0  0  0
   48.6560   34.5440   40.7900 N   0  0  0  0  0  0  0  0  0  0  0  0
   48.9220   35.6950   41.4340 C   0  0  0  0  0  0  0  0  0  0  0  0
   49.7320   35.4390   42.4730 N   0  0  0  0  0  0  0  0  0  0  0  0
   49.9810   34.1270   42.4880 C   0  0  0  0  0  0  0  0  0  0  0  0
   49.3160   33.5760   41.4480 N   0  0  0  0  0  0  0  0  0  0  0  0
   45.1396   32.1029   40.6356 H   0  0  0  0  0  0  0  0  0  0  0  0
   43.5284   30.4392   40.9466 H   0  0  0  0  0  0  0  0  0  0  0  0
   42.7171   30.8249   39.3911 H   0  0  0  0  0  0  0  0  0  0  0  0
   44.3552   30.0878   39.3911 H   0  0  0  0  0  0  0  0  0  0  0  0
   43.0281   33.7956   39.5070 H   0  0  0  0  0  0  0  0  0  0  0  0
   42.3667   32.5429   40.6720 H   0  0  0  0  0  0  0  0  0  0  0  0
   45.3152   32.8094   41.8311 H   0  0  0  0  0  0  0  0  0  0  0  0
   42.6801   36.5662   43.2369 H   0  0  0  0  0  0  0  0  0  0  0  0
   46.2866   34.0411   45.0212 H   0  0  0  0  0  0  0  0  0  0  0  0
   46.7181   32.9692   43.6459 H   0  0  0  0  0  0  0  0  0  0  0  0
   47.2451   34.6864   43.6459 H   0  0  0  0  0  0  0  0  0  0  0  0
   46.0629   33.1413   36.4272 H   0  0  0  0  0  0  0  0  0  0  0  0
   48.3056   34.2915   36.3368 H   0  0  0  0  0  0  0  0  0  0  0  0
   48.5373   36.6867   41.1539 H   0  0  0  0  0  0  0  0  0  0  0  0
   50.6117   33.5926   43.2137 H   0  0  0  0  0  0  0  0  0  0  0  0
  1  3  1  0
  2  1  1  0
  3  4  1  0
  4 10  1  0
  4  5  1  0
  5  6  2  0
  6  7  1  0
  6 12  1  0
  7  8  2  0
  9  7  1  0
 10  9  1  0
 11 10  2  0
 13  1  1  0
 14 13  1  0
 14 19  1  0
 15 14  2  0
 16 15  1  0
 16 17  2  0
 17 18  1  0
 18 19  2  0
 18 20  1  0
 20 21  1  0
 20 24  1  0
 21 22  2  0
 22 23  1  0
 24 23  2  0
  1 25  1  1
  2 26  1  0
  2 27  1  0
  2 28  1  0
  3 29  1  0
  3 30  1  0
  5 31  1  0
  9 32  1  0
 12 33  1  0
 12 34  1  0
 12 35  1  0
 15 36  1  0
 16 37  1  0
 21 38  1  0
 23 39  1  0
M  ISO  8  25   8  26   8  27   8  28   8  29   8  30   8  31  14  32   9
M  ISO  7  33   8  34   8  35   8  36  14  37  14  38  14  39  14
M  END
>  <minimizedAffinity>  (1) 
-5.77317524

>  <minimizedRMSD>  (1) 
3.01967311

$$$$
