
     RDKit          3D

 47 50  0  0  1  0  0  0  0  0999 V2000
   44.6770   33.5160   42.8280 C   0  0  0  0  0  0  0  0  0  0  0  0
   44.6270   32.1440   42.9400 C   0  0  0  0  0  0  0  0  0  0  0  0
   43.6360   31.4390   42.3230 C   0  0  0  0  0  0  0  0  0  0  0  0
   42.6830   32.0280   41.5950 N   0  0  0  0  0  0  0  0  0  0  0  0
   42.7380   33.3470   41.4930 C   0  0  0  0  0  0  0  0  0  0  0  0
   43.6930   34.0670   42.0820 N   0  0  0  0  0  0  0  0  0  0  0  0
   47.0960   34.5220   42.9770 C   0  0  1  0  0  0  0  0  0  0  0  0
   46.1370   35.6560   42.8790 C   0  0  0  0  0  0  0  0  0  0  0  0
   45.6710   34.4310   43.4660 C   0  0  1  0  0  0  0  0  0  0  0  0
   47.9780   33.9290   39.4130 C   0  0  0  0  0  0  0  0  0  0  0  0
   47.5380   34.5910   40.6090 C   0  0  0  0  0  0  0  0  0  0  0  0
   47.5510   33.8330   41.7780 C   0  0  0  0  0  0  0  0  0  0  0  0
   47.9620   32.5430   41.7500 N   0  0  0  0  0  0  0  0  0  0  0  0
   48.3670   31.9450   40.6240 C   0  0  0  0  0  0  0  0  0  0  0  0
   48.3820   32.6240   39.4460 N   0  0  0  0  0  0  0  0  0  0  0  0
   41.6840   34.0420   40.7050 C   0  0  1  0  0  0  0  0  0  0  0  0
   41.2600   35.2660   41.4360 C   0  0  0  0  0  0  0  0  0  0  0  0
   42.1480   34.3880   39.3050 C   0  0  0  0  0  0  0  0  0  0  0  0
   41.2050   33.8030   38.2570 C   0  0  0  0  0  0  0  0  0  0  0  0
   40.3420   32.7300   38.8830 C   0  0  0  0  0  0  0  0  0  0  0  0
   38.9440   33.2670   38.8950 C   0  0  0  0  0  0  0  0  0  0  0  0
   38.8730   34.3080   37.8080 C   0  0  0  0  0  0  0  0  0  0  0  0
   40.2840   34.8430   37.7110 C   0  0  0  0  0  0  0  0  0  0  0  0
   45.3899   31.6146   43.5298 H   0  0  0  0  0  0  0  0  0  0  0  0
   43.6207   30.3442   42.4287 H   0  0  0  0  0  0  0  0  0  0  0  0
   48.0885   34.3444   43.4168 H   0  0  0  0  0  0  0  0  0  0  0  0
   46.2778   36.5439   43.5128 H   0  0  0  0  0  0  0  0  0  0  0  0
   45.7848   36.2911   42.0528 H   0  0  0  0  0  0  0  0  0  0  0  0
   45.1763   34.1843   44.4170 H   0  0  0  0  0  0  0  0  0  0  0  0
   47.9900   34.4783   38.4601 H   0  0  0  0  0  0  0  0  0  0  0  0
   47.2083   35.6404   40.6025 H   0  0  0  0  0  0  0  0  0  0  0  0
   48.6909   30.8941   40.6513 H   0  0  0  0  0  0  0  0  0  0  0  0
   40.8301   33.3579   40.5917 H   0  0  0  0  0  0  0  0  0  0  0  0
   41.3223   35.0861   42.5194 H   0  0  0  0  0  0  0  0  0  0  0  0
   41.9207   36.1025   41.1646 H   0  0  0  0  0  0  0  0  0  0  0  0
   40.2234   35.5146   41.1646 H   0  0  0  0  0  0  0  0  0  0  0  0
   42.1743   35.4821   39.1947 H   0  0  0  0  0  0  0  0  0  0  0  0
   43.1504   33.9615   39.1521 H   0  0  0  0  0  0  0  0  0  0  0  0
   41.8312   33.3956   37.4496 H   0  0  0  0  0  0  0  0  0  0  0  0
   40.3901   31.8069   38.2867 H   0  0  0  0  0  0  0  0  0  0  0  0
   40.6842   32.4848   39.8992 H   0  0  0  0  0  0  0  0  0  0  0  0
   38.2253   32.4589   38.6940 H   0  0  0  0  0  0  0  0  0  0  0  0
   38.6937   33.6993   39.8750 H   0  0  0  0  0  0  0  0  0  0  0  0
   38.5613   33.8557   36.8550 H   0  0  0  0  0  0  0  0  0  0  0  0
   38.1385   35.0966   38.0284 H   0  0  0  0  0  0  0  0  0  0  0  0
   40.5343   35.0499   36.6600 H   0  0  0  0  0  0  0  0  0  0  0  0
   40.3801   35.7788   38.2812 H   0  0  0  0  0  0  0  0  0  0  0  0
  1  2  2  0
  1  9  1  0
  3  2  1  0
  4  3  2  0
  5  4  1  0
  5  6  2  0
  6  1  1  0
  7  9  1  0
  8  7  1  0
  8  9  1  0
 10 15  2  0
 10 11  1  0
 11 12  2  0
 12  7  1  0
 13 12  1  0
 14 13  2  0
 15 14  1  0
 16 17  1  0
 16  5  1  0
 18 16  1  0
 19 20  1  0
 19 18  1  0
 20 21  1  0
 22 21  1  0
 23 22  1  0
 23 19  1  0
  2 24  1  0
  3 25  1  0
  7 26  1  1
  8 27  1  0
  8 28  1  0
  9 29  1  1
 10 30  1  0
 11 31  1  0
 14 32  1  0
 16 33  1  6
 17 34  1  0
 17 35  1  0
 17 36  1  0
 18 37  1  0
 18 38  1  0
 19 39  1  0
 20 40  1  0
 20 41  1  0
 21 42  1  0
 21 43  1  0
 22 44  1  0
 22 45  1  0
 23 46  1  0
 23 47  1  0
M  ISO  8  24  14  25  14  26  13  27  13  28  13  29  13  30  14  31  14
M  ISO  8  32  14  33   8  34   8  35   8  36   8  37   8  38   8  39  13
M  ISO  8  40  13  41  13  42  13  43  13  44  13  45  13  46  13  47  13
M  END
>  <minimizedAffinity>  (1) 
-5.29595709

>  <minimizedRMSD>  (1) 
1.83748174

$$$$
