
     RDKit          3D

 44 46  0  0  1  0  0  0  0  0999 V2000
   41.3390   31.3960   41.6910 C   0  0  2  0  0  0  0  0  0  0  0  0
   40.4010   30.9390   42.7530 C   0  0  0  0  0  0  0  0  0  0  0  0
   40.5740   31.5050   40.3980 C   0  0  0  0  0  0  0  0  0  0  0  0
   40.7410   32.7520   39.7140 N   0  0  0  0  0  0  0  0  0  0  0  0
   40.4440   33.8980   40.3300 C   0  0  0  0  0  0  0  0  0  0  0  0
   40.5790   35.1560   39.7870 C   0  0  0  0  0  0  0  0  0  0  0  0
   41.0690   35.1700   38.4820 C   0  0  0  0  0  0  0  0  0  0  0  0
   41.2190   36.2960   37.9120 O   0  0  0  0  0  0  0  0  0  0  0  0
   41.3750   34.0330   37.8350 N   0  0  0  0  0  0  0  0  0  0  0  0
   41.2130   32.8440   38.4430 C   0  0  0  0  0  0  0  0  0  0  0  0
   41.4980   31.7670   37.8420 O   0  0  0  0  0  0  0  0  0  0  0  0
   40.2260   36.3670   40.5630 C   0  0  0  0  0  0  0  0  0  0  0  0
   42.4630   30.5400   41.4940 O   0  0  0  0  0  0  0  0  0  0  0  0
   43.6440   30.7690   42.1070 C   0  0  0  0  0  0  0  0  0  0  0  0
   43.9820   30.0240   43.2270 C   0  0  0  0  0  0  0  0  0  0  0  0
   45.2180   30.2880   43.8320 C   0  0  0  0  0  0  0  0  0  0  0  0
   46.0350   31.2650   43.2970 N   0  0  0  0  0  0  0  0  0  0  0  0
   45.6630   31.9470   42.2250 C   0  0  0  0  0  0  0  0  0  0  0  0
   44.4880   31.6930   41.6530 N   0  0  0  0  0  0  0  0  0  0  0  0
   46.5590   32.9340   41.7360 N   0  0  0  0  0  0  0  0  0  0  0  0
   46.7160   34.0470   42.4510 C   0  0  0  0  0  0  0  0  0  0  0  0
   47.5840   35.0460   42.0130 C   0  0  0  0  0  0  0  0  0  0  0  0
   48.2670   34.8520   40.8330 C   0  0  0  0  0  0  0  0  0  0  0  0
   49.1310   35.9150   40.4550 N   0  0  0  0  0  0  0  0  0  0  0  0
   48.0750   33.7100   40.1430 N   0  0  0  0  0  0  0  0  0  0  0  0
   47.2280   32.7540   40.5880 C   0  0  0  0  0  0  0  0  0  0  0  0
   47.0770   31.7050   39.9180 O   0  0  0  0  0  0  0  0  0  0  0  0
   41.7449   32.3642   42.0195 H   0  0  0  0  0  0  0  0  0  0  0  0
   40.8350   31.1505   43.7414 H   0  0  0  0  0  0  0  0  0  0  0  0
   39.4441   31.4719   42.6511 H   0  0  0  0  0  0  0  0  0  0  0  0
   40.2308   29.8570   42.6511 H   0  0  0  0  0  0  0  0  0  0  0  0
   40.9111   30.6986   39.7301 H   0  0  0  0  0  0  0  0  0  0  0  0
   39.5077   31.4301   40.6574 H   0  0  0  0  0  0  0  0  0  0  0  0
   40.0589   33.8320   41.3583 H   0  0  0  0  0  0  0  0  0  0  0  0
   41.7347   34.0718   36.8706 H   0  0  0  0  0  0  0  0  0  0  0  0
   40.2907   36.1451   41.6384 H   0  0  0  0  0  0  0  0  0  0  0  0
   40.9248   37.1790   40.3135 H   0  0  0  0  0  0  0  0  0  0  0  0
   39.2003   36.6763   40.3135 H   0  0  0  0  0  0  0  0  0  0  0  0
   43.3048   29.2543   43.6256 H   0  0  0  0  0  0  0  0  0  0  0  0
   45.5339   29.7241   44.7221 H   0  0  0  0  0  0  0  0  0  0  0  0
   46.1588   34.1782   43.3903 H   0  0  0  0  0  0  0  0  0  0  0  0
   47.7203   35.9684   42.5967 H   0  0  0  0  0  0  0  0  0  0  0  0
   49.6786   35.8490   39.5852 H   0  0  0  0  0  0  0  0  0  0  0  0
   49.2096   36.7515   41.0509 H   0  0  0  0  0  0  0  0  0  0  0  0
  1  2  1  0
  3  1  1  0
  4  5  1  0
  4  3  1  0
  6  5  2  0
  6 12  1  0
  7  6  1  0
  8  7  2  0
  9 10  1  0
  9  7  1  0
 10  4  1  0
 11 10  2  0
 13  1  1  0
 13 14  1  0
 14 15  2  0
 15 16  1  0
 17 16  2  0
 18 17  1  0
 19 14  1  0
 19 18  2  0
 20 18  1  0
 20 21  1  0
 22 21  2  0
 23 22  1  0
 24 23  1  0
 25 26  1  0
 25 23  2  0
 26 20  1  0
 27 26  2  0
  1 28  1  1
  2 29  1  0
  2 30  1  0
  2 31  1  0
  3 32  1  0
  3 33  1  0
  5 34  1  0
  9 35  1  0
 12 36  1  0
 12 37  1  0
 12 38  1  0
 15 39  1  0
 16 40  1  0
 21 41  1  0
 22 42  1  0
 24 43  1  0
 24 44  1  0
M  ISO  8  28   8  29   8  30   8  31   8  32   8  33   8  34  14  35   9
M  ISO  7  36   8  37   8  38   8  39  14  40  14  41  14  42  14
M  END
>  <minimizedAffinity>  (1) 
-5.69654942

>  <minimizedRMSD>  (1) 
6.04124546

$$$$
