
     RDKit          3D

 41 43  0  0  1  0  0  0  0  0999 V2000
   44.0680   32.3190   39.7710 C   0  0  2  0  0  0  0  0  0  0  0  0
   43.3090   31.0420   39.8750 C   0  0  0  0  0  0  0  0  0  0  0  0
   43.1420   33.4460   40.1570 C   0  0  0  0  0  0  0  0  0  0  0  0
   43.5200   34.1380   41.3500 N   0  0  0  0  0  0  0  0  0  0  0  0
   44.6730   33.8480   41.9550 C   0  0  0  0  0  0  0  0  0  0  0  0
   45.1540   34.4500   43.0930 C   0  0  0  0  0  0  0  0  0  0  0  0
   44.3280   35.4370   43.6180 C   0  0  0  0  0  0  0  0  0  0  0  0
   44.6970   36.0440   44.6710 O   0  0  0  0  0  0  0  0  0  0  0  0
   43.1490   35.7570   43.0310 N   0  0  0  0  0  0  0  0  0  0  0  0
   42.7610   35.1140   41.9180 C   0  0  0  0  0  0  0  0  0  0  0  0
   41.6610   35.4020   41.3580 O   0  0  0  0  0  0  0  0  0  0  0  0
   46.4530   34.0580   43.6830 C   0  0  0  0  0  0  0  0  0  0  0  0
   44.5950   32.5810   38.4710 O   0  0  0  0  0  0  0  0  0  0  0  0
   45.8490   33.0570   38.3010 C   0  0  0  0  0  0  0  0  0  0  0  0
   46.3500   33.2140   37.0200 C   0  0  0  0  0  0  0  0  0  0  0  0
   47.6470   33.7130   36.8810 C   0  0  0  0  0  0  0  0  0  0  0  0
   48.3660   34.0240   38.0140 N   0  0  0  0  0  0  0  0  0  0  0  0
   47.8490   33.8580   39.2210 C   0  0  0  0  0  0  0  0  0  0  0  0
   46.6080   33.3800   39.3470 N   0  0  0  0  0  0  0  0  0  0  0  0
   48.6060   34.1870   40.4260 C   0  0  0  0  0  0  0  0  0  0  0  0
   48.6710   35.4760   40.8980 C   0  0  0  0  0  0  0  0  0  0  0  0
   49.4160   35.7160   42.0590 C   0  0  0  0  0  0  0  0  0  0  0  0
   50.0660   34.7240   42.7210 N   0  0  0  0  0  0  0  0  0  0  0  0
   49.9730   33.4920   42.2250 C   0  0  0  0  0  0  0  0  0  0  0  0
   49.2610   33.1980   41.0980 N   0  0  0  0  0  0  0  0  0  0  0  0
   44.9344   32.2351   40.4435 H   0  0  0  0  0  0  0  0  0  0  0  0
   43.1591   30.7898   40.9352 H   0  0  0  0  0  0  0  0  0  0  0  0
   42.3315   31.1553   39.3833 H   0  0  0  0  0  0  0  0  0  0  0  0
   43.8757   30.2376   39.3833 H   0  0  0  0  0  0  0  0  0  0  0  0
   43.1198   34.1716   39.3306 H   0  0  0  0  0  0  0  0  0  0  0  0
   42.1598   32.9919   40.3549 H   0  0  0  0  0  0  0  0  0  0  0  0
   45.2924   33.0587   41.5040 H   0  0  0  0  0  0  0  0  0  0  0  0
   42.5523   36.4915   43.4376 H   0  0  0  0  0  0  0  0  0  0  0  0
   46.3790   34.0803   44.7803 H   0  0  0  0  0  0  0  0  0  0  0  0
   46.7134   33.0413   43.3537 H   0  0  0  0  0  0  0  0  0  0  0  0
   47.2324   34.7610   43.3537 H   0  0  0  0  0  0  0  0  0  0  0  0
   45.7452   32.9537   36.1388 H   0  0  0  0  0  0  0  0  0  0  0  0
   48.0872   33.8553   35.8830 H   0  0  0  0  0  0  0  0  0  0  0  0
   48.1527   36.2956   40.3787 H   0  0  0  0  0  0  0  0  0  0  0  0
   49.4769   36.7430   42.4482 H   0  0  0  0  0  0  0  0  0  0  0  0
   50.4929   32.6748   42.7464 H   0  0  0  0  0  0  0  0  0  0  0  0
  1  2  1  0
  1  3  1  0
  3  4  1  0
  4 10  1  0
  4  5  1  0
  5  6  2  0
  6  7  1  0
  6 12  1  0
  7  8  2  0
  9  7  1  0
 10  9  1  0
 11 10  2  0
 13  1  1  0
 14 13  1  0
 14 19  1  0
 15 14  2  0
 16 15  1  0
 16 17  2  0
 17 18  1  0
 18 19  2  0
 18 20  1  0
 20 21  2  0
 20 25  1  0
 21 22  1  0
 22 23  2  0
 24 23  1  0
 25 24  2  0
  1 26  1  1
  2 27  1  0
  2 28  1  0
  2 29  1  0
  3 30  1  0
  3 31  1  0
  5 32  1  0
  9 33  1  0
 12 34  1  0
 12 35  1  0
 12 36  1  0
 15 37  1  0
 16 38  1  0
 21 39  1  0
 22 40  1  0
 24 41  1  0
M  ISO  8  26   8  27   8  28   8  29   8  30   8  31   8  32  14  33   9
M  ISO  8  34   8  35   8  36   8  37  14  38  14  39  14  40  14  41  14
M  END
>  <minimizedAffinity>  (1) 
-5.69382286

>  <minimizedRMSD>  (1) 
3.43485546

$$$$
