
     RDKit          3D

 36 37  0  0  1  0  0  0  0  0999 V2000
   45.7070   34.4130   41.7040 C   0  0  2  0  0  0  0  0  0  0  0  0
   44.3290   34.7150   41.2320 C   0  0  0  0  0  0  0  0  0  0  0  0
   45.9830   35.2510   42.9300 C   0  0  0  0  0  0  0  0  0  0  0  0
   45.8130   34.5540   44.1690 N   0  0  0  0  0  0  0  0  0  0  0  0
   46.4770   33.4170   44.3970 C   0  0  0  0  0  0  0  0  0  0  0  0
   46.4160   32.6680   45.5490 C   0  0  0  0  0  0  0  0  0  0  0  0
   45.5710   33.1900   46.5270 C   0  0  0  0  0  0  0  0  0  0  0  0
   45.4580   32.5580   47.6240 O   0  0  0  0  0  0  0  0  0  0  0  0
   44.8880   34.3290   46.3290 N   0  0  0  0  0  0  0  0  0  0  0  0
   45.0090   35.0000   45.1670 C   0  0  0  0  0  0  0  0  0  0  0  0
   44.3660   36.0760   44.9710 O   0  0  0  0  0  0  0  0  0  0  0  0
   47.1970   31.4220   45.7000 C   0  0  0  0  0  0  0  0  0  0  0  0
   46.7230   34.6690   40.7360 O   0  0  0  0  0  0  0  0  0  0  0  0
   47.6930   33.7690   40.4740 C   0  0  0  0  0  0  0  0  0  0  0  0
   47.6530   33.0410   39.2950 C   0  0  0  0  0  0  0  0  0  0  0  0
   48.6780   32.1220   39.0580 C   0  0  0  0  0  0  0  0  0  0  0  0
   49.6830   31.9740   39.9990 N   0  0  0  0  0  0  0  0  0  0  0  0
   49.6750   32.6930   41.1110 C   0  0  0  0  0  0  0  0  0  0  0  0
   48.6930   33.5660   41.3270 N   0  0  0  0  0  0  0  0  0  0  0  0
   50.7320   32.5390   42.1050 C   0  0  0  0  0  0  0  0  0  0  0  0
   51.1410   31.4040   42.4690 O   0  0  0  0  0  0  0  0  0  0  0  0
   51.3290   33.6590   42.6880 O   0  0  0  0  0  0  0  0  0  0  0  0
   45.7431   33.3342   41.9160 H   0  0  0  0  0  0  0  0  0  0  0  0
   43.6679   34.8599   42.0992 H   0  0  0  0  0  0  0  0  0  0  0  0
   44.3423   35.6315   40.6239 H   0  0  0  0  0  0  0  0  0  0  0  0
   43.9578   33.8769   40.6239 H   0  0  0  0  0  0  0  0  0  0  0  0
   47.0215   35.6096   42.8758 H   0  0  0  0  0  0  0  0  0  0  0  0
   45.2481   36.0694   42.9249 H   0  0  0  0  0  0  0  0  0  0  0  0
   47.1299   33.0475   43.5925 H   0  0  0  0  0  0  0  0  0  0  0  0
   44.2691   34.6911   47.0684 H   0  0  0  0  0  0  0  0  0  0  0  0
   47.3345   31.2027   46.7691 H   0  0  0  0  0  0  0  0  0  0  0  0
   46.6578   30.5911   45.2216 H   0  0  0  0  0  0  0  0  0  0  0  0
   48.1799   31.5451   45.2216 H   0  0  0  0  0  0  0  0  0  0  0  0
   46.8393   33.1826   38.5685 H   0  0  0  0  0  0  0  0  0  0  0  0
   48.6867   31.5233   38.1352 H   0  0  0  0  0  0  0  0  0  0  0  0
   52.0454   33.5438   43.3615 H   0  0  0  0  0  0  0  0  0  0  0  0
  1  3  1  0
  2  1  1  0
  3  4  1  0
  4  5  1  0
  4 10  1  0
  5  6  2  0
  6 12  1  0
  6  7  1  0
  7  8  2  0
  9  7  1  0
 10  9  1  0
 11 10  2  0
 13  1  1  0
 14 13  1  0
 14 19  1  0
 15 14  2  0
 16 15  1  0
 16 17  2  0
 17 18  1  0
 18 19  2  0
 18 20  1  0
 20 21  2  0
 20 22  1  0
  1 23  1  1
  2 24  1  0
  2 25  1  0
  2 26  1  0
  3 27  1  0
  3 28  1  0
  5 29  1  0
  9 30  1  0
 12 31  1  0
 12 32  1  0
 12 33  1  0
 15 34  1  0
 16 35  1  0
 22 36  1  0
M  ISO  8  23   8  24   8  25   8  26   8  27   8  28   8  29  14  30   9
M  ISO  6  31   8  32   8  33   8  34  14  35  14  36   3
M  END
>  <minimizedAffinity>  (1) 
-5.59661579

>  <minimizedRMSD>  (1) 
3.3094666

$$$$
