
     RDKit          3D

 46 48  0  0  1  0  0  0  0  0999 V2000
   46.6830   30.1100   45.1340 C   0  0  2  0  0  0  0  0  0  0  0  0
   46.9890   29.1230   44.0620 C   0  0  0  0  0  0  0  0  0  0  0  0
   46.4620   29.3530   46.4180 C   0  0  0  0  0  0  0  0  0  0  0  0
   47.2890   29.7790   47.5050 N   0  0  0  0  0  0  0  0  0  0  0  0
   48.5840   29.4580   47.5250 C   0  0  0  0  0  0  0  0  0  0  0  0
   49.4860   29.8150   48.4990 C   0  0  0  0  0  0  0  0  0  0  0  0
   48.9400   30.5780   49.5310 C   0  0  0  0  0  0  0  0  0  0  0  0
   49.7070   30.9520   50.4760 O   0  0  0  0  0  0  0  0  0  0  0  0
   47.6360   30.9220   49.5460 N   0  0  0  0  0  0  0  0  0  0  0  0
   46.8290   30.5240   48.5470 C   0  0  0  0  0  0  0  0  0  0  0  0
   45.6000   30.8380   48.5470 O   0  0  0  0  0  0  0  0  0  0  0  0
   50.9030   29.4050   48.4250 C   0  0  0  0  0  0  0  0  0  0  0  0
   45.5400   30.9210   44.8710 O   0  0  0  0  0  0  0  0  0  0  0  0
   45.5200   31.8020   43.8470 C   0  0  0  0  0  0  0  0  0  0  0  0
   44.4870   31.7590   42.9250 C   0  0  0  0  0  0  0  0  0  0  0  0
   44.5030   32.6890   41.8840 C   0  0  0  0  0  0  0  0  0  0  0  0
   45.5340   33.6050   41.8160 N   0  0  0  0  0  0  0  0  0  0  0  0
   46.5030   33.6070   42.7210 C   0  0  0  0  0  0  0  0  0  0  0  0
   46.4800   32.7120   43.7130 N   0  0  0  0  0  0  0  0  0  0  0  0
   47.5910   34.5970   42.6190 C   0  0  0  0  0  0  0  0  0  0  0  0
   47.8200   35.0260   41.1650 C   0  0  0  0  0  0  0  0  0  0  0  0
   49.0550   35.9090   41.3750 C   0  0  0  0  0  0  0  0  0  0  0  0
   49.8720   35.1360   42.4000 C   0  0  0  0  0  0  0  0  0  0  0  0
   48.9430   34.0950   43.0020 C   0  0  0  0  0  0  0  0  0  0  0  0
   47.5393   30.7978   45.1943 H   0  0  0  0  0  0  0  0  0  0  0  0
   47.2855   28.1668   44.5178 H   0  0  0  0  0  0  0  0  0  0  0  0
   46.0959   28.9706   43.4381 H   0  0  0  0  0  0  0  0  0  0  0  0
   47.8117   29.5025   43.4381 H   0  0  0  0  0  0  0  0  0  0  0  0
   45.4106   29.4796   46.7155 H   0  0  0  0  0  0  0  0  0  0  0  0
   46.7267   28.3050   46.2141 H   0  0  0  0  0  0  0  0  0  0  0  0
   48.9635   28.8540   46.6877 H   0  0  0  0  0  0  0  0  0  0  0  0
   47.2597   31.4877   50.3201 H   0  0  0  0  0  0  0  0  0  0  0  0
   51.3047   29.2888   49.4424 H   0  0  0  0  0  0  0  0  0  0  0  0
   50.9802   28.4477   47.8887 H   0  0  0  0  0  0  0  0  0  0  0  0
   51.4795   30.1732   47.8887 H   0  0  0  0  0  0  0  0  0  0  0  0
   43.6803   31.0161   43.0104 H   0  0  0  0  0  0  0  0  0  0  0  0
   43.7044   32.6920   41.1275 H   0  0  0  0  0  0  0  0  0  0  0  0
   47.2448   35.3906   43.2976 H   0  0  0  0  0  0  0  0  0  0  0  0
   46.9687   35.5945   40.7625 H   0  0  0  0  0  0  0  0  0  0  0  0
   47.9384   34.2070   40.4403 H   0  0  0  0  0  0  0  0  0  0  0  0
   49.6154   36.0314   40.4364 H   0  0  0  0  0  0  0  0  0  0  0  0
   48.8032   36.9272   41.7065 H   0  0  0  0  0  0  0  0  0  0  0  0
   50.7264   34.6447   41.9116 H   0  0  0  0  0  0  0  0  0  0  0  0
   50.2713   35.8063   43.1754 H   0  0  0  0  0  0  0  0  0  0  0  0
   49.0538   34.0502   44.0955 H   0  0  0  0  0  0  0  0  0  0  0  0
   49.1450   33.0738   42.6467 H   0  0  0  0  0  0  0  0  0  0  0  0
  1  3  1  0
  2  1  1  0
  3  4  1  0
  4  5  1  0
  4 10  1  0
  5  6  2  0
  6  7  1  0
  7  9  1  0
  7  8  2  0
 10 11  2  0
 10  9  1  0
 12  6  1  0
 13  1  1  0
 14 13  1  0
 15 14  2  0
 16 15  1  0
 17 16  2  0
 17 18  1  0
 18 19  2  0
 19 14  1  0
 20 18  1  0
 20 24  1  0
 21 22  1  0
 21 20  1  0
 22 23  1  0
 23 24  1  0
  1 25  1  1
  2 26  1  0
  2 27  1  0
  2 28  1  0
  3 29  1  0
  3 30  1  0
  5 31  1  0
  9 32  1  0
 12 33  1  0
 12 34  1  0
 12 35  1  0
 15 36  1  0
 16 37  1  0
 20 38  1  0
 21 39  1  0
 21 40  1  0
 22 41  1  0
 22 42  1  0
 23 43  1  0
 23 44  1  0
 24 45  1  0
 24 46  1  0
M  ISO  8  25   8  26   8  27   8  28   8  29   8  30   8  31  14  32   9
M  ISO  8  33   8  34   8  35   8  36  14  37  14  38  13  39  13  40  13
M  ISO  6  41  13  42  13  43  13  44  13  45  13  46  13
M  END
>  <minimizedAffinity>  (1) 
-5.39425468

>  <minimizedRMSD>  (1) 
6.16704273

$$$$
