
     RDKit          3D

 42 45  0  0  1  0  0  0  0  0999 V2000
   46.8050   33.6770   42.7680 C   0  0  0  0  0  0  0  0  0  0  0  0
   46.5240   32.5040   43.4340 C   0  0  0  0  0  0  0  0  0  0  0  0
   45.2730   31.9660   43.3950 C   0  0  0  0  0  0  0  0  0  0  0  0
   44.2740   32.5390   42.7240 N   0  0  0  0  0  0  0  0  0  0  0  0
   44.5520   33.6840   42.0740 C   0  0  0  0  0  0  0  0  0  0  0  0
   45.7660   34.2190   42.1020 N   0  0  0  0  0  0  0  0  0  0  0  0
   49.0650   34.2880   41.5850 C   0  0  1  0  0  0  0  0  0  0  0  0
   48.3660   35.5550   41.9410 C   0  0  0  0  0  0  0  0  0  0  0  0
   48.1130   34.3950   42.7500 C   0  0  1  0  0  0  0  0  0  0  0  0
   47.7870   33.6810   38.1470 C   0  0  0  0  0  0  0  0  0  0  0  0
   48.1380   34.3650   39.3580 C   0  0  0  0  0  0  0  0  0  0  0  0
   48.7120   33.5830   40.3550 C   0  0  0  0  0  0  0  0  0  0  0  0
   48.9090   32.2610   40.1520 N   0  0  0  0  0  0  0  0  0  0  0  0
   48.5750   31.6450   39.0180 C   0  0  0  0  0  0  0  0  0  0  0  0
   48.0130   32.3380   38.0030 N   0  0  0  0  0  0  0  0  0  0  0  0
   43.4390   34.3360   41.3220 C   0  0  1  0  0  0  0  0  0  0  0  0
   43.5140   35.8030   41.6110 C   0  0  0  0  0  0  0  0  0  0  0  0
   43.5380   34.0720   39.8500 C   0  0  0  0  0  0  0  0  0  0  0  0
   42.3530   34.4120   39.0540 C   0  0  0  0  0  0  0  0  0  0  0  0
   42.0740   35.5060   38.2740 C   0  0  0  0  0  0  0  0  0  0  0  0
   40.8690   35.6190   37.6140 C   0  0  0  0  0  0  0  0  0  0  0  0
   39.9370   34.6560   37.7200 N   0  0  0  0  0  0  0  0  0  0  0  0
   40.2160   33.5870   38.4840 C   0  0  0  0  0  0  0  0  0  0  0  0
   41.3900   33.4460   39.1460 N   0  0  0  0  0  0  0  0  0  0  0  0
   47.3174   31.9970   44.0027 H   0  0  0  0  0  0  0  0  0  0  0  0
   45.0809   31.0273   43.9353 H   0  0  0  0  0  0  0  0  0  0  0  0
   50.1031   33.9487   41.4539 H   0  0  0  0  0  0  0  0  0  0  0  0
   48.9406   36.3950   42.3584 H   0  0  0  0  0  0  0  0  0  0  0  0
   47.7252   36.2576   41.3880 H   0  0  0  0  0  0  0  0  0  0  0  0
   48.1695   34.1869   43.8287 H   0  0  0  0  0  0  0  0  0  0  0  0
   47.3289   34.2443   37.3207 H   0  0  0  0  0  0  0  0  0  0  0  0
   47.9638   35.4430   39.4903 H   0  0  0  0  0  0  0  0  0  0  0  0
   48.7580   30.5659   38.9077 H   0  0  0  0  0  0  0  0  0  0  0  0
   42.4710   33.9236   41.6427 H   0  0  0  0  0  0  0  0  0  0  0  0
   43.5221   35.9624   42.6994 H   0  0  0  0  0  0  0  0  0  0  0  0
   44.4345   36.2164   41.1730 H   0  0  0  0  0  0  0  0  0  0  0  0
   42.6405   36.3081   41.1730 H   0  0  0  0  0  0  0  0  0  0  0  0
   44.3845   34.6560   39.4596 H   0  0  0  0  0  0  0  0  0  0  0  0
   43.6587   32.9831   39.7516 H   0  0  0  0  0  0  0  0  0  0  0  0
   42.8234   36.3050   38.1739 H   0  0  0  0  0  0  0  0  0  0  0  0
   40.6682   36.5056   36.9947 H   0  0  0  0  0  0  0  0  0  0  0  0
   39.4602   32.7931   38.5761 H   0  0  0  0  0  0  0  0  0  0  0  0
  1  2  2  0
  3  2  1  0
  4  3  2  0
  5  6  2  0
  5  4  1  0
  6  1  1  0
  7  8  1  0
  7  9  1  0
  8  9  1  0
  9  1  1  0
 10 11  2  0
 11 12  1  0
 12  7  1  0
 13 12  2  0
 14 13  1  0
 15 10  1  0
 15 14  2  0
 16 17  1  0
 16  5  1  0
 18 16  1  0
 19 24  1  0
 19 18  1  0
 20 19  2  0
 21 22  2  0
 21 20  1  0
 22 23  1  0
 23 24  2  0
  2 25  1  0
  3 26  1  0
  7 27  1  1
  8 28  1  0
  8 29  1  0
  9 30  1  1
 10 31  1  0
 11 32  1  0
 14 33  1  0
 16 34  1  1
 17 35  1  0
 17 36  1  0
 17 37  1  0
 18 38  1  0
 18 39  1  0
 20 40  1  0
 21 41  1  0
 23 42  1  0
M  ISO  8  25  14  26  14  27  13  28  13  29  13  30  13  31  14  32  14
M  ISO  8  33  14  34   8  35   8  36   8  37   8  38   8  39   8  40  14
M  ISO  2  41  14  42  14
M  END
>  <minimizedAffinity>  (1) 
-5.25360966

>  <minimizedRMSD>  (1) 
2.18793082

$$$$
