
     RDKit          3D

 40 43  0  0  1  0  0  0  0  0999 V2000
   46.4020   33.9030   42.4120 C   0  0  0  0  0  0  0  0  0  0  0  0
   45.9260   32.7160   42.9260 C   0  0  0  0  0  0  0  0  0  0  0  0
   44.6170   32.3800   42.7700 C   0  0  0  0  0  0  0  0  0  0  0  0
   43.7420   33.1600   42.1270 N   0  0  0  0  0  0  0  0  0  0  0  0
   44.2080   34.2990   41.6370 C   0  0  0  0  0  0  0  0  0  0  0  0
   45.4860   34.6620   41.7700 N   0  0  0  0  0  0  0  0  0  0  0  0
   48.8340   34.1690   41.4600 C   0  0  1  0  0  0  0  0  0  0  0  0
   48.3050   35.5320   41.7530 C   0  0  0  0  0  0  0  0  0  0  0  0
   47.7980   34.4340   42.5260 C   0  0  1  0  0  0  0  0  0  0  0  0
   47.7950   33.7110   37.9180 C   0  0  0  0  0  0  0  0  0  0  0  0
   48.1270   34.3450   39.1610 C   0  0  0  0  0  0  0  0  0  0  0  0
   48.5090   33.5030   40.2070 C   0  0  0  0  0  0  0  0  0  0  0  0
   48.5500   32.1620   40.0170 N   0  0  0  0  0  0  0  0  0  0  0  0
   48.2380   31.5920   38.8520 C   0  0  0  0  0  0  0  0  0  0  0  0
   47.8570   32.3530   37.7880 N   0  0  0  0  0  0  0  0  0  0  0  0
   43.2670   35.2060   40.9290 C   0  0  1  0  0  0  0  0  0  0  0  0
   42.9020   34.5980   39.6220 C   0  0  0  0  0  0  0  0  0  0  0  0
   42.0350   35.5090   41.7470 C   0  0  0  0  0  0  0  0  0  0  0  0
   40.8320   35.0210   41.0960 N   0  0  0  0  0  0  0  0  0  0  0  0
   40.0320   35.6300   40.2020 C   0  0  0  0  0  0  0  0  0  0  0  0
   39.0110   34.8070   39.8520 N   0  0  0  0  0  0  0  0  0  0  0  0
   39.2180   33.6640   40.5690 C   0  0  0  0  0  0  0  0  0  0  0  0
   40.3280   33.8130   41.3190 N   0  0  0  0  0  0  0  0  0  0  0  0
   46.6061   32.0388   43.4636 H   0  0  0  0  0  0  0  0  0  0  0  0
   44.2638   31.4269   43.1904 H   0  0  0  0  0  0  0  0  0  0  0  0
   49.8174   33.6773   41.4275 H   0  0  0  0  0  0  0  0  0  0  0  0
   48.9575   36.2779   42.2302 H   0  0  0  0  0  0  0  0  0  0  0  0
   47.8374   36.3189   41.1430 H   0  0  0  0  0  0  0  0  0  0  0  0
   47.7102   34.2419   43.6055 H   0  0  0  0  0  0  0  0  0  0  0  0
   47.4869   34.3258   37.0595 H   0  0  0  0  0  0  0  0  0  0  0  0
   48.0829   35.4373   39.2837 H   0  0  0  0  0  0  0  0  0  0  0  0
   48.2888   30.4980   38.7494 H   0  0  0  0  0  0  0  0  0  0  0  0
   43.7716   36.1696   40.7650 H   0  0  0  0  0  0  0  0  0  0  0  0
   42.3428   33.6665   39.7943 H   0  0  0  0  0  0  0  0  0  0  0  0
   42.2765   35.3011   39.0524 H   0  0  0  0  0  0  0  0  0  0  0  0
   43.8166   34.3766   39.0524 H   0  0  0  0  0  0  0  0  0  0  0  0
   42.1308   35.0255   42.7304 H   0  0  0  0  0  0  0  0  0  0  0  0
   41.9513   36.6005   41.8545 H   0  0  0  0  0  0  0  0  0  0  0  0
   40.1834   36.6471   39.8115 H   0  0  0  0  0  0  0  0  0  0  0  0
   38.5821   32.7669   40.5395 H   0  0  0  0  0  0  0  0  0  0  0  0
  1  9  1  0
  1  2  2  0
  3  2  1  0
  4  3  2  0
  5  6  2  0
  5  4  1  0
  6  1  1  0
  7  8  1  0
  7  9  1  0
  8  9  1  0
 10 11  2  0
 11 12  1  0
 12  7  1  0
 13 12  2  0
 14 13  1  0
 15 10  1  0
 15 14  2  0
 16  5  1  0
 16 18  1  0
 17 16  1  0
 19 23  1  0
 19 18  1  0
 20 19  1  0
 21 20  2  0
 21 22  1  0
 22 23  2  0
  2 24  1  0
  3 25  1  0
  7 26  1  1
  8 27  1  0
  8 28  1  0
  9 29  1  1
 10 30  1  0
 11 31  1  0
 14 32  1  0
 16 33  1  6
 17 34  1  0
 17 35  1  0
 17 36  1  0
 18 37  1  0
 18 38  1  0
 20 39  1  0
 22 40  1  0
M  ISO  8  24  14  25  14  26  13  27  13  28  13  29  13  30  14  31  14
M  ISO  8  32  14  33   8  34   8  35   8  36   8  37   8  38   8  39  14
M  ISO  1  40  14
M  END
>  <minimizedAffinity>  (1) 
-5.24340248

>  <minimizedRMSD>  (1) 
2.56659722

$$$$
