
     RDKit          3D

 47 50  0  0  1  0  0  0  0  0999 V2000
   44.4830   33.5840   42.6860 C   0  0  0  0  0  0  0  0  0  0  0  0
   44.3800   32.2150   42.8020 C   0  0  0  0  0  0  0  0  0  0  0  0
   43.3710   31.5470   42.1780 C   0  0  0  0  0  0  0  0  0  0  0  0
   42.4470   32.1680   41.4400 N   0  0  0  0  0  0  0  0  0  0  0  0
   42.5530   33.4840   41.3340 C   0  0  0  0  0  0  0  0  0  0  0  0
   43.5280   34.1710   41.9290 N   0  0  0  0  0  0  0  0  0  0  0  0
   46.9430   34.4830   42.8730 C   0  0  1  0  0  0  0  0  0  0  0  0
   46.0390   35.6590   42.7370 C   0  0  0  0  0  0  0  0  0  0  0  0
   45.5040   34.4660   43.3320 C   0  0  1  0  0  0  0  0  0  0  0  0
   47.8210   33.7760   39.3290 C   0  0  0  0  0  0  0  0  0  0  0  0
   47.3880   34.4780   40.5050 C   0  0  0  0  0  0  0  0  0  0  0  0
   47.3890   33.7530   41.6960 C   0  0  0  0  0  0  0  0  0  0  0  0
   47.7860   32.4590   41.7040 N   0  0  0  0  0  0  0  0  0  0  0  0
   48.1860   31.8230   40.5980 C   0  0  0  0  0  0  0  0  0  0  0  0
   48.2090   32.4690   39.4010 N   0  0  0  0  0  0  0  0  0  0  0  0
   41.5310   34.2100   40.5340 C   0  0  1  0  0  0  0  0  0  0  0  0
   41.5440   35.6450   40.9170 C   0  0  0  0  0  0  0  0  0  0  0  0
   41.7610   34.0530   39.0400 C   0  0  0  0  0  0  0  0  0  0  0  0
   39.4280   30.9970   37.2080 C   0  0  0  0  0  0  0  0  0  0  0  0
   40.8010   30.8540   37.3720 C   0  0  0  0  0  0  0  0  0  0  0  0
   41.5090   31.8660   37.9680 C   0  0  0  0  0  0  0  0  0  0  0  0
   40.9160   33.0310   38.4160 C   0  0  0  0  0  0  0  0  0  0  0  0
   39.5560   33.1740   38.2550 C   0  0  0  0  0  0  0  0  0  0  0  0
   38.8190   32.1530   37.6490 C   0  0  0  0  0  0  0  0  0  0  0  0
   38.5710   29.6770   36.4420 S   0  0  0  0  0  0  0  0  0  0  0  0
   39.5070   28.4970   36.2870 O   0  0  0  0  0  0  0  0  0  0  0  0
   38.0010   30.1220   35.1350 O   0  0  0  0  0  0  0  0  0  0  0  0
   45.1162   31.6593   43.4014 H   0  0  0  0  0  0  0  0  0  0  0  0
   43.3146   30.4537   42.2858 H   0  0  0  0  0  0  0  0  0  0  0  0
   47.9171   34.2680   43.3366 H   0  0  0  0  0  0  0  0  0  0  0  0
   46.2073   36.5495   43.3604 H   0  0  0  0  0  0  0  0  0  0  0  0
   45.7343   36.2963   41.8938 H   0  0  0  0  0  0  0  0  0  0  0  0
   44.9770   34.2592   44.2751 H   0  0  0  0  0  0  0  0  0  0  0  0
   47.8402   34.2969   38.3603 H   0  0  0  0  0  0  0  0  0  0  0  0
   47.0725   35.5311   40.4680 H   0  0  0  0  0  0  0  0  0  0  0  0
   48.4987   30.7700   40.6564 H   0  0  0  0  0  0  0  0  0  0  0  0
   40.5449   33.7740   40.7519 H   0  0  0  0  0  0  0  0  0  0  0  0
   41.5448   35.7318   42.0136 H   0  0  0  0  0  0  0  0  0  0  0  0
   42.4465   36.1248   40.5105 H   0  0  0  0  0  0  0  0  0  0  0  0
   40.6503   36.1411   40.5105 H   0  0  0  0  0  0  0  0  0  0  0  0
   41.5545   35.0179   38.5540 H   0  0  0  0  0  0  0  0  0  0  0  0
   42.8043   33.7303   38.9085 H   0  0  0  0  0  0  0  0  0  0  0  0
   41.3121   29.9424   37.0287 H   0  0  0  0  0  0  0  0  0  0  0  0
   42.5950   31.7453   38.0948 H   0  0  0  0  0  0  0  0  0  0  0  0
   39.0518   34.0880   38.6019 H   0  0  0  0  0  0  0  0  0  0  0  0
   37.7331   32.2736   37.5214 H   0  0  0  0  0  0  0  0  0  0  0  0
   37.5182   29.2816   37.2245 H   0  0  0  0  0  0  0  0  0  0  0  0
  1  2  2  0
  1  9  1  0
  3  2  1  0
  4  3  2  0
  5  4  1  0
  5  6  2  0
  6  1  1  0
  7  9  1  0
  8  7  1  0
  8  9  1  0
 10 15  2  0
 10 11  1  0
 11 12  2  0
 12 13  1  0
 12  7  1  0
 14 13  2  0
 15 14  1  0
 16 17  1  0
 16  5  1  0
 18 16  1  0
 19 20  2  0
 19 24  1  0
 20 21  1  0
 21 22  2  0
 22 18  1  0
 23 22  1  0
 24 23  2  0
 25 19  1  0
 26 25  2  0
 27 25  2  0
  2 28  1  0
  3 29  1  0
  7 30  1  1
  8 31  1  0
  8 32  1  0
  9 33  1  1
 10 34  1  0
 11 35  1  0
 14 36  1  0
 16 37  1  6
 17 38  1  0
 17 39  1  0
 17 40  1  0
 18 41  1  0
 18 42  1  0
 20 43  1  0
 21 44  1  0
 23 45  1  0
 24 46  1  0
 25 47  1  0
M  ISO  8  28  14  29  14  30  13  31  13  32  13  33  13  34  14  35  14
M  ISO  8  36  14  37   8  38   8  39   8  40   8  41   8  42   8  43  14
M  ISO  4  44  14  45  14  46  14  47  11
M  END
>  <minimizedAffinity>  (1) 
-5.04197454

>  <minimizedRMSD>  (1) 
4.16821909

$$$$
