
     RDKit          3D

 31 33  0  0  0  0  0  0  0  0999 V2000
   46.8050   34.8120   42.0290 C   0  0  0  0  0  0  0  0  0  0  0  0
   48.0450   35.3580   41.8460 C   0  0  0  0  0  0  0  0  0  0  0  0
   48.7840   35.2400   40.6840 C   0  0  0  0  0  0  0  0  0  0  0  0
   48.2430   34.5390   39.6660 N   0  0  0  0  0  0  0  0  0  0  0  0
   47.0300   33.9960   39.8260 C   0  0  0  0  0  0  0  0  0  0  0  0
   46.3340   34.1240   40.9580 N   0  0  0  0  0  0  0  0  0  0  0  0
   46.3060   33.2220   38.8490 N   0  0  0  0  0  0  0  0  0  0  0  0
   45.2970   32.3790   39.1950 C   0  0  0  0  0  0  0  0  0  0  0  0
   44.6520   31.6700   38.1960 C   0  0  0  0  0  0  0  0  0  0  0  0
   43.5520   30.7510   38.5610 C   0  0  0  0  0  0  0  0  0  0  0  0
   45.0060   31.7980   36.8760 C   0  0  0  0  0  0  0  0  0  0  0  0
   44.4180   31.1510   35.9540 O   0  0  0  0  0  0  0  0  0  0  0  0
   46.0060   32.6380   36.5680 N   0  0  0  0  0  0  0  0  0  0  0  0
   46.6370   33.3320   37.5500 C   0  0  0  0  0  0  0  0  0  0  0  0
   47.5620   34.0890   37.1300 O   0  0  0  0  0  0  0  0  0  0  0  0
   44.4640   35.9700   44.7520 C   0  0  0  0  0  0  0  0  0  0  0  0
   45.1320   35.9790   43.5150 C   0  0  0  0  0  0  0  0  0  0  0  0
   46.0350   34.9440   43.2610 C   0  0  0  0  0  0  0  0  0  0  0  0
   46.2180   34.0010   44.2090 N   0  0  0  0  0  0  0  0  0  0  0  0
   45.5670   34.0160   45.3830 C   0  0  0  0  0  0  0  0  0  0  0  0
   44.6870   35.0020   45.6600 N   0  0  0  0  0  0  0  0  0  0  0  0
   48.4832   35.9286   42.6781 H   0  0  0  0  0  0  0  0  0  0  0  0
   49.7783   35.7014   40.5924 H   0  0  0  0  0  0  0  0  0  0  0  0
   44.9991   32.2626   40.2475 H   0  0  0  0  0  0  0  0  0  0  0  0
   43.4757   30.6873   39.6565 H   0  0  0  0  0  0  0  0  0  0  0  0
   42.6053   31.1304   38.1490 H   0  0  0  0  0  0  0  0  0  0  0  0
   43.7570   29.7519   38.1490 H   0  0  0  0  0  0  0  0  0  0  0  0
   46.2951   32.7564   35.5865 H   0  0  0  0  0  0  0  0  0  0  0  0
   43.7449   36.7699   44.9823 H   0  0  0  0  0  0  0  0  0  0  0  0
   44.9503   36.7718   42.7745 H   0  0  0  0  0  0  0  0  0  0  0  0
   45.7511   33.2222   46.1219 H   0  0  0  0  0  0  0  0  0  0  0  0
  1 18  1  0
  2  1  2  0
  3  2  1  0
  4  5  1  0
  4  3  2  0
  5  6  2  0
  6  1  1  0
  7  8  1  0
  7  5  1  0
  9 10  1  0
  9  8  2  0
 11  9  1  0
 12 11  2  0
 13 11  1  0
 13 14  1  0
 14  7  1  0
 15 14  2  0
 16 21  2  0
 17 16  1  0
 18 17  2  0
 18 19  1  0
 19 20  2  0
 20 21  1  0
  2 22  1  0
  3 23  1  0
  8 24  1  0
 10 25  1  0
 10 26  1  0
 10 27  1  0
 13 28  1  0
 16 29  1  0
 17 30  1  0
 20 31  1  0
M  ISO  8  22  14  23  14  24  14  25   8  26   8  27   8  28   9  29  14
M  ISO  2  30  14  31  14
M  END
>  <minimizedAffinity>  (1) 
-5.79726076

>  <minimizedRMSD>  (1) 
0.272155941

$$$$
