
     RDKit          3D

 47 51  0  0  1  0  0  0  0  0999 V2000
   44.7610   33.5100   42.7970 C   0  0  0  0  0  0  0  0  0  0  0  0
   44.5830   32.1540   42.9710 C   0  0  0  0  0  0  0  0  0  0  0  0
   43.5210   31.5240   42.4050 C   0  0  0  0  0  0  0  0  0  0  0  0
   42.6070   32.1620   41.6640 N   0  0  0  0  0  0  0  0  0  0  0  0
   42.7860   33.4750   41.5000 C   0  0  0  0  0  0  0  0  0  0  0  0
   43.8170   34.1190   42.0410 N   0  0  0  0  0  0  0  0  0  0  0  0
   47.2380   34.3710   42.7830 C   0  0  1  0  0  0  0  0  0  0  0  0
   46.3410   35.5620   42.7690 C   0  0  0  0  0  0  0  0  0  0  0  0
   45.8510   34.3580   43.3750 C   0  0  1  0  0  0  0  0  0  0  0  0
   47.8470   33.8040   39.1580 C   0  0  0  0  0  0  0  0  0  0  0  0
   47.5330   34.4660   40.3930 C   0  0  0  0  0  0  0  0  0  0  0  0
   47.5640   33.6790   41.5460 C   0  0  0  0  0  0  0  0  0  0  0  0
   47.8770   32.3640   41.4610 N   0  0  0  0  0  0  0  0  0  0  0  0
   48.1670   31.7690   40.3020 C   0  0  0  0  0  0  0  0  0  0  0  0
   48.1560   32.4740   39.1400 N   0  0  0  0  0  0  0  0  0  0  0  0
   41.7860   34.2170   40.7020 C   0  0  1  0  0  0  0  0  0  0  0  0
   41.3990   35.4490   41.4420 C   0  0  0  0  0  0  0  0  0  0  0  0
   42.3040   34.5710   39.3170 C   0  0  0  0  0  0  0  0  0  0  0  0
   42.6720   33.4040   38.5630 N   0  0  0  0  0  0  0  0  0  0  0  0
   43.8810   32.9750   38.1600 C   0  0  0  0  0  0  0  0  0  0  0  0
   43.7370   31.8100   37.4660 N   0  0  0  0  0  0  0  0  0  0  0  0
   42.4120   31.5460   37.4560 C   0  0  0  0  0  0  0  0  0  0  0  0
   41.7210   30.4950   36.8930 C   0  0  0  0  0  0  0  0  0  0  0  0
   40.3780   30.4780   37.0380 N   0  0  0  0  0  0  0  0  0  0  0  0
   39.6960   31.4140   37.6890 C   0  0  0  0  0  0  0  0  0  0  0  0
   40.3680   32.4320   38.2330 N   0  0  0  0  0  0  0  0  0  0  0  0
   41.7150   32.5380   38.1440 C   0  0  0  0  0  0  0  0  0  0  0  0
   42.3160   29.4300   36.1730 N   0  0  0  0  0  0  0  0  0  0  0  0
   45.3043   31.5796   43.5709 H   0  0  0  0  0  0  0  0  0  0  0  0
   43.4071   30.4413   42.5626 H   0  0  0  0  0  0  0  0  0  0  0  0
   48.2470   34.1265   43.1465 H   0  0  0  0  0  0  0  0  0  0  0  0
   46.5799   36.4307   43.4000 H   0  0  0  0  0  0  0  0  0  0  0  0
   45.9660   36.2289   41.9786 H   0  0  0  0  0  0  0  0  0  0  0  0
   45.4146   34.1275   44.3580 H   0  0  0  0  0  0  0  0  0  0  0  0
   47.8385   34.3739   38.2172 H   0  0  0  0  0  0  0  0  0  0  0  0
   47.2814   35.5362   40.4288 H   0  0  0  0  0  0  0  0  0  0  0  0
   48.4173   30.6980   40.2871 H   0  0  0  0  0  0  0  0  0  0  0  0
   40.9089   33.5693   40.5561 H   0  0  0  0  0  0  0  0  0  0  0  0
   41.4582   35.2606   42.5241 H   0  0  0  0  0  0  0  0  0  0  0  0
   42.0833   36.2676   41.1744 H   0  0  0  0  0  0  0  0  0  0  0  0
   40.3695   35.7293   41.1744 H   0  0  0  0  0  0  0  0  0  0  0  0
   41.5169   35.1121   38.7715 H   0  0  0  0  0  0  0  0  0  0  0  0
   43.2033   35.1923   39.4402 H   0  0  0  0  0  0  0  0  0  0  0  0
   44.8358   33.4837   38.3588 H   0  0  0  0  0  0  0  0  0  0  0  0
   38.6014   31.3519   37.7781 H   0  0  0  0  0  0  0  0  0  0  0  0
   43.3371   29.4055   36.0399 H   0  0  0  0  0  0  0  0  0  0  0  0
   41.7276   28.6802   35.7826 H   0  0  0  0  0  0  0  0  0  0  0  0
  1  2  2  0
  1  9  1  0
  3  2  1  0
  4  3  2  0
  5  4  1  0
  5  6  2  0
  6  1  1  0
  7  9  1  0
  8  7  1  0
  8  9  1  0
 10 11  2  0
 11 12  1  0
 12  7  1  0
 13 12  2  0
 14 13  1  0
 15 10  1  0
 15 14  2  0
 16 17  1  0
 16  5  1  0
 18 16  1  0
 19 18  1  0
 20 19  1  0
 21 20  2  0
 22 21  1  0
 22 27  2  0
 23 24  2  0
 23 22  1  0
 24 25  1  0
 25 26  2  0
 27 26  1  0
 27 19  1  0
 28 23  1  0
  2 29  1  0
  3 30  1  0
  7 31  1  1
  8 32  1  0
  8 33  1  0
  9 34  1  1
 10 35  1  0
 11 36  1  0
 14 37  1  0
 16 38  1  6
 17 39  1  0
 17 40  1  0
 17 41  1  0
 18 42  1  0
 18 43  1  0
 20 44  1  0
 25 45  1  0
 28 46  1  0
 28 47  1  0
M  ISO  8  29  14  30  14  31  13  32  13  33  13  34  13  35  14  36  14
M  ISO  8  37  14  38   8  39   8  40   8  41   8  42   8  43   8  44  14
M  ISO  1  45  14
M  END
>  <minimizedAffinity>  (1) 
-4.99909687

>  <minimizedRMSD>  (1) 
0.880239248

$$$$
