
     RDKit          3D

 31 33  0  0  0  0  0  0  0  0999 V2000
   46.6950   34.7280   42.0640 C   0  0  0  0  0  0  0  0  0  0  0  0
   47.9080   35.3450   41.8190 C   0  0  0  0  0  0  0  0  0  0  0  0
   48.6160   35.2040   40.6450 C   0  0  0  0  0  0  0  0  0  0  0  0
   48.0970   34.4190   39.6780 N   0  0  0  0  0  0  0  0  0  0  0  0
   46.9230   33.8170   39.9080 C   0  0  0  0  0  0  0  0  0  0  0  0
   46.2470   33.9630   41.0520 N   0  0  0  0  0  0  0  0  0  0  0  0
   46.3570   32.9840   38.9030 N   0  0  0  0  0  0  0  0  0  0  0  0
   45.2770   32.0500   39.1360 C   0  0  0  0  0  0  0  0  0  0  0  0
   44.2270   32.1160   38.0520 C   0  0  0  0  0  0  0  0  0  0  0  0
   44.7460   32.2300   36.7850 O   0  0  0  0  0  0  0  0  0  0  0  0
   45.5940   33.3400   36.6780 C   0  0  0  0  0  0  0  0  0  0  0  0
   46.8090   32.9870   37.5230 C   0  0  0  0  0  0  0  0  0  0  0  0
   44.4570   35.9810   44.8370 C   0  0  0  0  0  0  0  0  0  0  0  0
   45.0990   35.9230   43.5990 C   0  0  0  0  0  0  0  0  0  0  0  0
   45.9730   34.8940   43.3070 C   0  0  0  0  0  0  0  0  0  0  0  0
   46.1710   33.9520   44.2750 N   0  0  0  0  0  0  0  0  0  0  0  0
   45.5540   34.0040   45.4700 C   0  0  0  0  0  0  0  0  0  0  0  0
   44.7010   35.0050   45.7590 N   0  0  0  0  0  0  0  0  0  0  0  0
   48.3323   35.9852   42.6065 H   0  0  0  0  0  0  0  0  0  0  0  0
   49.5780   35.7174   40.5002 H   0  0  0  0  0  0  0  0  0  0  0  0
   45.6898   31.0309   39.1688 H   0  0  0  0  0  0  0  0  0  0  0  0
   44.7976   32.3164   40.0896 H   0  0  0  0  0  0  0  0  0  0  0  0
   43.6224   31.1982   38.0981 H   0  0  0  0  0  0  0  0  0  0  0  0
   43.6309   33.0217   38.2373 H   0  0  0  0  0  0  0  0  0  0  0  0
   45.8858   33.5046   35.6303 H   0  0  0  0  0  0  0  0  0  0  0  0
   45.1082   34.2666   37.0178 H   0  0  0  0  0  0  0  0  0  0  0  0
   47.1911   31.9937   37.2449 H   0  0  0  0  0  0  0  0  0  0  0  0
   47.6257   33.7079   37.3708 H   0  0  0  0  0  0  0  0  0  0  0  0
   43.7631   36.8031   45.0666 H   0  0  0  0  0  0  0  0  0  0  0  0
   44.9071   36.7042   42.8487 H   0  0  0  0  0  0  0  0  0  0  0  0
   45.7484   33.2211   46.2179 H   0  0  0  0  0  0  0  0  0  0  0  0
  1 15  1  0
  2  1  2  0
  3  2  1  0
  4  5  1  0
  4  3  2  0
  5  6  2  0
  6  1  1  0
  7  8  1  0
  7  5  1  0
  9  8  1  0
 10  9  1  0
 11 10  1  0
 11 12  1  0
 12  7  1  0
 13 18  2  0
 14 13  1  0
 15 14  2  0
 15 16  1  0
 16 17  2  0
 17 18  1  0
  2 19  1  0
  3 20  1  0
  8 21  1  0
  8 22  1  0
  9 23  1  0
  9 24  1  0
 11 25  1  0
 11 26  1  0
 12 27  1  0
 12 28  1  0
 13 29  1  0
 14 30  1  0
 17 31  1  0
M  ISO  8  19  14  20  14  21  13  22  13  23  13  24  13  25  13  26  13
M  ISO  5  27  13  28  13  29  14  30  14  31  14
M  END
>  <minimizedAffinity>  (1) 
-5.35673237

>  <minimizedRMSD>  (1) 
0.0661939085

$$$$
