
     RDKit          3D

 28 30  0  0  0  0  0  0  0  0999 V2000
   46.7320   34.7510   42.0100 C   0  0  0  0  0  0  0  0  0  0  0  0
   47.9700   35.3070   41.7840 C   0  0  0  0  0  0  0  0  0  0  0  0
   48.6880   35.1910   40.6200 C   0  0  0  0  0  0  0  0  0  0  0  0
   48.1260   34.4720   39.6230 N   0  0  0  0  0  0  0  0  0  0  0  0
   46.9210   33.9200   39.8180 C   0  0  0  0  0  0  0  0  0  0  0  0
   46.2330   34.0460   40.9690 N   0  0  0  0  0  0  0  0  0  0  0  0
   44.4770   35.9700   44.7830 C   0  0  0  0  0  0  0  0  0  0  0  0
   45.1160   35.9520   43.5280 C   0  0  0  0  0  0  0  0  0  0  0  0
   46.0020   34.8990   43.2610 C   0  0  0  0  0  0  0  0  0  0  0  0
   46.1930   33.9650   44.2110 N   0  0  0  0  0  0  0  0  0  0  0  0
   45.5790   33.9920   45.4000 C   0  0  0  0  0  0  0  0  0  0  0  0
   44.7150   35.0010   45.6900 N   0  0  0  0  0  0  0  0  0  0  0  0
   46.3430   33.1410   38.6990 C   0  0  0  0  0  0  0  0  0  0  0  0
   45.3300   32.2210   38.9750 C   0  0  0  0  0  0  0  0  0  0  0  0
   44.8530   31.5370   37.8510 C   0  0  0  0  0  0  0  0  0  0  0  0
   45.2930   31.7070   36.5750 C   0  0  0  0  0  0  0  0  0  0  0  0
   46.2920   32.6330   36.3980 C   0  0  0  0  0  0  0  0  0  0  0  0
   46.8390   33.3660   37.4310 C   0  0  0  0  0  0  0  0  0  0  0  0
   48.4199   35.8906   42.6007 H   0  0  0  0  0  0  0  0  0  0  0  0
   49.6755   35.6616   40.5039 H   0  0  0  0  0  0  0  0  0  0  0  0
   43.7767   36.7828   45.0257 H   0  0  0  0  0  0  0  0  0  0  0  0
   44.9262   36.7380   42.7822 H   0  0  0  0  0  0  0  0  0  0  0  0
   45.7726   33.2011   46.1396 H   0  0  0  0  0  0  0  0  0  0  0  0
   44.9401   32.0484   39.9890 H   0  0  0  0  0  0  0  0  0  0  0  0
   44.0539   30.7987   38.0132 H   0  0  0  0  0  0  0  0  0  0  0  0
   44.8731   31.1360   35.7338 H   0  0  0  0  0  0  0  0  0  0  0  0
   46.6756   32.7987   35.3804 H   0  0  0  0  0  0  0  0  0  0  0  0
   47.6382   34.1001   37.2511 H   0  0  0  0  0  0  0  0  0  0  0  0
  1  9  1  0
  2  1  2  0
  3  2  1  0
  4  5  1  0
  4  3  2  0
  5  6  2  0
  6  1  1  0
  7 12  2  0
  8  7  1  0
  9  8  2  0
  9 10  1  0
 10 11  2  0
 11 12  1  0
 13 14  2  0
 13  5  1  0
 15 14  1  0
 16 15  2  0
 17 16  1  0
 17 18  2  0
 18 13  1  0
  2 19  1  0
  3 20  1  0
  7 21  1  0
  8 22  1  0
 11 23  1  0
 14 24  1  0
 15 25  1  0
 16 26  1  0
 17 27  1  0
 18 28  1  0
M  ISO  8  19  14  20  14  21  14  22  14  23  14  24  14  25  14  26  14
M  ISO  2  27  14  28  14
M  END
>  <minimizedAffinity>  (1) 
-5.11004925

>  <minimizedRMSD>  (1) 
0.413911223

$$$$
