
     RDKit          3D

 25 27  0  0  0  0  0  0  0  0999 V2000
   46.7510   34.7900   42.0930 C   0  0  0  0  0  0  0  0  0  0  0  0
   48.0080   35.3400   41.9080 C   0  0  0  0  0  0  0  0  0  0  0  0
   48.7400   35.2300   40.7430 C   0  0  0  0  0  0  0  0  0  0  0  0
   48.1840   34.5370   39.7230 N   0  0  0  0  0  0  0  0  0  0  0  0
   46.9810   34.0040   39.8860 C   0  0  0  0  0  0  0  0  0  0  0  0
   46.2870   34.1210   41.0210 N   0  0  0  0  0  0  0  0  0  0  0  0
   44.4570   35.9350   44.8530 C   0  0  0  0  0  0  0  0  0  0  0  0
   45.1090   35.9300   43.6150 C   0  0  0  0  0  0  0  0  0  0  0  0
   46.0070   34.9220   43.3260 C   0  0  0  0  0  0  0  0  0  0  0  0
   46.2140   33.9660   44.2800 N   0  0  0  0  0  0  0  0  0  0  0  0
   45.5810   33.9810   45.4680 C   0  0  0  0  0  0  0  0  0  0  0  0
   44.7030   34.9620   45.7580 N   0  0  0  0  0  0  0  0  0  0  0  0
   46.3450   33.2460   38.8070 C   0  0  0  0  0  0  0  0  0  0  0  0
   45.8010   31.9670   38.9410 C   0  0  0  0  0  0  0  0  0  0  0  0
   45.3200   31.6300   37.7300 N   0  0  0  0  0  0  0  0  0  0  0  0
   45.5220   32.6060   36.8450 C   0  0  0  0  0  0  0  0  0  0  0  0
   46.1480   33.5860   37.5200 N   0  0  0  0  0  0  0  0  0  0  0  0
   48.4521   35.9010   42.7435 H   0  0  0  0  0  0  0  0  0  0  0  0
   49.7358   35.6876   40.6478 H   0  0  0  0  0  0  0  0  0  0  0  0
   43.7405   36.7350   45.0908 H   0  0  0  0  0  0  0  0  0  0  0  0
   44.9079   36.7221   42.8787 H   0  0  0  0  0  0  0  0  0  0  0  0
   45.7810   33.1895   46.2052 H   0  0  0  0  0  0  0  0  0  0  0  0
   45.7714   31.3559   39.8552 H   0  0  0  0  0  0  0  0  0  0  0  0
   45.2359   32.6091   35.7829 H   0  0  0  0  0  0  0  0  0  0  0  0
   46.4395   34.4825   37.1050 H   0  0  0  0  0  0  0  0  0  0  0  0
  1  9  1  0
  2  1  2  0
  3  2  1  0
  4  5  1  0
  4  3  2  0
  5  6  2  0
  6  1  1  0
  7 12  2  0
  8  7  1  0
  9  8  2  0
  9 10  1  0
 10 11  2  0
 11 12  1  0
 13 14  2  0
 13  5  1  0
 15 14  1  0
 16 17  1  0
 16 15  2  0
 17 13  1  0
  2 18  1  0
  3 19  1  0
  7 20  1  0
  8 21  1  0
 11 22  1  0
 14 23  1  0
 16 24  1  0
 17 25  1  0
M  ISO  8  18  14  19  14  20  14  21  14  22  14  23  14  24  14  25   9
M  END
>  <minimizedAffinity>  (1) 
-5.07600451

>  <minimizedRMSD>  (1) 
0.2425078

$$$$
