
     RDKit          3D

 23 25  0  0  0  0  0  0  0  0999 V2000
   46.7760   34.7670   41.9950 C   0  0  0  0  0  0  0  0  0  0  0  0
   48.0110   35.3520   41.7910 C   0  0  0  0  0  0  0  0  0  0  0  0
   48.7430   35.2510   40.6290 C   0  0  0  0  0  0  0  0  0  0  0  0
   48.1940   34.5140   39.6140 N   0  0  0  0  0  0  0  0  0  0  0  0
   47.0070   33.9490   39.8030 C   0  0  0  0  0  0  0  0  0  0  0  0
   46.3110   34.0620   40.9460 N   0  0  0  0  0  0  0  0  0  0  0  0
   44.4790   35.9480   44.7470 C   0  0  0  0  0  0  0  0  0  0  0  0
   45.1300   35.9310   43.5120 C   0  0  0  0  0  0  0  0  0  0  0  0
   46.0330   34.9000   43.2410 C   0  0  0  0  0  0  0  0  0  0  0  0
   46.2390   33.9610   44.1840 N   0  0  0  0  0  0  0  0  0  0  0  0
   45.6070   33.9830   45.3760 C   0  0  0  0  0  0  0  0  0  0  0  0
   44.7300   34.9680   45.6630 N   0  0  0  0  0  0  0  0  0  0  0  0
   46.3360   33.1450   38.7870 C   0  0  0  0  0  0  0  0  0  0  0  0
   45.3900   32.1680   38.8340 N   0  0  0  0  0  0  0  0  0  0  0  0
   45.1250   31.7670   37.6260 O   0  0  0  0  0  0  0  0  0  0  0  0
   45.8690   32.4520   36.7940 C   0  0  0  0  0  0  0  0  0  0  0  0
   46.6480   33.3320   37.4810 N   0  0  0  0  0  0  0  0  0  0  0  0
   48.4400   35.9403   42.6155 H   0  0  0  0  0  0  0  0  0  0  0  0
   49.7227   35.7394   40.5213 H   0  0  0  0  0  0  0  0  0  0  0  0
   43.7643   36.7507   44.9815 H   0  0  0  0  0  0  0  0  0  0  0  0
   44.9354   36.7153   42.7657 H   0  0  0  0  0  0  0  0  0  0  0  0
   45.8074   33.1950   46.1168 H   0  0  0  0  0  0  0  0  0  0  0  0
   45.8651   32.3337   35.7004 H   0  0  0  0  0  0  0  0  0  0  0  0
  1  9  1  0
  2  1  2  0
  3  2  1  0
  4  5  1  0
  4  3  2  0
  5  6  2  0
  6  1  1  0
  7 12  2  0
  8  7  1  0
  9  8  2  0
  9 10  1  0
 10 11  2  0
 11 12  1  0
 13 14  2  0
 13  5  1  0
 15 14  1  0
 16 17  2  0
 16 15  1  0
 17 13  1  0
  2 18  1  0
  3 19  1  0
  7 20  1  0
  8 21  1  0
 11 22  1  0
 16 23  1  0
M  ISO  6  18  14  19  14  20  14  21  14  22  14  23  14
M  END
>  <minimizedAffinity>  (1) 
-4.90339756

>  <minimizedRMSD>  (1) 
0.378714025

$$$$
