
     RDKit          3D

 27 28  0  0  0  0  0  0  0  0999 V2000
   46.7830   34.7860   42.0520 C   0  0  0  0  0  0  0  0  0  0  0  0
   47.9880   35.3970   41.8300 C   0  0  0  0  0  0  0  0  0  0  0  0
   48.7240   35.2800   40.6710 C   0  0  0  0  0  0  0  0  0  0  0  0
   48.2120   34.5060   39.6860 N   0  0  0  0  0  0  0  0  0  0  0  0
   47.0480   33.9070   39.8820 C   0  0  0  0  0  0  0  0  0  0  0  0
   46.3290   34.0200   41.0160 N   0  0  0  0  0  0  0  0  0  0  0  0
   44.4670   35.9490   44.8000 C   0  0  0  0  0  0  0  0  0  0  0  0
   45.1280   35.9430   43.5590 C   0  0  0  0  0  0  0  0  0  0  0  0
   46.0230   34.9260   43.2920 C   0  0  0  0  0  0  0  0  0  0  0  0
   46.2220   33.9810   44.2400 N   0  0  0  0  0  0  0  0  0  0  0  0
   45.5830   33.9940   45.4290 C   0  0  0  0  0  0  0  0  0  0  0  0
   44.7110   34.9730   45.7080 N   0  0  0  0  0  0  0  0  0  0  0  0
   46.5190   33.0640   38.7740 C   0  0  0  0  0  0  0  0  0  0  0  0
   45.0240   33.0270   38.7380 C   0  0  0  0  0  0  0  0  0  0  0  0
   47.1400   33.5430   37.4910 C   0  0  0  0  0  0  0  0  0  0  0  0
   48.3977   36.0260   42.6341 H   0  0  0  0  0  0  0  0  0  0  0  0
   49.6887   35.7949   40.5512 H   0  0  0  0  0  0  0  0  0  0  0  0
   43.7492   36.7488   45.0347 H   0  0  0  0  0  0  0  0  0  0  0  0
   44.9362   36.7317   42.8166 H   0  0  0  0  0  0  0  0  0  0  0  0
   45.7776   33.2025   46.1677 H   0  0  0  0  0  0  0  0  0  0  0  0
   46.8015   32.0135   38.9369 H   0  0  0  0  0  0  0  0  0  0  0  0
   44.6326   33.0173   39.7660 H   0  0  0  0  0  0  0  0  0  0  0  0
   44.6478   33.9161   38.2108 H   0  0  0  0  0  0  0  0  0  0  0  0
   44.6922   32.1204   38.2108 H   0  0  0  0  0  0  0  0  0  0  0  0
   47.9921   34.2002   37.7191 H   0  0  0  0  0  0  0  0  0  0  0  0
   47.4896   32.6784   36.9077 H   0  0  0  0  0  0  0  0  0  0  0  0
   46.3926   34.1007   36.9077 H   0  0  0  0  0  0  0  0  0  0  0  0
  1  9  1  0
  2  1  2  0
  3  2  1  0
  4  5  1  0
  4  3  2  0
  5  6  2  0
  6  1  1  0
  7 12  2  0
  8  7  1  0
  9  8  2  0
  9 10  1  0
 10 11  2  0
 11 12  1  0
 13  5  1  0
 14 13  1  0
 15 13  1  0
  2 16  1  0
  3 17  1  0
  7 18  1  0
  8 19  1  0
 11 20  1  0
 13 21  1  0
 14 22  1  0
 14 23  1  0
 14 24  1  0
 15 25  1  0
 15 26  1  0
 15 27  1  0
M  ISO  8  16  14  17  14  18  14  19  14  20  14  21   8  22   8  23   8
M  ISO  4  24   8  25   8  26   8  27   8
M  END
>  <minimizedAffinity>  (1) 
-4.73696661

>  <minimizedRMSD>  (1) 
0.119893633

$$$$
