
     RDKit          3D

 39 43  0  0  0  0  0  0  0  0999 V2000
   46.2660   34.4690   41.9940 C   0  0  0  0  0  0  0  0  0  0  0  0
   47.5420   34.7760   41.6410 C   0  0  0  0  0  0  0  0  0  0  0  0
   48.0810   34.5230   40.4030 C   0  0  0  0  0  0  0  0  0  0  0  0
   47.2940   33.9320   39.4840 N   0  0  0  0  0  0  0  0  0  0  0  0
   46.0300   33.6190   39.8140 C   0  0  0  0  0  0  0  0  0  0  0  0
   45.4950   33.8680   41.0310 N   0  0  0  0  0  0  0  0  0  0  0  0
   44.4730   36.0620   44.9200 C   0  0  0  0  0  0  0  0  0  0  0  0
   44.9580   35.9100   43.6090 C   0  0  0  0  0  0  0  0  0  0  0  0
   45.7050   34.7480   43.3220 C   0  0  0  0  0  0  0  0  0  0  0  0
   45.9310   33.8350   44.2920 N   0  0  0  0  0  0  0  0  0  0  0  0
   45.4330   34.0430   45.5450 C   0  0  0  0  0  0  0  0  0  0  0  0
   44.7200   35.1300   45.8550 N   0  0  0  0  0  0  0  0  0  0  0  0
   45.0760   32.9780   38.9280 C   0  0  0  0  0  0  0  0  0  0  0  0
   45.4750   32.4710   37.6950 C   0  0  0  0  0  0  0  0  0  0  0  0
   44.3750   31.9100   37.0450 C   0  0  0  0  0  0  0  0  0  0  0  0
   43.3500   32.1220   37.9570 C   0  0  0  0  0  0  0  0  0  0  0  0
   43.7840   32.7430   39.0390 O   0  0  0  0  0  0  0  0  0  0  0  0
   41.9670   31.7080   37.7390 C   0  0  0  0  0  0  0  0  0  0  0  0
   41.5070   30.4600   37.3750 C   0  0  0  0  0  0  0  0  0  0  0  0
   40.1820   30.4440   37.2660 N   0  0  0  0  0  0  0  0  0  0  0  0
   39.7400   31.6770   37.5540 C   0  0  0  0  0  0  0  0  0  0  0  0
   38.4460   32.1530   37.5760 C   0  0  0  0  0  0  0  0  0  0  0  0
   38.2680   33.4880   37.9120 C   0  0  0  0  0  0  0  0  0  0  0  0
   39.3440   34.3080   38.2130 C   0  0  0  0  0  0  0  0  0  0  0  0
   40.6370   33.8200   38.1870 C   0  0  0  0  0  0  0  0  0  0  0  0
   40.8380   32.4910   37.8550 C   0  0  0  0  0  0  0  0  0  0  0  0
   48.1835   35.2573   42.3939 H   0  0  0  0  0  0  0  0  0  0  0  0
   49.1213   34.7943   40.1701 H   0  0  0  0  0  0  0  0  0  0  0  0
   43.8850   36.9538   45.1827 H   0  0  0  0  0  0  0  0  0  0  0  0
   44.7625   36.6683   42.8365 H   0  0  0  0  0  0  0  0  0  0  0  0
   45.6245   33.2917   46.3253 H   0  0  0  0  0  0  0  0  0  0  0  0
   46.4990   32.5069   37.2947 H   0  0  0  0  0  0  0  0  0  0  0  0
   44.3311   31.4231   36.0596 H   0  0  0  0  0  0  0  0  0  0  0  0
   42.1541   29.5884   37.1974 H   0  0  0  0  0  0  0  0  0  0  0  0
   39.6015   29.6333   37.0077 H   0  0  0  0  0  0  0  0  0  0  0  0
   37.5915   31.5027   37.3375 H   0  0  0  0  0  0  0  0  0  0  0  0
   37.2502   33.9044   37.9400 H   0  0  0  0  0  0  0  0  0  0  0  0
   39.1667   35.3612   38.4761 H   0  0  0  0  0  0  0  0  0  0  0  0
   41.4887   34.4741   38.4252 H   0  0  0  0  0  0  0  0  0  0  0  0
  1  9  1  0
  2  1  2  0
  3  2  1  0
  4  5  1  0
  4  3  2  0
  5  6  2  0
  6  1  1  0
  7 12  2  0
  8  7  1  0
  9  8  2  0
  9 10  1  0
 10 11  2  0
 11 12  1  0
 13 17  1  0
 13  5  1  0
 14 13  2  0
 15 14  1  0
 15 16  2  0
 16 17  1  0
 18 26  1  0
 18 16  1  0
 19 18  2  0
 20 19  1  0
 20 21  1  0
 21 22  2  0
 21 26  1  0
 22 23  1  0
 23 24  2  0
 25 24  1  0
 26 25  2  0
  2 27  1  0
  3 28  1  0
  7 29  1  0
  8 30  1  0
 11 31  1  0
 14 32  1  0
 15 33  1  0
 19 34  1  0
 20 35  1  0
 22 36  1  0
 23 37  1  0
 24 38  1  0
 25 39  1  0
M  ISO  8  27  14  28  14  29  14  30  14  31  14  32  14  33  14  34  14
M  ISO  5  35   9  36  14  37  14  38  14  39  14
M  END
>  <minimizedAffinity>  (1) 
-6.55014753

>  <minimizedRMSD>  (1) 
3.04488635

$$$$
