
     RDKit          3D

 36 39  0  0  0  0  0  0  0  0999 V2000
   46.6290   34.6580   42.0910 C   0  0  0  0  0  0  0  0  0  0  0  0
   47.9280   35.0580   41.8880 C   0  0  0  0  0  0  0  0  0  0  0  0
   48.6020   34.8960   40.7030 C   0  0  0  0  0  0  0  0  0  0  0  0
   47.9540   34.3120   39.6780 N   0  0  0  0  0  0  0  0  0  0  0  0
   46.6880   33.9190   39.8640 C   0  0  0  0  0  0  0  0  0  0  0  0
   46.0190   34.0740   41.0250 N   0  0  0  0  0  0  0  0  0  0  0  0
   44.4510   35.9860   44.8960 C   0  0  0  0  0  0  0  0  0  0  0  0
   45.0730   35.9080   43.6310 C   0  0  0  0  0  0  0  0  0  0  0  0
   45.9260   34.8410   43.3690 C   0  0  0  0  0  0  0  0  0  0  0  0
   46.1240   33.9270   44.3260 N   0  0  0  0  0  0  0  0  0  0  0  0
   45.5210   34.0120   45.5320 C   0  0  0  0  0  0  0  0  0  0  0  0
   44.6920   35.0320   45.8160 N   0  0  0  0  0  0  0  0  0  0  0  0
   45.8580   33.2730   38.8490 C   0  0  0  0  0  0  0  0  0  0  0  0
   46.2990   33.1710   37.5330 C   0  0  0  0  0  0  0  0  0  0  0  0
   45.3270   32.5190   36.7810 C   0  0  0  0  0  0  0  0  0  0  0  0
   44.3350   32.2630   37.7190 C   0  0  0  0  0  0  0  0  0  0  0  0
   44.6700   32.7110   38.9080 O   0  0  0  0  0  0  0  0  0  0  0  0
   43.0860   31.6110   37.5250 N   0  0  0  0  0  0  0  0  0  0  0  0
   43.0870   30.3880   36.9670 C   0  0  0  0  0  0  0  0  0  0  0  0
   41.8660   29.7760   36.7900 C   0  0  0  0  0  0  0  0  0  0  0  0
   40.7060   30.4380   37.1880 C   0  0  0  0  0  0  0  0  0  0  0  0
   39.3900   29.8830   37.0460 N   0  0  0  0  0  0  0  0  0  0  0  0
   40.7210   31.6590   37.7450 N   0  0  0  0  0  0  0  0  0  0  0  0
   41.9410   32.2370   37.9080 C   0  0  0  0  0  0  0  0  0  0  0  0
   42.0570   33.3730   38.4170 O   0  0  0  0  0  0  0  0  0  0  0  0
   48.4590   35.5362   42.7243 H   0  0  0  0  0  0  0  0  0  0  0  0
   49.6431   35.2342   40.5942 H   0  0  0  0  0  0  0  0  0  0  0  0
   43.7736   36.8208   45.1290 H   0  0  0  0  0  0  0  0  0  0  0  0
   44.8865   36.6768   42.8667 H   0  0  0  0  0  0  0  0  0  0  0  0
   45.7103   33.2380   46.2903 H   0  0  0  0  0  0  0  0  0  0  0  0
   47.2598   33.5451   37.1498 H   0  0  0  0  0  0  0  0  0  0  0  0
   45.3406   32.2685   35.7100 H   0  0  0  0  0  0  0  0  0  0  0  0
   44.0236   29.8968   36.6645 H   0  0  0  0  0  0  0  0  0  0  0  0
   41.8069   28.7745   36.3389 H   0  0  0  0  0  0  0  0  0  0  0  0
   38.5683   30.4196   37.3587 H   0  0  0  0  0  0  0  0  0  0  0  0
   39.2673   28.9481   36.6314 H   0  0  0  0  0  0  0  0  0  0  0  0
  1  9  1  0
  2  1  2  0
  3  2  1  0
  4  5  1  0
  4  3  2  0
  5  6  2  0
  6  1  1  0
  7 12  2  0
  8  7  1  0
  9  8  2  0
  9 10  1  0
 10 11  2  0
 11 12  1  0
 13 17  1  0
 13  5  1  0
 14 13  2  0
 15 14  1  0
 15 16  2  0
 16 17  1  0
 18 16  1  0
 18 24  1  0
 19 18  1  0
 20 19  2  0
 20 21  1  0
 21 23  2  0
 22 21  1  0
 23 24  1  0
 24 25  2  0
  2 26  1  0
  3 27  1  0
  7 28  1  0
  8 29  1  0
 11 30  1  0
 14 31  1  0
 15 32  1  0
 19 33  1  0
 20 34  1  0
 22 35  1  0
 22 36  1  0
M  ISO  8  26  14  27  14  28  14  29  14  30  14  31  14  32  14  33  14
M  ISO  1  34  14
M  END
>  <minimizedAffinity>  (1) 
-5.57911634

>  <minimizedRMSD>  (1) 
1.20599854

$$$$
