
     RDKit          3D

 34 37  0  0  0  0  0  0  0  0999 V2000
   46.7760   34.7850   42.0940 C   0  0  0  0  0  0  0  0  0  0  0  0
   48.0400   35.2610   41.9330 C   0  0  0  0  0  0  0  0  0  0  0  0
   48.7660   35.1500   40.7700 C   0  0  0  0  0  0  0  0  0  0  0  0
   48.1800   34.5270   39.7260 N   0  0  0  0  0  0  0  0  0  0  0  0
   46.9520   34.0580   39.8660 C   0  0  0  0  0  0  0  0  0  0  0  0
   46.2270   34.1640   41.0130 N   0  0  0  0  0  0  0  0  0  0  0  0
   44.4500   35.9420   44.8510 C   0  0  0  0  0  0  0  0  0  0  0  0
   45.1140   35.9410   43.6040 C   0  0  0  0  0  0  0  0  0  0  0  0
   46.0180   34.9120   43.3400 C   0  0  0  0  0  0  0  0  0  0  0  0
   46.2140   33.9690   44.2900 N   0  0  0  0  0  0  0  0  0  0  0  0
   45.5740   33.9840   45.4720 C   0  0  0  0  0  0  0  0  0  0  0  0
   44.6920   34.9660   45.7590 N   0  0  0  0  0  0  0  0  0  0  0  0
   46.1860   33.3620   38.8300 C   0  0  0  0  0  0  0  0  0  0  0  0
   46.6970   33.2360   37.5380 C   0  0  0  0  0  0  0  0  0  0  0  0
   45.7870   32.5400   36.7440 C   0  0  0  0  0  0  0  0  0  0  0  0
   44.7520   32.2810   37.6340 C   0  0  0  0  0  0  0  0  0  0  0  0
   45.0260   32.7710   38.8160 O   0  0  0  0  0  0  0  0  0  0  0  0
   43.5180   31.5580   37.3020 C   0  0  0  0  0  0  0  0  0  0  0  0
   42.3890   31.8910   37.9960 C   0  0  0  0  0  0  0  0  0  0  0  0
   41.1940   31.2430   37.7280 C   0  0  0  0  0  0  0  0  0  0  0  0
   41.2440   30.2800   36.7460 C   0  0  0  0  0  0  0  0  0  0  0  0
   42.3920   29.9450   36.0440 C   0  0  0  0  0  0  0  0  0  0  0  0
   43.5220   30.6070   36.3490 N   0  0  0  0  0  0  0  0  0  0  0  0
   48.5120   35.7673   42.7879 H   0  0  0  0  0  0  0  0  0  0  0  0
   49.7863   35.5540   40.6937 H   0  0  0  0  0  0  0  0  0  0  0  0
   43.7314   36.7409   45.0864 H   0  0  0  0  0  0  0  0  0  0  0  0
   44.9234   36.7300   42.8616 H   0  0  0  0  0  0  0  0  0  0  0  0
   45.7697   33.1920   46.2098 H   0  0  0  0  0  0  0  0  0  0  0  0
   47.6680   33.6257   37.1984 H   0  0  0  0  0  0  0  0  0  0  0  0
   45.8678   32.2654   35.6819 H   0  0  0  0  0  0  0  0  0  0  0  0
   42.4289   32.6738   38.7677 H   0  0  0  0  0  0  0  0  0  0  0  0
   40.2648   31.4829   38.2657 H   0  0  0  0  0  0  0  0  0  0  0  0
   40.3155   29.7426   36.5029 H   0  0  0  0  0  0  0  0  0  0  0  0
   42.3788   29.1668   35.2667 H   0  0  0  0  0  0  0  0  0  0  0  0
  1  9  1  0
  2  1  2  0
  3  2  1  0
  4  5  1  0
  4  3  2  0
  5  6  2  0
  6  1  1  0
  7 12  2  0
  8  7  1  0
  9  8  2  0
  9 10  1  0
 10 11  2  0
 11 12  1  0
 13  5  1  0
 14 13  2  0
 15 14  1  0
 15 16  2  0
 16 17  1  0
 17 13  1  0
 18 16  1  0
 18 19  2  0
 20 19  1  0
 21 20  2  0
 22 23  2  0
 22 21  1  0
 23 18  1  0
  2 24  1  0
  3 25  1  0
  7 26  1  0
  8 27  1  0
 11 28  1  0
 14 29  1  0
 15 30  1  0
 19 31  1  0
 20 32  1  0
 21 33  1  0
 22 34  1  0
M  ISO  8  24  14  25  14  26  14  27  14  28  14  29  14  30  14  31  14
M  ISO  3  32  14  33  14  34  14
M  END
>  <minimizedAffinity>  (1) 
-5.46155262

>  <minimizedRMSD>  (1) 
0.689710677

$$$$
