
     RDKit          3D

 32 35  0  0  0  0  0  0  0  0999 V2000
   46.8100   34.7990   42.0580 C   0  0  0  0  0  0  0  0  0  0  0  0
   48.0530   35.3240   41.8920 C   0  0  0  0  0  0  0  0  0  0  0  0
   48.7810   35.2260   40.7310 C   0  0  0  0  0  0  0  0  0  0  0  0
   48.2270   34.5700   39.6960 N   0  0  0  0  0  0  0  0  0  0  0  0
   47.0010   34.0470   39.8460 C   0  0  0  0  0  0  0  0  0  0  0  0
   46.2800   34.1370   40.9790 N   0  0  0  0  0  0  0  0  0  0  0  0
   44.4610   35.9300   44.8130 C   0  0  0  0  0  0  0  0  0  0  0  0
   45.1330   35.9280   43.5750 C   0  0  0  0  0  0  0  0  0  0  0  0
   46.0450   34.9140   43.3090 C   0  0  0  0  0  0  0  0  0  0  0  0
   46.2510   33.9650   44.2490 N   0  0  0  0  0  0  0  0  0  0  0  0
   45.5900   33.9920   45.4300 C   0  0  0  0  0  0  0  0  0  0  0  0
   44.7080   34.9530   45.7180 N   0  0  0  0  0  0  0  0  0  0  0  0
   46.2870   33.3150   38.8120 C   0  0  0  0  0  0  0  0  0  0  0  0
   46.7320   33.2940   37.4960 C   0  0  0  0  0  0  0  0  0  0  0  0
   45.8670   32.5220   36.7210 C   0  0  0  0  0  0  0  0  0  0  0  0
   44.9190   32.1110   37.6500 C   0  0  0  0  0  0  0  0  0  0  0  0
   45.1900   32.5860   38.8440 O   0  0  0  0  0  0  0  0  0  0  0  0
   43.7770   31.2640   37.3210 C   0  0  0  0  0  0  0  0  0  0  0  0
   43.7810   29.8940   37.1570 C   0  0  0  0  0  0  0  0  0  0  0  0
   42.5200   29.4810   36.8580 N   0  0  0  0  0  0  0  0  0  0  0  0
   41.7460   30.5900   36.8380 C   0  0  0  0  0  0  0  0  0  0  0  0
   42.5120   31.6530   37.1180 N   0  0  0  0  0  0  0  0  0  0  0  0
   48.5038   35.8605   42.7399 H   0  0  0  0  0  0  0  0  0  0  0  0
   49.7843   35.6697   40.6506 H   0  0  0  0  0  0  0  0  0  0  0  0
   43.7362   36.7244   45.0446 H   0  0  0  0  0  0  0  0  0  0  0  0
   44.9392   36.7154   42.8318 H   0  0  0  0  0  0  0  0  0  0  0  0
   45.7841   33.2027   46.1712 H   0  0  0  0  0  0  0  0  0  0  0  0
   47.6299   33.8080   37.1223 H   0  0  0  0  0  0  0  0  0  0  0  0
   45.9214   32.2956   35.6459 H   0  0  0  0  0  0  0  0  0  0  0  0
   44.6614   29.2415   37.2526 H   0  0  0  0  0  0  0  0  0  0  0  0
   40.6667   30.6150   36.6269 H   0  0  0  0  0  0  0  0  0  0  0  0
   42.1772   32.6257   37.1695 H   0  0  0  0  0  0  0  0  0  0  0  0
  1  9  1  0
  2  1  2  0
  3  2  1  0
  4  5  1  0
  4  3  2  0
  5  6  2  0
  6  1  1  0
  7 12  2  0
  8  7  1  0
  9  8  2  0
  9 10  1  0
 10 11  2  0
 11 12  1  0
 13 17  1  0
 13  5  1  0
 14 13  2  0
 15 14  1  0
 15 16  2  0
 16 17  1  0
 18 16  1  0
 19 18  2  0
 20 19  1  0
 21 20  2  0
 21 22  1  0
 22 18  1  0
  2 23  1  0
  3 24  1  0
  7 25  1  0
  8 26  1  0
 11 27  1  0
 14 28  1  0
 15 29  1  0
 19 30  1  0
 21 31  1  0
 22 32  1  0
M  ISO  8  23  14  24  14  25  14  26  14  27  14  28  14  29  14  30  14
M  ISO  2  31  14  32   9
M  END
>  <minimizedAffinity>  (1) 
-5.33472729

>  <minimizedRMSD>  (1) 
0.369831294

$$$$
