
     RDKit          3D

 32 35  0  0  0  0  0  0  0  0999 V2000
   46.7830   34.7790   42.0630 C   0  0  0  0  0  0  0  0  0  0  0  0
   48.0310   35.2980   41.8860 C   0  0  0  0  0  0  0  0  0  0  0  0
   48.7590   35.2010   40.7170 C   0  0  0  0  0  0  0  0  0  0  0  0
   48.1900   34.5480   39.6870 N   0  0  0  0  0  0  0  0  0  0  0  0
   46.9680   34.0360   39.8450 C   0  0  0  0  0  0  0  0  0  0  0  0
   46.2650   34.1330   40.9880 N   0  0  0  0  0  0  0  0  0  0  0  0
   44.4620   35.9410   44.8200 C   0  0  0  0  0  0  0  0  0  0  0  0
   45.1230   35.9380   43.5750 C   0  0  0  0  0  0  0  0  0  0  0  0
   46.0360   34.8950   43.3090 C   0  0  0  0  0  0  0  0  0  0  0  0
   46.2290   33.9630   44.2480 N   0  0  0  0  0  0  0  0  0  0  0  0
   45.5760   33.9980   45.4330 C   0  0  0  0  0  0  0  0  0  0  0  0
   44.7050   34.9700   45.7190 N   0  0  0  0  0  0  0  0  0  0  0  0
   46.2330   33.3030   38.8070 C   0  0  0  0  0  0  0  0  0  0  0  0
   46.8210   33.0230   37.5720 C   0  0  0  0  0  0  0  0  0  0  0  0
   45.8930   32.3180   36.7880 C   0  0  0  0  0  0  0  0  0  0  0  0
   44.7930   32.2270   37.6320 C   0  0  0  0  0  0  0  0  0  0  0  0
   45.0240   32.8060   38.7860 O   0  0  0  0  0  0  0  0  0  0  0  0
   43.5210   31.5830   37.3210 C   0  0  0  0  0  0  0  0  0  0  0  0
   42.3460   31.8010   38.0070 C   0  0  0  0  0  0  0  0  0  0  0  0
   41.3250   31.0370   37.4620 C   0  0  0  0  0  0  0  0  0  0  0  0
   41.9310   30.3690   36.4450 N   0  0  0  0  0  0  0  0  0  0  0  0
   43.2120   30.6890   36.3650 N   0  0  0  0  0  0  0  0  0  0  0  0
   48.4893   35.8305   42.7324 H   0  0  0  0  0  0  0  0  0  0  0  0
   49.7640   35.6399   40.6309 H   0  0  0  0  0  0  0  0  0  0  0  0
   43.7447   36.7404   45.0575 H   0  0  0  0  0  0  0  0  0  0  0  0
   44.9327   36.7263   42.8317 H   0  0  0  0  0  0  0  0  0  0  0  0
   45.7664   33.2097   46.1762 H   0  0  0  0  0  0  0  0  0  0  0  0
   47.8385   33.3065   37.2650 H   0  0  0  0  0  0  0  0  0  0  0  0
   46.0081   31.9344   35.7635 H   0  0  0  0  0  0  0  0  0  0  0  0
   42.2341   32.4825   38.8632 H   0  0  0  0  0  0  0  0  0  0  0  0
   40.2727   30.9840   37.7782 H   0  0  0  0  0  0  0  0  0  0  0  0
   41.4559   29.7024   35.8199 H   0  0  0  0  0  0  0  0  0  0  0  0
  1  9  1  0
  2  1  2  0
  3  2  1  0
  4  5  1  0
  4  3  2  0
  5  6  2  0
  6  1  1  0
  7 12  2  0
  8  7  1  0
  9  8  2  0
  9 10  1  0
 10 11  2  0
 11 12  1  0
 13  5  1  0
 14 13  2  0
 15 14  1  0
 15 16  2  0
 16 17  1  0
 17 13  1  0
 18 16  1  0
 18 19  1  0
 20 19  2  0
 21 20  1  0
 22 21  1  0
 22 18  2  0
  2 23  1  0
  3 24  1  0
  7 25  1  0
  8 26  1  0
 11 27  1  0
 14 28  1  0
 15 29  1  0
 19 30  1  0
 20 31  1  0
 21 32  1  0
M  ISO  8  23  14  24  14  25  14  26  14  27  14  28  14  29  14  30  14
M  ISO  2  31  14  32   9
M  END
>  <minimizedAffinity>  (1) 
-5.31467581

>  <minimizedRMSD>  (1) 
0.701802254

$$$$
