
     RDKit          3D

 39 42  0  0  0  0  0  0  0  0999 V2000
   46.5230   34.6580   42.0900 C   0  0  0  0  0  0  0  0  0  0  0  0
   47.8080   35.0660   41.8350 C   0  0  0  0  0  0  0  0  0  0  0  0
   48.4520   34.8790   40.6350 C   0  0  0  0  0  0  0  0  0  0  0  0
   47.7810   34.2550   39.6430 N   0  0  0  0  0  0  0  0  0  0  0  0
   46.5350   33.8540   39.8800 C   0  0  0  0  0  0  0  0  0  0  0  0
   45.8960   34.0330   41.0520 N   0  0  0  0  0  0  0  0  0  0  0  0
   44.4490   36.0450   44.9300 C   0  0  0  0  0  0  0  0  0  0  0  0
   45.0350   35.9590   43.6630 C   0  0  0  0  0  0  0  0  0  0  0  0
   45.8560   34.8680   43.3740 C   0  0  0  0  0  0  0  0  0  0  0  0
   46.0460   33.9480   44.3270 N   0  0  0  0  0  0  0  0  0  0  0  0
   45.4740   34.0440   45.5410 C   0  0  0  0  0  0  0  0  0  0  0  0
   44.6770   35.0810   45.8550 N   0  0  0  0  0  0  0  0  0  0  0  0
   45.6880   33.1670   38.9100 C   0  0  0  0  0  0  0  0  0  0  0  0
   46.2250   32.6700   37.7110 C   0  0  0  0  0  0  0  0  0  0  0  0
   45.2020   32.0640   36.9740 C   0  0  0  0  0  0  0  0  0  0  0  0
   44.0810   32.2430   37.8090 C   0  0  0  0  0  0  0  0  0  0  0  0
   44.4040   32.8840   38.9170 O   0  0  0  0  0  0  0  0  0  0  0  0
   42.7100   31.8830   37.6890 N   0  0  0  0  0  0  0  0  0  0  0  0
   42.3120   30.6260   37.0510 C   0  0  0  0  0  0  0  0  0  0  0  0
   40.8270   30.4650   37.0690 C   0  0  0  0  0  0  0  0  0  0  0  0
   40.2890   30.5820   38.4040 N   0  0  0  0  0  0  0  0  0  0  0  0
   40.8340   31.7090   39.1220 C   0  0  0  0  0  0  0  0  0  0  0  0
   41.5860   32.6530   38.1790 C   0  0  0  0  0  0  0  0  0  0  0  0
   48.3571   35.5745   42.6412 H   0  0  0  0  0  0  0  0  0  0  0  0
   49.4847   35.2278   40.4870 H   0  0  0  0  0  0  0  0  0  0  0  0
   43.8004   36.8985   45.1768 H   0  0  0  0  0  0  0  0  0  0  0  0
   44.8520   36.7375   42.9077 H   0  0  0  0  0  0  0  0  0  0  0  0
   45.6615   33.2605   46.2900 H   0  0  0  0  0  0  0  0  0  0  0  0
   47.2780   32.7450   37.4020 H   0  0  0  0  0  0  0  0  0  0  0  0
   45.2583   31.5723   35.9916 H   0  0  0  0  0  0  0  0  0  0  0  0
   42.7718   29.7861   37.5925 H   0  0  0  0  0  0  0  0  0  0  0  0
   42.6509   30.6406   36.0046 H   0  0  0  0  0  0  0  0  0  0  0  0
   40.3772   31.2431   36.4348 H   0  0  0  0  0  0  0  0  0  0  0  0
   40.5884   29.4595   36.6921 H   0  0  0  0  0  0  0  0  0  0  0  0
   39.2671   30.6940   38.3398 H   0  0  0  0  0  0  0  0  0  0  0  0
   40.0122   32.2605   39.6020 H   0  0  0  0  0  0  0  0  0  0  0  0
   41.5407   31.3335   39.8767 H   0  0  0  0  0  0  0  0  0  0  0  0
   41.9357   33.5432   38.7223 H   0  0  0  0  0  0  0  0  0  0  0  0
   40.9456   33.0128   37.3602 H   0  0  0  0  0  0  0  0  0  0  0  0
  1  9  1  0
  2  1  2  0
  3  2  1  0
  4  5  1  0
  4  3  2  0
  5  6  2  0
  6  1  1  0
  7 12  2  0
  8  7  1  0
  9  8  2  0
  9 10  1  0
 10 11  2  0
 11 12  1  0
 13 17  1  0
 13  5  1  0
 14 13  2  0
 15 14  1  0
 15 16  2  0
 16 17  1  0
 18 16  1  0
 18 23  1  0
 19 20  1  0
 19 18  1  0
 20 21  1  0
 21 22  1  0
 23 22  1  0
  2 24  1  0
  3 25  1  0
  7 26  1  0
  8 27  1  0
 11 28  1  0
 14 29  1  0
 15 30  1  0
 19 31  1  0
 19 32  1  0
 20 33  1  0
 20 34  1  0
 21 35  1  0
 22 36  1  0
 22 37  1  0
 23 38  1  0
 23 39  1  0
M  ISO  8  24  14  25  14  26  14  27  14  28  14  29  14  30  14  31  13
M  ISO  8  32  13  33  13  34  13  35   5  36  13  37  13  38  13  39  13
M  END
>  <minimizedAffinity>  (1) 
-5.29699183

>  <minimizedRMSD>  (1) 
1.31264341

$$$$
