
     RDKit          3D

 28 30  0  0  0  0  0  0  0  0999 V2000
   46.7760   34.7840   42.0400 C   0  0  0  0  0  0  0  0  0  0  0  0
   48.0280   35.2920   41.8590 C   0  0  0  0  0  0  0  0  0  0  0  0
   48.7480   35.1890   40.7030 C   0  0  0  0  0  0  0  0  0  0  0  0
   48.1770   34.5380   39.6650 N   0  0  0  0  0  0  0  0  0  0  0  0
   46.9450   34.0320   39.8250 C   0  0  0  0  0  0  0  0  0  0  0  0
   46.2290   34.1300   40.9640 N   0  0  0  0  0  0  0  0  0  0  0  0
   44.4650   35.9460   44.8080 C   0  0  0  0  0  0  0  0  0  0  0  0
   45.1270   35.9340   43.5690 C   0  0  0  0  0  0  0  0  0  0  0  0
   46.0260   34.9090   43.2910 C   0  0  0  0  0  0  0  0  0  0  0  0
   46.2180   33.9740   44.2340 N   0  0  0  0  0  0  0  0  0  0  0  0
   45.5800   33.9930   45.4210 C   0  0  0  0  0  0  0  0  0  0  0  0
   44.7060   34.9770   45.7060 N   0  0  0  0  0  0  0  0  0  0  0  0
   46.2140   33.3080   38.7890 C   0  0  0  0  0  0  0  0  0  0  0  0
   46.7250   33.1860   37.4970 C   0  0  0  0  0  0  0  0  0  0  0  0
   45.8140   32.4450   36.7250 C   0  0  0  0  0  0  0  0  0  0  0  0
   44.7990   32.1700   37.6310 C   0  0  0  0  0  0  0  0  0  0  0  0
   45.0640   32.6830   38.8110 O   0  0  0  0  0  0  0  0  0  0  0  0
   43.5810   31.3850   37.2590 C   0  0  0  0  0  0  0  0  0  0  0  0
   43.5330   30.1510   37.8630 F   0  0  0  0  0  0  0  0  0  0  0  0
   42.4220   32.0920   37.5510 F   0  0  0  0  0  0  0  0  0  0  0  0
   43.5370   31.1590   35.8940 F   0  0  0  0  0  0  0  0  0  0  0  0
   48.4913   35.8225   42.7040 H   0  0  0  0  0  0  0  0  0  0  0  0
   49.7565   35.6204   40.6196 H   0  0  0  0  0  0  0  0  0  0  0  0
   43.7499   36.7483   45.0424 H   0  0  0  0  0  0  0  0  0  0  0  0
   44.9371   36.7247   42.8282 H   0  0  0  0  0  0  0  0  0  0  0  0
   45.7740   33.2016   46.1599 H   0  0  0  0  0  0  0  0  0  0  0  0
   47.6803   33.6001   37.1420 H   0  0  0  0  0  0  0  0  0  0  0  0
   45.8871   32.1551   35.6664 H   0  0  0  0  0  0  0  0  0  0  0  0
  1  9  1  0
  2  1  2  0
  3  2  1  0
  4  5  1  0
  4  3  2  0
  5  6  2  0
  6  1  1  0
  7 12  2  0
  8  7  1  0
  9  8  2  0
  9 10  1  0
 10 11  2  0
 11 12  1  0
 13 17  1  0
 13  5  1  0
 14 13  2  0
 15 14  1  0
 15 16  2  0
 16 17  1  0
 18 20  1  0
 18 16  1  0
 18 19  1  0
 21 18  1  0
  2 22  1  0
  3 23  1  0
  7 24  1  0
  8 25  1  0
 11 26  1  0
 14 27  1  0
 15 28  1  0
M  ISO  7  22  14  23  14  24  14  25  14  26  14  27  14  28  14
M  END
>  <minimizedAffinity>  (1) 
-5.1663413

>  <minimizedRMSD>  (1) 
0.43516776

$$$$
