
     RDKit          3D

 34 36  0  0  0  0  0  0  0  0999 V2000
   46.7000   34.7370   42.0520 C   0  0  0  0  0  0  0  0  0  0  0  0
   47.9650   35.2350   41.8470 C   0  0  0  0  0  0  0  0  0  0  0  0
   48.6670   35.1090   40.6720 C   0  0  0  0  0  0  0  0  0  0  0  0
   48.0680   34.4510   39.6520 N   0  0  0  0  0  0  0  0  0  0  0  0
   46.8350   33.9630   39.8440 C   0  0  0  0  0  0  0  0  0  0  0  0
   46.1410   34.0820   40.9920 N   0  0  0  0  0  0  0  0  0  0  0  0
   44.4560   35.9600   44.8310 C   0  0  0  0  0  0  0  0  0  0  0  0
   45.0850   35.9400   43.5810 C   0  0  0  0  0  0  0  0  0  0  0  0
   45.9720   34.8850   43.3190 C   0  0  0  0  0  0  0  0  0  0  0  0
   46.1950   33.9350   44.2610 N   0  0  0  0  0  0  0  0  0  0  0  0
   45.5520   34.0130   45.4620 C   0  0  0  0  0  0  0  0  0  0  0  0
   44.6980   35.0010   45.7500 N   0  0  0  0  0  0  0  0  0  0  0  0
   46.0800   33.2310   38.8410 C   0  0  0  0  0  0  0  0  0  0  0  0
   46.5010   33.1840   37.5040 C   0  0  0  0  0  0  0  0  0  0  0  0
   45.6060   32.4220   36.7590 C   0  0  0  0  0  0  0  0  0  0  0  0
   44.6710   32.0410   37.7180 C   0  0  0  0  0  0  0  0  0  0  0  0
   44.9700   32.5220   38.9060 O   0  0  0  0  0  0  0  0  0  0  0  0
   43.4760   31.1900   37.4190 C   0  0  0  0  0  0  0  0  0  0  0  0
   43.4040   30.7670   35.9830 C   0  0  0  0  0  0  0  0  0  0  0  0
   42.1990   31.8920   37.8920 C   0  0  0  0  0  0  0  0  0  0  0  0
   48.4473   35.7698   42.6785 H   0  0  0  0  0  0  0  0  0  0  0  0
   49.6786   35.5276   40.5645 H   0  0  0  0  0  0  0  0  0  0  0  0
   43.7522   36.7712   45.0689 H   0  0  0  0  0  0  0  0  0  0  0  0
   44.8913   36.7220   42.8321 H   0  0  0  0  0  0  0  0  0  0  0  0
   45.7424   33.2374   46.2184 H   0  0  0  0  0  0  0  0  0  0  0  0
   47.4012   33.6745   37.1052 H   0  0  0  0  0  0  0  0  0  0  0  0
   45.6308   32.1818   35.6858 H   0  0  0  0  0  0  0  0  0  0  0  0
   43.5810   30.2528   37.9852 H   0  0  0  0  0  0  0  0  0  0  0  0
   43.2196   29.6839   35.9286 H   0  0  0  0  0  0  0  0  0  0  0  0
   42.5843   31.3040   35.4832 H   0  0  0  0  0  0  0  0  0  0  0  0
   44.3552   31.0026   35.4832 H   0  0  0  0  0  0  0  0  0  0  0  0
   42.1740   31.9058   38.9916 H   0  0  0  0  0  0  0  0  0  0  0  0
   42.1858   32.9242   37.5120 H   0  0  0  0  0  0  0  0  0  0  0  0
   41.3204   31.3501   37.5120 H   0  0  0  0  0  0  0  0  0  0  0  0
  1  9  1  0
  2  1  2  0
  3  2  1  0
  4  5  1  0
  4  3  2  0
  5  6  2  0
  6  1  1  0
  7 12  2  0
  8  7  1  0
  9  8  2  0
  9 10  1  0
 10 11  2  0
 11 12  1  0
 13 17  1  0
 13  5  1  0
 14 13  2  0
 15 14  1  0
 15 16  2  0
 16 17  1  0
 18 16  1  0
 18 20  1  0
 19 18  1  0
  2 21  1  0
  3 22  1  0
  7 23  1  0
  8 24  1  0
 11 25  1  0
 14 26  1  0
 15 27  1  0
 18 28  1  0
 19 29  1  0
 19 30  1  0
 19 31  1  0
 20 32  1  0
 20 33  1  0
 20 34  1  0
M  ISO  8  21  14  22  14  23  14  24  14  25  14  26  14  27  14  28   8
M  ISO  6  29   8  30   8  31   8  32   8  33   8  34   8
M  END
>  <minimizedAffinity>  (1) 
-5.1398654

>  <minimizedRMSD>  (1) 
0.430208504

$$$$
