
     RDKit          3D

 32 35  0  0  0  0  0  0  0  0999 V2000
   46.8050   34.7630   41.9640 C   0  0  0  0  0  0  0  0  0  0  0  0
   48.0230   35.3700   41.7570 C   0  0  0  0  0  0  0  0  0  0  0  0
   48.7460   35.2700   40.5900 C   0  0  0  0  0  0  0  0  0  0  0  0
   48.2270   34.5300   39.5870 N   0  0  0  0  0  0  0  0  0  0  0  0
   47.0550   33.9430   39.7790 C   0  0  0  0  0  0  0  0  0  0  0  0
   46.3400   34.0360   40.9210 N   0  0  0  0  0  0  0  0  0  0  0  0
   44.4880   35.9220   44.7210 C   0  0  0  0  0  0  0  0  0  0  0  0
   45.1510   35.9040   43.4810 C   0  0  0  0  0  0  0  0  0  0  0  0
   46.0600   34.8860   43.2100 C   0  0  0  0  0  0  0  0  0  0  0  0
   46.2740   33.9490   44.1550 N   0  0  0  0  0  0  0  0  0  0  0  0
   45.6230   33.9870   45.3450 C   0  0  0  0  0  0  0  0  0  0  0  0
   44.7400   34.9600   45.6290 N   0  0  0  0  0  0  0  0  0  0  0  0
   46.3590   33.1060   38.7870 C   0  0  0  0  0  0  0  0  0  0  0  0
   46.7250   33.1670   37.4360 C   0  0  0  0  0  0  0  0  0  0  0  0
   45.9190   32.2850   36.7210 C   0  0  0  0  0  0  0  0  0  0  0  0
   45.0940   31.7360   37.7220 C   0  0  0  0  0  0  0  0  0  0  0  0
   45.3790   32.2330   38.8870 O   0  0  0  0  0  0  0  0  0  0  0  0
   44.0510   30.7210   37.4130 C   0  0  0  0  0  0  0  0  0  0  0  0
   42.6500   31.2060   37.5840 C   0  0  0  0  0  0  0  0  0  0  0  0
   43.1770   30.9420   36.1930 C   0  0  0  0  0  0  0  0  0  0  0  0
   48.4447   35.9724   42.5751 H   0  0  0  0  0  0  0  0  0  0  0  0
   49.7158   35.7769   40.4781 H   0  0  0  0  0  0  0  0  0  0  0  0
   43.7656   36.7197   44.9486 H   0  0  0  0  0  0  0  0  0  0  0  0
   44.9531   36.6862   42.7334 H   0  0  0  0  0  0  0  0  0  0  0  0
   45.8220   33.2053   46.0929 H   0  0  0  0  0  0  0  0  0  0  0  0
   47.5153   33.8039   37.0119 H   0  0  0  0  0  0  0  0  0  0  0  0
   45.9250   32.0703   35.6422 H   0  0  0  0  0  0  0  0  0  0  0  0
   44.6513   29.8706   37.7685 H   0  0  0  0  0  0  0  0  0  0  0  0
   41.8886   30.5406   38.0171 H   0  0  0  0  0  0  0  0  0  0  0  0
   42.1853   32.0681   38.0847 H   0  0  0  0  0  0  0  0  0  0  0  0
   43.3817   31.7806   35.5112 H   0  0  0  0  0  0  0  0  0  0  0  0
   42.8570   30.3293   35.3374 H   0  0  0  0  0  0  0  0  0  0  0  0
  1  9  1  0
  2  1  2  0
  3  2  1  0
  4  5  1  0
  4  3  2  0
  5  6  2  0
  6  1  1  0
  7 12  2  0
  8  7  1  0
  9  8  2  0
  9 10  1  0
 10 11  2  0
 11 12  1  0
 13 17  1  0
 13  5  1  0
 14 13  2  0
 15 14  1  0
 15 16  2  0
 16 17  1  0
 18 19  1  0
 18 16  1  0
 20 18  1  0
 20 19  1  0
  2 21  1  0
  3 22  1  0
  7 23  1  0
  8 24  1  0
 11 25  1  0
 14 26  1  0
 15 27  1  0
 18 28  1  0
 19 29  1  0
 19 30  1  0
 20 31  1  0
 20 32  1  0
M  ISO  8  21  14  22  14  23  14  24  14  25  14  26  14  27  14  28  13
M  ISO  4  29  13  30  13  31  13  32  13
M  END
>  <minimizedAffinity>  (1) 
-5.03000975

>  <minimizedRMSD>  (1) 
0.294696391

$$$$
