
     RDKit          3D

 26 28  0  0  0  0  0  0  0  0999 V2000
   46.7880   34.7930   42.0590 C   0  0  0  0  0  0  0  0  0  0  0  0
   48.0360   35.3160   41.8830 C   0  0  0  0  0  0  0  0  0  0  0  0
   48.7650   35.2150   40.7230 C   0  0  0  0  0  0  0  0  0  0  0  0
   48.2040   34.5510   39.6900 N   0  0  0  0  0  0  0  0  0  0  0  0
   46.9850   34.0320   39.8420 C   0  0  0  0  0  0  0  0  0  0  0  0
   46.2710   34.1320   40.9780 N   0  0  0  0  0  0  0  0  0  0  0  0
   44.4620   35.9410   44.8100 C   0  0  0  0  0  0  0  0  0  0  0  0
   45.1240   35.9430   43.5720 C   0  0  0  0  0  0  0  0  0  0  0  0
   46.0350   34.9140   43.2980 C   0  0  0  0  0  0  0  0  0  0  0  0
   46.2210   33.9840   44.2420 N   0  0  0  0  0  0  0  0  0  0  0  0
   45.5790   33.9930   45.4290 C   0  0  0  0  0  0  0  0  0  0  0  0
   44.7040   34.9670   45.7140 N   0  0  0  0  0  0  0  0  0  0  0  0
   46.2560   33.2900   38.8140 C   0  0  0  0  0  0  0  0  0  0  0  0
   46.7110   33.2720   37.5000 C   0  0  0  0  0  0  0  0  0  0  0  0
   45.8310   32.4950   36.7340 C   0  0  0  0  0  0  0  0  0  0  0  0
   44.8770   32.0850   37.6700 C   0  0  0  0  0  0  0  0  0  0  0  0
   45.1640   32.5690   38.8540 O   0  0  0  0  0  0  0  0  0  0  0  0
   43.4530   31.0480   37.3300 S   0  0  0  0  0  0  0  0  0  0  0  0
   48.4893   35.8554   42.7277 H   0  0  0  0  0  0  0  0  0  0  0  0
   49.7681   35.6585   40.6390 H   0  0  0  0  0  0  0  0  0  0  0  0
   43.7413   36.7380   45.0454 H   0  0  0  0  0  0  0  0  0  0  0  0
   44.9318   36.7350   42.8332 H   0  0  0  0  0  0  0  0  0  0  0  0
   45.7745   33.1987   46.1645 H   0  0  0  0  0  0  0  0  0  0  0  0
   47.6105   33.7819   37.1247 H   0  0  0  0  0  0  0  0  0  0  0  0
   45.8793   32.2644   35.6595 H   0  0  0  0  0  0  0  0  0  0  0  0
   42.8927   30.6399   38.5117 H   0  0  0  0  0  0  0  0  0  0  0  0
  1  9  1  0
  2  1  2  0
  3  2  1  0
  4  5  1  0
  4  3  2  0
  5  6  2  0
  6  1  1  0
  7 12  2  0
  8  7  1  0
  9  8  2  0
  9 10  1  0
 10 11  2  0
 11 12  1  0
 13 17  1  0
 13  5  1  0
 14 13  2  0
 15 14  1  0
 15 16  2  0
 16 17  1  0
 18 16  1  0
  2 19  1  0
  3 20  1  0
  7 21  1  0
  8 22  1  0
 11 23  1  0
 14 24  1  0
 15 25  1  0
 18 26  1  0
M  ISO  8  19  14  20  14  21  14  22  14  23  14  24  14  25  14  26  11
M  END
>  <minimizedAffinity>  (1) 
-5.02317762

>  <minimizedRMSD>  (1) 
0.190758675

$$$$
