
     RDKit          3D

 27 29  0  0  0  0  0  0  0  0999 V2000
   46.7710   34.7710   42.0750 C   0  0  0  0  0  0  0  0  0  0  0  0
   48.0100   35.3430   41.8820 C   0  0  0  0  0  0  0  0  0  0  0  0
   48.7370   35.2480   40.7210 C   0  0  0  0  0  0  0  0  0  0  0  0
   48.2020   34.5470   39.7050 N   0  0  0  0  0  0  0  0  0  0  0  0
   46.9940   33.9850   39.8790 C   0  0  0  0  0  0  0  0  0  0  0  0
   46.2760   34.0780   41.0210 N   0  0  0  0  0  0  0  0  0  0  0  0
   44.4610   35.9330   44.8390 C   0  0  0  0  0  0  0  0  0  0  0  0
   45.1240   35.9170   43.5960 C   0  0  0  0  0  0  0  0  0  0  0  0
   46.0260   34.8930   43.3260 C   0  0  0  0  0  0  0  0  0  0  0  0
   46.2320   33.9520   44.2640 N   0  0  0  0  0  0  0  0  0  0  0  0
   45.5860   33.9860   45.4530 C   0  0  0  0  0  0  0  0  0  0  0  0
   44.7110   34.9650   45.7330 N   0  0  0  0  0  0  0  0  0  0  0  0
   46.2900   33.1980   38.8670 C   0  0  0  0  0  0  0  0  0  0  0  0
   46.6570   33.2820   37.5220 C   0  0  0  0  0  0  0  0  0  0  0  0
   45.8350   32.4410   36.7790 C   0  0  0  0  0  0  0  0  0  0  0  0
   45.0040   31.8900   37.7460 C   0  0  0  0  0  0  0  0  0  0  0  0
   45.3010   32.3540   38.9380 O   0  0  0  0  0  0  0  0  0  0  0  0
   43.9520   30.9480   37.5740 N   0  0  0  0  0  0  0  0  0  0  0  0
   48.4461   35.9145   42.7146 H   0  0  0  0  0  0  0  0  0  0  0  0
   49.7220   35.7281   40.6251 H   0  0  0  0  0  0  0  0  0  0  0  0
   43.7439   36.7332   45.0744 H   0  0  0  0  0  0  0  0  0  0  0  0
   44.9313   36.7024   42.8503 H   0  0  0  0  0  0  0  0  0  0  0  0
   45.7804   33.2016   46.1993 H   0  0  0  0  0  0  0  0  0  0  0  0
   47.4638   33.9103   37.1167 H   0  0  0  0  0  0  0  0  0  0  0  0
   45.8415   32.2577   35.6944 H   0  0  0  0  0  0  0  0  0  0  0  0
   43.4129   30.6235   38.3894 H   0  0  0  0  0  0  0  0  0  0  0  0
   43.7294   30.5905   36.6340 H   0  0  0  0  0  0  0  0  0  0  0  0
  1  9  1  0
  2  1  2  0
  3  2  1  0
  4  5  1  0
  4  3  2  0
  5  6  2  0
  6  1  1  0
  7 12  2  0
  8  7  1  0
  9  8  2  0
  9 10  1  0
 10 11  2  0
 11 12  1  0
 13 17  1  0
 13  5  1  0
 14 13  2  0
 15 14  1  0
 15 16  2  0
 16 17  1  0
 18 16  1  0
  2 19  1  0
  3 20  1  0
  7 21  1  0
  8 22  1  0
 11 23  1  0
 14 24  1  0
 15 25  1  0
 18 26  1  0
 18 27  1  0
M  ISO  7  19  14  20  14  21  14  22  14  23  14  24  14  25  14
M  END
>  <minimizedAffinity>  (1) 
-4.99185228

>  <minimizedRMSD>  (1) 
0.0478385314

$$$$
