
     RDKit          3D

 44 47  0  0  0  0  0  0  0  0999 V2000
   44.8070   32.8970   38.9410 C   0  0  0  0  0  0  0  0  0  0  0  0
   45.1820   32.2040   37.7800 C   0  0  0  0  0  0  0  0  0  0  0  0
   44.0350   31.7080   37.1580 C   0  0  0  0  0  0  0  0  0  0  0  0
   43.0140   32.1460   38.0040 C   0  0  0  0  0  0  0  0  0  0  0  0
   43.5030   32.8220   39.0120 O   0  0  0  0  0  0  0  0  0  0  0  0
   46.1210   34.3920   41.9510 C   0  0  0  0  0  0  0  0  0  0  0  0
   47.3990   34.6630   41.5460 C   0  0  0  0  0  0  0  0  0  0  0  0
   47.9000   34.3770   40.2920 C   0  0  0  0  0  0  0  0  0  0  0  0
   47.0710   33.7900   39.4040 N   0  0  0  0  0  0  0  0  0  0  0  0
   45.8190   33.5160   39.7770 C   0  0  0  0  0  0  0  0  0  0  0  0
   45.3230   33.7960   41.0110 N   0  0  0  0  0  0  0  0  0  0  0  0
   44.4590   36.0470   44.9200 C   0  0  0  0  0  0  0  0  0  0  0  0
   44.8980   35.8610   43.5950 C   0  0  0  0  0  0  0  0  0  0  0  0
   45.6090   34.7010   43.2840 C   0  0  0  0  0  0  0  0  0  0  0  0
   45.8500   33.8120   44.2470 N   0  0  0  0  0  0  0  0  0  0  0  0
   45.4170   34.0160   45.5200 C   0  0  0  0  0  0  0  0  0  0  0  0
   44.7260   35.1260   45.8560 N   0  0  0  0  0  0  0  0  0  0  0  0
   41.5800   31.8550   37.7490 C   0  0  0  0  0  0  0  0  0  0  0  0
   40.6790   32.8800   38.3750 C   0  0  0  0  0  0  0  0  0  0  0  0
   39.6800   32.4450   39.2670 N   0  0  0  0  0  0  0  0  0  0  0  0
   39.2840   31.1660   38.9930 C   0  0  0  0  0  0  0  0  0  0  0  0
   38.3370   30.4890   39.7680 C   0  0  0  0  0  0  0  0  0  0  0  0
   37.9000   29.1040   39.4820 C   0  0  0  0  0  0  0  0  0  0  0  0
   37.7600   31.1100   40.8590 C   0  0  0  0  0  0  0  0  0  0  0  0
   36.9190   30.5350   41.5660 O   0  0  0  0  0  0  0  0  0  0  0  0
   38.1740   32.3680   41.0970 N   0  0  0  0  0  0  0  0  0  0  0  0
   39.0850   32.9960   40.3360 C   0  0  0  0  0  0  0  0  0  0  0  0
   39.4380   34.1760   40.5910 O   0  0  0  0  0  0  0  0  0  0  0  0
   46.2126   32.0729   37.4186 H   0  0  0  0  0  0  0  0  0  0  0  0
   43.9553   31.1191   36.2324 H   0  0  0  0  0  0  0  0  0  0  0  0
   48.0745   35.1422   42.2699 H   0  0  0  0  0  0  0  0  0  0  0  0
   48.9394   34.6193   40.0258 H   0  0  0  0  0  0  0  0  0  0  0  0
   43.8944   36.9523   45.1878 H   0  0  0  0  0  0  0  0  0  0  0  0
   44.6851   36.6138   42.8217 H   0  0  0  0  0  0  0  0  0  0  0  0
   45.6340   33.2619   46.2908 H   0  0  0  0  0  0  0  0  0  0  0  0
   41.4070   31.8459   36.6627 H   0  0  0  0  0  0  0  0  0  0  0  0
   41.3463   30.8778   38.1969 H   0  0  0  0  0  0  0  0  0  0  0  0
   41.3213   33.5832   38.9255 H   0  0  0  0  0  0  0  0  0  0  0  0
   40.1172   33.2971   37.5262 H   0  0  0  0  0  0  0  0  0  0  0  0
   39.7274   30.6489   38.1293 H   0  0  0  0  0  0  0  0  0  0  0  0
   37.7315   28.5698   40.4287 H   0  0  0  0  0  0  0  0  0  0  0  0
   36.9654   29.1267   38.9024 H   0  0  0  0  0  0  0  0  0  0  0  0
   38.6784   28.5862   38.9024 H   0  0  0  0  0  0  0  0  0  0  0  0
   37.7734   32.8729   41.9004 H   0  0  0  0  0  0  0  0  0  0  0  0
  1  5  1  0
  1 10  1  0
  2  1  2  0
  3  2  1  0
  3  4  2  0
  4  5  1  0
  6 14  1  0
  7  6  2  0
  8  7  1  0
  9 10  1  0
  9  8  2  0
 10 11  2  0
 11  6  1  0
 12 17  2  0
 13 12  1  0
 14 13  2  0
 14 15  1  0
 15 16  2  0
 16 17  1  0
 18  4  1  0
 18 19  1  0
 19 20  1  0
 20 27  1  0
 21 20  1  0
 21 22  2  0
 22 24  1  0
 23 22  1  0
 24 26  1  0
 24 25  2  0
 27 28  2  0
 27 26  1  0
  2 29  1  0
  3 30  1  0
  7 31  1  0
  8 32  1  0
 12 33  1  0
 13 34  1  0
 16 35  1  0
 18 36  1  0
 18 37  1  0
 19 38  1  0
 19 39  1  0
 21 40  1  0
 23 41  1  0
 23 42  1  0
 23 43  1  0
 26 44  1  0
M  ISO  8  29  14  30  14  31  14  32  14  33  14  34  14  35  14  36   8
M  ISO  8  37   8  38   8  39   8  40  14  41   8  42   8  43   8  44   9
M  END
>  <minimizedAffinity>  (1) 
-6.51754665

>  <minimizedRMSD>  (1) 
2.32141948

$$$$
