
     RDKit          3D

 44 48  0  0  0  0  0  0  0  0999 V2000
   45.9690   32.9650   38.9560 C   0  0  0  0  0  0  0  0  0  0  0  0
   46.1870   33.0690   37.5790 C   0  0  0  0  0  0  0  0  0  0  0  0
   45.3310   32.1870   36.9120 C   0  0  0  0  0  0  0  0  0  0  0  0
   44.6330   31.5940   37.9660 C   0  0  0  0  0  0  0  0  0  0  0  0
   45.0240   32.0620   39.1130 O   0  0  0  0  0  0  0  0  0  0  0  0
   46.6170   34.6740   42.0640 C   0  0  0  0  0  0  0  0  0  0  0  0
   47.8500   35.2030   41.7980 C   0  0  0  0  0  0  0  0  0  0  0  0
   48.5270   35.0340   40.6070 C   0  0  0  0  0  0  0  0  0  0  0  0
   47.9310   34.2960   39.6390 N   0  0  0  0  0  0  0  0  0  0  0  0
   46.7260   33.7710   39.8850 C   0  0  0  0  0  0  0  0  0  0  0  0
   46.0630   33.9390   41.0540 N   0  0  0  0  0  0  0  0  0  0  0  0
   44.4600   36.0140   44.8660 C   0  0  0  0  0  0  0  0  0  0  0  0
   45.0760   35.9450   43.5950 C   0  0  0  0  0  0  0  0  0  0  0  0
   45.9210   34.8660   43.3280 C   0  0  0  0  0  0  0  0  0  0  0  0
   46.1100   33.9440   44.2840 N   0  0  0  0  0  0  0  0  0  0  0  0
   45.5020   34.0410   45.4940 C   0  0  0  0  0  0  0  0  0  0  0  0
   44.6880   35.0600   45.7850 N   0  0  0  0  0  0  0  0  0  0  0  0
   43.5800   30.5550   37.6970 C   0  0  0  0  0  0  0  0  0  0  0  0
   42.3750   31.2010   37.0300 C   0  0  0  0  0  0  0  0  0  0  0  0
   41.5130   31.8830   37.9440 N   0  0  0  0  0  0  0  0  0  0  0  0
   41.5190   33.1680   38.3340 C   0  0  0  0  0  0  0  0  0  0  0  0
   40.5350   33.4330   39.2200 N   0  0  0  0  0  0  0  0  0  0  0  0
   39.8650   32.2950   39.4190 C   0  0  0  0  0  0  0  0  0  0  0  0
   38.7900   31.8510   40.1630 C   0  0  0  0  0  0  0  0  0  0  0  0
   38.3630   30.5760   40.1210 N   0  0  0  0  0  0  0  0  0  0  0  0
   38.9780   29.6550   39.3350 C   0  0  0  0  0  0  0  0  0  0  0  0
   40.0280   30.0580   38.5990 N   0  0  0  0  0  0  0  0  0  0  0  0
   40.4770   31.3210   38.6200 C   0  0  0  0  0  0  0  0  0  0  0  0
   38.1270   32.7960   40.9960 N   0  0  0  0  0  0  0  0  0  0  0  0
   46.9155   33.7377   37.0972 H   0  0  0  0  0  0  0  0  0  0  0  0
   45.2325   32.0063   35.8314 H   0  0  0  0  0  0  0  0  0  0  0  0
   48.3333   35.8018   42.5840 H   0  0  0  0  0  0  0  0  0  0  0  0
   49.5183   35.4838   40.4486 H   0  0  0  0  0  0  0  0  0  0  0  0
   43.7902   36.8535   45.1040 H   0  0  0  0  0  0  0  0  0  0  0  0
   44.8943   36.7209   42.8367 H   0  0  0  0  0  0  0  0  0  0  0  0
   45.6834   33.2640   46.2512 H   0  0  0  0  0  0  0  0  0  0  0  0
   43.9926   29.7805   37.0337 H   0  0  0  0  0  0  0  0  0  0  0  0
   43.2673   30.1008   38.6488 H   0  0  0  0  0  0  0  0  0  0  0  0
   42.7364   31.9260   36.2858 H   0  0  0  0  0  0  0  0  0  0  0  0
   41.7862   30.3917   36.5736 H   0  0  0  0  0  0  0  0  0  0  0  0
   42.2404   33.9164   37.9742 H   0  0  0  0  0  0  0  0  0  0  0  0
   38.6281   28.6127   39.3017 H   0  0  0  0  0  0  0  0  0  0  0  0
   37.3208   32.5034   41.5664 H   0  0  0  0  0  0  0  0  0  0  0  0
   38.4535   33.7723   41.0283 H   0  0  0  0  0  0  0  0  0  0  0  0
  1  5  1  0
  1 10  1  0
  2  1  2  0
  3  2  1  0
  3  4  2  0
  4  5  1  0
  6 14  1  0
  7  6  2  0
  8  7  1  0
  9 10  1  0
  9  8  2  0
 10 11  2  0
 11  6  1  0
 12 17  2  0
 13 12  1  0
 14 13  2  0
 14 15  1  0
 15 16  2  0
 16 17  1  0
 18  4  1  0
 19 18  1  0
 19 20  1  0
 20 21  1  0
 20 28  1  0
 21 22  2  0
 22 23  1  0
 23 24  2  0
 24 29  1  0
 25 24  1  0
 26 25  2  0
 27 28  2  0
 27 26  1  0
 28 23  1  0
  2 30  1  0
  3 31  1  0
  7 32  1  0
  8 33  1  0
 12 34  1  0
 13 35  1  0
 16 36  1  0
 18 37  1  0
 18 38  1  0
 19 39  1  0
 19 40  1  0
 21 41  1  0
 26 42  1  0
 29 43  1  0
 29 44  1  0
M  ISO  8  30  14  31  14  32  14  33  14  34  14  35  14  36  14  37   8
M  ISO  5  38   8  39   8  40   8  41  14  42  14
M  END
>  <minimizedAffinity>  (1) 
-6.37385511

>  <minimizedRMSD>  (1) 
2.62159419

$$$$
