
     RDKit          3D

 41 44  0  0  0  0  0  0  0  0999 V2000
   44.5700   32.5940   38.9430 C   0  0  0  0  0  0  0  0  0  0  0  0
   44.8200   32.1840   37.6390 C   0  0  0  0  0  0  0  0  0  0  0  0
   43.6640   31.5570   37.1440 C   0  0  0  0  0  0  0  0  0  0  0  0
   42.7860   31.6370   38.2060 C   0  0  0  0  0  0  0  0  0  0  0  0
   43.3510   32.2430   39.2190 O   0  0  0  0  0  0  0  0  0  0  0  0
   45.9950   34.2620   41.8200 C   0  0  0  0  0  0  0  0  0  0  0  0
   47.2370   34.5480   41.3440 C   0  0  0  0  0  0  0  0  0  0  0  0
   47.6800   34.2180   40.0730 C   0  0  0  0  0  0  0  0  0  0  0  0
   46.8220   33.5680   39.2550 N   0  0  0  0  0  0  0  0  0  0  0  0
   45.6010   33.2820   39.7100 C   0  0  0  0  0  0  0  0  0  0  0  0
   45.1650   33.6040   40.9520 N   0  0  0  0  0  0  0  0  0  0  0  0
   44.4870   36.0610   44.7830 C   0  0  0  0  0  0  0  0  0  0  0  0
   44.8690   35.8240   43.4570 C   0  0  0  0  0  0  0  0  0  0  0  0
   45.5460   34.6190   43.1600 C   0  0  0  0  0  0  0  0  0  0  0  0
   45.7970   33.7550   44.1480 N   0  0  0  0  0  0  0  0  0  0  0  0
   45.4120   34.0150   45.4240 C   0  0  0  0  0  0  0  0  0  0  0  0
   44.7650   35.1490   45.7540 N   0  0  0  0  0  0  0  0  0  0  0  0
   41.4030   31.0900   38.1340 C   0  0  0  0  0  0  0  0  0  0  0  0
   40.4140   32.1120   37.6490 C   0  0  0  0  0  0  0  0  0  0  0  0
   40.3370   33.3540   38.4110 C   0  0  0  0  0  0  0  0  0  0  0  0
   40.8600   34.6050   38.1790 C   0  0  0  0  0  0  0  0  0  0  0  0
   40.6700   35.6420   39.0690 C   0  0  0  0  0  0  0  0  0  0  0  0
   39.9500   35.4900   40.2360 C   0  0  0  0  0  0  0  0  0  0  0  0
   39.4150   34.2440   40.4900 C   0  0  0  0  0  0  0  0  0  0  0  0
   39.6070   33.2070   39.5980 C   0  0  0  0  0  0  0  0  0  0  0  0
   45.7617   32.3260   37.0885 H   0  0  0  0  0  0  0  0  0  0  0  0
   43.4990   31.1111   36.1520 H   0  0  0  0  0  0  0  0  0  0  0  0
   47.9347   35.0753   42.0112 H   0  0  0  0  0  0  0  0  0  0  0  0
   48.6963   34.4764   39.7407 H   0  0  0  0  0  0  0  0  0  0  0  0
   43.9587   36.9905   45.0416 H   0  0  0  0  0  0  0  0  0  0  0  0
   44.6480   36.5565   42.6667 H   0  0  0  0  0  0  0  0  0  0  0  0
   45.6349   33.2786   46.2102 H   0  0  0  0  0  0  0  0  0  0  0  0
   41.3959   30.2341   37.4430 H   0  0  0  0  0  0  0  0  0  0  0  0
   41.1060   30.7870   39.1489 H   0  0  0  0  0  0  0  0  0  0  0  0
   40.6808   32.3707   36.6137 H   0  0  0  0  0  0  0  0  0  0  0  0
   39.4271   31.6392   37.7610 H   0  0  0  0  0  0  0  0  0  0  0  0
   41.4429   34.7826   37.2632 H   0  0  0  0  0  0  0  0  0  0  0  0
   41.1081   36.6247   38.8400 H   0  0  0  0  0  0  0  0  0  0  0  0
   39.8084   36.3275   40.9349 H   0  0  0  0  0  0  0  0  0  0  0  0
   38.8324   34.0755   41.4077 H   0  0  0  0  0  0  0  0  0  0  0  0
   39.1686   32.2249   39.8291 H   0  0  0  0  0  0  0  0  0  0  0  0
  1  5  1  0
  1 10  1  0
  2  1  2  0
  3  2  1  0
  3  4  2  0
  4  5  1  0
  6 14  1  0
  7  6  2  0
  8  7  1  0
  9 10  1  0
  9  8  2  0
 10 11  2  0
 11  6  1  0
 12 17  2  0
 13 12  1  0
 14 13  2  0
 14 15  1  0
 15 16  2  0
 16 17  1  0
 18  4  1  0
 19 18  1  0
 19 20  1  0
 20 25  1  0
 21 20  2  0
 21 22  1  0
 22 23  2  0
 23 24  1  0
 25 24  2  0
  2 26  1  0
  3 27  1  0
  7 28  1  0
  8 29  1  0
 12 30  1  0
 13 31  1  0
 16 32  1  0
 18 33  1  0
 18 34  1  0
 19 35  1  0
 19 36  1  0
 21 37  1  0
 22 38  1  0
 23 39  1  0
 24 40  1  0
 25 41  1  0
M  ISO  8  26  14  27  14  28  14  29  14  30  14  31  14  32  14  33   8
M  ISO  8  34   8  35   8  36   8  37  14  38  14  39  14  40  14  41  14
M  END
>  <minimizedAffinity>  (1) 
-5.78869629

>  <minimizedRMSD>  (1) 
2.25246215

$$$$
