
     RDKit          3D

 45 48  0  0  0  0  0  0  0  0999 V2000
   45.6060   33.0910   38.9390 C   0  0  0  0  0  0  0  0  0  0  0  0
   46.0900   32.6600   37.7170 C   0  0  0  0  0  0  0  0  0  0  0  0
   45.0680   32.0230   37.0080 C   0  0  0  0  0  0  0  0  0  0  0  0
   43.9880   32.1180   37.8880 C   0  0  0  0  0  0  0  0  0  0  0  0
   44.3340   32.7360   38.9850 O   0  0  0  0  0  0  0  0  0  0  0  0
   46.4870   34.6120   42.0890 C   0  0  0  0  0  0  0  0  0  0  0  0
   47.7590   35.0370   41.8160 C   0  0  0  0  0  0  0  0  0  0  0  0
   48.3840   34.8460   40.5920 C   0  0  0  0  0  0  0  0  0  0  0  0
   47.7030   34.2070   39.6210 N   0  0  0  0  0  0  0  0  0  0  0  0
   46.4630   33.7920   39.8870 C   0  0  0  0  0  0  0  0  0  0  0  0
   45.8380   33.9720   41.0800 N   0  0  0  0  0  0  0  0  0  0  0  0
   44.4530   36.0590   44.9410 C   0  0  0  0  0  0  0  0  0  0  0  0
   45.0290   35.9460   43.6650 C   0  0  0  0  0  0  0  0  0  0  0  0
   45.8440   34.8230   43.3780 C   0  0  0  0  0  0  0  0  0  0  0  0
   46.0370   33.9050   44.3360 N   0  0  0  0  0  0  0  0  0  0  0  0
   45.4620   34.0540   45.5580 C   0  0  0  0  0  0  0  0  0  0  0  0
   44.6800   35.1120   45.8650 N   0  0  0  0  0  0  0  0  0  0  0  0
   42.6590   31.5520   37.5240 C   0  0  0  0  0  0  0  0  0  0  0  0
   41.5550   32.5240   37.8610 C   0  0  0  0  0  0  0  0  0  0  0  0
   40.5500   32.0330   38.7400 N   0  0  0  0  0  0  0  0  0  0  0  0
   40.2670   33.0930   39.7250 C   0  0  0  0  0  0  0  0  0  0  0  0
   40.0220   34.4150   39.0310 C   0  0  0  0  0  0  0  0  0  0  0  0
   39.0670   34.2640   37.9960 N   0  0  0  0  0  0  0  0  0  0  0  0
   38.4590   33.0020   37.8200 C   0  0  0  0  0  0  0  0  0  0  0  0
   39.3150   31.7960   38.0140 C   0  0  0  0  0  0  0  0  0  0  0  0
   47.1208   32.7975   37.3584 H   0  0  0  0  0  0  0  0  0  0  0  0
   45.1050   31.5631   36.0094 H   0  0  0  0  0  0  0  0  0  0  0  0
   48.3155   35.5577   42.6092 H   0  0  0  0  0  0  0  0  0  0  0  0
   49.4086   35.2069   40.4190 H   0  0  0  0  0  0  0  0  0  0  0  0
   43.8164   36.9228   45.1830 H   0  0  0  0  0  0  0  0  0  0  0  0
   44.8503   36.7168   42.9009 H   0  0  0  0  0  0  0  0  0  0  0  0
   45.6396   33.2856   46.3249 H   0  0  0  0  0  0  0  0  0  0  0  0
   42.4997   30.6172   38.0814 H   0  0  0  0  0  0  0  0  0  0  0  0
   42.6415   31.3584   36.4413 H   0  0  0  0  0  0  0  0  0  0  0  0
   42.0133   33.4069   38.3306 H   0  0  0  0  0  0  0  0  0  0  0  0
   41.0442   32.7399   36.9110 H   0  0  0  0  0  0  0  0  0  0  0  0
   39.3734   32.8183   40.3047 H   0  0  0  0  0  0  0  0  0  0  0  0
   41.1360   33.1985   40.3912 H   0  0  0  0  0  0  0  0  0  0  0  0
   39.6483   35.1447   39.7644 H   0  0  0  0  0  0  0  0  0  0  0  0
   40.9677   34.7668   38.5930 H   0  0  0  0  0  0  0  0  0  0  0  0
   38.3132   34.9423   38.1764 H   0  0  0  0  0  0  0  0  0  0  0  0
   37.6260   32.9342   38.5352 H   0  0  0  0  0  0  0  0  0  0  0  0
   38.1692   32.9742   36.7592 H   0  0  0  0  0  0  0  0  0  0  0  0
   38.7304   31.0478   38.5694 H   0  0  0  0  0  0  0  0  0  0  0  0
   39.6080   31.4607   37.0081 H   0  0  0  0  0  0  0  0  0  0  0  0
  1  5  1  0
  1 10  1  0
  2  1  2  0
  3  2  1  0
  3  4  2  0
  4  5  1  0
  6 14  1  0
  7  6  2  0
  8  7  1  0
  9 10  1  0
  9  8  2  0
 10 11  2  0
 11  6  1  0
 12 17  2  0
 13 12  1  0
 14 13  2  0
 14 15  1  0
 15 16  2  0
 16 17  1  0
 18 19  1  0
 18  4  1  0
 19 20  1  0
 20 21  1  0
 22 21  1  0
 23 22  1  0
 24 23  1  0
 24 25  1  0
 25 20  1  0
  2 26  1  0
  3 27  1  0
  7 28  1  0
  8 29  1  0
 12 30  1  0
 13 31  1  0
 16 32  1  0
 18 33  1  0
 18 34  1  0
 19 35  1  0
 19 36  1  0
 21 37  1  0
 21 38  1  0
 22 39  1  0
 22 40  1  0
 23 41  1  0
 24 42  1  0
 24 43  1  0
 25 44  1  0
 25 45  1  0
M  ISO  8  26  14  27  14  28  14  29  14  30  14  31  14  32  14  33   8
M  ISO  8  34   8  35   8  36   8  37  13  38  13  39  13  40  13  41   5
M  ISO  4  42  13  43  13  44  13  45  13
M  END
>  <minimizedAffinity>  (1) 
-5.52061081

>  <minimizedRMSD>  (1) 
2.03452492

$$$$
