
     RDKit          3D

 41 44  0  0  1  0  0  0  0  0999 V2000
   44.7170   33.5760   42.8340 C   0  0  0  0  0  0  0  0  0  0  0  0
   44.5660   32.2150   42.9910 C   0  0  0  0  0  0  0  0  0  0  0  0
   43.5280   31.5670   42.3980 C   0  0  0  0  0  0  0  0  0  0  0  0
   42.6230   32.2000   41.6520 N   0  0  0  0  0  0  0  0  0  0  0  0
   42.7630   33.5210   41.4950 C   0  0  0  0  0  0  0  0  0  0  0  0
   43.7760   34.1750   42.0670 N   0  0  0  0  0  0  0  0  0  0  0  0
   47.1870   34.4610   42.9000 C   0  0  1  0  0  0  0  0  0  0  0  0
   46.2800   35.6420   42.8420 C   0  0  0  0  0  0  0  0  0  0  0  0
   45.7780   34.4380   43.4420 C   0  0  1  0  0  0  0  0  0  0  0  0
   47.9170   33.8500   39.3060 C   0  0  0  0  0  0  0  0  0  0  0  0
   47.5520   34.5250   40.5200 C   0  0  0  0  0  0  0  0  0  0  0  0
   47.5630   33.7560   41.6850 C   0  0  0  0  0  0  0  0  0  0  0  0
   47.9050   32.4460   41.6300 N   0  0  0  0  0  0  0  0  0  0  0  0
   48.2400   31.8400   40.4910 C   0  0  0  0  0  0  0  0  0  0  0  0
   48.2510   32.5250   39.3170 N   0  0  0  0  0  0  0  0  0  0  0  0
   41.7690   34.2490   40.6890 C   0  0  1  0  0  0  0  0  0  0  0  0
   41.3670   35.4790   41.4200 C   0  0  0  0  0  0  0  0  0  0  0  0
   42.2940   34.5940   39.3130 C   0  0  0  0  0  0  0  0  0  0  0  0
   42.7060   33.4510   38.5480 C   0  0  0  0  0  0  0  0  0  0  0  0
   41.8120   32.4440   38.0710 C   0  0  0  0  0  0  0  0  0  0  0  0
   42.4420   31.4560   37.3680 C   0  0  0  0  0  0  0  0  0  0  0  0
   43.8070   31.4340   37.1400 C   0  0  0  0  0  0  0  0  0  0  0  0
   44.3490   32.9650   37.9920 S   0  0  0  0  0  0  0  0  0  0  0  0
   45.2885   31.6505   43.5988 H   0  0  0  0  0  0  0  0  0  0  0  0
   43.4317   30.4804   42.5392 H   0  0  0  0  0  0  0  0  0  0  0  0
   48.1856   34.2334   43.3011 H   0  0  0  0  0  0  0  0  0  0  0  0
   46.4874   36.5188   43.4730 H   0  0  0  0  0  0  0  0  0  0  0  0
   45.9281   36.2976   42.0319 H   0  0  0  0  0  0  0  0  0  0  0  0
   45.3085   34.2108   44.4105 H   0  0  0  0  0  0  0  0  0  0  0  0
   47.9278   34.4058   38.3568 H   0  0  0  0  0  0  0  0  0  0  0  0
   47.2785   35.5904   40.5312 H   0  0  0  0  0  0  0  0  0  0  0  0
   48.5105   30.7738   40.5012 H   0  0  0  0  0  0  0  0  0  0  0  0
   40.8958   33.5971   40.5384 H   0  0  0  0  0  0  0  0  0  0  0  0
   41.4263   35.2976   42.5033 H   0  0  0  0  0  0  0  0  0  0  0  0
   42.0423   36.3039   41.1489 H   0  0  0  0  0  0  0  0  0  0  0  0
   40.3349   35.7459   41.1489 H   0  0  0  0  0  0  0  0  0  0  0  0
   41.4991   35.1144   38.7587 H   0  0  0  0  0  0  0  0  0  0  0  0
   43.1856   35.2217   39.4577 H   0  0  0  0  0  0  0  0  0  0  0  0
   40.7270   32.4621   38.2513 H   0  0  0  0  0  0  0  0  0  0  0  0
   41.8324   30.6352   36.9621 H   0  0  0  0  0  0  0  0  0  0  0  0
   44.4083   30.6935   36.5922 H   0  0  0  0  0  0  0  0  0  0  0  0
  1  2  2  0
  1  9  1  0
  3  2  1  0
  4  3  2  0
  5  4  1  0
  5  6  2  0
  6  1  1  0
  7  9  1  0
  8  7  1  0
  8  9  1  0
 10 15  2  0
 10 11  1  0
 11 12  2  0
 12  7  1  0
 13 12  1  0
 14 13  2  0
 15 14  1  0
 16 17  1  0
 16  5  1  0
 18 16  1  0
 19 18  1  0
 20 19  2  0
 21 20  1  0
 22 21  2  0
 22 23  1  0
 23 19  1  0
  2 24  1  0
  3 25  1  0
  7 26  1  1
  8 27  1  0
  8 28  1  0
  9 29  1  1
 10 30  1  0
 11 31  1  0
 14 32  1  0
 16 33  1  6
 17 34  1  0
 17 35  1  0
 17 36  1  0
 18 37  1  0
 18 38  1  0
 20 39  1  0
 21 40  1  0
 22 41  1  0
M  ISO  8  24  14  25  14  26  13  27  13  28  13  29  13  30  14  31  14
M  ISO  8  32  14  33   8  34   8  35   8  36   8  37   8  38   8  39  14
M  ISO  2  40  14  41  14
M  END
>  <minimizedAffinity>  (1) 
-4.51654291

>  <minimizedRMSD>  (1) 
0.634273827

$$$$
