
     RDKit          3D

 38 41  0  0  0  0  0  0  0  0999 V2000
   45.8710   33.1800   38.9120 C   0  0  0  0  0  0  0  0  0  0  0  0
   46.2900   33.0870   37.5840 C   0  0  0  0  0  0  0  0  0  0  0  0
   45.3360   32.3550   36.8650 C   0  0  0  0  0  0  0  0  0  0  0  0
   44.3870   32.0520   37.8390 C   0  0  0  0  0  0  0  0  0  0  0  0
   44.7400   32.5460   38.9870 O   0  0  0  0  0  0  0  0  0  0  0  0
   46.6100   34.6980   42.1080 C   0  0  0  0  0  0  0  0  0  0  0  0
   47.8800   35.1510   41.8700 C   0  0  0  0  0  0  0  0  0  0  0  0
   48.5540   34.9890   40.6730 C   0  0  0  0  0  0  0  0  0  0  0  0
   47.9230   34.3460   39.6790 N   0  0  0  0  0  0  0  0  0  0  0  0
   46.6870   33.8960   39.8880 C   0  0  0  0  0  0  0  0  0  0  0  0
   46.0200   34.0490   41.0520 N   0  0  0  0  0  0  0  0  0  0  0  0
   44.4460   36.0010   44.9160 C   0  0  0  0  0  0  0  0  0  0  0  0
   45.0600   35.9470   43.6440 C   0  0  0  0  0  0  0  0  0  0  0  0
   45.9130   34.8760   43.3780 C   0  0  0  0  0  0  0  0  0  0  0  0
   46.1210   33.9460   44.3260 N   0  0  0  0  0  0  0  0  0  0  0  0
   45.5090   34.0390   45.5340 C   0  0  0  0  0  0  0  0  0  0  0  0
   44.6810   35.0510   45.8340 N   0  0  0  0  0  0  0  0  0  0  0  0
   43.1580   31.2680   37.5420 C   0  0  0  0  0  0  0  0  0  0  0  0
   41.9130   32.0700   37.8060 C   0  0  0  0  0  0  0  0  0  0  0  0
   41.5720   32.2880   39.2040 C   0  0  0  0  0  0  0  0  0  0  0  0
   41.0600   31.5480   40.2420 C   0  0  0  0  0  0  0  0  0  0  0  0
   40.9840   32.3220   41.3560 N   0  0  0  0  0  0  0  0  0  0  0  0
   41.4470   33.5650   41.0330 C   0  0  0  0  0  0  0  0  0  0  0  0
   41.7890   33.5130   39.7500 N   0  0  0  0  0  0  0  0  0  0  0  0
   47.2146   33.5166   37.1709 H   0  0  0  0  0  0  0  0  0  0  0  0
   45.3362   32.0866   35.7982 H   0  0  0  0  0  0  0  0  0  0  0  0
   48.3984   35.6785   42.6843 H   0  0  0  0  0  0  0  0  0  0  0  0
   49.5754   35.3753   40.5403 H   0  0  0  0  0  0  0  0  0  0  0  0
   43.7669   36.8323   45.1564 H   0  0  0  0  0  0  0  0  0  0  0  0
   44.8713   36.7241   42.8887 H   0  0  0  0  0  0  0  0  0  0  0  0
   45.6975   33.2617   46.2892 H   0  0  0  0  0  0  0  0  0  0  0  0
   43.1454   30.3697   38.1767 H   0  0  0  0  0  0  0  0  0  0  0  0
   43.1725   30.9955   36.4764 H   0  0  0  0  0  0  0  0  0  0  0  0
   42.0427   33.0555   37.3348 H   0  0  0  0  0  0  0  0  0  0  0  0
   41.0864   31.4743   37.3914 H   0  0  0  0  0  0  0  0  0  0  0  0
   40.7582   30.4920   40.1807 H   0  0  0  0  0  0  0  0  0  0  0  0
   41.5220   34.4355   41.7012 H   0  0  0  0  0  0  0  0  0  0  0  0
   42.1755   34.3122   39.2277 H   0  0  0  0  0  0  0  0  0  0  0  0
  1  5  1  0
  1 10  1  0
  2  1  2  0
  3  2  1  0
  3  4  2  0
  4  5  1  0
  6 14  1  0
  7  6  2  0
  8  7  1  0
  9 10  1  0
  9  8  2  0
 10 11  2  0
 11  6  1  0
 12 17  2  0
 13 12  1  0
 14 13  2  0
 14 15  1  0
 15 16  2  0
 16 17  1  0
 18 19  1  0
 18  4  1  0
 19 20  1  0
 20 24  1  0
 20 21  2  0
 21 22  1  0
 23 22  2  0
 24 23  1  0
  2 25  1  0
  3 26  1  0
  7 27  1  0
  8 28  1  0
 12 29  1  0
 13 30  1  0
 16 31  1  0
 18 32  1  0
 18 33  1  0
 19 34  1  0
 19 35  1  0
 21 36  1  0
 23 37  1  0
 24 38  1  0
M  ISO  8  25  14  26  14  27  14  28  14  29  14  30  14  31  14  32   8
M  ISO  6  33   8  34   8  35   8  36  14  37  14  38   9
M  END
>  <minimizedAffinity>  (1) 
-5.30955315

>  <minimizedRMSD>  (1) 
0.384935468

$$$$
