
     RDKit          3D

 32 34  0  0  0  0  0  0  0  0999 V2000
   46.6770   34.7170   42.0700 C   0  0  0  0  0  0  0  0  0  0  0  0
   47.9290   35.1880   41.8550 C   0  0  0  0  0  0  0  0  0  0  0  0
   48.6150   35.0490   40.6660 C   0  0  0  0  0  0  0  0  0  0  0  0
   47.9920   34.3950   39.6480 N   0  0  0  0  0  0  0  0  0  0  0  0
   46.7590   33.9260   39.8480 C   0  0  0  0  0  0  0  0  0  0  0  0
   46.0800   34.0600   41.0130 N   0  0  0  0  0  0  0  0  0  0  0  0
   44.4550   35.9730   44.8730 C   0  0  0  0  0  0  0  0  0  0  0  0
   45.0770   35.9480   43.6020 C   0  0  0  0  0  0  0  0  0  0  0  0
   45.9600   34.8730   43.3420 C   0  0  0  0  0  0  0  0  0  0  0  0
   46.1580   33.9580   44.2790 N   0  0  0  0  0  0  0  0  0  0  0  0
   45.5380   34.0220   45.4840 C   0  0  0  0  0  0  0  0  0  0  0  0
   44.6970   35.0140   45.7780 N   0  0  0  0  0  0  0  0  0  0  0  0
   45.9750   33.2100   38.8630 C   0  0  0  0  0  0  0  0  0  0  0  0
   46.4580   33.0210   37.5700 C   0  0  0  0  0  0  0  0  0  0  0  0
   45.5000   32.3000   36.8290 C   0  0  0  0  0  0  0  0  0  0  0  0
   44.4860   32.1080   37.7600 C   0  0  0  0  0  0  0  0  0  0  0  0
   44.7960   32.6400   38.9020 O   0  0  0  0  0  0  0  0  0  0  0  0
   43.2590   31.3690   37.3670 C   0  0  0  0  0  0  0  0  0  0  0  0
   42.0170   32.0570   37.9350 C   0  0  0  0  0  0  0  0  0  0  0  0
   41.5460   31.1390   39.4480 S   0  0  0  0  0  0  0  0  0  0  0  0
   48.4303   35.7145   42.6806 H   0  0  0  0  0  0  0  0  0  0  0  0
   49.6309   35.4530   40.5450 H   0  0  0  0  0  0  0  0  0  0  0  0
   43.7630   36.7911   45.1219 H   0  0  0  0  0  0  0  0  0  0  0  0
   44.8831   36.7280   42.8510 H   0  0  0  0  0  0  0  0  0  0  0  0
   45.7329   33.2403   46.2330 H   0  0  0  0  0  0  0  0  0  0  0  0
   47.4273   33.3760   37.1900 H   0  0  0  0  0  0  0  0  0  0  0  0
   45.5438   31.9723   35.7798 H   0  0  0  0  0  0  0  0  0  0  0  0
   43.1882   31.3417   36.2696 H   0  0  0  0  0  0  0  0  0  0  0  0
   43.3149   30.3462   37.7679 H   0  0  0  0  0  0  0  0  0  0  0  0
   42.2448   33.1041   38.1833 H   0  0  0  0  0  0  0  0  0  0  0  0
   41.1965   32.0562   37.2023 H   0  0  0  0  0  0  0  0  0  0  0  0
   41.9157   31.8595   40.5530 H   0  0  0  0  0  0  0  0  0  0  0  0
  1  9  1  0
  2  1  2  0
  3  2  1  0
  4  5  1  0
  4  3  2  0
  5  6  2  0
  6  1  1  0
  7 12  2  0
  8  7  1  0
  9  8  2  0
  9 10  1  0
 10 11  2  0
 11 12  1  0
 13 17  1  0
 13  5  1  0
 14 13  2  0
 15 14  1  0
 15 16  2  0
 16 17  1  0
 18 16  1  0
 18 19  1  0
 19 20  1  0
  2 21  1  0
  3 22  1  0
  7 23  1  0
  8 24  1  0
 11 25  1  0
 14 26  1  0
 15 27  1  0
 18 28  1  0
 18 29  1  0
 19 30  1  0
 19 31  1  0
 20 32  1  0
M  ISO  8  21  14  22  14  23  14  24  14  25  14  26  14  27  14  28   8
M  ISO  4  29   8  30   8  31   8  32  11
M  END
>  <minimizedAffinity>  (1) 
-4.79124737

>  <minimizedRMSD>  (1) 
0.271166205

$$$$
