
     RDKit          3D

 48 52  0  0  1  0  0  0  0  0999 V2000
   45.5830   33.0930   38.7890 C   0  0  0  0  0  0  0  0  0  0  0  0
   46.0170   32.8040   37.5010 C   0  0  0  0  0  0  0  0  0  0  0  0
   45.0040   32.1570   36.8020 C   0  0  0  0  0  0  0  0  0  0  0  0
   43.9870   32.0980   37.7520 C   0  0  0  0  0  0  0  0  0  0  0  0
   44.3670   32.6440   38.8680 O   0  0  0  0  0  0  0  0  0  0  0  0
   46.5000   34.5880   41.9450 C   0  0  0  0  0  0  0  0  0  0  0  0
   47.7760   34.9830   41.6710 C   0  0  0  0  0  0  0  0  0  0  0  0
   48.4100   34.7900   40.4590 C   0  0  0  0  0  0  0  0  0  0  0  0
   47.7040   34.1640   39.4810 N   0  0  0  0  0  0  0  0  0  0  0  0
   46.4540   33.7730   39.7400 C   0  0  0  0  0  0  0  0  0  0  0  0
   45.8360   33.9600   40.9190 N   0  0  0  0  0  0  0  0  0  0  0  0
   44.4730   36.0630   44.7880 C   0  0  0  0  0  0  0  0  0  0  0  0
   45.0580   35.9250   43.5210 C   0  0  0  0  0  0  0  0  0  0  0  0
   45.8620   34.8040   43.2270 C   0  0  0  0  0  0  0  0  0  0  0  0
   46.0250   33.9170   44.1950 N   0  0  0  0  0  0  0  0  0  0  0  0
   45.4600   34.0520   45.4200 C   0  0  0  0  0  0  0  0  0  0  0  0
   44.6950   35.1030   45.7200 N   0  0  0  0  0  0  0  0  0  0  0  0
   42.6830   31.4620   37.4070 C   0  0  0  0  0  0  0  0  0  0  0  0
   41.8830   31.1930   38.6710 C   0  0  0  0  0  0  0  0  0  0  0  0
   40.4090   30.9720   38.2950 C   0  0  1  0  0  0  0  0  0  0  0  0
   39.5190   30.5830   39.4880 C   0  0  0  0  0  0  0  0  0  0  0  0
   39.3720   31.8860   38.7930 C   0  0  1  0  0  0  0  0  0  0  0  0
   39.7040   33.1400   39.4060 N   0  0  0  0  0  0  0  0  0  0  0  0
   39.8150   33.2060   40.7650 C   0  0  0  0  0  0  0  0  0  0  0  0
   40.1340   34.3940   41.4120 C   0  0  0  0  0  0  0  0  0  0  0  0
   40.3540   35.5680   40.6870 C   0  0  0  0  0  0  0  0  0  0  0  0
   40.6400   36.6400   41.2550 O   0  0  0  0  0  0  0  0  0  0  0  0
   40.2350   35.4580   39.3510 N   0  0  0  0  0  0  0  0  0  0  0  0
   39.9260   34.2990   38.7620 C   0  0  0  0  0  0  0  0  0  0  0  0
   39.8370   34.2900   37.5100 O   0  0  0  0  0  0  0  0  0  0  0  0
   47.0100   33.0495   37.0963 H   0  0  0  0  0  0  0  0  0  0  0  0
   45.0054   31.7872   35.7660 H   0  0  0  0  0  0  0  0  0  0  0  0
   48.3385   35.4896   42.4691 H   0  0  0  0  0  0  0  0  0  0  0  0
   49.4432   35.1289   40.2925 H   0  0  0  0  0  0  0  0  0  0  0  0
   43.8447   36.9351   45.0220 H   0  0  0  0  0  0  0  0  0  0  0  0
   44.8891   36.6943   42.7531 H   0  0  0  0  0  0  0  0  0  0  0  0
   45.6360   33.2789   46.1824 H   0  0  0  0  0  0  0  0  0  0  0  0
   42.1118   32.1356   36.7513 H   0  0  0  0  0  0  0  0  0  0  0  0
   42.8723   30.5092   36.8909 H   0  0  0  0  0  0  0  0  0  0  0  0
   42.2745   30.2946   39.1707 H   0  0  0  0  0  0  0  0  0  0  0  0
   41.9670   32.0520   39.3530 H   0  0  0  0  0  0  0  0  0  0  0  0
   40.6495   30.5929   37.2908 H   0  0  0  0  0  0  0  0  0  0  0  0
   38.7500   29.8044   39.3763 H   0  0  0  0  0  0  0  0  0  0  0  0
   39.6882   30.2570   40.5248 H   0  0  0  0  0  0  0  0  0  0  0  0
   38.5166   32.4028   38.3335 H   0  0  0  0  0  0  0  0  0  0  0  0
   39.6480   32.2974   41.3622 H   0  0  0  0  0  0  0  0  0  0  0  0
   40.2143   34.4102   42.5089 H   0  0  0  0  0  0  0  0  0  0  0  0
   40.3865   36.2916   38.7653 H   0  0  0  0  0  0  0  0  0  0  0  0
  1  5  1  0
  1 10  1  0
  2  1  2  0
  3  2  1  0
  3  4  2  0
  4  5  1  0
  6 14  1  0
  7  6  2  0
  8  7  1  0
  9 10  1  0
  9  8  2  0
 10 11  2  0
 11  6  1  0
 12 17  2  0
 13 12  1  0
 14 13  2  0
 14 15  1  0
 15 16  2  0
 16 17  1  0
 18  4  1  0
 18 19  1  0
 20 19  1  0
 20 22  1  0
 20 21  1  0
 22 23  1  0
 22 21  1  0
 23 24  1  0
 24 25  2  0
 26 27  2  0
 26 25  1  0
 28 26  1  0
 29 28  1  0
 29 23  1  0
 30 29  2  0
  2 31  1  0
  3 32  1  0
  7 33  1  0
  8 34  1  0
 12 35  1  0
 13 36  1  0
 16 37  1  0
 18 38  1  0
 18 39  1  0
 19 40  1  0
 19 41  1  0
 20 42  1  6
 21 43  1  0
 21 44  1  0
 22 45  1  6
 24 46  1  0
 25 47  1  0
 28 48  1  0
M  ISO  8  31  14  32  14  33  14  34  14  35  14  36  14  37  14  38   8
M  ISO  8  39   8  40   8  41   8  42  13  43  13  44  13  45  13  46  14
M  ISO  2  47  14  48   9
M  END
>  <minimizedAffinity>  (1) 
-6.40553617

>  <minimizedRMSD>  (1) 
2.67280889

$$$$
