
     RDKit          3D

 44 47  0  0  1  0  0  0  0  0999 V2000
   45.7760   33.1980   38.8700 C   0  0  0  0  0  0  0  0  0  0  0  0
   46.2400   32.9440   37.5820 C   0  0  0  0  0  0  0  0  0  0  0  0
   45.2620   32.2840   36.8470 C   0  0  0  0  0  0  0  0  0  0  0  0
   44.2240   32.1750   37.7700 C   0  0  0  0  0  0  0  0  0  0  0  0
   44.5560   32.7100   38.9200 O   0  0  0  0  0  0  0  0  0  0  0  0
   46.5890   34.6650   42.0570 C   0  0  0  0  0  0  0  0  0  0  0  0
   47.8520   35.0870   41.8250 C   0  0  0  0  0  0  0  0  0  0  0  0
   48.5240   34.9240   40.6260 C   0  0  0  0  0  0  0  0  0  0  0  0
   47.8600   34.3000   39.6260 N   0  0  0  0  0  0  0  0  0  0  0  0
   46.6150   33.8810   39.8420 C   0  0  0  0  0  0  0  0  0  0  0  0
   45.9650   34.0410   41.0070 N   0  0  0  0  0  0  0  0  0  0  0  0
   44.4510   36.0060   44.8890 C   0  0  0  0  0  0  0  0  0  0  0  0
   45.0600   35.9170   43.6320 C   0  0  0  0  0  0  0  0  0  0  0  0
   45.9060   34.8520   43.3330 C   0  0  0  0  0  0  0  0  0  0  0  0
   46.0890   33.9550   44.2900 N   0  0  0  0  0  0  0  0  0  0  0  0
   45.5040   34.0310   45.5120 C   0  0  0  0  0  0  0  0  0  0  0  0
   44.6890   35.0550   45.8050 N   0  0  0  0  0  0  0  0  0  0  0  0
   42.9400   31.5180   37.4100 C   0  0  0  0  0  0  0  0  0  0  0  0
   41.9560   31.5960   38.5550 C   0  0  0  0  0  0  0  0  0  0  0  0
   40.5890   32.0630   38.0450 C   0  0  1  0  0  0  0  0  0  0  0  0
   39.4360   31.8610   39.0320 C   0  0  0  0  0  0  0  0  0  0  0  0
   39.9290   33.2190   38.6740 C   0  0  2  0  0  0  0  0  0  0  0  0
   39.1060   34.1050   37.7710 C   0  0  0  0  0  0  0  0  0  0  0  0
   37.8930   33.3800   37.2270 C   0  0  0  0  0  0  0  0  0  0  0  0
   47.2336   33.2242   37.2022 H   0  0  0  0  0  0  0  0  0  0  0  0
   45.2983   31.9367   35.8039 H   0  0  0  0  0  0  0  0  0  0  0  0
   48.3817   35.5944   42.6447 H   0  0  0  0  0  0  0  0  0  0  0  0
   49.5539   35.2863   40.4919 H   0  0  0  0  0  0  0  0  0  0  0  0
   43.7833   36.8480   45.1238 H   0  0  0  0  0  0  0  0  0  0  0  0
   44.8693   36.6928   42.8758 H   0  0  0  0  0  0  0  0  0  0  0  0
   45.6985   33.2516   46.2634 H   0  0  0  0  0  0  0  0  0  0  0  0
   42.5112   32.0221   36.5313 H   0  0  0  0  0  0  0  0  0  0  0  0
   43.1369   30.4591   37.1866 H   0  0  0  0  0  0  0  0  0  0  0  0
   41.8526   30.6017   39.0139 H   0  0  0  0  0  0  0  0  0  0  0  0
   42.3270   32.3157   39.2995 H   0  0  0  0  0  0  0  0  0  0  0  0
   40.8187   31.8040   37.0009 H   0  0  0  0  0  0  0  0  0  0  0  0
   38.4546   31.5154   38.6751 H   0  0  0  0  0  0  0  0  0  0  0  0
   39.2878   31.2978   39.9652 H   0  0  0  0  0  0  0  0  0  0  0  0
   40.2594   34.0758   39.2797 H   0  0  0  0  0  0  0  0  0  0  0  0
   38.7698   34.9824   38.3429 H   0  0  0  0  0  0  0  0  0  0  0  0
   39.7352   34.4056   36.9203 H   0  0  0  0  0  0  0  0  0  0  0  0
   37.2795   33.0133   38.0631 H   0  0  0  0  0  0  0  0  0  0  0  0
   37.2984   34.0710   36.6113 H   0  0  0  0  0  0  0  0  0  0  0  0
   38.2200   32.5291   36.6113 H   0  0  0  0  0  0  0  0  0  0  0  0
  1  5  1  0
  1 10  1  0
  2  1  2  0
  3  2  1  0
  3  4  2  0
  4  5  1  0
  6 14  1  0
  7  6  2  0
  8  7  1  0
  9 10  1  0
  9  8  2  0
 10 11  2  0
 11  6  1  0
 12 17  2  0
 13 12  1  0
 14 13  2  0
 14 15  1  0
 15 16  2  0
 16 17  1  0
 18  4  1  0
 18 19  1  0
 20 19  1  0
 20 22  1  0
 20 21  1  0
 22 21  1  0
 23 22  1  0
 24 23  1  0
  2 25  1  0
  3 26  1  0
  7 27  1  0
  8 28  1  0
 12 29  1  0
 13 30  1  0
 16 31  1  0
 18 32  1  0
 18 33  1  0
 19 34  1  0
 19 35  1  0
 20 36  1  6
 21 37  1  0
 21 38  1  0
 22 39  1  1
 23 40  1  0
 23 41  1  0
 24 42  1  0
 24 43  1  0
 24 44  1  0
M  ISO  8  25  14  26  14  27  14  28  14  29  14  30  14  31  14  32   8
M  ISO  8  33   8  34   8  35   8  36  13  37  13  38  13  39  13  40   8
M  ISO  4  41   8  42   8  43   8  44   8
M  END
>  <minimizedAffinity>  (1) 
-5.68156004

>  <minimizedRMSD>  (1) 
1.25074863

$$$$
