
     RDKit          3D

 45 48  0  0  1  0  0  0  0  0999 V2000
   46.0110   33.2890   38.8410 C   0  0  0  0  0  0  0  0  0  0  0  0
   46.4650   33.1680   37.5260 C   0  0  0  0  0  0  0  0  0  0  0  0
   45.5350   32.4700   36.7730 C   0  0  0  0  0  0  0  0  0  0  0  0
   44.5360   32.1980   37.7060 C   0  0  0  0  0  0  0  0  0  0  0  0
   44.8540   32.6870   38.8740 O   0  0  0  0  0  0  0  0  0  0  0  0
   46.6910   34.7180   42.0840 C   0  0  0  0  0  0  0  0  0  0  0  0
   47.9510   35.1930   41.8820 C   0  0  0  0  0  0  0  0  0  0  0  0
   48.6550   35.0790   40.6870 C   0  0  0  0  0  0  0  0  0  0  0  0
   48.0360   34.4540   39.6630 N   0  0  0  0  0  0  0  0  0  0  0  0
   46.7970   33.9800   39.8430 C   0  0  0  0  0  0  0  0  0  0  0  0
   46.1120   34.0890   41.0030 N   0  0  0  0  0  0  0  0  0  0  0  0
   44.4500   35.9620   44.8700 C   0  0  0  0  0  0  0  0  0  0  0  0
   45.0930   35.9110   43.6150 C   0  0  0  0  0  0  0  0  0  0  0  0
   45.9840   34.8520   43.3430 C   0  0  0  0  0  0  0  0  0  0  0  0
   46.1780   33.9430   44.2920 N   0  0  0  0  0  0  0  0  0  0  0  0
   45.5460   34.0110   45.4960 C   0  0  0  0  0  0  0  0  0  0  0  0
   44.6900   35.0100   45.7830 N   0  0  0  0  0  0  0  0  0  0  0  0
   43.3210   31.4460   37.3060 C   0  0  0  0  0  0  0  0  0  0  0  0
   42.9220   30.4550   38.3850 C   0  0  0  0  0  0  0  0  0  0  0  0
   41.5200   30.7830   38.9130 C   0  0  1  0  0  0  0  0  0  0  0  0
   41.5190   31.7160   40.1340 C   0  0  0  0  0  0  0  0  0  0  0  0
   41.0050   32.1560   38.8040 C   0  0  2  0  0  0  0  0  0  0  0  0
   39.5630   32.2760   38.6130 N   0  0  0  0  0  0  0  0  0  0  0  0
   39.0540   33.3650   37.8270 C   0  0  0  0  0  0  0  0  0  0  0  0
   39.7810   34.4450   37.6930 N   0  0  0  0  0  0  0  0  0  0  0  0
   37.7890   33.4200   37.1360 N   0  0  0  0  0  0  0  0  0  0  0  0
   40.7240   34.5220   38.1520 H   0  0  0  0  0  0  0  0  0  0  0  0
   47.4170   33.5666   37.1456 H   0  0  0  0  0  0  0  0  0  0  0  0
   45.5749   32.1989   35.7077 H   0  0  0  0  0  0  0  0  0  0  0  0
   48.4468   35.7021   42.7216 H   0  0  0  0  0  0  0  0  0  0  0  0
   49.6733   35.4814   40.5812 H   0  0  0  0  0  0  0  0  0  0  0  0
   43.7529   36.7816   45.0989 H   0  0  0  0  0  0  0  0  0  0  0  0
   44.9019   36.6868   42.8589 H   0  0  0  0  0  0  0  0  0  0  0  0
   45.7387   33.2336   46.2500 H   0  0  0  0  0  0  0  0  0  0  0  0
   42.4953   32.1544   37.1436 H   0  0  0  0  0  0  0  0  0  0  0  0
   43.5373   30.8922   36.3805 H   0  0  0  0  0  0  0  0  0  0  0  0
   42.9230   29.4389   37.9635 H   0  0  0  0  0  0  0  0  0  0  0  0
   43.6418   30.5182   39.2144 H   0  0  0  0  0  0  0  0  0  0  0  0
   41.1041   29.8033   38.6353 H   0  0  0  0  0  0  0  0  0  0  0  0
   40.8232   31.5391   40.9674 H   0  0  0  0  0  0  0  0  0  0  0  0
   42.2712   32.0805   40.8491 H   0  0  0  0  0  0  0  0  0  0  0  0
   41.2278   33.0269   38.1700 H   0  0  0  0  0  0  0  0  0  0  0  0
   38.9205   31.5905   39.0352 H   0  0  0  0  0  0  0  0  0  0  0  0
   37.5311   34.2609   36.6001 H   0  0  0  0  0  0  0  0  0  0  0  0
   37.1437   32.6184   37.1785 H   0  0  0  0  0  0  0  0  0  0  0  0
  1  5  1  0
  1 10  1  0
  2  1  2  0
  3  2  1  0
  3  4  2  0
  4  5  1  0
  6 14  1  0
  7  6  2  0
  8  7  1  0
  9 10  1  0
  9  8  2  0
 10 11  2  0
 11  6  1  0
 12 17  2  0
 13 12  1  0
 14 13  2  0
 14 15  1  0
 15 16  2  0
 16 17  1  0
 18  4  1  0
 18 19  1  0
 19 20  1  0
 20 21  1  0
 22 20  1  0
 22 21  1  0
 23 22  1  0
 24 23  1  0
 25 24  2  0
 25 27  1  0
 26 24  1  0
  2 28  1  0
  3 29  1  0
  7 30  1  0
  8 31  1  0
 12 32  1  0
 13 33  1  0
 16 34  1  0
 18 35  1  0
 18 36  1  0
 19 37  1  0
 19 38  1  0
 20 39  1  1
 21 40  1  0
 21 41  1  0
 22 42  1  6
 23 43  1  0
 26 44  1  0
 26 45  1  0
M  ISO  8  28  14  29  14  30  14  31  14  32  14  33  14  34  14  35   8
M  ISO  7  36   8  37   8  38   8  39  13  40  13  41  13  42  13
M  END
>  <minimizedAffinity>  (1) 
-5.43394947

>  <minimizedRMSD>  (1) 
2.07435918

$$$$
