
     RDKit          3D

 54 58  0  0  1  0  0  0  0  0999 V2000
   44.9030   32.6690   38.6050 C   0  0  0  0  0  0  0  0  0  0  0  0
   45.2030   32.2170   37.3320 C   0  0  0  0  0  0  0  0  0  0  0  0
   44.0900   31.5880   36.7840 C   0  0  0  0  0  0  0  0  0  0  0  0
   43.1510   31.7090   37.8040 C   0  0  0  0  0  0  0  0  0  0  0  0
   43.6580   32.3320   38.8290 O   0  0  0  0  0  0  0  0  0  0  0  0
   46.2040   34.3510   41.5160 C   0  0  0  0  0  0  0  0  0  0  0  0
   47.4630   34.6410   41.1000 C   0  0  0  0  0  0  0  0  0  0  0  0
   47.9590   34.3110   39.8580 C   0  0  0  0  0  0  0  0  0  0  0  0
   47.1420   33.6600   39.0110 N   0  0  0  0  0  0  0  0  0  0  0  0
   45.8930   33.3650   39.4100 C   0  0  0  0  0  0  0  0  0  0  0  0
   45.4000   33.6850   40.6240 N   0  0  0  0  0  0  0  0  0  0  0  0
   44.6230   36.1940   44.4340 C   0  0  0  0  0  0  0  0  0  0  0  0
   45.0800   35.9270   43.1410 C   0  0  0  0  0  0  0  0  0  0  0  0
   45.6950   34.7120   42.8440 C   0  0  0  0  0  0  0  0  0  0  0  0
   45.8190   33.8420   43.8350 N   0  0  0  0  0  0  0  0  0  0  0  0
   45.3760   34.0940   45.0950 C   0  0  0  0  0  0  0  0  0  0  0  0
   44.7810   35.2650   45.3900 N   0  0  0  0  0  0  0  0  0  0  0  0
   41.7710   31.1530   37.6340 C   0  0  0  0  0  0  0  0  0  0  0  0
   40.7400   32.1470   38.1340 C   0  0  0  0  0  0  0  0  0  0  0  0
   39.3500   31.7890   37.5880 C   0  0  1  0  0  0  0  0  0  0  0  0
   38.1990   32.0820   38.5600 C   0  0  0  0  0  0  0  0  0  0  0  0
   38.3930   32.8620   37.3090 C   0  0  2  0  0  0  0  0  0  0  0  0
   37.3330   32.7570   36.2630 C   0  0  0  0  0  0  0  0  0  0  0  0
   36.6130   34.0790   36.0310 C   0  0  0  0  0  0  0  0  0  0  0  0
   35.3110   33.7180   35.3350 C   0  0  0  0  0  0  0  0  0  0  0  0
   35.5490   32.9950   34.0430 C   0  0  0  0  0  0  0  0  0  0  0  0
   36.5310   31.8760   34.1430 C   0  0  0  0  0  0  0  0  0  0  0  0
   37.7900   32.2510   34.9340 C   0  0  0  0  0  0  0  0  0  0  0  0
   46.1742   32.3369   36.8297 H   0  0  0  0  0  0  0  0  0  0  0  0
   43.9801   31.1156   35.7967 H   0  0  0  0  0  0  0  0  0  0  0  0
   48.1278   35.1719   41.7972 H   0  0  0  0  0  0  0  0  0  0  0  0
   48.9880   34.5710   39.5689 H   0  0  0  0  0  0  0  0  0  0  0  0
   44.1393   37.1543   44.6659 H   0  0  0  0  0  0  0  0  0  0  0  0
   44.9534   36.6818   42.3509 H   0  0  0  0  0  0  0  0  0  0  0  0
   45.5047   33.3347   45.8804 H   0  0  0  0  0  0  0  0  0  0  0  0
   41.5908   30.9477   36.5685 H   0  0  0  0  0  0  0  0  0  0  0  0
   41.6846   30.2234   38.2157 H   0  0  0  0  0  0  0  0  0  0  0  0
   40.7157   32.1233   39.2335 H   0  0  0  0  0  0  0  0  0  0  0  0
   41.0139   33.1540   37.7861 H   0  0  0  0  0  0  0  0  0  0  0  0
   39.7176   30.9357   36.9991 H   0  0  0  0  0  0  0  0  0  0  0  0
   37.3572   31.3799   38.6521 H   0  0  0  0  0  0  0  0  0  0  0  0
   38.1103   32.3166   39.6310 H   0  0  0  0  0  0  0  0  0  0  0  0
   38.5420   33.9195   37.0452 H   0  0  0  0  0  0  0  0  0  0  0  0
   36.6525   32.0060   36.6907 H   0  0  0  0  0  0  0  0  0  0  0  0
   36.4103   34.5793   36.9894 H   0  0  0  0  0  0  0  0  0  0  0  0
   37.2183   34.7721   35.4284 H   0  0  0  0  0  0  0  0  0  0  0  0
   34.7195   33.0719   36.0003 H   0  0  0  0  0  0  0  0  0  0  0  0
   34.7750   34.6517   35.1093 H   0  0  0  0  0  0  0  0  0  0  0  0
   35.9250   33.7197   33.3058 H   0  0  0  0  0  0  0  0  0  0  0  0
   34.5881   32.5483   33.7478 H   0  0  0  0  0  0  0  0  0  0  0  0
   36.0436   31.0258   34.6427 H   0  0  0  0  0  0  0  0  0  0  0  0
   36.8483   31.6250   33.1201 H   0  0  0  0  0  0  0  0  0  0  0  0
   38.4311   31.3669   35.0659 H   0  0  0  0  0  0  0  0  0  0  0  0
   38.3760   33.0150   34.4022 H   0  0  0  0  0  0  0  0  0  0  0  0
  1  5  1  0
  1 10  1  0
  2  1  2  0
  3  2  1  0
  3  4  2  0
  4  5  1  0
  6 14  1  0
  7  6  2  0
  8  7  1  0
  9 10  1  0
  9  8  2  0
 10 11  2  0
 11  6  1  0
 12 17  2  0
 13 12  1  0
 14 13  2  0
 14 15  1  0
 15 16  2  0
 16 17  1  0
 18  4  1  0
 18 19  1  0
 20 19  1  0
 20 21  1  0
 22 20  1  0
 22 21  1  0
 23 22  1  0
 24 23  1  0
 25 24  1  0
 26 27  1  0
 26 25  1  0
 27 28  1  0
 28 23  1  0
  2 29  1  0
  3 30  1  0
  7 31  1  0
  8 32  1  0
 12 33  1  0
 13 34  1  0
 16 35  1  0
 18 36  1  0
 18 37  1  0
 19 38  1  0
 19 39  1  0
 20 40  1  6
 21 41  1  0
 21 42  1  0
 22 43  1  1
 23 44  1  0
 24 45  1  0
 24 46  1  0
 25 47  1  0
 25 48  1  0
 26 49  1  0
 26 50  1  0
 27 51  1  0
 27 52  1  0
 28 53  1  0
 28 54  1  0
M  ISO  8  29  14  30  14  31  14  32  14  33  14  34  14  35  14  36   8
M  ISO  8  37   8  38   8  39   8  40  13  41  13  42  13  43  13  44  13
M  ISO  8  45  13  46  13  47  13  48  13  49  13  50  13  51  13  52  13
M  ISO  2  53  13  54  13
M  END
>  <minimizedAffinity>  (1) 
-4.81937933

>  <minimizedRMSD>  (1) 
0.746937811

$$$$
