
     RDKit          3D

 20 20  0  0  0  0  0  0  0  0999 V2000
   46.7960   34.6290   41.9810 C   0  0  0  0  0  0  0  0  0  0  0  0
   46.0340   34.8380   43.2350 C   0  0  0  0  0  0  0  0  0  0  0  0
   46.1640   33.8910   44.2600 C   0  0  0  0  0  0  0  0  0  0  0  0
   45.4430   34.0930   45.4390 C   0  0  0  0  0  0  0  0  0  0  0  0
   44.6490   35.2040   45.5270 N   0  0  0  0  0  0  0  0  0  0  0  0
   44.5520   36.0900   44.5170 C   0  0  0  0  0  0  0  0  0  0  0  0
   45.2340   35.9260   43.3660 N   0  0  0  0  0  0  0  0  0  0  0  0
   48.1220   34.1620   42.3600 N   0  0  0  0  0  0  0  0  0  0  0  0
   49.2250   35.0270   42.1100 C   0  0  0  0  0  0  0  0  0  0  0  0
   49.1180   35.8950   41.1420 N   0  0  0  0  0  0  0  0  0  0  0  0
   50.4330   34.9570   42.8960 N   0  0  0  0  0  0  0  0  0  0  0  0
   49.8710   36.5710   40.8830 H   0  0  0  0  0  0  0  0  0  0  0  0
   46.8736   35.5746   41.4243 H   0  0  0  0  0  0  0  0  0  0  0  0
   46.2923   33.8959   41.3338 H   0  0  0  0  0  0  0  0  0  0  0  0
   46.8157   33.0131   44.1393 H   0  0  0  0  0  0  0  0  0  0  0  0
   45.5115   33.3792   46.2732 H   0  0  0  0  0  0  0  0  0  0  0  0
   43.9005   36.9685   44.6344 H   0  0  0  0  0  0  0  0  0  0  0  0
   48.2574   33.2378   42.7940 H   0  0  0  0  0  0  0  0  0  0  0  0
   51.2164   35.5946   42.6942 H   0  0  0  0  0  0  0  0  0  0  0  0
   50.5119   34.2694   43.6588 H   0  0  0  0  0  0  0  0  0  0  0  0
  1  8  1  0
  1  2  1  0
  2  7  2  0
  2  3  1  0
  3  4  2  0
  4  5  1  0
  6  5  2  0
  7  6  1  0
  9  8  1  0
  9 11  1  0
 10  9  2  0
 12 10  1  0
  1 13  1  0
  1 14  1  0
  3 15  1  0
  4 16  1  0
  6 17  1  0
  8 18  1  0
 11 19  1  0
 11 20  1  0
M  ISO  5  13   8  14   8  15  14  16  14  17  14
M  END
>  <minimizedAffinity>  (1) 
-4.70430994

>  <minimizedRMSD>  (1) 
1.43522406

$$$$
