
     RDKit          3D

 36 38  0  0  1  0  0  0  0  0999 V2000
   45.6110   34.8970   41.9670 C   0  0  2  0  0  0  0  0  0  0  0  0
   46.4310   33.6860   42.0150 C   0  0  2  0  0  0  0  0  0  0  0  0
   46.3540   33.1340   43.4370 C   0  0  0  0  0  0  0  0  0  0  0  0
   45.3340   33.9540   44.1910 C   0  0  0  0  0  0  0  0  0  0  0  0
   45.3610   35.2490   43.4640 C   0  0  0  0  0  0  0  0  0  0  0  0
   44.2700   34.7900   41.3700 C   0  0  0  0  0  0  0  0  0  0  0  0
   44.0680   33.8980   40.2990 C   0  0  0  0  0  0  0  0  0  0  0  0
   42.7970   33.7680   39.7400 C   0  0  0  0  0  0  0  0  0  0  0  0
   41.8080   34.5460   40.2940 N   0  0  0  0  0  0  0  0  0  0  0  0
   42.0270   35.3900   41.3140 C   0  0  0  0  0  0  0  0  0  0  0  0
   43.2560   35.5140   41.8530 N   0  0  0  0  0  0  0  0  0  0  0  0
   47.9120   33.9690   41.6670 C   0  0  0  0  0  0  0  0  0  0  0  0
   48.7200   33.8900   42.9450 C   0  0  0  0  0  0  0  0  0  0  0  0
   49.9110   34.7590   42.6740 C   0  0  0  0  0  0  0  0  0  0  0  0
   49.4420   35.8170   41.7180 C   0  0  0  0  0  0  0  0  0  0  0  0
   48.0760   35.3890   41.2310 C   0  0  0  0  0  0  0  0  0  0  0  0
   46.1567   35.6169   41.3393 H   0  0  0  0  0  0  0  0  0  0  0  0
   46.0491   32.9701   41.2723 H   0  0  0  0  0  0  0  0  0  0  0  0
   46.0437   32.0789   43.4134 H   0  0  0  0  0  0  0  0  0  0  0  0
   47.3365   33.1934   43.9280 H   0  0  0  0  0  0  0  0  0  0  0  0
   44.3372   33.4913   44.1419 H   0  0  0  0  0  0  0  0  0  0  0  0
   45.5549   34.0492   45.2644 H   0  0  0  0  0  0  0  0  0  0  0  0
   46.1721   35.8855   43.8474 H   0  0  0  0  0  0  0  0  0  0  0  0
   44.4204   35.8041   43.5954 H   0  0  0  0  0  0  0  0  0  0  0  0
   44.9082   33.3070   39.9056 H   0  0  0  0  0  0  0  0  0  0  0  0
   42.5971   33.0821   38.9036 H   0  0  0  0  0  0  0  0  0  0  0  0
   41.1945   35.9871   41.7145 H   0  0  0  0  0  0  0  0  0  0  0  0
   48.2252   33.2550   40.8910 H   0  0  0  0  0  0  0  0  0  0  0  0
   48.1414   34.2742   43.7980 H   0  0  0  0  0  0  0  0  0  0  0  0
   48.9987   32.8587   43.2072 H   0  0  0  0  0  0  0  0  0  0  0  0
   50.2691   35.2185   43.6071 H   0  0  0  0  0  0  0  0  0  0  0  0
   50.7462   34.1787   42.2548 H   0  0  0  0  0  0  0  0  0  0  0  0
   49.3745   36.7879   42.2306 H   0  0  0  0  0  0  0  0  0  0  0  0
   50.1435   35.9302   40.8783 H   0  0  0  0  0  0  0  0  0  0  0  0
   48.0206   35.4615   40.1348 H   0  0  0  0  0  0  0  0  0  0  0  0
   47.2820   36.0312   41.6398 H   0  0  0  0  0  0  0  0  0  0  0  0
  1  2  1  0
  1  5  1  0
  2  3  1  0
  3  4  1  0
  5  4  1  0
  6 11  1  0
  6  1  1  0
  7  6  2  0
  8  9  2  0
  8  7  1  0
  9 10  1  0
 10 11  2  0
 12  2  1  0
 12 13  1  0
 14 13  1  0
 15 14  1  0
 16 12  1  0
 16 15  1  0
  1 17  1  6
  2 18  1  6
  3 19  1  0
  3 20  1  0
  4 21  1  0
  4 22  1  0
  5 23  1  0
  5 24  1  0
  7 25  1  0
  8 26  1  0
 10 27  1  0
 12 28  1  0
 13 29  1  0
 13 30  1  0
 14 31  1  0
 14 32  1  0
 15 33  1  0
 15 34  1  0
 16 35  1  0
 16 36  1  0
M  ISO  8  17  13  18  13  19  13  20  13  21  13  22  13  23  13  24  13
M  ISO  8  25  14  26  14  27  14  28  13  29  13  30  13  31  13  32  13
M  ISO  4  33  13  34  13  35  13  36  13
M  END
>  <minimizedAffinity>  (1) 
-4.96165085

>  <minimizedRMSD>  (1) 
3.59605312

$$$$
