
     RDKit          3D

 21 22  0  0  0  0  0  0  0  0999 V2000
   43.8840   34.0950   40.5620 C   0  0  0  0  0  0  0  0  0  0  0  0
   42.4810   34.5270   40.3650 C   0  0  0  0  0  0  0  0  0  0  0  0
   41.5110   34.1330   41.2880 C   0  0  0  0  0  0  0  0  0  0  0  0
   40.1950   34.5480   41.0880 C   0  0  0  0  0  0  0  0  0  0  0  0
   39.9120   35.3180   40.0030 N   0  0  0  0  0  0  0  0  0  0  0  0
   40.8730   35.6870   39.1220 C   0  0  0  0  0  0  0  0  0  0  0  0
   42.1500   35.2990   39.2930 N   0  0  0  0  0  0  0  0  0  0  0  0
   44.3310   34.4970   41.9240 C   0  0  0  0  0  0  0  0  0  0  0  0
   44.7280   33.5020   42.7960 C   0  0  0  0  0  0  0  0  0  0  0  0
   45.1600   33.7910   44.0870 C   0  0  0  0  0  0  0  0  0  0  0  0
   45.1810   35.1000   44.4700 N   0  0  0  0  0  0  0  0  0  0  0  0
   44.7890   36.0790   43.6040 C   0  0  0  0  0  0  0  0  0  0  0  0
   44.3740   35.7750   42.3590 N   0  0  0  0  0  0  0  0  0  0  0  0
   44.5260   34.5732   39.8076 H   0  0  0  0  0  0  0  0  0  0  0  0
   43.9535   33.0023   40.4567 H   0  0  0  0  0  0  0  0  0  0  0  0
   41.7787   33.5092   42.1536 H   0  0  0  0  0  0  0  0  0  0  0  0
   39.4019   34.2586   41.7932 H   0  0  0  0  0  0  0  0  0  0  0  0
   40.6060   36.3113   38.2566 H   0  0  0  0  0  0  0  0  0  0  0  0
   44.7020   32.4544   42.4615 H   0  0  0  0  0  0  0  0  0  0  0  0
   45.4736   32.9917   44.7746 H   0  0  0  0  0  0  0  0  0  0  0  0
   44.8122   37.1303   43.9268 H   0  0  0  0  0  0  0  0  0  0  0  0
  1  8  1  0
  2  1  1  0
  2  3  2  0
  4  3  1  0
  5  4  2  0
  6  7  2  0
  6  5  1  0
  7  2  1  0
  8 13  1  0
  8  9  2  0
  9 10  1  0
 10 11  2  0
 12 11  1  0
 13 12  2  0
  1 14  1  0
  1 15  1  0
  3 16  1  0
  4 17  1  0
  6 18  1  0
  9 19  1  0
 10 20  1  0
 12 21  1  0
M  ISO  8  14   8  15   8  16  14  17  14  18  14  19  14  20  14  21  14
M  END
>  <minimizedAffinity>  (1) 
-3.70943689

>  <minimizedRMSD>  (1) 
5.52130604

$$$$
