
     RDKit          3D

 26 27  0  0  0  0  0  0  0  0999 V2000
   44.6720   35.3790   43.0010 N   0  0  0  0  0  0  0  0  0  0  0  0
   44.2020   35.6220   44.2240 C   0  0  0  0  0  0  0  0  0  0  0  0
   44.8040   34.9790   45.3240 C   0  0  0  0  0  0  0  0  0  0  0  0
   45.8540   34.1260   45.0960 C   0  0  0  0  0  0  0  0  0  0  0  0
   46.4380   33.5180   46.0430 O   0  0  0  0  0  0  0  0  0  0  0  0
   46.3230   33.8870   43.8530 N   0  0  0  0  0  0  0  0  0  0  0  0
   45.6970   34.5350   42.8580 C   0  0  0  0  0  0  0  0  0  0  0  0
   46.1730   34.2800   41.6940 O   0  0  0  0  0  0  0  0  0  0  0  0
   47.4330   32.9820   43.6220 C   0  0  0  0  0  0  0  0  0  0  0  0
   48.5590   33.7270   43.4340 F   0  0  0  0  0  0  0  0  0  0  0  0
   47.2070   32.2460   42.4660 F   0  0  0  0  0  0  0  0  0  0  0  0
   47.6170   32.1400   44.6820 F   0  0  0  0  0  0  0  0  0  0  0  0
   44.1250   35.9860   41.7990 C   0  0  0  0  0  0  0  0  0  0  0  0
   42.9010   35.2700   41.3240 C   0  0  0  0  0  0  0  0  0  0  0  0
   43.0330   34.3500   40.2870 C   0  0  0  0  0  0  0  0  0  0  0  0
   41.8960   33.6840   39.8480 C   0  0  0  0  0  0  0  0  0  0  0  0
   40.7150   33.9640   40.4500 N   0  0  0  0  0  0  0  0  0  0  0  0
   40.6150   34.8640   41.4560 C   0  0  0  0  0  0  0  0  0  0  0  0
   41.7010   35.5070   41.8840 N   0  0  0  0  0  0  0  0  0  0  0  0
   43.3587   36.3125   44.3724 H   0  0  0  0  0  0  0  0  0  0  0  0
   44.4389   35.1577   46.3461 H   0  0  0  0  0  0  0  0  0  0  0  0
   43.8641   37.0325   42.0154 H   0  0  0  0  0  0  0  0  0  0  0  0
   44.8864   35.9244   41.0075 H   0  0  0  0  0  0  0  0  0  0  0  0
   44.0132   34.1556   39.8271 H   0  0  0  0  0  0  0  0  0  0  0  0
   41.9529   32.9481   39.0324 H   0  0  0  0  0  0  0  0  0  0  0  0
   39.6380   35.0645   41.9200 H   0  0  0  0  0  0  0  0  0  0  0  0
  1  2  1  0
  2  3  2  0
  4  3  1  0
  4  5  2  0
  6  4  1  0
  7  1  1  0
  7  6  1  0
  8  7  2  0
  9  6  1  0
  9 12  1  0
 10  9  1  0
 11  9  1  0
 13  1  1  0
 14 13  1  0
 14 19  1  0
 15 14  2  0
 16 15  1  0
 16 17  2  0
 17 18  1  0
 18 19  2  0
  2 20  1  0
  3 21  1  0
 13 22  1  0
 13 23  1  0
 15 24  1  0
 16 25  1  0
 18 26  1  0
M  ISO  7  20  14  21  14  22   8  23   8  24  14  25  14  26  14
M  END
>  <minimizedAffinity>  (1) 
-4.69760084

>  <minimizedRMSD>  (1) 
4.6816268

$$$$
