
     RDKit          3D

 26 27  0  0  1  0  0  0  0  0999 V2000
   47.5980   34.4810   40.9280 C   0  0  2  0  0  0  0  0  0  0  0  0
   48.9390   34.1470   41.4000 C   0  0  2  0  0  0  0  0  0  0  0  0
   48.8050   33.0190   42.4090 C   0  0  0  0  0  0  0  0  0  0  0  0
   47.3600   32.5850   42.4170 C   0  0  0  0  0  0  0  0  0  0  0  0
   46.6400   33.7930   41.9400 C   0  0  0  0  0  0  0  0  0  0  0  0
   47.1990   33.9670   39.6070 C   0  0  0  0  0  0  0  0  0  0  0  0
   48.0820   34.0970   38.5180 C   0  0  0  0  0  0  0  0  0  0  0  0
   47.7170   33.5910   37.2710 C   0  0  0  0  0  0  0  0  0  0  0  0
   46.4900   32.9860   37.1890 N   0  0  0  0  0  0  0  0  0  0  0  0
   45.6580   32.8750   38.2570 C   0  0  0  0  0  0  0  0  0  0  0  0
   46.0140   33.3640   39.4560 N   0  0  0  0  0  0  0  0  0  0  0  0
   49.4890   35.3880   42.0760 C   0  0  0  0  0  0  0  0  0  0  0  0
   49.3370   36.5700   41.6350 O   0  0  0  0  0  0  0  0  0  0  0  0
   50.1970   35.1620   43.2510 O   0  0  0  0  0  0  0  0  0  0  0  0
   47.5648   35.5774   40.8449 H   0  0  0  0  0  0  0  0  0  0  0  0
   49.6063   33.8312   40.5846 H   0  0  0  0  0  0  0  0  0  0  0  0
   49.4485   32.1759   42.1171 H   0  0  0  0  0  0  0  0  0  0  0  0
   49.1131   33.3564   43.4096 H   0  0  0  0  0  0  0  0  0  0  0  0
   47.1995   31.7358   41.7365 H   0  0  0  0  0  0  0  0  0  0  0  0
   47.0184   32.2412   43.4045 H   0  0  0  0  0  0  0  0  0  0  0  0
   46.4225   34.4672   42.7815 H   0  0  0  0  0  0  0  0  0  0  0  0
   45.6766   33.5348   41.4761 H   0  0  0  0  0  0  0  0  0  0  0  0
   49.0540   34.5948   38.6502 H   0  0  0  0  0  0  0  0  0  0  0  0
   48.3803   33.6732   36.3973 H   0  0  0  0  0  0  0  0  0  0  0  0
   44.6830   32.3797   38.1386 H   0  0  0  0  0  0  0  0  0  0  0  0
   50.5862   35.9241   43.7488 H   0  0  0  0  0  0  0  0  0  0  0  0
  1  2  1  0
  1  5  1  0
  2 12  1  0
  2  3  1  0
  3  4  1  0
  5  4  1  0
  6  1  1  0
  7  6  2  0
  8  7  1  0
  9  8  2  0
  9 10  1  0
 10 11  2  0
 11  6  1  0
 12 14  1  0
 13 12  2  0
  1 15  1  6
  2 16  1  6
  3 17  1  0
  3 18  1  0
  4 19  1  0
  4 20  1  0
  5 21  1  0
  5 22  1  0
  7 23  1  0
  8 24  1  0
 10 25  1  0
 14 26  1  0
M  ISO  8  15  13  16  13  17  13  18  13  19  13  20  13  21  13  22  13
M  ISO  4  23  14  24  14  25  14  26   3
M  END
>  <minimizedAffinity>  (1) 
-4.47411251

>  <minimizedRMSD>  (1) 
3.5400269

$$$$
