
     RDKit          3D

 32 33  0  0  0  0  0  0  0  0999 V2000
   45.5330   32.8620   43.9210 N   0  0  0  0  0  0  0  0  0  0  0  0
   45.7030   31.6290   43.4600 C   0  0  0  0  0  0  0  0  0  0  0  0
   46.0130   30.6100   44.3750 C   0  0  0  0  0  0  0  0  0  0  0  0
   46.1320   30.9080   45.7120 C   0  0  0  0  0  0  0  0  0  0  0  0
   46.4090   30.0070   46.5440 O   0  0  0  0  0  0  0  0  0  0  0  0
   45.9530   32.1720   46.1480 N   0  0  0  0  0  0  0  0  0  0  0  0
   45.6610   33.0980   45.2360 C   0  0  0  0  0  0  0  0  0  0  0  0
   45.5020   34.2750   45.7000 O   0  0  0  0  0  0  0  0  0  0  0  0
   45.2080   33.9990   43.0630 C   0  0  0  0  0  0  0  0  0  0  0  0
   46.3050   34.3020   42.1060 C   0  0  0  0  0  0  0  0  0  0  0  0
   47.3860   35.0430   42.5620 C   0  0  0  0  0  0  0  0  0  0  0  0
   48.4100   35.3220   41.6590 C   0  0  0  0  0  0  0  0  0  0  0  0
   48.3080   34.8600   40.3830 N   0  0  0  0  0  0  0  0  0  0  0  0
   47.2360   34.1390   39.9780 C   0  0  0  0  0  0  0  0  0  0  0  0
   46.2470   33.8630   40.8260 N   0  0  0  0  0  0  0  0  0  0  0  0
   46.0770   32.5090   47.5680 C   0  0  0  0  0  0  0  0  0  0  0  0
   47.4230   32.2530   48.1410 C   0  0  0  0  0  0  0  0  0  0  0  0
   45.0670   31.7370   48.4170 C   0  0  0  0  0  0  0  0  0  0  0  0
   45.6034   31.4106   42.3865 H   0  0  0  0  0  0  0  0  0  0  0  0
   46.1600   29.5780   44.0238 H   0  0  0  0  0  0  0  0  0  0  0  0
   44.2948   33.7668   42.4954 H   0  0  0  0  0  0  0  0  0  0  0  0
   45.0622   34.8802   43.7050 H   0  0  0  0  0  0  0  0  0  0  0  0
   47.4330   35.3984   43.6019 H   0  0  0  0  0  0  0  0  0  0  0  0
   49.2873   35.9067   41.9728 H   0  0  0  0  0  0  0  0  0  0  0  0
   47.1815   33.7783   38.9402 H   0  0  0  0  0  0  0  0  0  0  0  0
   45.8850   33.5916   47.6017 H   0  0  0  0  0  0  0  0  0  0  0  0
   47.3622   32.2646   49.2393 H   0  0  0  0  0  0  0  0  0  0  0  0
   47.7841   31.2701   47.8041 H   0  0  0  0  0  0  0  0  0  0  0  0
   48.1197   33.0347   47.8041 H   0  0  0  0  0  0  0  0  0  0  0  0
   45.2824   31.9016   49.4831 H   0  0  0  0  0  0  0  0  0  0  0  0
   44.0505   32.0905   48.1894 H   0  0  0  0  0  0  0  0  0  0  0  0
   45.1414   30.6634   48.1894 H   0  0  0  0  0  0  0  0  0  0  0  0
  1  7  1  0
  2  1  1  0
  2  3  2  0
  3  4  1  0
  4  6  1  0
  4  5  2  0
  6 16  1  0
  7  8  2  0
  7  6  1  0
  9  1  1  0
 10 11  2  0
 10  9  1  0
 12 11  1  0
 13 12  2  0
 14 13  1  0
 14 15  2  0
 15 10  1  0
 16 17  1  0
 16 18  1  0
  2 19  1  0
  3 20  1  0
  9 21  1  0
  9 22  1  0
 11 23  1  0
 12 24  1  0
 14 25  1  0
 16 26  1  0
 17 27  1  0
 17 28  1  0
 17 29  1  0
 18 30  1  0
 18 31  1  0
 18 32  1  0
M  ISO  8  19  14  20  14  21   8  22   8  23  14  24  14  25  14  26   8
M  ISO  6  27   8  28   8  29   8  30   8  31   8  32   8
M  END
>  <minimizedAffinity>  (1) 
-4.41785812

>  <minimizedRMSD>  (1) 
1.81863201

$$$$
