
     RDKit          3D

 34 35  0  0  1  0  0  0  0  0999 V2000
   46.1490   32.5270   44.1750 N   0  0  0  0  0  0  0  0  0  0  0  0
   46.6340   31.3860   43.7200 C   0  0  0  0  0  0  0  0  0  0  0  0
   47.1970   30.4740   44.6440 C   0  0  0  0  0  0  0  0  0  0  0  0
   47.2210   30.8010   45.9760 C   0  0  0  0  0  0  0  0  0  0  0  0
   47.7160   30.0020   46.8000 O   0  0  0  0  0  0  0  0  0  0  0  0
   46.7230   31.9640   46.4150 N   0  0  0  0  0  0  0  0  0  0  0  0
   46.2050   32.7830   45.4870 C   0  0  0  0  0  0  0  0  0  0  0  0
   45.7380   33.8880   45.9400 O   0  0  0  0  0  0  0  0  0  0  0  0
   45.5520   33.5300   43.3070 C   0  0  0  0  0  0  0  0  0  0  0  0
   46.5110   34.0150   42.2760 C   0  0  0  0  0  0  0  0  0  0  0  0
   47.5520   34.8450   42.6750 C   0  0  0  0  0  0  0  0  0  0  0  0
   48.4420   35.2910   41.7020 C   0  0  0  0  0  0  0  0  0  0  0  0
   48.2580   34.9010   40.4160 N   0  0  0  0  0  0  0  0  0  0  0  0
   47.2380   34.0950   40.0650 C   0  0  0  0  0  0  0  0  0  0  0  0
   46.3740   33.6570   40.9840 N   0  0  0  0  0  0  0  0  0  0  0  0
   46.7430   32.3230   47.8220 C   0  0  2  0  0  0  0  0  0  0  0  0
   48.0240   32.0480   48.5080 C   0  0  0  0  0  0  0  0  0  0  0  0
   45.6470   31.6200   48.6010 C   0  0  0  0  0  0  0  0  0  0  0  0
   44.3460   32.1930   48.3240 N   0  0  0  0  0  0  0  0  0  0  0  0
   46.6010   31.1497   42.6462 H   0  0  0  0  0  0  0  0  0  0  0  0
   47.6102   29.5149   44.2985 H   0  0  0  0  0  0  0  0  0  0  0  0
   44.6798   33.0893   42.8019 H   0  0  0  0  0  0  0  0  0  0  0  0
   45.2585   34.3880   43.9296 H   0  0  0  0  0  0  0  0  0  0  0  0
   47.6691   35.1406   43.7281 H   0  0  0  0  0  0  0  0  0  0  0  0
   49.2811   35.9492   41.9717 H   0  0  0  0  0  0  0  0  0  0  0  0
   47.1157   33.7953   39.0137 H   0  0  0  0  0  0  0  0  0  0  0  0
   46.5850   33.4116   47.8118 H   0  0  0  0  0  0  0  0  0  0  0  0
   47.8713   32.0808   49.5968 H   0  0  0  0  0  0  0  0  0  0  0  0
   48.3883   31.0512   48.2187 H   0  0  0  0  0  0  0  0  0  0  0  0
   48.7653   32.8075   48.2187 H   0  0  0  0  0  0  0  0  0  0  0  0
   45.6358   30.5563   48.3210 H   0  0  0  0  0  0  0  0  0  0  0  0
   45.8553   31.7409   49.6743 H   0  0  0  0  0  0  0  0  0  0  0  0
   43.8676   32.4037   49.2115 H   0  0  0  0  0  0  0  0  0  0  0  0
   44.4616   33.0611   47.7818 H   0  0  0  0  0  0  0  0  0  0  0  0
  1  7  1  0
  2  1  1  0
  2  3  2  0
  3  4  1  0
  4  6  1  0
  4  5  2  0
  6 16  1  0
  7  8  2  0
  7  6  1  0
  9  1  1  0
 10 11  2  0
 10  9  1  0
 12 11  1  0
 13 12  2  0
 14 13  1  0
 14 15  2  0
 15 10  1  0
 16 17  1  0
 16 18  1  0
 19 18  1  0
  2 20  1  0
  3 21  1  0
  9 22  1  0
  9 23  1  0
 11 24  1  0
 12 25  1  0
 14 26  1  0
 16 27  1  6
 17 28  1  0
 17 29  1  0
 17 30  1  0
 18 31  1  0
 18 32  1  0
 19 33  1  0
 19 34  1  0
M  ISO  8  20  14  21  14  22   8  23   8  24  14  25  14  26  14  27   8
M  ISO  7  28   8  29   8  30   8  31   8  32   8  33   5  34   5
M  END
>  <minimizedAffinity>  (1) 
-4.63107204

>  <minimizedRMSD>  (1) 
0.733213425

$$$$
