
     RDKit          3D

 41 43  0  0  1  0  0  0  0  0999 V2000
   45.3910   32.7690   43.1990 N   0  0  0  0  0  0  0  0  0  0  0  0
   44.3150   32.2080   42.6910 C   0  0  0  0  0  0  0  0  0  0  0  0
   44.0960   30.8340   42.9290 C   0  0  0  0  0  0  0  0  0  0  0  0
   44.9990   30.1220   43.6750 C   0  0  0  0  0  0  0  0  0  0  0  0
   44.8270   28.9080   43.8980 O   0  0  0  0  0  0  0  0  0  0  0  0
   46.0850   30.7200   44.1780 N   0  0  0  0  0  0  0  0  0  0  0  0
   46.2480   32.0270   43.9240 C   0  0  0  0  0  0  0  0  0  0  0  0
   47.2910   32.5650   44.4170 O   0  0  0  0  0  0  0  0  0  0  0  0
   45.7110   34.1820   43.0120 C   0  0  0  0  0  0  0  0  0  0  0  0
   46.6520   34.3960   41.8870 C   0  0  0  0  0  0  0  0  0  0  0  0
   47.7600   35.2060   42.1080 C   0  0  0  0  0  0  0  0  0  0  0  0
   48.6360   35.3990   41.0450 C   0  0  0  0  0  0  0  0  0  0  0  0
   48.3840   34.8010   39.8470 N   0  0  0  0  0  0  0  0  0  0  0  0
   47.2870   34.0200   39.6840 C   0  0  0  0  0  0  0  0  0  0  0  0
   46.4310   33.8140   40.6770 N   0  0  0  0  0  0  0  0  0  0  0  0
   47.0650   29.9910   44.9770 C   0  0  2  0  0  0  0  0  0  0  0  0
   47.8530   28.9940   44.1990 C   0  0  0  0  0  0  0  0  0  0  0  0
   46.4300   29.2650   46.1470 C   0  0  0  0  0  0  0  0  0  0  0  0
   46.2570   30.2620   47.2540 C   0  0  0  0  0  0  0  0  0  0  0  0
   45.0950   30.1470   47.9710 C   0  0  0  0  0  0  0  0  0  0  0  0
   44.8700   31.0440   49.0150 C   0  0  0  0  0  0  0  0  0  0  0  0
   45.8210   32.0200   49.2980 C   0  0  0  0  0  0  0  0  0  0  0  0
   46.9810   32.0970   48.5450 C   0  0  0  0  0  0  0  0  0  0  0  0
   47.1260   31.2100   47.5670 N   0  0  0  0  0  0  0  0  0  0  0  0
   43.6022   32.7962   42.0944 H   0  0  0  0  0  0  0  0  0  0  0  0
   43.2050   30.3370   42.5178 H   0  0  0  0  0  0  0  0  0  0  0  0
   44.7810   34.7322   42.8061 H   0  0  0  0  0  0  0  0  0  0  0  0
   46.1939   34.5447   43.9314 H   0  0  0  0  0  0  0  0  0  0  0  0
   47.9372   35.6764   43.0864 H   0  0  0  0  0  0  0  0  0  0  0  0
   49.5275   36.0310   41.1709 H   0  0  0  0  0  0  0  0  0  0  0  0
   47.1030   33.5473   38.7079 H   0  0  0  0  0  0  0  0  0  0  0  0
   47.7451   30.7766   45.3380 H   0  0  0  0  0  0  0  0  0  0  0  0
   48.3827   28.3238   44.8921 H   0  0  0  0  0  0  0  0  0  0  0  0
   47.1744   28.4042   43.5653 H   0  0  0  0  0  0  0  0  0  0  0  0
   48.5837   29.5180   43.5653 H   0  0  0  0  0  0  0  0  0  0  0  0
   45.4516   28.8586   45.8509 H   0  0  0  0  0  0  0  0  0  0  0  0
   47.0638   28.4277   46.4744 H   0  0  0  0  0  0  0  0  0  0  0  0
   44.3582   29.3668   47.7293 H   0  0  0  0  0  0  0  0  0  0  0  0
   43.9474   30.9805   49.6106 H   0  0  0  0  0  0  0  0  0  0  0  0
   45.6513   32.7307   50.1202 H   0  0  0  0  0  0  0  0  0  0  0  0
   47.7481   32.8589   48.7479 H   0  0  0  0  0  0  0  0  0  0  0  0
  1  7  1  0
  2  3  2  0
  2  1  1  0
  3  4  1  0
  4  5  2  0
  4  6  1  0
  6 16  1  0
  7  6  1  0
  7  8  2  0
  9  1  1  0
 10 11  2  0
 10  9  1  0
 12 11  1  0
 13 12  2  0
 14 13  1  0
 14 15  2  0
 15 10  1  0
 16 18  1  0
 17 16  1  0
 18 19  1  0
 19 24  1  0
 19 20  2  0
 20 21  1  0
 21 22  2  0
 23 22  1  0
 24 23  2  0
  2 25  1  0
  3 26  1  0
  9 27  1  0
  9 28  1  0
 11 29  1  0
 12 30  1  0
 14 31  1  0
 16 32  1  1
 17 33  1  0
 17 34  1  0
 17 35  1  0
 18 36  1  0
 18 37  1  0
 20 38  1  0
 21 39  1  0
 22 40  1  0
 23 41  1  0
M  ISO  8  25  14  26  14  27   8  28   8  29  14  30  14  31  14  32   8
M  ISO  8  33   8  34   8  35   8  36   8  37   8  38  14  39  14  40  14
M  ISO  1  41  14
M  END
>  <minimizedAffinity>  (1) 
-4.62949753

>  <minimizedRMSD>  (1) 
2.61672425

$$$$
