
     RDKit          3D

 37 39  0  0  1  0  0  0  0  0999 V2000
   44.7580   34.5100   42.7750 N   0  0  0  0  0  0  0  0  0  0  0  0
   44.2690   35.6350   42.2660 C   0  0  0  0  0  0  0  0  0  0  0  0
   43.1830   35.5450   41.3720 C   0  0  0  0  0  0  0  0  0  0  0  0
   42.6620   34.3130   41.0510 C   0  0  0  0  0  0  0  0  0  0  0  0
   41.7010   34.2140   40.2610 O   0  0  0  0  0  0  0  0  0  0  0  0
   43.1770   33.1960   41.5810 N   0  0  0  0  0  0  0  0  0  0  0  0
   44.2100   33.3330   42.4270 C   0  0  0  0  0  0  0  0  0  0  0  0
   44.6740   32.2530   42.9120 O   0  0  0  0  0  0  0  0  0  0  0  0
   45.8740   34.4970   43.7050 C   0  0  0  0  0  0  0  0  0  0  0  0
   47.1830   34.4220   43.0100 C   0  0  0  0  0  0  0  0  0  0  0  0
   48.0110   33.3460   43.3030 C   0  0  0  0  0  0  0  0  0  0  0  0
   49.2380   33.2800   42.6480 C   0  0  0  0  0  0  0  0  0  0  0  0
   49.5660   34.2690   41.7580 N   0  0  0  0  0  0  0  0  0  0  0  0
   48.7280   35.2990   41.5040 C   0  0  0  0  0  0  0  0  0  0  0  0
   47.5520   35.3780   42.1190 N   0  0  0  0  0  0  0  0  0  0  0  0
   42.6530   31.8790   41.2660 C   0  0  2  0  0  0  0  0  0  0  0  0
   42.5900   31.6020   39.7980 C   0  0  0  0  0  0  0  0  0  0  0  0
   41.2570   31.6630   41.8230 C   0  0  0  0  0  0  0  0  0  0  0  0
   41.3510   30.5410   42.8260 C   0  0  0  0  0  0  0  0  0  0  0  0
   40.3480   30.2130   43.6680 N   0  0  0  0  0  0  0  0  0  0  0  0
   40.7360   29.2130   44.4000 O   0  0  0  0  0  0  0  0  0  0  0  0
   41.9630   28.8500   44.0850 C   0  0  0  0  0  0  0  0  0  0  0  0
   42.3380   29.6740   43.1130 N   0  0  0  0  0  0  0  0  0  0  0  0
   44.6999   36.6107   42.5349 H   0  0  0  0  0  0  0  0  0  0  0  0
   42.7534   36.4572   40.9323 H   0  0  0  0  0  0  0  0  0  0  0  0
   45.8446   35.4176   44.3063 H   0  0  0  0  0  0  0  0  0  0  0  0
   45.7759   33.6021   44.3372 H   0  0  0  0  0  0  0  0  0  0  0  0
   47.7085   32.5742   44.0261 H   0  0  0  0  0  0  0  0  0  0  0  0
   49.9318   32.4486   42.8416 H   0  0  0  0  0  0  0  0  0  0  0  0
   49.0211   36.0769   40.7836 H   0  0  0  0  0  0  0  0  0  0  0  0
   43.3675   31.1896   41.7395 H   0  0  0  0  0  0  0  0  0  0  0  0
   42.3487   30.5412   39.6350 H   0  0  0  0  0  0  0  0  0  0  0  0
   41.8117   32.2297   39.3395 H   0  0  0  0  0  0  0  0  0  0  0  0
   43.5632   31.8313   39.3395 H   0  0  0  0  0  0  0  0  0  0  0  0
   40.9004   32.5802   42.3145 H   0  0  0  0  0  0  0  0  0  0  0  0
   40.5483   31.4130   41.0197 H   0  0  0  0  0  0  0  0  0  0  0  0
   42.5524   28.0362   44.5326 H   0  0  0  0  0  0  0  0  0  0  0  0
  1  9  1  0
  2  1  1  0
  3  2  2  0
  4  3  1  0
  4  6  1  0
  5  4  2  0
  6  7  1  0
  7  1  1  0
  7  8  2  0
 10 11  2  0
 10  9  1  0
 12 11  1  0
 13 12  2  0
 14 13  1  0
 14 15  2  0
 15 10  1  0
 16  6  1  0
 16 18  1  0
 17 16  1  0
 18 19  1  0
 19 23  1  0
 19 20  2  0
 20 21  1  0
 22 21  1  0
 23 22  2  0
  2 24  1  0
  3 25  1  0
  9 26  1  0
  9 27  1  0
 11 28  1  0
 12 29  1  0
 14 30  1  0
 16 31  1  1
 17 32  1  0
 17 33  1  0
 17 34  1  0
 18 35  1  0
 18 36  1  0
 22 37  1  0
M  ISO  8  24  14  25  14  26   8  27   8  28  14  29  14  30  14  31   8
M  ISO  6  32   8  33   8  34   8  35   8  36   8  37  14
M  END
>  <minimizedAffinity>  (1) 
-4.58784628

>  <minimizedRMSD>  (1) 
6.17265511

$$$$
