
     RDKit          3D

 52 55  0  0  1  0  0  0  0  0999 V2000
   46.9910   31.5840   46.4600 C   0  0  2  0  0  0  0  0  0  0  0  0
   45.9620   34.4500   44.3500 N   0  0  0  0  0  0  0  0  0  0  0  0
   45.0350   35.0430   45.0810 C   0  0  0  0  0  0  0  0  0  0  0  0
   44.7160   34.4920   46.3350 C   0  0  0  0  0  0  0  0  0  0  0  0
   45.3600   33.3630   46.7740 C   0  0  0  0  0  0  0  0  0  0  0  0
   45.0790   32.8780   47.8770 O   0  0  0  0  0  0  0  0  0  0  0  0
   46.3010   32.7760   46.0110 N   0  0  0  0  0  0  0  0  0  0  0  0
   46.5670   33.3470   44.8220 C   0  0  0  0  0  0  0  0  0  0  0  0
   47.4540   32.7710   44.1320 O   0  0  0  0  0  0  0  0  0  0  0  0
   46.3670   34.9390   43.0410 C   0  0  0  0  0  0  0  0  0  0  0  0
   45.2730   34.8050   42.0360 C   0  0  0  0  0  0  0  0  0  0  0  0
   45.3590   33.7800   41.0770 C   0  0  0  0  0  0  0  0  0  0  0  0
   44.3380   33.6710   40.1550 C   0  0  0  0  0  0  0  0  0  0  0  0
   43.2960   34.5600   40.2160 N   0  0  0  0  0  0  0  0  0  0  0  0
   43.2510   35.5400   41.1600 C   0  0  0  0  0  0  0  0  0  0  0  0
   44.2260   35.6500   42.0460 N   0  0  0  0  0  0  0  0  0  0  0  0
   46.3940   30.3150   45.9990 C   0  0  0  0  0  0  0  0  0  0  0  0
   47.1250   31.4980   47.9540 C   0  0  0  0  0  0  0  0  0  0  0  0
   48.5500   31.5700   48.4250 C   0  0  2  0  0  0  0  0  0  0  0  0
   49.2670   30.2260   48.3770 C   0  0  0  0  0  0  0  0  0  0  0  0
   49.0020   30.8980   49.6550 C   0  0  1  0  0  0  0  0  0  0  0  0
   50.1690   31.4310   50.3310 N   0  0  0  0  0  0  0  0  0  0  0  0
   50.7770   32.6200   50.1660 C   0  0  0  0  0  0  0  0  0  0  0  0
   51.8880   32.9270   50.9230 C   0  0  0  0  0  0  0  0  0  0  0  0
   52.5160   34.2550   50.6950 C   0  0  0  0  0  0  0  0  0  0  0  0
   52.4070   32.0520   51.8540 C   0  0  0  0  0  0  0  0  0  0  0  0
   53.4150   32.3980   52.5030 O   0  0  0  0  0  0  0  0  0  0  0  0
   51.7760   30.8670   51.9980 N   0  0  0  0  0  0  0  0  0  0  0  0
   50.6820   30.5710   51.2500 C   0  0  0  0  0  0  0  0  0  0  0  0
   50.1920   29.4170   51.4940 O   0  0  0  0  0  0  0  0  0  0  0  0
   47.9808   31.7016   45.9947 H   0  0  0  0  0  0  0  0  0  0  0  0
   44.5244   35.9469   44.7172 H   0  0  0  0  0  0  0  0  0  0  0  0
   43.9492   34.9669   46.9646 H   0  0  0  0  0  0  0  0  0  0  0  0
   46.6430   36.0003   43.1273 H   0  0  0  0  0  0  0  0  0  0  0  0
   47.2204   34.3347   42.6996 H   0  0  0  0  0  0  0  0  0  0  0  0
   46.2131   33.0870   41.0623 H   0  0  0  0  0  0  0  0  0  0  0  0
   44.3598   32.8854   39.3854 H   0  0  0  0  0  0  0  0  0  0  0  0
   42.4032   36.2404   41.1855 H   0  0  0  0  0  0  0  0  0  0  0  0
   46.1079   29.7068   46.8697 H   0  0  0  0  0  0  0  0  0  0  0  0
   45.5019   30.5287   45.3919 H   0  0  0  0  0  0  0  0  0  0  0  0
   47.1274   29.7640   45.3919 H   0  0  0  0  0  0  0  0  0  0  0  0
   46.5655   32.3314   48.4039 H   0  0  0  0  0  0  0  0  0  0  0  0
   46.7276   30.5197   48.2623 H   0  0  0  0  0  0  0  0  0  0  0  0
   48.6771   32.6001   48.0607 H   0  0  0  0  0  0  0  0  0  0  0  0
   48.7146   29.3139   48.1069 H   0  0  0  0  0  0  0  0  0  0  0  0
   50.1592   29.8311   47.8691 H   0  0  0  0  0  0  0  0  0  0  0  0
   48.4908   30.6221   50.5891 H   0  0  0  0  0  0  0  0  0  0  0  0
   50.3903   33.3424   49.4321 H   0  0  0  0  0  0  0  0  0  0  0  0
   52.7389   34.7263   51.6636 H   0  0  0  0  0  0  0  0  0  0  0  0
   53.4488   34.1267   50.1264 H   0  0  0  0  0  0  0  0  0  0  0  0
   51.8250   34.8946   50.1264 H   0  0  0  0  0  0  0  0  0  0  0  0
   52.1277   30.1813   52.6814 H   0  0  0  0  0  0  0  0  0  0  0  0
  1 18  1  0
  2  8  1  0
  2  3  1  0
  3  4  2  0
  4  5  1  0
  5  6  2  0
  7  1  1  0
  7  5  1  0
  8  7  1  0
  9  8  2  0
 10  2  1  0
 11 16  1  0
 11 10  1  0
 12 11  2  0
 13 14  2  0
 13 12  1  0
 14 15  1  0
 15 16  2  0
 17  1  1  0
 18 19  1  0
 19 21  1  0
 20 19  1  0
 20 21  1  0
 21 22  1  0
 22 29  1  0
 23 22  1  0
 23 24  2  0
 24 26  1  0
 25 24  1  0
 26 28  1  0
 26 27  2  0
 29 30  2  0
 29 28  1  0
  1 31  1  6
  3 32  1  0
  4 33  1  0
 10 34  1  0
 10 35  1  0
 12 36  1  0
 13 37  1  0
 15 38  1  0
 17 39  1  0
 17 40  1  0
 17 41  1  0
 18 42  1  0
 18 43  1  0
 19 44  1  6
 20 45  1  0
 20 46  1  0
 21 47  1  1
 23 48  1  0
 25 49  1  0
 25 50  1  0
 25 51  1  0
 28 52  1  0
M  ISO  8  31   8  32  14  33  14  34   8  35   8  36  14  37  14  38  14
M  ISO  8  39   8  40   8  41   8  42   8  43   8  44  13  45  13  46  13
M  ISO  6  47  13  48  14  49   8  50   8  51   8  52   9
M  END
>  <minimizedAffinity>  (1) 
-6.16893673

>  <minimizedRMSD>  (1) 
6.04159546

$$$$
