
     RDKit          3D

 49 52  0  0  1  0  0  0  0  0999 V2000
   46.1810   30.8510   47.1030 C   0  0  2  0  0  0  0  0  0  0  0  0
   49.5270   30.6690   48.6670 N   0  0  0  0  0  0  0  0  0  0  0  0
   50.0930   29.6460   48.0590 C   0  0  0  0  0  0  0  0  0  0  0  0
   49.3480   28.9550   47.0670 C   0  0  0  0  0  0  0  0  0  0  0  0
   48.0770   29.3690   46.7770 C   0  0  0  0  0  0  0  0  0  0  0  0
   47.4230   28.7670   45.9110 O   0  0  0  0  0  0  0  0  0  0  0  0
   47.5270   30.4110   47.4100 N   0  0  0  0  0  0  0  0  0  0  0  0
   48.2830   31.0250   48.3390 C   0  0  0  0  0  0  0  0  0  0  0  0
   47.7320   32.0090   48.9200 O   0  0  0  0  0  0  0  0  0  0  0  0
   50.2080   31.4420   49.6970 C   0  0  0  0  0  0  0  0  0  0  0  0
   50.9190   30.5620   50.6770 C   0  0  0  0  0  0  0  0  0  0  0  0
   50.2050   29.5800   51.3550 C   0  0  0  0  0  0  0  0  0  0  0  0
   50.8930   28.7820   52.2540 C   0  0  0  0  0  0  0  0  0  0  0  0
   52.2240   28.9890   52.4360 N   0  0  0  0  0  0  0  0  0  0  0  0
   52.8900   29.9540   51.7600 C   0  0  0  0  0  0  0  0  0  0  0  0
   52.2480   30.7270   50.8960 N   0  0  0  0  0  0  0  0  0  0  0  0
   45.1130   29.9200   47.5440 C   0  0  0  0  0  0  0  0  0  0  0  0
   45.9660   31.1350   45.6570 C   0  0  0  0  0  0  0  0  0  0  0  0
   46.6560   32.3910   45.1720 C   0  0  2  0  0  0  0  0  0  0  0  0
   45.7160   33.5910   45.0960 C   0  0  0  0  0  0  0  0  0  0  0  0
   46.3210   32.9920   43.8790 C   0  0  1  0  0  0  0  0  0  0  0  0
   47.4120   33.7350   43.1940 C   0  0  0  0  0  0  0  0  0  0  0  0
   48.7400   33.4030   43.2340 C   0  0  0  0  0  0  0  0  0  0  0  0
   49.7100   34.1290   42.5790 C   0  0  0  0  0  0  0  0  0  0  0  0
   49.3930   35.2380   41.8430 C   0  0  0  0  0  0  0  0  0  0  0  0
   48.0660   35.6170   41.7700 C   0  0  0  0  0  0  0  0  0  0  0  0
   47.1310   34.8680   42.4370 C   0  0  0  0  0  0  0  0  0  0  0  0
   46.0995   31.7817   47.6836 H   0  0  0  0  0  0  0  0  0  0  0  0
   51.1170   29.3351   48.3135 H   0  0  0  0  0  0  0  0  0  0  0  0
   49.7879   28.0968   46.5379 H   0  0  0  0  0  0  0  0  0  0  0  0
   50.9424   32.1052   49.2166 H   0  0  0  0  0  0  0  0  0  0  0  0
   49.4503   32.0206   50.2457 H   0  0  0  0  0  0  0  0  0  0  0  0
   49.1275   29.4413   51.1827 H   0  0  0  0  0  0  0  0  0  0  0  0
   50.3698   27.9920   52.8127 H   0  0  0  0  0  0  0  0  0  0  0  0
   53.9676   30.0971   51.9283 H   0  0  0  0  0  0  0  0  0  0  0  0
   45.0814   29.8925   48.6432 H   0  0  0  0  0  0  0  0  0  0  0  0
   44.1428   30.2657   47.1579 H   0  0  0  0  0  0  0  0  0  0  0  0
   45.3231   28.9117   47.1579 H   0  0  0  0  0  0  0  0  0  0  0  0
   46.3481   30.2829   45.0757 H   0  0  0  0  0  0  0  0  0  0  0  0
   44.8857   31.2890   45.5180 H   0  0  0  0  0  0  0  0  0  0  0  0
   47.6205   32.1193   45.6258 H   0  0  0  0  0  0  0  0  0  0  0  0
   44.6420   33.4684   45.2997 H   0  0  0  0  0  0  0  0  0  0  0  0
   45.6799   34.5939   45.5465 H   0  0  0  0  0  0  0  0  0  0  0  0
   45.8989   32.6174   42.9348 H   0  0  0  0  0  0  0  0  0  0  0  0
   49.0449   32.5192   43.8137 H   0  0  0  0  0  0  0  0  0  0  0  0
   50.7607   33.8108   42.6490 H   0  0  0  0  0  0  0  0  0  0  0  0
   50.1737   35.8127   41.3232 H   0  0  0  0  0  0  0  0  0  0  0  0
   47.7660   36.5014   41.1887 H   0  0  0  0  0  0  0  0  0  0  0  0
   46.0804   35.1867   42.3685 H   0  0  0  0  0  0  0  0  0  0  0  0
  1  7  1  0
  1 17  1  0
  2 10  1  0
  3  2  1  0
  4  3  2  0
  5  4  1  0
  5  7  1  0
  6  5  2  0
  7  8  1  0
  8  2  1  0
  8  9  2  0
 10 11  1  0
 11 16  1  0
 11 12  2  0
 12 13  1  0
 13 14  2  0
 15 14  1  0
 16 15  2  0
 18  1  1  0
 19 18  1  0
 20 19  1  0
 21 20  1  0
 21 19  1  0
 22 23  2  0
 22 21  1  0
 24 23  1  0
 25 24  2  0
 26 25  1  0
 26 27  2  0
 27 22  1  0
  1 28  1  1
  3 29  1  0
  4 30  1  0
 10 31  1  0
 10 32  1  0
 12 33  1  0
 13 34  1  0
 15 35  1  0
 17 36  1  0
 17 37  1  0
 17 38  1  0
 18 39  1  0
 18 40  1  0
 19 41  1  1
 20 42  1  0
 20 43  1  0
 21 44  1  6
 23 45  1  0
 24 46  1  0
 25 47  1  0
 26 48  1  0
 27 49  1  0
M  ISO  8  28   8  29  14  30  14  31   8  32   8  33  14  34  14  35  14
M  ISO  8  36   8  37   8  38   8  39   8  40   8  41  13  42  13  43  13
M  ISO  6  44  13  45  14  46  14  47  14  48  14  49  14
M  END
>  <minimizedAffinity>  (1) 
-5.53574228

>  <minimizedRMSD>  (1) 
8.53423023

$$$$
