
     RDKit          3D

 44 47  0  0  1  0  0  0  0  0999 V2000
   45.9690   31.8440   44.6850 N   0  0  0  0  0  0  0  0  0  0  0  0
   45.5660   30.6720   44.2530 C   0  0  0  0  0  0  0  0  0  0  0  0
   45.4980   29.5900   45.1780 C   0  0  0  0  0  0  0  0  0  0  0  0
   45.8550   29.8110   46.4840 C   0  0  0  0  0  0  0  0  0  0  0  0
   45.7960   28.8740   47.2880 O   0  0  0  0  0  0  0  0  0  0  0  0
   46.2610   31.0140   46.8970 N   0  0  0  0  0  0  0  0  0  0  0  0
   46.3030   31.9910   45.9770 C   0  0  0  0  0  0  0  0  0  0  0  0
   46.6960   33.1320   46.4000 O   0  0  0  0  0  0  0  0  0  0  0  0
   46.0700   33.0080   43.8130 C   0  0  0  0  0  0  0  0  0  0  0  0
   47.4540   33.1690   43.2540 C   0  0  0  0  0  0  0  0  0  0  0  0
   47.9430   34.4590   43.0490 C   0  0  0  0  0  0  0  0  0  0  0  0
   49.2290   34.5710   42.5310 C   0  0  0  0  0  0  0  0  0  0  0  0
   49.9360   33.4510   42.2520 N   0  0  0  0  0  0  0  0  0  0  0  0
   49.4190   32.2060   42.4680 C   0  0  0  0  0  0  0  0  0  0  0  0
   48.1880   32.0770   42.9650 N   0  0  0  0  0  0  0  0  0  0  0  0
   46.6370   31.2460   48.2740 C   0  0  2  0  0  0  0  0  0  0  0  0
   45.7040   32.1130   49.0320 C   0  0  0  0  0  0  0  0  0  0  0  0
   48.0200   31.8180   48.4280 C   0  0  0  0  0  0  0  0  0  0  0  0
   48.7890   31.1870   49.5490 C   0  0  2  0  0  0  0  0  0  0  0  0
   50.1720   31.7840   49.7490 C   0  0  0  0  0  0  0  0  0  0  0  0
   49.9970   30.3840   49.3080 C   0  0  1  0  0  0  0  0  0  0  0  0
   50.3720   29.3660   50.3300 C   0  0  0  0  0  0  0  0  0  0  0  0
   50.4440   29.5100   51.6530 N   0  0  0  0  0  0  0  0  0  0  0  0
   50.8100   28.3770   52.1990 O   0  0  0  0  0  0  0  0  0  0  0  0
   50.9860   27.4720   51.2470 C   0  0  0  0  0  0  0  0  0  0  0  0
   50.7130   28.0810   50.0570 N   0  0  0  0  0  0  0  0  0  0  0  0
   45.2865   30.5279   43.1989 H   0  0  0  0  0  0  0  0  0  0  0  0
   45.1648   28.5942   44.8502 H   0  0  0  0  0  0  0  0  0  0  0  0
   45.3612   32.8911   42.9800 H   0  0  0  0  0  0  0  0  0  0  0  0
   45.8365   33.9024   44.4092 H   0  0  0  0  0  0  0  0  0  0  0  0
   47.3392   35.3473   43.2862 H   0  0  0  0  0  0  0  0  0  0  0  0
   49.6684   35.5629   42.3493 H   0  0  0  0  0  0  0  0  0  0  0  0
   50.0157   31.3123   42.2329 H   0  0  0  0  0  0  0  0  0  0  0  0
   46.5996   30.2326   48.7002 H   0  0  0  0  0  0  0  0  0  0  0  0
   45.8617   31.9664   50.1107 H   0  0  0  0  0  0  0  0  0  0  0  0
   45.8903   33.1659   48.7739 H   0  0  0  0  0  0  0  0  0  0  0  0
   44.6675   31.8501   48.7739 H   0  0  0  0  0  0  0  0  0  0  0  0
   48.5723   31.6591   47.4901 H   0  0  0  0  0  0  0  0  0  0  0  0
   47.9115   32.8873   48.6621 H   0  0  0  0  0  0  0  0  0  0  0  0
   47.8781   30.9868   50.1323 H   0  0  0  0  0  0  0  0  0  0  0  0
   50.5546   32.5412   49.0488 H   0  0  0  0  0  0  0  0  0  0  0  0
   50.6981   32.2876   50.5733 H   0  0  0  0  0  0  0  0  0  0  0  0
   50.3336   29.7801   48.4524 H   0  0  0  0  0  0  0  0  0  0  0  0
   51.2944   26.4258   51.3895 H   0  0  0  0  0  0  0  0  0  0  0  0
  1  7  1  0
  2  1  1  0
  2  3  2  0
  3  4  1  0
  4  6  1  0
  4  5  2  0
  6 16  1  0
  7  8  2  0
  7  6  1  0
  9  1  1  0
 10  9  1  0
 11 10  2  0
 12 11  1  0
 13 14  1  0
 13 12  2  0
 14 15  2  0
 15 10  1  0
 16 18  1  0
 16 17  1  0
 18 19  1  0
 19 20  1  0
 21 19  1  0
 21 20  1  0
 21 22  1  0
 22 23  2  0
 23 24  1  0
 25 24  1  0
 26 22  1  0
 26 25  2  0
  2 27  1  0
  3 28  1  0
  9 29  1  0
  9 30  1  0
 11 31  1  0
 12 32  1  0
 14 33  1  0
 16 34  1  1
 17 35  1  0
 17 36  1  0
 17 37  1  0
 18 38  1  0
 18 39  1  0
 19 40  1  1
 20 41  1  0
 20 42  1  0
 21 43  1  6
 25 44  1  0
M  ISO  8  27  14  28  14  29   8  30   8  31  14  32  14  33  14  34   8
M  ISO  8  35   8  36   8  37   8  38   8  39   8  40  13  41  13  42  13
M  ISO  2  43  13  44  14
M  END
>  <minimizedAffinity>  (1) 
-5.33754158

>  <minimizedRMSD>  (1) 
4.67826557

$$$$
