
     RDKit          3D

 41 43  0  0  1  0  0  0  0  0999 V2000
   45.7270   32.6010   44.5270 N   0  0  0  0  0  0  0  0  0  0  0  0
   45.4350   31.5190   43.8240 C   0  0  0  0  0  0  0  0  0  0  0  0
   45.4950   30.2620   44.4750 C   0  0  0  0  0  0  0  0  0  0  0  0
   45.8500   30.2060   45.7930 C   0  0  0  0  0  0  0  0  0  0  0  0
   45.9020   29.1010   46.3620 O   0  0  0  0  0  0  0  0  0  0  0  0
   46.1410   31.3250   46.4810 N   0  0  0  0  0  0  0  0  0  0  0  0
   46.0670   32.4780   45.8140 C   0  0  0  0  0  0  0  0  0  0  0  0
   46.3480   33.5230   46.4890 O   0  0  0  0  0  0  0  0  0  0  0  0
   45.6930   33.9350   43.9460 C   0  0  0  0  0  0  0  0  0  0  0  0
   46.7400   34.1150   42.8860 C   0  0  0  0  0  0  0  0  0  0  0  0
   48.0860   34.1300   43.2620 C   0  0  0  0  0  0  0  0  0  0  0  0
   49.0200   34.2970   42.2580 C   0  0  0  0  0  0  0  0  0  0  0  0
   48.5950   34.4360   40.9760 N   0  0  0  0  0  0  0  0  0  0  0  0
   47.2760   34.4150   40.6480 C   0  0  0  0  0  0  0  0  0  0  0  0
   46.3540   34.2550   41.6010 N   0  0  0  0  0  0  0  0  0  0  0  0
   46.5160   31.2610   47.8760 C   0  0  2  0  0  0  0  0  0  0  0  0
   45.5360   31.8720   48.8110 C   0  0  0  0  0  0  0  0  0  0  0  0
   47.8540   31.8620   48.1680 C   0  0  0  0  0  0  0  0  0  0  0  0
   48.5640   31.1970   49.3150 C   0  0  2  0  0  0  0  0  0  0  0  0
   49.9200   31.8080   49.6300 C   0  0  0  0  0  0  0  0  0  0  0  0
   49.8020   30.4340   49.1230 C   0  0  1  0  0  0  0  0  0  0  0  0
   50.0790   29.2580   49.9650 C   0  0  0  0  0  0  0  0  0  0  0  0
   50.2350   29.3690   51.1850 O   0  0  0  0  0  0  0  0  0  0  0  0
   45.1534   31.5932   42.7633 H   0  0  0  0  0  0  0  0  0  0  0  0
   45.2579   29.3398   43.9243 H   0  0  0  0  0  0  0  0  0  0  0  0
   44.7023   34.1018   43.4981 H   0  0  0  0  0  0  0  0  0  0  0  0
   45.8949   34.6597   44.7486 H   0  0  0  0  0  0  0  0  0  0  0  0
   48.3889   34.0137   44.3131 H   0  0  0  0  0  0  0  0  0  0  0  0
   50.0942   34.3171   42.4941 H   0  0  0  0  0  0  0  0  0  0  0  0
   46.9681   34.5297   39.5982 H   0  0  0  0  0  0  0  0  0  0  0  0
   46.5467   30.1759   48.0536 H   0  0  0  0  0  0  0  0  0  0  0  0
   45.8479   31.6775   49.8478 H   0  0  0  0  0  0  0  0  0  0  0  0
   45.4925   32.9576   48.6387 H   0  0  0  0  0  0  0  0  0  0  0  0
   44.5421   31.4333   48.6387 H   0  0  0  0  0  0  0  0  0  0  0  0
   48.4814   31.7722   47.2690 H   0  0  0  0  0  0  0  0  0  0  0  0
   47.6864   32.9116   48.4513 H   0  0  0  0  0  0  0  0  0  0  0  0
   47.6210   30.9553   49.8271 H   0  0  0  0  0  0  0  0  0  0  0  0
   50.3321   32.6011   48.9888 H   0  0  0  0  0  0  0  0  0  0  0  0
   50.3819   32.2842   50.5074 H   0  0  0  0  0  0  0  0  0  0  0  0
   50.2662   29.9043   48.2780 H   0  0  0  0  0  0  0  0  0  0  0  0
   50.1481   28.2638   49.4993 H   0  0  0  0  0  0  0  0  0  0  0  0
  1  7  1  0
  2  3  2  0
  2  1  1  0
  3  4  1  0
  4  5  2  0
  4  6  1  0
  6 16  1  0
  7  6  1  0
  7  8  2  0
  9  1  1  0
 10 11  2  0
 10  9  1  0
 12 11  1  0
 13 12  2  0
 14 13  1  0
 14 15  2  0
 15 10  1  0
 16 18  1  0
 16 17  1  0
 18 19  1  0
 19 20  1  0
 21 19  1  0
 21 20  1  0
 21 22  1  0
 22 23  2  0
  2 24  1  0
  3 25  1  0
  9 26  1  0
  9 27  1  0
 11 28  1  0
 12 29  1  0
 14 30  1  0
 16 31  1  1
 17 32  1  0
 17 33  1  0
 17 34  1  0
 18 35  1  0
 18 36  1  0
 19 37  1  1
 20 38  1  0
 20 39  1  0
 21 40  1  6
 22 41  1  0
M  ISO  8  24  14  25  14  26   8  27   8  28  14  29  14  30  14  31   8
M  ISO  8  32   8  33   8  34   8  35   8  36   8  37  13  38  13  39  13
M  ISO  2  40  13  41   6
M  END
>  <minimizedAffinity>  (1) 
-4.8260603

>  <minimizedRMSD>  (1) 
2.98766613

$$$$
