
     RDKit          3D

 25 26  0  0  1  0  0  0  0  0999 V2000
   48.2650   33.3940   41.2610 C   0  0  2  0  0  0  0  0  0  0  0  0
   48.2050   34.7160   41.8850 C   0  0  2  0  0  0  0  0  0  0  0  0
   49.5390   34.9470   42.6000 C   0  0  0  0  0  0  0  0  0  0  0  0
   50.4430   33.7860   42.2640 C   0  0  0  0  0  0  0  0  0  0  0  0
   49.4820   32.7010   41.9420 C   0  0  0  0  0  0  0  0  0  0  0  0
   48.5400   33.3330   39.8160 C   0  0  0  0  0  0  0  0  0  0  0  0
   48.1490   34.4120   38.9970 C   0  0  0  0  0  0  0  0  0  0  0  0
   48.4220   34.3770   37.6320 C   0  0  0  0  0  0  0  0  0  0  0  0
   49.0730   33.2580   37.1680 N   0  0  0  0  0  0  0  0  0  0  0  0
   49.4360   32.2410   37.9740 C   0  0  0  0  0  0  0  0  0  0  0  0
   49.1710   32.2780   39.2920 N   0  0  0  0  0  0  0  0  0  0  0  0
   47.1100   34.7550   42.8840 N   0  0  0  0  0  0  0  0  0  0  0  0
   47.2685   32.9457   41.3875 H   0  0  0  0  0  0  0  0  0  0  0  0
   48.0200   35.4892   41.1247 H   0  0  0  0  0  0  0  0  0  0  0  0
   49.9922   35.8877   42.2541 H   0  0  0  0  0  0  0  0  0  0  0  0
   49.3878   35.0173   43.6873 H   0  0  0  0  0  0  0  0  0  0  0  0
   51.0816   34.0188   41.3991 H   0  0  0  0  0  0  0  0  0  0  0  0
   51.1365   33.5254   43.0771 H   0  0  0  0  0  0  0  0  0  0  0  0
   49.1641   32.1868   42.8610 H   0  0  0  0  0  0  0  0  0  0  0  0
   49.9344   31.9439   41.2846 H   0  0  0  0  0  0  0  0  0  0  0  0
   47.6305   35.2779   39.4345 H   0  0  0  0  0  0  0  0  0  0  0  0
   48.1327   35.1996   36.9614 H   0  0  0  0  0  0  0  0  0  0  0  0
   49.9555   31.3697   37.5487 H   0  0  0  0  0  0  0  0  0  0  0  0
   47.5103   34.7407   43.8329 H   0  0  0  0  0  0  0  0  0  0  0  0
   46.5595   35.6161   42.7565 H   0  0  0  0  0  0  0  0  0  0  0  0
  1  2  1  0
  1  5  1  0
  2  3  1  0
  2 12  1  0
  4  3  1  0
  5  4  1  0
  6  1  1  0
  7  6  2  0
  8  7  1  0
  9  8  2  0
  9 10  1  0
 10 11  2  0
 11  6  1  0
  1 13  1  6
  2 14  1  6
  3 15  1  0
  3 16  1  0
  4 17  1  0
  4 18  1  0
  5 19  1  0
  5 20  1  0
  7 21  1  0
  8 22  1  0
 10 23  1  0
 12 24  1  0
 12 25  1  0
M  ISO  8  13  13  14  13  15  13  16  13  17  13  18  13  19  13  20  13
M  ISO  5  21  14  22  14  23  14  24   5  25   5
M  END
>  <minimizedAffinity>  (1) 
-3.68230319

>  <minimizedRMSD>  (1) 
4.39562988

$$$$
