
     RDKit          3D

 26 27  0  0  0  0  0  0  0  0999 V2000
   44.3080   35.7990   44.2410 C   0  0  0  0  0  0  0  0  0  0  0  0
   44.5040   34.9750   43.1020 C   0  0  0  0  0  0  0  0  0  0  0  0
   45.1100   33.7340   43.2640 C   0  0  0  0  0  0  0  0  0  0  0  0
   45.4940   33.3560   44.5190 N   0  0  0  0  0  0  0  0  0  0  0  0
   45.2910   34.1610   45.5760 C   0  0  0  0  0  0  0  0  0  0  0  0
   44.7120   35.3620   45.4550 N   0  0  0  0  0  0  0  0  0  0  0  0
   43.9650   35.5610   41.4940 S   0  0  0  0  0  0  0  0  0  0  0  0
   39.9290   35.0470   39.6690 N   0  0  0  0  0  0  0  0  0  0  0  0
   41.1960   35.4760   39.1350 C   0  0  0  0  0  0  0  0  0  0  0  0
   42.3320   34.5620   39.5790 C   0  0  0  0  0  0  0  0  0  0  0  0
   42.4380   34.7040   41.0780 C   0  0  0  0  0  0  0  0  0  0  0  0
   41.2100   35.3580   41.6780 C   0  0  0  0  0  0  0  0  0  0  0  0
   40.0250   34.6240   41.0500 C   0  0  0  0  0  0  0  0  0  0  0  0
   43.8314   36.7849   44.1369 H   0  0  0  0  0  0  0  0  0  0  0  0
   45.2763   33.0720   42.4013 H   0  0  0  0  0  0  0  0  0  0  0  0
   45.6109   33.8222   46.5724 H   0  0  0  0  0  0  0  0  0  0  0  0
   39.5829   34.2577   39.1049 H   0  0  0  0  0  0  0  0  0  0  0  0
   41.4030   36.4981   39.4850 H   0  0  0  0  0  0  0  0  0  0  0  0
   41.1358   35.4406   38.0372 H   0  0  0  0  0  0  0  0  0  0  0  0
   42.1069   33.5191   39.3114 H   0  0  0  0  0  0  0  0  0  0  0  0
   43.2769   34.8352   39.0865 H   0  0  0  0  0  0  0  0  0  0  0  0
   42.4778   33.7014   41.5289 H   0  0  0  0  0  0  0  0  0  0  0  0
   41.2035   35.2385   42.7715 H   0  0  0  0  0  0  0  0  0  0  0  0
   41.1788   36.4395   41.4795 H   0  0  0  0  0  0  0  0  0  0  0  0
   39.0989   34.8798   41.5857 H   0  0  0  0  0  0  0  0  0  0  0  0
   40.1692   33.5352   41.1110 H   0  0  0  0  0  0  0  0  0  0  0  0
  1  6  2  0
  2  3  2  0
  2  1  1  0
  3  4  1  0
  4  5  2  0
  6  5  1  0
  7  2  1  0
  8 13  1  0
  9 10  1  0
  9  8  1  0
 10 11  1  0
 11  7  1  0
 11 12  1  0
 13 12  1  0
  1 14  1  0
  3 15  1  0
  5 16  1  0
  8 17  1  0
  9 18  1  0
  9 19  1  0
 10 20  1  0
 10 21  1  0
 11 22  1  0
 12 23  1  0
 12 24  1  0
 13 25  1  0
 13 26  1  0
M  ISO  8  14  14  15  14  16  14  17   5  18  13  19  13  20  13  21  13
M  ISO  5  22  13  23  13  24  13  25  13  26  13
M  END
>  <minimizedAffinity>  (1) 
-4.08102703

>  <minimizedRMSD>  (1) 
2.41007066

$$$$
