
     RDKit          3D

 18 19  0  0  0  0  0  0  0  0999 V2000
   44.3090   35.7860   44.2770 C   0  0  0  0  0  0  0  0  0  0  0  0
   44.4950   34.9740   43.1170 C   0  0  0  0  0  0  0  0  0  0  0  0
   45.1090   33.7230   43.2770 C   0  0  0  0  0  0  0  0  0  0  0  0
   45.4980   33.3470   44.5350 N   0  0  0  0  0  0  0  0  0  0  0  0
   45.3020   34.1460   45.5960 C   0  0  0  0  0  0  0  0  0  0  0  0
   44.7170   35.3490   45.4810 N   0  0  0  0  0  0  0  0  0  0  0  0
   43.9560   35.5410   41.5030 S   0  0  0  0  0  0  0  0  0  0  0  0
   42.2540   35.0130   41.3250 C   0  0  0  0  0  0  0  0  0  0  0  0
   41.1590   35.7970   41.1320 C   0  0  0  0  0  0  0  0  0  0  0  0
   40.0630   34.9510   41.0540 C   0  0  0  0  0  0  0  0  0  0  0  0
   40.5650   33.6580   41.2080 C   0  0  0  0  0  0  0  0  0  0  0  0
   41.8850   33.7410   41.3680 O   0  0  0  0  0  0  0  0  0  0  0  0
   43.8304   36.7721   44.1850 H   0  0  0  0  0  0  0  0  0  0  0  0
   45.2738   33.0610   42.4141 H   0  0  0  0  0  0  0  0  0  0  0  0
   45.6304   33.8049   46.5889 H   0  0  0  0  0  0  0  0  0  0  0  0
   41.1456   36.8941   41.0528 H   0  0  0  0  0  0  0  0  0  0  0  0
   39.0126   35.2400   40.9018 H   0  0  0  0  0  0  0  0  0  0  0  0
   39.9732   32.7308   41.1989 H   0  0  0  0  0  0  0  0  0  0  0  0
  1  6  2  0
  2  3  2  0
  2  1  1  0
  3  4  1  0
  4  5  2  0
  6  5  1  0
  7  2  1  0
  8 12  1  0
  8  7  1  0
  9  8  2  0
 10  9  1  0
 10 11  2  0
 11 12  1  0
  1 13  1  0
  3 14  1  0
  5 15  1  0
  9 16  1  0
 10 17  1  0
 11 18  1  0
M  ISO  6  13  14  14  14  15  14  16  14  17  14  18  14
M  END
>  <minimizedAffinity>  (1) 
-3.80684185

>  <minimizedRMSD>  (1) 
2.60642481

$$$$
