
     RDKit          3D

 14 14  0  0  0  0  0  0  0  0999 V2000
   45.3300   35.9620   43.1540 C   0  0  0  0  0  0  0  0  0  0  0  0
   46.1970   34.8580   43.0370 C   0  0  0  0  0  0  0  0  0  0  0  0
   46.2800   33.9560   44.0980 C   0  0  0  0  0  0  0  0  0  0  0  0
   45.5130   34.1790   45.2180 N   0  0  0  0  0  0  0  0  0  0  0  0
   44.6990   35.2560   45.2720 C   0  0  0  0  0  0  0  0  0  0  0  0
   44.6000   36.1430   44.2610 N   0  0  0  0  0  0  0  0  0  0  0  0
   47.1960   34.5750   41.5700 S   0  0  0  0  0  0  0  0  0  0  0  0
   48.7080   35.5640   41.6090 C   0  0  0  0  0  0  0  0  0  0  0  0
   45.2521   36.6829   42.3268 H   0  0  0  0  0  0  0  0  0  0  0  0
   46.9464   33.0827   44.0401 H   0  0  0  0  0  0  0  0  0  0  0  0
   44.0932   35.4156   46.1762 H   0  0  0  0  0  0  0  0  0  0  0  0
   48.9960   35.7524   42.6538 H   0  0  0  0  0  0  0  0  0  0  0  0
   49.5158   35.0192   41.0985 H   0  0  0  0  0  0  0  0  0  0  0  0
   48.5325   36.5224   41.0985 H   0  0  0  0  0  0  0  0  0  0  0  0
  1  6  2  0
  2  1  1  0
  2  3  2  0
  3  4  1  0
  4  5  2  0
  6  5  1  0
  7  8  1  0
  7  2  1  0
  1  9  1  0
  3 10  1  0
  5 11  1  0
  8 12  1  0
  8 13  1  0
  8 14  1  0
M  ISO  6   9  14  10  14  11  14  12   8  13   8  14   8
M  END
>  <minimizedAffinity>  (1) 
-3.03803062

>  <minimizedRMSD>  (1) 
2.13103366

$$$$
