
     RDKit          3D

 25 27  0  0  0  0  0  0  0  0999 V2000
   43.7670   34.3300   39.8860 N   0  0  0  0  0  0  0  0  0  0  0  0
   44.7120   34.6370   40.7640 N   0  0  0  0  0  0  0  0  0  0  0  0
   44.1440   35.3670   41.7620 C   0  0  0  0  0  0  0  0  0  0  0  0
   42.8410   35.4700   41.4300 C   0  0  0  0  0  0  0  0  0  0  0  0
   42.5660   34.8310   40.2570 C   0  0  0  0  0  0  0  0  0  0  0  0
   41.2950   34.7020   39.5510 C   0  0  0  0  0  0  0  0  0  0  0  0
   40.0550   34.7520   40.1590 C   0  0  0  0  0  0  0  0  0  0  0  0
   39.1770   34.5880   39.1100 C   0  0  0  0  0  0  0  0  0  0  0  0
   39.8770   34.4470   37.9390 C   0  0  0  0  0  0  0  0  0  0  0  0
   41.1640   34.5260   38.2720 O   0  0  0  0  0  0  0  0  0  0  0  0
   44.9510   36.0300   43.1830 S   0  0  0  0  0  0  0  0  0  0  0  0
   45.0690   34.5140   45.5270 C   0  0  0  0  0  0  0  0  0  0  0  0
   45.5950   34.7360   44.2440 C   0  0  0  0  0  0  0  0  0  0  0  0
   46.6470   33.9150   43.8000 C   0  0  0  0  0  0  0  0  0  0  0  0
   47.1150   32.9380   44.6270 N   0  0  0  0  0  0  0  0  0  0  0  0
   46.5650   32.7730   45.8610 C   0  0  0  0  0  0  0  0  0  0  0  0
   45.5540   33.5450   46.3160 N   0  0  0  0  0  0  0  0  0  0  0  0
   43.9269   33.7799   39.0300 H   0  0  0  0  0  0  0  0  0  0  0  0
   42.0913   36.0043   42.0320 H   0  0  0  0  0  0  0  0  0  0  0  0
   39.8241   34.8898   41.2256 H   0  0  0  0  0  0  0  0  0  0  0  0
   38.0807   34.5725   39.1983 H   0  0  0  0  0  0  0  0  0  0  0  0
   39.4608   34.2990   36.9316 H   0  0  0  0  0  0  0  0  0  0  0  0
   44.2452   35.1458   45.8906 H   0  0  0  0  0  0  0  0  0  0  0  0
   47.0850   34.0591   42.8013 H   0  0  0  0  0  0  0  0  0  0  0  0
   46.9591   31.9799   46.5134 H   0  0  0  0  0  0  0  0  0  0  0  0
  1  5  1  0
  1  2  1  0
  2  3  2  0
  3 11  1  0
  4  3  1  0
  5  4  2  0
  6  7  2  0
  6  5  1  0
  8  7  1  0
  9 10  1  0
  9  8  2  0
 10  6  1  0
 11 13  1  0
 12 17  2  0
 13 12  1  0
 14 13  2  0
 14 15  1  0
 15 16  2  0
 16 17  1  0
  1 18  1  0
  4 19  1  0
  7 20  1  0
  8 21  1  0
  9 22  1  0
 12 23  1  0
 14 24  1  0
 16 25  1  0
M  ISO  8  18   9  19  14  20  14  21  14  22  14  23  14  24  14  25  14
M  END
>  <minimizedAffinity>  (1) 
-5.15002251

>  <minimizedRMSD>  (1) 
2.5697763

$$$$
