
     RDKit          3D

 24 26  0  0  0  0  0  0  0  0999 V2000
   41.3750   32.4130   40.8210 N   0  0  0  0  0  0  0  0  0  0  0  0
   42.3740   32.9140   41.5030 N   0  0  0  0  0  0  0  0  0  0  0  0
   42.7050   34.1260   40.9820 C   0  0  0  0  0  0  0  0  0  0  0  0
   41.8400   34.2940   39.9600 C   0  0  0  0  0  0  0  0  0  0  0  0
   40.9850   33.2400   39.8240 C   0  0  0  0  0  0  0  0  0  0  0  0
   39.9030   33.0420   38.8380 C   0  0  0  0  0  0  0  0  0  0  0  0
   39.1140   34.1570   38.4160 C   0  0  0  0  0  0  0  0  0  0  0  0
   37.9620   33.3910   37.2350 S   0  0  0  0  0  0  0  0  0  0  0  0
   38.7420   31.6790   37.5070 C   0  0  0  0  0  0  0  0  0  0  0  0
   39.5590   31.8900   38.2660 N   0  0  0  0  0  0  0  0  0  0  0  0
   43.9720   35.2120   41.5250 S   0  0  0  0  0  0  0  0  0  0  0  0
   44.2570   35.6850   44.2690 C   0  0  0  0  0  0  0  0  0  0  0  0
   44.5250   34.8100   43.1870 C   0  0  0  0  0  0  0  0  0  0  0  0
   45.2250   33.6340   43.4260 C   0  0  0  0  0  0  0  0  0  0  0  0
   45.6400   33.3400   44.6900 N   0  0  0  0  0  0  0  0  0  0  0  0
   45.3590   34.2120   45.7040 C   0  0  0  0  0  0  0  0  0  0  0  0
   44.6810   35.3630   45.4990 N   0  0  0  0  0  0  0  0  0  0  0  0
   40.9394   31.5009   41.0193 H   0  0  0  0  0  0  0  0  0  0  0  0
   41.8260   35.1811   39.3098 H   0  0  0  0  0  0  0  0  0  0  0  0
   39.1854   35.2099   38.7264 H   0  0  0  0  0  0  0  0  0  0  0  0
   38.4688   30.7198   37.0430 H   0  0  0  0  0  0  0  0  0  0  0  0
   43.7051   36.6215   44.1006 H   0  0  0  0  0  0  0  0  0  0  0  0
   45.4433   32.9432   42.5983 H   0  0  0  0  0  0  0  0  0  0  0  0
   45.6963   33.9686   46.7223 H   0  0  0  0  0  0  0  0  0  0  0  0
  1  2  1  0
  3  2  2  0
  3 11  1  0
  4  3  1  0
  5  4  2  0
  5  1  1  0
  6  5  1  0
  7  6  2  0
  8  9  1  0
  8  7  1  0
  9 10  2  0
 10  6  1  0
 11 13  1  0
 12 17  2  0
 13 14  2  0
 13 12  1  0
 14 15  1  0
 15 16  2  0
 17 16  1  0
  1 18  1  0
  4 19  1  0
  7 20  1  0
  9 21  1  0
 12 22  1  0
 14 23  1  0
 16 24  1  0
M  ISO  7  18   9  19  14  20  14  21  14  22  14  23  14  24  14
M  END
>  <minimizedAffinity>  (1) 
-4.17346001

>  <minimizedRMSD>  (1) 
2.40506029

$$$$
