
     RDKit          3D

 32 35  0  0  1  0  0  0  0  0999 V2000
   43.5400   34.4900   39.8740 N   0  0  0  0  0  0  0  0  0  0  0  0
   44.5170   34.5810   40.7730 N   0  0  0  0  0  0  0  0  0  0  0  0
   44.1060   35.4550   41.7570 C   0  0  0  0  0  0  0  0  0  0  0  0
   42.8540   35.8730   41.4020 C   0  0  0  0  0  0  0  0  0  0  0  0
   42.4750   35.2850   40.2300 C   0  0  0  0  0  0  0  0  0  0  0  0
   41.2670   35.3700   39.3930 C   0  0  1  0  0  0  0  0  0  0  0  0
   41.3880   35.7340   37.9560 C   0  0  0  0  0  0  0  0  0  0  0  0
   41.0550   34.3050   38.3880 C   0  0  2  0  0  0  0  0  0  0  0  0
   39.6630   33.8370   38.0350 C   0  0  0  0  0  0  0  0  0  0  0  0
   39.1930   32.4870   38.4680 C   0  0  0  0  0  0  0  0  0  0  0  0
   38.5820   33.7690   39.0420 C   0  0  0  0  0  0  0  0  0  0  0  0
   45.0100   35.9470   43.1920 S   0  0  0  0  0  0  0  0  0  0  0  0
   45.3770   34.0370   45.1930 C   0  0  0  0  0  0  0  0  0  0  0  0
   45.8040   34.5460   43.9660 C   0  0  0  0  0  0  0  0  0  0  0  0
   46.8900   33.9060   43.3590 C   0  0  0  0  0  0  0  0  0  0  0  0
   47.4860   32.8370   43.9580 N   0  0  0  0  0  0  0  0  0  0  0  0
   47.0080   32.4040   45.1520 C   0  0  0  0  0  0  0  0  0  0  0  0
   45.9710   32.9900   45.7640 N   0  0  0  0  0  0  0  0  0  0  0  0
   43.5762   33.9044   39.0274 H   0  0  0  0  0  0  0  0  0  0  0  0
   42.2403   36.5813   41.9779 H   0  0  0  0  0  0  0  0  0  0  0  0
   40.6797   35.7825   40.2266 H   0  0  0  0  0  0  0  0  0  0  0  0
   42.3729   35.9666   37.5250 H   0  0  0  0  0  0  0  0  0  0  0  0
   40.9271   36.4817   37.2938 H   0  0  0  0  0  0  0  0  0  0  0  0
   41.4758   33.2961   38.2656 H   0  0  0  0  0  0  0  0  0  0  0  0
   39.7626   34.3510   37.0676 H   0  0  0  0  0  0  0  0  0  0  0  0
   38.6114   31.8558   37.7800 H   0  0  0  0  0  0  0  0  0  0  0  0
   39.6663   31.5860   38.8854 H   0  0  0  0  0  0  0  0  0  0  0  0
   38.7811   34.0558   40.0851 H   0  0  0  0  0  0  0  0  0  0  0  0
   37.5652   34.1803   39.1253 H   0  0  0  0  0  0  0  0  0  0  0  0
   44.5266   34.5133   45.7029 H   0  0  0  0  0  0  0  0  0  0  0  0
   47.2656   34.2686   42.3908 H   0  0  0  0  0  0  0  0  0  0  0  0
   47.4896   31.5407   45.6344 H   0  0  0  0  0  0  0  0  0  0  0  0
  1  5  1  0
  1  2  1  0
  2  3  2  0
  3 12  1  0
  4  3  1  0
  5  4  2  0
  6  5  1  0
  7  8  1  0
  7  6  1  0
  8  6  1  0
  9  8  1  0
  9 10  1  0
  9 11  1  0
 10 11  1  0
 12 14  1  0
 13 18  2  0
 14 13  1  0
 15 16  1  0
 15 14  2  0
 16 17  2  0
 17 18  1  0
  1 19  1  0
  4 20  1  0
  6 21  1  1
  7 22  1  0
  7 23  1  0
  8 24  1  1
  9 25  1  0
 10 26  1  0
 10 27  1  0
 11 28  1  0
 11 29  1  0
 13 30  1  0
 15 31  1  0
 17 32  1  0
M  ISO  8  19   9  20  14  21  13  22  13  23  13  24  13  25  13  26  13
M  ISO  6  27  13  28  13  29  13  30  14  31  14  32  14
M  END
>  <minimizedAffinity>  (1) 
-5.1463151

>  <minimizedRMSD>  (1) 
2.55439258

$$$$
