
     RDKit          3D

 41 45  0  0  1  0  0  0  0  0999 V2000
   45.0410   34.5810   45.3120 C   0  0  0  0  0  0  0  0  0  0  0  0
   45.5440   34.6820   44.0240 C   0  0  0  0  0  0  0  0  0  0  0  0
   46.6110   33.8410   43.7260 C   0  0  0  0  0  0  0  0  0  0  0  0
   47.1150   32.9810   44.6550 N   0  0  0  0  0  0  0  0  0  0  0  0
   46.5620   32.9530   45.8830 C   0  0  0  0  0  0  0  0  0  0  0  0
   45.5420   33.7320   46.2210 N   0  0  0  0  0  0  0  0  0  0  0  0
   47.0280   32.0780   46.9220 N   0  0  0  0  0  0  0  0  0  0  0  0
   46.9760   32.2240   48.2560 C   0  0  0  0  0  0  0  0  0  0  0  0
   47.5540   31.1180   48.8090 N   0  0  0  0  0  0  0  0  0  0  0  0
   47.9490   30.3160   47.7820 C   0  0  0  0  0  0  0  0  0  0  0  0
   48.5800   29.0860   47.7380 C   0  0  0  0  0  0  0  0  0  0  0  0
   48.8700   28.4850   46.5490 N   0  0  0  0  0  0  0  0  0  0  0  0
   48.5360   29.0950   45.3760 C   0  0  0  0  0  0  0  0  0  0  0  0
   47.9220   30.2900   45.4200 N   0  0  0  0  0  0  0  0  0  0  0  0
   47.6230   30.9090   46.5760 C   0  0  0  0  0  0  0  0  0  0  0  0
   48.9520   28.4020   48.9290 N   0  0  0  0  0  0  0  0  0  0  0  0
   44.8390   35.8250   42.8610 S   0  0  0  0  0  0  0  0  0  0  0  0
   42.2620   33.5820   40.9400 N   0  0  0  0  0  0  0  0  0  0  0  0
   43.3640   33.7030   41.6670 N   0  0  0  0  0  0  0  0  0  0  0  0
   43.5300   35.0580   41.9310 C   0  0  0  0  0  0  0  0  0  0  0  0
   42.4840   35.7230   41.3320 C   0  0  0  0  0  0  0  0  0  0  0  0
   41.6890   34.8250   40.7130 C   0  0  0  0  0  0  0  0  0  0  0  0
   40.4500   34.9450   39.9090 C   0  0  1  0  0  0  0  0  0  0  0  0
   40.5650   35.0490   38.4130 C   0  0  0  0  0  0  0  0  0  0  0  0
   40.0340   33.8030   39.1000 C   0  0  2  0  0  0  0  0  0  0  0  0
   38.5840   33.5140   38.8160 C   0  0  0  0  0  0  0  0  0  0  0  0
   38.4450   32.1220   38.6930 F   0  0  0  0  0  0  0  0  0  0  0  0
   38.2080   34.0500   37.6070 F   0  0  0  0  0  0  0  0  0  0  0  0
   37.7830   33.9830   39.8060 F   0  0  0  0  0  0  0  0  0  0  0  0
   44.1961   35.2238   45.6001 H   0  0  0  0  0  0  0  0  0  0  0  0
   47.0567   33.8707   42.7208 H   0  0  0  0  0  0  0  0  0  0  0  0
   46.5470   33.0771   48.8020 H   0  0  0  0  0  0  0  0  0  0  0  0
   48.7648   28.6180   44.4116 H   0  0  0  0  0  0  0  0  0  0  0  0
   49.4211   27.4868   48.8722 H   0  0  0  0  0  0  0  0  0  0  0  0
   48.7522   28.8221   49.8480 H   0  0  0  0  0  0  0  0  0  0  0  0
   41.8838   32.6893   40.5921 H   0  0  0  0  0  0  0  0  0  0  0  0
   42.3222   36.8108   41.3543 H   0  0  0  0  0  0  0  0  0  0  0  0
   39.9662   35.5570   40.6845 H   0  0  0  0  0  0  0  0  0  0  0  0
   41.5528   35.0391   37.9292 H   0  0  0  0  0  0  0  0  0  0  0  0
   40.2020   35.7403   37.6382 H   0  0  0  0  0  0  0  0  0  0  0  0
   40.2831   32.7336   39.1659 H   0  0  0  0  0  0  0  0  0  0  0  0
  1  6  2  0
  2  1  1  0
  3  2  2  0
  3  4  1  0
  4  5  2  0
  5  6  1  0
  5  7  1  0
  7  8  1  0
  8  9  2  0
 10  9  1  0
 11 10  2  0
 11 16  1  0
 12 11  1  0
 13 14  1  0
 13 12  2  0
 14 15  2  0
 15  7  1  0
 15 10  1  0
 17  2  1  0
 18 19  1  0
 19 20  2  0
 20 17  1  0
 21 20  1  0
 22 18  1  0
 22 21  2  0
 23 22  1  0
 24 25  1  0
 24 23  1  0
 25 23  1  0
 26 25  1  0
 26 29  1  0
 27 26  1  0
 28 26  1  0
  1 30  1  0
  3 31  1  0
  8 32  1  0
 13 33  1  0
 16 34  1  0
 16 35  1  0
 18 36  1  0
 21 37  1  0
 23 38  1  1
 24 39  1  0
 24 40  1  0
 25 41  1  1
M  ISO  8  30  14  31  14  32  14  33  14  36   9  37  14  38  13  39  13
M  ISO  2  40  13  41  13
M  END
>  <minimizedAffinity>  (1) 
-7.20802784

>  <minimizedRMSD>  (1) 
0.499897748

$$$$
