
     RDKit          3D

 35 37  0  0  1  0  0  0  0  0999 V2000
   42.4310   33.6190   40.9350 N   0  0  0  0  0  0  0  0  0  0  0  0
   43.5550   33.6370   41.6380 N   0  0  0  0  0  0  0  0  0  0  0  0
   43.8810   34.9720   41.8470 C   0  0  0  0  0  0  0  0  0  0  0  0
   42.9070   35.7320   41.2410 C   0  0  0  0  0  0  0  0  0  0  0  0
   41.9970   34.9100   40.6690 C   0  0  0  0  0  0  0  0  0  0  0  0
   40.7600   35.1400   39.8810 C   0  0  1  0  0  0  0  0  0  0  0  0
   40.8740   35.2700   38.3860 C   0  0  0  0  0  0  0  0  0  0  0  0
   40.2530   34.0530   39.0470 C   0  0  2  0  0  0  0  0  0  0  0  0
   38.7830   33.8760   38.7800 C   0  0  0  0  0  0  0  0  0  0  0  0
   38.5290   32.5140   38.6430 F   0  0  0  0  0  0  0  0  0  0  0  0
   38.4490   34.4650   37.5710 F   0  0  0  0  0  0  0  0  0  0  0  0
   38.0320   34.4060   39.7860 F   0  0  0  0  0  0  0  0  0  0  0  0
   45.2880   35.6220   42.7240 S   0  0  0  0  0  0  0  0  0  0  0  0
   45.0560   34.5640   45.2710 C   0  0  0  0  0  0  0  0  0  0  0  0
   45.7490   34.5350   44.0680 C   0  0  0  0  0  0  0  0  0  0  0  0
   46.7920   33.6280   43.9860 C   0  0  0  0  0  0  0  0  0  0  0  0
   47.1010   32.8210   45.0380 N   0  0  0  0  0  0  0  0  0  0  0  0
   46.3900   32.9000   46.1730 C   0  0  0  0  0  0  0  0  0  0  0  0
   45.3840   33.7570   46.2890 N   0  0  0  0  0  0  0  0  0  0  0  0
   46.6420   32.0990   47.3200 N   0  0  0  0  0  0  0  0  0  0  0  0
   45.6510   32.0220   48.3360 C   0  0  0  0  0  0  0  0  0  0  0  0
   44.4130   31.9490   48.0830 N   0  0  0  0  0  0  0  0  0  0  0  0
   46.0140   32.0190   49.7290 N   0  0  0  0  0  0  0  0  0  0  0  0
   44.0600   31.9400   47.1230 H   0  0  0  0  0  0  0  0  0  0  0  0
   41.9461   32.7636   40.6282 H   0  0  0  0  0  0  0  0  0  0  0  0
   42.8735   36.8314   41.2243 H   0  0  0  0  0  0  0  0  0  0  0  0
   40.3277   35.7652   40.6761 H   0  0  0  0  0  0  0  0  0  0  0  0
   41.8554   35.1958   37.8947 H   0  0  0  0  0  0  0  0  0  0  0  0
   40.5607   36.0053   37.6303 H   0  0  0  0  0  0  0  0  0  0  0  0
   40.4210   32.9664   39.0790 H   0  0  0  0  0  0  0  0  0  0  0  0
   44.2178   35.2662   45.3910 H   0  0  0  0  0  0  0  0  0  0  0  0
   47.3789   33.5586   43.0582 H   0  0  0  0  0  0  0  0  0  0  0  0
   47.5284   31.5828   47.4133 H   0  0  0  0  0  0  0  0  0  0  0  0
   45.2823   31.9626   50.4517 H   0  0  0  0  0  0  0  0  0  0  0  0
   47.0054   32.0732   50.0030 H   0  0  0  0  0  0  0  0  0  0  0  0
  1  2  1  0
  2  3  2  0
  3 13  1  0
  4  3  1  0
  5  1  1  0
  5  4  2  0
  6  5  1  0
  7  8  1  0
  7  6  1  0
  8  6  1  0
  9  8  1  0
  9 12  1  0
 10  9  1  0
 11  9  1  0
 13 15  1  0
 14 19  2  0
 15 14  1  0
 16 15  2  0
 16 17  1  0
 17 18  2  0
 18 19  1  0
 18 20  1  0
 20 21  1  0
 21 23  1  0
 22 21  2  0
 24 22  1  0
  1 25  1  0
  4 26  1  0
  6 27  1  1
  7 28  1  0
  7 29  1  0
  8 30  1  1
 14 31  1  0
 16 32  1  0
 20 33  1  0
 23 34  1  0
 23 35  1  0
M  ISO  8  25   9  26  14  27  13  28  13  29  13  30  13  31  14  32  14
M  END
>  <minimizedAffinity>  (1) 
-6.9989481

>  <minimizedRMSD>  (1) 
0.0896169022

$$$$
