
     RDKit          3D

 35 38  0  0  1  0  0  0  0  0999 V2000
   43.0310   33.6230   40.4650 N   0  0  0  0  0  0  0  0  0  0  0  0
   44.1940   33.5090   41.0970 N   0  0  0  0  0  0  0  0  0  0  0  0
   44.5150   34.7660   41.5940 C   0  0  0  0  0  0  0  0  0  0  0  0
   43.5020   35.6260   41.2350 C   0  0  0  0  0  0  0  0  0  0  0  0
   42.5740   34.9300   40.5340 C   0  0  0  0  0  0  0  0  0  0  0  0
   41.2910   35.3190   39.8900 C   0  0  1  0  0  0  0  0  0  0  0  0
   41.2920   35.6310   38.4200 C   0  0  0  0  0  0  0  0  0  0  0  0
   40.6660   34.3660   38.9750 C   0  0  2  0  0  0  0  0  0  0  0  0
   39.1700   34.2860   38.8140 C   0  0  0  0  0  0  0  0  0  0  0  0
   38.7920   32.9410   38.9120 F   0  0  0  0  0  0  0  0  0  0  0  0
   38.8120   34.7000   37.5440 F   0  0  0  0  0  0  0  0  0  0  0  0
   38.5300   35.0270   39.7580 F   0  0  0  0  0  0  0  0  0  0  0  0
   45.9590   35.2230   42.5280 S   0  0  0  0  0  0  0  0  0  0  0  0
   45.2100   34.5320   45.1210 C   0  0  0  0  0  0  0  0  0  0  0  0
   46.0600   34.2790   44.0360 C   0  0  0  0  0  0  0  0  0  0  0  0
   46.9830   33.2470   44.2080 C   0  0  0  0  0  0  0  0  0  0  0  0
   47.0360   32.5400   45.3730 N   0  0  0  0  0  0  0  0  0  0  0  0
   46.1780   32.8560   46.3630 C   0  0  0  0  0  0  0  0  0  0  0  0
   45.2780   33.8260   46.2590 N   0  0  0  0  0  0  0  0  0  0  0  0
   46.1990   32.1250   47.6310 C   0  0  0  0  0  0  0  0  0  0  0  0
   45.0000   31.7860   48.2670 C   0  0  0  0  0  0  0  0  0  0  0  0
   45.3560   31.1060   49.4350 C   0  0  0  0  0  0  0  0  0  0  0  0
   46.7200   31.0560   49.4630 N   0  0  0  0  0  0  0  0  0  0  0  0
   47.1990   31.6680   48.3830 N   0  0  0  0  0  0  0  0  0  0  0  0
   42.5396   32.8513   39.9918 H   0  0  0  0  0  0  0  0  0  0  0  0
   43.4537   36.6981   41.4765 H   0  0  0  0  0  0  0  0  0  0  0  0
   40.9571   35.8601   40.7877 H   0  0  0  0  0  0  0  0  0  0  0  0
   42.2265   35.5812   37.8420 H   0  0  0  0  0  0  0  0  0  0  0  0
   40.9563   36.4677   37.7898 H   0  0  0  0  0  0  0  0  0  0  0  0
   40.7817   33.2783   38.8587 H   0  0  0  0  0  0  0  0  0  0  0  0
   44.4633   35.3353   45.0365 H   0  0  0  0  0  0  0  0  0  0  0  0
   47.6781   33.0000   43.3920 H   0  0  0  0  0  0  0  0  0  0  0  0
   43.9812   32.0098   47.9178 H   0  0  0  0  0  0  0  0  0  0  0  0
   44.6691   30.6908   50.1872 H   0  0  0  0  0  0  0  0  0  0  0  0
   47.2871   30.6154   50.2014 H   0  0  0  0  0  0  0  0  0  0  0  0
  1  5  1  0
  1  2  1  0
  2  3  2  0
  3 13  1  0
  4  3  1  0
  5  4  2  0
  6  5  1  0
  7  8  1  0
  7  6  1  0
  8  6  1  0
  9 10  1  0
  9  8  1  0
  9 12  1  0
 11  9  1  0
 13 15  1  0
 14 19  2  0
 15 16  2  0
 15 14  1  0
 16 17  1  0
 17 18  2  0
 18 20  1  0
 19 18  1  0
 20 21  1  0
 20 24  2  0
 21 22  2  0
 22 23  1  0
 24 23  1  0
  1 25  1  0
  4 26  1  0
  6 27  1  1
  7 28  1  0
  7 29  1  0
  8 30  1  6
 14 31  1  0
 16 32  1  0
 21 33  1  0
 22 34  1  0
 23 35  1  0
M  ISO  8  25   9  26  14  27  13  28  13  29  13  30  13  31  14  32  14
M  ISO  3  33  14  34  14  35   9
M  END
>  <minimizedAffinity>  (1) 
-6.92935038

>  <minimizedRMSD>  (1) 
0.766933322

$$$$
