
     RDKit          3D

 37 40  0  0  1  0  0  0  0  0999 V2000
   42.4920   33.7630   40.0770 N   0  0  0  0  0  0  0  0  0  0  0  0
   43.6040   33.9720   40.7740 N   0  0  0  0  0  0  0  0  0  0  0  0
   43.5050   35.2370   41.3390 C   0  0  0  0  0  0  0  0  0  0  0  0
   42.2980   35.7560   40.9480 C   0  0  0  0  0  0  0  0  0  0  0  0
   41.6530   34.8630   40.1670 C   0  0  0  0  0  0  0  0  0  0  0  0
   40.3460   34.8760   39.4620 C   0  0  1  0  0  0  0  0  0  0  0  0
   40.3420   34.9510   37.9590 C   0  0  0  0  0  0  0  0  0  0  0  0
   39.9580   33.6870   38.7050 C   0  0  2  0  0  0  0  0  0  0  0  0
   38.5160   33.2810   38.5490 C   0  0  0  0  0  0  0  0  0  0  0  0
   38.4700   31.8840   38.4620 F   0  0  0  0  0  0  0  0  0  0  0  0
   38.0090   33.7620   37.3590 F   0  0  0  0  0  0  0  0  0  0  0  0
   37.7590   33.7330   39.5880 F   0  0  0  0  0  0  0  0  0  0  0  0
   44.7070   36.0430   42.3680 S   0  0  0  0  0  0  0  0  0  0  0  0
   44.6240   35.2860   45.0450 C   0  0  0  0  0  0  0  0  0  0  0  0
   45.1380   35.0180   43.7680 C   0  0  0  0  0  0  0  0  0  0  0  0
   45.9910   33.9120   43.6500 C   0  0  0  0  0  0  0  0  0  0  0  0
   46.2870   33.1510   44.7450 N   0  0  0  0  0  0  0  0  0  0  0  0
   45.7450   33.4850   45.9330 C   0  0  0  0  0  0  0  0  0  0  0  0
   44.9330   34.5210   46.1010 N   0  0  0  0  0  0  0  0  0  0  0  0
   46.0690   32.6590   47.1140 C   0  0  0  0  0  0  0  0  0  0  0  0
   45.0610   32.3080   48.0190 C   0  0  0  0  0  0  0  0  0  0  0  0
   45.3940   31.5330   49.1130 C   0  0  0  0  0  0  0  0  0  0  0  0
   46.6900   31.1100   49.3190 C   0  0  0  0  0  0  0  0  0  0  0  0
   47.6800   31.4730   48.4020 C   0  0  0  0  0  0  0  0  0  0  0  0
   47.3230   32.2270   47.3470 N   0  0  0  0  0  0  0  0  0  0  0  0
   42.2832   32.9058   39.5455 H   0  0  0  0  0  0  0  0  0  0  0  0
   41.9137   36.7480   41.2276 H   0  0  0  0  0  0  0  0  0  0  0  0
   39.8765   35.4684   40.2612 H   0  0  0  0  0  0  0  0  0  0  0  0
   41.2895   35.0019   37.4025 H   0  0  0  0  0  0  0  0  0  0  0  0
   39.8718   35.5950   37.2012 H   0  0  0  0  0  0  0  0  0  0  0  0
   40.2916   32.6405   38.7639 H   0  0  0  0  0  0  0  0  0  0  0  0
   43.9509   36.1450   45.1832 H   0  0  0  0  0  0  0  0  0  0  0  0
   46.4238   33.6559   42.6717 H   0  0  0  0  0  0  0  0  0  0  0  0
   44.0248   32.6423   47.8625 H   0  0  0  0  0  0  0  0  0  0  0  0
   44.6118   31.2485   49.8321 H   0  0  0  0  0  0  0  0  0  0  0  0
   46.9417   30.4940   50.1949 H   0  0  0  0  0  0  0  0  0  0  0  0
   48.7228   31.1509   48.5392 H   0  0  0  0  0  0  0  0  0  0  0  0
  1  5  1  0
  1  2  1  0
  2  3  2  0
  3 13  1  0
  4  3  1  0
  5  4  2  0
  6  5  1  0
  7  8  1  0
  7  6  1  0
  8  6  1  0
  9  8  1  0
  9 12  1  0
 10  9  1  0
 11  9  1  0
 13 15  1  0
 14 19  2  0
 15 14  1  0
 16 15  2  0
 16 17  1  0
 17 18  2  0
 18 19  1  0
 18 20  1  0
 20 25  1  0
 20 21  2  0
 21 22  1  0
 22 23  2  0
 24 23  1  0
 25 24  2  0
  1 26  1  0
  4 27  1  0
  6 28  1  1
  7 29  1  0
  7 30  1  0
  8 31  1  6
 14 32  1  0
 16 33  1  0
 21 34  1  0
 22 35  1  0
 23 36  1  0
 24 37  1  0
M  ISO  8  26   9  27  14  28  13  29  13  30  13  31  13  32  14  33  14
M  ISO  4  34  14  35  14  36  14  37  14
M  END
>  <minimizedAffinity>  (1) 
-6.77284479

>  <minimizedRMSD>  (1) 
0.870379984

$$$$
