
     RDKit          3D

 41 44  0  0  1  0  0  0  0  0999 V2000
   42.6140   33.6270   41.0830 N   0  0  0  0  0  0  0  0  0  0  0  0
   43.7150   33.5300   41.8070 N   0  0  0  0  0  0  0  0  0  0  0  0
   44.1560   34.8270   42.0390 C   0  0  0  0  0  0  0  0  0  0  0  0
   43.2640   35.6670   41.4220 C   0  0  0  0  0  0  0  0  0  0  0  0
   42.2930   34.9500   40.8170 C   0  0  0  0  0  0  0  0  0  0  0  0
   41.1060   35.2950   40.0090 C   0  0  1  0  0  0  0  0  0  0  0  0
   41.2770   35.4980   38.5280 C   0  0  0  0  0  0  0  0  0  0  0  0
   40.5720   34.2830   39.1000 C   0  0  2  0  0  0  0  0  0  0  0  0
   39.1010   34.1970   38.7760 C   0  0  0  0  0  0  0  0  0  0  0  0
   38.7490   32.8530   38.6960 F   0  0  0  0  0  0  0  0  0  0  0  0
   38.8690   34.7360   37.5200 F   0  0  0  0  0  0  0  0  0  0  0  0
   38.3550   34.8520   39.7110 F   0  0  0  0  0  0  0  0  0  0  0  0
   45.5960   35.3500   42.9450 S   0  0  0  0  0  0  0  0  0  0  0  0
   45.4570   34.1600   45.4320 C   0  0  0  0  0  0  0  0  0  0  0  0
   46.0280   34.1420   44.1710 C   0  0  0  0  0  0  0  0  0  0  0  0
   46.9430   33.1250   43.9600 C   0  0  0  0  0  0  0  0  0  0  0  0
   47.2460   32.2180   44.9330 N   0  0  0  0  0  0  0  0  0  0  0  0
   46.6370   32.3180   46.1310 C   0  0  0  0  0  0  0  0  0  0  0  0
   45.7530   33.2730   46.3880 N   0  0  0  0  0  0  0  0  0  0  0  0
   46.9970   31.3080   47.1670 C   0  0  0  0  0  0  0  0  0  0  0  0
   45.8130   30.4040   47.4370 C   0  0  0  0  0  0  0  0  0  0  0  0
   44.9260   31.2600   48.2880 C   0  0  0  0  0  0  0  0  0  0  0  0
   45.8030   32.2870   48.9490 C   0  0  0  0  0  0  0  0  0  0  0  0
   47.2240   31.9530   48.5170 C   0  0  0  0  0  0  0  0  0  0  0  0
   42.0626   32.8205   40.7567 H   0  0  0  0  0  0  0  0  0  0  0  0
   43.3302   36.7650   41.4204 H   0  0  0  0  0  0  0  0  0  0  0  0
   40.6822   35.9025   40.8222 H   0  0  0  0  0  0  0  0  0  0  0  0
   42.2693   35.3977   38.0641 H   0  0  0  0  0  0  0  0  0  0  0  0
   41.0279   36.2885   37.8048 H   0  0  0  0  0  0  0  0  0  0  0  0
   40.6823   33.1888   39.0770 H   0  0  0  0  0  0  0  0  0  0  0  0
   44.7211   34.9453   45.6596 H   0  0  0  0  0  0  0  0  0  0  0  0
   47.4392   33.0460   42.9814 H   0  0  0  0  0  0  0  0  0  0  0  0
   47.8889   30.7908   46.7835 H   0  0  0  0  0  0  0  0  0  0  0  0
   45.3098   30.1207   46.5008 H   0  0  0  0  0  0  0  0  0  0  0  0
   46.0918   29.4547   47.9177 H   0  0  0  0  0  0  0  0  0  0  0  0
   44.1689   31.7565   47.6633 H   0  0  0  0  0  0  0  0  0  0  0  0
   44.4004   30.6526   49.0395 H   0  0  0  0  0  0  0  0  0  0  0  0
   45.5281   33.2984   48.6151 H   0  0  0  0  0  0  0  0  0  0  0  0
   45.6961   32.2688   50.0436 H   0  0  0  0  0  0  0  0  0  0  0  0
   47.7016   31.2538   49.2191 H   0  0  0  0  0  0  0  0  0  0  0  0
   47.8952   32.8239   48.4860 H   0  0  0  0  0  0  0  0  0  0  0  0
  1  2  1  0
  2  3  2  0
  3 13  1  0
  4  3  1  0
  5  1  1  0
  5  4  2  0
  6  5  1  0
  7  8  1  0
  7  6  1  0
  8  6  1  0
  9  8  1  0
  9 12  1  0
 10  9  1  0
 11  9  1  0
 13 15  1  0
 14 19  2  0
 15 14  1  0
 16 15  2  0
 16 17  1  0
 17 18  2  0
 18 19  1  0
 18 20  1  0
 20 21  1  0
 20 24  1  0
 21 22  1  0
 22 23  1  0
 24 23  1  0
  1 25  1  0
  4 26  1  0
  6 27  1  1
  7 28  1  0
  7 29  1  0
  8 30  1  1
 14 31  1  0
 16 32  1  0
 20 33  1  0
 21 34  1  0
 21 35  1  0
 22 36  1  0
 22 37  1  0
 23 38  1  0
 23 39  1  0
 24 40  1  0
 24 41  1  0
M  ISO  8  25   9  26  14  27  13  28  13  29  13  30  13  31  14  32  14
M  ISO  8  33  13  34  13  35  13  36  13  37  13  38  13  39  13  40  13
M  ISO  1  41  13
M  END
>  <minimizedAffinity>  (1) 
-6.58641768

>  <minimizedRMSD>  (1) 
0.654152095

$$$$
