
     RDKit          3D

 33 36  0  0  1  0  0  0  0  0999 V2000
   42.2600   33.5710   40.9320 N   0  0  0  0  0  0  0  0  0  0  0  0
   43.3770   33.6260   41.6380 N   0  0  0  0  0  0  0  0  0  0  0  0
   43.6780   34.9740   41.7940 C   0  0  0  0  0  0  0  0  0  0  0  0
   42.6930   35.6900   41.1530 C   0  0  0  0  0  0  0  0  0  0  0  0
   41.7980   34.8380   40.6080 C   0  0  0  0  0  0  0  0  0  0  0  0
   40.5660   35.0090   39.8120 C   0  0  1  0  0  0  0  0  0  0  0  0
   40.6840   35.1280   38.3180 C   0  0  0  0  0  0  0  0  0  0  0  0
   40.1140   33.8910   38.9850 C   0  0  2  0  0  0  0  0  0  0  0  0
   38.6550   33.6560   38.7070 C   0  0  0  0  0  0  0  0  0  0  0  0
   38.4620   32.2810   38.5180 F   0  0  0  0  0  0  0  0  0  0  0  0
   38.2910   34.2660   37.5160 F   0  0  0  0  0  0  0  0  0  0  0  0
   37.8730   34.1070   39.7240 F   0  0  0  0  0  0  0  0  0  0  0  0
   45.0700   35.6750   42.6520 S   0  0  0  0  0  0  0  0  0  0  0  0
   44.8680   34.8160   45.2750 C   0  0  0  0  0  0  0  0  0  0  0  0
   45.5130   34.6770   44.0570 C   0  0  0  0  0  0  0  0  0  0  0  0
   46.5120   33.7210   44.0190 C   0  0  0  0  0  0  0  0  0  0  0  0
   46.8200   32.9770   45.1270 N   0  0  0  0  0  0  0  0  0  0  0  0
   46.1420   33.1770   46.2730 C   0  0  0  0  0  0  0  0  0  0  0  0
   45.1770   34.0840   46.3470 N   0  0  0  0  0  0  0  0  0  0  0  0
   46.4680   32.3850   47.4540 C   0  0  0  0  0  0  0  0  0  0  0  0
   47.6310   32.0850   48.0940 N   0  0  0  0  0  0  0  0  0  0  0  0
   47.3740   31.3270   49.1190 O   0  0  0  0  0  0  0  0  0  0  0  0
   46.0870   31.0900   49.2170 C   0  0  0  0  0  0  0  0  0  0  0  0
   45.5090   31.7450   48.1830 N   0  0  0  0  0  0  0  0  0  0  0  0
   41.7914   32.6960   40.6570 H   0  0  0  0  0  0  0  0  0  0  0  0
   42.6424   36.7872   41.0937 H   0  0  0  0  0  0  0  0  0  0  0  0
   40.1019   35.6250   40.5964 H   0  0  0  0  0  0  0  0  0  0  0  0
   41.6712   35.0934   37.8341 H   0  0  0  0  0  0  0  0  0  0  0  0
   40.3429   35.8411   37.5531 H   0  0  0  0  0  0  0  0  0  0  0  0
   40.3299   32.8133   39.0297 H   0  0  0  0  0  0  0  0  0  0  0  0
   44.0654   35.5631   45.3624 H   0  0  0  0  0  0  0  0  0  0  0  0
   47.0678   33.5557   43.0843 H   0  0  0  0  0  0  0  0  0  0  0  0
   45.5814   30.4833   49.9827 H   0  0  0  0  0  0  0  0  0  0  0  0
  1  2  1  0
  2  3  2  0
  3 13  1  0
  4  3  1  0
  5  1  1  0
  5  4  2  0
  6  5  1  0
  7  8  1  0
  7  6  1  0
  8  6  1  0
  9  8  1  0
  9 12  1  0
 10  9  1  0
 11  9  1  0
 13 15  1  0
 14 19  2  0
 15 14  1  0
 16 15  2  0
 16 17  1  0
 17 18  2  0
 18 19  1  0
 18 20  1  0
 20 21  2  0
 20 24  1  0
 21 22  1  0
 22 23  1  0
 24 23  2  0
  1 25  1  0
  4 26  1  0
  6 27  1  1
  7 28  1  0
  7 29  1  0
  8 30  1  1
 14 31  1  0
 16 32  1  0
 23 33  1  0
M  ISO  8  25   9  26  14  27  13  28  13  29  13  30  13  31  14  32  14
M  ISO  1  33  14
M  END
>  <minimizedAffinity>  (1) 
-6.42949486

>  <minimizedRMSD>  (1) 
0.471153527

$$$$
