
     RDKit          3D

 40 42  0  0  1  0  0  0  0  0999 V2000
   42.6250   33.6260   41.0870 N   0  0  0  0  0  0  0  0  0  0  0  0
   43.7360   33.5280   41.8030 N   0  0  0  0  0  0  0  0  0  0  0  0
   44.2050   34.8230   41.9990 C   0  0  0  0  0  0  0  0  0  0  0  0
   43.3260   35.6750   41.3700 C   0  0  0  0  0  0  0  0  0  0  0  0
   42.3390   34.9530   40.7980 C   0  0  0  0  0  0  0  0  0  0  0  0
   41.1450   35.3070   39.9970 C   0  0  1  0  0  0  0  0  0  0  0  0
   41.3010   35.4910   38.5140 C   0  0  0  0  0  0  0  0  0  0  0  0
   40.5830   34.2920   39.1070 C   0  0  2  0  0  0  0  0  0  0  0  0
   39.1090   34.2370   38.7980 C   0  0  0  0  0  0  0  0  0  0  0  0
   38.7210   32.8890   38.7910 F   0  0  0  0  0  0  0  0  0  0  0  0
   38.8620   34.7300   37.5350 F   0  0  0  0  0  0  0  0  0  0  0  0
   38.3840   34.9340   39.7080 F   0  0  0  0  0  0  0  0  0  0  0  0
   45.6620   35.3290   42.8850 S   0  0  0  0  0  0  0  0  0  0  0  0
   45.2400   34.3500   45.4320 C   0  0  0  0  0  0  0  0  0  0  0  0
   45.9760   34.2440   44.2590 C   0  0  0  0  0  0  0  0  0  0  0  0
   46.9410   33.2520   44.2530 C   0  0  0  0  0  0  0  0  0  0  0  0
   47.1400   32.4460   45.3330 N   0  0  0  0  0  0  0  0  0  0  0  0
   46.3770   32.6210   46.4300 C   0  0  0  0  0  0  0  0  0  0  0  0
   45.4380   33.5560   46.4910 N   0  0  0  0  0  0  0  0  0  0  0  0
   46.5240   31.7860   47.6610 C   0  0  0  0  0  0  0  0  0  0  0  0
   47.8250   32.0040   48.3700 C   0  0  0  0  0  0  0  0  0  0  0  0
   46.4170   30.3300   47.1940 C   0  0  0  0  0  0  0  0  0  0  0  0
   45.3400   32.1200   48.5590 C   0  0  0  0  0  0  0  0  0  0  0  0
   42.0513   32.8254   40.7857 H   0  0  0  0  0  0  0  0  0  0  0  0
   43.4138   36.7710   41.3383 H   0  0  0  0  0  0  0  0  0  0  0  0
   40.7406   35.9304   40.8081 H   0  0  0  0  0  0  0  0  0  0  0  0
   42.2861   35.3701   38.0396 H   0  0  0  0  0  0  0  0  0  0  0  0
   41.0556   36.2778   37.7855 H   0  0  0  0  0  0  0  0  0  0  0  0
   40.6745   33.1959   39.0971 H   0  0  0  0  0  0  0  0  0  0  0  0
   44.4586   35.1218   45.4934 H   0  0  0  0  0  0  0  0  0  0  0  0
   47.5615   33.1112   43.3557 H   0  0  0  0  0  0  0  0  0  0  0  0
   47.6593   31.9762   49.4571 H   0  0  0  0  0  0  0  0  0  0  0  0
   48.5341   31.2121   48.0868 H   0  0  0  0  0  0  0  0  0  0  0  0
   48.2372   32.9837   48.0868 H   0  0  0  0  0  0  0  0  0  0  0  0
   46.3682   29.6666   48.0701 H   0  0  0  0  0  0  0  0  0  0  0  0
   45.5073   30.2051   46.5884 H   0  0  0  0  0  0  0  0  0  0  0  0
   47.2987   30.0734   46.5884 H   0  0  0  0  0  0  0  0  0  0  0  0
   45.6435   32.0344   49.6128 H   0  0  0  0  0  0  0  0  0  0  0  0
   45.0046   33.1478   48.3564 H   0  0  0  0  0  0  0  0  0  0  0  0
   44.5169   31.4190   48.3564 H   0  0  0  0  0  0  0  0  0  0  0  0
  1  2  1  0
  2  3  2  0
  3 13  1  0
  4  3  1  0
  5  1  1  0
  5  4  2  0
  6  5  1  0
  7  8  1  0
  7  6  1  0
  8  6  1  0
  9  8  1  0
  9 12  1  0
 10  9  1  0
 11  9  1  0
 13 15  1  0
 14 19  2  0
 15 14  1  0
 16 15  2  0
 16 17  1  0
 17 18  2  0
 18 19  1  0
 18 20  1  0
 20 21  1  0
 20 23  1  0
 22 20  1  0
  1 24  1  0
  4 25  1  0
  6 26  1  1
  7 27  1  0
  7 28  1  0
  8 29  1  1
 14 30  1  0
 16 31  1  0
 21 32  1  0
 21 33  1  0
 21 34  1  0
 22 35  1  0
 22 36  1  0
 22 37  1  0
 23 38  1  0
 23 39  1  0
 23 40  1  0
M  ISO  8  24   9  25  14  26  13  27  13  28  13  29  13  30  14  31  14
M  ISO  8  32   8  33   8  34   8  35   8  36   8  37   8  38   8  39   8
M  ISO  1  40   8
M  END
>  <minimizedAffinity>  (1) 
-6.25967026

>  <minimizedRMSD>  (1) 
0.641269922

$$$$
