
     RDKit          3D

 37 39  0  0  1  0  0  0  0  0999 V2000
   42.6390   33.6190   41.0760 N   0  0  0  0  0  0  0  0  0  0  0  0
   43.7490   33.5130   41.7900 N   0  0  0  0  0  0  0  0  0  0  0  0
   44.2270   34.8040   41.9880 C   0  0  0  0  0  0  0  0  0  0  0  0
   43.3510   35.6600   41.3630 C   0  0  0  0  0  0  0  0  0  0  0  0
   42.3580   34.9470   40.7900 C   0  0  0  0  0  0  0  0  0  0  0  0
   41.1670   35.3090   39.9850 C   0  0  1  0  0  0  0  0  0  0  0  0
   41.3280   35.4920   38.5000 C   0  0  0  0  0  0  0  0  0  0  0  0
   40.6030   34.2980   39.0920 C   0  0  2  0  0  0  0  0  0  0  0  0
   39.1320   34.2590   38.7800 C   0  0  0  0  0  0  0  0  0  0  0  0
   38.7190   32.9180   38.7850 F   0  0  0  0  0  0  0  0  0  0  0  0
   38.8800   34.7550   37.5240 F   0  0  0  0  0  0  0  0  0  0  0  0
   38.4090   34.9650   39.6990 F   0  0  0  0  0  0  0  0  0  0  0  0
   45.6910   35.3030   42.8670 S   0  0  0  0  0  0  0  0  0  0  0  0
   45.2180   34.3740   45.4200 C   0  0  0  0  0  0  0  0  0  0  0  0
   45.9710   34.2480   44.2650 C   0  0  0  0  0  0  0  0  0  0  0  0
   46.9320   33.2520   44.3070 C   0  0  0  0  0  0  0  0  0  0  0  0
   47.1090   32.4670   45.4030 N   0  0  0  0  0  0  0  0  0  0  0  0
   46.3260   32.6650   46.4810 C   0  0  0  0  0  0  0  0  0  0  0  0
   45.3890   33.6040   46.5000 N   0  0  0  0  0  0  0  0  0  0  0  0
   46.5230   31.8060   47.6780 C   0  0  0  0  0  0  0  0  0  0  0  0
   45.4890   32.1470   48.7340 C   0  0  0  0  0  0  0  0  0  0  0  0
   47.8890   32.1120   48.3040 C   0  0  0  0  0  0  0  0  0  0  0  0
   42.0613   32.8218   40.7733 H   0  0  0  0  0  0  0  0  0  0  0  0
   43.4447   36.7556   41.3343 H   0  0  0  0  0  0  0  0  0  0  0  0
   40.7639   35.9344   40.7952 H   0  0  0  0  0  0  0  0  0  0  0  0
   42.3136   35.3658   38.0280 H   0  0  0  0  0  0  0  0  0  0  0  0
   41.0886   36.2796   37.7704 H   0  0  0  0  0  0  0  0  0  0  0  0
   40.6893   33.2014   39.0821 H   0  0  0  0  0  0  0  0  0  0  0  0
   44.4376   35.1486   45.4510 H   0  0  0  0  0  0  0  0  0  0  0  0
   47.5718   33.0909   43.4268 H   0  0  0  0  0  0  0  0  0  0  0  0
   46.4427   30.7548   47.3642 H   0  0  0  0  0  0  0  0  0  0  0  0
   45.9248   32.0033   49.7337 H   0  0  0  0  0  0  0  0  0  0  0  0
   45.1775   33.1955   48.6171 H   0  0  0  0  0  0  0  0  0  0  0  0
   44.6149   31.4895   48.6171 H   0  0  0  0  0  0  0  0  0  0  0  0
   47.8025   32.0926   49.4004 H   0  0  0  0  0  0  0  0  0  0  0  0
   48.6185   31.3550   47.9803 H   0  0  0  0  0  0  0  0  0  0  0  0
   48.2259   33.1079   47.9803 H   0  0  0  0  0  0  0  0  0  0  0  0
  1  2  1  0
  2  3  2  0
  3 13  1  0
  4  3  1  0
  5  1  1  0
  5  4  2  0
  6  5  1  0
  7  8  1  0
  7  6  1  0
  8  6  1  0
  9 10  1  0
  9  8  1  0
  9 12  1  0
 11  9  1  0
 13 15  1  0
 14 19  2  0
 15 16  2  0
 15 14  1  0
 16 17  1  0
 17 18  2  0
 18 19  1  0
 18 20  1  0
 20 22  1  0
 20 21  1  0
  1 23  1  0
  4 24  1  0
  6 25  1  1
  7 26  1  0
  7 27  1  0
  8 28  1  1
 14 29  1  0
 16 30  1  0
 20 31  1  0
 21 32  1  0
 21 33  1  0
 21 34  1  0
 22 35  1  0
 22 36  1  0
 22 37  1  0
M  ISO  8  23   9  24  14  25  13  26  13  27  13  28  13  29  14  30  14
M  ISO  7  31   8  32   8  33   8  34   8  35   8  36   8  37   8
M  END
>  <minimizedAffinity>  (1) 
-6.06123734

>  <minimizedRMSD>  (1) 
0.506402969

$$$$
