
     RDKit          3D

 41 44  0  0  1  0  0  0  0  0999 V2000
   45.1080   35.6940   42.7370 S   0  0  0  0  0  0  0  0  0  0  0  0
   45.0270   34.5910   45.2690 C   0  0  0  0  0  0  0  0  0  0  0  0
   45.6560   34.5870   44.0230 C   0  0  0  0  0  0  0  0  0  0  0  0
   46.7170   33.6840   43.8500 C   0  0  0  0  0  0  0  0  0  0  0  0
   47.0900   32.8650   44.8710 N   0  0  0  0  0  0  0  0  0  0  0  0
   46.4320   32.9280   46.0470 C   0  0  0  0  0  0  0  0  0  0  0  0
   45.4160   33.7700   46.2590 N   0  0  0  0  0  0  0  0  0  0  0  0
   46.8110   32.0650   47.1560 C   0  0  0  0  0  0  0  0  0  0  0  0
   47.7170   32.3840   48.1590 C   0  0  0  0  0  0  0  0  0  0  0  0
   47.8640   31.3960   49.0490 N   0  0  0  0  0  0  0  0  0  0  0  0
   47.0180   30.4100   48.5920 C   0  0  0  0  0  0  0  0  0  0  0  0
   46.4100   30.8300   47.4760 N   0  0  0  0  0  0  0  0  0  0  0  0
   45.4500   30.0420   46.7260 C   0  0  0  0  0  0  0  0  0  0  0  0
   45.0670   28.7820   47.4990 C   0  0  0  0  0  0  0  0  0  0  0  0
   42.3050   33.6220   40.9840 N   0  0  0  0  0  0  0  0  0  0  0  0
   43.4230   33.6840   41.6930 N   0  0  0  0  0  0  0  0  0  0  0  0
   43.7140   35.0180   41.8670 C   0  0  0  0  0  0  0  0  0  0  0  0
   42.7330   35.7380   41.2400 C   0  0  0  0  0  0  0  0  0  0  0  0
   41.8450   34.9040   40.6820 C   0  0  0  0  0  0  0  0  0  0  0  0
   40.6030   35.0830   39.8770 C   0  0  1  0  0  0  0  0  0  0  0  0
   40.7540   35.2050   38.3680 C   0  0  0  0  0  0  0  0  0  0  0  0
   40.1490   33.9970   39.0350 C   0  0  2  0  0  0  0  0  0  0  0  0
   38.7010   33.7640   38.7470 C   0  0  0  0  0  0  0  0  0  0  0  0
   38.5190   32.4070   38.4740 F   0  0  0  0  0  0  0  0  0  0  0  0
   38.3130   34.4440   37.6170 F   0  0  0  0  0  0  0  0  0  0  0  0
   37.9250   34.1590   39.7970 F   0  0  0  0  0  0  0  0  0  0  0  0
   44.1912   35.2842   45.4451 H   0  0  0  0  0  0  0  0  0  0  0  0
   47.2477   33.6384   42.8876 H   0  0  0  0  0  0  0  0  0  0  0  0
   48.2540   33.3424   48.2154 H   0  0  0  0  0  0  0  0  0  0  0  0
   46.8658   29.4307   49.0694 H   0  0  0  0  0  0  0  0  0  0  0  0
   44.5475   30.6453   46.5483 H   0  0  0  0  0  0  0  0  0  0  0  0
   45.9049   29.7461   45.7692 H   0  0  0  0  0  0  0  0  0  0  0  0
   45.1277   28.9818   48.5790 H   0  0  0  0  0  0  0  0  0  0  0  0
   44.0394   28.4895   47.2374 H   0  0  0  0  0  0  0  0  0  0  0  0
   45.7580   27.9671   47.2374 H   0  0  0  0  0  0  0  0  0  0  0  0
   41.8405   32.7490   40.6961 H   0  0  0  0  0  0  0  0  0  0  0  0
   42.6814   36.8361   41.2002 H   0  0  0  0  0  0  0  0  0  0  0  0
   40.1307   35.6864   40.6662 H   0  0  0  0  0  0  0  0  0  0  0  0
   41.7477   35.1448   37.9001 H   0  0  0  0  0  0  0  0  0  0  0  0
   40.4453   35.9233   37.5942 H   0  0  0  0  0  0  0  0  0  0  0  0
   40.3454   32.9155   39.0765 H   0  0  0  0  0  0  0  0  0  0  0  0
  1  3  1  0
  2  7  2  0
  3  2  1  0
  4  3  2  0
  4  5  1  0
  5  6  2  0
  6  7  1  0
  6  8  1  0
  8 12  1  0
  8  9  2  0
  9 10  1  0
 11 10  2  0
 12 11  1  0
 13 12  1  0
 13 14  1  0
 15 16  1  0
 16 17  2  0
 17  1  1  0
 18 17  1  0
 19 15  1  0
 19 18  2  0
 20 19  1  0
 21 22  1  0
 21 20  1  0
 22 20  1  0
 23 22  1  0
 23 26  1  0
 24 23  1  0
 25 23  1  0
  2 27  1  0
  4 28  1  0
  9 29  1  0
 11 30  1  0
 13 31  1  0
 13 32  1  0
 14 33  1  0
 14 34  1  0
 14 35  1  0
 15 36  1  0
 18 37  1  0
 20 38  1  1
 21 39  1  0
 21 40  1  0
 22 41  1  1
M  ISO  8  27  14  28  14  29  14  30  14  31   8  32   8  33   8  34   8
M  ISO  7  35   8  36   9  37  14  38  13  39  13  40  13  41  13
M  END
>  <minimizedAffinity>  (1) 
-6.4009285

>  <minimizedRMSD>  (1) 
1.45029771

$$$$
