
     RDKit          3D

 32 33  0  0  1  0  0  0  0  0999 V2000
   49.0720   33.7220   42.7200 C   0  0  2  0  0  0  0  0  0  0  0  0
   47.6810   33.9970   42.5200 C   0  0  2  0  0  0  0  0  0  0  0  0
   47.6280   35.4130   41.9190 C   0  0  0  0  0  0  0  0  0  0  0  0
   48.9940   35.8070   41.4790 C   0  0  0  0  0  0  0  0  0  0  0  0
   49.8140   35.0950   42.4960 C   0  0  0  0  0  0  0  0  0  0  0  0
   46.8380   33.9830   43.7650 C   0  0  0  0  0  0  0  0  0  0  0  0
   45.8320   34.6620   43.8220 O   0  0  0  0  0  0  0  0  0  0  0  0
   47.2980   33.1540   44.7950 N   0  0  0  0  0  0  0  0  0  0  0  0
   46.4360   33.2030   45.9250 C   0  0  0  0  0  0  0  0  0  0  0  0
   45.3630   33.7810   46.2820 N   0  0  0  0  0  0  0  0  0  0  0  0
   46.7030   32.4300   47.1180 N   0  0  0  0  0  0  0  0  0  0  0  0
   44.7730   34.4440   45.7760 H   0  0  0  0  0  0  0  0  0  0  0  0
   49.7550   32.8060   41.7980 C   0  0  0  0  0  0  0  0  0  0  0  0
   48.9540   32.1540   40.8300 C   0  0  0  0  0  0  0  0  0  0  0  0
   49.5740   31.3160   39.9170 C   0  0  0  0  0  0  0  0  0  0  0  0
   50.9410   31.1810   40.0250 N   0  0  0  0  0  0  0  0  0  0  0  0
   51.6790   31.8010   40.9430 C   0  0  0  0  0  0  0  0  0  0  0  0
   51.0660   32.5970   41.8060 N   0  0  0  0  0  0  0  0  0  0  0  0
   49.1107   33.2442   43.7101 H   0  0  0  0  0  0  0  0  0  0  0  0
   47.2652   33.2030   41.8823 H   0  0  0  0  0  0  0  0  0  0  0  0
   46.9463   35.4214   41.0558 H   0  0  0  0  0  0  0  0  0  0  0  0
   47.2633   36.1232   42.6757 H   0  0  0  0  0  0  0  0  0  0  0  0
   49.2116   35.4537   40.4603 H   0  0  0  0  0  0  0  0  0  0  0  0
   49.1662   36.8921   41.4249 H   0  0  0  0  0  0  0  0  0  0  0  0
   50.8351   34.9275   42.1227 H   0  0  0  0  0  0  0  0  0  0  0  0
   49.9129   35.6711   43.4279 H   0  0  0  0  0  0  0  0  0  0  0  0
   48.1524   32.5812   44.7412 H   0  0  0  0  0  0  0  0  0  0  0  0
   46.0612   32.4850   47.9217 H   0  0  0  0  0  0  0  0  0  0  0  0
   47.5350   31.8245   47.1639 H   0  0  0  0  0  0  0  0  0  0  0  0
   47.8653   32.3089   40.8032 H   0  0  0  0  0  0  0  0  0  0  0  0
   49.0020   30.7838   39.1427 H   0  0  0  0  0  0  0  0  0  0  0  0
   52.7687   31.6562   40.9838 H   0  0  0  0  0  0  0  0  0  0  0  0
  2  1  1  0
  2  6  1  0
  3  2  1  0
  4  3  1  0
  4  5  1  0
  5  1  1  0
  6  7  2  0
  6  8  1  0
  8  9  1  0
  9 10  2  0
  9 11  1  0
 12 10  1  0
 13 18  1  0
 13  1  1  0
 14 13  2  0
 15 16  2  0
 15 14  1  0
 16 17  1  0
 17 18  2  0
  1 19  1  1
  2 20  1  6
  3 21  1  0
  3 22  1  0
  4 23  1  0
  4 24  1  0
  5 25  1  0
  5 26  1  0
  8 27  1  0
 11 28  1  0
 11 29  1  0
 14 30  1  0
 15 31  1  0
 17 32  1  0
M  ISO  8  19  13  20  13  21  13  22  13  23  13  24  13  25  13  26  13
M  ISO  3  30  14  31  14  32  14
M  END
>  <minimizedAffinity>  (1) 
-5.70872068

>  <minimizedRMSD>  (1) 
0.244723648

$$$$
