
     RDKit          3D

 39 42  0  0  1  0  0  0  0  0999 V2000
   48.9610   33.6870   42.6660 C   0  0  2  0  0  0  0  0  0  0  0  0
   47.5890   33.9590   42.3430 C   0  0  2  0  0  0  0  0  0  0  0  0
   47.5830   35.4010   41.7960 C   0  0  0  0  0  0  0  0  0  0  0  0
   48.9900   35.8090   41.5080 C   0  0  0  0  0  0  0  0  0  0  0  0
   49.7110   35.0560   42.5650 C   0  0  0  0  0  0  0  0  0  0  0  0
   49.7220   32.7920   41.7730 C   0  0  0  0  0  0  0  0  0  0  0  0
   49.0050   32.1830   40.7150 C   0  0  0  0  0  0  0  0  0  0  0  0
   49.7040   31.3690   39.8330 C   0  0  0  0  0  0  0  0  0  0  0  0
   51.0580   31.2170   40.0560 N   0  0  0  0  0  0  0  0  0  0  0  0
   51.7080   31.8020   41.0600 C   0  0  0  0  0  0  0  0  0  0  0  0
   51.0240   32.5730   41.8910 N   0  0  0  0  0  0  0  0  0  0  0  0
   46.6210   33.8750   43.4860 C   0  0  0  0  0  0  0  0  0  0  0  0
   46.0970   34.8640   43.9390 O   0  0  0  0  0  0  0  0  0  0  0  0
   46.4490   32.4550   43.8910 C   0  0  0  0  0  0  0  0  0  0  0  0
   46.5770   31.3940   43.0780 N   0  0  0  0  0  0  0  0  0  0  0  0
   46.4310   30.1140   43.4140 C   0  0  0  0  0  0  0  0  0  0  0  0
   46.1240   29.7950   44.6830 N   0  0  0  0  0  0  0  0  0  0  0  0
   45.9650   30.7770   45.6140 C   0  0  0  0  0  0  0  0  0  0  0  0
   45.6580   30.4210   46.9030 C   0  0  0  0  0  0  0  0  0  0  0  0
   45.4980   31.3910   47.8660 C   0  0  0  0  0  0  0  0  0  0  0  0
   45.6570   32.7060   47.4810 C   0  0  0  0  0  0  0  0  0  0  0  0
   45.9650   32.9990   46.1720 C   0  0  0  0  0  0  0  0  0  0  0  0
   46.1360   32.0690   45.1750 C   0  0  0  0  0  0  0  0  0  0  0  0
   48.9179   33.1860   43.6443 H   0  0  0  0  0  0  0  0  0  0  0  0
   47.2464   33.1886   41.6366 H   0  0  0  0  0  0  0  0  0  0  0  0
   46.9885   35.4438   40.8715 H   0  0  0  0  0  0  0  0  0  0  0  0
   47.1395   36.0816   42.5377 H   0  0  0  0  0  0  0  0  0  0  0  0
   49.3051   35.4981   40.5010 H   0  0  0  0  0  0  0  0  0  0  0  0
   49.1640   36.8951   41.5188 H   0  0  0  0  0  0  0  0  0  0  0  0
   50.7625   34.9013   42.2813 H   0  0  0  0  0  0  0  0  0  0  0  0
   49.7208   35.5947   43.5240 H   0  0  0  0  0  0  0  0  0  0  0  0
   47.9244   32.3498   40.5948 H   0  0  0  0  0  0  0  0  0  0  0  0
   49.2007   30.8673   38.9934 H   0  0  0  0  0  0  0  0  0  0  0  0
   52.7887   31.6482   41.1959 H   0  0  0  0  0  0  0  0  0  0  0  0
   46.5605   29.3242   42.6594 H   0  0  0  0  0  0  0  0  0  0  0  0
   45.5397   29.3597   47.1668 H   0  0  0  0  0  0  0  0  0  0  0  0
   45.2522   31.1272   48.9052 H   0  0  0  0  0  0  0  0  0  0  0  0
   45.5383   33.5158   48.2159 H   0  0  0  0  0  0  0  0  0  0  0  0
   46.0834   34.0591   45.9033 H   0  0  0  0  0  0  0  0  0  0  0  0
  2  1  1  0
  2 12  1  0
  3  2  1  0
  4  3  1  0
  4  5  1  0
  5  1  1  0
  6 11  1  0
  6  1  1  0
  7  6  2  0
  8  9  2  0
  8  7  1  0
  9 10  1  0
 10 11  2  0
 12 14  1  0
 12 13  2  0
 14 23  2  0
 15 16  2  0
 15 14  1  0
 16 17  1  0
 17 18  2  0
 18 19  1  0
 19 20  2  0
 21 20  1  0
 22 21  2  0
 23 18  1  0
 23 22  1  0
  1 24  1  1
  2 25  1  6
  3 26  1  0
  3 27  1  0
  4 28  1  0
  4 29  1  0
  5 30  1  0
  5 31  1  0
  7 32  1  0
  8 33  1  0
 10 34  1  0
 16 35  1  0
 19 36  1  0
 20 37  1  0
 21 38  1  0
 22 39  1  0
M  ISO  8  24  13  25  13  26  13  27  13  28  13  29  13  30  13  31  13
M  ISO  8  32  14  33  14  34  14  35  14  36  14  37  14  38  14  39  14
M  END
>  <minimizedAffinity>  (1) 
-5.66187096

>  <minimizedRMSD>  (1) 
1.03012753

$$$$
