
     RDKit          3D

 40 42  0  0  1  0  0  0  0  0999 V2000
   46.5530   31.7350   47.4050 C   0  0  1  0  0  0  0  0  0  0  0  0
   45.1060   31.7900   47.5660 C   0  0  0  0  0  0  0  0  0  0  0  0
   45.0520   31.8380   49.1230 C   0  0  0  0  0  0  0  0  0  0  0  0
   45.8020   30.5350   49.3840 C   0  0  0  0  0  0  0  0  0  0  0  0
   47.0070   30.7300   48.4520 C   0  0  2  0  0  0  0  0  0  0  0  0
   47.7180   35.1710   42.1470 C   0  0  0  0  0  0  0  0  0  0  0  0
   47.9880   34.7920   40.8130 C   0  0  0  0  0  0  0  0  0  0  0  0
   48.1580   33.4150   40.5720 C   0  0  0  0  0  0  0  0  0  0  0  0
   48.0600   32.5310   41.5860 N   0  0  0  0  0  0  0  0  0  0  0  0
   47.7960   32.9640   42.8590 C   0  0  0  0  0  0  0  0  0  0  0  0
   47.6260   34.2760   43.1330 N   0  0  0  0  0  0  0  0  0  0  0  0
   47.6870   32.0490   43.9550 N   0  0  0  0  0  0  0  0  0  0  0  0
   48.1430   30.7970   43.7600 C   0  0  0  0  0  0  0  0  0  0  0  0
   48.0860   29.8430   44.7450 C   0  0  0  0  0  0  0  0  0  0  0  0
   47.5460   30.1790   45.9700 C   0  0  0  0  0  0  0  0  0  0  0  0
   47.4650   29.3520   46.9110 O   0  0  0  0  0  0  0  0  0  0  0  0
   47.1090   31.4300   46.1100 N   0  0  0  0  0  0  0  0  0  0  0  0
   47.1690   32.3440   45.1510 C   0  0  0  0  0  0  0  0  0  0  0  0
   46.7500   33.4950   45.3340 O   0  0  0  0  0  0  0  0  0  0  0  0
   48.0050   31.3430   49.3430 N   0  0  0  0  0  0  0  0  0  0  0  0
   49.0870   30.5570   49.8260 C   0  0  0  0  0  0  0  0  0  0  0  0
   49.3270   29.3630   49.3890 N   0  0  0  0  0  0  0  0  0  0  0  0
   49.9540   31.0820   50.8290 N   0  0  0  0  0  0  0  0  0  0  0  0
   48.7200   28.9370   48.6550 H   0  0  0  0  0  0  0  0  0  0  0  0
   46.9326   32.7602   47.5267 H   0  0  0  0  0  0  0  0  0  0  0  0
   44.6714   32.6906   47.1077 H   0  0  0  0  0  0  0  0  0  0  0  0
   44.5400   30.9745   47.0920 H   0  0  0  0  0  0  0  0  0  0  0  0
   45.5762   32.7133   49.5341 H   0  0  0  0  0  0  0  0  0  0  0  0
   44.0532   31.9266   49.5754 H   0  0  0  0  0  0  0  0  0  0  0  0
   46.1100   30.4449   50.4362 H   0  0  0  0  0  0  0  0  0  0  0  0
   45.2188   29.6202   49.2023 H   0  0  0  0  0  0  0  0  0  0  0  0
   47.3916   29.8274   47.9546 H   0  0  0  0  0  0  0  0  0  0  0  0
   47.5793   36.2370   42.3804 H   0  0  0  0  0  0  0  0  0  0  0  0
   48.0616   35.5342   40.0044 H   0  0  0  0  0  0  0  0  0  0  0  0
   48.3714   33.0591   39.5533 H   0  0  0  0  0  0  0  0  0  0  0  0
   48.5735   30.5313   42.7832 H   0  0  0  0  0  0  0  0  0  0  0  0
   48.4647   28.8267   44.5611 H   0  0  0  0  0  0  0  0  0  0  0  0
   47.9204   32.3330   49.6144 H   0  0  0  0  0  0  0  0  0  0  0  0
   50.7384   30.5143   51.1803 H   0  0  0  0  0  0  0  0  0  0  0  0
   49.7959   32.0289   51.2022 H   0  0  0  0  0  0  0  0  0  0  0  0
  1  2  1  0
  1  5  1  0
  2  3  1  0
  3  4  1  0
  5 20  1  0
  5  4  1  0
  6 11  2  0
  7  6  1  0
  8  7  2  0
  8  9  1  0
  9 10  2  0
 10 11  1  0
 10 12  1  0
 12 18  1  0
 13 12  1  0
 13 14  2  0
 14 15  1  0
 15 17  1  0
 15 16  2  0
 17  1  1  0
 18 19  2  0
 18 17  1  0
 20 21  1  0
 21 23  1  0
 22 21  2  0
 24 22  1  0
  1 25  1  1
  2 26  1  0
  2 27  1  0
  3 28  1  0
  3 29  1  0
  4 30  1  0
  4 31  1  0
  5 32  1  6
  6 33  1  0
  7 34  1  0
  8 35  1  0
 13 36  1  0
 14 37  1  0
 20 38  1  0
 23 39  1  0
 23 40  1  0
M  ISO  8  25  13  26  13  27  13  28  13  29  13  30  13  31  13  32  13
M  ISO  5  33  14  34  14  35  14  36  14  37  14
M  END
>  <minimizedAffinity>  (1) 
-6.04984331

>  <minimizedRMSD>  (1) 
3.25013208

$$$$
