
     RDKit          3D

 47 51  0  0  1  0  0  0  0  0999 V2000
   47.6900   30.6440   42.6270 C   0  0  1  0  0  0  0  0  0  0  0  0
   46.9140   29.4660   43.0570 C   0  0  0  0  0  0  0  0  0  0  0  0
   45.5610   30.1470   43.3890 C   0  0  0  0  0  0  0  0  0  0  0  0
   46.0710   31.1480   44.4050 C   0  0  0  0  0  0  0  0  0  0  0  0
   47.2900   31.6890   43.6370 C   0  0  2  0  0  0  0  0  0  0  0  0
   52.0070   31.8200   38.0970 C   0  0  0  0  0  0  0  0  0  0  0  0
   53.3630   31.4220   37.9590 C   0  0  0  0  0  0  0  0  0  0  0  0
   53.9490   30.7330   39.0380 C   0  0  0  0  0  0  0  0  0  0  0  0
   53.2190   30.4790   40.1390 N   0  0  0  0  0  0  0  0  0  0  0  0
   51.9100   30.8870   40.2180 C   0  0  0  0  0  0  0  0  0  0  0  0
   51.3170   31.5510   39.2040 N   0  0  0  0  0  0  0  0  0  0  0  0
   51.1190   30.6150   41.3810 N   0  0  0  0  0  0  0  0  0  0  0  0
   51.7530   30.1750   42.4760 C   0  0  0  0  0  0  0  0  0  0  0  0
   51.0890   29.8710   43.6470 C   0  0  0  0  0  0  0  0  0  0  0  0
   49.7300   30.0290   43.6860 C   0  0  0  0  0  0  0  0  0  0  0  0
   49.0460   29.7770   44.7070 O   0  0  0  0  0  0  0  0  0  0  0  0
   49.1290   30.4760   42.5640 N   0  0  0  0  0  0  0  0  0  0  0  0
   49.7950   30.7570   41.4570 C   0  0  0  0  0  0  0  0  0  0  0  0
   49.2050   31.1620   40.4550 O   0  0  0  0  0  0  0  0  0  0  0  0
   46.8120   32.9730   43.0980 C   0  0  0  0  0  0  0  0  0  0  0  0
   47.0270   33.5080   41.8490 C   0  0  0  0  0  0  0  0  0  0  0  0
   46.4670   34.7190   41.6780 N   0  0  0  0  0  0  0  0  0  0  0  0
   45.8520   35.0400   42.8200 C   0  0  0  0  0  0  0  0  0  0  0  0
   45.1070   36.1300   43.2760 C   0  0  0  0  0  0  0  0  0  0  0  0
   44.5750   36.1910   44.5520 C   0  0  0  0  0  0  0  0  0  0  0  0
   44.7770   35.1410   45.4190 C   0  0  0  0  0  0  0  0  0  0  0  0
   45.5160   34.0530   44.9710 C   0  0  0  0  0  0  0  0  0  0  0  0
   46.0480   34.0090   43.6760 C   0  0  0  0  0  0  0  0  0  0  0  0
   47.4613   30.8962   41.5810 H   0  0  0  0  0  0  0  0  0  0  0  0
   46.8122   28.7263   42.2493 H   0  0  0  0  0  0  0  0  0  0  0  0
   47.3601   28.8913   43.8821 H   0  0  0  0  0  0  0  0  0  0  0  0
   45.1143   30.6359   42.5107 H   0  0  0  0  0  0  0  0  0  0  0  0
   44.7564   29.4796   43.7314 H   0  0  0  0  0  0  0  0  0  0  0  0
   45.3323   31.9367   44.6108 H   0  0  0  0  0  0  0  0  0  0  0  0
   46.2900   30.7349   45.4007 H   0  0  0  0  0  0  0  0  0  0  0  0
   48.2069   31.8750   44.2155 H   0  0  0  0  0  0  0  0  0  0  0  0
   51.5170   32.3608   37.2739 H   0  0  0  0  0  0  0  0  0  0  0  0
   53.9334   31.6433   37.0448 H   0  0  0  0  0  0  0  0  0  0  0  0
   54.9972   30.4044   38.9810 H   0  0  0  0  0  0  0  0  0  0  0  0
   52.8454   30.0512   42.4404 H   0  0  0  0  0  0  0  0  0  0  0  0
   51.6391   29.5101   44.5285 H   0  0  0  0  0  0  0  0  0  0  0  0
   47.6022   32.9943   41.0646 H   0  0  0  0  0  0  0  0  0  0  0  0
   46.5052   35.2933   40.8238 H   0  0  0  0  0  0  0  0  0  0  0  0
   44.9361   36.9748   42.5926 H   0  0  0  0  0  0  0  0  0  0  0  0
   43.9960   37.0704   44.8706 H   0  0  0  0  0  0  0  0  0  0  0  0
   44.3647   35.1627   46.4386 H   0  0  0  0  0  0  0  0  0  0  0  0
   45.6876   33.2050   45.6503 H   0  0  0  0  0  0  0  0  0  0  0  0
  1  2  1  0
  1  5  1  0
  2  3  1  0
  3  4  1  0
  5  4  1  0
  6 11  2  0
  7  6  1  0
  7  8  2  0
  8  9  1  0
  9 10  2  0
 10 12  1  0
 11 10  1  0
 12 18  1  0
 12 13  1  0
 13 14  2  0
 14 15  1  0
 15 16  2  0
 17  1  1  0
 17 15  1  0
 18 17  1  0
 19 18  2  0
 20  5  1  0
 20 28  1  0
 21 20  2  0
 22 21  1  0
 22 23  1  0
 23 24  2  0
 23 28  1  0
 24 25  1  0
 25 26  2  0
 27 26  1  0
 28 27  2  0
  1 29  1  6
  2 30  1  0
  2 31  1  0
  3 32  1  0
  3 33  1  0
  4 34  1  0
  4 35  1  0
  5 36  1  1
  6 37  1  0
  7 38  1  0
  8 39  1  0
 13 40  1  0
 14 41  1  0
 21 42  1  0
 22 43  1  0
 24 44  1  0
 25 45  1  0
 26 46  1  0
 27 47  1  0
M  ISO  8  29  13  30  13  31  13  32  13  33  13  34  13  35  13  36  13
M  ISO  8  37  14  38  14  39  14  40  14  41  14  42  14  43   9  44  14
M  ISO  3  45  14  46  14  47  14
M  END
>  <minimizedAffinity>  (1) 
-5.51684332

>  <minimizedRMSD>  (1) 
7.13273954

$$$$
