
     RDKit          3D

 39 42  0  0  1  0  0  0  0  0999 V2000
   44.5500   35.8220   44.0750 C   0  0  0  0  0  0  0  0  0  0  0  0
   44.3010   36.0880   42.6930 C   0  0  0  0  0  0  0  0  0  0  0  0
   44.8360   35.1740   41.7450 C   0  0  0  0  0  0  0  0  0  0  0  0
   45.5370   34.1200   42.1760 N   0  0  0  0  0  0  0  0  0  0  0  0
   45.7500   33.9070   43.5160 C   0  0  0  0  0  0  0  0  0  0  0  0
   45.2580   34.7530   44.4520 N   0  0  0  0  0  0  0  0  0  0  0  0
   46.4980   32.7970   43.9940 N   0  0  0  0  0  0  0  0  0  0  0  0
   47.2940   32.1690   43.1070 C   0  0  0  0  0  0  0  0  0  0  0  0
   48.0760   31.0880   43.4470 C   0  0  0  0  0  0  0  0  0  0  0  0
   48.0430   30.6330   44.7420 C   0  0  0  0  0  0  0  0  0  0  0  0
   48.7230   29.6540   45.1390 O   0  0  0  0  0  0  0  0  0  0  0  0
   47.2390   31.2830   45.5940 N   0  0  0  0  0  0  0  0  0  0  0  0
   46.4900   32.3280   45.2420 C   0  0  0  0  0  0  0  0  0  0  0  0
   45.7610   32.8970   46.0590 O   0  0  0  0  0  0  0  0  0  0  0  0
   47.2200   30.7920   46.9540 C   0  0  1  0  0  0  0  0  0  0  0  0
   47.5790   31.7310   48.0130 C   0  0  0  0  0  0  0  0  0  0  0  0
   47.0910   30.9190   49.2530 C   0  0  0  0  0  0  0  0  0  0  0  0
   45.6460   30.7430   48.8120 C   0  0  0  0  0  0  0  0  0  0  0  0
   45.8750   30.2600   47.3560 C   0  0  2  0  0  0  0  0  0  0  0  0
   45.8830   28.7580   47.5430 C   0  0  0  0  0  0  0  0  0  0  0  0
   47.0120   27.9380   47.2100 C   0  0  0  0  0  0  0  0  0  0  0  0
   46.4080   26.3090   47.6600 S   0  0  0  0  0  0  0  0  0  0  0  0
   44.7760   26.9300   48.2170 C   0  0  0  0  0  0  0  0  0  0  0  0
   44.7990   28.1870   48.0420 N   0  0  0  0  0  0  0  0  0  0  0  0
   44.1534   36.5067   44.8391 H   0  0  0  0  0  0  0  0  0  0  0  0
   43.7184   36.9654   42.3756 H   0  0  0  0  0  0  0  0  0  0  0  0
   44.6751   35.3320   40.6684 H   0  0  0  0  0  0  0  0  0  0  0  0
   47.3203   32.5344   42.0698 H   0  0  0  0  0  0  0  0  0  0  0  0
   48.7142   30.5988   42.6964 H   0  0  0  0  0  0  0  0  0  0  0  0
   48.0018   30.0209   46.8895 H   0  0  0  0  0  0  0  0  0  0  0  0
   48.6625   31.9183   48.0455 H   0  0  0  0  0  0  0  0  0  0  0  0
   47.1469   32.7376   47.9127 H   0  0  0  0  0  0  0  0  0  0  0  0
   47.6172   29.9589   49.3594 H   0  0  0  0  0  0  0  0  0  0  0  0
   47.2493   31.3852   50.2367 H   0  0  0  0  0  0  0  0  0  0  0  0
   45.1223   29.9878   49.4165 H   0  0  0  0  0  0  0  0  0  0  0  0
   45.0151   31.6384   48.9127 H   0  0  0  0  0  0  0  0  0  0  0  0
   45.1496   30.5743   46.5912 H   0  0  0  0  0  0  0  0  0  0  0  0
   47.9865   28.2295   46.7912 H   0  0  0  0  0  0  0  0  0  0  0  0
   43.9446   26.3339   48.6213 H   0  0  0  0  0  0  0  0  0  0  0  0
  1  6  2  0
  2  1  1  0
  3  4  1  0
  3  2  2  0
  4  5  2  0
  5  7  1  0
  5  6  1  0
  7 13  1  0
  8  9  2  0
  8  7  1  0
  9 10  1  0
 10 11  2  0
 10 12  1  0
 12 15  1  0
 13 12  1  0
 13 14  2  0
 15 19  1  0
 15 16  1  0
 16 17  1  0
 18 17  1  0
 19 20  1  0
 19 18  1  0
 20 24  1  0
 21 20  2  0
 21 22  1  0
 22 23  1  0
 24 23  2  0
  1 25  1  0
  2 26  1  0
  3 27  1  0
  8 28  1  0
  9 29  1  0
 15 30  1  6
 16 31  1  0
 16 32  1  0
 17 33  1  0
 17 34  1  0
 18 35  1  0
 18 36  1  0
 19 37  1  6
 21 38  1  0
 23 39  1  0
M  ISO  8  25  14  26  14  27  14  28  14  29  14  30  13  31  13  32  13
M  ISO  7  33  13  34  13  35  13  36  13  37  13  38  14  39  14
M  END
>  <minimizedAffinity>  (1) 
-5.24633646

>  <minimizedRMSD>  (1) 
3.03214312

$$$$
