
     RDKit          3D

 47 50  0  0  1  0  0  0  0  0999 V2000
   44.8490   30.8310   42.7460 C   0  0  1  0  0  0  0  0  0  0  0  0
   45.7470   30.5460   41.6110 C   0  0  0  0  0  0  0  0  0  0  0  0
   47.1170   30.6870   42.3090 C   0  0  0  0  0  0  0  0  0  0  0  0
   46.9480   32.0380   42.8980 C   0  0  0  0  0  0  0  0  0  0  0  0
   45.5330   31.9180   43.4950 C   0  0  2  0  0  0  0  0  0  0  0  0
   41.9500   35.3130   39.2490 C   0  0  0  0  0  0  0  0  0  0  0  0
   40.6160   35.7650   39.2550 C   0  0  0  0  0  0  0  0  0  0  0  0
   39.6810   35.0460   40.0390 C   0  0  0  0  0  0  0  0  0  0  0  0
   40.0810   33.9770   40.7390 N   0  0  0  0  0  0  0  0  0  0  0  0
   41.4080   33.5850   40.6900 C   0  0  0  0  0  0  0  0  0  0  0  0
   42.3190   34.2410   39.9590 N   0  0  0  0  0  0  0  0  0  0  0  0
   41.8520   32.4480   41.4510 N   0  0  0  0  0  0  0  0  0  0  0  0
   40.9280   31.6170   41.9450 C   0  0  0  0  0  0  0  0  0  0  0  0
   41.2550   30.5170   42.7030 C   0  0  0  0  0  0  0  0  0  0  0  0
   42.5790   30.2630   42.9600 C   0  0  0  0  0  0  0  0  0  0  0  0
   42.9450   29.2780   43.6430 O   0  0  0  0  0  0  0  0  0  0  0  0
   43.4620   31.1190   42.4460 N   0  0  0  0  0  0  0  0  0  0  0  0
   43.1300   32.1770   41.7150 C   0  0  0  0  0  0  0  0  0  0  0  0
   43.9880   32.9350   41.2620 O   0  0  0  0  0  0  0  0  0  0  0  0
   45.7310   31.7450   44.8830 N   0  0  0  0  0  0  0  0  0  0  0  0
   45.7400   30.4580   45.4460 C   0  0  0  0  0  0  0  0  0  0  0  0
   45.7310   30.6090   46.9520 C   0  0  0  0  0  0  0  0  0  0  0  0
   45.3760   31.9620   47.3320 N   0  0  0  0  0  0  0  0  0  0  0  0
   46.3340   32.9290   46.8370 C   0  0  0  0  0  0  0  0  0  0  0  0
   46.7290   32.6440   45.3920 C   0  0  0  0  0  0  0  0  0  0  0  0
   44.7107   29.9126   43.3354 H   0  0  0  0  0  0  0  0  0  0  0  0
   45.6249   31.2792   40.8001 H   0  0  0  0  0  0  0  0  0  0  0  0
   45.5764   29.5776   41.1179 H   0  0  0  0  0  0  0  0  0  0  0  0
   47.2663   29.9176   43.0809 H   0  0  0  0  0  0  0  0  0  0  0  0
   47.9928   30.5656   41.6546 H   0  0  0  0  0  0  0  0  0  0  0  0
   47.6999   32.2374   43.6757 H   0  0  0  0  0  0  0  0  0  0  0  0
   47.0721   32.8650   42.1834 H   0  0  0  0  0  0  0  0  0  0  0  0
   44.8638   32.7851   43.3931 H   0  0  0  0  0  0  0  0  0  0  0  0
   42.7006   35.8503   38.6507 H   0  0  0  0  0  0  0  0  0  0  0  0
   40.3110   36.6459   38.6710 H   0  0  0  0  0  0  0  0  0  0  0  0
   38.6288   35.3650   40.0728 H   0  0  0  0  0  0  0  0  0  0  0  0
   39.8672   31.8208   41.7374 H   0  0  0  0  0  0  0  0  0  0  0  0
   40.4704   29.8535   43.0957 H   0  0  0  0  0  0  0  0  0  0  0  0
   44.8486   29.9016   45.1208 H   0  0  0  0  0  0  0  0  0  0  0  0
   46.6334   29.9041   45.1218 H   0  0  0  0  0  0  0  0  0  0  0  0
   44.9974   29.9100   47.3801 H   0  0  0  0  0  0  0  0  0  0  0  0
   46.7386   30.3885   47.3343 H   0  0  0  0  0  0  0  0  0  0  0  0
   44.4477   32.1842   46.9450 H   0  0  0  0  0  0  0  0  0  0  0  0
   45.8882   33.9331   46.8931 H   0  0  0  0  0  0  0  0  0  0  0  0
   47.2391   32.8637   47.4588 H   0  0  0  0  0  0  0  0  0  0  0  0
   47.7231   32.1748   45.3522 H   0  0  0  0  0  0  0  0  0  0  0  0
   46.7824   33.5679   44.7974 H   0  0  0  0  0  0  0  0  0  0  0  0
  1  5  1  0
  2  3  1  0
  2  1  1  0
  3  4  1  0
  4  5  1  0
  5 20  1  0
  6  7  2  0
  6 11  1  0
  7  8  1  0
  8  9  2  0
 10  9  1  0
 10 12  1  0
 11 10  2  0
 12 18  1  0
 12 13  1  0
 13 14  2  0
 14 15  1  0
 15 16  2  0
 17  1  1  0
 17 15  1  0
 18 17  1  0
 19 18  2  0
 20 25  1  0
 20 21  1  0
 21 22  1  0
 22 23  1  0
 24 23  1  0
 25 24  1  0
  1 26  1  1
  2 27  1  0
  2 28  1  0
  3 29  1  0
  3 30  1  0
  4 31  1  0
  4 32  1  0
  5 33  1  1
  6 34  1  0
  7 35  1  0
  8 36  1  0
 13 37  1  0
 14 38  1  0
 21 39  1  0
 21 40  1  0
 22 41  1  0
 22 42  1  0
 23 43  1  0
 24 44  1  0
 24 45  1  0
 25 46  1  0
 25 47  1  0
M  ISO  8  26  13  27  13  28  13  29  13  30  13  31  13  32  13  33  13
M  ISO  8  34  14  35  14  36  14  37  14  38  14  39  13  40  13  41  13
M  ISO  6  42  13  43   5  44  13  45  13  46  13  47  13
M  END
>  <minimizedAffinity>  (1) 
-5.03036165

>  <minimizedRMSD>  (1) 
5.73186588

$$$$
