
     RDKit          3D

 37 40  0  0  1  0  0  0  0  0999 V2000
   46.7230   34.5650   43.1120 C   0  0  2  0  0  0  0  0  0  0  0  0
   46.8780   33.6820   44.3210 C   0  0  0  0  0  0  0  0  0  0  0  0
   45.9150   33.8520   45.4040 C   0  0  0  0  0  0  0  0  0  0  0  0
   44.8560   34.8380   45.2820 C   0  0  0  0  0  0  0  0  0  0  0  0
   44.8980   35.7360   44.1240 C   0  0  0  0  0  0  0  0  0  0  0  0
   45.3450   35.0290   42.8930 C   0  0  2  0  0  0  0  0  0  0  0  0
   47.9940   32.6840   42.1170 C   0  0  0  0  0  0  0  0  0  0  0  0
   47.3810   33.9460   41.9460 C   0  0  0  0  0  0  0  0  0  0  0  0
   47.4380   34.5630   40.6690 C   0  0  0  0  0  0  0  0  0  0  0  0
   48.0840   33.9040   39.6700 N   0  0  0  0  0  0  0  0  0  0  0  0
   48.6590   32.6940   39.8750 C   0  0  0  0  0  0  0  0  0  0  0  0
   48.6120   32.0930   41.0890 N   0  0  0  0  0  0  0  0  0  0  0  0
   44.4240   34.1090   42.3410 N   0  0  0  0  0  0  0  0  0  0  0  0
   44.3760   32.7900   42.6610 C   0  0  0  0  0  0  0  0  0  0  0  0
   43.3990   32.2100   41.9680 N   0  0  0  0  0  0  0  0  0  0  0  0
   42.8250   33.1370   41.2140 C   0  0  0  0  0  0  0  0  0  0  0  0
   41.7700   32.9880   40.3340 C   0  0  0  0  0  0  0  0  0  0  0  0
   41.3670   34.1110   39.6740 N   0  0  0  0  0  0  0  0  0  0  0  0
   42.0120   35.2870   39.9150 C   0  0  0  0  0  0  0  0  0  0  0  0
   43.0400   35.4160   40.7750 N   0  0  0  0  0  0  0  0  0  0  0  0
   43.4600   34.3490   41.4350 C   0  0  0  0  0  0  0  0  0  0  0  0
   41.1480   31.7070   40.1430 N   0  0  0  0  0  0  0  0  0  0  0  0
   47.2540   35.5102   43.2983 H   0  0  0  0  0  0  0  0  0  0  0  0
   47.6855   32.9378   44.3856 H   0  0  0  0  0  0  0  0  0  0  0  0
   45.9911   33.2344   46.3111 H   0  0  0  0  0  0  0  0  0  0  0  0
   43.9013   34.2930   45.2420 H   0  0  0  0  0  0  0  0  0  0  0  0
   44.9850   35.4973   46.1530 H   0  0  0  0  0  0  0  0  0  0  0  0
   43.8912   36.1453   43.9540 H   0  0  0  0  0  0  0  0  0  0  0  0
   45.6194   36.5381   44.3390 H   0  0  0  0  0  0  0  0  0  0  0  0
   45.3659   35.7357   42.0503 H   0  0  0  0  0  0  0  0  0  0  0  0
   47.9626   32.1870   43.0978 H   0  0  0  0  0  0  0  0  0  0  0  0
   46.9737   35.5445   40.4927 H   0  0  0  0  0  0  0  0  0  0  0  0
   49.1725   32.1912   39.0422 H   0  0  0  0  0  0  0  0  0  0  0  0
   45.0383   32.2826   43.3779 H   0  0  0  0  0  0  0  0  0  0  0  0
   41.6729   36.1835   39.3753 H   0  0  0  0  0  0  0  0  0  0  0  0
   40.3624   31.6091   39.4841 H   0  0  0  0  0  0  0  0  0  0  0  0
   41.4877   30.8866   40.6650 H   0  0  0  0  0  0  0  0  0  0  0  0
  1  2  1  0
  2  3  2  0
  4  3  1  0
  5  4  1  0
  6  1  1  0
  6  5  1  0
  8  7  2  0
  8  1  1  0
  9  8  1  0
 10 11  1  0
 10  9  2  0
 11 12  2  0
 12  7  1  0
 13 14  1  0
 13  6  1  0
 15 14  2  0
 16 21  2  0
 16 15  1  0
 17 16  1  0
 18 19  1  0
 18 17  2  0
 19 20  2  0
 20 21  1  0
 21 13  1  0
 22 17  1  0
  1 23  1  1
  2 24  1  0
  3 25  1  0
  4 26  1  0
  4 27  1  0
  5 28  1  0
  5 29  1  0
  6 30  1  6
  7 31  1  0
  9 32  1  0
 11 33  1  0
 14 34  1  0
 19 35  1  0
 22 36  1  0
 22 37  1  0
M  ISO  8  23  13  24  13  25  13  26  13  27  13  28  13  29  13  30  13
M  ISO  5  31  14  32  14  33  14  34  14  35  14
M  END
>  <minimizedAffinity>  (1) 
-5.58880138

>  <minimizedRMSD>  (1) 
4.21506405

$$$$
