
     RDKit          3D

 34 36  0  0  1  0  0  0  0  0999 V2000
   46.3270   33.9990   44.7170 C   0  0  2  0  0  0  0  0  0  0  0  0
   45.0840   34.7680   45.1280 C   0  0  0  0  0  0  0  0  0  0  0  0
   44.4300   35.6680   44.2000 C   0  0  0  0  0  0  0  0  0  0  0  0
   44.9910   35.8110   42.8600 C   0  0  0  0  0  0  0  0  0  0  0  0
   46.3600   35.3030   42.7050 C   0  0  0  0  0  0  0  0  0  0  0  0
   46.4460   33.9090   43.2640 C   0  0  1  0  0  0  0  0  0  0  0  0
   46.9460   32.6910   46.7280 C   0  0  0  0  0  0  0  0  0  0  0  0
   46.3590   32.7150   45.4520 C   0  0  0  0  0  0  0  0  0  0  0  0
   45.8360   31.5050   44.9200 C   0  0  0  0  0  0  0  0  0  0  0  0
   45.9270   30.3860   45.6620 N   0  0  0  0  0  0  0  0  0  0  0  0
   46.5030   30.3940   46.8950 C   0  0  0  0  0  0  0  0  0  0  0  0
   47.0050   31.5390   47.4200 N   0  0  0  0  0  0  0  0  0  0  0  0
   47.6650   33.4070   42.7000 N   0  0  0  0  0  0  0  0  0  0  0  0
   48.7810   34.1670   42.9590 C   0  0  0  0  0  0  0  0  0  0  0  0
   50.0380   33.8620   42.5340 C   0  0  0  0  0  0  0  0  0  0  0  0
   50.1990   32.7230   41.7990 C   0  0  0  0  0  0  0  0  0  0  0  0
   51.3390   32.4000   41.3850 O   0  0  0  0  0  0  0  0  0  0  0  0
   49.1480   31.9690   41.5300 N   0  0  0  0  0  0  0  0  0  0  0  0
   47.9280   32.3100   41.9710 C   0  0  0  0  0  0  0  0  0  0  0  0
   46.9700   31.5860   41.7040 O   0  0  0  0  0  0  0  0  0  0  0  0
   47.2405   34.5387   45.0073 H   0  0  0  0  0  0  0  0  0  0  0  0
   44.6756   34.6404   46.1414 H   0  0  0  0  0  0  0  0  0  0  0  0
   43.5325   36.2299   44.4979 H   0  0  0  0  0  0  0  0  0  0  0  0
   44.3428   35.2657   42.1583 H   0  0  0  0  0  0  0  0  0  0  0  0
   45.0385   36.8915   42.6593 H   0  0  0  0  0  0  0  0  0  0  0  0
   46.6261   35.2868   41.6378 H   0  0  0  0  0  0  0  0  0  0  0  0
   47.0570   35.9584   43.2477 H   0  0  0  0  0  0  0  0  0  0  0  0
   45.6498   33.1949   43.0068 H   0  0  0  0  0  0  0  0  0  0  0  0
   47.3575   33.6145   47.1614 H   0  0  0  0  0  0  0  0  0  0  0  0
   45.3677   31.4838   43.9249 H   0  0  0  0  0  0  0  0  0  0  0  0
   46.5621   29.4599   47.4729 H   0  0  0  0  0  0  0  0  0  0  0  0
   48.6492   35.0850   43.5505 H   0  0  0  0  0  0  0  0  0  0  0  0
   50.8935   34.5104   42.7744 H   0  0  0  0  0  0  0  0  0  0  0  0
   49.2668   31.1094   40.9752 H   0  0  0  0  0  0  0  0  0  0  0  0
  1  2  1  0
  1  8  1  0
  3  2  2  0
  4  3  1  0
  5  4  1  0
  5  6  1  0
  6  1  1  0
  7 12  2  0
  8  7  1  0
  9  8  2  0
  9 10  1  0
 10 11  2  0
 11 12  1  0
 13 14  1  0
 13  6  1  0
 15 14  2  0
 16 15  1  0
 17 16  2  0
 18 16  1  0
 18 19  1  0
 19 13  1  0
 20 19  2  0
  1 21  1  1
  2 22  1  0
  3 23  1  0
  4 24  1  0
  4 25  1  0
  5 26  1  0
  5 27  1  0
  6 28  1  6
  7 29  1  0
  9 30  1  0
 11 31  1  0
 14 32  1  0
 15 33  1  0
 18 34  1  0
M  ISO  8  21  13  22  13  23  13  24  13  25  13  26  13  27  13  28  13
M  ISO  6  29  14  30  14  31  14  32  14  33  14  34   9
M  END
>  <minimizedAffinity>  (1) 
-5.27888775

>  <minimizedRMSD>  (1) 
1.38338363

$$$$
