
     RDKit          3D

 34 36  0  0  1  0  0  0  0  0999 V2000
   46.3280   34.0390   44.7430 C   0  0  2  0  0  0  0  0  0  0  0  0
   44.9560   34.6540   45.0140 C   0  0  0  0  0  0  0  0  0  0  0  0
   44.4480   35.6280   44.1020 C   0  0  0  0  0  0  0  0  0  0  0  0
   45.2610   36.0140   42.9570 C   0  0  0  0  0  0  0  0  0  0  0  0
   46.5400   35.3700   42.7680 C   0  0  0  0  0  0  0  0  0  0  0  0
   46.5310   33.9380   43.2900 C   0  0  1  0  0  0  0  0  0  0  0  0
   46.9950   32.7400   46.7670 C   0  0  0  0  0  0  0  0  0  0  0  0
   46.4010   32.7790   45.4970 C   0  0  0  0  0  0  0  0  0  0  0  0
   45.8810   31.5650   44.9780 C   0  0  0  0  0  0  0  0  0  0  0  0
   45.9800   30.4450   45.7180 N   0  0  0  0  0  0  0  0  0  0  0  0
   46.5660   30.4630   46.9460 C   0  0  0  0  0  0  0  0  0  0  0  0
   47.0680   31.6080   47.4590 N   0  0  0  0  0  0  0  0  0  0  0  0
   47.8950   33.5300   42.8330 C   0  0  0  0  0  0  0  0  0  0  0  0
   48.1660   32.2410   42.3510 C   0  0  0  0  0  0  0  0  0  0  0  0
   49.4390   31.9260   41.9310 C   0  0  0  0  0  0  0  0  0  0  0  0
   50.4590   32.8510   41.9720 C   0  0  0  0  0  0  0  0  0  0  0  0
   50.1980   34.1060   42.4410 C   0  0  0  0  0  0  0  0  0  0  0  0
   48.9320   34.4730   42.8750 C   0  0  0  0  0  0  0  0  0  0  0  0
   47.1672   34.6571   45.0948 H   0  0  0  0  0  0  0  0  0  0  0  0
   44.3706   34.3521   45.8950 H   0  0  0  0  0  0  0  0  0  0  0  0
   43.4579   36.0799   44.2617 H   0  0  0  0  0  0  0  0  0  0  0  0
   44.6633   35.8187   42.0545 H   0  0  0  0  0  0  0  0  0  0  0  0
   45.5169   37.0658   43.1525 H   0  0  0  0  0  0  0  0  0  0  0  0
   46.7775   35.3568   41.6940 H   0  0  0  0  0  0  0  0  0  0  0  0
   47.2964   35.9363   43.3313 H   0  0  0  0  0  0  0  0  0  0  0  0
   45.7680   33.2188   42.9575 H   0  0  0  0  0  0  0  0  0  0  0  0
   47.4081   33.6638   47.1982 H   0  0  0  0  0  0  0  0  0  0  0  0
   45.4046   31.5396   43.9868 H   0  0  0  0  0  0  0  0  0  0  0  0
   46.6320   29.5326   47.5292 H   0  0  0  0  0  0  0  0  0  0  0  0
   47.3667   31.4865   42.3088 H   0  0  0  0  0  0  0  0  0  0  0  0
   49.6460   30.9134   41.5544 H   0  0  0  0  0  0  0  0  0  0  0  0
   51.4698   32.5820   41.6315 H   0  0  0  0  0  0  0  0  0  0  0  0
   51.0118   34.8452   42.4758 H   0  0  0  0  0  0  0  0  0  0  0  0
   48.7443   35.4909   43.2473 H   0  0  0  0  0  0  0  0  0  0  0  0
  1  2  1  0
  1  8  1  0
  3  2  2  0
  4  3  1  0
  5  4  1  0
  5  6  1  0
  6  1  1  0
  7 12  2  0
  8  7  1  0
  9  8  2  0
  9 10  1  0
 10 11  2  0
 11 12  1  0
 13 18  1  0
 13  6  1  0
 14 13  2  0
 15 16  2  0
 15 14  1  0
 16 17  1  0
 17 18  2  0
  1 19  1  1
  2 20  1  0
  3 21  1  0
  4 22  1  0
  4 23  1  0
  5 24  1  0
  5 25  1  0
  6 26  1  6
  7 27  1  0
  9 28  1  0
 11 29  1  0
 14 30  1  0
 15 31  1  0
 16 32  1  0
 17 33  1  0
 18 34  1  0
M  ISO  8  19  13  20  13  21  13  22  13  23  13  24  13  25  13  26  13
M  ISO  8  27  14  28  14  29  14  30  14  31  14  32  14  33  14  34  14
M  END
>  <minimizedAffinity>  (1) 
-5.26669598

>  <minimizedRMSD>  (1) 
1.45186543

$$$$
