
     RDKit          3D

 34 36  0  0  1  0  0  0  0  0999 V2000
   46.3150   34.0730   44.7210 C   0  0  2  0  0  0  0  0  0  0  0  0
   44.9340   34.6700   45.0000 C   0  0  0  0  0  0  0  0  0  0  0  0
   44.4110   35.6380   44.0750 C   0  0  0  0  0  0  0  0  0  0  0  0
   45.2010   36.0340   42.9150 C   0  0  0  0  0  0  0  0  0  0  0  0
   46.5590   35.4730   42.8130 C   0  0  0  0  0  0  0  0  0  0  0  0
   46.5150   34.0020   43.2590 C   0  0  1  0  0  0  0  0  0  0  0  0
   47.0210   32.7730   46.7220 C   0  0  0  0  0  0  0  0  0  0  0  0
   46.4180   32.8100   45.4640 C   0  0  0  0  0  0  0  0  0  0  0  0
   45.9200   31.5980   44.9220 C   0  0  0  0  0  0  0  0  0  0  0  0
   46.0480   30.4710   45.6380 N   0  0  0  0  0  0  0  0  0  0  0  0
   46.6420   30.4700   46.8630 C   0  0  0  0  0  0  0  0  0  0  0  0
   47.1180   31.6090   47.3900 N   0  0  0  0  0  0  0  0  0  0  0  0
   47.8550   33.5660   42.7820 C   0  0  0  0  0  0  0  0  0  0  0  0
   48.1260   32.2800   42.2840 C   0  0  0  0  0  0  0  0  0  0  0  0
   49.3990   31.9230   41.8870 C   0  0  0  0  0  0  0  0  0  0  0  0
   50.4280   32.8070   41.9690 C   0  0  0  0  0  0  0  0  0  0  0  0
   50.2050   34.0670   42.4470 C   0  0  0  0  0  0  0  0  0  0  0  0
   48.9440   34.4510   42.8500 C   0  0  0  0  0  0  0  0  0  0  0  0
   47.1492   34.6926   45.0818 H   0  0  0  0  0  0  0  0  0  0  0  0
   44.3564   34.3663   45.8855 H   0  0  0  0  0  0  0  0  0  0  0  0
   43.4172   36.0790   44.2418 H   0  0  0  0  0  0  0  0  0  0  0  0
   44.6466   35.7291   42.0151 H   0  0  0  0  0  0  0  0  0  0  0  0
   45.3454   37.1192   43.0222 H   0  0  0  0  0  0  0  0  0  0  0  0
   46.9085   35.5346   41.7718 H   0  0  0  0  0  0  0  0  0  0  0  0
   47.2499   36.0403   43.4540 H   0  0  0  0  0  0  0  0  0  0  0  0
   45.7432   33.3102   42.8906 H   0  0  0  0  0  0  0  0  0  0  0  0
   47.4176   33.6969   47.1682 H   0  0  0  0  0  0  0  0  0  0  0  0
   45.4380   31.5823   43.9334 H   0  0  0  0  0  0  0  0  0  0  0  0
   46.7325   29.5288   47.4251 H   0  0  0  0  0  0  0  0  0  0  0  0
   47.3103   31.5458   42.2093 H   0  0  0  0  0  0  0  0  0  0  0  0
   49.5829   30.9101   41.4993 H   0  0  0  0  0  0  0  0  0  0  0  0
   51.4379   32.5086   41.6512 H   0  0  0  0  0  0  0  0  0  0  0  0
   51.0390   34.7814   42.5109 H   0  0  0  0  0  0  0  0  0  0  0  0
   48.7873   35.4704   43.2324 H   0  0  0  0  0  0  0  0  0  0  0  0
  1  2  1  0
  1  8  1  0
  3  2  2  0
  4  3  1  0
  5  4  1  0
  5  6  1  0
  6  1  1  0
  7 12  2  0
  8  7  1  0
  9  8  2  0
  9 10  1  0
 10 11  2  0
 11 12  1  0
 13 18  1  0
 13  6  1  0
 14 13  2  0
 15 16  2  0
 15 14  1  0
 16 17  1  0
 17 18  2  0
  1 19  1  1
  2 20  1  0
  3 21  1  0
  4 22  1  0
  4 23  1  0
  5 24  1  0
  5 25  1  0
  6 26  1  6
  7 27  1  0
  9 28  1  0
 11 29  1  0
 14 30  1  0
 15 31  1  0
 16 32  1  0
 17 33  1  0
 18 34  1  0
M  ISO  8  19  13  20  13  21  13  22  13  23  13  24  13  25  13  26  13
M  ISO  8  27  14  28  14  29  14  30  14  31  14  32  14  33  14  34  14
M  END
>  <minimizedAffinity>  (1) 
-5.13189983

>  <minimizedRMSD>  (1) 
1.4238621

$$$$
