
     RDKit          3D

 31 32  0  0  1  0  0  0  0  0999 V2000
   45.9820   33.9500   44.9890 C   0  0  2  0  0  0  0  0  0  0  0  0
   44.8870   34.9330   45.4190 C   0  0  0  0  0  0  0  0  0  0  0  0
   44.4590   35.9450   44.4840 C   0  0  0  0  0  0  0  0  0  0  0  0
   45.0790   36.0120   43.1630 C   0  0  0  0  0  0  0  0  0  0  0  0
   46.2320   35.1110   42.9280 C   0  0  0  0  0  0  0  0  0  0  0  0
   45.8820   33.7460   43.5330 C   0  0  1  0  0  0  0  0  0  0  0  0
   45.5530   32.8680   47.2050 C   0  0  0  0  0  0  0  0  0  0  0  0
   45.8920   32.7810   45.8550 C   0  0  0  0  0  0  0  0  0  0  0  0
   46.1600   31.4930   45.3470 C   0  0  0  0  0  0  0  0  0  0  0  0
   46.0770   30.4300   46.1690 N   0  0  0  0  0  0  0  0  0  0  0  0
   45.7420   30.5670   47.4790 C   0  0  0  0  0  0  0  0  0  0  0  0
   45.4850   31.7830   47.9770 N   0  0  0  0  0  0  0  0  0  0  0  0
   46.7160   32.8410   42.8580 N   0  0  0  0  0  0  0  0  0  0  0  0
   48.1070   33.2110   42.6900 C   0  0  0  0  0  0  0  0  0  0  0  0
   48.6650   34.1450   43.3880 N   0  0  0  0  0  0  0  0  0  0  0  0
   48.9580   32.5550   41.7250 N   0  0  0  0  0  0  0  0  0  0  0  0
   49.6630   34.4310   43.2870 H   0  0  0  0  0  0  0  0  0  0  0  0
   47.0105   34.3147   45.1273 H   0  0  0  0  0  0  0  0  0  0  0  0
   44.4366   34.8680   46.4205 H   0  0  0  0  0  0  0  0  0  0  0  0
   43.6718   36.6606   44.7637 H   0  0  0  0  0  0  0  0  0  0  0  0
   44.3069   35.7680   42.4185 H   0  0  0  0  0  0  0  0  0  0  0  0
   45.4846   37.0313   43.0828 H   0  0  0  0  0  0  0  0  0  0  0  0
   46.4137   35.0076   41.8480 H   0  0  0  0  0  0  0  0  0  0  0  0
   47.1424   35.5182   43.3920 H   0  0  0  0  0  0  0  0  0  0  0  0
   44.8786   33.3135   43.4060 H   0  0  0  0  0  0  0  0  0  0  0  0
   45.3369   33.8538   47.6427 H   0  0  0  0  0  0  0  0  0  0  0  0
   46.4340   31.3583   44.2902 H   0  0  0  0  0  0  0  0  0  0  0  0
   45.6822   29.6812   48.1284 H   0  0  0  0  0  0  0  0  0  0  0  0
   46.3530   31.9477   42.4958 H   0  0  0  0  0  0  0  0  0  0  0  0
   49.9430   32.8404   41.6289 H   0  0  0  0  0  0  0  0  0  0  0  0
   48.5799   31.8018   41.1329 H   0  0  0  0  0  0  0  0  0  0  0  0
  1  2  1  0
  1  8  1  0
  3  2  2  0
  4  3  1  0
  5  4  1  0
  5  6  1  0
  6  1  1  0
  7 12  2  0
  8  7  1  0
  9  8  2  0
  9 10  1  0
 10 11  2  0
 11 12  1  0
 13  6  1  0
 14 13  1  0
 14 15  2  0
 16 14  1  0
 17 15  1  0
  1 18  1  6
  2 19  1  0
  3 20  1  0
  4 21  1  0
  4 22  1  0
  5 23  1  0
  5 24  1  0
  6 25  1  1
  7 26  1  0
  9 27  1  0
 11 28  1  0
 13 29  1  0
 16 30  1  0
 16 31  1  0
M  ISO  8  18  13  19  13  20  13  21  13  22  13  23  13  24  13  25  13
M  ISO  3  26  14  27  14  28  14
M  END
>  <minimizedAffinity>  (1) 
-4.8443656

>  <minimizedRMSD>  (1) 
1.08519268

$$$$
