
     RDKit          3D

 31 33  0  0  1  0  0  0  0  0999 V2000
   46.2110   34.0740   44.6820 C   0  0  2  0  0  0  0  0  0  0  0  0
   44.9740   34.7690   45.2130 C   0  0  0  0  0  0  0  0  0  0  0  0
   44.3910   35.7920   44.3730 C   0  0  0  0  0  0  0  0  0  0  0  0
   44.9860   36.1280   43.0750 C   0  0  0  0  0  0  0  0  0  0  0  0
   46.2960   35.5270   42.7830 C   0  0  0  0  0  0  0  0  0  0  0  0
   46.3120   34.0620   43.2130 C   0  0  1  0  0  0  0  0  0  0  0  0
   46.9910   32.7470   46.6020 C   0  0  0  0  0  0  0  0  0  0  0  0
   46.3630   32.7760   45.3570 C   0  0  0  0  0  0  0  0  0  0  0  0
   45.9430   31.5670   44.7920 C   0  0  0  0  0  0  0  0  0  0  0  0
   46.1560   30.4070   45.4570 N   0  0  0  0  0  0  0  0  0  0  0  0
   46.7710   30.4090   46.6700 C   0  0  0  0  0  0  0  0  0  0  0  0
   47.1830   31.5710   47.2320 N   0  0  0  0  0  0  0  0  0  0  0  0
   47.7310   33.6750   42.8210 C   0  0  0  0  0  0  0  0  0  0  0  0
   48.0440   32.6350   41.9790 C   0  0  0  0  0  0  0  0  0  0  0  0
   49.3950   32.5590   41.8670 N   0  0  0  0  0  0  0  0  0  0  0  0
   49.9150   33.5440   42.6340 C   0  0  0  0  0  0  0  0  0  0  0  0
   48.9160   34.2250   43.2150 N   0  0  0  0  0  0  0  0  0  0  0  0
   47.0991   34.6690   44.9413 H   0  0  0  0  0  0  0  0  0  0  0  0
   44.5404   34.5083   46.1897 H   0  0  0  0  0  0  0  0  0  0  0  0
   43.4902   36.3247   44.7118 H   0  0  0  0  0  0  0  0  0  0  0  0
   44.2860   35.8027   42.2913 H   0  0  0  0  0  0  0  0  0  0  0  0
   45.1618   37.2134   43.1054 H   0  0  0  0  0  0  0  0  0  0  0  0
   46.4922   35.5906   41.7025 H   0  0  0  0  0  0  0  0  0  0  0  0
   47.0729   36.0725   43.3387 H   0  0  0  0  0  0  0  0  0  0  0  0
   45.5318   33.4096   42.7938 H   0  0  0  0  0  0  0  0  0  0  0  0
   47.3294   33.6834   47.0695 H   0  0  0  0  0  0  0  0  0  0  0  0
   45.4423   31.5589   43.8126 H   0  0  0  0  0  0  0  0  0  0  0  0
   46.9354   29.4589   47.1995 H   0  0  0  0  0  0  0  0  0  0  0  0
   47.3205   31.9742   41.4791 H   0  0  0  0  0  0  0  0  0  0  0  0
   50.9873   33.7535   42.7613 H   0  0  0  0  0  0  0  0  0  0  0  0
   49.0250   35.0277   43.8512 H   0  0  0  0  0  0  0  0  0  0  0  0
  1  2  1  0
  1  8  1  0
  3  2  2  0
  4  3  1  0
  5  4  1  0
  5  6  1  0
  6  1  1  0
  7 12  2  0
  8  7  1  0
  9  8  2  0
  9 10  1  0
 10 11  2  0
 11 12  1  0
 13  6  1  0
 13 17  1  0
 14 13  2  0
 15 14  1  0
 15 16  2  0
 16 17  1  0
  1 18  1  1
  2 19  1  0
  3 20  1  0
  4 21  1  0
  4 22  1  0
  5 23  1  0
  5 24  1  0
  6 25  1  6
  7 26  1  0
  9 27  1  0
 11 28  1  0
 14 29  1  0
 16 30  1  0
 17 31  1  0
M  ISO  8  18  13  19  13  20  13  21  13  22  13  23  13  24  13  25  13
M  ISO  6  26  14  27  14  28  14  29  14  30  14  31   9
M  END
>  <minimizedAffinity>  (1) 
-4.81024504

>  <minimizedRMSD>  (1) 
1.3424325

$$$$
