
     RDKit          3D

 39 41  0  0  1  0  0  0  0  0999 V2000
   45.9930   33.9830   45.0660 C   0  0  2  0  0  0  0  0  0  0  0  0
   44.8670   34.9310   45.4590 C   0  0  0  0  0  0  0  0  0  0  0  0
   44.4430   35.9320   44.5070 C   0  0  0  0  0  0  0  0  0  0  0  0
   45.0990   36.0180   43.2070 C   0  0  0  0  0  0  0  0  0  0  0  0
   46.2600   35.1110   42.9820 C   0  0  0  0  0  0  0  0  0  0  0  0
   45.9560   33.7530   43.5990 C   0  0  1  0  0  0  0  0  0  0  0  0
   45.5940   32.8450   47.2540 C   0  0  0  0  0  0  0  0  0  0  0  0
   45.8830   32.7870   45.8950 C   0  0  0  0  0  0  0  0  0  0  0  0
   46.0690   31.4960   45.3460 C   0  0  0  0  0  0  0  0  0  0  0  0
   45.9650   30.4120   46.1340 N   0  0  0  0  0  0  0  0  0  0  0  0
   45.6790   30.5260   47.4580 C   0  0  0  0  0  0  0  0  0  0  0  0
   45.5000   31.7330   47.9910 N   0  0  0  0  0  0  0  0  0  0  0  0
   46.8750   32.7840   43.0700 N   0  0  0  0  0  0  0  0  0  0  0  0
   48.2430   33.1990   43.0680 C   0  0  0  0  0  0  0  0  0  0  0  0
   49.0760   32.0010   42.6560 C   0  0  0  0  0  0  0  0  0  0  0  0
   48.7720   31.6630   41.2150 C   0  0  0  0  0  0  0  0  0  0  0  0
   47.4950   32.3350   40.8070 C   0  0  0  0  0  0  0  0  0  0  0  0
   46.4680   32.1090   41.8920 C   0  0  0  0  0  0  0  0  0  0  0  0
   46.9917   34.4020   45.2583 H   0  0  0  0  0  0  0  0  0  0  0  0
   44.3872   34.8551   46.4459 H   0  0  0  0  0  0  0  0  0  0  0  0
   43.6288   36.6264   44.7616 H   0  0  0  0  0  0  0  0  0  0  0  0
   44.3457   35.7922   42.4379 H   0  0  0  0  0  0  0  0  0  0  0  0
   45.5136   37.0357   43.1591 H   0  0  0  0  0  0  0  0  0  0  0  0
   46.4331   34.9948   41.9019 H   0  0  0  0  0  0  0  0  0  0  0  0
   47.1602   35.5376   43.4485 H   0  0  0  0  0  0  0  0  0  0  0  0
   44.9709   33.3286   43.3551 H   0  0  0  0  0  0  0  0  0  0  0  0
   45.4398   33.8238   47.7317 H   0  0  0  0  0  0  0  0  0  0  0  0
   46.2982   31.3798   44.2764 H   0  0  0  0  0  0  0  0  0  0  0  0
   45.5959   29.6263   48.0855 H   0  0  0  0  0  0  0  0  0  0  0  0
   48.3860   34.0214   42.3516 H   0  0  0  0  0  0  0  0  0  0  0  0
   48.5428   33.5585   44.0635 H   0  0  0  0  0  0  0  0  0  0  0  0
   50.1444   32.2409   42.7611 H   0  0  0  0  0  0  0  0  0  0  0  0
   48.8343   31.1415   43.2984 H   0  0  0  0  0  0  0  0  0  0  0  0
   49.5936   32.0150   40.5738 H   0  0  0  0  0  0  0  0  0  0  0  0
   48.6660   30.5735   41.1066 H   0  0  0  0  0  0  0  0  0  0  0  0
   47.6678   33.4137   40.6782 H   0  0  0  0  0  0  0  0  0  0  0  0
   47.1362   31.9173   39.8547 H   0  0  0  0  0  0  0  0  0  0  0  0
   45.4937   32.4993   41.5628 H   0  0  0  0  0  0  0  0  0  0  0  0
   46.3789   31.0319   42.0965 H   0  0  0  0  0  0  0  0  0  0  0  0
  1  2  1  0
  1  8  1  0
  3  2  2  0
  4  3  1  0
  5  4  1  0
  5  6  1  0
  6  1  1  0
  7 12  2  0
  8  7  1  0
  9  8  2  0
  9 10  1  0
 10 11  2  0
 11 12  1  0
 13  6  1  0
 14 13  1  0
 15 14  1  0
 16 15  1  0
 17 16  1  0
 17 18  1  0
 18 13  1  0
  1 19  1  6
  2 20  1  0
  3 21  1  0
  4 22  1  0
  4 23  1  0
  5 24  1  0
  5 25  1  0
  6 26  1  6
  7 27  1  0
  9 28  1  0
 11 29  1  0
 14 30  1  0
 14 31  1  0
 15 32  1  0
 15 33  1  0
 16 34  1  0
 16 35  1  0
 17 36  1  0
 17 37  1  0
 18 38  1  0
 18 39  1  0
M  ISO  8  19  13  20  13  21  13  22  13  23  13  24  13  25  13  26  13
M  ISO  8  27  14  28  14  29  14  30  13  31  13  32  13  33  13  34  13
M  ISO  5  35  13  36  13  37  13  38  13  39  13
M  END
>  <minimizedAffinity>  (1) 
-4.79197693

>  <minimizedRMSD>  (1) 
0.6023283

$$$$
