
     RDKit          3D

 32 34  0  0  1  0  0  0  0  0999 V2000
   49.1970   33.4930   42.5430 C   0  0  2  0  0  0  0  0  0  0  0  0
   47.8050   33.7610   42.3320 C   0  0  2  0  0  0  0  0  0  0  0  0
   47.7530   35.2570   41.9470 C   0  0  0  0  0  0  0  0  0  0  0  0
   49.1330   35.7180   41.6210 C   0  0  0  0  0  0  0  0  0  0  0  0
   49.9270   34.8740   42.5490 C   0  0  0  0  0  0  0  0  0  0  0  0
   49.9200   32.7110   41.5260 C   0  0  0  0  0  0  0  0  0  0  0  0
   49.1820   32.3120   40.3860 C   0  0  0  0  0  0  0  0  0  0  0  0
   49.8470   31.6080   39.3870 C   0  0  0  0  0  0  0  0  0  0  0  0
   51.1890   31.3530   39.5890 N   0  0  0  0  0  0  0  0  0  0  0  0
   51.8590   31.7400   40.6730 C   0  0  0  0  0  0  0  0  0  0  0  0
   51.2080   32.4090   41.6150 N   0  0  0  0  0  0  0  0  0  0  0  0
   46.9130   33.5590   43.5170 C   0  0  0  0  0  0  0  0  0  0  0  0
   47.1670   32.7670   44.3810 O   0  0  0  0  0  0  0  0  0  0  0  0
   43.7910   35.3880   43.2800 N   0  0  0  0  0  0  0  0  0  0  0  0
   44.6690   34.5640   42.7610 N   0  0  0  0  0  0  0  0  0  0  0  0
   45.6850   34.3840   43.6220 C   0  0  0  0  0  0  0  0  0  0  0  0
   45.3330   35.1740   44.6980 C   0  0  0  0  0  0  0  0  0  0  0  0
   44.1380   35.8190   44.5030 C   0  0  0  0  0  0  0  0  0  0  0  0
   49.2114   32.8952   43.4663 H   0  0  0  0  0  0  0  0  0  0  0  0
   47.4309   33.0539   41.5769 H   0  0  0  0  0  0  0  0  0  0  0  0
   47.1019   35.3907   41.0705 H   0  0  0  0  0  0  0  0  0  0  0  0
   47.3511   35.8447   42.7855 H   0  0  0  0  0  0  0  0  0  0  0  0
   49.3901   35.5186   40.5702 H   0  0  0  0  0  0  0  0  0  0  0  0
   49.2935   36.8002   41.7350 H   0  0  0  0  0  0  0  0  0  0  0  0
   49.9321   35.3068   43.5603 H   0  0  0  0  0  0  0  0  0  0  0  0
   50.9802   34.7918   42.2424 H   0  0  0  0  0  0  0  0  0  0  0  0
   48.1125   32.5518   40.2925 H   0  0  0  0  0  0  0  0  0  0  0  0
   49.3276   31.2701   38.4781 H   0  0  0  0  0  0  0  0  0  0  0  0
   52.9288   31.5098   40.7845 H   0  0  0  0  0  0  0  0  0  0  0  0
   42.9260   35.6745   42.7998 H   0  0  0  0  0  0  0  0  0  0  0  0
   45.9418   35.2749   45.6086 H   0  0  0  0  0  0  0  0  0  0  0  0
   43.6041   36.5087   45.1733 H   0  0  0  0  0  0  0  0  0  0  0  0
  1  5  1  0
  2  1  1  0
  2 12  1  0
  3  2  1  0
  4  3  1  0
  4  5  1  0
  6 11  1  0
  6  1  1  0
  7  6  2  0
  8  9  2  0
  8  7  1  0
  9 10  1  0
 10 11  2  0
 12 16  1  0
 12 13  2  0
 14 18  1  0
 15 14  1  0
 15 16  2  0
 16 17  1  0
 18 17  2  0
  1 19  1  1
  2 20  1  6
  3 21  1  0
  3 22  1  0
  4 23  1  0
  4 24  1  0
  5 25  1  0
  5 26  1  0
  7 27  1  0
  8 28  1  0
 10 29  1  0
 14 30  1  0
 17 31  1  0
 18 32  1  0
M  ISO  8  19  13  20  13  21  13  22  13  23  13  24  13  25  13  26  13
M  ISO  6  27  14  28  14  29  14  30   9  31  14  32  14
M  END
>  <minimizedAffinity>  (1) 
-5.24448156

>  <minimizedRMSD>  (1) 
2.65642929

$$$$
