
     RDKit          3D

 26 27  0  0  1  0  0  0  0  0999 V2000
   45.9770   33.8480   45.3980 C   0  0  2  0  0  0  0  0  0  0  0  0
   44.8970   34.8530   45.7310 C   0  0  0  0  0  0  0  0  0  0  0  0
   44.5040   35.7670   44.6760 C   0  0  0  0  0  0  0  0  0  0  0  0
   45.1330   35.7100   43.3540 C   0  0  0  0  0  0  0  0  0  0  0  0
   46.2460   34.7370   43.1880 C   0  0  0  0  0  0  0  0  0  0  0  0
   45.9240   33.4770   43.9460 C   0  0  2  0  0  0  0  0  0  0  0  0
   45.1870   32.8580   47.5190 C   0  0  0  0  0  0  0  0  0  0  0  0
   45.8670   32.6890   46.3120 C   0  0  0  0  0  0  0  0  0  0  0  0
   46.4300   31.4150   46.0270 C   0  0  0  0  0  0  0  0  0  0  0  0
   46.2750   30.4290   46.9430 N   0  0  0  0  0  0  0  0  0  0  0  0
   45.6080   30.6250   48.1060 C   0  0  0  0  0  0  0  0  0  0  0  0
   45.0670   31.8330   48.3910 N   0  0  0  0  0  0  0  0  0  0  0  0
   44.6170   32.9610   43.6060 N   0  0  0  0  0  0  0  0  0  0  0  0
   46.9719   34.2899   45.5557 H   0  0  0  0  0  0  0  0  0  0  0  0
   44.4314   34.8890   46.7269 H   0  0  0  0  0  0  0  0  0  0  0  0
   43.7213   36.5149   44.8713 H   0  0  0  0  0  0  0  0  0  0  0  0
   44.3521   35.4518   42.6236 H   0  0  0  0  0  0  0  0  0  0  0  0
   45.5886   36.7002   43.2064 H   0  0  0  0  0  0  0  0  0  0  0  0
   46.3719   34.5016   42.1209 H   0  0  0  0  0  0  0  0  0  0  0  0
   47.1774   35.1733   43.5780 H   0  0  0  0  0  0  0  0  0  0  0  0
   46.6404   32.6810   43.6949 H   0  0  0  0  0  0  0  0  0  0  0  0
   44.7445   33.8351   47.7627 H   0  0  0  0  0  0  0  0  0  0  0  0
   46.9760   31.2350   45.0892 H   0  0  0  0  0  0  0  0  0  0  0  0
   45.5054   29.7973   48.8233 H   0  0  0  0  0  0  0  0  0  0  0  0
   44.0942   32.7546   44.4691 H   0  0  0  0  0  0  0  0  0  0  0  0
   44.1040   33.6626   43.0533 H   0  0  0  0  0  0  0  0  0  0  0  0
  1  2  1  0
  1  8  1  0
  3  2  2  0
  4  3  1  0
  5  4  1  0
  5  6  1  0
  6  1  1  0
  7 12  2  0
  8  7  1  0
  9  8  2  0
  9 10  1  0
 10 11  2  0
 11 12  1  0
 13  6  1  0
  1 14  1  6
  2 15  1  0
  3 16  1  0
  4 17  1  0
  4 18  1  0
  5 19  1  0
  5 20  1  0
  6 21  1  1
  7 22  1  0
  9 23  1  0
 11 24  1  0
 13 25  1  0
 13 26  1  0
M  ISO  8  14  13  15  13  16  13  17  13  18  13  19  13  20  13  21  13
M  ISO  5  22  14  23  14  24  14  25   5  26   5
M  END
>  <minimizedAffinity>  (1) 
-4.62698174

>  <minimizedRMSD>  (1) 
0.271631479

$$$$
