
     RDKit          3D

 31 33  0  0  1  0  0  0  0  0999 V2000
   46.0460   33.9720   45.2300 C   0  0  2  0  0  0  0  0  0  0  0  0
   44.8890   34.9230   45.4730 C   0  0  0  0  0  0  0  0  0  0  0  0
   44.5270   35.8110   44.3920 C   0  0  0  0  0  0  0  0  0  0  0  0
   45.2680   35.7660   43.1310 C   0  0  0  0  0  0  0  0  0  0  0  0
   46.4600   34.8860   43.0750 C   0  0  0  0  0  0  0  0  0  0  0  0
   46.0950   33.5770   43.7910 C   0  0  2  0  0  0  0  0  0  0  0  0
   45.1980   32.9830   47.3660 C   0  0  0  0  0  0  0  0  0  0  0  0
   45.9520   32.8670   46.1960 C   0  0  0  0  0  0  0  0  0  0  0  0
   46.6100   31.6400   46.0010 C   0  0  0  0  0  0  0  0  0  0  0  0
   46.4740   30.6760   46.9340 N   0  0  0  0  0  0  0  0  0  0  0  0
   45.7410   30.8290   48.0400 C   0  0  0  0  0  0  0  0  0  0  0  0
   45.1080   31.9870   48.2470 N   0  0  0  0  0  0  0  0  0  0  0  0
   44.7830   33.1230   43.2080 C   0  0  0  0  0  0  0  0  0  0  0  0
   44.6540   32.6530   41.8070 C   0  0  0  0  0  0  0  0  0  0  0  0
   44.6050   31.6210   42.9040 C   0  0  0  0  0  0  0  0  0  0  0  0
   47.0203   34.4497   45.4103 H   0  0  0  0  0  0  0  0  0  0  0  0
   44.3488   34.9359   46.4311 H   0  0  0  0  0  0  0  0  0  0  0  0
   43.6953   36.5200   44.5169 H   0  0  0  0  0  0  0  0  0  0  0  0
   44.5710   35.4286   42.3498 H   0  0  0  0  0  0  0  0  0  0  0  0
   45.6617   36.7844   42.9977 H   0  0  0  0  0  0  0  0  0  0  0  0
   46.7274   34.6805   42.0280 H   0  0  0  0  0  0  0  0  0  0  0  0
   47.3226   35.3673   43.5589 H   0  0  0  0  0  0  0  0  0  0  0  0
   46.7874   32.7300   43.6762 H   0  0  0  0  0  0  0  0  0  0  0  0
   44.6632   33.9232   47.5660 H   0  0  0  0  0  0  0  0  0  0  0  0
   47.2241   31.4696   45.1044 H   0  0  0  0  0  0  0  0  0  0  0  0
   45.6596   30.0115   48.7715 H   0  0  0  0  0  0  0  0  0  0  0  0
   44.2620   33.8933   43.7956 H   0  0  0  0  0  0  0  0  0  0  0  0
   45.5255   32.6939   41.1370 H   0  0  0  0  0  0  0  0  0  0  0  0
   43.9883   32.9131   40.9709 H   0  0  0  0  0  0  0  0  0  0  0  0
   43.6596   31.1139   43.1470 H   0  0  0  0  0  0  0  0  0  0  0  0
   45.1535   30.6980   43.1430 H   0  0  0  0  0  0  0  0  0  0  0  0
  1  2  1  0
  1  8  1  0
  3  2  2  0
  4  3  1  0
  5  4  1  0
  5  6  1  0
  6  1  1  0
  7 12  2  0
  8  7  1  0
  9  8  2  0
  9 10  1  0
 10 11  2  0
 11 12  1  0
 13  6  1  0
 14 15  1  0
 14 13  1  0
 15 13  1  0
  1 16  1  1
  2 17  1  0
  3 18  1  0
  4 19  1  0
  4 20  1  0
  5 21  1  0
  5 22  1  0
  6 23  1  1
  7 24  1  0
  9 25  1  0
 11 26  1  0
 13 27  1  0
 14 28  1  0
 14 29  1  0
 15 30  1  0
 15 31  1  0
M  ISO  8  16  13  17  13  18  13  19  13  20  13  21  13  22  13  23  13
M  ISO  8  24  14  25  14  26  14  27  13  28  13  29  13  30  13  31  13
M  END
>  <minimizedAffinity>  (1) 
-4.36355782

>  <minimizedRMSD>  (1) 
0.395634025

$$$$
