
     RDKit          3D

 27 28  0  0  1  0  0  0  0  0999 V2000
   46.1070   34.0830   45.2410 C   0  0  2  0  0  0  0  0  0  0  0  0
   44.8980   34.9600   45.4860 C   0  0  0  0  0  0  0  0  0  0  0  0
   44.4480   35.7850   44.3910 C   0  0  0  0  0  0  0  0  0  0  0  0
   45.1450   35.7650   43.1060 C   0  0  0  0  0  0  0  0  0  0  0  0
   46.3420   34.9000   42.9920 C   0  0  0  0  0  0  0  0  0  0  0  0
   46.1850   33.6680   43.8100 C   0  0  2  0  0  0  0  0  0  0  0  0
   45.2050   33.0130   47.2750 C   0  0  0  0  0  0  0  0  0  0  0  0
   46.0990   32.9740   46.2050 C   0  0  0  0  0  0  0  0  0  0  0  0
   46.9730   31.8580   46.1100 C   0  0  0  0  0  0  0  0  0  0  0  0
   46.8960   30.8870   47.0660 N   0  0  0  0  0  0  0  0  0  0  0  0
   46.0120   30.9630   48.0920 C   0  0  0  0  0  0  0  0  0  0  0  0
   45.1730   32.0200   48.1930 N   0  0  0  0  0  0  0  0  0  0  0  0
   45.0330   32.7980   43.3920 C   0  0  0  0  0  0  0  0  0  0  0  0
   47.0370   34.6438   45.4157 H   0  0  0  0  0  0  0  0  0  0  0  0
   44.3838   34.9681   46.4584 H   0  0  0  0  0  0  0  0  0  0  0  0
   43.5713   36.4358   44.5245 H   0  0  0  0  0  0  0  0  0  0  0  0
   44.4239   35.4321   42.3449 H   0  0  0  0  0  0  0  0  0  0  0  0
   45.5253   36.7891   42.9769 H   0  0  0  0  0  0  0  0  0  0  0  0
   46.4833   34.6174   41.9384 H   0  0  0  0  0  0  0  0  0  0  0  0
   47.2157   35.4579   43.3601 H   0  0  0  0  0  0  0  0  0  0  0  0
   47.0598   33.0207   43.6494 H   0  0  0  0  0  0  0  0  0  0  0  0
   44.5154   33.8643   47.3738 H   0  0  0  0  0  0  0  0  0  0  0  0
   47.6956   31.7783   45.2844 H   0  0  0  0  0  0  0  0  0  0  0  0
   45.9769   30.1620   48.8452 H   0  0  0  0  0  0  0  0  0  0  0  0
   44.5218   32.4119   44.2862 H   0  0  0  0  0  0  0  0  0  0  0  0
   44.3258   33.3894   42.7919 H   0  0  0  0  0  0  0  0  0  0  0  0
   45.4083   31.9559   42.7919 H   0  0  0  0  0  0  0  0  0  0  0  0
  1  2  1  0
  1  8  1  0
  3  2  2  0
  4  3  1  0
  5  4  1  0
  5  6  1  0
  6  1  1  0
  7 12  2  0
  8  7  1  0
  9  8  2  0
  9 10  1  0
 10 11  2  0
 11 12  1  0
 13  6  1  0
  1 14  1  1
  2 15  1  0
  3 16  1  0
  4 17  1  0
  4 18  1  0
  5 19  1  0
  5 20  1  0
  6 21  1  1
  7 22  1  0
  9 23  1  0
 11 24  1  0
 13 25  1  0
 13 26  1  0
 13 27  1  0
M  ISO  8  14  13  15  13  16  13  17  13  18  13  19  13  20  13  21  13
M  ISO  6  22  14  23  14  24  14  25   8  26   8  27   8
M  END
>  <minimizedAffinity>  (1) 
-4.26366091

>  <minimizedRMSD>  (1) 
0.500766218

$$$$
