
     RDKit          3D

 25 26  0  0  1  0  0  0  0  0999 V2000
   46.1560   34.0920   45.1320 C   0  0  2  0  0  0  0  0  0  0  0  0
   44.9120   34.9290   45.3090 C   0  0  0  0  0  0  0  0  0  0  0  0
   44.4960   35.7330   44.1810 C   0  0  0  0  0  0  0  0  0  0  0  0
   45.2540   35.7310   42.9300 C   0  0  0  0  0  0  0  0  0  0  0  0
   46.5150   34.9470   42.9160 C   0  0  0  0  0  0  0  0  0  0  0  0
   46.3000   33.6730   43.6990 C   0  0  2  0  0  0  0  0  0  0  0  0
   45.2920   33.0460   47.1870 C   0  0  0  0  0  0  0  0  0  0  0  0
   46.1520   32.9830   46.0900 C   0  0  0  0  0  0  0  0  0  0  0  0
   46.9740   31.8540   45.9820 C   0  0  0  0  0  0  0  0  0  0  0  0
   46.9100   30.8810   46.9240 N   0  0  0  0  0  0  0  0  0  0  0  0
   46.0640   30.9760   47.9770 C   0  0  0  0  0  0  0  0  0  0  0  0
   45.2610   32.0530   48.1020 N   0  0  0  0  0  0  0  0  0  0  0  0
   44.8240   32.7900   43.1330 S   0  0  0  0  0  0  0  0  0  0  0  0
   47.0546   34.6844   45.3588 H   0  0  0  0  0  0  0  0  0  0  0  0
   44.3476   34.9274   46.2531 H   0  0  0  0  0  0  0  0  0  0  0  0
   43.5939   36.3568   44.2653 H   0  0  0  0  0  0  0  0  0  0  0  0
   44.5999   35.3245   42.1445 H   0  0  0  0  0  0  0  0  0  0  0  0
   45.5614   36.7760   42.7764 H   0  0  0  0  0  0  0  0  0  0  0  0
   46.7879   34.7028   41.8787 H   0  0  0  0  0  0  0  0  0  0  0  0
   47.3272   35.5340   43.3696 H   0  0  0  0  0  0  0  0  0  0  0  0
   47.1416   32.9779   43.5627 H   0  0  0  0  0  0  0  0  0  0  0  0
   44.6302   33.9163   47.3083 H   0  0  0  0  0  0  0  0  0  0  0  0
   47.6695   31.7571   45.1353 H   0  0  0  0  0  0  0  0  0  0  0  0
   46.0314   30.1752   48.7304 H   0  0  0  0  0  0  0  0  0  0  0  0
   44.1053   32.3600   44.2172 H   0  0  0  0  0  0  0  0  0  0  0  0
  1  2  1  0
  1  8  1  0
  3  2  2  0
  4  3  1  0
  5  4  1  0
  5  6  1  0
  6  1  1  0
  7 12  2  0
  8  7  1  0
  9  8  2  0
  9 10  1  0
 10 11  2  0
 11 12  1  0
 13  6  1  0
  1 14  1  1
  2 15  1  0
  3 16  1  0
  4 17  1  0
  4 18  1  0
  5 19  1  0
  5 20  1  0
  6 21  1  1
  7 22  1  0
  9 23  1  0
 11 24  1  0
 13 25  1  0
M  ISO  8  14  13  15  13  16  13  17  13  18  13  19  13  20  13  21  13
M  ISO  4  22  14  23  14  24  14  25  11
M  END
>  <minimizedAffinity>  (1) 
-4.13662148

>  <minimizedRMSD>  (1) 
0.524547875

$$$$
