
     RDKit          3D

 31 33  0  0  1  0  0  0  0  0999 V2000
   46.2990   34.0070   44.7750 C   0  0  2  0  0  0  0  0  0  0  0  0
   45.0420   34.7440   45.1560 C   0  0  0  0  0  0  0  0  0  0  0  0
   44.4580   35.6940   44.2340 C   0  0  0  0  0  0  0  0  0  0  0  0
   45.0940   35.9230   42.9450 C   0  0  0  0  0  0  0  0  0  0  0  0
   46.3850   35.2820   42.7310 C   0  0  0  0  0  0  0  0  0  0  0  0
   46.4490   33.8980   43.3060 C   0  0  1  0  0  0  0  0  0  0  0  0
   46.9510   32.7010   46.7620 C   0  0  0  0  0  0  0  0  0  0  0  0
   46.3560   32.7250   45.4990 C   0  0  0  0  0  0  0  0  0  0  0  0
   45.8510   31.5090   44.9620 C   0  0  0  0  0  0  0  0  0  0  0  0
   45.9700   30.3860   45.6950 N   0  0  0  0  0  0  0  0  0  0  0  0
   46.5550   30.3920   46.9210 C   0  0  0  0  0  0  0  0  0  0  0  0
   47.0410   31.5400   47.4510 N   0  0  0  0  0  0  0  0  0  0  0  0
   47.8020   33.4850   42.9120 N   0  0  0  0  0  0  0  0  0  0  0  0
   48.3040   32.2790   42.5920 N   0  0  0  0  0  0  0  0  0  0  0  0
   49.6080   32.4340   42.3240 C   0  0  0  0  0  0  0  0  0  0  0  0
   49.9400   33.7560   42.4770 C   0  0  0  0  0  0  0  0  0  0  0  0
   48.7950   34.4260   42.8510 C   0  0  0  0  0  0  0  0  0  0  0  0
   47.1811   34.5840   45.0897 H   0  0  0  0  0  0  0  0  0  0  0  0
   44.5694   34.5606   46.1322 H   0  0  0  0  0  0  0  0  0  0  0  0
   43.5414   36.2384   44.5049 H   0  0  0  0  0  0  0  0  0  0  0  0
   44.4080   35.5602   42.1653 H   0  0  0  0  0  0  0  0  0  0  0  0
   45.2975   37.0034   42.9101 H   0  0  0  0  0  0  0  0  0  0  0  0
   46.5726   35.2220   41.6488 H   0  0  0  0  0  0  0  0  0  0  0  0
   47.1454   35.8893   43.2438 H   0  0  0  0  0  0  0  0  0  0  0  0
   45.6784   33.1893   42.9685 H   0  0  0  0  0  0  0  0  0  0  0  0
   47.3480   33.6294   47.1984 H   0  0  0  0  0  0  0  0  0  0  0  0
   45.3743   31.4864   43.9709 H   0  0  0  0  0  0  0  0  0  0  0  0
   46.6350   29.4539   47.4899 H   0  0  0  0  0  0  0  0  0  0  0  0
   50.2998   31.6312   42.0292 H   0  0  0  0  0  0  0  0  0  0  0  0
   50.9357   34.1994   42.3287 H   0  0  0  0  0  0  0  0  0  0  0  0
   48.6982   35.5018   43.0590 H   0  0  0  0  0  0  0  0  0  0  0  0
  1  2  1  0
  1  8  1  0
  3  2  2  0
  4  3  1  0
  5  4  1  0
  5  6  1  0
  6  1  1  0
  7 12  2  0
  8  7  1  0
  9  8  2  0
  9 10  1  0
 10 11  2  0
 11 12  1  0
 13  6  1  0
 14 13  1  0
 15 16  1  0
 15 14  2  0
 16 17  2  0
 17 13  1  0
  1 18  1  1
  2 19  1  0
  3 20  1  0
  4 21  1  0
  4 22  1  0
  5 23  1  0
  5 24  1  0
  6 25  1  6
  7 26  1  0
  9 27  1  0
 11 28  1  0
 15 29  1  0
 16 30  1  0
 17 31  1  0
M  ISO  8  18  13  19  13  20  13  21  13  22  13  23  13  24  13  25  13
M  ISO  6  26  14  27  14  28  14  29  14  30  14  31  14
M  END
>  <minimizedAffinity>  (1) 
-4.78949594

>  <minimizedRMSD>  (1) 
1.40095675

$$$$
