
     RDKit          3D

 47 51  0  0  1  0  0  0  0  0999 V2000
   46.0820   33.5530   45.8500 C   0  0  2  0  0  0  0  0  0  0  0  0
   45.0780   34.6770   46.0430 C   0  0  0  0  0  0  0  0  0  0  0  0
   44.3750   35.2260   44.8870 C   0  0  0  0  0  0  0  0  0  0  0  0
   44.6230   34.6820   43.5730 C   0  0  0  0  0  0  0  0  0  0  0  0
   45.8810   33.9200   43.4870 C   0  0  0  0  0  0  0  0  0  0  0  0
   45.8890   32.8910   44.5680 C   0  0  1  0  0  0  0  0  0  0  0  0
   47.3350   32.4870   47.6630 C   0  0  0  0  0  0  0  0  0  0  0  0
   46.1000   32.6830   47.0280 C   0  0  0  0  0  0  0  0  0  0  0  0
   44.9580   32.0300   47.5350 C   0  0  0  0  0  0  0  0  0  0  0  0
   45.0890   31.2380   48.6160 N   0  0  0  0  0  0  0  0  0  0  0  0
   46.2920   31.0580   49.2220 C   0  0  0  0  0  0  0  0  0  0  0  0
   47.3910   31.6730   48.7510 N   0  0  0  0  0  0  0  0  0  0  0  0
   46.9670   32.0080   44.1710 N   0  0  0  0  0  0  0  0  0  0  0  0
   47.2240   30.7450   44.6090 N   0  0  0  0  0  0  0  0  0  0  0  0
   48.2880   30.3080   43.9540 C   0  0  0  0  0  0  0  0  0  0  0  0
   48.6950   31.3130   43.0980 C   0  0  0  0  0  0  0  0  0  0  0  0
   47.8380   32.4040   43.2470 C   0  0  0  0  0  0  0  0  0  0  0  0
   48.2470   33.4580   42.3650 C   0  0  0  0  0  0  0  0  0  0  0  0
   48.9320   34.6300   42.7270 C   0  0  0  0  0  0  0  0  0  0  0  0
   49.3180   35.6750   41.9220 C   0  0  0  0  0  0  0  0  0  0  0  0
   48.9650   35.5010   40.6020 C   0  0  0  0  0  0  0  0  0  0  0  0
   48.2920   34.3980   40.1220 C   0  0  0  0  0  0  0  0  0  0  0  0
   47.9970   34.3760   38.7750 C   0  0  0  0  0  0  0  0  0  0  0  0
   47.3120   33.2980   38.2600 C   0  0  0  0  0  0  0  0  0  0  0  0
   46.9330   32.2620   39.0890 C   0  0  0  0  0  0  0  0  0  0  0  0
   47.2680   32.3630   40.4230 C   0  0  0  0  0  0  0  0  0  0  0  0
   47.9510   33.4050   41.0160 C   0  0  0  0  0  0  0  0  0  0  0  0
   47.1030   33.9570   45.7838 H   0  0  0  0  0  0  0  0  0  0  0  0
   44.8816   35.0754   47.0493 H   0  0  0  0  0  0  0  0  0  0  0  0
   43.6591   36.0510   45.0169 H   0  0  0  0  0  0  0  0  0  0  0  0
   43.7906   34.0131   43.3090 H   0  0  0  0  0  0  0  0  0  0  0  0
   44.7077   35.5311   42.8789 H   0  0  0  0  0  0  0  0  0  0  0  0
   45.9496   33.4274   42.5059 H   0  0  0  0  0  0  0  0  0  0  0  0
   46.7396   34.5972   43.6063 H   0  0  0  0  0  0  0  0  0  0  0  0
   44.9577   32.3193   44.6937 H   0  0  0  0  0  0  0  0  0  0  0  0
   48.2423   32.9829   47.2877 H   0  0  0  0  0  0  0  0  0  0  0  0
   43.9771   32.1652   47.0558 H   0  0  0  0  0  0  0  0  0  0  0  0
   46.3672   30.4047   50.1038 H   0  0  0  0  0  0  0  0  0  0  0  0
   48.7625   29.3224   44.0703 H   0  0  0  0  0  0  0  0  0  0  0  0
   49.5533   31.2616   42.4119 H   0  0  0  0  0  0  0  0  0  0  0  0
   49.1929   34.7233   43.7915 H   0  0  0  0  0  0  0  0  0  0  0  0
   49.8544   36.5604   42.2941 H   0  0  0  0  0  0  0  0  0  0  0  0
   49.2370   36.2911   39.8867 H   0  0  0  0  0  0  0  0  0  0  0  0
   48.3040   35.2064   38.1222 H   0  0  0  0  0  0  0  0  0  0  0  0
   47.0671   33.2628   37.1882 H   0  0  0  0  0  0  0  0  0  0  0  0
   46.3855   31.3903   38.7013 H   0  0  0  0  0  0  0  0  0  0  0  0
   46.9613   31.5334   41.0769 H   0  0  0  0  0  0  0  0  0  0  0  0
  1  2  1  0
  1  8  1  0
  3  2  2  0
  4  3  1  0
  5  4  1  0
  5  6  1  0
  6  1  1  0
  7 12  2  0
  8  9  2  0
  8  7  1  0
  9 10  1  0
 10 11  2  0
 12 11  1  0
 13  6  1  0
 13 14  1  0
 15 14  2  0
 16 17  2  0
 16 15  1  0
 17 13  1  0
 18 19  2  0
 18 17  1  0
 20 19  1  0
 21 20  2  0
 22 21  1  0
 22 27  2  0
 23 22  1  0
 24 23  2  0
 24 25  1  0
 25 26  2  0
 26 27  1  0
 27 18  1  0
  1 28  1  6
  2 29  1  0
  3 30  1  0
  4 31  1  0
  4 32  1  0
  5 33  1  0
  5 34  1  0
  6 35  1  1
  7 36  1  0
  9 37  1  0
 11 38  1  0
 15 39  1  0
 16 40  1  0
 19 41  1  0
 20 42  1  0
 21 43  1  0
 23 44  1  0
 24 45  1  0
 25 46  1  0
 26 47  1  0
M  ISO  8  28  13  29  13  30  13  31  13  32  13  33  13  34  13  35  13
M  ISO  8  36  14  37  14  38  14  39  14  40  14  41  14  42  14  43  14
M  ISO  4  44  14  45  14  46  14  47  14
M  END
>  <minimizedAffinity>  (1) 
-6.46549749

>  <minimizedRMSD>  (1) 
3.11871958

$$$$
