
     RDKit          3D

 44 48  0  0  1  0  0  0  0  0999 V2000
   46.4030   33.3450   45.3510 C   0  0  2  0  0  0  0  0  0  0  0  0
   45.3600   34.4220   45.5930 C   0  0  0  0  0  0  0  0  0  0  0  0
   44.7620   35.1120   44.4500 C   0  0  0  0  0  0  0  0  0  0  0  0
   45.1530   34.7500   43.1020 C   0  0  0  0  0  0  0  0  0  0  0  0
   46.4520   34.0460   43.0610 C   0  0  0  0  0  0  0  0  0  0  0  0
   46.3700   32.8620   43.9760 C   0  0  1  0  0  0  0  0  0  0  0  0
   47.1710   32.4480   47.5010 C   0  0  0  0  0  0  0  0  0  0  0  0
   46.3290   32.3240   46.4020 C   0  0  0  0  0  0  0  0  0  0  0  0
   45.4620   31.2130   46.3430 C   0  0  0  0  0  0  0  0  0  0  0  0
   45.4800   30.3180   47.3470 N   0  0  0  0  0  0  0  0  0  0  0  0
   46.3050   30.4580   48.4040 C   0  0  0  0  0  0  0  0  0  0  0  0
   47.1400   31.5110   48.4790 N   0  0  0  0  0  0  0  0  0  0  0  0
   47.5190   32.0690   43.5890 N   0  0  0  0  0  0  0  0  0  0  0  0
   48.1100   31.0470   44.2400 N   0  0  0  0  0  0  0  0  0  0  0  0
   49.1210   30.6070   43.5110 C   0  0  0  0  0  0  0  0  0  0  0  0
   49.1590   31.3800   42.3680 C   0  0  0  0  0  0  0  0  0  0  0  0
   48.1280   32.3120   42.4320 C   0  0  0  0  0  0  0  0  0  0  0  0
   48.1290   33.1410   41.2820 N   0  0  0  0  0  0  0  0  0  0  0  0
   48.5470   34.4120   40.9770 C   0  0  0  0  0  0  0  0  0  0  0  0
   48.2580   34.6640   39.6930 N   0  0  0  0  0  0  0  0  0  0  0  0
   47.6630   33.6000   39.1310 C   0  0  0  0  0  0  0  0  0  0  0  0
   47.2190   33.4830   37.8330 C   0  0  0  0  0  0  0  0  0  0  0  0
   46.6440   32.2790   37.5370 N   0  0  0  0  0  0  0  0  0  0  0  0
   46.5500   31.3210   38.4970 C   0  0  0  0  0  0  0  0  0  0  0  0
   47.0010   31.4920   39.7500 N   0  0  0  0  0  0  0  0  0  0  0  0
   47.5780   32.6360   40.1310 C   0  0  0  0  0  0  0  0  0  0  0  0
   47.3550   34.5250   36.8990 N   0  0  0  0  0  0  0  0  0  0  0  0
   47.4143   33.7683   45.4409 H   0  0  0  0  0  0  0  0  0  0  0  0
   45.0570   34.6809   46.6183 H   0  0  0  0  0  0  0  0  0  0  0  0
   44.0167   35.9044   44.6133 H   0  0  0  0  0  0  0  0  0  0  0  0
   44.3814   34.0924   42.6751 H   0  0  0  0  0  0  0  0  0  0  0  0
   45.2571   35.6791   42.5225 H   0  0  0  0  0  0  0  0  0  0  0  0
   46.6616   33.7101   42.0347 H   0  0  0  0  0  0  0  0  0  0  0  0
   47.2604   34.7196   43.3816 H   0  0  0  0  0  0  0  0  0  0  0  0
   45.4535   32.2576   43.9070 H   0  0  0  0  0  0  0  0  0  0  0  0
   47.8592   33.3028   47.5763 H   0  0  0  0  0  0  0  0  0  0  0  0
   44.7815   31.0805   45.4890 H   0  0  0  0  0  0  0  0  0  0  0  0
   46.2957   29.7082   49.2088 H   0  0  0  0  0  0  0  0  0  0  0  0
   49.8023   29.7820   43.7665 H   0  0  0  0  0  0  0  0  0  0  0  0
   49.8822   31.2766   41.5456 H   0  0  0  0  0  0  0  0  0  0  0  0
   49.0383   35.1090   41.6719 H   0  0  0  0  0  0  0  0  0  0  0  0
   46.0824   30.3605   38.2348 H   0  0  0  0  0  0  0  0  0  0  0  0
   47.0108   34.4017   35.9361 H   0  0  0  0  0  0  0  0  0  0  0  0
   47.7988   35.4117   37.1777 H   0  0  0  0  0  0  0  0  0  0  0  0
  1  2  1  0
  1  8  1  0
  3  2  2  0
  4  3  1  0
  5  4  1  0
  5  6  1  0
  6  1  1  0
  7 12  2  0
  8  7  1  0
  9  8  2  0
  9 10  1  0
 10 11  2  0
 11 12  1  0
 13  6  1  0
 13 14  1  0
 15 14  2  0
 16 17  2  0
 16 15  1  0
 17 13  1  0
 18 17  1  0
 19 18  1  0
 20 19  2  0
 21 20  1  0
 21 26  2  0
 22 21  1  0
 23 22  2  0
 23 24  1  0
 24 25  2  0
 25 26  1  0
 26 18  1  0
 27 22  1  0
  1 28  1  1
  2 29  1  0
  3 30  1  0
  4 31  1  0
  4 32  1  0
  5 33  1  0
  5 34  1  0
  6 35  1  6
  7 36  1  0
  9 37  1  0
 11 38  1  0
 15 39  1  0
 16 40  1  0
 19 41  1  0
 24 42  1  0
 27 43  1  0
 27 44  1  0
M  ISO  8  28  13  29  13  30  13  31  13  32  13  33  13  34  13  35  13
M  ISO  7  36  14  37  14  38  14  39  14  40  14  41  14  42  14
M  END
>  <minimizedAffinity>  (1) 
-5.87662601

>  <minimizedRMSD>  (1) 
3.89939117

$$$$
