
     RDKit          3D

 40 42  0  0  1  0  0  0  0  0999 V2000
   46.1460   33.8520   44.3470 C   0  0  2  0  0  0  0  0  0  0  0  0
   45.2260   34.7810   45.0860 C   0  0  0  0  0  0  0  0  0  0  0  0
   44.5290   35.8190   44.3600 C   0  0  0  0  0  0  0  0  0  0  0  0
   44.6880   35.9330   42.9410 C   0  0  0  0  0  0  0  0  0  0  0  0
   45.4850   34.9220   42.2250 C   0  0  0  0  0  0  0  0  0  0  0  0
   45.8330   33.7370   42.9560 C   0  0  1  0  0  0  0  0  0  0  0  0
   46.9340   32.5490   46.2850 C   0  0  0  0  0  0  0  0  0  0  0  0
   46.2390   32.5780   45.0880 C   0  0  0  0  0  0  0  0  0  0  0  0
   45.6830   31.3690   44.6410 C   0  0  0  0  0  0  0  0  0  0  0  0
   45.8330   30.2450   45.3640 N   0  0  0  0  0  0  0  0  0  0  0  0
   46.5170   30.2520   46.5250 C   0  0  0  0  0  0  0  0  0  0  0  0
   47.0590   31.3930   46.9780 N   0  0  0  0  0  0  0  0  0  0  0  0
   46.8230   33.0720   42.1300 N   0  0  0  0  0  0  0  0  0  0  0  0
   46.6770   31.9540   41.3730 N   0  0  0  0  0  0  0  0  0  0  0  0
   47.8530   31.7810   40.7700 C   0  0  0  0  0  0  0  0  0  0  0  0
   48.7080   32.7970   41.1670 C   0  0  0  0  0  0  0  0  0  0  0  0
   48.0320   33.6380   42.0580 C   0  0  0  0  0  0  0  0  0  0  0  0
   48.9010   34.6890   42.5470 C   0  0  0  0  0  0  0  0  0  0  0  0
   48.9490   35.8000   41.5090 C   0  0  0  0  0  0  0  0  0  0  0  0
   50.3960   34.2370   42.5680 C   0  0  0  0  0  0  0  0  0  0  0  0
   47.1590   34.2798   44.3188 H   0  0  0  0  0  0  0  0  0  0  0  0
   45.0836   34.6725   46.1713 H   0  0  0  0  0  0  0  0  0  0  0  0
   43.8759   36.5219   44.8979 H   0  0  0  0  0  0  0  0  0  0  0  0
   43.6795   35.9175   42.5020 H   0  0  0  0  0  0  0  0  0  0  0  0
   45.2666   36.8601   42.8156 H   0  0  0  0  0  0  0  0  0  0  0  0
   44.9105   34.6107   41.3401 H   0  0  0  0  0  0  0  0  0  0  0  0
   46.4428   35.4149   42.0022 H   0  0  0  0  0  0  0  0  0  0  0  0
   44.9312   33.1241   43.1015 H   0  0  0  0  0  0  0  0  0  0  0  0
   47.3878   33.4718   46.6756 H   0  0  0  0  0  0  0  0  0  0  0  0
   45.1221   31.3409   43.6951 H   0  0  0  0  0  0  0  0  0  0  0  0
   46.6311   29.3222   47.1016 H   0  0  0  0  0  0  0  0  0  0  0  0
   48.1033   30.9674   40.0733 H   0  0  0  0  0  0  0  0  0  0  0  0
   49.7493   32.9220   40.8354 H   0  0  0  0  0  0  0  0  0  0  0  0
   48.5177   34.9695   43.5392 H   0  0  0  0  0  0  0  0  0  0  0  0
   48.9911   36.7748   42.0169 H   0  0  0  0  0  0  0  0  0  0  0  0
   49.8426   35.6755   40.8797 H   0  0  0  0  0  0  0  0  0  0  0  0
   48.0480   35.7531   40.8797 H   0  0  0  0  0  0  0  0  0  0  0  0
   50.7336   34.1349   43.6099 H   0  0  0  0  0  0  0  0  0  0  0  0
   50.4937   33.2692   42.0544 H   0  0  0  0  0  0  0  0  0  0  0  0
   51.0135   34.9886   42.0544 H   0  0  0  0  0  0  0  0  0  0  0  0
  1  2  1  0
  1  8  1  0
  3  2  2  0
  4  3  1  0
  5  4  1  0
  5  6  1  0
  6  1  1  0
  7 12  2  0
  8  7  1  0
  9  8  2  0
  9 10  1  0
 10 11  2  0
 11 12  1  0
 13  6  1  0
 14 13  1  0
 15 16  1  0
 15 14  2  0
 16 17  2  0
 17 13  1  0
 17 18  1  0
 18 20  1  0
 19 18  1  0
  1 21  1  6
  2 22  1  0
  3 23  1  0
  4 24  1  0
  4 25  1  0
  5 26  1  0
  5 27  1  0
  6 28  1  1
  7 29  1  0
  9 30  1  0
 11 31  1  0
 15 32  1  0
 16 33  1  0
 18 34  1  0
 19 35  1  0
 19 36  1  0
 19 37  1  0
 20 38  1  0
 20 39  1  0
 20 40  1  0
M  ISO  8  21  13  22  13  23  13  24  13  25  13  26  13  27  13  28  13
M  ISO  8  29  14  30  14  31  14  32  14  33  14  34   8  35   8  36   8
M  ISO  4  37   8  38   8  39   8  40   8
M  END
>  <minimizedAffinity>  (1) 
-5.37711859

>  <minimizedRMSD>  (1) 
1.19186974

$$$$
