
     RDKit          3D

 36 39  0  0  1  0  0  0  0  0999 V2000
   46.3280   33.4990   45.5070 C   0  0  2  0  0  0  0  0  0  0  0  0
   45.2330   34.4890   45.8300 C   0  0  0  0  0  0  0  0  0  0  0  0
   44.5660   35.1890   44.7240 C   0  0  0  0  0  0  0  0  0  0  0  0
   44.9410   34.8980   43.3410 C   0  0  0  0  0  0  0  0  0  0  0  0
   46.2530   34.2210   43.2230 C   0  0  0  0  0  0  0  0  0  0  0  0
   46.2670   33.0340   44.1310 C   0  0  1  0  0  0  0  0  0  0  0  0
   47.3070   32.5890   47.5650 C   0  0  0  0  0  0  0  0  0  0  0  0
   46.3720   32.4500   46.5430 C   0  0  0  0  0  0  0  0  0  0  0  0
   45.5340   31.3200   46.5390 C   0  0  0  0  0  0  0  0  0  0  0  0
   45.6650   30.4100   47.5220 N   0  0  0  0  0  0  0  0  0  0  0  0
   46.5740   30.5560   48.5050 C   0  0  0  0  0  0  0  0  0  0  0  0
   47.3810   31.6310   48.5230 N   0  0  0  0  0  0  0  0  0  0  0  0
   47.4150   32.2820   43.6920 N   0  0  0  0  0  0  0  0  0  0  0  0
   47.7700   31.0070   43.9410 N   0  0  0  0  0  0  0  0  0  0  0  0
   48.8960   30.7870   43.2480 C   0  0  0  0  0  0  0  0  0  0  0  0
   49.2450   31.9430   42.5600 C   0  0  0  0  0  0  0  0  0  0  0  0
   48.2840   32.8730   42.8680 C   0  0  0  0  0  0  0  0  0  0  0  0
   48.6210   34.1250   42.1690 C   0  0  0  0  0  0  0  0  0  0  0  0
   48.2630   34.4850   40.8930 N   0  0  0  0  0  0  0  0  0  0  0  0
   48.7510   35.6640   40.6430 O   0  0  0  0  0  0  0  0  0  0  0  0
   49.4050   36.0760   41.7030 C   0  0  0  0  0  0  0  0  0  0  0  0
   49.3570   35.1700   42.6660 N   0  0  0  0  0  0  0  0  0  0  0  0
   47.3072   33.9986   45.5474 H   0  0  0  0  0  0  0  0  0  0  0  0
   44.9410   34.6817   46.8729 H   0  0  0  0  0  0  0  0  0  0  0  0
   43.7838   35.9327   44.9364 H   0  0  0  0  0  0  0  0  0  0  0  0
   44.1712   34.2482   42.8992 H   0  0  0  0  0  0  0  0  0  0  0  0
   45.0209   35.8604   42.8143 H   0  0  0  0  0  0  0  0  0  0  0  0
   46.4078   33.8935   42.1843 H   0  0  0  0  0  0  0  0  0  0  0  0
   47.0582   34.9157   43.5043 H   0  0  0  0  0  0  0  0  0  0  0  0
   45.3723   32.3951   44.0940 H   0  0  0  0  0  0  0  0  0  0  0  0
   47.9755   33.4620   47.5954 H   0  0  0  0  0  0  0  0  0  0  0  0
   44.7843   31.1825   45.7459 H   0  0  0  0  0  0  0  0  0  0  0  0
   46.6562   29.7944   49.2944 H   0  0  0  0  0  0  0  0  0  0  0  0
   49.4558   29.8403   43.2271 H   0  0  0  0  0  0  0  0  0  0  0  0
   50.1151   32.0839   41.9020 H   0  0  0  0  0  0  0  0  0  0  0  0
   49.9229   37.0433   41.7806 H   0  0  0  0  0  0  0  0  0  0  0  0
  1  2  1  0
  1  8  1  0
  3  2  2  0
  4  3  1  0
  5  4  1  0
  5  6  1  0
  6  1  1  0
  7 12  2  0
  8  7  1  0
  9  8  2  0
  9 10  1  0
 10 11  2  0
 11 12  1  0
 13 14  1  0
 13  6  1  0
 15 14  2  0
 16 17  2  0
 16 15  1  0
 17 13  1  0
 18 22  1  0
 18 17  1  0
 19 18  2  0
 20 19  1  0
 20 21  1  0
 21 22  2  0
  1 23  1  6
  2 24  1  0
  3 25  1  0
  4 26  1  0
  4 27  1  0
  5 28  1  0
  5 29  1  0
  6 30  1  1
  7 31  1  0
  9 32  1  0
 11 33  1  0
 15 34  1  0
 16 35  1  0
 21 36  1  0
M  ISO  8  23  13  24  13  25  13  26  13  27  13  28  13  29  13  30  13
M  ISO  6  31  14  32  14  33  14  34  14  35  14  36  14
M  END
>  <minimizedAffinity>  (1) 
-5.30755663

>  <minimizedRMSD>  (1) 
1.7982533

$$$$
