
     RDKit          3D

 38 41  0  0  1  0  0  0  0  0999 V2000
   45.7950   33.9910   44.9330 C   0  0  2  0  0  0  0  0  0  0  0  0
   44.9950   35.2200   45.2700 C   0  0  0  0  0  0  0  0  0  0  0  0
   44.1670   35.8450   44.2650 C   0  0  0  0  0  0  0  0  0  0  0  0
   44.0960   35.2660   42.9530 C   0  0  0  0  0  0  0  0  0  0  0  0
   44.8460   34.0570   42.6620 C   0  0  0  0  0  0  0  0  0  0  0  0
   45.2350   33.2760   43.8170 C   0  0  1  0  0  0  0  0  0  0  0  0
   47.1080   32.3510   46.2010 C   0  0  0  0  0  0  0  0  0  0  0  0
   45.9670   33.1690   46.1640 C   0  0  0  0  0  0  0  0  0  0  0  0
   45.0760   33.1440   47.2480 C   0  0  0  0  0  0  0  0  0  0  0  0
   45.3450   32.3340   48.2890 N   0  0  0  0  0  0  0  0  0  0  0  0
   46.4400   31.5520   48.3190 C   0  0  0  0  0  0  0  0  0  0  0  0
   47.3040   31.5620   47.2920 N   0  0  0  0  0  0  0  0  0  0  0  0
   46.0970   32.2290   43.2700 N   0  0  0  0  0  0  0  0  0  0  0  0
   45.8560   30.8820   43.2520 N   0  0  0  0  0  0  0  0  0  0  0  0
   46.8500   30.3470   42.5720 C   0  0  0  0  0  0  0  0  0  0  0  0
   47.6910   31.3560   42.1790 C   0  0  0  0  0  0  0  0  0  0  0  0
   47.2010   32.5880   42.6420 C   0  0  0  0  0  0  0  0  0  0  0  0
   48.0770   33.6960   42.3190 C   0  0  0  0  0  0  0  0  0  0  0  0
   48.0880   34.6560   41.2930 C   0  0  0  0  0  0  0  0  0  0  0  0
   49.0360   35.5690   41.4030 N   0  0  0  0  0  0  0  0  0  0  0  0
   49.7000   35.2480   42.5170 C   0  0  0  0  0  0  0  0  0  0  0  0
   49.1240   34.1550   43.0320 N   0  0  0  0  0  0  0  0  0  0  0  0
   46.7996   34.2800   44.5907 H   0  0  0  0  0  0  0  0  0  0  0  0
   45.0408   35.6435   46.2842 H   0  0  0  0  0  0  0  0  0  0  0  0
   43.5967   36.7552   44.5023 H   0  0  0  0  0  0  0  0  0  0  0  0
   43.0370   35.0393   42.7605 H   0  0  0  0  0  0  0  0  0  0  0  0
   44.5692   36.0236   42.3110 H   0  0  0  0  0  0  0  0  0  0  0  0
   44.2255   33.4200   42.0146 H   0  0  0  0  0  0  0  0  0  0  0  0
   45.7827   34.3872   42.1892 H   0  0  0  0  0  0  0  0  0  0  0  0
   44.3415   32.8726   44.3159 H   0  0  0  0  0  0  0  0  0  0  0  0
   47.8261   32.3483   45.3678 H   0  0  0  0  0  0  0  0  0  0  0  0
   44.1746   33.7745   47.2470 H   0  0  0  0  0  0  0  0  0  0  0  0
   46.6273   30.9031   49.1873 H   0  0  0  0  0  0  0  0  0  0  0  0
   46.9821   29.2763   42.3569 H   0  0  0  0  0  0  0  0  0  0  0  0
   48.6103   31.2210   41.5902 H   0  0  0  0  0  0  0  0  0  0  0  0
   47.3647   34.6478   40.4643 H   0  0  0  0  0  0  0  0  0  0  0  0
   50.5640   35.7850   42.9354 H   0  0  0  0  0  0  0  0  0  0  0  0
   49.4525   33.7042   43.8979 H   0  0  0  0  0  0  0  0  0  0  0  0
  1  2  1  0
  1  8  1  0
  3  2  2  0
  4  3  1  0
  5  4  1  0
  5  6  1  0
  6  1  1  0
  7 12  2  0
  8  7  1  0
  8  9  2  0
  9 10  1  0
 10 11  2  0
 12 11  1  0
 13  6  1  0
 14 13  1  0
 15 14  2  0
 16 15  1  0
 16 17  2  0
 17 13  1  0
 18 17  1  0
 18 22  1  0
 19 20  1  0
 19 18  2  0
 20 21  2  0
 21 22  1  0
  1 23  1  6
  2 24  1  0
  3 25  1  0
  4 26  1  0
  4 27  1  0
  5 28  1  0
  5 29  1  0
  6 30  1  1
  7 31  1  0
  9 32  1  0
 11 33  1  0
 15 34  1  0
 16 35  1  0
 19 36  1  0
 21 37  1  0
 22 38  1  0
M  ISO  8  23  13  24  13  25  13  26  13  27  13  28  13  29  13  30  13
M  ISO  8  31  14  32  14  33  14  34  14  35  14  36  14  37  14  38   9
M  END
>  <minimizedAffinity>  (1) 
-5.30148315

>  <minimizedRMSD>  (1) 
2.29744411

$$$$
