
     RDKit          3D

 41 44  0  0  1  0  0  0  0  0999 V2000
   46.3330   33.2990   45.7170 C   0  0  2  0  0  0  0  0  0  0  0  0
   45.3240   34.4230   45.8780 C   0  0  0  0  0  0  0  0  0  0  0  0
   44.6920   35.0060   44.6940 C   0  0  0  0  0  0  0  0  0  0  0  0
   45.0170   34.4840   43.3860 C   0  0  0  0  0  0  0  0  0  0  0  0
   46.2760   33.7250   43.3530 C   0  0  0  0  0  0  0  0  0  0  0  0
   46.2210   32.6660   44.4090 C   0  0  1  0  0  0  0  0  0  0  0  0
   47.3370   32.4800   47.7950 C   0  0  0  0  0  0  0  0  0  0  0  0
   46.2800   32.4020   46.8740 C   0  0  0  0  0  0  0  0  0  0  0  0
   45.2470   31.4680   47.0920 C   0  0  0  0  0  0  0  0  0  0  0  0
   45.3090   30.6780   48.1820 N   0  0  0  0  0  0  0  0  0  0  0  0
   46.3320   30.7620   49.0620 C   0  0  0  0  0  0  0  0  0  0  0  0
   47.3270   31.6470   48.8710 N   0  0  0  0  0  0  0  0  0  0  0  0
   47.3310   31.7970   44.0620 N   0  0  0  0  0  0  0  0  0  0  0  0
   47.8360   30.7460   44.7380 N   0  0  0  0  0  0  0  0  0  0  0  0
   48.8390   30.2430   44.0350 C   0  0  0  0  0  0  0  0  0  0  0  0
   48.9570   31.0060   42.8900 C   0  0  0  0  0  0  0  0  0  0  0  0
   47.9820   32.0030   42.9200 C   0  0  0  0  0  0  0  0  0  0  0  0
   48.0990   32.7870   41.7620 N   0  0  0  0  0  0  0  0  0  0  0  0
   48.6420   34.0110   41.5430 C   0  0  0  0  0  0  0  0  0  0  0  0
   48.6580   34.6600   40.3380 C   0  0  0  0  0  0  0  0  0  0  0  0
   48.0760   34.0130   39.2730 C   0  0  0  0  0  0  0  0  0  0  0  0
   48.1060   34.6340   38.1770 O   0  0  0  0  0  0  0  0  0  0  0  0
   47.5310   32.7990   39.4630 N   0  0  0  0  0  0  0  0  0  0  0  0
   47.5320   32.1870   40.6670 C   0  0  0  0  0  0  0  0  0  0  0  0
   46.9470   31.0580   40.5450 O   0  0  0  0  0  0  0  0  0  0  0  0
   47.3562   33.7027   45.7192 H   0  0  0  0  0  0  0  0  0  0  0  0
   45.0695   34.7972   46.8806 H   0  0  0  0  0  0  0  0  0  0  0  0
   43.9758   35.8343   44.7985 H   0  0  0  0  0  0  0  0  0  0  0  0
   44.2016   33.8197   43.0639 H   0  0  0  0  0  0  0  0  0  0  0  0
   45.1421   35.3470   42.7154 H   0  0  0  0  0  0  0  0  0  0  0  0
   46.4015   33.2576   42.3652 H   0  0  0  0  0  0  0  0  0  0  0  0
   47.1262   34.3979   43.5385 H   0  0  0  0  0  0  0  0  0  0  0  0
   45.2866   32.0878   44.4592 H   0  0  0  0  0  0  0  0  0  0  0  0
   48.1562   33.1996   47.6497 H   0  0  0  0  0  0  0  0  0  0  0  0
   44.4071   31.3856   46.3865 H   0  0  0  0  0  0  0  0  0  0  0  0
   46.3509   30.1013   49.9413 H   0  0  0  0  0  0  0  0  0  0  0  0
   49.4616   29.3792   44.3112 H   0  0  0  0  0  0  0  0  0  0  0  0
   49.6955   30.8532   42.0892 H   0  0  0  0  0  0  0  0  0  0  0  0
   49.1053   34.5213   42.4003 H   0  0  0  0  0  0  0  0  0  0  0  0
   49.1156   35.6540   40.2264 H   0  0  0  0  0  0  0  0  0  0  0  0
   47.0972   32.3184   38.6619 H   0  0  0  0  0  0  0  0  0  0  0  0
  1  2  1  0
  1  8  1  0
  3  2  2  0
  4  3  1  0
  5  4  1  0
  5  6  1  0
  6  1  1  0
  7 12  2  0
  8  9  2  0
  8  7  1  0
  9 10  1  0
 10 11  2  0
 12 11  1  0
 13  6  1  0
 13 14  1  0
 15 14  2  0
 16 17  2  0
 16 15  1  0
 17 13  1  0
 18 17  1  0
 19 18  1  0
 20 19  2  0
 21 23  1  0
 21 20  1  0
 22 21  2  0
 23 24  1  0
 24 18  1  0
 25 24  2  0
  1 26  1  6
  2 27  1  0
  3 28  1  0
  4 29  1  0
  4 30  1  0
  5 31  1  0
  5 32  1  0
  6 33  1  1
  7 34  1  0
  9 35  1  0
 11 36  1  0
 15 37  1  0
 16 38  1  0
 19 39  1  0
 20 40  1  0
 23 41  1  0
M  ISO  8  26  13  27  13  28  13  29  13  30  13  31  13  32  13  33  13
M  ISO  8  34  14  35  14  36  14  37  14  38  14  39  14  40  14  41   9
M  END
>  <minimizedAffinity>  (1) 
-5.15423441

>  <minimizedRMSD>  (1) 
3.458112

$$$$
