
     RDKit          3D

 34 36  0  0  1  0  0  0  0  0999 V2000
   46.4570   33.7420   44.6860 C   0  0  2  0  0  0  0  0  0  0  0  0
   45.2680   34.5780   45.0590 C   0  0  0  0  0  0  0  0  0  0  0  0
   44.7440   35.5380   44.1140 C   0  0  0  0  0  0  0  0  0  0  0  0
   45.3430   35.6620   42.8170 C   0  0  0  0  0  0  0  0  0  0  0  0
   46.3710   34.6900   42.4130 C   0  0  0  0  0  0  0  0  0  0  0  0
   46.5640   33.5510   43.2710 C   0  0  1  0  0  0  0  0  0  0  0  0
   47.0530   32.5100   46.7330 C   0  0  0  0  0  0  0  0  0  0  0  0
   46.4320   32.5040   45.4900 C   0  0  0  0  0  0  0  0  0  0  0  0
   45.8380   31.3000   45.0730 C   0  0  0  0  0  0  0  0  0  0  0  0
   45.8880   30.2150   45.8650 N   0  0  0  0  0  0  0  0  0  0  0  0
   46.5010   30.2540   47.0650 C   0  0  0  0  0  0  0  0  0  0  0  0
   47.0750   31.3890   47.4900 N   0  0  0  0  0  0  0  0  0  0  0  0
   47.7920   32.9450   42.7940 N   0  0  0  0  0  0  0  0  0  0  0  0
   48.0200   31.6500   42.4500 N   0  0  0  0  0  0  0  0  0  0  0  0
   49.2750   31.6080   42.0210 C   0  0  0  0  0  0  0  0  0  0  0  0
   49.8130   32.8810   42.1050 C   0  0  0  0  0  0  0  0  0  0  0  0
   48.8410   33.7420   42.6110 C   0  0  0  0  0  0  0  0  0  0  0  0
   49.3410   35.1000   42.7770 C   0  0  0  0  0  0  0  0  0  0  0  0
   47.3902   34.2690   44.9338 H   0  0  0  0  0  0  0  0  0  0  0  0
   44.7976   34.4609   46.0464 H   0  0  0  0  0  0  0  0  0  0  0  0
   43.8880   36.1718   44.3890 H   0  0  0  0  0  0  0  0  0  0  0  0
   44.5302   35.5981   42.0785 H   0  0  0  0  0  0  0  0  0  0  0  0
   45.8862   36.6172   42.8662 H   0  0  0  0  0  0  0  0  0  0  0  0
   46.0980   34.3127   41.4164 H   0  0  0  0  0  0  0  0  0  0  0  0
   47.3206   35.2437   42.4540 H   0  0  0  0  0  0  0  0  0  0  0  0
   45.7054   32.8687   43.1861 H   0  0  0  0  0  0  0  0  0  0  0  0
   47.5288   33.4302   47.1031 H   0  0  0  0  0  0  0  0  0  0  0  0
   45.3319   31.2457   44.0978 H   0  0  0  0  0  0  0  0  0  0  0  0
   46.5304   29.3537   47.6963 H   0  0  0  0  0  0  0  0  0  0  0  0
   49.8001   30.7117   41.6592 H   0  0  0  0  0  0  0  0  0  0  0  0
   50.8367   33.1653   41.8199 H   0  0  0  0  0  0  0  0  0  0  0  0
   49.4260   35.3309   43.8491 H   0  0  0  0  0  0  0  0  0  0  0  0
   50.3301   35.1870   42.3036 H   0  0  0  0  0  0  0  0  0  0  0  0
   48.6444   35.8076   42.3036 H   0  0  0  0  0  0  0  0  0  0  0  0
  1  2  1  0
  1  8  1  0
  3  2  2  0
  4  3  1  0
  5  4  1  0
  5  6  1  0
  6  1  1  0
  7 12  2  0
  8  7  1  0
  9  8  2  0
  9 10  1  0
 10 11  2  0
 11 12  1  0
 13  6  1  0
 14 13  1  0
 15 16  1  0
 15 14  2  0
 16 17  2  0
 17 18  1  0
 17 13  1  0
  1 19  1  1
  2 20  1  0
  3 21  1  0
  4 22  1  0
  4 23  1  0
  5 24  1  0
  5 25  1  0
  6 26  1  6
  7 27  1  0
  9 28  1  0
 11 29  1  0
 15 30  1  0
 16 31  1  0
 18 32  1  0
 18 33  1  0
 18 34  1  0
M  ISO  8  19  13  20  13  21  13  22  13  23  13  24  13  25  13  26  13
M  ISO  8  27  14  28  14  29  14  30  14  31  14  32   8  33   8  34   8
M  END
>  <minimizedAffinity>  (1) 
-4.70334482

>  <minimizedRMSD>  (1) 
0.533917069

$$$$
