
     RDKit          3D

 39 42  0  0  1  0  0  0  0  0999 V2000
   45.3180   33.0570   41.2870 C   0  0  2  0  0  0  0  0  0  0  0  0
   43.8190   32.9890   41.1480 C   0  0  0  0  0  0  0  0  0  0  0  0
   43.0010   34.1140   41.5010 C   0  0  0  0  0  0  0  0  0  0  0  0
   43.6340   35.3160   41.9640 C   0  0  0  0  0  0  0  0  0  0  0  0
   45.0740   35.3850   42.0660 C   0  0  0  0  0  0  0  0  0  0  0  0
   45.7930   34.4210   41.2630 C   0  0  1  0  0  0  0  0  0  0  0  0
   46.5750   31.0210   40.7310 C   0  0  0  0  0  0  0  0  0  0  0  0
   45.9490   32.1700   40.2740 C   0  0  0  0  0  0  0  0  0  0  0  0
   45.9720   32.4260   38.8890 C   0  0  0  0  0  0  0  0  0  0  0  0
   46.5930   31.5590   38.0690 N   0  0  0  0  0  0  0  0  0  0  0  0
   47.1930   30.4510   38.5410 C   0  0  0  0  0  0  0  0  0  0  0  0
   47.1830   30.1870   39.8580 N   0  0  0  0  0  0  0  0  0  0  0  0
   47.1910   34.5860   41.6540 N   0  0  0  0  0  0  0  0  0  0  0  0
   48.1820   35.2130   40.9440 N   0  0  0  0  0  0  0  0  0  0  0  0
   49.2440   35.2030   41.7350 C   0  0  0  0  0  0  0  0  0  0  0  0
   48.9030   34.5770   42.9080 C   0  0  0  0  0  0  0  0  0  0  0  0
   47.5620   34.1640   42.8570 C   0  0  0  0  0  0  0  0  0  0  0  0
   47.0790   33.3720   43.9830 C   0  0  0  0  0  0  0  0  0  0  0  0
   46.2900   33.9220   44.9760 C   0  0  0  0  0  0  0  0  0  0  0  0
   45.7890   33.2620   46.0660 C   0  0  0  0  0  0  0  0  0  0  0  0
   46.0910   31.9690   46.1750 N   0  0  0  0  0  0  0  0  0  0  0  0
   46.8380   31.3740   45.2670 C   0  0  0  0  0  0  0  0  0  0  0  0
   47.2590   32.0930   44.2770 N   0  0  0  0  0  0  0  0  0  0  0  0
   45.6200   32.6787   42.2748 H   0  0  0  0  0  0  0  0  0  0  0  0
   43.3476   32.0688   40.7726 H   0  0  0  0  0  0  0  0  0  0  0  0
   41.9057   34.0560   41.4180 H   0  0  0  0  0  0  0  0  0  0  0  0
   43.3259   36.1202   41.2796 H   0  0  0  0  0  0  0  0  0  0  0  0
   43.3043   35.3863   43.0111 H   0  0  0  0  0  0  0  0  0  0  0  0
   45.3898   36.3915   41.7541 H   0  0  0  0  0  0  0  0  0  0  0  0
   45.3182   35.1540   43.1134 H   0  0  0  0  0  0  0  0  0  0  0  0
   45.6267   34.6303   40.1960 H   0  0  0  0  0  0  0  0  0  0  0  0
   46.5771   30.7873   41.8059 H   0  0  0  0  0  0  0  0  0  0  0  0
   45.4871   33.3256   38.4821 H   0  0  0  0  0  0  0  0  0  0  0  0
   47.6929   29.7597   37.8466 H   0  0  0  0  0  0  0  0  0  0  0  0
   50.2309   35.6244   41.4933 H   0  0  0  0  0  0  0  0  0  0  0  0
   49.5797   34.4219   43.7612 H   0  0  0  0  0  0  0  0  0  0  0  0
   46.0415   34.9894   44.8816 H   0  0  0  0  0  0  0  0  0  0  0  0
   45.1675   33.7743   46.8151 H   0  0  0  0  0  0  0  0  0  0  0  0
   47.0938   30.3072   45.3476 H   0  0  0  0  0  0  0  0  0  0  0  0
  2  1  1  0
  2  3  2  0
  3  4  1  0
  4  5  1  0
  6  1  1  0
  6 13  1  0
  6  5  1  0
  8  7  2  0
  8  1  1  0
  9  8  1  0
 10 11  1  0
 10  9  2  0
 11 12  2  0
 12  7  1  0
 13 17  1  0
 14 13  1  0
 14 15  2  0
 15 16  1  0
 17 16  2  0
 17 18  1  0
 18 23  1  0
 18 19  2  0
 19 20  1  0
 20 21  2  0
 22 21  1  0
 23 22  2  0
  1 24  1  1
  2 25  1  0
  3 26  1  0
  4 27  1  0
  4 28  1  0
  5 29  1  0
  5 30  1  0
  6 31  1  6
  7 32  1  0
  9 33  1  0
 11 34  1  0
 15 35  1  0
 16 36  1  0
 19 37  1  0
 20 38  1  0
 22 39  1  0
M  ISO  8  24  13  25  13  26  13  27  13  28  13  29  13  30  13  31  13
M  ISO  8  32  14  33  14  34  14  35  14  36  14  37  14  38  14  39  14
M  END
>  <minimizedAffinity>  (1) 
-4.60035992

>  <minimizedRMSD>  (1) 
5.04920816

$$$$
