
     RDKit          3D

 33 35  0  0  0  0  0  0  0  0999 V2000
   47.5220   33.9980   39.5650 C   0  0  0  0  0  0  0  0  0  0  0  0
   46.3040   33.5170   39.9290 C   0  0  0  0  0  0  0  0  0  0  0  0
   45.7150   33.7630   41.1540 C   0  0  0  0  0  0  0  0  0  0  0  0
   46.3980   34.5350   42.0520 C   0  0  0  0  0  0  0  0  0  0  0  0
   47.6230   35.0140   41.6770 C   0  0  0  0  0  0  0  0  0  0  0  0
   48.2200   34.7800   40.4690 C   0  0  0  0  0  0  0  0  0  0  0  0
   44.4510   36.0730   44.9050 C   0  0  0  0  0  0  0  0  0  0  0  0
   45.0010   35.9390   43.6020 C   0  0  0  0  0  0  0  0  0  0  0  0
   45.7750   34.7980   43.3420 C   0  0  0  0  0  0  0  0  0  0  0  0
   45.9680   33.8780   44.3310 N   0  0  0  0  0  0  0  0  0  0  0  0
   45.4180   34.0560   45.5620 C   0  0  0  0  0  0  0  0  0  0  0  0
   44.6720   35.1440   45.8330 N   0  0  0  0  0  0  0  0  0  0  0  0
   48.1810   33.5880   37.9840 S   0  0  0  0  0  0  0  0  0  0  0  0
   47.0410   33.0460   37.1250 O   0  0  0  0  0  0  0  0  0  0  0  0
   48.8250   34.7670   37.3490 O   0  0  0  0  0  0  0  0  0  0  0  0
   49.3730   32.3420   38.2290 C   0  0  0  0  0  0  0  0  0  0  0  0
   49.6680   31.7430   39.4360 C   0  0  0  0  0  0  0  0  0  0  0  0
   50.6510   30.7560   39.4780 C   0  0  0  0  0  0  0  0  0  0  0  0
   51.3460   30.3480   38.3620 C   0  0  0  0  0  0  0  0  0  0  0  0
   51.0660   30.9340   37.1480 C   0  0  0  0  0  0  0  0  0  0  0  0
   50.0930   31.9120   37.1070 C   0  0  0  0  0  0  0  0  0  0  0  0
   45.7553   32.8956   39.2059 H   0  0  0  0  0  0  0  0  0  0  0  0
   44.7256   33.3499   41.3997 H   0  0  0  0  0  0  0  0  0  0  0  0
   48.1696   35.6347   42.4022 H   0  0  0  0  0  0  0  0  0  0  0  0
   49.2098   35.1944   40.2268 H   0  0  0  0  0  0  0  0  0  0  0  0
   43.8369   36.9523   45.1495 H   0  0  0  0  0  0  0  0  0  0  0  0
   44.8268   36.7001   42.8272 H   0  0  0  0  0  0  0  0  0  0  0  0
   45.5845   33.3023   46.3457 H   0  0  0  0  0  0  0  0  0  0  0  0
   49.1354   32.0399   40.3515 H   0  0  0  0  0  0  0  0  0  0  0  0
   50.8813   30.2829   40.4440 H   0  0  0  0  0  0  0  0  0  0  0  0
   52.1144   29.5647   38.4391 H   0  0  0  0  0  0  0  0  0  0  0  0
   51.6025   30.6313   36.2367 H   0  0  0  0  0  0  0  0  0  0  0  0
   49.8700   32.3809   36.1372 H   0  0  0  0  0  0  0  0  0  0  0  0
  1  2  2  0
  1  6  1  0
  2  3  1  0
  3  4  2  0
  4  9  1  0
  5  4  1  0
  6  5  2  0
  7 12  2  0
  8  7  1  0
  9  8  2  0
  9 10  1  0
 10 11  2  0
 11 12  1  0
 13 16  1  0
 13  1  1  0
 14 13  2  0
 15 13  2  0
 16 17  2  0
 17 18  1  0
 19 18  2  0
 20 19  1  0
 21 20  2  0
 21 16  1  0
  2 22  1  0
  3 23  1  0
  5 24  1  0
  6 25  1  0
  7 26  1  0
  8 27  1  0
 11 28  1  0
 17 29  1  0
 18 30  1  0
 19 31  1  0
 20 32  1  0
 21 33  1  0
M  ISO  8  22  14  23  14  24  14  25  14  26  14  27  14  28  14  29  14
M  ISO  4  30  14  31  14  32  14  33  14
M  END
>  <minimizedAffinity>  (1) 
-5.52106237

>  <minimizedRMSD>  (1) 
1.66903913

$$$$
