
     RDKit          3D

 35 37  0  0  1  0  0  0  0  0999 V2000
   47.3260   33.8510   39.3620 C   0  0  0  0  0  0  0  0  0  0  0  0
   46.0900   33.4440   39.7590 C   0  0  0  0  0  0  0  0  0  0  0  0
   45.5690   33.7160   41.0080 C   0  0  0  0  0  0  0  0  0  0  0  0
   46.3260   34.4290   41.8920 C   0  0  0  0  0  0  0  0  0  0  0  0
   47.5650   34.8320   41.4820 C   0  0  0  0  0  0  0  0  0  0  0  0
   48.1020   34.5740   40.2520 C   0  0  0  0  0  0  0  0  0  0  0  0
   44.4920   36.0410   44.7890 C   0  0  0  0  0  0  0  0  0  0  0  0
   45.0050   35.8610   43.4760 C   0  0  0  0  0  0  0  0  0  0  0  0
   45.7590   34.7100   43.2000 C   0  0  0  0  0  0  0  0  0  0  0  0
   45.9700   33.8180   44.1930 N   0  0  0  0  0  0  0  0  0  0  0  0
   45.4640   34.0230   45.4400 C   0  0  0  0  0  0  0  0  0  0  0  0
   44.7380   35.1210   45.7220 N   0  0  0  0  0  0  0  0  0  0  0  0
   47.9020   33.4370   37.7470 S   0  0  0  0  0  0  0  0  0  0  0  0
   46.6900   33.4340   36.8070 O   0  0  0  0  0  0  0  0  0  0  0  0
   48.9090   34.4240   37.2730 O   0  0  0  0  0  0  0  0  0  0  0  0
   48.8280   31.3280   36.3660 N   0  0  0  0  0  0  0  0  0  0  0  0
   50.2200   31.1500   36.0970 C   0  0  0  0  0  0  0  0  0  0  0  0
   50.9790   31.3060   37.3920 C   0  0  0  0  0  0  0  0  0  0  0  0
   50.0220   31.9800   38.3230 C   0  0  0  0  0  0  0  0  0  0  0  0
   48.6620   31.8310   37.7040 C   0  0  1  0  0  0  0  0  0  0  0  0
   45.4756   32.8699   39.0498 H   0  0  0  0  0  0  0  0  0  0  0  0
   44.5640   33.3652   41.2853 H   0  0  0  0  0  0  0  0  0  0  0  0
   48.1755   35.4065   42.1942 H   0  0  0  0  0  0  0  0  0  0  0  0
   49.1082   34.9259   39.9806 H   0  0  0  0  0  0  0  0  0  0  0  0
   43.8964   36.9328   45.0337 H   0  0  0  0  0  0  0  0  0  0  0  0
   44.8149   36.6087   42.6919 H   0  0  0  0  0  0  0  0  0  0  0  0
   45.6512   33.2801   46.2293 H   0  0  0  0  0  0  0  0  0  0  0  0
   48.3419   30.4244   36.2755 H   0  0  0  0  0  0  0  0  0  0  0  0
   50.3930   30.1454   35.6836 H   0  0  0  0  0  0  0  0  0  0  0  0
   50.5623   31.8972   35.3659 H   0  0  0  0  0  0  0  0  0  0  0  0
   51.2754   30.3232   37.7872 H   0  0  0  0  0  0  0  0  0  0  0  0
   51.9050   31.8851   37.2609 H   0  0  0  0  0  0  0  0  0  0  0  0
   50.0466   31.4969   39.3109 H   0  0  0  0  0  0  0  0  0  0  0  0
   50.2826   33.0386   38.4692 H   0  0  0  0  0  0  0  0  0  0  0  0
   48.0164   31.1203   38.2408 H   0  0  0  0  0  0  0  0  0  0  0  0
  1  2  2  0
  1  6  1  0
  2  3  1  0
  3  4  2  0
  4  9  1  0
  5  4  1  0
  6  5  2  0
  7 12  2  0
  8  7  1  0
  9  8  2  0
  9 10  1  0
 10 11  2  0
 11 12  1  0
 13  1  1  0
 14 13  2  0
 15 13  2  0
 16 20  1  0
 17 16  1  0
 17 18  1  0
 18 19  1  0
 20 13  1  0
 20 19  1  0
  2 21  1  0
  3 22  1  0
  5 23  1  0
  6 24  1  0
  7 25  1  0
  8 26  1  0
 11 27  1  0
 16 28  1  0
 17 29  1  0
 17 30  1  0
 18 31  1  0
 18 32  1  0
 19 33  1  0
 19 34  1  0
 20 35  1  1
M  ISO  8  21  14  22  14  23  14  24  14  25  14  26  14  27  14  28   5
M  ISO  7  29  13  30  13  31  13  32  13  33  13  34  13  35  13
M  END
>  <minimizedAffinity>  (1) 
-5.30862808

>  <minimizedRMSD>  (1) 
1.60015559

$$$$
