
     RDKit          3D

 36 38  0  0  0  0  0  0  0  0999 V2000
   47.5130   34.0170   39.5440 C   0  0  0  0  0  0  0  0  0  0  0  0
   46.2580   33.6220   39.8810 C   0  0  0  0  0  0  0  0  0  0  0  0
   45.6850   33.8720   41.1110 C   0  0  0  0  0  0  0  0  0  0  0  0
   46.4110   34.5520   42.0470 C   0  0  0  0  0  0  0  0  0  0  0  0
   47.6720   34.9450   41.6990 C   0  0  0  0  0  0  0  0  0  0  0  0
   48.2510   34.7070   40.4900 C   0  0  0  0  0  0  0  0  0  0  0  0
   44.4520   36.0650   44.9050 C   0  0  0  0  0  0  0  0  0  0  0  0
   45.0050   35.9380   43.6040 C   0  0  0  0  0  0  0  0  0  0  0  0
   45.7840   34.8040   43.3370 C   0  0  0  0  0  0  0  0  0  0  0  0
   45.9820   33.8780   44.3190 N   0  0  0  0  0  0  0  0  0  0  0  0
   45.4270   34.0490   45.5560 C   0  0  0  0  0  0  0  0  0  0  0  0
   44.6750   35.1300   45.8330 N   0  0  0  0  0  0  0  0  0  0  0  0
   48.1620   33.6180   37.9570 S   0  0  0  0  0  0  0  0  0  0  0  0
   47.0290   32.9930   37.1280 O   0  0  0  0  0  0  0  0  0  0  0  0
   48.6830   34.8300   37.2760 O   0  0  0  0  0  0  0  0  0  0  0  0
   49.3550   32.3270   38.2030 C   0  0  0  0  0  0  0  0  0  0  0  0
   49.8320   31.7480   36.8950 C   0  0  0  0  0  0  0  0  0  0  0  0
   49.3550   30.3290   36.8420 C   0  0  0  0  0  0  0  0  0  0  0  0
   48.9280   29.9460   38.2270 C   0  0  0  0  0  0  0  0  0  0  0  0
   48.6960   31.2350   38.9820 C   0  0  0  0  0  0  0  0  0  0  0  0
   45.6666   33.0733   39.1332 H   0  0  0  0  0  0  0  0  0  0  0  0
   44.6634   33.5303   41.3335 H   0  0  0  0  0  0  0  0  0  0  0  0
   48.2616   35.4927   42.4489 H   0  0  0  0  0  0  0  0  0  0  0  0
   49.2725   35.0520   40.2720 H   0  0  0  0  0  0  0  0  0  0  0  0
   43.8342   36.9411   45.1515 H   0  0  0  0  0  0  0  0  0  0  0  0
   44.8285   36.7023   42.8329 H   0  0  0  0  0  0  0  0  0  0  0  0
   45.5973   33.2925   46.3361 H   0  0  0  0  0  0  0  0  0  0  0  0
   50.2228   32.7489   38.7311 H   0  0  0  0  0  0  0  0  0  0  0  0
   49.4119   32.3191   36.0539 H   0  0  0  0  0  0  0  0  0  0  0  0
   50.9286   31.7956   36.8222 H   0  0  0  0  0  0  0  0  0  0  0  0
   48.5044   30.2442   36.1496 H   0  0  0  0  0  0  0  0  0  0  0  0
   50.1552   29.6640   36.4851 H   0  0  0  0  0  0  0  0  0  0  0  0
   47.9998   29.3570   38.1883 H   0  0  0  0  0  0  0  0  0  0  0  0
   49.6940   29.3303   38.7212 H   0  0  0  0  0  0  0  0  0  0  0  0
   49.1389   31.1684   39.9867 H   0  0  0  0  0  0  0  0  0  0  0  0
   47.6200   31.4320   39.0978 H   0  0  0  0  0  0  0  0  0  0  0  0
  1  2  2  0
  1  6  1  0
  2  3  1  0
  3  4  2  0
  4  9  1  0
  5  4  1  0
  6  5  2  0
  7 12  2  0
  8  7  1  0
  9  8  2  0
  9 10  1  0
 10 11  2  0
 11 12  1  0
 13 16  1  0
 13  1  1  0
 14 13  2  0
 15 13  2  0
 16 20  1  0
 17 16  1  0
 18 17  1  0
 18 19  1  0
 19 20  1  0
  2 21  1  0
  3 22  1  0
  5 23  1  0
  6 24  1  0
  7 25  1  0
  8 26  1  0
 11 27  1  0
 16 28  1  0
 17 29  1  0
 17 30  1  0
 18 31  1  0
 18 32  1  0
 19 33  1  0
 19 34  1  0
 20 35  1  0
 20 36  1  0
M  ISO  8  21  14  22  14  23  14  24  14  25  14  26  14  27  14  28  13
M  ISO  8  29  13  30  13  31  13  32  13  33  13  34  13  35  13  36  13
M  END
>  <minimizedAffinity>  (1) 
-5.28081131

>  <minimizedRMSD>  (1) 
1.28879666

$$$$
