
     RDKit          3D

 26 27  0  0  0  0  0  0  0  0999 V2000
   47.4990   33.9770   39.5170 C   0  0  0  0  0  0  0  0  0  0  0  0
   46.2600   33.5320   39.8680 C   0  0  0  0  0  0  0  0  0  0  0  0
   45.7080   33.7980   41.1030 C   0  0  0  0  0  0  0  0  0  0  0  0
   46.4080   34.5290   42.0200 C   0  0  0  0  0  0  0  0  0  0  0  0
   47.6490   34.9690   41.6580 C   0  0  0  0  0  0  0  0  0  0  0  0
   48.2360   34.7300   40.4480 C   0  0  0  0  0  0  0  0  0  0  0  0
   44.4620   36.0710   44.8730 C   0  0  0  0  0  0  0  0  0  0  0  0
   45.0160   35.9280   43.5710 C   0  0  0  0  0  0  0  0  0  0  0  0
   45.7870   34.7880   43.3110 C   0  0  0  0  0  0  0  0  0  0  0  0
   45.9820   33.8650   44.2960 N   0  0  0  0  0  0  0  0  0  0  0  0
   45.4270   34.0530   45.5270 C   0  0  0  0  0  0  0  0  0  0  0  0
   44.6800   35.1410   45.8020 N   0  0  0  0  0  0  0  0  0  0  0  0
   48.1610   33.5950   37.9340 S   0  0  0  0  0  0  0  0  0  0  0  0
   47.0030   33.0930   37.0630 O   0  0  0  0  0  0  0  0  0  0  0  0
   48.8050   34.7850   37.3200 O   0  0  0  0  0  0  0  0  0  0  0  0
   49.3630   32.2980   38.0980 C   0  0  0  0  0  0  0  0  0  0  0  0
   45.6814   32.9414   39.1425 H   0  0  0  0  0  0  0  0  0  0  0  0
   44.7043   33.4217   41.3497 H   0  0  0  0  0  0  0  0  0  0  0  0
   48.2166   35.5581   42.3934 H   0  0  0  0  0  0  0  0  0  0  0  0
   49.2410   35.1099   40.2123 H   0  0  0  0  0  0  0  0  0  0  0  0
   43.8509   36.9532   45.1142 H   0  0  0  0  0  0  0  0  0  0  0  0
   44.8447   36.6875   42.7940 H   0  0  0  0  0  0  0  0  0  0  0  0
   45.5922   33.3009   46.3125 H   0  0  0  0  0  0  0  0  0  0  0  0
   49.5461   32.1005   39.1645 H   0  0  0  0  0  0  0  0  0  0  0  0
   48.9850   31.3846   37.6155 H   0  0  0  0  0  0  0  0  0  0  0  0
   50.3025   32.6056   37.6155 H   0  0  0  0  0  0  0  0  0  0  0  0
  1  2  2  0
  1  6  1  0
  2  3  1  0
  3  4  2  0
  4  9  1  0
  5  4  1  0
  6  5  2  0
  7 12  2  0
  8  7  1  0
  9  8  2  0
  9 10  1  0
 10 11  2  0
 11 12  1  0
 13 16  1  0
 13  1  1  0
 14 13  2  0
 15 13  2  0
  2 17  1  0
  3 18  1  0
  5 19  1  0
  6 20  1  0
  7 21  1  0
  8 22  1  0
 11 23  1  0
 16 24  1  0
 16 25  1  0
 16 26  1  0
M  ISO  8  17  14  18  14  19  14  20  14  21  14  22  14  23  14  24   8
M  ISO  2  25   8  26   8
M  END
>  <minimizedAffinity>  (1) 
-5.16433907

>  <minimizedRMSD>  (1) 
0.632773936

$$$$
