
     RDKit          3D

 30 32  0  0  0  0  0  0  0  0999 V2000
   47.3730   33.9210   39.3900 C   0  0  0  0  0  0  0  0  0  0  0  0
   46.1300   33.5210   39.7660 C   0  0  0  0  0  0  0  0  0  0  0  0
   45.5960   33.7760   41.0140 C   0  0  0  0  0  0  0  0  0  0  0  0
   46.3510   34.4650   41.9220 C   0  0  0  0  0  0  0  0  0  0  0  0
   47.5990   34.8610   41.5310 C   0  0  0  0  0  0  0  0  0  0  0  0
   48.1410   34.6180   40.3050 C   0  0  0  0  0  0  0  0  0  0  0  0
   44.4870   35.9960   44.8390 C   0  0  0  0  0  0  0  0  0  0  0  0
   44.9990   35.8540   43.5220 C   0  0  0  0  0  0  0  0  0  0  0  0
   45.7690   34.7250   43.2320 C   0  0  0  0  0  0  0  0  0  0  0  0
   46.0060   33.8000   44.2070 N   0  0  0  0  0  0  0  0  0  0  0  0
   45.4890   33.9850   45.4590 C   0  0  0  0  0  0  0  0  0  0  0  0
   44.7450   35.0650   45.7610 N   0  0  0  0  0  0  0  0  0  0  0  0
   47.9680   33.5270   37.7780 S   0  0  0  0  0  0  0  0  0  0  0  0
   46.7520   33.3810   36.8520 O   0  0  0  0  0  0  0  0  0  0  0  0
   48.8800   34.5850   37.2730 O   0  0  0  0  0  0  0  0  0  0  0  0
   48.7990   31.9640   37.7360 C   0  0  0  0  0  0  0  0  0  0  0  0
   49.5190   31.5530   36.4780 C   0  0  0  0  0  0  0  0  0  0  0  0
   50.2780   32.0230   37.6380 C   0  0  0  0  0  0  0  0  0  0  0  0
   45.5181   32.9660   39.0397 H   0  0  0  0  0  0  0  0  0  0  0  0
   44.5837   33.4317   41.2722 H   0  0  0  0  0  0  0  0  0  0  0  0
   48.2098   35.4158   42.2584 H   0  0  0  0  0  0  0  0  0  0  0  0
   49.1540   34.9640   40.0517 H   0  0  0  0  0  0  0  0  0  0  0  0
   43.8774   36.8736   45.0999 H   0  0  0  0  0  0  0  0  0  0  0  0
   44.7949   36.6121   42.7515 H   0  0  0  0  0  0  0  0  0  0  0  0
   45.6857   33.2335   46.2378 H   0  0  0  0  0  0  0  0  0  0  0  0
   48.0537   31.4825   38.3862 H   0  0  0  0  0  0  0  0  0  0  0  0
   49.4502   32.1780   35.5754 H   0  0  0  0  0  0  0  0  0  0  0  0
   49.5360   30.6496   35.8507 H   0  0  0  0  0  0  0  0  0  0  0  0
   50.8918   31.3137   38.2125 H   0  0  0  0  0  0  0  0  0  0  0  0
   51.0284   32.8112   37.7980 H   0  0  0  0  0  0  0  0  0  0  0  0
  1  2  2  0
  1  6  1  0
  2  3  1  0
  3  4  2  0
  4  9  1  0
  5  4  1  0
  6  5  2  0
  7 12  2  0
  8  7  1  0
  9  8  2  0
  9 10  1  0
 10 11  2  0
 11 12  1  0
 13  1  1  0
 14 13  2  0
 15 13  2  0
 16 13  1  0
 17 18  1  0
 17 16  1  0
 18 16  1  0
  2 19  1  0
  3 20  1  0
  5 21  1  0
  6 22  1  0
  7 23  1  0
  8 24  1  0
 11 25  1  0
 16 26  1  0
 17 27  1  0
 17 28  1  0
 18 29  1  0
 18 30  1  0
M  ISO  8  19  14  20  14  21  14  22  14  23  14  24  14  25  14  26  13
M  ISO  4  27  13  28  13  29  13  30  13
M  END
>  <minimizedAffinity>  (1) 
-5.15332937

>  <minimizedRMSD>  (1) 
1.0736959

$$$$
