
     RDKit          3D

 30 32  0  0  1  0  0  0  0  0999 V2000
   49.0810   33.7430   42.7010 C   0  0  2  0  0  0  0  0  0  0  0  0
   47.6710   33.9610   42.4760 C   0  0  2  0  0  0  0  0  0  0  0  0
   47.6040   35.3890   41.8620 C   0  0  0  0  0  0  0  0  0  0  0  0
   48.9870   35.8160   41.4910 C   0  0  0  0  0  0  0  0  0  0  0  0
   49.7930   35.0980   42.5050 C   0  0  0  0  0  0  0  0  0  0  0  0
   49.7710   32.8240   41.7640 C   0  0  0  0  0  0  0  0  0  0  0  0
   48.9980   32.1560   40.8140 C   0  0  0  0  0  0  0  0  0  0  0  0
   49.5950   31.2860   39.9040 C   0  0  0  0  0  0  0  0  0  0  0  0
   50.9640   31.1530   40.0240 N   0  0  0  0  0  0  0  0  0  0  0  0
   51.6900   31.8060   40.9440 C   0  0  0  0  0  0  0  0  0  0  0  0
   51.0920   32.6320   41.8040 N   0  0  0  0  0  0  0  0  0  0  0  0
   46.8180   33.9450   43.7030 C   0  0  0  0  0  0  0  0  0  0  0  0
   45.9680   34.7870   43.8360 O   0  0  0  0  0  0  0  0  0  0  0  0
   46.9480   32.9180   44.7810 C   0  0  0  0  0  0  0  0  0  0  0  0
   47.2890   31.6320   44.7070 N   0  0  0  0  0  0  0  0  0  0  0  0
   47.2630   31.1510   45.9090 O   0  0  0  0  0  0  0  0  0  0  0  0
   46.9200   32.0520   46.7760 C   0  0  0  0  0  0  0  0  0  0  0  0
   46.7170   33.1770   46.0800 N   0  0  0  0  0  0  0  0  0  0  0  0
   49.1352   33.2943   43.7039 H   0  0  0  0  0  0  0  0  0  0  0  0
   47.2805   33.1461   41.8487 H   0  0  0  0  0  0  0  0  0  0  0  0
   46.9672   35.3769   40.9652 H   0  0  0  0  0  0  0  0  0  0  0  0
   47.1781   36.0919   42.5931 H   0  0  0  0  0  0  0  0  0  0  0  0
   49.2468   35.4977   40.4706 H   0  0  0  0  0  0  0  0  0  0  0  0
   49.1362   36.9058   41.4855 H   0  0  0  0  0  0  0  0  0  0  0  0
   50.8206   34.9452   42.1436 H   0  0  0  0  0  0  0  0  0  0  0  0
   49.8688   35.6629   43.4458 H   0  0  0  0  0  0  0  0  0  0  0  0
   47.9103   32.3171   40.7832 H   0  0  0  0  0  0  0  0  0  0  0  0
   49.0158   30.7428   39.1428 H   0  0  0  0  0  0  0  0  0  0  0  0
   52.7794   31.6602   40.9892 H   0  0  0  0  0  0  0  0  0  0  0  0
   46.8168   31.9188   47.8630 H   0  0  0  0  0  0  0  0  0  0  0  0
  2  1  1  0
  2 12  1  0
  3  2  1  0
  4  3  1  0
  4  5  1  0
  5  1  1  0
  6 11  1  0
  6  1  1  0
  7  6  2  0
  8  9  2  0
  8  7  1  0
  9 10  1  0
 10 11  2  0
 12 13  2  0
 12 14  1  0
 14 18  1  0
 15 14  2  0
 15 16  1  0
 16 17  1  0
 18 17  2  0
  1 19  1  1
  2 20  1  6
  3 21  1  0
  3 22  1  0
  4 23  1  0
  4 24  1  0
  5 25  1  0
  5 26  1  0
  7 27  1  0
  8 28  1  0
 10 29  1  0
 17 30  1  0
M  ISO  8  19  13  20  13  21  13  22  13  23  13  24  13  25  13  26  13
M  ISO  4  27  14  28  14  29  14  30  14
M  END
>  <minimizedAffinity>  (1) 
-4.96352816

>  <minimizedRMSD>  (1) 
0.302454531

$$$$
