
     RDKit          3D

 32 34  0  0  1  0  0  0  0  0999 V2000
   49.0590   33.7540   42.6980 C   0  0  2  0  0  0  0  0  0  0  0  0
   47.6560   34.0020   42.4680 C   0  0  2  0  0  0  0  0  0  0  0  0
   47.6040   35.4240   41.8690 C   0  0  0  0  0  0  0  0  0  0  0  0
   48.9900   35.8360   41.4880 C   0  0  0  0  0  0  0  0  0  0  0  0
   49.7970   35.1210   42.5020 C   0  0  0  0  0  0  0  0  0  0  0  0
   49.7590   32.8410   41.7900 C   0  0  0  0  0  0  0  0  0  0  0  0
   48.9900   32.1600   40.8470 C   0  0  0  0  0  0  0  0  0  0  0  0
   49.5840   31.2760   39.9470 C   0  0  0  0  0  0  0  0  0  0  0  0
   50.9530   31.1460   40.0730 N   0  0  0  0  0  0  0  0  0  0  0  0
   51.6760   31.8070   40.9820 C   0  0  0  0  0  0  0  0  0  0  0  0
   51.0760   32.6470   41.8310 N   0  0  0  0  0  0  0  0  0  0  0  0
   46.7740   33.9680   43.6750 C   0  0  0  0  0  0  0  0  0  0  0  0
   45.9110   34.7780   43.8940 O   0  0  0  0  0  0  0  0  0  0  0  0
   46.9300   32.9030   44.6590 C   0  0  0  0  0  0  0  0  0  0  0  0
   46.7080   33.0340   46.0130 C   0  0  0  0  0  0  0  0  0  0  0  0
   46.9530   31.8140   46.6500 C   0  0  0  0  0  0  0  0  0  0  0  0
   47.3160   30.9830   45.6610 N   0  0  0  0  0  0  0  0  0  0  0  0
   47.2990   31.6220   44.5060 N   0  0  0  0  0  0  0  0  0  0  0  0
   49.0846   33.2889   43.6945 H   0  0  0  0  0  0  0  0  0  0  0  0
   47.2694   33.1964   41.8264 H   0  0  0  0  0  0  0  0  0  0  0  0
   46.9591   35.4267   40.9779 H   0  0  0  0  0  0  0  0  0  0  0  0
   47.1947   36.1272   42.6092 H   0  0  0  0  0  0  0  0  0  0  0  0
   49.2415   35.5072   40.4689 H   0  0  0  0  0  0  0  0  0  0  0  0
   49.1475   36.9246   41.4742 H   0  0  0  0  0  0  0  0  0  0  0  0
   50.8231   34.9604   42.1396 H   0  0  0  0  0  0  0  0  0  0  0  0
   49.8854   35.6869   43.4411 H   0  0  0  0  0  0  0  0  0  0  0  0
   47.9025   32.3220   40.8127 H   0  0  0  0  0  0  0  0  0  0  0  0
   49.0050   30.7232   39.1926 H   0  0  0  0  0  0  0  0  0  0  0  0
   52.7650   31.6597   41.0315 H   0  0  0  0  0  0  0  0  0  0  0  0
   46.3869   33.9581   46.5159 H   0  0  0  0  0  0  0  0  0  0  0  0
   46.8673   31.5861   47.7227 H   0  0  0  0  0  0  0  0  0  0  0  0
   47.5704   29.9926   45.7848 H   0  0  0  0  0  0  0  0  0  0  0  0
  2  1  1  0
  2 12  1  0
  3  2  1  0
  4  3  1  0
  4  5  1  0
  5  1  1  0
  6 11  1  0
  6  1  1  0
  7  6  2  0
  8  9  2  0
  8  7  1  0
  9 10  1  0
 10 11  2  0
 12 13  2  0
 12 14  1  0
 14 15  1  0
 15 16  2  0
 17 16  1  0
 18 14  2  0
 18 17  1  0
  1 19  1  1
  2 20  1  6
  3 21  1  0
  3 22  1  0
  4 23  1  0
  4 24  1  0
  5 25  1  0
  5 26  1  0
  7 27  1  0
  8 28  1  0
 10 29  1  0
 15 30  1  0
 16 31  1  0
 17 32  1  0
M  ISO  8  19  13  20  13  21  13  22  13  23  13  24  13  25  13  26  13
M  ISO  6  27  14  28  14  29  14  30  14  31  14  32   9
M  END
>  <minimizedAffinity>  (1) 
-4.93076658

>  <minimizedRMSD>  (1) 
0.497484446

$$$$
