
     RDKit          3D

 43 46  0  0  0  0  0  0  0  0999 V2000
   47.5980   33.9680   39.5630 C   0  0  0  0  0  0  0  0  0  0  0  0
   46.3740   33.4880   39.9160 C   0  0  0  0  0  0  0  0  0  0  0  0
   45.7940   33.7590   41.1410 C   0  0  0  0  0  0  0  0  0  0  0  0
   46.4520   34.5330   42.0430 C   0  0  0  0  0  0  0  0  0  0  0  0
   47.6810   35.0140   41.6830 C   0  0  0  0  0  0  0  0  0  0  0  0
   48.2830   34.7660   40.4850 C   0  0  0  0  0  0  0  0  0  0  0  0
   44.4530   36.0920   44.8470 C   0  0  0  0  0  0  0  0  0  0  0  0
   45.0350   35.9270   43.5660 C   0  0  0  0  0  0  0  0  0  0  0  0
   45.8130   34.7980   43.3170 C   0  0  0  0  0  0  0  0  0  0  0  0
   45.9860   33.8930   44.3150 N   0  0  0  0  0  0  0  0  0  0  0  0
   45.4110   34.0840   45.5360 C   0  0  0  0  0  0  0  0  0  0  0  0
   44.6600   35.1660   45.7920 N   0  0  0  0  0  0  0  0  0  0  0  0
   48.2760   33.5860   37.9940 S   0  0  0  0  0  0  0  0  0  0  0  0
   48.7180   34.9020   37.3530 O   0  0  0  0  0  0  0  0  0  0  0  0
   49.4280   32.6510   38.1280 O   0  0  0  0  0  0  0  0  0  0  0  0
   47.0240   32.8830   37.0050 C   0  0  0  0  0  0  0  0  0  0  0  0
   45.7680   33.2890   36.7160 N   0  0  0  0  0  0  0  0  0  0  0  0
   45.1880   32.4490   35.9320 O   0  0  0  0  0  0  0  0  0  0  0  0
   46.0100   31.4640   35.6660 C   0  0  0  0  0  0  0  0  0  0  0  0
   47.1460   31.7180   36.3210 N   0  0  0  0  0  0  0  0  0  0  0  0
   45.7190   30.3470   34.8340 N   0  0  0  0  0  0  0  0  0  0  0  0
   44.5730   30.3690   33.9450 C   0  0  0  0  0  0  0  0  0  0  0  0
   44.7430   29.3130   32.8790 C   0  0  0  0  0  0  0  0  0  0  0  0
   46.1500   29.1680   32.4110 C   0  0  0  0  0  0  0  0  0  0  0  0
   47.1840   29.0480   33.4790 C   0  0  0  0  0  0  0  0  0  0  0  0
   46.5530   29.1610   34.8500 C   0  0  0  0  0  0  0  0  0  0  0  0
   45.8253   32.8602   39.1986 H   0  0  0  0  0  0  0  0  0  0  0  0
   44.8027   33.3492   41.3848 H   0  0  0  0  0  0  0  0  0  0  0  0
   48.2191   35.6424   42.4079 H   0  0  0  0  0  0  0  0  0  0  0  0
   49.2750   35.1800   40.2513 H   0  0  0  0  0  0  0  0  0  0  0  0
   43.8347   36.9755   45.0641 H   0  0  0  0  0  0  0  0  0  0  0  0
   44.8751   36.6791   42.7794 H   0  0  0  0  0  0  0  0  0  0  0  0
   45.5658   33.3359   46.3275 H   0  0  0  0  0  0  0  0  0  0  0  0
   43.6582   30.1649   34.5208 H   0  0  0  0  0  0  0  0  0  0  0  0
   44.4949   31.3589   33.4716 H   0  0  0  0  0  0  0  0  0  0  0  0
   44.4100   28.3476   33.2878 H   0  0  0  0  0  0  0  0  0  0  0  0
   44.1424   29.6259   32.0122 H   0  0  0  0  0  0  0  0  0  0  0  0
   46.2055   28.2648   31.7855 H   0  0  0  0  0  0  0  0  0  0  0  0
   46.3826   30.1004   31.8758 H   0  0  0  0  0  0  0  0  0  0  0  0
   47.6828   28.0716   33.3905 H   0  0  0  0  0  0  0  0  0  0  0  0
   47.9138   29.8620   33.3575 H   0  0  0  0  0  0  0  0  0  0  0  0
   47.3337   29.2581   35.6188 H   0  0  0  0  0  0  0  0  0  0  0  0
   45.9590   28.2654   35.0848 H   0  0  0  0  0  0  0  0  0  0  0  0
  1  2  2  0
  1  6  1  0
  2  3  1  0
  3  4  2  0
  4  9  1  0
  5  4  1  0
  6  5  2  0
  7 12  2  0
  8  7  1  0
  9  8  2  0
  9 10  1  0
 10 11  2  0
 11 12  1  0
 13 15  2  0
 13  1  1  0
 14 13  2  0
 16 13  1  0
 17 16  2  0
 18 17  1  0
 19 18  1  0
 19 20  2  0
 20 16  1  0
 21 26  1  0
 21 19  1  0
 22 21  1  0
 23 22  1  0
 24 23  1  0
 24 25  1  0
 25 26  1  0
  2 27  1  0
  3 28  1  0
  5 29  1  0
  6 30  1  0
  7 31  1  0
  8 32  1  0
 11 33  1  0
 22 34  1  0
 22 35  1  0
 23 36  1  0
 23 37  1  0
 24 38  1  0
 24 39  1  0
 25 40  1  0
 25 41  1  0
 26 42  1  0
 26 43  1  0
M  ISO  8  27  14  28  14  29  14  30  14  31  14  32  14  33  14  34  13
M  ISO  8  35  13  36  13  37  13  38  13  39  13  40  13  41  13  42  13
M  ISO  1  43  13
M  END
>  <minimizedAffinity>  (1) 
-6.50130415

>  <minimizedRMSD>  (1) 
0.666618049

$$$$
