
     RDKit          3D

 32 34  0  0  1  0  0  0  0  0999 V2000
   48.9960   33.5810   42.4430 C   0  0  2  0  0  0  0  0  0  0  0  0
   47.6920   34.0150   42.0440 C   0  0  2  0  0  0  0  0  0  0  0  0
   47.8700   35.5250   41.7260 C   0  0  0  0  0  0  0  0  0  0  0  0
   49.3190   35.8400   41.6540 C   0  0  0  0  0  0  0  0  0  0  0  0
   49.8620   34.8750   42.6380 C   0  0  0  0  0  0  0  0  0  0  0  0
   49.7860   32.7690   41.5030 C   0  0  0  0  0  0  0  0  0  0  0  0
   49.1330   32.3440   40.3240 C   0  0  0  0  0  0  0  0  0  0  0  0
   49.8690   31.6170   39.3980 C   0  0  0  0  0  0  0  0  0  0  0  0
   51.1890   31.3590   39.7000 N   0  0  0  0  0  0  0  0  0  0  0  0
   51.7790   31.7710   40.8220 C   0  0  0  0  0  0  0  0  0  0  0  0
   51.0650   32.4640   41.6940 N   0  0  0  0  0  0  0  0  0  0  0  0
   46.6040   33.8590   43.0670 C   0  0  0  0  0  0  0  0  0  0  0  0
   46.9120   33.8260   44.2740 O   0  0  0  0  0  0  0  0  0  0  0  0
   45.6800   33.8420   41.8190 C   0  0  0  0  0  0  0  0  0  0  0  0
   44.8340   34.7220   42.5630 C   0  0  0  0  0  0  0  0  0  0  0  0
   43.6180   35.3240   42.2350 C   0  0  0  0  0  0  0  0  0  0  0  0
   43.2850   34.9310   40.9740 C   0  0  0  0  0  0  0  0  0  0  0  0
   44.5960   33.8210   40.3570 S   0  0  0  0  0  0  0  0  0  0  0  0
   48.8002   32.9447   43.3187 H   0  0  0  0  0  0  0  0  0  0  0  0
   47.3574   33.3874   41.2048 H   0  0  0  0  0  0  0  0  0  0  0  0
   47.3946   35.7566   40.7615 H   0  0  0  0  0  0  0  0  0  0  0  0
   47.3991   36.1277   42.5166 H   0  0  0  0  0  0  0  0  0  0  0  0
   49.7226   35.6612   40.6465 H   0  0  0  0  0  0  0  0  0  0  0  0
   49.5675   36.8912   41.8621 H   0  0  0  0  0  0  0  0  0  0  0  0
   49.7554   35.2629   43.6618 H   0  0  0  0  0  0  0  0  0  0  0  0
   50.9351   34.6853   42.4877 H   0  0  0  0  0  0  0  0  0  0  0  0
   48.0740   32.5819   40.1454 H   0  0  0  0  0  0  0  0  0  0  0  0
   49.4167   31.2610   38.4606 H   0  0  0  0  0  0  0  0  0  0  0  0
   52.8363   31.5399   41.0186 H   0  0  0  0  0  0  0  0  0  0  0  0
   45.2059   34.9674   43.5687 H   0  0  0  0  0  0  0  0  0  0  0  0
   43.0329   35.9961   42.8800 H   0  0  0  0  0  0  0  0  0  0  0  0
   42.3817   35.2309   40.4226 H   0  0  0  0  0  0  0  0  0  0  0  0
  1  5  1  0
  2  1  1  0
  2 12  1  0
  3  2  1  0
  4  3  1  0
  4  5  1  0
  6 11  1  0
  6  1  1  0
  7  6  2  0
  8  9  2  0
  8  7  1  0
  9 10  1  0
 10 11  2  0
 12 13  2  0
 14 15  2  0
 14 12  1  0
 16 15  1  0
 17 16  2  0
 18 17  1  0
 18 14  1  0
  1 19  1  1
  2 20  1  6
  3 21  1  0
  3 22  1  0
  4 23  1  0
  4 24  1  0
  5 25  1  0
  5 26  1  0
  7 27  1  0
  8 28  1  0
 10 29  1  0
 15 30  1  0
 16 31  1  0
 17 32  1  0
M  ISO  8  19  13  20  13  21  13  22  13  23  13  24  13  25  13  26  13
M  ISO  6  27  14  28  14  29  14  30  14  31  14  32  14
M  END
>  <minimizedAffinity>  (1) 
-4.8627367

>  <minimizedRMSD>  (1) 
2.90081668

$$$$
