
     RDKit          3D

 35 38  0  0  0  0  0  0  0  0999 V2000
   47.6200   33.9780   39.5350 C   0  0  0  0  0  0  0  0  0  0  0  0
   46.4150   33.4780   39.9010 C   0  0  0  0  0  0  0  0  0  0  0  0
   45.8370   33.7460   41.1270 C   0  0  0  0  0  0  0  0  0  0  0  0
   46.4970   34.5490   42.0190 C   0  0  0  0  0  0  0  0  0  0  0  0
   47.7040   35.0450   41.6440 C   0  0  0  0  0  0  0  0  0  0  0  0
   48.2950   34.7960   40.4410 C   0  0  0  0  0  0  0  0  0  0  0  0
   44.4530   36.0820   44.8200 C   0  0  0  0  0  0  0  0  0  0  0  0
   45.0470   35.9390   43.5310 C   0  0  0  0  0  0  0  0  0  0  0  0
   45.8440   34.7970   43.2930 C   0  0  0  0  0  0  0  0  0  0  0  0
   46.0020   33.9050   44.2840 N   0  0  0  0  0  0  0  0  0  0  0  0
   45.4140   34.0820   45.5040 C   0  0  0  0  0  0  0  0  0  0  0  0
   44.6570   35.1590   45.7450 N   0  0  0  0  0  0  0  0  0  0  0  0
   48.3060   33.6010   37.9580 S   0  0  0  0  0  0  0  0  0  0  0  0
   48.8360   34.9060   37.3700 O   0  0  0  0  0  0  0  0  0  0  0  0
   49.3790   32.5980   38.0760 O   0  0  0  0  0  0  0  0  0  0  0  0
   47.0200   33.0080   36.9340 C   0  0  0  0  0  0  0  0  0  0  0  0
   45.7100   33.3460   36.8550 N   0  0  0  0  0  0  0  0  0  0  0  0
   45.1210   32.6500   35.9510 O   0  0  0  0  0  0  0  0  0  0  0  0
   45.9900   31.8270   35.3900 C   0  0  0  0  0  0  0  0  0  0  0  0
   47.1570   32.0530   36.0000 N   0  0  0  0  0  0  0  0  0  0  0  0
   45.7830   30.8530   34.3240 C   0  0  0  0  0  0  0  0  0  0  0  0
   46.7230   30.3570   33.4450 C   0  0  0  0  0  0  0  0  0  0  0  0
   46.1350   29.4540   32.5840 C   0  0  0  0  0  0  0  0  0  0  0  0
   44.8310   29.4080   32.9510 N   0  0  0  0  0  0  0  0  0  0  0  0
   44.6490   30.2300   33.9640 N   0  0  0  0  0  0  0  0  0  0  0  0
   45.8748   32.8323   39.1930 H   0  0  0  0  0  0  0  0  0  0  0  0
   44.8565   33.3187   41.3842 H   0  0  0  0  0  0  0  0  0  0  0  0
   48.2395   35.6893   42.3568 H   0  0  0  0  0  0  0  0  0  0  0  0
   49.2757   35.2276   40.1920 H   0  0  0  0  0  0  0  0  0  0  0  0
   43.8266   36.9580   45.0442 H   0  0  0  0  0  0  0  0  0  0  0  0
   44.8895   36.6942   42.7469 H   0  0  0  0  0  0  0  0  0  0  0  0
   45.5639   33.3328   46.2954 H   0  0  0  0  0  0  0  0  0  0  0  0
   47.7859   30.6401   33.4324 H   0  0  0  0  0  0  0  0  0  0  0  0
   46.6205   28.8915   31.7729 H   0  0  0  0  0  0  0  0  0  0  0  0
   44.1033   28.8269   32.5109 H   0  0  0  0  0  0  0  0  0  0  0  0
  1  2  2  0
  1  6  1  0
  2  3  1  0
  3  4  2  0
  4  9  1  0
  5  4  1  0
  6  5  2  0
  7 12  2  0
  8  7  1  0
  9  8  2  0
  9 10  1  0
 10 11  2  0
 11 12  1  0
 13 15  2  0
 13  1  1  0
 14 13  2  0
 16 13  1  0
 17 16  2  0
 18 17  1  0
 19 18  1  0
 19 20  2  0
 20 16  1  0
 21 19  1  0
 22 21  1  0
 23 24  1  0
 23 22  2  0
 24 25  1  0
 25 21  2  0
  2 26  1  0
  3 27  1  0
  5 28  1  0
  6 29  1  0
  7 30  1  0
  8 31  1  0
 11 32  1  0
 22 33  1  0
 23 34  1  0
 24 35  1  0
M  ISO  8  26  14  27  14  28  14  29  14  30  14  31  14  32  14  33  14
M  ISO  2  34  14  35   9
M  END
>  <minimizedAffinity>  (1) 
-6.23063135

>  <minimizedRMSD>  (1) 
1.08395314

$$$$
