
     RDKit          3D

 30 32  0  0  0  0  0  0  0  0999 V2000
   47.5330   33.9350   39.5450 C   0  0  0  0  0  0  0  0  0  0  0  0
   46.3000   33.4770   39.9070 C   0  0  0  0  0  0  0  0  0  0  0  0
   45.7270   33.7590   41.1370 C   0  0  0  0  0  0  0  0  0  0  0  0
   46.4220   34.5280   42.0240 C   0  0  0  0  0  0  0  0  0  0  0  0
   47.6540   34.9820   41.6520 C   0  0  0  0  0  0  0  0  0  0  0  0
   48.2440   34.7230   40.4540 C   0  0  0  0  0  0  0  0  0  0  0  0
   44.4580   36.1280   44.8320 C   0  0  0  0  0  0  0  0  0  0  0  0
   45.0250   35.9590   43.5460 C   0  0  0  0  0  0  0  0  0  0  0  0
   45.7890   34.8080   43.3130 C   0  0  0  0  0  0  0  0  0  0  0  0
   45.9480   33.9270   44.3080 N   0  0  0  0  0  0  0  0  0  0  0  0
   45.3890   34.1190   45.5340 C   0  0  0  0  0  0  0  0  0  0  0  0
   44.6550   35.2140   45.7770 N   0  0  0  0  0  0  0  0  0  0  0  0
   48.2060   33.5410   37.9660 S   0  0  0  0  0  0  0  0  0  0  0  0
   48.5710   34.8480   37.2780 O   0  0  0  0  0  0  0  0  0  0  0  0
   49.3880   32.6410   38.1160 O   0  0  0  0  0  0  0  0  0  0  0  0
   46.9580   32.7370   37.0290 C   0  0  0  0  0  0  0  0  0  0  0  0
   45.8030   33.1980   36.4980 N   0  0  0  0  0  0  0  0  0  0  0  0
   45.1840   32.2630   35.8830 O   0  0  0  0  0  0  0  0  0  0  0  0
   45.8820   31.1330   35.9650 C   0  0  0  0  0  0  0  0  0  0  0  0
   46.9700   31.4500   36.6740 N   0  0  0  0  0  0  0  0  0  0  0  0
   45.7500   29.7870   35.5120 N   0  0  0  0  0  0  0  0  0  0  0  0
   45.7371   32.8580   39.1928 H   0  0  0  0  0  0  0  0  0  0  0  0
   44.7305   33.3701   41.3933 H   0  0  0  0  0  0  0  0  0  0  0  0
   48.2093   35.6012   42.3719 H   0  0  0  0  0  0  0  0  0  0  0  0
   49.2412   35.1182   40.2104 H   0  0  0  0  0  0  0  0  0  0  0  0
   43.8517   37.0195   45.0503 H   0  0  0  0  0  0  0  0  0  0  0  0
   44.8707   36.7075   42.7549 H   0  0  0  0  0  0  0  0  0  0  0  0
   45.5401   33.3730   46.3282 H   0  0  0  0  0  0  0  0  0  0  0  0
   46.4794   29.0948   35.7348 H   0  0  0  0  0  0  0  0  0  0  0  0
   44.9252   29.5072   34.9621 H   0  0  0  0  0  0  0  0  0  0  0  0
  1  2  2  0
  1  6  1  0
  2  3  1  0
  3  4  2  0
  4  9  1  0
  5  4  1  0
  6  5  2  0
  7 12  2  0
  8  7  1  0
  9  8  2  0
  9 10  1  0
 10 11  2  0
 11 12  1  0
 13 15  2  0
 13  1  1  0
 14 13  2  0
 16 13  1  0
 17 16  2  0
 18 19  1  0
 18 17  1  0
 19 20  2  0
 20 16  1  0
 21 19  1  0
  2 22  1  0
  3 23  1  0
  5 24  1  0
  6 25  1  0
  7 26  1  0
  8 27  1  0
 11 28  1  0
 21 29  1  0
 21 30  1  0
M  ISO  7  22  14  23  14  24  14  25  14  26  14  27  14  28  14
M  END
>  <minimizedAffinity>  (1) 
-5.63530731

>  <minimizedRMSD>  (1) 
0.0540704653

$$$$
