
     RDKit          3D

 31 33  0  0  0  0  0  0  0  0999 V2000
   47.5420   33.9370   39.5380 C   0  0  0  0  0  0  0  0  0  0  0  0
   46.3100   33.4790   39.9070 C   0  0  0  0  0  0  0  0  0  0  0  0
   45.7430   33.7610   41.1240 C   0  0  0  0  0  0  0  0  0  0  0  0
   46.4270   34.5300   42.0210 C   0  0  0  0  0  0  0  0  0  0  0  0
   47.6620   34.9900   41.6540 C   0  0  0  0  0  0  0  0  0  0  0  0
   48.2520   34.7270   40.4510 C   0  0  0  0  0  0  0  0  0  0  0  0
   44.4580   36.1390   44.8240 C   0  0  0  0  0  0  0  0  0  0  0  0
   45.0320   35.9580   43.5400 C   0  0  0  0  0  0  0  0  0  0  0  0
   45.7970   34.8070   43.2980 C   0  0  0  0  0  0  0  0  0  0  0  0
   45.9550   33.9130   44.3030 N   0  0  0  0  0  0  0  0  0  0  0  0
   45.3840   34.1260   45.5240 C   0  0  0  0  0  0  0  0  0  0  0  0
   44.6470   35.2270   45.7700 N   0  0  0  0  0  0  0  0  0  0  0  0
   48.2070   33.5370   37.9610 S   0  0  0  0  0  0  0  0  0  0  0  0
   48.5590   34.8430   37.2660 O   0  0  0  0  0  0  0  0  0  0  0  0
   49.4000   32.6670   38.1020 O   0  0  0  0  0  0  0  0  0  0  0  0
   46.9600   32.7310   37.0270 C   0  0  0  0  0  0  0  0  0  0  0  0
   45.8090   33.1920   36.4930 N   0  0  0  0  0  0  0  0  0  0  0  0
   45.1870   32.2590   35.8830 O   0  0  0  0  0  0  0  0  0  0  0  0
   45.8780   31.1340   35.9730 C   0  0  0  0  0  0  0  0  0  0  0  0
   46.9840   31.4250   36.6850 N   0  0  0  0  0  0  0  0  0  0  0  0
   45.6770   29.7350   35.4770 C   0  0  0  0  0  0  0  0  0  0  0  0
   45.7467   32.8560   39.1967 H   0  0  0  0  0  0  0  0  0  0  0  0
   44.7456   33.3708   41.3750 H   0  0  0  0  0  0  0  0  0  0  0  0
   48.2149   35.6113   42.3739 H   0  0  0  0  0  0  0  0  0  0  0  0
   49.2495   35.1216   40.2075 H   0  0  0  0  0  0  0  0  0  0  0  0
   43.8562   37.0350   45.0361 H   0  0  0  0  0  0  0  0  0  0  0  0
   44.8803   36.7063   42.7482 H   0  0  0  0  0  0  0  0  0  0  0  0
   45.5282   33.3842   46.3233 H   0  0  0  0  0  0  0  0  0  0  0  0
   45.5790   29.0526   36.3342 H   0  0  0  0  0  0  0  0  0  0  0  0
   44.7632   29.6902   34.8663 H   0  0  0  0  0  0  0  0  0  0  0  0
   46.5412   29.4348   34.8663 H   0  0  0  0  0  0  0  0  0  0  0  0
  1  2  2  0
  1  6  1  0
  2  3  1  0
  3  4  2  0
  4  9  1  0
  5  4  1  0
  6  5  2  0
  7 12  2  0
  8  7  1  0
  9  8  2  0
  9 10  1  0
 10 11  2  0
 11 12  1  0
 13 15  2  0
 13  1  1  0
 14 13  2  0
 16 13  1  0
 17 16  2  0
 18 19  1  0
 18 17  1  0
 19 20  2  0
 20 16  1  0
 21 19  1  0
  2 22  1  0
  3 23  1  0
  5 24  1  0
  6 25  1  0
  7 26  1  0
  8 27  1  0
 11 28  1  0
 21 29  1  0
 21 30  1  0
 21 31  1  0
M  ISO  8  22  14  23  14  24  14  25  14  26  14  27  14  28  14  29   8
M  ISO  2  30   8  31   8
M  END
>  <minimizedAffinity>  (1) 
-5.62974977

>  <minimizedRMSD>  (1) 
0.0438746735

$$$$
