
     RDKit          3D

 30 32  0  0  0  0  0  0  0  0999 V2000
   47.5450   33.9340   39.5450 C   0  0  0  0  0  0  0  0  0  0  0  0
   46.3240   33.4750   39.9070 C   0  0  0  0  0  0  0  0  0  0  0  0
   45.7530   33.7640   41.1290 C   0  0  0  0  0  0  0  0  0  0  0  0
   46.4360   34.5420   42.0180 C   0  0  0  0  0  0  0  0  0  0  0  0
   47.6610   35.0000   41.6480 C   0  0  0  0  0  0  0  0  0  0  0  0
   48.2540   34.7340   40.4490 C   0  0  0  0  0  0  0  0  0  0  0  0
   44.4600   36.1490   44.8220 C   0  0  0  0  0  0  0  0  0  0  0  0
   45.0370   35.9800   43.5320 C   0  0  0  0  0  0  0  0  0  0  0  0
   45.7960   34.8240   43.3000 C   0  0  0  0  0  0  0  0  0  0  0  0
   45.9600   33.9120   44.2880 N   0  0  0  0  0  0  0  0  0  0  0  0
   45.3820   34.1260   45.5100 C   0  0  0  0  0  0  0  0  0  0  0  0
   44.6510   35.2180   45.7660 N   0  0  0  0  0  0  0  0  0  0  0  0
   48.2270   33.5370   37.9740 S   0  0  0  0  0  0  0  0  0  0  0  0
   48.6270   34.8380   37.2910 O   0  0  0  0  0  0  0  0  0  0  0  0
   49.3920   32.6190   38.1240 O   0  0  0  0  0  0  0  0  0  0  0  0
   46.9740   32.7650   37.0180 C   0  0  0  0  0  0  0  0  0  0  0  0
   45.8170   33.2360   36.5380 N   0  0  0  0  0  0  0  0  0  0  0  0
   45.1870   32.3280   35.8810 O   0  0  0  0  0  0  0  0  0  0  0  0
   45.8900   31.2160   35.8930 C   0  0  0  0  0  0  0  0  0  0  0  0
   47.0070   31.4920   36.6050 N   0  0  0  0  0  0  0  0  0  0  0  0
   45.7340   29.8710   35.3500 C   0  0  0  0  0  0  0  0  0  0  0  0
   44.8040   29.4270   34.6420 O   0  0  0  0  0  0  0  0  0  0  0  0
   45.7648   32.8464   39.1983 H   0  0  0  0  0  0  0  0  0  0  0  0
   44.7576   33.3714   41.3841 H   0  0  0  0  0  0  0  0  0  0  0  0
   48.2115   35.6278   42.3642 H   0  0  0  0  0  0  0  0  0  0  0  0
   49.2493   35.1320   40.2022 H   0  0  0  0  0  0  0  0  0  0  0  0
   43.8582   37.0427   45.0435 H   0  0  0  0  0  0  0  0  0  0  0  0
   44.8922   36.7320   42.7424 H   0  0  0  0  0  0  0  0  0  0  0  0
   45.5222   33.3789   46.3051 H   0  0  0  0  0  0  0  0  0  0  0  0
   46.5352   29.1579   35.5941 H   0  0  0  0  0  0  0  0  0  0  0  0
  1  2  2  0
  1  6  1  0
  2  3  1  0
  3  4  2  0
  4  9  1  0
  5  4  1  0
  6  5  2  0
  7 12  2  0
  8  7  1  0
  9  8  2  0
  9 10  1  0
 10 11  2  0
 11 12  1  0
 13 15  2  0
 13  1  1  0
 14 13  2  0
 16 13  1  0
 17 16  2  0
 18 19  1  0
 18 17  1  0
 19 20  2  0
 20 16  1  0
 21 19  1  0
 22 21  2  0
  2 23  1  0
  3 24  1  0
  5 25  1  0
  6 26  1  0
  7 27  1  0
  8 28  1  0
 11 29  1  0
 21 30  1  0
M  ISO  8  23  14  24  14  25  14  26  14  27  14  28  14  29  14  30   6
M  END
>  <minimizedAffinity>  (1) 
-5.4603219

>  <minimizedRMSD>  (1) 
0.12488725

$$$$
