
     RDKit          3D

 26 27  0  0  0  0  0  0  0  0999 V2000
   46.4190   34.3620   41.6420 C   0  0  0  0  0  0  0  0  0  0  0  0
   45.7110   33.8210   40.6030 C   0  0  0  0  0  0  0  0  0  0  0  0
   46.6120   33.6960   39.5790 N   0  0  0  0  0  0  0  0  0  0  0  0
   47.8030   34.1540   40.0260 C   0  0  0  0  0  0  0  0  0  0  0  0
   47.7140   34.5730   41.2990 N   0  0  0  0  0  0  0  0  0  0  0  0
   44.6230   36.1560   44.4000 C   0  0  0  0  0  0  0  0  0  0  0  0
   45.1710   35.8790   43.1420 C   0  0  0  0  0  0  0  0  0  0  0  0
   45.8400   34.6670   42.9520 C   0  0  0  0  0  0  0  0  0  0  0  0
   45.9400   33.7950   43.9990 N   0  0  0  0  0  0  0  0  0  0  0  0
   45.3990   34.0920   45.2030 C   0  0  0  0  0  0  0  0  0  0  0  0
   44.7500   35.2570   45.4040 N   0  0  0  0  0  0  0  0  0  0  0  0
   48.7070   35.1340   42.1880 C   0  0  0  0  0  0  0  0  0  0  0  0
   49.3250   36.3610   41.5990 C   0  0  0  0  0  0  0  0  0  0  0  0
   49.8000   34.1380   42.5080 C   0  0  0  0  0  0  0  0  0  0  0  0
   44.6461   33.5455   40.5926 H   0  0  0  0  0  0  0  0  0  0  0  0
   48.7243   34.1801   39.4256 H   0  0  0  0  0  0  0  0  0  0  0  0
   44.0900   37.1027   44.5724 H   0  0  0  0  0  0  0  0  0  0  0  0
   45.0767   36.6020   42.3183 H   0  0  0  0  0  0  0  0  0  0  0  0
   45.4898   33.3726   46.0302 H   0  0  0  0  0  0  0  0  0  0  0  0
   48.1828   35.3971   43.1186 H   0  0  0  0  0  0  0  0  0  0  0  0
   49.6604   37.0270   42.4077 H   0  0  0  0  0  0  0  0  0  0  0  0
   50.1868   36.0755   40.9779 H   0  0  0  0  0  0  0  0  0  0  0  0
   48.5825   36.8835   40.9779 H   0  0  0  0  0  0  0  0  0  0  0  0
   49.9028   34.0444   43.5992 H   0  0  0  0  0  0  0  0  0  0  0  0
   49.5410   33.1589   42.0787 H   0  0  0  0  0  0  0  0  0  0  0  0
   50.7509   34.4866   42.0787 H   0  0  0  0  0  0  0  0  0  0  0  0
  1  8  1  0
  2  1  2  0
  3  4  2  0
  3  2  1  0
  4  5  1  0
  5  1  1  0
  5 12  1  0
  6 11  2  0
  7  6  1  0
  8  7  2  0
  8  9  1  0
  9 10  2  0
 10 11  1  0
 12 14  1  0
 13 12  1  0
  2 15  1  0
  4 16  1  0
  6 17  1  0
  7 18  1  0
 10 19  1  0
 12 20  1  0
 13 21  1  0
 13 22  1  0
 13 23  1  0
 14 24  1  0
 14 25  1  0
 14 26  1  0
M  ISO  8  15  14  16  14  17  14  18  14  19  14  20   8  21   8  22   8
M  ISO  4  23   8  24   8  25   8  26   8
M  END
>  <minimizedAffinity>  (1) 
-4.74577761

>  <minimizedRMSD>  (1) 
0.858393908

$$$$
