
     RDKit          3D

 31 34  0  0  0  0  0  0  0  0999 V2000
   47.2670   30.5620   44.0350 C   0  0  0  0  0  0  0  0  0  0  0  0
   47.4210   29.2470   43.6880 C   0  0  0  0  0  0  0  0  0  0  0  0
   47.5900   29.2450   42.3300 N   0  0  0  0  0  0  0  0  0  0  0  0
   47.5310   30.5250   41.9200 C   0  0  0  0  0  0  0  0  0  0  0  0
   47.3330   31.3590   42.9570 N   0  0  0  0  0  0  0  0  0  0  0  0
   47.2110   32.7670   42.9710 C   0  0  0  0  0  0  0  0  0  0  0  0
   48.3080   33.5930   43.2370 C   0  0  0  0  0  0  0  0  0  0  0  0
   47.8560   34.8580   43.1750 N   0  0  0  0  0  0  0  0  0  0  0  0
   46.5650   34.9440   42.8920 C   0  0  0  0  0  0  0  0  0  0  0  0
   45.6430   35.9530   42.7190 C   0  0  0  0  0  0  0  0  0  0  0  0
   44.3170   35.6680   42.4170 C   0  0  0  0  0  0  0  0  0  0  0  0
   43.9630   34.3460   42.3010 C   0  0  0  0  0  0  0  0  0  0  0  0
   44.8300   33.2720   42.4600 C   0  0  0  0  0  0  0  0  0  0  0  0
   46.1440   33.6340   42.7610 C   0  0  0  0  0  0  0  0  0  0  0  0
   45.7850   32.2420   47.0380 C   0  0  0  0  0  0  0  0  0  0  0  0
   45.9540   31.8300   45.7100 C   0  0  0  0  0  0  0  0  0  0  0  0
   47.0580   31.0140   45.4180 C   0  0  0  0  0  0  0  0  0  0  0  0
   47.9160   30.6580   46.4280 N   0  0  0  0  0  0  0  0  0  0  0  0
   47.7120   31.0830   47.6990 C   0  0  0  0  0  0  0  0  0  0  0  0
   46.6680   31.8590   48.0010 N   0  0  0  0  0  0  0  0  0  0  0  0
   47.4110   28.3755   44.3592 H   0  0  0  0  0  0  0  0  0  0  0  0
   47.6316   30.8477   40.8732 H   0  0  0  0  0  0  0  0  0  0  0  0
   49.3373   33.2713   43.4541 H   0  0  0  0  0  0  0  0  0  0  0  0
   48.4558   35.6805   43.3324 H   0  0  0  0  0  0  0  0  0  0  0  0
   45.9616   37.0008   42.8216 H   0  0  0  0  0  0  0  0  0  0  0  0
   43.5785   36.4710   42.2761 H   0  0  0  0  0  0  0  0  0  0  0  0
   42.9128   34.1203   42.0641 H   0  0  0  0  0  0  0  0  0  0  0  0
   44.5082   32.2252   42.3574 H   0  0  0  0  0  0  0  0  0  0  0  0
   44.9306   32.8812   47.3055 H   0  0  0  0  0  0  0  0  0  0  0  0
   45.2471   32.1349   44.9243 H   0  0  0  0  0  0  0  0  0  0  0  0
   48.4148   30.7851   48.4910 H   0  0  0  0  0  0  0  0  0  0  0  0
  1 17  1  0
  2  1  2  0
  3  2  1  0
  4  3  2  0
  4  5  1  0
  5  6  1  0
  5  1  1  0
  6  7  2  0
  8  7  1  0
  9  8  1  0
 10  9  2  0
 11 10  1  0
 12 11  2  0
 12 13  1  0
 13 14  2  0
 14  9  1  0
 14  6  1  0
 15 20  2  0
 16 15  1  0
 17 16  2  0
 17 18  1  0
 18 19  2  0
 19 20  1  0
  2 21  1  0
  4 22  1  0
  7 23  1  0
  8 24  1  0
 10 25  1  0
 11 26  1  0
 12 27  1  0
 13 28  1  0
 15 29  1  0
 16 30  1  0
 19 31  1  0
M  ISO  8  21  14  22  14  23  14  24   9  25  14  26  14  27  14  28  14
M  ISO  3  29  14  30  14  31  14
M  END
>  <minimizedAffinity>  (1) 
-3.58272004

>  <minimizedRMSD>  (1) 
4.81894779

$$$$
