
     RDKit          3D

 27 29  0  0  0  0  0  0  0  0999 V2000
   45.8010   34.0840   41.5990 C   0  0  0  0  0  0  0  0  0  0  0  0
   44.9510   33.3890   40.7650 C   0  0  0  0  0  0  0  0  0  0  0  0
   45.6530   33.2630   39.5860 N   0  0  0  0  0  0  0  0  0  0  0  0
   46.8450   33.8600   39.7480 C   0  0  0  0  0  0  0  0  0  0  0  0
   46.9630   34.3750   40.9810 N   0  0  0  0  0  0  0  0  0  0  0  0
   44.4830   36.0080   44.5380 C   0  0  0  0  0  0  0  0  0  0  0  0
   44.8110   35.6600   43.2290 C   0  0  0  0  0  0  0  0  0  0  0  0
   45.4570   34.4440   42.9700 C   0  0  0  0  0  0  0  0  0  0  0  0
   45.7360   33.6510   44.0300 N   0  0  0  0  0  0  0  0  0  0  0  0
   45.4090   34.0060   45.2900 C   0  0  0  0  0  0  0  0  0  0  0  0
   44.7890   35.1730   45.5350 N   0  0  0  0  0  0  0  0  0  0  0  0
   48.0840   35.0870   41.5350 C   0  0  0  0  0  0  0  0  0  0  0  0
   49.2380   34.1930   41.8120 C   0  0  0  0  0  0  0  0  0  0  0  0
   49.5170   32.8770   41.4890 C   0  0  0  0  0  0  0  0  0  0  0  0
   50.7500   32.5140   41.9950 C   0  0  0  0  0  0  0  0  0  0  0  0
   51.2040   33.6340   42.6250 N   0  0  0  0  0  0  0  0  0  0  0  0
   50.3230   34.6150   42.5190 N   0  0  0  0  0  0  0  0  0  0  0  0
   43.9400   33.0185   40.9901 H   0  0  0  0  0  0  0  0  0  0  0  0
   47.6222   33.9189   38.9718 H   0  0  0  0  0  0  0  0  0  0  0  0
   43.9767   36.9616   44.7484 H   0  0  0  0  0  0  0  0  0  0  0  0
   44.5630   36.3392   42.4001 H   0  0  0  0  0  0  0  0  0  0  0  0
   45.6524   33.3332   46.1255 H   0  0  0  0  0  0  0  0  0  0  0  0
   48.3997   35.8612   40.8202 H   0  0  0  0  0  0  0  0  0  0  0  0
   47.7636   35.5290   42.4900 H   0  0  0  0  0  0  0  0  0  0  0  0
   48.8532   32.2156   40.9128 H   0  0  0  0  0  0  0  0  0  0  0  0
   51.2527   31.5394   41.9088 H   0  0  0  0  0  0  0  0  0  0  0  0
   52.1070   33.7065   43.1152 H   0  0  0  0  0  0  0  0  0  0  0  0
  1  8  1  0
  2  1  2  0
  3  4  2  0
  3  2  1  0
  4  5  1  0
  5 12  1  0
  5  1  1  0
  6 11  2  0
  7  6  1  0
  8  7  2  0
  8  9  1  0
  9 10  2  0
 10 11  1  0
 12 13  1  0
 13 17  2  0
 14 13  1  0
 14 15  2  0
 15 16  1  0
 17 16  1  0
  2 18  1  0
  4 19  1  0
  6 20  1  0
  7 21  1  0
 10 22  1  0
 12 23  1  0
 12 24  1  0
 14 25  1  0
 15 26  1  0
 16 27  1  0
M  ISO  8  18  14  19  14  20  14  21  14  22  14  23   8  24   8  25  14
M  ISO  2  26  14  27   9
M  END
>  <minimizedAffinity>  (1) 
-5.07991123

>  <minimizedRMSD>  (1) 
1.1242913

$$$$
