
     RDKit          3D

 22 23  0  0  0  0  0  0  0  0999 V2000
   46.8350   34.6090   41.7200 C   0  0  0  0  0  0  0  0  0  0  0  0
   46.2620   33.9460   40.6340 C   0  0  0  0  0  0  0  0  0  0  0  0
   47.2510   33.9780   39.6730 N   0  0  0  0  0  0  0  0  0  0  0  0
   48.3080   34.6160   40.1810 C   0  0  0  0  0  0  0  0  0  0  0  0
   48.0690   35.0050   41.4260 N   0  0  0  0  0  0  0  0  0  0  0  0
   44.6390   36.0820   44.3650 C   0  0  0  0  0  0  0  0  0  0  0  0
   45.3040   35.9250   43.1300 C   0  0  0  0  0  0  0  0  0  0  0  0
   46.1240   34.8120   42.9870 C   0  0  0  0  0  0  0  0  0  0  0  0
   46.2550   33.9260   44.0270 N   0  0  0  0  0  0  0  0  0  0  0  0
   45.5940   34.1310   45.1800 C   0  0  0  0  0  0  0  0  0  0  0  0
   44.7890   35.2010   45.3540 N   0  0  0  0  0  0  0  0  0  0  0  0
   48.9580   35.7210   42.3210 C   0  0  0  0  0  0  0  0  0  0  0  0
   49.7480   34.6970   42.9930 N   0  0  0  0  0  0  0  0  0  0  0  0
   45.2581   33.5023   40.5614 H   0  0  0  0  0  0  0  0  0  0  0  0
   49.2492   34.7947   39.6403 H   0  0  0  0  0  0  0  0  0  0  0  0
   43.9819   36.9513   44.5148 H   0  0  0  0  0  0  0  0  0  0  0  0
   45.1785   36.6530   42.3149 H   0  0  0  0  0  0  0  0  0  0  0  0
   45.7120   33.4092   46.0016 H   0  0  0  0  0  0  0  0  0  0  0  0
   49.6119   36.3980   41.7518 H   0  0  0  0  0  0  0  0  0  0  0  0
   48.3999   36.3400   43.0389 H   0  0  0  0  0  0  0  0  0  0  0  0
   49.6606   34.8103   44.0130 H   0  0  0  0  0  0  0  0  0  0  0  0
   49.4050   33.7648   42.7204 H   0  0  0  0  0  0  0  0  0  0  0  0
  1  8  1  0
  2  1  2  0
  3  4  2  0
  3  2  1  0
  4  5  1  0
  5  1  1  0
  5 12  1  0
  6 11  2  0
  7  6  1  0
  8  7  2  0
  8  9  1  0
  9 10  2  0
 10 11  1  0
 12 13  1  0
  2 14  1  0
  4 15  1  0
  6 16  1  0
  7 17  1  0
 10 18  1  0
 12 19  1  0
 12 20  1  0
 13 21  1  0
 13 22  1  0
M  ISO  8  14  14  15  14  16  14  17  14  18  14  19   8  20   8  21   5
M  ISO  1  22   5
M  END
>  <minimizedAffinity>  (1) 
-4.4952898

>  <minimizedRMSD>  (1) 
0.315820515

$$$$
