
     RDKit          3D

 28 30  0  0  0  0  0  0  0  0999 V2000
   45.9610   34.2450   41.7090 C   0  0  0  0  0  0  0  0  0  0  0  0
   45.0580   33.9530   40.6890 C   0  0  0  0  0  0  0  0  0  0  0  0
   45.8600   33.6850   39.6060 N   0  0  0  0  0  0  0  0  0  0  0  0
   47.1400   33.8180   39.9910 C   0  0  0  0  0  0  0  0  0  0  0  0
   47.2130   34.1590   41.2710 N   0  0  0  0  0  0  0  0  0  0  0  0
   44.5190   36.1040   44.6260 C   0  0  0  0  0  0  0  0  0  0  0  0
   44.9160   35.8060   43.3140 C   0  0  0  0  0  0  0  0  0  0  0  0
   45.5320   34.5950   43.0690 C   0  0  0  0  0  0  0  0  0  0  0  0
   45.7340   33.7270   44.1140 N   0  0  0  0  0  0  0  0  0  0  0  0
   45.3400   34.0460   45.3680 C   0  0  0  0  0  0  0  0  0  0  0  0
   44.7360   35.2290   45.6190 N   0  0  0  0  0  0  0  0  0  0  0  0
   48.3980   34.4000   42.0550 C   0  0  0  0  0  0  0  0  0  0  0  0
   49.1960   33.1670   42.3230 C   0  0  0  0  0  0  0  0  0  0  0  0
   50.5590   33.1440   42.1040 C   0  0  0  0  0  0  0  0  0  0  0  0
   51.1980   31.9590   42.3830 C   0  0  0  0  0  0  0  0  0  0  0  0
   50.5980   30.8520   42.8420 N   0  0  0  0  0  0  0  0  0  0  0  0
   49.2540   30.9020   43.0490 C   0  0  0  0  0  0  0  0  0  0  0  0
   48.5890   32.0430   42.7880 N   0  0  0  0  0  0  0  0  0  0  0  0
   43.9592   33.9400   40.7390 H   0  0  0  0  0  0  0  0  0  0  0  0
   48.0092   33.6650   39.3344 H   0  0  0  0  0  0  0  0  0  0  0  0
   44.0257   37.0631   44.8421 H   0  0  0  0  0  0  0  0  0  0  0  0
   44.7402   36.5220   42.4977 H   0  0  0  0  0  0  0  0  0  0  0  0
   45.5126   33.3366   46.1908 H   0  0  0  0  0  0  0  0  0  0  0  0
   49.0342   35.1155   41.5134 H   0  0  0  0  0  0  0  0  0  0  0  0
   48.0676   34.7896   43.0292 H   0  0  0  0  0  0  0  0  0  0  0  0
   51.1025   34.0233   41.7279 H   0  0  0  0  0  0  0  0  0  0  0  0
   52.2845   31.9163   42.2168 H   0  0  0  0  0  0  0  0  0  0  0  0
   48.7165   30.0193   43.4257 H   0  0  0  0  0  0  0  0  0  0  0  0
  1  8  1  0
  2  1  2  0
  3  4  2  0
  3  2  1  0
  4  5  1  0
  5  1  1  0
  5 12  1  0
  6 11  2  0
  7  6  1  0
  8  7  2  0
  8  9  1  0
  9 10  2  0
 10 11  1  0
 12 13  1  0
 13 18  1  0
 14 13  2  0
 14 15  1  0
 15 16  2  0
 16 17  1  0
 18 17  2  0
  2 19  1  0
  4 20  1  0
  6 21  1  0
  7 22  1  0
 10 23  1  0
 12 24  1  0
 12 25  1  0
 14 26  1  0
 15 27  1  0
 17 28  1  0
M  ISO  8  19  14  20  14  21  14  22  14  23  14  24   8  25   8  26  14
M  ISO  2  27  14  28  14
M  END
>  <minimizedAffinity>  (1) 
-4.32412434

>  <minimizedRMSD>  (1) 
1.52354658

$$$$
