
     RDKit          3D

 43 47  0  0  0  0  0  0  0  0999 V2000
   43.9180   32.5190   39.7210 C   0  0  0  0  0  0  0  0  0  0  0  0
   44.1080   30.4190   40.9900 C   0  0  0  0  0  0  0  0  0  0  0  0
   45.0930   29.4980   41.3430 C   0  0  0  0  0  0  0  0  0  0  0  0
   46.2410   29.9870   40.7800 N   0  0  0  0  0  0  0  0  0  0  0  0
   45.9160   31.1180   40.1480 C   0  0  0  0  0  0  0  0  0  0  0  0
   44.6310   31.4010   40.2580 N   0  0  0  0  0  0  0  0  0  0  0  0
   40.4810   29.4890   40.9260 C   0  0  0  0  0  0  0  0  0  0  0  0
   41.8250   29.6260   40.5380 C   0  0  0  0  0  0  0  0  0  0  0  0
   42.7020   30.2750   41.3940 C   0  0  0  0  0  0  0  0  0  0  0  0
   42.2360   30.7560   42.5750 N   0  0  0  0  0  0  0  0  0  0  0  0
   40.9490   30.6190   42.9330 C   0  0  0  0  0  0  0  0  0  0  0  0
   40.0770   29.9890   42.1130 N   0  0  0  0  0  0  0  0  0  0  0  0
   43.8110   33.6980   40.5730 C   0  0  0  0  0  0  0  0  0  0  0  0
   44.6020   33.9840   41.6960 C   0  0  0  0  0  0  0  0  0  0  0  0
   44.2530   35.1440   42.2610 N   0  0  0  0  0  0  0  0  0  0  0  0
   43.2340   35.6300   41.5210 C   0  0  0  0  0  0  0  0  0  0  0  0
   42.9890   34.7560   40.5250 N   0  0  0  0  0  0  0  0  0  0  0  0
   41.9790   34.9300   39.5360 C   0  0  0  0  0  0  0  0  0  0  0  0
   42.2560   35.6820   38.4090 C   0  0  0  0  0  0  0  0  0  0  0  0
   41.3240   35.8910   37.4120 C   0  0  0  0  0  0  0  0  0  0  0  0
   40.0610   35.3400   37.5170 C   0  0  0  0  0  0  0  0  0  0  0  0
   39.7560   34.5810   38.6350 C   0  0  0  0  0  0  0  0  0  0  0  0
   38.4950   34.0040   38.7870 C   0  0  0  0  0  0  0  0  0  0  0  0
   38.1410   33.2430   39.8760 C   0  0  0  0  0  0  0  0  0  0  0  0
   39.1220   33.0780   40.8310 C   0  0  0  0  0  0  0  0  0  0  0  0
   40.3850   33.6410   40.7050 C   0  0  0  0  0  0  0  0  0  0  0  0
   40.7080   34.3990   39.5990 C   0  0  0  0  0  0  0  0  0  0  0  0
   44.4247   32.8231   38.7932 H   0  0  0  0  0  0  0  0  0  0  0  0
   42.8852   32.1654   39.5857 H   0  0  0  0  0  0  0  0  0  0  0  0
   44.9743   28.5823   41.9408 H   0  0  0  0  0  0  0  0  0  0  0  0
   46.6363   31.7421   39.5988 H   0  0  0  0  0  0  0  0  0  0  0  0
   39.7635   28.9780   40.2671 H   0  0  0  0  0  0  0  0  0  0  0  0
   42.1742   29.2264   39.5745 H   0  0  0  0  0  0  0  0  0  0  0  0
   40.6026   31.0206   43.8967 H   0  0  0  0  0  0  0  0  0  0  0  0
   45.4091   33.3343   42.0655 H   0  0  0  0  0  0  0  0  0  0  0  0
   42.6978   36.5737   41.6996 H   0  0  0  0  0  0  0  0  0  0  0  0
   43.2551   36.1299   38.3030 H   0  0  0  0  0  0  0  0  0  0  0  0
   41.5872   36.4971   36.5326 H   0  0  0  0  0  0  0  0  0  0  0  0
   39.3120   35.5011   36.7277 H   0  0  0  0  0  0  0  0  0  0  0  0
   37.7471   34.1658   37.9967 H   0  0  0  0  0  0  0  0  0  0  0  0
   37.1414   32.7954   39.9787 H   0  0  0  0  0  0  0  0  0  0  0  0
   38.8957   32.4786   41.7251 H   0  0  0  0  0  0  0  0  0  0  0  0
   41.1344   33.4811   41.4942 H   0  0  0  0  0  0  0  0  0  0  0  0
  1  6  1  0
  1 13  1  0
  2  3  2  0
  2  9  1  0
  4  3  1  0
  5  6  1  0
  5  4  2  0
  6  2  1  0
  7 12  2  0
  8  7  1  0
  8  9  2  0
  9 10  1  0
 10 11  2  0
 12 11  1  0
 13 14  2  0
 14 15  1  0
 16 15  2  0
 17 13  1  0
 17 16  1  0
 18 27  1  0
 18 17  1  0
 19 18  2  0
 20 21  2  0
 20 19  1  0
 21 22  1  0
 22 23  1  0
 22 27  2  0
 23 24  2  0
 24 25  1  0
 26 25  2  0
 27 26  1  0
  1 28  1  0
  1 29  1  0
  3 30  1  0
  5 31  1  0
  7 32  1  0
  8 33  1  0
 11 34  1  0
 14 35  1  0
 16 36  1  0
 19 37  1  0
 20 38  1  0
 21 39  1  0
 23 40  1  0
 24 41  1  0
 25 42  1  0
 26 43  1  0
M  ISO  8  28   8  29   8  30  14  31  14  32  14  33  14  34  14  35  14
M  ISO  8  36  14  37  14  38  14  39  14  40  14  41  14  42  14  43  14
M  END
>  <minimizedAffinity>  (1) 
-5.291502

>  <minimizedRMSD>  (1) 
5.37468243

$$$$
