
     RDKit          3D

 39 42  0  0  1  0  0  0  0  0999 V2000
   46.6890   34.3570   42.0010 C   0  0  0  0  0  0  0  0  0  0  0  0
   47.6180   34.7060   41.0160 C   0  0  0  0  0  0  0  0  0  0  0  0
   48.8190   34.6530   41.6490 N   0  0  0  0  0  0  0  0  0  0  0  0
   48.5980   34.2970   42.9150 C   0  0  0  0  0  0  0  0  0  0  0  0
   47.2980   34.1120   43.1480 N   0  0  0  0  0  0  0  0  0  0  0  0
   43.0980   35.3690   41.6730 C   0  0  0  0  0  0  0  0  0  0  0  0
   44.4790   35.4320   41.9220 C   0  0  0  0  0  0  0  0  0  0  0  0
   45.2440   34.2890   41.7400 C   0  0  0  0  0  0  0  0  0  0  0  0
   44.6320   33.1560   41.3310 N   0  0  0  0  0  0  0  0  0  0  0  0
   43.3080   33.1020   41.0950 C   0  0  0  0  0  0  0  0  0  0  0  0
   42.5430   34.1980   41.2630 N   0  0  0  0  0  0  0  0  0  0  0  0
   46.6750   33.7280   44.3770 C   0  0  0  0  0  0  0  0  0  0  0  0
   46.9100   32.3490   44.8180 C   0  0  0  0  0  0  0  0  0  0  0  0
   46.9870   31.2160   43.9950 C   0  0  0  0  0  0  0  0  0  0  0  0
   47.2110   30.1140   44.7210 N   0  0  0  0  0  0  0  0  0  0  0  0
   47.2820   30.4950   46.0030 C   0  0  0  0  0  0  0  0  0  0  0  0
   47.1010   31.8270   46.0380 N   0  0  0  0  0  0  0  0  0  0  0  0
   45.7680   32.8400   47.7470 N   0  0  0  0  0  0  0  0  0  0  0  0
   45.5350   32.0240   48.8960 C   0  0  0  0  0  0  0  0  0  0  0  0
   46.7130   31.1030   49.0780 C   0  0  0  0  0  0  0  0  0  0  0  0
   47.7990   31.8850   48.3870 C   0  0  0  0  0  0  0  0  0  0  0  0
   47.1130   32.5990   47.2650 C   0  0  1  0  0  0  0  0  0  0  0  0
   47.4209   34.9651   39.9653 H   0  0  0  0  0  0  0  0  0  0  0  0
   49.3874   34.1719   43.6708 H   0  0  0  0  0  0  0  0  0  0  0  0
   42.4697   36.2616   41.8090 H   0  0  0  0  0  0  0  0  0  0  0  0
   44.9455   36.3707   42.2553 H   0  0  0  0  0  0  0  0  0  0  0  0
   42.8487   32.1590   40.7636 H   0  0  0  0  0  0  0  0  0  0  0  0
   47.0448   34.4002   45.1653 H   0  0  0  0  0  0  0  0  0  0  0  0
   45.5927   33.7984   44.1934 H   0  0  0  0  0  0  0  0  0  0  0  0
   46.8780   31.2310   42.9005 H   0  0  0  0  0  0  0  0  0  0  0  0
   47.4564   29.8388   46.8684 H   0  0  0  0  0  0  0  0  0  0  0  0
   45.0888   32.6017   47.0102 H   0  0  0  0  0  0  0  0  0  0  0  0
   45.4214   32.6606   49.7858 H   0  0  0  0  0  0  0  0  0  0  0  0
   44.6156   31.4358   48.7591 H   0  0  0  0  0  0  0  0  0  0  0  0
   46.9427   30.9465   50.1423 H   0  0  0  0  0  0  0  0  0  0  0  0
   46.5613   30.0888   48.6799 H   0  0  0  0  0  0  0  0  0  0  0  0
   48.2567   32.6057   49.0806 H   0  0  0  0  0  0  0  0  0  0  0  0
   48.6093   31.2342   48.0266 H   0  0  0  0  0  0  0  0  0  0  0  0
   47.6401   33.5287   47.0047 H   0  0  0  0  0  0  0  0  0  0  0  0
  1  5  1  0
  2  3  1  0
  2  1  2  0
  3  4  2  0
  4  5  1  0
  5 12  1  0
  6  7  2  0
  8  7  1  0
  8  1  1  0
  9  8  2  0
 10 11  2  0
 10  9  1  0
 11  6  1  0
 12 13  1  0
 13 17  1  0
 14 15  1  0
 14 13  2  0
 15 16  2  0
 16 17  1  0
 18 19  1  0
 19 20  1  0
 21 20  1  0
 22 17  1  0
 22 18  1  0
 22 21  1  0
  2 23  1  0
  4 24  1  0
  6 25  1  0
  7 26  1  0
 10 27  1  0
 12 28  1  0
 12 29  1  0
 14 30  1  0
 16 31  1  0
 18 32  1  0
 19 33  1  0
 19 34  1  0
 20 35  1  0
 20 36  1  0
 21 37  1  0
 21 38  1  0
 22 39  1  6
M  ISO  8  23  14  24  14  25  14  26  14  27  14  28   8  29   8  30  14
M  ISO  8  31  14  32   5  33  13  34  13  35  13  36  13  37  13  38  13
M  ISO  1  39  13
M  END
>  <minimizedAffinity>  (1) 
-5.18196535

>  <minimizedRMSD>  (1) 
6.68205214

$$$$
