
     RDKit          3D

 38 41  0  0  1  0  0  0  0  0999 V2000
   44.9340   33.1200   41.0060 C   0  0  0  0  0  0  0  0  0  0  0  0
   46.5990   34.5700   42.1070 C   0  0  0  0  0  0  0  0  0  0  0  0
   47.8210   35.1740   41.8110 C   0  0  0  0  0  0  0  0  0  0  0  0
   48.0830   34.7870   40.5270 N   0  0  0  0  0  0  0  0  0  0  0  0
   47.0740   34.0160   40.1250 C   0  0  0  0  0  0  0  0  0  0  0  0
   46.1580   33.8710   41.0720 N   0  0  0  0  0  0  0  0  0  0  0  0
   45.5540   33.9250   45.6460 C   0  0  0  0  0  0  0  0  0  0  0  0
   46.1810   33.7850   44.4030 C   0  0  0  0  0  0  0  0  0  0  0  0
   45.9410   34.7220   43.4070 C   0  0  0  0  0  0  0  0  0  0  0  0
   45.1030   35.7450   43.6820 N   0  0  0  0  0  0  0  0  0  0  0  0
   44.5060   35.8710   44.8810 C   0  0  0  0  0  0  0  0  0  0  0  0
   44.7330   34.9610   45.8600 N   0  0  0  0  0  0  0  0  0  0  0  0
   43.7890   33.8090   40.4010 C   0  0  0  0  0  0  0  0  0  0  0  0
   43.4520   35.1660   40.5860 C   0  0  0  0  0  0  0  0  0  0  0  0
   42.3480   35.4760   39.8870 N   0  0  0  0  0  0  0  0  0  0  0  0
   41.9690   34.3540   39.2610 C   0  0  0  0  0  0  0  0  0  0  0  0
   42.8270   33.3830   39.5730 N   0  0  0  0  0  0  0  0  0  0  0  0
   39.9260   31.5030   39.4730 N   0  0  0  0  0  0  0  0  0  0  0  0
   40.3340   31.8190   38.1730 C   0  0  0  0  0  0  0  0  0  0  0  0
   41.7700   31.9230   37.8840 C   0  0  0  0  0  0  0  0  0  0  0  0
   42.6850   32.0220   39.0510 C   0  0  0  0  0  0  0  0  0  0  0  0
   42.2800   31.0240   40.0960 C   0  0  0  0  0  0  0  0  0  0  0  0
   40.8350   30.9220   40.3780 C   0  0  0  0  0  0  0  0  0  0  0  0
   45.1284   32.2105   40.4186 H   0  0  0  0  0  0  0  0  0  0  0  0
   44.6469   32.9283   42.0504 H   0  0  0  0  0  0  0  0  0  0  0  0
   48.4335   35.8150   42.4621 H   0  0  0  0  0  0  0  0  0  0  0  0
   47.0088   33.5555   39.1282 H   0  0  0  0  0  0  0  0  0  0  0  0
   45.7344   33.1883   46.4427 H   0  0  0  0  0  0  0  0  0  0  0  0
   46.8589   32.9390   44.2164 H   0  0  0  0  0  0  0  0  0  0  0  0
   43.8293   36.7178   45.0682 H   0  0  0  0  0  0  0  0  0  0  0  0
   44.0147   35.8717   41.2148 H   0  0  0  0  0  0  0  0  0  0  0  0
   41.0958   34.2512   38.6000 H   0  0  0  0  0  0  0  0  0  0  0  0
   38.9585   31.6957   39.7690 H   0  0  0  0  0  0  0  0  0  0  0  0
   39.5909   31.9870   37.3796 H   0  0  0  0  0  0  0  0  0  0  0  0
   42.1507   31.9274   36.8520 H   0  0  0  0  0  0  0  0  0  0  0  0
   43.6985   31.7680   38.7071 H   0  0  0  0  0  0  0  0  0  0  0  0
   43.0194   30.4028   40.6227 H   0  0  0  0  0  0  0  0  0  0  0  0
   40.4749   30.4020   41.2780 H   0  0  0  0  0  0  0  0  0  0  0  0
  1  6  1  0
  2  9  1  0
  3  2  2  0
  4  3  1  0
  5  4  2  0
  5  6  1  0
  6  2  1  0
  7 12  2  0
  8  7  1  0
  9 10  1  0
  9  8  2  0
 10 11  2  0
 11 12  1  0
 13 14  2  0
 13  1  1  0
 15 14  1  0
 16 17  1  0
 16 15  2  0
 17 13  1  0
 18 23  1  0
 19 18  1  0
 20 19  2  0
 21 20  1  0
 21 17  1  0
 21 22  1  0
 22 23  2  0
  1 24  1  0
  1 25  1  0
  3 26  1  0
  5 27  1  0
  7 28  1  0
  8 29  1  0
 11 30  1  0
 14 31  1  0
 16 32  1  0
 18 33  1  0
 19 34  1  0
 20 35  1  0
 21 36  1  0
 22 37  1  0
 23 38  1  0
M  ISO  8  24   8  25   8  26  14  27  14  28  14  29  14  30  14  31  14
M  ISO  6  32  14  34  13  35  13  36  13  37  13  38  13
M  END
>  <minimizedAffinity>  (1) 
-5.17996645

>  <minimizedRMSD>  (1) 
2.76754189

$$$$
