
     RDKit          3D

 30 32  0  0  0  0  0  0  0  0999 V2000
   46.8180   34.6960   42.0350 C   0  0  0  0  0  0  0  0  0  0  0  0
   48.0340   35.3350   41.8200 C   0  0  0  0  0  0  0  0  0  0  0  0
   48.3820   34.9710   40.5520 N   0  0  0  0  0  0  0  0  0  0  0  0
   47.4180   34.1770   40.0850 C   0  0  0  0  0  0  0  0  0  0  0  0
   46.4550   33.9970   40.9770 N   0  0  0  0  0  0  0  0  0  0  0  0
   45.5920   33.9850   45.5040 C   0  0  0  0  0  0  0  0  0  0  0  0
   46.2890   33.8750   44.2940 C   0  0  0  0  0  0  0  0  0  0  0  0
   46.0830   34.8220   43.3000 C   0  0  0  0  0  0  0  0  0  0  0  0
   45.2090   35.8230   43.5440 N   0  0  0  0  0  0  0  0  0  0  0  0
   44.5440   35.9260   44.7040 C   0  0  0  0  0  0  0  0  0  0  0  0
   44.7340   35.0090   45.6850 N   0  0  0  0  0  0  0  0  0  0  0  0
   45.2570   33.2120   40.8380 C   0  0  0  0  0  0  0  0  0  0  0  0
   44.1630   33.8300   40.0980 C   0  0  0  0  0  0  0  0  0  0  0  0
   43.2780   34.8160   40.5830 C   0  0  0  0  0  0  0  0  0  0  0  0
   42.3860   35.1740   39.6510 N   0  0  0  0  0  0  0  0  0  0  0  0
   42.6680   34.4440   38.5630 C   0  0  0  0  0  0  0  0  0  0  0  0
   43.7200   33.6550   38.8460 N   0  0  0  0  0  0  0  0  0  0  0  0
   44.2690   32.7410   37.8780 C   0  0  0  0  0  0  0  0  0  0  0  0
   43.2530   32.0540   37.1930 F   0  0  0  0  0  0  0  0  0  0  0  0
   45.0160   31.7360   38.4680 F   0  0  0  0  0  0  0  0  0  0  0  0
   44.9560   33.4210   36.8910 F   0  0  0  0  0  0  0  0  0  0  0  0
   48.5883   35.9849   42.5132 H   0  0  0  0  0  0  0  0  0  0  0  0
   47.4218   33.7264   39.0815 H   0  0  0  0  0  0  0  0  0  0  0  0
   45.7435   33.2416   46.3004 H   0  0  0  0  0  0  0  0  0  0  0  0
   46.9934   33.0456   44.1328 H   0  0  0  0  0  0  0  0  0  0  0  0
   43.8414   36.7578   44.8605 H   0  0  0  0  0  0  0  0  0  0  0  0
   45.5258   32.2785   40.3219 H   0  0  0  0  0  0  0  0  0  0  0  0
   44.8774   33.0717   41.8609 H   0  0  0  0  0  0  0  0  0  0  0  0
   43.3161   35.2373   41.5984 H   0  0  0  0  0  0  0  0  0  0  0  0
   42.1314   34.4833   37.6036 H   0  0  0  0  0  0  0  0  0  0  0  0
  1  8  1  0
  2  1  2  0
  3  2  1  0
  4  3  2  0
  4  5  1  0
  5  1  1  0
  6 11  2  0
  7  6  1  0
  8  9  1  0
  8  7  2  0
  9 10  2  0
 10 11  1  0
 12  5  1  0
 13 14  2  0
 13 12  1  0
 15 14  1  0
 16 17  1  0
 16 15  2  0
 17 13  1  0
 18 20  1  0
 18 17  1  0
 19 18  1  0
 21 18  1  0
  2 22  1  0
  4 23  1  0
  6 24  1  0
  7 25  1  0
 10 26  1  0
 12 27  1  0
 12 28  1  0
 14 29  1  0
 16 30  1  0
M  ISO  8  22  14  23  14  24  14  25  14  26  14  27   8  28   8  29  14
M  ISO  1  30  14
M  END
>  <minimizedAffinity>  (1) 
-5.12131071

>  <minimizedRMSD>  (1) 
1.42405307

$$$$
