
     RDKit          3D

 32 35  0  0  0  0  0  0  0  0999 V2000
   47.2030   34.6260   41.8830 C   0  0  0  0  0  0  0  0  0  0  0  0
   48.2000   35.1140   41.0370 C   0  0  0  0  0  0  0  0  0  0  0  0
   49.3650   34.9360   41.7430 N   0  0  0  0  0  0  0  0  0  0  0  0
   49.0450   34.3820   42.9120 C   0  0  0  0  0  0  0  0  0  0  0  0
   47.7380   34.1830   43.0240 N   0  0  0  0  0  0  0  0  0  0  0  0
   43.5460   35.4240   41.8410 C   0  0  0  0  0  0  0  0  0  0  0  0
   44.9090   35.4380   42.2050 C   0  0  0  0  0  0  0  0  0  0  0  0
   45.7930   34.6240   41.5200 C   0  0  0  0  0  0  0  0  0  0  0  0
   45.2900   33.8490   40.5220 N   0  0  0  0  0  0  0  0  0  0  0  0
   43.9940   33.8390   40.1790 C   0  0  0  0  0  0  0  0  0  0  0  0
   43.1300   34.6230   40.8360 N   0  0  0  0  0  0  0  0  0  0  0  0
   47.0110   33.6160   44.1200 C   0  0  0  0  0  0  0  0  0  0  0  0
   46.9880   32.1500   44.1870 C   0  0  0  0  0  0  0  0  0  0  0  0
   47.4440   31.2760   43.1880 C   0  0  0  0  0  0  0  0  0  0  0  0
   47.2820   30.0080   43.5610 N   0  0  0  0  0  0  0  0  0  0  0  0
   46.7300   30.0110   44.7800 C   0  0  0  0  0  0  0  0  0  0  0  0
   46.5630   31.3050   45.1350 N   0  0  0  0  0  0  0  0  0  0  0  0
   46.0010   31.7600   46.3690 C   0  0  0  0  0  0  0  0  0  0  0  0
   45.7120   32.9110   47.0050 N   0  0  0  0  0  0  0  0  0  0  0  0
   45.1870   32.6260   48.1590 O   0  0  0  0  0  0  0  0  0  0  0  0
   45.1010   31.3300   48.3470 C   0  0  0  0  0  0  0  0  0  0  0  0
   45.6080   30.7790   47.2330 N   0  0  0  0  0  0  0  0  0  0  0  0
   48.0800   35.5441   40.0317 H   0  0  0  0  0  0  0  0  0  0  0  0
   49.7767   34.1210   43.6907 H   0  0  0  0  0  0  0  0  0  0  0  0
   42.8254   36.0624   42.3731 H   0  0  0  0  0  0  0  0  0  0  0  0
   45.2630   36.0858   43.0205 H   0  0  0  0  0  0  0  0  0  0  0  0
   43.6426   33.1907   39.3628 H   0  0  0  0  0  0  0  0  0  0  0  0
   47.4620   33.9885   45.0516 H   0  0  0  0  0  0  0  0  0  0  0  0
   45.9650   33.9226   43.9723 H   0  0  0  0  0  0  0  0  0  0  0  0
   47.8762   31.5949   42.2280 H   0  0  0  0  0  0  0  0  0  0  0  0
   46.4628   29.1283   45.3795 H   0  0  0  0  0  0  0  0  0  0  0  0
   44.6997   30.8077   49.2280 H   0  0  0  0  0  0  0  0  0  0  0  0
  1  5  1  0
  2  3  1  0
  2  1  2  0
  3  4  2  0
  4  5  1  0
  5 12  1  0
  6  7  2  0
  8  1  1  0
  8  7  1  0
  9  8  2  0
 10  9  1  0
 10 11  2  0
 11  6  1  0
 12 13  1  0
 13 17  1  0
 14 15  1  0
 14 13  2  0
 15 16  2  0
 16 17  1  0
 17 18  1  0
 18 19  2  0
 18 22  1  0
 19 20  1  0
 20 21  1  0
 22 21  2  0
  2 23  1  0
  4 24  1  0
  6 25  1  0
  7 26  1  0
 10 27  1  0
 12 28  1  0
 12 29  1  0
 14 30  1  0
 16 31  1  0
 21 32  1  0
M  ISO  8  23  14  24  14  25  14  26  14  27  14  28   8  29   8  30  14
M  ISO  2  31  14  32  14
M  END
>  <minimizedAffinity>  (1) 
-5.02616501

>  <minimizedRMSD>  (1) 
6.51310825

$$$$
