
     RDKit          3D

 35 38  0  0  0  0  0  0  0  0999 V2000
   45.6560   34.1020   41.5890 C   0  0  0  0  0  0  0  0  0  0  0  0
   46.8930   32.5890   43.1040 C   0  0  0  0  0  0  0  0  0  0  0  0
   46.6210   31.5630   44.0090 C   0  0  0  0  0  0  0  0  0  0  0  0
   45.2590   31.4310   43.9780 N   0  0  0  0  0  0  0  0  0  0  0  0
   44.7890   32.3260   43.1110 C   0  0  0  0  0  0  0  0  0  0  0  0
   45.7660   33.0420   42.5670 N   0  0  0  0  0  0  0  0  0  0  0  0
   49.8320   34.8480   42.6180 C   0  0  0  0  0  0  0  0  0  0  0  0
   48.5200   34.4120   42.8870 C   0  0  0  0  0  0  0  0  0  0  0  0
   48.2450   33.0550   42.8290 C   0  0  0  0  0  0  0  0  0  0  0  0
   49.2650   32.2050   42.5130 N   0  0  0  0  0  0  0  0  0  0  0  0
   50.5090   32.6270   42.2600 C   0  0  0  0  0  0  0  0  0  0  0  0
   50.7950   33.9500   42.3120 N   0  0  0  0  0  0  0  0  0  0  0  0
   45.1740   33.7080   40.2720 C   0  0  0  0  0  0  0  0  0  0  0  0
   45.9560   33.1950   39.2280 C   0  0  0  0  0  0  0  0  0  0  0  0
   45.2170   32.9320   38.1490 N   0  0  0  0  0  0  0  0  0  0  0  0
   43.9400   33.2670   38.4690 C   0  0  0  0  0  0  0  0  0  0  0  0
   43.9510   33.7230   39.7300 N   0  0  0  0  0  0  0  0  0  0  0  0
   42.7750   34.1710   40.4070 C   0  0  0  0  0  0  0  0  0  0  0  0
   41.9060   33.1080   40.6690 C   0  0  0  0  0  0  0  0  0  0  0  0
   40.7050   33.3290   41.3190 C   0  0  0  0  0  0  0  0  0  0  0  0
   40.3930   34.5890   41.6920 N   0  0  0  0  0  0  0  0  0  0  0  0
   41.2760   35.5860   41.4110 C   0  0  0  0  0  0  0  0  0  0  0  0
   42.4570   35.4230   40.7810 N   0  0  0  0  0  0  0  0  0  0  0  0
   44.9639   34.8580   41.9884 H   0  0  0  0  0  0  0  0  0  0  0  0
   46.6812   34.4685   41.4322 H   0  0  0  0  0  0  0  0  0  0  0  0
   47.3397   30.9889   44.6122 H   0  0  0  0  0  0  0  0  0  0  0  0
   43.7226   32.4561   42.8746 H   0  0  0  0  0  0  0  0  0  0  0  0
   50.0733   35.9205   42.6570 H   0  0  0  0  0  0  0  0  0  0  0  0
   47.7293   35.1343   43.1381 H   0  0  0  0  0  0  0  0  0  0  0  0
   51.2974   31.9017   42.0104 H   0  0  0  0  0  0  0  0  0  0  0  0
   47.0418   33.0301   39.2905 H   0  0  0  0  0  0  0  0  0  0  0  0
   43.0599   33.1803   37.8149 H   0  0  0  0  0  0  0  0  0  0  0  0
   42.1788   32.0893   40.3564 H   0  0  0  0  0  0  0  0  0  0  0  0
   40.0182   32.4955   41.5278 H   0  0  0  0  0  0  0  0  0  0  0  0
   41.0047   36.6055   41.7225 H   0  0  0  0  0  0  0  0  0  0  0  0
  1  6  1  0
  2  3  2  0
  4  3  1  0
  5  4  2  0
  6  2  1  0
  6  5  1  0
  7  8  2  0
  9  8  1  0
  9  2  1  0
 10  9  2  0
 11 12  2  0
 11 10  1  0
 12  7  1  0
 13  1  1  0
 14 13  2  0
 15 16  2  0
 15 14  1  0
 16 17  1  0
 17 13  1  0
 17 18  1  0
 18 19  2  0
 18 23  1  0
 19 20  1  0
 20 21  2  0
 22 21  1  0
 23 22  2  0
  1 24  1  0
  1 25  1  0
  3 26  1  0
  5 27  1  0
  7 28  1  0
  8 29  1  0
 11 30  1  0
 14 31  1  0
 16 32  1  0
 19 33  1  0
 20 34  1  0
 22 35  1  0
M  ISO  8  24   8  25   8  26  14  27  14  28  14  29  14  30  14  31  14
M  ISO  4  32  14  33  14  34  14  35  14
M  END
>  <minimizedAffinity>  (1) 
-4.65723324

>  <minimizedRMSD>  (1) 
4.68062878

$$$$
