
     RDKit          3D

 36 39  0  0  0  0  0  0  0  0999 V2000
   47.2810   33.3060   44.0240 C   0  0  0  0  0  0  0  0  0  0  0  0
   47.4200   34.7120   41.9940 C   0  0  0  0  0  0  0  0  0  0  0  0
   48.3780   35.4050   41.2610 C   0  0  0  0  0  0  0  0  0  0  0  0
   49.5500   35.1830   41.9390 N   0  0  0  0  0  0  0  0  0  0  0  0
   49.2560   34.4070   42.9940 C   0  0  0  0  0  0  0  0  0  0  0  0
   47.9610   34.1070   43.0480 N   0  0  0  0  0  0  0  0  0  0  0  0
   43.7530   35.4190   41.9320 C   0  0  0  0  0  0  0  0  0  0  0  0
   45.1040   35.4500   42.3030 C   0  0  0  0  0  0  0  0  0  0  0  0
   46.0060   34.6850   41.6110 C   0  0  0  0  0  0  0  0  0  0  0  0
   45.5340   33.9280   40.5870 N   0  0  0  0  0  0  0  0  0  0  0  0
   44.2480   33.8980   40.2300 C   0  0  0  0  0  0  0  0  0  0  0  0
   43.3540   34.6480   40.9080 N   0  0  0  0  0  0  0  0  0  0  0  0
   47.6820   31.8940   44.0790 C   0  0  0  0  0  0  0  0  0  0  0  0
   48.3400   31.1780   43.0640 C   0  0  0  0  0  0  0  0  0  0  0  0
   48.5480   29.9180   43.4590 N   0  0  0  0  0  0  0  0  0  0  0  0
   48.0450   29.7840   44.7020 C   0  0  0  0  0  0  0  0  0  0  0  0
   47.5320   30.9720   45.0560 N   0  0  0  0  0  0  0  0  0  0  0  0
   46.8930   31.3060   46.2940 C   0  0  0  0  0  0  0  0  0  0  0  0
   47.6990   31.4120   47.4410 C   0  0  0  0  0  0  0  0  0  0  0  0
   46.8400   31.7360   48.4690 C   0  0  0  0  0  0  0  0  0  0  0  0
   45.5930   31.8120   47.9320 C   0  0  0  0  0  0  0  0  0  0  0  0
   45.6520   31.5510   46.6330 O   0  0  0  0  0  0  0  0  0  0  0  0
   44.2930   32.0970   48.4360 N   0  0  0  0  0  0  0  0  0  0  0  0
   46.2044   33.3434   43.8014 H   0  0  0  0  0  0  0  0  0  0  0  0
   47.5488   33.7325   45.0019 H   0  0  0  0  0  0  0  0  0  0  0  0
   48.2296   35.9967   40.3456 H   0  0  0  0  0  0  0  0  0  0  0  0
   49.9985   34.0599   43.7277 H   0  0  0  0  0  0  0  0  0  0  0  0
   43.0186   36.0271   42.4805 H   0  0  0  0  0  0  0  0  0  0  0  0
   45.4366   36.0813   43.1402 H   0  0  0  0  0  0  0  0  0  0  0  0
   43.9199   33.2675   39.3905 H   0  0  0  0  0  0  0  0  0  0  0  0
   48.6391   31.5926   42.0900 H   0  0  0  0  0  0  0  0  0  0  0  0
   48.0535   28.8696   45.3134 H   0  0  0  0  0  0  0  0  0  0  0  0
   48.7875   31.2667   47.5047 H   0  0  0  0  0  0  0  0  0  0  0  0
   47.1112   31.9014   49.5221 H   0  0  0  0  0  0  0  0  0  0  0  0
   43.4819   32.0912   47.8012 H   0  0  0  0  0  0  0  0  0  0  0  0
   44.1632   32.3091   49.4355 H   0  0  0  0  0  0  0  0  0  0  0  0
  1 13  1  0
  2  6  1  0
  3  4  1  0
  3  2  2  0
  4  5  2  0
  5  6  1  0
  6  1  1  0
  7  8  2  0
  9  2  1  0
  9  8  1  0
 10  9  2  0
 11 10  1  0
 11 12  2  0
 12  7  1  0
 13 17  1  0
 14 15  1  0
 14 13  2  0
 15 16  2  0
 16 17  1  0
 17 18  1  0
 18 22  1  0
 18 19  2  0
 19 20  1  0
 21 23  1  0
 21 20  2  0
 22 21  1  0
  1 24  1  0
  1 25  1  0
  3 26  1  0
  5 27  1  0
  7 28  1  0
  8 29  1  0
 11 30  1  0
 14 31  1  0
 16 32  1  0
 19 33  1  0
 20 34  1  0
 23 35  1  0
 23 36  1  0
M  ISO  8  24   8  25   8  26  14  27  14  28  14  29  14  30  14  31  14
M  ISO  3  32  14  33  14  34  14
M  END
>  <minimizedAffinity>  (1) 
-5.25357437

>  <minimizedRMSD>  (1) 
0.424850017

$$$$
