
     RDKit          3D

 44 48  0  0  0  0  0  0  0  0999 V2000
   47.8840   31.5230   42.9370 C   0  0  0  0  0  0  0  0  0  0  0  0
   48.1520   31.3060   41.5690 C   0  0  0  0  0  0  0  0  0  0  0  0
   48.1270   30.0180   41.2660 N   0  0  0  0  0  0  0  0  0  0  0  0
   47.8450   29.3510   42.4090 C   0  0  0  0  0  0  0  0  0  0  0  0
   47.7040   30.2610   43.3950 N   0  0  0  0  0  0  0  0  0  0  0  0
   47.4040   30.0080   44.7650 C   0  0  0  0  0  0  0  0  0  0  0  0
   48.4450   29.6190   45.6050 C   0  0  0  0  0  0  0  0  0  0  0  0
   47.8850   29.4420   46.8610 C   0  0  0  0  0  0  0  0  0  0  0  0
   46.5580   29.7270   46.7260 C   0  0  0  0  0  0  0  0  0  0  0  0
   46.2740   30.0670   45.4650 O   0  0  0  0  0  0  0  0  0  0  0  0
   45.5090   29.6930   47.7640 C   0  0  0  0  0  0  0  0  0  0  0  0
   45.0980   31.1050   48.1290 C   0  0  0  0  0  0  0  0  0  0  0  0
   45.1340   31.4840   49.6070 C   0  0  0  0  0  0  0  0  0  0  0  0
   46.1820   31.9830   48.6450 C   0  0  0  0  0  0  0  0  0  0  0  0
   47.8290   32.8090   43.6320 C   0  0  0  0  0  0  0  0  0  0  0  0
   47.7230   34.8260   42.2080 C   0  0  0  0  0  0  0  0  0  0  0  0
   48.5960   35.7670   41.6540 C   0  0  0  0  0  0  0  0  0  0  0  0
   49.8390   35.3610   42.0850 N   0  0  0  0  0  0  0  0  0  0  0  0
   49.6710   34.2710   42.8290 C   0  0  0  0  0  0  0  0  0  0  0  0
   48.3860   33.9230   42.9190 N   0  0  0  0  0  0  0  0  0  0  0  0
   44.1100   35.6080   42.6880 C   0  0  0  0  0  0  0  0  0  0  0  0
   45.4920   35.5610   42.8940 C   0  0  0  0  0  0  0  0  0  0  0  0
   46.2840   34.8780   42.0000 C   0  0  0  0  0  0  0  0  0  0  0  0
   45.6600   34.2800   40.9500 N   0  0  0  0  0  0  0  0  0  0  0  0
   44.3400   34.3310   40.7630 C   0  0  0  0  0  0  0  0  0  0  0  0
   43.5590   34.9890   41.6200 N   0  0  0  0  0  0  0  0  0  0  0  0
   48.3564   32.1078   40.8442 H   0  0  0  0  0  0  0  0  0  0  0  0
   47.7479   28.2605   42.5154 H   0  0  0  0  0  0  0  0  0  0  0  0
   49.5003   29.4800   45.3274 H   0  0  0  0  0  0  0  0  0  0  0  0
   48.4054   29.1342   47.7799 H   0  0  0  0  0  0  0  0  0  0  0  0
   44.6347   29.1462   47.3811 H   0  0  0  0  0  0  0  0  0  0  0  0
   45.9014   29.1875   48.6587 H   0  0  0  0  0  0  0  0  0  0  0  0
   44.3407   31.1740   47.3342 H   0  0  0  0  0  0  0  0  0  0  0  0
   44.3859   32.1772   50.0191 H   0  0  0  0  0  0  0  0  0  0  0  0
   45.1406   30.9331   50.5591 H   0  0  0  0  0  0  0  0  0  0  0  0
   47.2109   31.5997   48.7108 H   0  0  0  0  0  0  0  0  0  0  0  0
   46.5645   32.9771   48.3702 H   0  0  0  0  0  0  0  0  0  0  0  0
   46.7733   33.0353   43.8422 H   0  0  0  0  0  0  0  0  0  0  0  0
   48.4464   32.6901   44.5346 H   0  0  0  0  0  0  0  0  0  0  0  0
   48.3474   36.6313   41.0206 H   0  0  0  0  0  0  0  0  0  0  0  0
   50.4930   33.7224   43.3121 H   0  0  0  0  0  0  0  0  0  0  0  0
   43.4685   36.1508   43.3978 H   0  0  0  0  0  0  0  0  0  0  0  0
   45.9417   36.0651   43.7622 H   0  0  0  0  0  0  0  0  0  0  0  0
   43.8923   33.8259   39.8944 H   0  0  0  0  0  0  0  0  0  0  0  0
  1  5  1  0
  1 15  1  0
  2  1  2  0
  3  2  1  0
  3  4  2  0
  4  5  1  0
  5  6  1  0
  6 10  1  0
  6  7  2  0
  7  8  1  0
  9  8  2  0
  9 11  1  0
 10  9  1  0
 11 12  1  0
 12 14  1  0
 12 13  1  0
 14 13  1  0
 16 20  1  0
 17 18  1  0
 17 16  2  0
 18 19  2  0
 19 20  1  0
 20 15  1  0
 21 22  2  0
 23 16  1  0
 23 22  1  0
 24 23  2  0
 25 24  1  0
 25 26  2  0
 26 21  1  0
  2 27  1  0
  4 28  1  0
  7 29  1  0
  8 30  1  0
 11 31  1  0
 11 32  1  0
 12 33  1  0
 13 34  1  0
 13 35  1  0
 14 36  1  0
 14 37  1  0
 15 38  1  0
 15 39  1  0
 17 40  1  0
 19 41  1  0
 21 42  1  0
 22 43  1  0
 25 44  1  0
M  ISO  8  27  14  28  14  29  14  30  14  31   8  32   8  33  13  34  13
M  ISO  8  35  13  36  13  37  13  38   8  39   8  40  14  41  14  42  14
M  ISO  2  43  14  44  14
M  END
>  <minimizedAffinity>  (1) 
-5.09321737

>  <minimizedRMSD>  (1) 
1.37666821

$$$$
