
     RDKit          3D

 44 48  0  0  0  0  0  0  0  0999 V2000
   47.9430   31.5120   42.9470 C   0  0  0  0  0  0  0  0  0  0  0  0
   48.2890   31.2930   41.5990 C   0  0  0  0  0  0  0  0  0  0  0  0
   48.3010   29.9950   41.3130 N   0  0  0  0  0  0  0  0  0  0  0  0
   47.9700   29.3370   42.4470 C   0  0  0  0  0  0  0  0  0  0  0  0
   47.7590   30.2650   43.4160 N   0  0  0  0  0  0  0  0  0  0  0  0
   47.3920   30.0220   44.7630 C   0  0  0  0  0  0  0  0  0  0  0  0
   48.3980   29.7100   45.6760 C   0  0  0  0  0  0  0  0  0  0  0  0
   47.7600   29.5250   46.8960 C   0  0  0  0  0  0  0  0  0  0  0  0
   46.4290   29.7300   46.6730 C   0  0  0  0  0  0  0  0  0  0  0  0
   46.2350   30.0240   45.3920 O   0  0  0  0  0  0  0  0  0  0  0  0
   45.3180   29.6530   47.6470 C   0  0  0  0  0  0  0  0  0  0  0  0
   44.8820   28.2540   47.8980 C   0  0  0  0  0  0  0  0  0  0  0  0
   44.4090   27.4920   46.8530 C   0  0  0  0  0  0  0  0  0  0  0  0
   44.0830   26.2740   47.3420 N   0  0  0  0  0  0  0  0  0  0  0  0
   44.3440   26.2580   48.6760 C   0  0  0  0  0  0  0  0  0  0  0  0
   44.8320   27.4790   48.9980 N   0  0  0  0  0  0  0  0  0  0  0  0
   47.8310   32.8150   43.6130 C   0  0  0  0  0  0  0  0  0  0  0  0
   47.7230   34.8290   42.1900 C   0  0  0  0  0  0  0  0  0  0  0  0
   48.6110   35.7750   41.6460 C   0  0  0  0  0  0  0  0  0  0  0  0
   49.8440   35.3750   42.0890 N   0  0  0  0  0  0  0  0  0  0  0  0
   49.6690   34.2850   42.8290 C   0  0  0  0  0  0  0  0  0  0  0  0
   48.3910   33.9320   42.9060 N   0  0  0  0  0  0  0  0  0  0  0  0
   44.1040   35.6050   42.6340 C   0  0  0  0  0  0  0  0  0  0  0  0
   45.4860   35.5620   42.8550 C   0  0  0  0  0  0  0  0  0  0  0  0
   46.2790   34.8770   41.9670 C   0  0  0  0  0  0  0  0  0  0  0  0
   45.6790   34.2740   40.9170 N   0  0  0  0  0  0  0  0  0  0  0  0
   44.3500   34.3220   40.7190 C   0  0  0  0  0  0  0  0  0  0  0  0
   43.5670   34.9900   41.5800 N   0  0  0  0  0  0  0  0  0  0  0  0
   48.5190   32.0913   40.8780 H   0  0  0  0  0  0  0  0  0  0  0  0
   47.8866   28.2464   42.5637 H   0  0  0  0  0  0  0  0  0  0  0  0
   49.4758   29.6273   45.4723 H   0  0  0  0  0  0  0  0  0  0  0  0
   48.2342   29.2645   47.8537 H   0  0  0  0  0  0  0  0  0  0  0  0
   45.6500   30.0958   48.5977 H   0  0  0  0  0  0  0  0  0  0  0  0
   44.4626   30.2009   47.2249 H   0  0  0  0  0  0  0  0  0  0  0  0
   44.3133   27.8164   45.8063 H   0  0  0  0  0  0  0  0  0  0  0  0
   44.1883   25.4134   49.3633 H   0  0  0  0  0  0  0  0  0  0  0  0
   45.1215   27.7712   49.9423 H   0  0  0  0  0  0  0  0  0  0  0  0
   46.7624   33.0200   43.7744 H   0  0  0  0  0  0  0  0  0  0  0  0
   48.4166   32.7262   44.5399 H   0  0  0  0  0  0  0  0  0  0  0  0
   48.3700   36.6393   41.0097 H   0  0  0  0  0  0  0  0  0  0  0  0
   50.4875   33.7387   43.3206 H   0  0  0  0  0  0  0  0  0  0  0  0
   43.4561   36.1507   43.3357 H   0  0  0  0  0  0  0  0  0  0  0  0
   45.9292   36.0683   43.7252 H   0  0  0  0  0  0  0  0  0  0  0  0
   43.9045   33.8137   39.8512 H   0  0  0  0  0  0  0  0  0  0  0  0
  1  5  1  0
  1 17  1  0
  2  1  2  0
  3  2  1  0
  3  4  2  0
  4  5  1  0
  5  6  1  0
  6 10  1  0
  6  7  2  0
  7  8  1  0
  9  8  2  0
  9 11  1  0
 10  9  1  0
 11 12  1  0
 12 16  1  0
 13 14  1  0
 13 12  2  0
 14 15  2  0
 15 16  1  0
 18 22  1  0
 19 20  1  0
 19 18  2  0
 20 21  2  0
 21 22  1  0
 22 17  1  0
 23 24  2  0
 25 18  1  0
 25 24  1  0
 26 25  2  0
 27 26  1  0
 27 28  2  0
 28 23  1  0
  2 29  1  0
  4 30  1  0
  7 31  1  0
  8 32  1  0
 11 33  1  0
 11 34  1  0
 13 35  1  0
 15 36  1  0
 16 37  1  0
 17 38  1  0
 17 39  1  0
 19 40  1  0
 21 41  1  0
 23 42  1  0
 24 43  1  0
 27 44  1  0
M  ISO  8  29  14  30  14  31  14  32  14  33   8  34   8  35  14  36  14
M  ISO  8  37   9  38   8  39   8  40  14  41  14  42  14  43  14  44  14
M  END
>  <minimizedAffinity>  (1) 
-4.9703846

>  <minimizedRMSD>  (1) 
1.73817074

$$$$
