
     RDKit          3D

 53 57  0  0  0  0  0  0  0  0999 V2000
   47.9270   31.5180   42.8750 C   0  0  0  0  0  0  0  0  0  0  0  0
   48.0970   31.3340   41.4960 C   0  0  0  0  0  0  0  0  0  0  0  0
   48.1330   30.0300   41.2010 N   0  0  0  0  0  0  0  0  0  0  0  0
   47.9910   29.3520   42.3580 C   0  0  0  0  0  0  0  0  0  0  0  0
   47.8690   30.2670   43.3530 N   0  0  0  0  0  0  0  0  0  0  0  0
   47.7000   29.9930   44.7310 C   0  0  0  0  0  0  0  0  0  0  0  0
   48.6710   29.2520   45.3980 C   0  0  0  0  0  0  0  0  0  0  0  0
   48.2520   29.1390   46.7150 C   0  0  0  0  0  0  0  0  0  0  0  0
   47.0620   29.8080   46.7880 C   0  0  0  0  0  0  0  0  0  0  0  0
   46.7550   30.3050   45.6060 O   0  0  0  0  0  0  0  0  0  0  0  0
   46.2140   29.9770   47.9850 C   0  0  0  0  0  0  0  0  0  0  0  0
   44.9040   29.2430   47.7930 C   0  0  0  0  0  0  0  0  0  0  0  0
   44.9530   27.8460   48.3600 C   0  0  0  0  0  0  0  0  0  0  0  0
   45.6720   26.8890   47.4200 C   0  0  0  0  0  0  0  0  0  0  0  0
   44.9000   26.6990   46.1280 C   0  0  0  0  0  0  0  0  0  0  0  0
   43.8800   27.8220   45.9950 C   0  0  0  0  0  0  0  0  0  0  0  0
   44.5920   29.1270   46.3160 C   0  0  0  0  0  0  0  0  0  0  0  0
   47.8400   32.8060   43.5860 C   0  0  0  0  0  0  0  0  0  0  0  0
   47.7460   34.8410   42.1840 C   0  0  0  0  0  0  0  0  0  0  0  0
   48.6160   35.7890   41.6470 C   0  0  0  0  0  0  0  0  0  0  0  0
   49.8570   35.3810   42.0810 N   0  0  0  0  0  0  0  0  0  0  0  0
   49.6850   34.2820   42.8100 C   0  0  0  0  0  0  0  0  0  0  0  0
   48.3960   33.9290   42.8890 N   0  0  0  0  0  0  0  0  0  0  0  0
   44.1150   35.6000   42.6360 C   0  0  0  0  0  0  0  0  0  0  0  0
   45.4940   35.5610   42.8500 C   0  0  0  0  0  0  0  0  0  0  0  0
   46.2890   34.8900   41.9690 C   0  0  0  0  0  0  0  0  0  0  0  0
   45.6820   34.2830   40.9080 N   0  0  0  0  0  0  0  0  0  0  0  0
   44.3600   34.3240   40.7080 C   0  0  0  0  0  0  0  0  0  0  0  0
   43.5690   34.9890   41.5820 N   0  0  0  0  0  0  0  0  0  0  0  0
   48.1879   32.1469   40.7605 H   0  0  0  0  0  0  0  0  0  0  0  0
   47.9767   28.2582   42.4741 H   0  0  0  0  0  0  0  0  0  0  0  0
   49.5925   28.8364   44.9644 H   0  0  0  0  0  0  0  0  0  0  0  0
   48.7707   28.6179   47.5332 H   0  0  0  0  0  0  0  0  0  0  0  0
   46.7360   29.5688   48.8630 H   0  0  0  0  0  0  0  0  0  0  0  0
   46.0116   31.0472   48.1386 H   0  0  0  0  0  0  0  0  0  0  0  0
   44.1315   29.8213   48.3210 H   0  0  0  0  0  0  0  0  0  0  0  0
   45.4849   27.8691   49.3226 H   0  0  0  0  0  0  0  0  0  0  0  0
   43.9206   27.4902   48.4924 H   0  0  0  0  0  0  0  0  0  0  0  0
   46.6666   27.2965   47.1862 H   0  0  0  0  0  0  0  0  0  0  0  0
   45.7582   25.9125   47.9190 H   0  0  0  0  0  0  0  0  0  0  0  0
   45.5942   26.7274   45.2752 H   0  0  0  0  0  0  0  0  0  0  0  0
   44.3855   25.7268   46.1400 H   0  0  0  0  0  0  0  0  0  0  0  0
   43.4860   27.8518   44.9684 H   0  0  0  0  0  0  0  0  0  0  0  0
   43.0360   27.6621   46.6821 H   0  0  0  0  0  0  0  0  0  0  0  0
   45.5330   29.1693   45.7480 H   0  0  0  0  0  0  0  0  0  0  0  0
   43.9278   29.9587   46.0383 H   0  0  0  0  0  0  0  0  0  0  0  0
   46.7777   33.0172   43.7781 H   0  0  0  0  0  0  0  0  0  0  0  0
   48.4385   32.6893   44.5015 H   0  0  0  0  0  0  0  0  0  0  0  0
   48.3684   36.6599   41.0222 H   0  0  0  0  0  0  0  0  0  0  0  0
   50.5049   33.7285   43.2911 H   0  0  0  0  0  0  0  0  0  0  0  0
   43.4704   36.1408   43.3445 H   0  0  0  0  0  0  0  0  0  0  0  0
   45.9350   36.0670   43.7215 H   0  0  0  0  0  0  0  0  0  0  0  0
   43.9175   33.8192   39.8366 H   0  0  0  0  0  0  0  0  0  0  0  0
  1  5  1  0
  1 18  1  0
  2  1  2  0
  3  2  1  0
  3  4  2  0
  4  5  1  0
  5  6  1  0
  6  7  2  0
  6 10  1  0
  7  8  1  0
  8  9  2  0
  9 11  1  0
 10  9  1  0
 12 11  1  0
 12 13  1  0
 14 13  1  0
 15 14  1  0
 16 15  1  0
 16 17  1  0
 17 12  1  0
 19 23  1  0
 20 21  1  0
 20 19  2  0
 21 22  2  0
 22 23  1  0
 23 18  1  0
 24 25  2  0
 26 19  1  0
 26 25  1  0
 27 26  2  0
 28 27  1  0
 28 29  2  0
 29 24  1  0
  2 30  1  0
  4 31  1  0
  7 32  1  0
  8 33  1  0
 11 34  1  0
 11 35  1  0
 12 36  1  0
 13 37  1  0
 13 38  1  0
 14 39  1  0
 14 40  1  0
 15 41  1  0
 15 42  1  0
 16 43  1  0
 16 44  1  0
 17 45  1  0
 17 46  1  0
 18 47  1  0
 18 48  1  0
 20 49  1  0
 22 50  1  0
 24 51  1  0
 25 52  1  0
 28 53  1  0
M  ISO  8  30  14  31  14  32  14  33  14  34   8  35   8  36  13  37  13
M  ISO  8  38  13  39  13  40  13  41  13  42  13  43  13  44  13  45  13
M  ISO  8  46  13  47   8  48   8  49  14  50  14  51  14  52  14  53  14
M  END
>  <minimizedAffinity>  (1) 
-4.90238237

>  <minimizedRMSD>  (1) 
1.49243426

$$$$
