
     RDKit          3D

 50 54  0  0  0  0  0  0  0  0999 V2000
   48.1830   31.4350   42.8650 C   0  0  0  0  0  0  0  0  0  0  0  0
   48.5260   31.2260   41.5240 C   0  0  0  0  0  0  0  0  0  0  0  0
   48.7470   29.9370   41.2860 N   0  0  0  0  0  0  0  0  0  0  0  0
   48.5560   29.2840   42.4520 C   0  0  0  0  0  0  0  0  0  0  0  0
   48.2190   30.1900   43.3880 N   0  0  0  0  0  0  0  0  0  0  0  0
   47.9280   29.9550   44.7530 C   0  0  0  0  0  0  0  0  0  0  0  0
   48.9660   29.4740   45.5750 C   0  0  0  0  0  0  0  0  0  0  0  0
   48.4270   29.3290   46.8440 C   0  0  0  0  0  0  0  0  0  0  0  0
   47.1320   29.7140   46.7480 C   0  0  0  0  0  0  0  0  0  0  0  0
   46.8530   30.0820   45.4990 O   0  0  0  0  0  0  0  0  0  0  0  0
   46.1000   29.7580   47.8010 C   0  0  0  0  0  0  0  0  0  0  0  0
   45.0900   28.6490   47.7020 C   0  0  0  0  0  0  0  0  0  0  0  0
   45.6900   27.2930   47.5320 C   0  0  0  0  0  0  0  0  0  0  0  0
   45.0560   26.6770   46.2780 C   0  0  0  0  0  0  0  0  0  0  0  0
   43.7280   27.4130   46.2400 C   0  0  0  0  0  0  0  0  0  0  0  0
   44.2220   28.8460   46.4530 C   0  0  0  0  0  0  0  0  0  0  0  0
   47.8700   32.7210   43.4930 C   0  0  0  0  0  0  0  0  0  0  0  0
   47.7630   34.8080   42.1770 C   0  0  0  0  0  0  0  0  0  0  0  0
   48.6310   35.7890   41.6850 C   0  0  0  0  0  0  0  0  0  0  0  0
   49.8660   35.3900   42.1020 N   0  0  0  0  0  0  0  0  0  0  0  0
   49.7190   34.2560   42.7900 C   0  0  0  0  0  0  0  0  0  0  0  0
   48.4420   33.8830   42.8470 N   0  0  0  0  0  0  0  0  0  0  0  0
   44.1360   35.5540   42.6340 C   0  0  0  0  0  0  0  0  0  0  0  0
   45.5210   35.5150   42.8440 C   0  0  0  0  0  0  0  0  0  0  0  0
   46.3220   34.8470   41.9560 C   0  0  0  0  0  0  0  0  0  0  0  0
   45.7140   34.2450   40.8960 N   0  0  0  0  0  0  0  0  0  0  0  0
   44.3910   34.2840   40.6980 C   0  0  0  0  0  0  0  0  0  0  0  0
   43.6000   34.9380   41.5650 N   0  0  0  0  0  0  0  0  0  0  0  0
   48.6024   32.0218   40.7684 H   0  0  0  0  0  0  0  0  0  0  0  0
   48.6581   28.2001   42.6095 H   0  0  0  0  0  0  0  0  0  0  0  0
   50.0002   29.2564   45.2701 H   0  0  0  0  0  0  0  0  0  0  0  0
   48.9460   28.9733   47.7463 H   0  0  0  0  0  0  0  0  0  0  0  0
   46.5983   29.6880   48.7791 H   0  0  0  0  0  0  0  0  0  0  0  0
   45.5528   30.7041   47.6764 H   0  0  0  0  0  0  0  0  0  0  0  0
   44.5323   28.6955   48.6490 H   0  0  0  0  0  0  0  0  0  0  0  0
   46.7793   27.3752   47.4033 H   0  0  0  0  0  0  0  0  0  0  0  0
   45.5013   26.6662   48.4160 H   0  0  0  0  0  0  0  0  0  0  0  0
   45.6570   26.8796   45.3793 H   0  0  0  0  0  0  0  0  0  0  0  0
   44.9687   25.5808   46.3033 H   0  0  0  0  0  0  0  0  0  0  0  0
   43.2214   27.2942   45.2709 H   0  0  0  0  0  0  0  0  0  0  0  0
   42.9804   27.0643   46.9676 H   0  0  0  0  0  0  0  0  0  0  0  0
   44.8136   29.2047   45.5978 H   0  0  0  0  0  0  0  0  0  0  0  0
   43.4264   29.5984   46.5572 H   0  0  0  0  0  0  0  0  0  0  0  0
   46.7764   32.8392   43.4975 H   0  0  0  0  0  0  0  0  0  0  0  0
   48.3148   32.6835   44.4984 H   0  0  0  0  0  0  0  0  0  0  0  0
   48.3746   36.6811   41.0948 H   0  0  0  0  0  0  0  0  0  0  0  0
   50.5480   33.6997   43.2517 H   0  0  0  0  0  0  0  0  0  0  0  0
   43.4871   36.0884   43.3434 H   0  0  0  0  0  0  0  0  0  0  0  0
   45.9624   36.0180   43.7170 H   0  0  0  0  0  0  0  0  0  0  0  0
   43.9509   33.7802   39.8248 H   0  0  0  0  0  0  0  0  0  0  0  0
  1  5  1  0
  1 17  1  0
  2  1  2  0
  3  2  1  0
  3  4  2  0
  4  5  1  0
  5  6  1  0
  6 10  1  0
  6  7  2  0
  7  8  1  0
  9  8  2  0
  9 11  1  0
 10  9  1  0
 12 11  1  0
 13 12  1  0
 14 13  1  0
 15 14  1  0
 15 16  1  0
 16 12  1  0
 18 22  1  0
 19 20  1  0
 19 18  2  0
 20 21  2  0
 21 22  1  0
 22 17  1  0
 23 24  2  0
 25 18  1  0
 25 24  1  0
 26 25  2  0
 27 26  1  0
 27 28  2  0
 28 23  1  0
  2 29  1  0
  4 30  1  0
  7 31  1  0
  8 32  1  0
 11 33  1  0
 11 34  1  0
 12 35  1  0
 13 36  1  0
 13 37  1  0
 14 38  1  0
 14 39  1  0
 15 40  1  0
 15 41  1  0
 16 42  1  0
 16 43  1  0
 17 44  1  0
 17 45  1  0
 19 46  1  0
 21 47  1  0
 23 48  1  0
 24 49  1  0
 27 50  1  0
M  ISO  8  29  14  30  14  31  14  32  14  33   8  34   8  35  13  36  13
M  ISO  8  37  13  38  13  39  13  40  13  41  13  42  13  43  13  44   8
M  ISO  6  45   8  46  14  47  14  48  14  49  14  50  14
M  END
>  <minimizedAffinity>  (1) 
-4.89118624

>  <minimizedRMSD>  (1) 
1.7408824

$$$$
