
     RDKit          3D

 38 41  0  0  0  0  0  0  0  0999 V2000
   47.4780   33.0810   43.9980 C   0  0  0  0  0  0  0  0  0  0  0  0
   47.5400   34.7780   42.2040 C   0  0  0  0  0  0  0  0  0  0  0  0
   48.4820   35.5360   41.5080 C   0  0  0  0  0  0  0  0  0  0  0  0
   49.6880   35.1560   42.0490 N   0  0  0  0  0  0  0  0  0  0  0  0
   49.4370   34.2450   42.9860 C   0  0  0  0  0  0  0  0  0  0  0  0
   48.1300   33.9970   43.0990 N   0  0  0  0  0  0  0  0  0  0  0  0
   43.9470   35.6880   42.5270 C   0  0  0  0  0  0  0  0  0  0  0  0
   45.3120   35.6110   42.7910 C   0  0  0  0  0  0  0  0  0  0  0  0
   46.1130   34.8690   41.9450 C   0  0  0  0  0  0  0  0  0  0  0  0
   45.4990   34.2500   40.8880 N   0  0  0  0  0  0  0  0  0  0  0  0
   44.1820   34.3410   40.6570 C   0  0  0  0  0  0  0  0  0  0  0  0
   43.3990   35.0530   41.4660 N   0  0  0  0  0  0  0  0  0  0  0  0
   47.4380   31.6780   43.5720 C   0  0  0  0  0  0  0  0  0  0  0  0
   47.5010   31.2100   42.2530 C   0  0  0  0  0  0  0  0  0  0  0  0
   47.4390   29.8880   42.2160 N   0  0  0  0  0  0  0  0  0  0  0  0
   47.3350   29.4560   43.4920 C   0  0  0  0  0  0  0  0  0  0  0  0
   47.3350   30.5480   44.2960 N   0  0  0  0  0  0  0  0  0  0  0  0
   47.2440   30.5730   45.7140 C   0  0  0  0  0  0  0  0  0  0  0  0
   48.2580   29.9490   46.4520 C   0  0  0  0  0  0  0  0  0  0  0  0
   47.9230   30.1220   47.7800 C   0  0  0  0  0  0  0  0  0  0  0  0
   46.7630   30.8180   47.7890 C   0  0  0  0  0  0  0  0  0  0  0  0
   46.3570   31.0890   46.5520 O   0  0  0  0  0  0  0  0  0  0  0  0
   45.9780   31.2650   48.9700 C   0  0  0  0  0  0  0  0  0  0  0  0
   45.3170   30.1420   49.5070 O   0  0  0  0  0  0  0  0  0  0  0  0
   48.0048   33.1245   44.9627 H   0  0  0  0  0  0  0  0  0  0  0  0
   46.4282   33.4067   44.0420 H   0  0  0  0  0  0  0  0  0  0  0  0
   48.3014   36.2701   40.7089 H   0  0  0  0  0  0  0  0  0  0  0  0
   50.2124   33.7556   43.5937 H   0  0  0  0  0  0  0  0  0  0  0  0
   43.3013   36.2772   43.1948 H   0  0  0  0  0  0  0  0  0  0  0  0
   45.7447   36.1318   43.6579 H   0  0  0  0  0  0  0  0  0  0  0  0
   43.7435   33.8229   39.7913 H   0  0  0  0  0  0  0  0  0  0  0  0
   47.5901   31.8549   41.3663 H   0  0  0  0  0  0  0  0  0  0  0  0
   47.2633   28.4083   43.8193 H   0  0  0  0  0  0  0  0  0  0  0  0
   49.1411   29.4275   46.0544 H   0  0  0  0  0  0  0  0  0  0  0  0
   48.4862   29.7655   48.6551 H   0  0  0  0  0  0  0  0  0  0  0  0
   46.6524   31.6967   49.7243 H   0  0  0  0  0  0  0  0  0  0  0  0
   45.2471   32.0318   48.6737 H   0  0  0  0  0  0  0  0  0  0  0  0
   45.3426   30.1855   50.4957 H   0  0  0  0  0  0  0  0  0  0  0  0
  2  6  1  0
  3  4  1  0
  3  2  2  0
  4  5  2  0
  5  6  1  0
  6  1  1  0
  7  8  2  0
  9  2  1  0
  9  8  1  0
 10  9  2  0
 11 10  1  0
 11 12  2  0
 12  7  1  0
 13  1  1  0
 13 17  1  0
 14 13  2  0
 15 14  1  0
 15 16  2  0
 16 17  1  0
 17 18  1  0
 18 19  2  0
 18 22  1  0
 19 20  1  0
 20 21  2  0
 21 23  1  0
 22 21  1  0
 23 24  1  0
  1 25  1  0
  1 26  1  0
  3 27  1  0
  5 28  1  0
  7 29  1  0
  8 30  1  0
 11 31  1  0
 14 32  1  0
 16 33  1  0
 19 34  1  0
 20 35  1  0
 23 36  1  0
 23 37  1  0
 24 38  1  0
M  ISO  8  25   8  26   8  27  14  28  14  29  14  30  14  31  14  32  14
M  ISO  6  33  14  34  14  35  14  36   8  37   8  38   3
M  END
>  <minimizedAffinity>  (1) 
-4.85945368

>  <minimizedRMSD>  (1) 
0.391045749

$$$$
