
     RDKit          3D

 44 48  0  0  0  0  0  0  0  0999 V2000
   47.9230   31.4360   42.8700 C   0  0  0  0  0  0  0  0  0  0  0  0
   48.3150   31.2450   41.5400 C   0  0  0  0  0  0  0  0  0  0  0  0
   48.3250   29.9520   41.2280 N   0  0  0  0  0  0  0  0  0  0  0  0
   47.9450   29.2850   42.3360 C   0  0  0  0  0  0  0  0  0  0  0  0
   47.7050   30.1930   43.3180 N   0  0  0  0  0  0  0  0  0  0  0  0
   47.2870   29.9270   44.6370 C   0  0  0  0  0  0  0  0  0  0  0  0
   48.2600   29.7080   45.6160 C   0  0  0  0  0  0  0  0  0  0  0  0
   47.5840   29.4740   46.7990 C   0  0  0  0  0  0  0  0  0  0  0  0
   46.2550   29.5580   46.4980 C   0  0  0  0  0  0  0  0  0  0  0  0
   46.0930   29.8280   45.2100 O   0  0  0  0  0  0  0  0  0  0  0  0
   45.1070   29.3870   47.4170 C   0  0  0  0  0  0  0  0  0  0  0  0
   44.6070   28.0060   47.4720 C   0  0  0  0  0  0  0  0  0  0  0  0
   44.7160   27.0680   48.4380 C   0  0  0  0  0  0  0  0  0  0  0  0
   44.1480   25.8310   48.2410 C   0  0  0  0  0  0  0  0  0  0  0  0
   43.4850   25.6190   47.0360 C   0  0  0  0  0  0  0  0  0  0  0  0
   43.6600   27.2080   46.1410 S   0  0  0  0  0  0  0  0  0  0  0  0
   47.7950   32.7300   43.5670 C   0  0  0  0  0  0  0  0  0  0  0  0
   47.7310   34.7900   42.2110 C   0  0  0  0  0  0  0  0  0  0  0  0
   48.6170   35.7370   41.6990 C   0  0  0  0  0  0  0  0  0  0  0  0
   49.8520   35.3100   42.1280 N   0  0  0  0  0  0  0  0  0  0  0  0
   49.6650   34.1980   42.8330 C   0  0  0  0  0  0  0  0  0  0  0  0
   48.3820   33.8600   42.8990 N   0  0  0  0  0  0  0  0  0  0  0  0
   44.1120   35.6000   42.6430 C   0  0  0  0  0  0  0  0  0  0  0  0
   45.4940   35.5450   42.8750 C   0  0  0  0  0  0  0  0  0  0  0  0
   46.2800   34.8610   41.9880 C   0  0  0  0  0  0  0  0  0  0  0  0
   45.6680   34.2750   40.9300 N   0  0  0  0  0  0  0  0  0  0  0  0
   44.3460   34.3300   40.7110 C   0  0  0  0  0  0  0  0  0  0  0  0
   43.5650   35.0010   41.5800 N   0  0  0  0  0  0  0  0  0  0  0  0
   48.5795   32.0559   40.8455 H   0  0  0  0  0  0  0  0  0  0  0  0
   47.8462   28.1934   42.4292 H   0  0  0  0  0  0  0  0  0  0  0  0
   49.3506   29.7196   45.4732 H   0  0  0  0  0  0  0  0  0  0  0  0
   48.0272   29.2629   47.7834 H   0  0  0  0  0  0  0  0  0  0  0  0
   45.4217   29.6849   48.4280 H   0  0  0  0  0  0  0  0  0  0  0  0
   44.2882   30.0150   47.0359 H   0  0  0  0  0  0  0  0  0  0  0  0
   45.2530   27.2911   49.3717 H   0  0  0  0  0  0  0  0  0  0  0  0
   44.2150   25.0419   49.0044 H   0  0  0  0  0  0  0  0  0  0  0  0
   42.9729   24.7060   46.6981 H   0  0  0  0  0  0  0  0  0  0  0  0
   46.7230   32.9366   43.7015 H   0  0  0  0  0  0  0  0  0  0  0  0
   48.3501   32.6182   44.5101 H   0  0  0  0  0  0  0  0  0  0  0  0
   48.3820   36.6230   41.0910 H   0  0  0  0  0  0  0  0  0  0  0  0
   50.4768   33.6257   43.3057 H   0  0  0  0  0  0  0  0  0  0  0  0
   43.4669   36.1453   43.3476 H   0  0  0  0  0  0  0  0  0  0  0  0
   45.9367   36.0411   43.7513 H   0  0  0  0  0  0  0  0  0  0  0  0
   43.9052   33.8340   39.8337 H   0  0  0  0  0  0  0  0  0  0  0  0
  1  5  1  0
  1 17  1  0
  2  1  2  0
  3  2  1  0
  3  4  2  0
  4  5  1  0
  5  6  1  0
  6 10  1  0
  6  7  2  0
  7  8  1  0
  9  8  2  0
  9 11  1  0
 10  9  1  0
 11 12  1  0
 12 13  2  0
 14 13  1  0
 15 14  2  0
 16 15  1  0
 16 12  1  0
 18 22  1  0
 19 20  1  0
 19 18  2  0
 20 21  2  0
 21 22  1  0
 22 17  1  0
 23 24  2  0
 25 18  1  0
 25 24  1  0
 26 25  2  0
 27 26  1  0
 27 28  2  0
 28 23  1  0
  2 29  1  0
  4 30  1  0
  7 31  1  0
  8 32  1  0
 11 33  1  0
 11 34  1  0
 13 35  1  0
 14 36  1  0
 15 37  1  0
 17 38  1  0
 17 39  1  0
 19 40  1  0
 21 41  1  0
 23 42  1  0
 24 43  1  0
 27 44  1  0
M  ISO  8  29  14  30  14  31  14  32  14  33   8  34   8  35  14  36  14
M  ISO  8  37  14  38   8  39   8  40  14  41  14  42  14  43  14  44  14
M  END
>  <minimizedAffinity>  (1) 
-4.84784937

>  <minimizedRMSD>  (1) 
2.03047872

$$$$
