
     RDKit          3D

 25 26  0  0  0  0  0  0  0  0999 V2000
   44.4840   35.6380   45.1520 C   0  0  0  0  0  0  0  0  0  0  0  0
   45.0930   35.5590   43.8760 C   0  0  0  0  0  0  0  0  0  0  0  0
   45.9880   34.5390   43.6000 C   0  0  0  0  0  0  0  0  0  0  0  0
   46.2440   33.6410   44.5960 N   0  0  0  0  0  0  0  0  0  0  0  0
   45.6590   33.7260   45.8060 C   0  0  0  0  0  0  0  0  0  0  0  0
   44.7870   34.7120   46.0910 N   0  0  0  0  0  0  0  0  0  0  0  0
   45.9900   32.7410   46.7800 N   0  0  0  0  0  0  0  0  0  0  0  0
   45.1390   32.6310   47.9360 C   0  0  0  0  0  0  0  0  0  0  0  0
   45.3380   31.4000   48.7450 C   0  0  0  0  0  0  0  0  0  0  0  0
   46.4400   30.6460   48.4240 O   0  0  0  0  0  0  0  0  0  0  0  0
   47.5170   31.3770   47.9580 C   0  0  0  0  0  0  0  0  0  0  0  0
   47.1560   31.8930   46.5800 C   0  0  0  0  0  0  0  0  0  0  0  0
   44.7480   36.5360   42.9450 N   0  0  0  0  0  0  0  0  0  0  0  0
   43.7711   36.4448   45.3778 H   0  0  0  0  0  0  0  0  0  0  0  0
   46.4738   34.4555   42.6166 H   0  0  0  0  0  0  0  0  0  0  0  0
   45.3284   33.4998   48.5836 H   0  0  0  0  0  0  0  0  0  0  0  0
   44.1074   32.5873   47.5565 H   0  0  0  0  0  0  0  0  0  0  0  0
   45.4297   31.7001   49.7993 H   0  0  0  0  0  0  0  0  0  0  0  0
   44.4674   30.7610   48.5361 H   0  0  0  0  0  0  0  0  0  0  0  0
   47.7186   32.2210   48.6340 H   0  0  0  0  0  0  0  0  0  0  0  0
   48.4197   30.7501   47.9124 H   0  0  0  0  0  0  0  0  0  0  0  0
   46.9136   31.0573   45.9071 H   0  0  0  0  0  0  0  0  0  0  0  0
   47.9885   32.4434   46.1174 H   0  0  0  0  0  0  0  0  0  0  0  0
   45.1650   36.5202   42.0033 H   0  0  0  0  0  0  0  0  0  0  0  0
   44.0759   37.2742   43.1983 H   0  0  0  0  0  0  0  0  0  0  0  0
  1  6  2  0
  2  1  1  0
  3  2  2  0
  3  4  1  0
  4  5  2  0
  5  6  1  0
  5  7  1  0
  7  8  1  0
  8  9  1  0
 10  9  1  0
 11 10  1  0
 12  7  1  0
 12 11  1  0
 13  2  1  0
  1 14  1  0
  3 15  1  0
  8 16  1  0
  8 17  1  0
  9 18  1  0
  9 19  1  0
 11 20  1  0
 11 21  1  0
 12 22  1  0
 12 23  1  0
 13 24  1  0
 13 25  1  0
M  ISO  8  14  14  15  14  16  13  17  13  18  13  19  13  20  13  21  13
M  ISO  2  22  13  23  13
M  END
>  <minimizedAffinity>  (1) 
-4.7331171

>  <minimizedRMSD>  (1) 
0.680585921

$$$$
