
     RDKit          3D

 19 20  0  0  0  0  0  0  0  0999 V2000
   44.4680   35.6610   45.1490 C   0  0  0  0  0  0  0  0  0  0  0  0
   45.1230   35.5370   43.9040 C   0  0  0  0  0  0  0  0  0  0  0  0
   46.0190   34.4930   43.6660 C   0  0  0  0  0  0  0  0  0  0  0  0
   46.2150   33.6150   44.7010 N   0  0  0  0  0  0  0  0  0  0  0  0
   45.5850   33.7530   45.8700 C   0  0  0  0  0  0  0  0  0  0  0  0
   44.7310   34.7430   46.1050 N   0  0  0  0  0  0  0  0  0  0  0  0
   45.9140   32.7100   46.8830 C   0  0  0  0  0  0  0  0  0  0  0  0
   45.2430   32.5840   48.1210 C   0  0  0  0  0  0  0  0  0  0  0  0
   45.6490   31.5920   48.9410 C   0  0  0  0  0  0  0  0  0  0  0  0
   46.7130   30.7510   48.5030 C   0  0  0  0  0  0  0  0  0  0  0  0
   47.1280   31.4440   46.8350 S   0  0  0  0  0  0  0  0  0  0  0  0
   44.8390   36.5030   42.9190 N   0  0  0  0  0  0  0  0  0  0  0  0
   43.7620   36.4836   45.3357 H   0  0  0  0  0  0  0  0  0  0  0  0
   46.5383   34.3811   42.7028 H   0  0  0  0  0  0  0  0  0  0  0  0
   44.4261   33.2644   48.4034 H   0  0  0  0  0  0  0  0  0  0  0  0
   45.1721   31.4369   49.9200 H   0  0  0  0  0  0  0  0  0  0  0  0
   47.1742   29.9003   49.0260 H   0  0  0  0  0  0  0  0  0  0  0  0
   45.2957   36.4485   41.9974 H   0  0  0  0  0  0  0  0  0  0  0  0
   44.1746   37.2639   43.1203 H   0  0  0  0  0  0  0  0  0  0  0  0
  1  6  2  0
  2  1  1  0
  3  2  2  0
  3  4  1  0
  4  5  2  0
  5  6  1  0
  5  7  1  0
  7  8  2  0
  8  9  1  0
 10  9  2  0
 11  7  1  0
 11 10  1  0
 12  2  1  0
  1 13  1  0
  3 14  1  0
  8 15  1  0
  9 16  1  0
 10 17  1  0
 12 18  1  0
 12 19  1  0
M  ISO  5  13  14  14  14  15  14  16  14  17  14
M  END
>  <minimizedAffinity>  (1) 
-4.44894838

>  <minimizedRMSD>  (1) 
1.01789403

$$$$
