
     RDKit          3D

 19 20  0  0  0  0  0  0  0  0999 V2000
   44.4400   35.7090   45.1390 C   0  0  0  0  0  0  0  0  0  0  0  0
   45.0640   35.5950   43.8890 C   0  0  0  0  0  0  0  0  0  0  0  0
   45.9630   34.5450   43.6560 C   0  0  0  0  0  0  0  0  0  0  0  0
   46.1650   33.6940   44.6930 N   0  0  0  0  0  0  0  0  0  0  0  0
   45.5620   33.8170   45.8780 C   0  0  0  0  0  0  0  0  0  0  0  0
   44.6940   34.8220   46.1170 N   0  0  0  0  0  0  0  0  0  0  0  0
   45.9730   32.7730   46.7680 N   0  0  0  0  0  0  0  0  0  0  0  0
   46.9890   31.8960   46.6090 C   0  0  0  0  0  0  0  0  0  0  0  0
   46.9710   31.0890   47.7510 C   0  0  0  0  0  0  0  0  0  0  0  0
   45.9850   31.4720   48.5530 N   0  0  0  0  0  0  0  0  0  0  0  0
   45.3600   32.5190   47.9490 C   0  0  0  0  0  0  0  0  0  0  0  0
   44.7760   36.5390   42.8890 N   0  0  0  0  0  0  0  0  0  0  0  0
   43.7348   36.5332   45.3218 H   0  0  0  0  0  0  0  0  0  0  0  0
   46.4741   34.4186   42.6902 H   0  0  0  0  0  0  0  0  0  0  0  0
   47.6845   31.8307   45.7592 H   0  0  0  0  0  0  0  0  0  0  0  0
   47.6680   30.2625   47.9538 H   0  0  0  0  0  0  0  0  0  0  0  0
   44.4978   33.0693   48.3537 H   0  0  0  0  0  0  0  0  0  0  0  0
   45.2280   36.4661   41.9664 H   0  0  0  0  0  0  0  0  0  0  0  0
   44.1128   37.3040   43.0785 H   0  0  0  0  0  0  0  0  0  0  0  0
  1  6  2  0
  2  1  1  0
  3  2  2  0
  3  4  1  0
  4  5  2  0
  5  6  1  0
  5  7  1  0
  7 11  1  0
  8  7  1  0
  8  9  2  0
  9 10  1  0
 11 10  2  0
 12  2  1  0
  1 13  1  0
  3 14  1  0
  8 15  1  0
  9 16  1  0
 11 17  1  0
 12 18  1  0
 12 19  1  0
M  ISO  5  13  14  14  14  15  14  16  14  17  14
M  END
>  <minimizedAffinity>  (1) 
-4.39493704

>  <minimizedRMSD>  (1) 
0.810602248

$$$$
