
     RDKit          3D

 15 15  0  0  0  0  0  0  0  0999 V2000
   44.4800   35.7260   45.0400 C   0  0  0  0  0  0  0  0  0  0  0  0
   45.0940   35.7010   43.7800 C   0  0  0  0  0  0  0  0  0  0  0  0
   46.0050   34.7020   43.4660 C   0  0  0  0  0  0  0  0  0  0  0  0
   46.2700   33.7670   44.4170 N   0  0  0  0  0  0  0  0  0  0  0  0
   45.6650   33.8110   45.6270 C   0  0  0  0  0  0  0  0  0  0  0  0
   44.7900   34.7620   45.9430 N   0  0  0  0  0  0  0  0  0  0  0  0
   45.9270   32.8080   46.6940 C   0  0  0  0  0  0  0  0  0  0  0  0
   45.0040   33.0460   47.6970 F   0  0  0  0  0  0  0  0  0  0  0  0
   45.6970   31.5210   46.2360 F   0  0  0  0  0  0  0  0  0  0  0  0
   47.1930   32.9410   47.2230 F   0  0  0  0  0  0  0  0  0  0  0  0
   44.7590   36.7080   42.8610 N   0  0  0  0  0  0  0  0  0  0  0  0
   43.7573   36.5158   45.2929 H   0  0  0  0  0  0  0  0  0  0  0  0
   46.4955   34.6679   42.4820 H   0  0  0  0  0  0  0  0  0  0  0  0
   45.1927   36.7177   41.9268 H   0  0  0  0  0  0  0  0  0  0  0  0
   44.0795   37.4371   43.1209 H   0  0  0  0  0  0  0  0  0  0  0  0
  1  6  2  0
  2  1  1  0
  3  2  2  0
  3  4  1  0
  4  5  2  0
  5  6  1  0
  5  7  1  0
  7 10  1  0
  7  8  1  0
  9  7  1  0
 11  2  1  0
  1 12  1  0
  3 13  1  0
 11 14  1  0
 11 15  1  0
M  ISO  2  12  14  13  14
M  END
>  <minimizedAffinity>  (1) 
-4.18069792

>  <minimizedRMSD>  (1) 
0.509367824

$$$$
