
     RDKit          3D

 15 15  0  0  0  0  0  0  0  0999 V2000
   44.5040   35.6290   44.9880 C   0  0  0  0  0  0  0  0  0  0  0  0
   45.0540   35.7020   43.7010 C   0  0  0  0  0  0  0  0  0  0  0  0
   46.0450   34.8110   43.3310 C   0  0  0  0  0  0  0  0  0  0  0  0
   46.4310   33.9020   44.2560 N   0  0  0  0  0  0  0  0  0  0  0  0
   45.9010   33.8390   45.4810 C   0  0  0  0  0  0  0  0  0  0  0  0
   44.9440   34.6890   45.8580 N   0  0  0  0  0  0  0  0  0  0  0  0
   44.5630   36.6890   42.8450 N   0  0  0  0  0  0  0  0  0  0  0  0
   46.3370   32.8400   46.4750 C   0  0  0  0  0  0  0  0  0  0  0  0
   45.8730   31.6800   46.5290 O   0  0  0  0  0  0  0  0  0  0  0  0
   47.3110   33.1280   47.4330 O   0  0  0  0  0  0  0  0  0  0  0  0
   43.7161   36.3342   45.2911 H   0  0  0  0  0  0  0  0  0  0  0  0
   46.4991   34.8400   42.3295 H   0  0  0  0  0  0  0  0  0  0  0  0
   44.9400   36.7770   41.8905 H   0  0  0  0  0  0  0  0  0  0  0  0
   43.8237   37.3294   43.1678 H   0  0  0  0  0  0  0  0  0  0  0  0
   47.5822   32.4358   48.0868 H   0  0  0  0  0  0  0  0  0  0  0  0
  1  6  2  0
  2  1  1  0
  3  2  2  0
  3  4  1  0
  4  5  2  0
  5  6  1  0
  5  8  1  0
  7  2  1  0
  8  9  2  0
  8 10  1  0
  1 11  1  0
  3 12  1  0
  7 13  1  0
  7 14  1  0
 10 15  1  0
M  ISO  3  11  14  12  14  15   3
M  END
>  <minimizedAffinity>  (1) 
-4.1730237

>  <minimizedRMSD>  (1) 
0.242292523

$$$$
