
     RDKit          3D

 21 21  0  0  0  0  0  0  0  0999 V2000
   44.5110   35.5750   45.0780 C   0  0  0  0  0  0  0  0  0  0  0  0
   45.0960   35.6270   43.7940 C   0  0  0  0  0  0  0  0  0  0  0  0
   46.0780   34.6930   43.4490 C   0  0  0  0  0  0  0  0  0  0  0  0
   46.4270   33.7710   44.3770 N   0  0  0  0  0  0  0  0  0  0  0  0
   45.8560   33.7370   45.6010 C   0  0  0  0  0  0  0  0  0  0  0  0
   44.9080   34.6290   45.9480 N   0  0  0  0  0  0  0  0  0  0  0  0
   44.6520   36.6260   42.9240 N   0  0  0  0  0  0  0  0  0  0  0  0
   46.3310   32.6690   46.5290 C   0  0  0  0  0  0  0  0  0  0  0  0
   45.3730   32.6590   47.6970 C   0  0  0  0  0  0  0  0  0  0  0  0
   46.3010   31.3840   45.7480 C   0  0  0  0  0  0  0  0  0  0  0  0
   43.7369   36.3021   45.3645 H   0  0  0  0  0  0  0  0  0  0  0  0
   46.5514   34.7070   42.4562 H   0  0  0  0  0  0  0  0  0  0  0  0
   45.0520   36.7000   41.9777 H   0  0  0  0  0  0  0  0  0  0  0  0
   43.9246   37.2885   43.2289 H   0  0  0  0  0  0  0  0  0  0  0  0
   47.3499   32.8214   46.9145 H   0  0  0  0  0  0  0  0  0  0  0  0
   45.9423   32.6649   48.6382 H   0  0  0  0  0  0  0  0  0  0  0  0
   44.7302   33.5505   47.6516 H   0  0  0  0  0  0  0  0  0  0  0  0
   44.7489   31.7543   47.6516 H   0  0  0  0  0  0  0  0  0  0  0  0
   46.2811   30.5323   46.4439 H   0  0  0  0  0  0  0  0  0  0  0  0
   45.4021   31.3609   45.1144 H   0  0  0  0  0  0  0  0  0  0  0  0
   47.1979   31.3190   45.1144 H   0  0  0  0  0  0  0  0  0  0  0  0
  1  6  2  0
  2  1  1  0
  3  2  2  0
  3  4  1  0
  4  5  2  0
  5  6  1  0
  5  8  1  0
  7  2  1  0
  8  9  1  0
 10  8  1  0
  1 11  1  0
  3 12  1  0
  7 13  1  0
  7 14  1  0
  8 15  1  0
  9 16  1  0
  9 17  1  0
  9 18  1  0
 10 19  1  0
 10 20  1  0
 10 21  1  0
M  ISO  8  11  14  12  14  15   8  16   8  17   8  18   8  19   8  20   8
M  ISO  1  21   8
M  END
>  <minimizedAffinity>  (1) 
-3.82728195

>  <minimizedRMSD>  (1) 
0.505338907

$$$$
