
     RDKit          3D

 14 14  0  0  0  0  0  0  0  0999 V2000
   44.4900   35.6890   45.0740 C   0  0  0  0  0  0  0  0  0  0  0  0
   45.0600   35.7690   43.7930 C   0  0  0  0  0  0  0  0  0  0  0  0
   45.9920   34.8190   43.4100 C   0  0  0  0  0  0  0  0  0  0  0  0
   46.3130   33.8350   44.3160 N   0  0  0  0  0  0  0  0  0  0  0  0
   45.7470   33.7950   45.5280 C   0  0  0  0  0  0  0  0  0  0  0  0
   44.8420   34.7050   45.9200 N   0  0  0  0  0  0  0  0  0  0  0  0
   46.1030   32.7620   46.4400 N   0  0  0  0  0  0  0  0  0  0  0  0
   44.6610   36.8100   42.9560 N   0  0  0  0  0  0  0  0  0  0  0  0
   43.7486   36.4384   45.3882 H   0  0  0  0  0  0  0  0  0  0  0  0
   46.4598   34.8502   42.4149 H   0  0  0  0  0  0  0  0  0  0  0  0
   45.6697   32.7276   47.3738 H   0  0  0  0  0  0  0  0  0  0  0  0
   46.7939   32.0488   46.1662 H   0  0  0  0  0  0  0  0  0  0  0  0
   45.0622   36.8937   42.0111 H   0  0  0  0  0  0  0  0  0  0  0  0
   43.9650   37.4954   43.2825 H   0  0  0  0  0  0  0  0  0  0  0  0
  1  6  2  0
  2  1  1  0
  3  2  2  0
  3  4  1  0
  4  5  2  0
  5  6  1  0
  5  7  1  0
  8  2  1  0
  1  9  1  0
  3 10  1  0
  7 11  1  0
  7 12  1  0
  8 13  1  0
  8 14  1  0
M  ISO  2   9  14  10  14
M  END
>  <minimizedAffinity>  (1) 
-3.29649806

>  <minimizedRMSD>  (1) 
0.180871964

$$$$
