
     RDKit          3D

 26 28  0  0  0  0  0  0  0  0999 V2000
   44.6930   35.5750   44.8400 C   0  0  0  0  0  0  0  0  0  0  0  0
   45.2210   35.9670   43.5920 C   0  0  0  0  0  0  0  0  0  0  0  0
   46.1670   35.1600   42.9710 C   0  0  0  0  0  0  0  0  0  0  0  0
   46.5480   34.0140   43.5950 N   0  0  0  0  0  0  0  0  0  0  0  0
   46.0330   33.6560   44.7850 C   0  0  0  0  0  0  0  0  0  0  0  0
   45.1210   34.4160   45.4050 N   0  0  0  0  0  0  0  0  0  0  0  0
   46.4710   32.4200   45.4180 C   0  0  0  0  0  0  0  0  0  0  0  0
   47.2470   31.3820   44.9120 C   0  0  0  0  0  0  0  0  0  0  0  0
   47.4120   30.4280   45.8400 N   0  0  0  0  0  0  0  0  0  0  0  0
   46.7730   30.7750   46.9710 C   0  0  0  0  0  0  0  0  0  0  0  0
   46.6240   30.1680   48.2060 C   0  0  0  0  0  0  0  0  0  0  0  0
   45.8910   30.7780   49.2050 C   0  0  0  0  0  0  0  0  0  0  0  0
   45.2930   32.0070   48.9910 C   0  0  0  0  0  0  0  0  0  0  0  0
   45.4630   32.5920   47.7360 C   0  0  0  0  0  0  0  0  0  0  0  0
   46.1930   32.0040   46.7130 C   0  0  0  0  0  0  0  0  0  0  0  0
   44.7780   37.1540   43.0200 N   0  0  0  0  0  0  0  0  0  0  0  0
   43.9443   36.1997   45.3492 H   0  0  0  0  0  0  0  0  0  0  0  0
   46.5968   35.4418   41.9984 H   0  0  0  0  0  0  0  0  0  0  0  0
   47.6657   31.3486   43.8953 H   0  0  0  0  0  0  0  0  0  0  0  0
   47.9484   29.5589   45.7063 H   0  0  0  0  0  0  0  0  0  0  0  0
   47.0936   29.1911   48.3935 H   0  0  0  0  0  0  0  0  0  0  0  0
   45.7816   30.2817   50.1806 H   0  0  0  0  0  0  0  0  0  0  0  0
   44.7070   32.5030   49.7788 H   0  0  0  0  0  0  0  0  0  0  0  0
   44.9944   33.5693   47.5479 H   0  0  0  0  0  0  0  0  0  0  0  0
   45.1513   37.4576   42.1093 H   0  0  0  0  0  0  0  0  0  0  0  0
   44.0764   37.7299   43.5069 H   0  0  0  0  0  0  0  0  0  0  0  0
  1  6  2  0
  2  1  1  0
  3  2  2  0
  3  4  1  0
  4  5  2  0
  5  6  1  0
  5  7  1  0
  7 15  1  0
  8  7  2  0
  8  9  1  0
  9 10  1  0
 10 11  2  0
 11 12  1  0
 13 12  2  0
 14 13  1  0
 15 10  1  0
 15 14  2  0
 16  2  1  0
  1 17  1  0
  3 18  1  0
  8 19  1  0
  9 20  1  0
 11 21  1  0
 12 22  1  0
 13 23  1  0
 14 24  1  0
 16 25  1  0
 16 26  1  0
M  ISO  8  17  14  18  14  19  14  20   9  21  14  22  14  23  14  24  14
M  END
>  <minimizedAffinity>  (1) 
-5.30036974

>  <minimizedRMSD>  (1) 
1.03587604

$$$$
