
     RDKit          3D

 32 34  0  0  0  0  0  0  0  0999 V2000
   45.4630   34.5820   44.2850 C   0  0  0  0  0  0  0  0  0  0  0  0
   44.6570   35.6000   44.8120 C   0  0  0  0  0  0  0  0  0  0  0  0
   44.3900   35.3300   46.1020 N   0  0  0  0  0  0  0  0  0  0  0  0
   44.9710   34.1850   46.4640 C   0  0  0  0  0  0  0  0  0  0  0  0
   45.0270   33.4390   47.6390 C   0  0  0  0  0  0  0  0  0  0  0  0
   45.7220   32.2600   47.6800 C   0  0  0  0  0  0  0  0  0  0  0  0
   46.3790   31.7710   46.5900 C   0  0  0  0  0  0  0  0  0  0  0  0
   46.3220   32.5160   45.4260 C   0  0  0  0  0  0  0  0  0  0  0  0
   45.6390   33.7010   45.3550 C   0  0  0  0  0  0  0  0  0  0  0  0
   47.9310   34.9340   41.6430 C   0  0  0  0  0  0  0  0  0  0  0  0
   47.2030   34.4100   40.5110 C   0  0  0  0  0  0  0  0  0  0  0  0
   45.8750   33.9290   40.6750 C   0  0  0  0  0  0  0  0  0  0  0  0
   45.3450   33.9850   41.9260 N   0  0  0  0  0  0  0  0  0  0  0  0
   46.0650   34.4880   42.9810 C   0  0  0  0  0  0  0  0  0  0  0  0
   47.2770   34.9310   42.8350 N   0  0  0  0  0  0  0  0  0  0  0  0
   47.8640   34.3920   39.3020 N   0  0  0  0  0  0  0  0  0  0  0  0
   47.1400   31.7560   44.4640 C   0  0  0  0  0  0  0  0  0  0  0  0
   46.4000   30.8130   43.5620 C   0  0  0  0  0  0  0  0  0  0  0  0
   44.2994   36.4805   44.2582 H   0  0  0  0  0  0  0  0  0  0  0  0
   43.8189   35.9222   46.7216 H   0  0  0  0  0  0  0  0  0  0  0  0
   44.5093   33.7995   48.5401 H   0  0  0  0  0  0  0  0  0  0  0  0
   45.7512   31.6903   48.6205 H   0  0  0  0  0  0  0  0  0  0  0  0
   46.9326   30.8215   46.6345 H   0  0  0  0  0  0  0  0  0  0  0  0
   48.9585   35.3147   41.5461 H   0  0  0  0  0  0  0  0  0  0  0  0
   45.3010   33.5288   39.8263 H   0  0  0  0  0  0  0  0  0  0  0  0
   48.8265   34.7527   39.2359 H   0  0  0  0  0  0  0  0  0  0  0  0
   47.3955   34.0179   38.4645 H   0  0  0  0  0  0  0  0  0  0  0  0
   47.6703   32.4808   43.8288 H   0  0  0  0  0  0  0  0  0  0  0  0
   47.7982   31.1214   45.0755 H   0  0  0  0  0  0  0  0  0  0  0  0
   45.8342   30.0920   44.1702 H   0  0  0  0  0  0  0  0  0  0  0  0
   45.7050   31.3823   42.9272 H   0  0  0  0  0  0  0  0  0  0  0  0
   47.1182   30.2733   42.9272 H   0  0  0  0  0  0  0  0  0  0  0  0
  1  2  2  0
  1  9  1  0
  2  3  1  0
  3  4  1  0
  4  5  2  0
  5  6  1  0
  7  6  2  0
  8  7  1  0
  9  8  2  0
  9  4  1  0
 10 15  2  0
 11 12  2  0
 11 10  1  0
 12 13  1  0
 13 14  2  0
 14  1  1  0
 15 14  1  0
 16 11  1  0
 17  8  1  0
 18 17  1  0
  2 19  1  0
  3 20  1  0
  5 21  1  0
  6 22  1  0
  7 23  1  0
 10 24  1  0
 12 25  1  0
 16 26  1  0
 16 27  1  0
 17 28  1  0
 17 29  1  0
 18 30  1  0
 18 31  1  0
 18 32  1  0
M  ISO  8  19  14  20   9  21  14  22  14  23  14  24  14  25  14  28   8
M  ISO  4  29   8  30   8  31   8  32   8
M  END
>  <minimizedAffinity>  (1) 
-5.36737633

>  <minimizedRMSD>  (1) 
3.85331655

$$$$
