
     RDKit          3D

 40 44  0  0  0  0  0  0  0  0999 V2000
   45.8180   32.4720   46.9250 C   0  0  0  0  0  0  0  0  0  0  0  0
   45.6530   32.9910   48.2170 C   0  0  0  0  0  0  0  0  0  0  0  0
   45.3550   32.0180   49.0800 N   0  0  0  0  0  0  0  0  0  0  0  0
   45.3100   30.8360   48.4180 C   0  0  0  0  0  0  0  0  0  0  0  0
   45.0200   29.5610   48.8110 C   0  0  0  0  0  0  0  0  0  0  0  0
   45.0180   28.5520   47.8750 C   0  0  0  0  0  0  0  0  0  0  0  0
   45.3090   28.8050   46.5410 C   0  0  0  0  0  0  0  0  0  0  0  0
   45.6030   30.1210   46.1810 C   0  0  0  0  0  0  0  0  0  0  0  0
   45.5990   31.1250   47.0980 C   0  0  0  0  0  0  0  0  0  0  0  0
   46.0080   29.9830   44.8220 C   0  0  0  0  0  0  0  0  0  0  0  0
   45.2460   30.1340   43.6790 N   0  0  0  0  0  0  0  0  0  0  0  0
   45.7800   29.9950   42.4650 C   0  0  0  0  0  0  0  0  0  0  0  0
   47.0790   29.7010   42.2520 N   0  0  0  0  0  0  0  0  0  0  0  0
   47.9150   29.5300   43.3210 C   0  0  0  0  0  0  0  0  0  0  0  0
   49.2440   29.2220   43.1420 C   0  0  0  0  0  0  0  0  0  0  0  0
   50.0640   29.0470   44.2380 C   0  0  0  0  0  0  0  0  0  0  0  0
   49.5310   29.1860   45.4990 C   0  0  0  0  0  0  0  0  0  0  0  0
   48.1920   29.4980   45.6790 C   0  0  0  0  0  0  0  0  0  0  0  0
   47.3640   29.6750   44.5900 C   0  0  0  0  0  0  0  0  0  0  0  0
   47.4280   33.6060   43.8730 C   0  0  0  0  0  0  0  0  0  0  0  0
   46.5070   34.5170   43.3460 C   0  0  0  0  0  0  0  0  0  0  0  0
   45.3400   34.7430   44.0520 C   0  0  0  0  0  0  0  0  0  0  0  0
   45.1880   34.0550   45.2020 N   0  0  0  0  0  0  0  0  0  0  0  0
   46.0650   33.1830   45.7070 C   0  0  0  0  0  0  0  0  0  0  0  0
   47.1080   33.0110   45.0370 N   0  0  0  0  0  0  0  0  0  0  0  0
   46.7860   35.1530   42.1400 N   0  0  0  0  0  0  0  0  0  0  0  0
   45.7551   34.0536   48.4825 H   0  0  0  0  0  0  0  0  0  0  0  0
   45.1861   32.1448   50.0881 H   0  0  0  0  0  0  0  0  0  0  0  0
   44.7904   29.3426   49.8644 H   0  0  0  0  0  0  0  0  0  0  0  0
   44.7812   27.5250   48.1898 H   0  0  0  0  0  0  0  0  0  0  0  0
   45.3078   27.9970   45.7946 H   0  0  0  0  0  0  0  0  0  0  0  0
   45.1260   30.1272   41.5904 H   0  0  0  0  0  0  0  0  0  0  0  0
   49.6524   29.1154   42.1262 H   0  0  0  0  0  0  0  0  0  0  0  0
   51.1277   28.8001   44.1056 H   0  0  0  0  0  0  0  0  0  0  0  0
   50.1774   29.0474   46.3782 H   0  0  0  0  0  0  0  0  0  0  0  0
   47.7876   29.6050   46.6963 H   0  0  0  0  0  0  0  0  0  0  0  0
   48.3744   33.3850   43.3577 H   0  0  0  0  0  0  0  0  0  0  0  0
   44.5749   35.4477   43.6942 H   0  0  0  0  0  0  0  0  0  0  0  0
   46.1133   35.8254   41.7447 H   0  0  0  0  0  0  0  0  0  0  0  0
   47.6652   34.9514   41.6428 H   0  0  0  0  0  0  0  0  0  0  0  0
  1  9  1  0
  1  2  2  0
  2  3  1  0
  4  5  2  0
  4  3  1  0
  6  5  1  0
  7  6  2  0
  8  7  1  0
  8  9  2  0
  9  4  1  0
 10  8  1  0
 11 10  2  0
 12 11  1  0
 13 12  2  0
 13 14  1  0
 14 19  2  0
 15 14  1  0
 15 16  2  0
 16 17  1  0
 17 18  2  0
 19 10  1  0
 19 18  1  0
 20 25  2  0
 21 20  1  0
 21 22  2  0
 22 23  1  0
 23 24  2  0
 24  1  1  0
 25 24  1  0
 26 21  1  0
  2 27  1  0
  3 28  1  0
  5 29  1  0
  6 30  1  0
  7 31  1  0
 12 32  1  0
 15 33  1  0
 16 34  1  0
 17 35  1  0
 18 36  1  0
 20 37  1  0
 22 38  1  0
 26 39  1  0
 26 40  1  0
M  ISO  8  27  14  28   9  29  14  30  14  31  14  32  14  33  14  34  14
M  ISO  4  35  14  36  14  37  14  38  14
M  END
>  <minimizedAffinity>  (1) 
-5.28223753

>  <minimizedRMSD>  (1) 
5.73441935

$$$$
