
     RDKit          3D

 33 36  0  0  0  0  0  0  0  0999 V2000
   45.9060   34.9420   43.2870 C   0  0  0  0  0  0  0  0  0  0  0  0
   45.1400   36.0530   43.6770 C   0  0  0  0  0  0  0  0  0  0  0  0
   44.7080   35.8770   44.9390 N   0  0  0  0  0  0  0  0  0  0  0  0
   45.1500   34.7000   45.4090 C   0  0  0  0  0  0  0  0  0  0  0  0
   45.0130   34.0360   46.6230 C   0  0  0  0  0  0  0  0  0  0  0  0
   45.6040   32.7990   46.8200 C   0  0  0  0  0  0  0  0  0  0  0  0
   46.3350   32.2040   45.8230 C   0  0  0  0  0  0  0  0  0  0  0  0
   46.4420   32.9040   44.6350 C   0  0  0  0  0  0  0  0  0  0  0  0
   45.8790   34.1270   44.3980 C   0  0  0  0  0  0  0  0  0  0  0  0
   48.4940   35.2400   40.7370 C   0  0  0  0  0  0  0  0  0  0  0  0
   47.9400   34.4210   39.6930 C   0  0  0  0  0  0  0  0  0  0  0  0
   46.7010   33.7680   39.8780 C   0  0  0  0  0  0  0  0  0  0  0  0
   46.0700   33.9480   41.0690 N   0  0  0  0  0  0  0  0  0  0  0  0
   46.6200   34.7320   42.0420 C   0  0  0  0  0  0  0  0  0  0  0  0
   47.7780   35.3510   41.8870 N   0  0  0  0  0  0  0  0  0  0  0  0
   48.6510   34.2870   38.5010 N   0  0  0  0  0  0  0  0  0  0  0  0
   47.1690   32.0140   43.7980 N   0  0  0  0  0  0  0  0  0  0  0  0
   46.9330   30.9170   43.0400 N   0  0  0  0  0  0  0  0  0  0  0  0
   48.0740   30.5800   42.4130 C   0  0  0  0  0  0  0  0  0  0  0  0
   49.1020   31.4400   42.7380 C   0  0  0  0  0  0  0  0  0  0  0  0
   48.4970   32.3380   43.6160 C   0  0  0  0  0  0  0  0  0  0  0  0
   44.9266   36.9302   43.0486 H   0  0  0  0  0  0  0  0  0  0  0  0
   44.1261   36.5446   45.4649 H   0  0  0  0  0  0  0  0  0  0  0  0
   44.4302   34.4972   47.4340 H   0  0  0  0  0  0  0  0  0  0  0  0
   45.4860   32.2878   47.7868 H   0  0  0  0  0  0  0  0  0  0  0  0
   46.8109   31.2220   45.9613 H   0  0  0  0  0  0  0  0  0  0  0  0
   49.4575   35.7554   40.6102 H   0  0  0  0  0  0  0  0  0  0  0  0
   46.2637   33.1383   39.0892 H   0  0  0  0  0  0  0  0  0  0  0  0
   49.5530   34.7699   38.3823 H   0  0  0  0  0  0  0  0  0  0  0  0
   48.2742   33.7051   37.7392 H   0  0  0  0  0  0  0  0  0  0  0  0
   48.1747   29.7259   41.7272 H   0  0  0  0  0  0  0  0  0  0  0  0
   50.1451   31.4218   42.3894 H   0  0  0  0  0  0  0  0  0  0  0  0
   49.0073   33.1860   44.0962 H   0  0  0  0  0  0  0  0  0  0  0  0
  1  2  2  0
  1  9  1  0
  2  3  1  0
  3  4  1  0
  4  5  2  0
  5  6  1  0
  7  6  2  0
  8  7  1  0
  9  8  2  0
  9  4  1  0
 10 15  2  0
 11 12  2  0
 11 10  1  0
 12 13  1  0
 13 14  2  0
 14  1  1  0
 15 14  1  0
 16 11  1  0
 17  8  1  0
 18 17  1  0
 19 20  1  0
 19 18  2  0
 20 21  2  0
 21 17  1  0
  2 22  1  0
  3 23  1  0
  5 24  1  0
  6 25  1  0
  7 26  1  0
 10 27  1  0
 12 28  1  0
 16 29  1  0
 16 30  1  0
 19 31  1  0
 20 32  1  0
 21 33  1  0
M  ISO  8  22  14  23   9  24  14  25  14  26  14  27  14  28  14  31  14
M  ISO  2  32  14  33  14
M  END
>  <minimizedAffinity>  (1) 
-5.27841711

>  <minimizedRMSD>  (1) 
5.25945282

$$$$
