
     RDKit          3D

 46 50  0  0  1  0  0  0  0  0999 V2000
   49.0220   33.3980   42.4380 C   0  0  2  0  0  0  0  0  0  0  0  0
   47.6780   33.7130   42.0980 C   0  0  2  0  0  0  0  0  0  0  0  0
   47.7120   35.2460   41.8490 C   0  0  0  0  0  0  0  0  0  0  0  0
   49.1320   35.6970   41.7410 C   0  0  0  0  0  0  0  0  0  0  0  0
   49.7840   34.7580   42.6590 C   0  0  0  0  0  0  0  0  0  0  0  0
   49.8710   32.7050   41.4730 C   0  0  0  0  0  0  0  0  0  0  0  0
   49.2810   32.3050   40.2940 C   0  0  0  0  0  0  0  0  0  0  0  0
   49.9730   31.6230   39.3030 C   0  0  0  0  0  0  0  0  0  0  0  0
   51.3110   31.3870   39.6070 N   0  0  0  0  0  0  0  0  0  0  0  0
   51.8820   31.7760   40.7420 C   0  0  0  0  0  0  0  0  0  0  0  0
   51.1500   32.4220   41.6420 N   0  0  0  0  0  0  0  0  0  0  0  0
   46.6320   33.4100   43.1090 C   0  0  0  0  0  0  0  0  0  0  0  0
   46.5050   34.0940   44.0980 O   0  0  0  0  0  0  0  0  0  0  0  0
   45.6760   32.3370   43.0850 C   0  0  0  0  0  0  0  0  0  0  0  0
   44.6090   32.3480   42.1840 C   0  0  0  0  0  0  0  0  0  0  0  0
   43.6280   31.3510   42.1190 C   0  0  0  0  0  0  0  0  0  0  0  0
   43.7130   30.2840   43.0030 C   0  0  0  0  0  0  0  0  0  0  0  0
   44.7710   30.2490   43.9140 C   0  0  0  0  0  0  0  0  0  0  0  0
   45.7100   31.2690   43.9190 C   0  0  0  0  0  0  0  0  0  0  0  0
   46.6360   30.7680   44.8670 N   0  0  0  0  0  0  0  0  0  0  0  0
   47.7020   29.9500   44.7830 C   0  0  0  0  0  0  0  0  0  0  0  0
   48.3240   29.8690   46.0010 N   0  0  0  0  0  0  0  0  0  0  0  0
   47.6530   30.6380   46.8770 C   0  0  0  0  0  0  0  0  0  0  0  0
   47.8400   30.9160   48.2160 C   0  0  0  0  0  0  0  0  0  0  0  0
   46.9880   31.7460   48.8560 N   0  0  0  0  0  0  0  0  0  0  0  0
   45.9540   32.2940   48.1590 C   0  0  0  0  0  0  0  0  0  0  0  0
   45.7880   32.0130   46.8540 N   0  0  0  0  0  0  0  0  0  0  0  0
   46.6020   31.1960   46.1660 C   0  0  0  0  0  0  0  0  0  0  0  0
   48.8876   32.7139   43.2889 H   0  0  0  0  0  0  0  0  0  0  0  0
   47.3825   33.0831   41.2460 H   0  0  0  0  0  0  0  0  0  0  0  0
   47.1805   35.4784   40.9144 H   0  0  0  0  0  0  0  0  0  0  0  0
   47.2226   35.7662   42.6856 H   0  0  0  0  0  0  0  0  0  0  0  0
   49.5139   35.5923   40.7148 H   0  0  0  0  0  0  0  0  0  0  0  0
   49.2943   36.7582   41.9808 H   0  0  0  0  0  0  0  0  0  0  0  0
   49.6805   35.0970   43.7003 H   0  0  0  0  0  0  0  0  0  0  0  0
   50.8637   34.6684   42.4688 H   0  0  0  0  0  0  0  0  0  0  0  0
   48.2178   32.5357   40.1315 H   0  0  0  0  0  0  0  0  0  0  0  0
   49.5061   31.2980   38.3615 H   0  0  0  0  0  0  0  0  0  0  0  0
   52.9447   31.5661   40.9331 H   0  0  0  0  0  0  0  0  0  0  0  0
   44.5347   33.1918   41.4822 H   0  0  0  0  0  0  0  0  0  0  0  0
   42.8103   31.4117   41.3857 H   0  0  0  0  0  0  0  0  0  0  0  0
   42.9612   29.4812   42.9863 H   0  0  0  0  0  0  0  0  0  0  0  0
   44.8590   29.4147   44.6254 H   0  0  0  0  0  0  0  0  0  0  0  0
   48.0254   29.4249   43.8721 H   0  0  0  0  0  0  0  0  0  0  0  0
   48.6812   30.4625   48.7608 H   0  0  0  0  0  0  0  0  0  0  0  0
   45.2504   32.9705   48.6663 H   0  0  0  0  0  0  0  0  0  0  0  0
  1  5  1  0
  2  1  1  0
  2 12  1  0
  3  2  1  0
  4  3  1  0
  4  5  1  0
  6 11  1  0
  6  1  1  0
  7  6  2  0
  8  9  2  0
  8  7  1  0
  9 10  1  0
 10 11  2  0
 12 13  2  0
 14 12  1  0
 14 19  1  0
 15 14  2  0
 16 15  1  0
 16 17  2  0
 17 18  1  0
 18 19  2  0
 19 20  1  0
 20 28  1  0
 21 20  1  0
 21 22  2  0
 22 23  1  0
 23 24  2  0
 24 25  1  0
 26 25  2  0
 27 26  1  0
 28 27  2  0
 28 23  1  0
  1 29  1  1
  2 30  1  6
  3 31  1  0
  3 32  1  0
  4 33  1  0
  4 34  1  0
  5 35  1  0
  5 36  1  0
  7 37  1  0
  8 38  1  0
 10 39  1  0
 15 40  1  0
 16 41  1  0
 17 42  1  0
 18 43  1  0
 21 44  1  0
 24 45  1  0
 26 46  1  0
M  ISO  8  29  13  30  13  31  13  32  13  33  13  34  13  35  13  36  13
M  ISO  8  37  14  38  14  39  14  40  14  41  14  42  14  43  14  44  14
M  ISO  2  45  14  46  14
M  END
>  <minimizedAffinity>  (1) 
-5.82256508

>  <minimizedRMSD>  (1) 
3.7314291

$$$$
