
     RDKit          3D

 40 43  0  0  1  0  0  0  0  0999 V2000
   46.2000   31.1900   46.3010 C   0  0  2  0  0  0  0  0  0  0  0  0
   44.7010   35.1010   45.6110 C   0  0  0  0  0  0  0  0  0  0  0  0
   44.5250   35.9460   44.5170 C   0  0  0  0  0  0  0  0  0  0  0  0
   45.1930   35.6360   43.3180 C   0  0  0  0  0  0  0  0  0  0  0  0
   45.9750   34.5280   43.2920 N   0  0  0  0  0  0  0  0  0  0  0  0
   46.1260   33.7230   44.3820 C   0  0  0  0  0  0  0  0  0  0  0  0
   45.4890   34.0250   45.5140 N   0  0  0  0  0  0  0  0  0  0  0  0
   46.9580   32.5550   44.3490 N   0  0  0  0  0  0  0  0  0  0  0  0
   47.8630   32.4940   43.3510 C   0  0  0  0  0  0  0  0  0  0  0  0
   48.5300   31.2870   43.5520 C   0  0  0  0  0  0  0  0  0  0  0  0
   48.0150   30.6730   44.6410 N   0  0  0  0  0  0  0  0  0  0  0  0
   47.0540   31.4500   45.1240 C   0  0  0  0  0  0  0  0  0  0  0  0
   46.8340   31.9620   47.4720 C   0  0  0  0  0  0  0  0  0  0  0  0
   46.2810   29.7210   46.6450 C   0  0  0  0  0  0  0  0  0  0  0  0
   45.1230   29.0190   46.0260 C   0  0  0  0  0  0  0  0  0  0  0  0
   44.6300   29.4300   44.8620 N   0  0  0  0  0  0  0  0  0  0  0  0
   43.5630   28.8320   44.2950 C   0  0  0  0  0  0  0  0  0  0  0  0
   42.9270   27.7740   44.8770 N   0  0  0  0  0  0  0  0  0  0  0  0
   43.3890   27.3160   46.0640 C   0  0  0  0  0  0  0  0  0  0  0  0
   42.7760   26.2500   46.6710 C   0  0  0  0  0  0  0  0  0  0  0  0
   43.2230   25.7480   47.8790 C   0  0  0  0  0  0  0  0  0  0  0  0
   44.3220   26.3820   48.4360 C   0  0  0  0  0  0  0  0  0  0  0  0
   44.9380   27.4540   47.8240 C   0  0  0  0  0  0  0  0  0  0  0  0
   44.4840   27.9520   46.6140 C   0  0  0  0  0  0  0  0  0  0  0  0
   45.1576   31.4844   46.1095 H   0  0  0  0  0  0  0  0  0  0  0  0
   44.1889   35.3203   46.5595 H   0  0  0  0  0  0  0  0  0  0  0  0
   43.8795   36.8338   44.5890 H   0  0  0  0  0  0  0  0  0  0  0  0
   45.0843   36.2734   42.4281 H   0  0  0  0  0  0  0  0  0  0  0  0
   48.0363   33.2330   42.5549 H   0  0  0  0  0  0  0  0  0  0  0  0
   49.3450   30.8963   42.9250 H   0  0  0  0  0  0  0  0  0  0  0  0
   46.4843   31.5362   48.4240 H   0  0  0  0  0  0  0  0  0  0  0  0
   47.9295   31.8808   47.4144 H   0  0  0  0  0  0  0  0  0  0  0  0
   46.5413   33.0208   47.4144 H   0  0  0  0  0  0  0  0  0  0  0  0
   47.2197   29.3010   46.2546 H   0  0  0  0  0  0  0  0  0  0  0  0
   46.2569   29.5908   47.7370 H   0  0  0  0  0  0  0  0  0  0  0  0
   43.1925   29.2096   43.3306 H   0  0  0  0  0  0  0  0  0  0  0  0
   41.9070   25.7828   46.1846 H   0  0  0  0  0  0  0  0  0  0  0  0
   42.7340   24.8938   48.3701 H   0  0  0  0  0  0  0  0  0  0  0  0
   44.7158   26.0190   49.3968 H   0  0  0  0  0  0  0  0  0  0  0  0
   45.8079   27.9230   48.3071 H   0  0  0  0  0  0  0  0  0  0  0  0
  1 14  1  0
  1 13  1  0
  3  2  2  0
  4  3  1  0
  5  4  2  0
  5  6  1  0
  6  7  2  0
  7  2  1  0
  8  6  1  0
  8 12  1  0
  9 10  2  0
  9  8  1  0
 10 11  1  0
 11 12  2  0
 12  1  1  0
 15 24  1  0
 15 14  1  0
 16 15  2  0
 17 16  1  0
 17 18  2  0
 18 19  1  0
 19 24  2  0
 19 20  1  0
 20 21  2  0
 21 22  1  0
 23 22  2  0
 24 23  1  0
  1 25  1  6
  2 26  1  0
  3 27  1  0
  4 28  1  0
  9 29  1  0
 10 30  1  0
 13 31  1  0
 13 32  1  0
 13 33  1  0
 14 34  1  0
 14 35  1  0
 17 36  1  0
 20 37  1  0
 21 38  1  0
 22 39  1  0
 23 40  1  0
M  ISO  8  25   8  26  14  27  14  28  14  29  14  30  14  31   8  32   8
M  ISO  8  33   8  34   8  35   8  36  14  37  14  38  14  39  14  40  14
M  END
>  <minimizedAffinity>  (1) 
-5.51830387

>  <minimizedRMSD>  (1) 
1.37795079

$$$$
