
     RDKit          3D

 46 50  0  0  0  0  0  0  0  0999 V2000
   45.8700   34.9930   43.1500 C   0  0  0  0  0  0  0  0  0  0  0  0
   45.0230   36.0910   43.4410 C   0  0  0  0  0  0  0  0  0  0  0  0
   44.5640   35.9680   44.7010 N   0  0  0  0  0  0  0  0  0  0  0  0
   45.0590   34.8490   45.2550 C   0  0  0  0  0  0  0  0  0  0  0  0
   44.9060   34.2870   46.5070 C   0  0  0  0  0  0  0  0  0  0  0  0
   45.5670   33.0950   46.8150 C   0  0  0  0  0  0  0  0  0  0  0  0
   46.3820   32.4750   45.8560 C   0  0  0  0  0  0  0  0  0  0  0  0
   46.4900   33.0880   44.6290 C   0  0  0  0  0  0  0  0  0  0  0  0
   45.8580   34.2490   44.3070 C   0  0  0  0  0  0  0  0  0  0  0  0
   47.3280   32.2190   43.8820 N   0  0  0  0  0  0  0  0  0  0  0  0
   48.5050   32.7220   43.4200 C   0  0  0  0  0  0  0  0  0  0  0  0
   49.1260   31.6620   42.7280 C   0  0  0  0  0  0  0  0  0  0  0  0
   48.3340   30.5730   42.7860 N   0  0  0  0  0  0  0  0  0  0  0  0
   47.2510   30.8930   43.4760 C   0  0  0  0  0  0  0  0  0  0  0  0
   46.1380   30.0910   43.8040 N   0  0  0  0  0  0  0  0  0  0  0  0
   46.1030   28.8370   44.2790 C   0  0  0  0  0  0  0  0  0  0  0  0
   44.9120   28.2000   44.5440 C   0  0  0  0  0  0  0  0  0  0  0  0
   45.0000   26.8240   45.0630 C   0  0  0  0  0  0  0  0  0  0  0  0
   43.6790   28.8010   44.3410 C   0  0  0  0  0  0  0  0  0  0  0  0
   42.6220   28.1990   44.5900 O   0  0  0  0  0  0  0  0  0  0  0  0
   43.7520   30.0620   43.8630 N   0  0  0  0  0  0  0  0  0  0  0  0
   44.9220   30.6860   43.6030 C   0  0  0  0  0  0  0  0  0  0  0  0
   44.8180   31.8780   43.1540 O   0  0  0  0  0  0  0  0  0  0  0  0
   48.5380   35.2590   40.6840 C   0  0  0  0  0  0  0  0  0  0  0  0
   48.0530   34.4020   39.6450 C   0  0  0  0  0  0  0  0  0  0  0  0
   46.8090   33.7290   39.7990 C   0  0  0  0  0  0  0  0  0  0  0  0
   46.1130   33.9330   40.9600 N   0  0  0  0  0  0  0  0  0  0  0  0
   46.5970   34.7480   41.9220 C   0  0  0  0  0  0  0  0  0  0  0  0
   47.7630   35.3810   41.7820 N   0  0  0  0  0  0  0  0  0  0  0  0
   48.7980   34.2290   38.4800 N   0  0  0  0  0  0  0  0  0  0  0  0
   44.7797   36.9112   42.7495 H   0  0  0  0  0  0  0  0  0  0  0  0
   43.9298   36.6312   45.1688 H   0  0  0  0  0  0  0  0  0  0  0  0
   44.2672   34.7750   47.2579 H   0  0  0  0  0  0  0  0  0  0  0  0
   45.4482   32.6423   47.8105 H   0  0  0  0  0  0  0  0  0  0  0  0
   46.9130   31.5371   46.0761 H   0  0  0  0  0  0  0  0  0  0  0  0
   48.8914   33.7427   43.5577 H   0  0  0  0  0  0  0  0  0  0  0  0
   50.1011   31.7153   42.2217 H   0  0  0  0  0  0  0  0  0  0  0  0
   47.0485   28.3052   44.4610 H   0  0  0  0  0  0  0  0  0  0  0  0
   44.9986   26.8461   46.1628 H   0  0  0  0  0  0  0  0  0  0  0  0
   44.1372   26.2419   44.7069 H   0  0  0  0  0  0  0  0  0  0  0  0
   45.9299   26.3566   44.7069 H   0  0  0  0  0  0  0  0  0  0  0  0
   42.8744   30.5721   43.6884 H   0  0  0  0  0  0  0  0  0  0  0  0
   49.4958   35.7921   40.5919 H   0  0  0  0  0  0  0  0  0  0  0  0
   46.4195   33.0670   39.0116 H   0  0  0  0  0  0  0  0  0  0  0  0
   49.6987   34.7158   38.3676 H   0  0  0  0  0  0  0  0  0  0  0  0
   48.4479   33.6143   37.7313 H   0  0  0  0  0  0  0  0  0  0  0  0
  1  2  2  0
  1  9  1  0
  2  3  1  0
  3  4  1  0
  4  5  2  0
  5  6  1  0
  7  6  2  0
  8  7  1  0
  9  8  2  0
  9  4  1  0
 10  8  1  0
 11 10  1  0
 12 13  1  0
 12 11  2  0
 13 14  2  0
 14 15  1  0
 14 10  1  0
 15 16  1  0
 16 17  2  0
 17 18  1  0
 19 17  1  0
 19 20  2  0
 21 19  1  0
 22 15  1  0
 22 21  1  0
 23 22  2  0
 24 29  2  0
 25 26  2  0
 25 24  1  0
 26 27  1  0
 27 28  2  0
 28  1  1  0
 29 28  1  0
 30 25  1  0
  2 31  1  0
  3 32  1  0
  5 33  1  0
  6 34  1  0
  7 35  1  0
 11 36  1  0
 12 37  1  0
 16 38  1  0
 18 39  1  0
 18 40  1  0
 18 41  1  0
 21 42  1  0
 24 43  1  0
 26 44  1  0
 30 45  1  0
 30 46  1  0
M  ISO  8  31  14  32   9  33  14  34  14  35  14  36  14  37  14  38  14
M  ISO  6  39   8  40   8  41   8  42   9  43  14  44  14
M  END
>  <minimizedAffinity>  (1) 
-6.52967405

>  <minimizedRMSD>  (1) 
2.70372796

$$$$
