
     RDKit          3D

 48 52  0  0  0  0  0  0  0  0999 V2000
   46.5340   33.3930   44.5050 C   0  0  0  0  0  0  0  0  0  0  0  0
   45.7860   34.1200   45.4600 C   0  0  0  0  0  0  0  0  0  0  0  0
   45.5000   33.3210   46.5010 N   0  0  0  0  0  0  0  0  0  0  0  0
   46.0170   32.0950   46.2940 C   0  0  0  0  0  0  0  0  0  0  0  0
   46.0190   30.9490   47.0520 C   0  0  0  0  0  0  0  0  0  0  0  0
   46.6720   29.8140   46.5660 C   0  0  0  0  0  0  0  0  0  0  0  0
   47.3110   29.8360   45.3350 C   0  0  0  0  0  0  0  0  0  0  0  0
   47.2770   31.0120   44.6200 C   0  0  0  0  0  0  0  0  0  0  0  0
   46.6520   32.1360   45.0660 C   0  0  0  0  0  0  0  0  0  0  0  0
   47.9820   30.7170   43.4270 N   0  0  0  0  0  0  0  0  0  0  0  0
   49.3540   30.7470   43.4780 C   0  0  0  0  0  0  0  0  0  0  0  0
   49.7740   30.4310   42.1650 C   0  0  0  0  0  0  0  0  0  0  0  0
   48.6910   30.2250   41.3860 N   0  0  0  0  0  0  0  0  0  0  0  0
   47.6130   30.3930   42.1310 C   0  0  0  0  0  0  0  0  0  0  0  0
   46.2470   30.2380   41.7780 N   0  0  0  0  0  0  0  0  0  0  0  0
   45.5120   30.8440   40.6940 C   0  0  0  0  0  0  0  0  0  0  0  0
   44.0630   31.0510   41.1600 C   0  0  0  0  0  0  0  0  0  0  0  0
   44.0990   31.4040   42.6240 C   0  0  0  0  0  0  0  0  0  0  0  0
   44.5590   30.2270   43.4520 C   0  0  0  0  0  0  0  0  0  0  0  0
   45.4490   29.3500   42.5990 C   0  0  0  0  0  0  0  0  0  0  0  0
   48.9850   34.6920   42.1490 C   0  0  0  0  0  0  0  0  0  0  0  0
   48.2040   34.8330   40.9680 C   0  0  0  0  0  0  0  0  0  0  0  0
   46.8430   34.4750   40.9810 C   0  0  0  0  0  0  0  0  0  0  0  0
   46.3290   34.0020   42.1510 N   0  0  0  0  0  0  0  0  0  0  0  0
   47.0760   33.8720   43.2630 C   0  0  0  0  0  0  0  0  0  0  0  0
   48.3640   34.2100   43.2500 N   0  0  0  0  0  0  0  0  0  0  0  0
   48.7910   35.3230   39.8090 N   0  0  0  0  0  0  0  0  0  0  0  0
   45.4857   35.1740   45.3651 H   0  0  0  0  0  0  0  0  0  0  0  0
   44.9646   33.6041   47.3341 H   0  0  0  0  0  0  0  0  0  0  0  0
   45.5131   30.9257   48.0285 H   0  0  0  0  0  0  0  0  0  0  0  0
   46.6796   28.8922   47.1662 H   0  0  0  0  0  0  0  0  0  0  0  0
   47.8262   28.9461   44.9443 H   0  0  0  0  0  0  0  0  0  0  0  0
   49.9877   30.9684   44.3494 H   0  0  0  0  0  0  0  0  0  0  0  0
   50.8198   30.3636   41.8308 H   0  0  0  0  0  0  0  0  0  0  0  0
   45.5306   30.1830   39.8150 H   0  0  0  0  0  0  0  0  0  0  0  0
   45.9653   31.8070   40.4164 H   0  0  0  0  0  0  0  0  0  0  0  0
   43.5989   31.8685   40.5888 H   0  0  0  0  0  0  0  0  0  0  0  0
   43.4720   30.1375   40.9983 H   0  0  0  0  0  0  0  0  0  0  0  0
   44.7934   32.2436   42.7749 H   0  0  0  0  0  0  0  0  0  0  0  0
   43.0838   31.6824   42.9431 H   0  0  0  0  0  0  0  0  0  0  0  0
   45.1223   30.5870   44.3256 H   0  0  0  0  0  0  0  0  0  0  0  0
   43.6886   29.6511   43.7995 H   0  0  0  0  0  0  0  0  0  0  0  0
   44.8368   28.6938   41.9629 H   0  0  0  0  0  0  0  0  0  0  0  0
   46.0880   28.7089   43.2240 H   0  0  0  0  0  0  0  0  0  0  0  0
   50.0507   34.9639   42.1661 H   0  0  0  0  0  0  0  0  0  0  0  0
   46.2181   34.5733   40.0811 H   0  0  0  0  0  0  0  0  0  0  0  0
   49.7876   35.5830   39.8067 H   0  0  0  0  0  0  0  0  0  0  0  0
   48.2298   35.4264   38.9515 H   0  0  0  0  0  0  0  0  0  0  0  0
  1  9  1  0
  1  2  2  0
  2  3  1  0
  4  3  1  0
  4  5  2  0
  6  5  1  0
  7  6  2  0
  8  9  2  0
  8  7  1  0
  9  4  1  0
 10 11  1  0
 10  8  1  0
 12 11  2  0
 13 14  2  0
 13 12  1  0
 14 10  1  0
 15 14  1  0
 15 20  1  0
 16 17  1  0
 16 15  1  0
 17 18  1  0
 18 19  1  0
 20 19  1  0
 21 26  2  0
 22 23  2  0
 22 21  1  0
 23 24  1  0
 24 25  2  0
 25  1  1  0
 26 25  1  0
 27 22  1  0
  2 28  1  0
  3 29  1  0
  5 30  1  0
  6 31  1  0
  7 32  1  0
 11 33  1  0
 12 34  1  0
 16 35  1  0
 16 36  1  0
 17 37  1  0
 17 38  1  0
 18 39  1  0
 18 40  1  0
 19 41  1  0
 19 42  1  0
 20 43  1  0
 20 44  1  0
 21 45  1  0
 23 46  1  0
 27 47  1  0
 27 48  1  0
M  ISO  8  28  14  29   9  30  14  31  14  32  14  33  14  34  14  35  13
M  ISO  8  36  13  37  13  38  13  39  13  40  13  41  13  42  13  43  13
M  ISO  3  44  13  45  14  46  14
M  END
>  <minimizedAffinity>  (1) 
-5.2126565

>  <minimizedRMSD>  (1) 
0.416855663

$$$$
