
     RDKit          3D

 40 44  0  0  0  0  0  0  0  0999 V2000
   46.3980   33.5790   44.5580 C   0  0  0  0  0  0  0  0  0  0  0  0
   45.6580   34.3790   45.4610 C   0  0  0  0  0  0  0  0  0  0  0  0
   45.3360   33.6430   46.5350 N   0  0  0  0  0  0  0  0  0  0  0  0
   45.8210   32.3920   46.3970 C   0  0  0  0  0  0  0  0  0  0  0  0
   45.7690   31.2770   47.2050 C   0  0  0  0  0  0  0  0  0  0  0  0
   46.3820   30.0970   46.7910 C   0  0  0  0  0  0  0  0  0  0  0  0
   47.0470   30.0390   45.5600 C   0  0  0  0  0  0  0  0  0  0  0  0
   47.0620   31.1860   44.7980 C   0  0  0  0  0  0  0  0  0  0  0  0
   46.4730   32.3510   45.1830 C   0  0  0  0  0  0  0  0  0  0  0  0
   47.7670   30.8110   43.6230 N   0  0  0  0  0  0  0  0  0  0  0  0
   49.1070   30.6000   43.7190 C   0  0  0  0  0  0  0  0  0  0  0  0
   49.5250   30.2490   42.4200 C   0  0  0  0  0  0  0  0  0  0  0  0
   48.4600   30.2550   41.5960 N   0  0  0  0  0  0  0  0  0  0  0  0
   47.3900   30.5920   42.3010 C   0  0  0  0  0  0  0  0  0  0  0  0
   46.0220   30.7490   41.9340 N   0  0  0  0  0  0  0  0  0  0  0  0
   45.4980   31.0630   40.7820 N   0  0  0  0  0  0  0  0  0  0  0  0
   44.1540   31.1160   40.8240 C   0  0  0  0  0  0  0  0  0  0  0  0
   43.7820   30.8050   42.1350 C   0  0  0  0  0  0  0  0  0  0  0  0
   44.9690   30.5850   42.7850 C   0  0  0  0  0  0  0  0  0  0  0  0
   48.9210   34.6040   42.1390 C   0  0  0  0  0  0  0  0  0  0  0  0
   48.1370   34.7800   40.9640 C   0  0  0  0  0  0  0  0  0  0  0  0
   46.7380   34.5390   40.9980 C   0  0  0  0  0  0  0  0  0  0  0  0
   46.1910   34.1400   42.1860 N   0  0  0  0  0  0  0  0  0  0  0  0
   46.9610   33.9800   43.2890 C   0  0  0  0  0  0  0  0  0  0  0  0
   48.2730   34.2070   43.2560 N   0  0  0  0  0  0  0  0  0  0  0  0
   48.7460   35.1910   39.7780 N   0  0  0  0  0  0  0  0  0  0  0  0
   45.3900   35.4347   45.3068 H   0  0  0  0  0  0  0  0  0  0  0  0
   44.7981   33.9827   47.3450 H   0  0  0  0  0  0  0  0  0  0  0  0
   45.2461   31.3187   48.1719 H   0  0  0  0  0  0  0  0  0  0  0  0
   46.3436   29.2057   47.4345 H   0  0  0  0  0  0  0  0  0  0  0  0
   47.5368   29.1160   45.2161 H   0  0  0  0  0  0  0  0  0  0  0  0
   49.7322   30.6853   44.6200 H   0  0  0  0  0  0  0  0  0  0  0  0
   50.5572   30.0083   42.1258 H   0  0  0  0  0  0  0  0  0  0  0  0
   43.4795   31.3571   39.9892 H   0  0  0  0  0  0  0  0  0  0  0  0
   42.7655   30.7493   42.5516 H   0  0  0  0  0  0  0  0  0  0  0  0
   45.0596   30.3135   43.8471 H   0  0  0  0  0  0  0  0  0  0  0  0
   50.0063   34.7833   42.1376 H   0  0  0  0  0  0  0  0  0  0  0  0
   46.1161   34.6688   40.1000 H   0  0  0  0  0  0  0  0  0  0  0  0
   49.7608   35.3657   39.7538 H   0  0  0  0  0  0  0  0  0  0  0  0
   48.1808   35.3197   38.9266 H   0  0  0  0  0  0  0  0  0  0  0  0
  1  9  1  0
  1  2  2  0
  2  3  1  0
  4  3  1  0
  4  5  2  0
  6  5  1  0
  7  6  2  0
  8  9  2  0
  8  7  1  0
  9  4  1  0
 10 11  1  0
 10  8  1  0
 12 11  2  0
 13 14  2  0
 13 12  1  0
 14 10  1  0
 15 14  1  0
 15 19  1  0
 16 17  2  0
 16 15  1  0
 17 18  1  0
 18 19  2  0
 20 25  2  0
 21 22  2  0
 21 20  1  0
 22 23  1  0
 23 24  2  0
 24  1  1  0
 25 24  1  0
 26 21  1  0
  2 27  1  0
  3 28  1  0
  5 29  1  0
  6 30  1  0
  7 31  1  0
 11 32  1  0
 12 33  1  0
 17 34  1  0
 18 35  1  0
 19 36  1  0
 20 37  1  0
 22 38  1  0
 26 39  1  0
 26 40  1  0
M  ISO  8  27  14  28   9  29  14  30  14  31  14  32  14  33  14  34  14
M  ISO  4  35  14  36  14  37  14  38  14
M  END
>  <minimizedAffinity>  (1) 
-5.18173742

>  <minimizedRMSD>  (1) 
0.0750917494

$$$$
