
     RDKit          3D

 49 52  0  0  1  0  0  0  0  0999 V2000
   49.0670   33.6320   42.5690 C   0  0  2  0  0  0  0  0  0  0  0  0
   47.6950   33.9070   42.3270 C   0  0  2  0  0  0  0  0  0  0  0  0
   47.6910   35.3950   41.8920 C   0  0  0  0  0  0  0  0  0  0  0  0
   49.0920   35.8240   41.5870 C   0  0  0  0  0  0  0  0  0  0  0  0
   49.8370   35.0050   42.5500 C   0  0  0  0  0  0  0  0  0  0  0  0
   49.8320   32.8280   41.6240 C   0  0  0  0  0  0  0  0  0  0  0  0
   49.1420   32.2900   40.5570 C   0  0  0  0  0  0  0  0  0  0  0  0
   49.7470   31.4860   39.6010 C   0  0  0  0  0  0  0  0  0  0  0  0
   51.1070   31.2730   39.8110 N   0  0  0  0  0  0  0  0  0  0  0  0
   51.7680   31.7940   40.8360 C   0  0  0  0  0  0  0  0  0  0  0  0
   51.1210   32.5520   41.7110 N   0  0  0  0  0  0  0  0  0  0  0  0
   46.7620   33.7270   43.4650 C   0  0  0  0  0  0  0  0  0  0  0  0
   46.1490   34.6710   43.9160 O   0  0  0  0  0  0  0  0  0  0  0  0
   46.4450   32.5170   44.1730 C   0  0  0  0  0  0  0  0  0  0  0  0
   47.0870   32.1860   45.3680 C   0  0  0  0  0  0  0  0  0  0  0  0
   46.8230   31.0130   46.0870 C   0  0  0  0  0  0  0  0  0  0  0  0
   45.8730   30.1270   45.5900 C   0  0  0  0  0  0  0  0  0  0  0  0
   45.2110   30.4340   44.3900 C   0  0  0  0  0  0  0  0  0  0  0  0
   45.5240   31.6200   43.7340 C   0  0  0  0  0  0  0  0  0  0  0  0
   44.5570   31.5560   42.7200 N   0  0  0  0  0  0  0  0  0  0  0  0
   44.7480   32.4860   41.5920 C   0  0  0  0  0  0  0  0  0  0  0  0
   43.6480   33.5590   41.6780 C   0  0  0  0  0  0  0  0  0  0  0  0
   42.3800   32.8780   41.8530 N   0  0  0  0  0  0  0  0  0  0  0  0
   42.4380   31.4530   41.6140 C   0  0  0  0  0  0  0  0  0  0  0  0
   43.3330   30.7900   42.6760 C   0  0  0  0  0  0  0  0  0  0  0  0
   49.0133   33.0538   43.5032 H   0  0  0  0  0  0  0  0  0  0  0  0
   47.3197   33.1830   41.5888 H   0  0  0  0  0  0  0  0  0  0  0  0
   47.0665   35.5139   40.9943 H   0  0  0  0  0  0  0  0  0  0  0  0
   47.2837   36.0155   42.7038 H   0  0  0  0  0  0  0  0  0  0  0  0
   49.3726   35.5877   40.5500 H   0  0  0  0  0  0  0  0  0  0  0  0
   49.2691   36.9064   41.6715 H   0  0  0  0  0  0  0  0  0  0  0  0
   50.8768   34.8643   42.2199 H   0  0  0  0  0  0  0  0  0  0  0  0
   49.8913   35.4707   43.5451 H   0  0  0  0  0  0  0  0  0  0  0  0
   48.0680   32.5073   40.4601 H   0  0  0  0  0  0  0  0  0  0  0  0
   49.1992   31.0541   38.7505 H   0  0  0  0  0  0  0  0  0  0  0  0
   52.8435   31.5991   40.9593 H   0  0  0  0  0  0  0  0  0  0  0  0
   47.8395   32.8828   45.7657 H   0  0  0  0  0  0  0  0  0  0  0  0
   47.3558   30.7972   47.0248 H   0  0  0  0  0  0  0  0  0  0  0  0
   45.6429   29.1969   46.1304 H   0  0  0  0  0  0  0  0  0  0  0  0
   44.4575   29.7480   43.9758 H   0  0  0  0  0  0  0  0  0  0  0  0
   44.6664   31.9415   40.6397 H   0  0  0  0  0  0  0  0  0  0  0  0
   45.7438   32.9507   41.6405 H   0  0  0  0  0  0  0  0  0  0  0  0
   43.8381   34.2225   42.5345 H   0  0  0  0  0  0  0  0  0  0  0  0
   43.6339   34.1701   40.7635 H   0  0  0  0  0  0  0  0  0  0  0  0
   42.0613   33.0311   42.8204 H   0  0  0  0  0  0  0  0  0  0  0  0
   41.4243   31.0299   41.6730 H   0  0  0  0  0  0  0  0  0  0  0  0
   42.8562   31.2660   40.6139 H   0  0  0  0  0  0  0  0  0  0  0  0
   42.8366   30.8108   43.6574 H   0  0  0  0  0  0  0  0  0  0  0  0
   43.5322   29.7374   42.4262 H   0  0  0  0  0  0  0  0  0  0  0  0
  2  1  1  0
  2 12  1  0
  3  2  1  0
  4  3  1  0
  4  5  1  0
  5  1  1  0
  6 11  1  0
  6  1  1  0
  7  6  2  0
  8  9  2  0
  8  7  1  0
  9 10  1  0
 10 11  2  0
 12 13  2  0
 12 14  1  0
 14 15  2  0
 15 16  1  0
 17 16  2  0
 18 17  1  0
 19 14  1  0
 19 18  2  0
 20 19  1  0
 21 22  1  0
 21 20  1  0
 22 23  1  0
 24 23  1  0
 24 25  1  0
 25 20  1  0
  1 26  1  1
  2 27  1  6
  3 28  1  0
  3 29  1  0
  4 30  1  0
  4 31  1  0
  5 32  1  0
  5 33  1  0
  7 34  1  0
  8 35  1  0
 10 36  1  0
 15 37  1  0
 16 38  1  0
 17 39  1  0
 18 40  1  0
 21 41  1  0
 21 42  1  0
 22 43  1  0
 22 44  1  0
 23 45  1  0
 24 46  1  0
 24 47  1  0
 25 48  1  0
 25 49  1  0
M  ISO  8  26  13  27  13  28  13  29  13  30  13  31  13  32  13  33  13
M  ISO  8  34  14  35  14  36  14  37  14  38  14  39  14  40  14  41  13
M  ISO  8  42  13  43  13  44  13  45   5  46  13  47  13  48  13  49  13
M  END
>  <minimizedAffinity>  (1) 
-5.55969906

>  <minimizedRMSD>  (1) 
2.18422627

$$$$
