
     RDKit          3D

 39 43  0  0  0  0  0  0  0  0999 V2000
   46.1230   33.6700   44.6680 C   0  0  0  0  0  0  0  0  0  0  0  0
   45.4310   34.5510   45.5250 C   0  0  0  0  0  0  0  0  0  0  0  0
   45.1150   33.9050   46.6600 N   0  0  0  0  0  0  0  0  0  0  0  0
   45.5650   32.6330   46.6010 C   0  0  0  0  0  0  0  0  0  0  0  0
   45.5050   31.5880   47.4940 C   0  0  0  0  0  0  0  0  0  0  0  0
   46.0810   30.3620   47.1540 C   0  0  0  0  0  0  0  0  0  0  0  0
   46.7090   30.1990   45.9150 C   0  0  0  0  0  0  0  0  0  0  0  0
   46.7340   31.2830   45.0640 C   0  0  0  0  0  0  0  0  0  0  0  0
   46.1790   32.4980   45.3760 C   0  0  0  0  0  0  0  0  0  0  0  0
   48.6060   34.4140   42.1110 C   0  0  0  0  0  0  0  0  0  0  0  0
   47.7940   34.5480   40.9500 C   0  0  0  0  0  0  0  0  0  0  0  0
   46.3850   34.3760   41.0430 C   0  0  0  0  0  0  0  0  0  0  0  0
   45.8710   34.0830   42.2750 N   0  0  0  0  0  0  0  0  0  0  0  0
   46.6620   33.9620   43.3630 C   0  0  0  0  0  0  0  0  0  0  0  0
   47.9800   34.1230   43.2720 N   0  0  0  0  0  0  0  0  0  0  0  0
   48.4020   34.8470   39.7320 N   0  0  0  0  0  0  0  0  0  0  0  0
   47.4000   30.8030   43.9100 N   0  0  0  0  0  0  0  0  0  0  0  0
   48.7470   30.6580   43.9680 C   0  0  0  0  0  0  0  0  0  0  0  0
   49.1320   30.1810   42.6970 C   0  0  0  0  0  0  0  0  0  0  0  0
   48.0330   30.0560   41.9380 N   0  0  0  0  0  0  0  0  0  0  0  0
   46.9650   30.4220   42.6410 C   0  0  0  0  0  0  0  0  0  0  0  0
   45.5270   30.4680   42.2860 C   0  0  0  0  0  0  0  0  0  0  0  0
   45.2020   30.8690   40.9760 C   0  0  0  0  0  0  0  0  0  0  0  0
   43.3080   30.7680   41.0180 S   0  0  0  0  0  0  0  0  0  0  0  0
   43.3170   30.2320   42.7100 C   0  0  0  0  0  0  0  0  0  0  0  0
   44.5410   30.1590   43.1220 N   0  0  0  0  0  0  0  0  0  0  0  0
   45.1886   35.6001   45.3000 H   0  0  0  0  0  0  0  0  0  0  0  0
   44.6064   34.3176   47.4550 H   0  0  0  0  0  0  0  0  0  0  0  0
   45.0079   31.7170   48.4668 H   0  0  0  0  0  0  0  0  0  0  0  0
   46.0406   29.5219   47.8629 H   0  0  0  0  0  0  0  0  0  0  0  0
   47.1665   29.2402   45.6299 H   0  0  0  0  0  0  0  0  0  0  0  0
   49.6975   34.5420   42.0649 H   0  0  0  0  0  0  0  0  0  0  0  0
   45.7362   34.4747   40.1602 H   0  0  0  0  0  0  0  0  0  0  0  0
   49.4236   34.9683   39.6824 H   0  0  0  0  0  0  0  0  0  0  0  0
   47.8297   34.9467   38.8815 H   0  0  0  0  0  0  0  0  0  0  0  0
   49.4023   30.8682   44.8261 H   0  0  0  0  0  0  0  0  0  0  0  0
   50.1603   29.9505   42.3816 H   0  0  0  0  0  0  0  0  0  0  0  0
   45.8672   31.1620   40.1504 H   0  0  0  0  0  0  0  0  0  0  0  0
   42.4257   29.9994   43.3112 H   0  0  0  0  0  0  0  0  0  0  0  0
  1  9  1  0
  1  2  2  0
  2  3  1  0
  4  3  1  0
  4  5  2  0
  6  5  1  0
  7  6  2  0
  8  9  2  0
  8  7  1  0
  9  4  1  0
 10 15  2  0
 11 12  2  0
 11 10  1  0
 12 13  1  0
 13 14  2  0
 14  1  1  0
 15 14  1  0
 16 11  1  0
 17 18  1  0
 17  8  1  0
 19 18  2  0
 20 21  2  0
 20 19  1  0
 21 17  1  0
 22 21  1  0
 22 26  1  0
 23 24  1  0
 23 22  2  0
 24 25  1  0
 25 26  2  0
  2 27  1  0
  3 28  1  0
  5 29  1  0
  6 30  1  0
  7 31  1  0
 10 32  1  0
 12 33  1  0
 16 34  1  0
 16 35  1  0
 18 36  1  0
 19 37  1  0
 23 38  1  0
 25 39  1  0
M  ISO  8  27  14  28   9  29  14  30  14  31  14  32  14  33  14  36  14
M  ISO  3  37  14  38  14  39  14
M  END
>  <minimizedAffinity>  (1) 
-4.9146843

>  <minimizedRMSD>  (1) 
0.57829231

$$$$
