
     RDKit          3D

 36 39  0  0  0  0  0  0  0  0999 V2000
   46.3960   33.5770   44.5170 C   0  0  0  0  0  0  0  0  0  0  0  0
   45.6620   34.3830   45.4180 C   0  0  0  0  0  0  0  0  0  0  0  0
   45.3370   33.6520   46.4970 N   0  0  0  0  0  0  0  0  0  0  0  0
   45.8170   32.3990   46.3630 C   0  0  0  0  0  0  0  0  0  0  0  0
   45.7670   31.2900   47.1780 C   0  0  0  0  0  0  0  0  0  0  0  0
   46.3800   30.1030   46.7690 C   0  0  0  0  0  0  0  0  0  0  0  0
   47.0420   30.0420   45.5350 C   0  0  0  0  0  0  0  0  0  0  0  0
   47.0540   31.1870   44.7680 C   0  0  0  0  0  0  0  0  0  0  0  0
   46.4670   32.3530   45.1460 C   0  0  0  0  0  0  0  0  0  0  0  0
   48.8990   34.6630   42.1050 C   0  0  0  0  0  0  0  0  0  0  0  0
   48.1220   34.7600   40.9170 C   0  0  0  0  0  0  0  0  0  0  0  0
   46.7540   34.4500   40.9360 C   0  0  0  0  0  0  0  0  0  0  0  0
   46.2070   34.0590   42.1270 N   0  0  0  0  0  0  0  0  0  0  0  0
   46.9580   33.9720   43.2500 C   0  0  0  0  0  0  0  0  0  0  0  0
   48.2560   34.2660   43.2240 N   0  0  0  0  0  0  0  0  0  0  0  0
   48.7320   35.1640   39.7300 N   0  0  0  0  0  0  0  0  0  0  0  0
   47.7420   30.7980   43.5900 N   0  0  0  0  0  0  0  0  0  0  0  0
   49.1010   30.8060   43.6100 C   0  0  0  0  0  0  0  0  0  0  0  0
   49.4990   30.3830   42.3260 C   0  0  0  0  0  0  0  0  0  0  0  0
   48.4040   30.1360   41.5790 N   0  0  0  0  0  0  0  0  0  0  0  0
   47.3360   30.3780   42.3230 C   0  0  0  0  0  0  0  0  0  0  0  0
   45.9130   30.2690   42.0240 C   0  0  0  0  0  0  0  0  0  0  0  0
   45.3820   31.0990   41.2420 O   0  0  0  0  0  0  0  0  0  0  0  0
   45.1840   29.2440   42.6160 O   0  0  0  0  0  0  0  0  0  0  0  0
   45.3993   35.4395   45.2604 H   0  0  0  0  0  0  0  0  0  0  0  0
   44.8011   33.9971   47.3061 H   0  0  0  0  0  0  0  0  0  0  0  0
   45.2470   31.3385   48.1461 H   0  0  0  0  0  0  0  0  0  0  0  0
   46.3430   29.2146   47.4166 H   0  0  0  0  0  0  0  0  0  0  0  0
   47.5317   29.1184   45.1929 H   0  0  0  0  0  0  0  0  0  0  0  0
   49.9731   34.9003   42.1115 H   0  0  0  0  0  0  0  0  0  0  0  0
   46.1423   34.5190   40.0244 H   0  0  0  0  0  0  0  0  0  0  0  0
   49.7366   35.3911   39.7186 H   0  0  0  0  0  0  0  0  0  0  0  0
   48.1780   35.2353   38.8646 H   0  0  0  0  0  0  0  0  0  0  0  0
   49.7529   31.0841   44.4512 H   0  0  0  0  0  0  0  0  0  0  0  0
   50.5394   30.2718   41.9866 H   0  0  0  0  0  0  0  0  0  0  0  0
   44.2166   29.1515   42.4269 H   0  0  0  0  0  0  0  0  0  0  0  0
  1  9  1  0
  1  2  2  0
  2  3  1  0
  4  3  1  0
  4  5  2  0
  6  5  1  0
  7  6  2  0
  8  9  2  0
  8  7  1  0
  9  4  1  0
 10 15  2  0
 11 12  2  0
 11 10  1  0
 12 13  1  0
 13 14  2  0
 14  1  1  0
 15 14  1  0
 16 11  1  0
 17 18  1  0
 17  8  1  0
 19 18  2  0
 20 21  2  0
 20 19  1  0
 21 17  1  0
 22 21  1  0
 22 24  1  0
 23 22  2  0
  2 25  1  0
  3 26  1  0
  5 27  1  0
  6 28  1  0
  7 29  1  0
 10 30  1  0
 12 31  1  0
 16 32  1  0
 16 33  1  0
 18 34  1  0
 19 35  1  0
 24 36  1  0
M  ISO  8  25  14  26   9  27  14  28  14  29  14  30  14  31  14  34  14
M  ISO  2  35  14  36   3
M  END
>  <minimizedAffinity>  (1) 
-4.70752573

>  <minimizedRMSD>  (1) 
0.505324543

$$$$
