
     RDKit          3D

 39 42  0  0  0  0  0  0  0  0999 V2000
   46.1260   33.6680   44.6510 C   0  0  0  0  0  0  0  0  0  0  0  0
   45.4230   34.5470   45.5040 C   0  0  0  0  0  0  0  0  0  0  0  0
   45.1140   33.9090   46.6420 N   0  0  0  0  0  0  0  0  0  0  0  0
   45.5760   32.6400   46.5960 C   0  0  0  0  0  0  0  0  0  0  0  0
   45.5340   31.6010   47.4940 C   0  0  0  0  0  0  0  0  0  0  0  0
   46.1250   30.3840   47.1580 C   0  0  0  0  0  0  0  0  0  0  0  0
   46.7530   30.2150   45.9260 C   0  0  0  0  0  0  0  0  0  0  0  0
   46.7620   31.2960   45.0670 C   0  0  0  0  0  0  0  0  0  0  0  0
   46.1960   32.4960   45.3690 C   0  0  0  0  0  0  0  0  0  0  0  0
   48.6150   34.4710   42.1180 C   0  0  0  0  0  0  0  0  0  0  0  0
   47.8140   34.5500   40.9450 C   0  0  0  0  0  0  0  0  0  0  0  0
   46.4330   34.3240   41.0200 C   0  0  0  0  0  0  0  0  0  0  0  0
   45.9070   34.0310   42.2440 N   0  0  0  0  0  0  0  0  0  0  0  0
   46.6700   33.9580   43.3510 C   0  0  0  0  0  0  0  0  0  0  0  0
   47.9810   34.1740   43.2740 N   0  0  0  0  0  0  0  0  0  0  0  0
   48.4240   34.8570   39.7300 N   0  0  0  0  0  0  0  0  0  0  0  0
   47.4250   30.8130   43.9120 N   0  0  0  0  0  0  0  0  0  0  0  0
   48.7910   30.6660   43.9740 C   0  0  0  0  0  0  0  0  0  0  0  0
   49.1620   30.1810   42.7030 C   0  0  0  0  0  0  0  0  0  0  0  0
   48.0640   30.0500   41.9290 N   0  0  0  0  0  0  0  0  0  0  0  0
   47.0050   30.4260   42.6430 C   0  0  0  0  0  0  0  0  0  0  0  0
   45.5630   30.4530   42.3040 C   0  0  0  0  0  0  0  0  0  0  0  0
   45.3480   30.6960   40.8210 C   0  0  0  0  0  0  0  0  0  0  0  0
   45.1688   35.5916   45.2712 H   0  0  0  0  0  0  0  0  0  0  0  0
   44.6012   34.3241   47.4330 H   0  0  0  0  0  0  0  0  0  0  0  0
   45.0391   31.7282   48.4681 H   0  0  0  0  0  0  0  0  0  0  0  0
   46.0952   29.5486   47.8730 H   0  0  0  0  0  0  0  0  0  0  0  0
   47.2224   29.2596   45.6489 H   0  0  0  0  0  0  0  0  0  0  0  0
   49.7009   34.6438   42.0856 H   0  0  0  0  0  0  0  0  0  0  0  0
   45.7965   34.3808   40.1247 H   0  0  0  0  0  0  0  0  0  0  0  0
   49.4402   35.0205   39.6907 H   0  0  0  0  0  0  0  0  0  0  0  0
   47.8586   34.9204   38.8714 H   0  0  0  0  0  0  0  0  0  0  0  0
   49.4501   30.8800   44.8283 H   0  0  0  0  0  0  0  0  0  0  0  0
   50.1898   29.9453   42.3899 H   0  0  0  0  0  0  0  0  0  0  0  0
   45.1127   29.4874   42.5776 H   0  0  0  0  0  0  0  0  0  0  0  0
   45.0912   31.2753   42.8619 H   0  0  0  0  0  0  0  0  0  0  0  0
   44.6247   31.5135   40.6845 H   0  0  0  0  0  0  0  0  0  0  0  0
   46.3044   30.9705   40.3520 H   0  0  0  0  0  0  0  0  0  0  0  0
   44.9591   29.7802   40.3520 H   0  0  0  0  0  0  0  0  0  0  0  0
  1  9  1  0
  1  2  2  0
  2  3  1  0
  4  3  1  0
  4  5  2  0
  6  5  1  0
  7  6  2  0
  8  9  2  0
  8  7  1  0
  9  4  1  0
 10 15  2  0
 11 12  2  0
 11 10  1  0
 12 13  1  0
 13 14  2  0
 14  1  1  0
 15 14  1  0
 16 11  1  0
 17 18  1  0
 17  8  1  0
 19 18  2  0
 20 21  2  0
 20 19  1  0
 21 17  1  0
 22 21  1  0
 23 22  1  0
  2 24  1  0
  3 25  1  0
  5 26  1  0
  6 27  1  0
  7 28  1  0
 10 29  1  0
 12 30  1  0
 16 31  1  0
 16 32  1  0
 18 33  1  0
 19 34  1  0
 22 35  1  0
 22 36  1  0
 23 37  1  0
 23 38  1  0
 23 39  1  0
M  ISO  8  24  14  25   9  26  14  27  14  28  14  29  14  30  14  33  14
M  ISO  6  34  14  35   8  36   8  37   8  38   8  39   8
M  END
>  <minimizedAffinity>  (1) 
-4.69676065

>  <minimizedRMSD>  (1) 
0.614376426

$$$$
