
     RDKit          3D

 35 38  0  0  0  0  0  0  0  0999 V2000
   46.3910   33.5730   44.5160 C   0  0  0  0  0  0  0  0  0  0  0  0
   45.6570   34.3770   45.4180 C   0  0  0  0  0  0  0  0  0  0  0  0
   45.3370   33.6510   46.4990 N   0  0  0  0  0  0  0  0  0  0  0  0
   45.8200   32.3980   46.3660 C   0  0  0  0  0  0  0  0  0  0  0  0
   45.7740   31.2890   47.1850 C   0  0  0  0  0  0  0  0  0  0  0  0
   46.3870   30.1030   46.7710 C   0  0  0  0  0  0  0  0  0  0  0  0
   47.0380   30.0400   45.5450 C   0  0  0  0  0  0  0  0  0  0  0  0
   47.0500   31.1820   44.7720 C   0  0  0  0  0  0  0  0  0  0  0  0
   46.4660   32.3510   45.1480 C   0  0  0  0  0  0  0  0  0  0  0  0
   48.8990   34.6580   42.1090 C   0  0  0  0  0  0  0  0  0  0  0  0
   48.1280   34.7480   40.9140 C   0  0  0  0  0  0  0  0  0  0  0  0
   46.7590   34.4320   40.9360 C   0  0  0  0  0  0  0  0  0  0  0  0
   46.1990   34.0410   42.1250 N   0  0  0  0  0  0  0  0  0  0  0  0
   46.9530   33.9630   43.2440 C   0  0  0  0  0  0  0  0  0  0  0  0
   48.2510   34.2610   43.2270 N   0  0  0  0  0  0  0  0  0  0  0  0
   48.7260   35.1440   39.7280 N   0  0  0  0  0  0  0  0  0  0  0  0
   47.7540   30.7980   43.5990 N   0  0  0  0  0  0  0  0  0  0  0  0
   49.1120   30.7010   43.6730 C   0  0  0  0  0  0  0  0  0  0  0  0
   49.5270   30.3070   42.3840 C   0  0  0  0  0  0  0  0  0  0  0  0
   48.4480   30.1780   41.5870 N   0  0  0  0  0  0  0  0  0  0  0  0
   47.3680   30.4690   42.3020 C   0  0  0  0  0  0  0  0  0  0  0  0
   45.9680   30.4840   41.9450 C   0  0  0  0  0  0  0  0  0  0  0  0
   45.6150   30.9080   40.8170 O   0  0  0  0  0  0  0  0  0  0  0  0
   45.3904   35.4322   45.2582 H   0  0  0  0  0  0  0  0  0  0  0  0
   44.8030   33.9975   47.3088 H   0  0  0  0  0  0  0  0  0  0  0  0
   45.2592   31.3376   48.1559 H   0  0  0  0  0  0  0  0  0  0  0  0
   46.3539   29.2148   47.4191 H   0  0  0  0  0  0  0  0  0  0  0  0
   47.5252   29.1146   45.2041 H   0  0  0  0  0  0  0  0  0  0  0  0
   49.9719   34.9004   42.1212 H   0  0  0  0  0  0  0  0  0  0  0  0
   46.1512   34.4967   40.0214 H   0  0  0  0  0  0  0  0  0  0  0  0
   49.7293   35.3761   39.7095 H   0  0  0  0  0  0  0  0  0  0  0  0
   48.1671   35.2062   38.8651 H   0  0  0  0  0  0  0  0  0  0  0  0
   49.7479   30.8897   44.5505 H   0  0  0  0  0  0  0  0  0  0  0  0
   50.5688   30.1323   42.0771 H   0  0  0  0  0  0  0  0  0  0  0  0
   45.2130   30.1248   42.6598 H   0  0  0  0  0  0  0  0  0  0  0  0
  1  9  1  0
  1  2  2  0
  2  3  1  0
  4  3  1  0
  4  5  2  0
  6  5  1  0
  7  6  2  0
  8  9  2  0
  8  7  1  0
  9  4  1  0
 10 15  2  0
 11 12  2  0
 11 10  1  0
 12 13  1  0
 13 14  2  0
 14  1  1  0
 15 14  1  0
 16 11  1  0
 17 18  1  0
 17  8  1  0
 19 18  2  0
 20 21  2  0
 20 19  1  0
 21 17  1  0
 22 21  1  0
 23 22  2  0
  2 24  1  0
  3 25  1  0
  5 26  1  0
  6 27  1  0
  7 28  1  0
 10 29  1  0
 12 30  1  0
 16 31  1  0
 16 32  1  0
 18 33  1  0
 19 34  1  0
 22 35  1  0
M  ISO  8  24  14  25   9  26  14  27  14  28  14  29  14  30  14  33  14
M  ISO  2  34  14  35   6
M  END
>  <minimizedAffinity>  (1) 
-4.69086885

>  <minimizedRMSD>  (1) 
0.177251607

$$$$
