
     RDKit          3D

 23 25  0  0  0  0  0  0  0  0999 V2000
   44.9340   35.7180   43.0230 C   0  0  0  0  0  0  0  0  0  0  0  0
   45.3130   36.9020   43.0680 O   0  0  0  0  0  0  0  0  0  0  0  0
   44.5750   33.4280   39.0430 N   0  0  0  0  0  0  0  0  0  0  0  0
   45.8460   33.4790   39.4260 C   0  0  0  0  0  0  0  0  0  0  0  0
   45.8760   34.1530   40.5800 N   0  0  0  0  0  0  0  0  0  0  0  0
   44.6360   34.5130   40.9030 C   0  0  0  0  0  0  0  0  0  0  0  0
   44.0810   35.2090   41.9570 C   0  0  0  0  0  0  0  0  0  0  0  0
   42.7540   35.4260   42.0150 N   0  0  0  0  0  0  0  0  0  0  0  0
   41.9360   34.9630   41.0370 C   0  0  0  0  0  0  0  0  0  0  0  0
   42.4680   34.2790   39.9980 N   0  0  0  0  0  0  0  0  0  0  0  0
   43.7920   34.0540   39.9240 C   0  0  0  0  0  0  0  0  0  0  0  0
   44.7570   34.9170   45.3480 C   0  0  0  0  0  0  0  0  0  0  0  0
   45.3860   34.8520   44.0950 C   0  0  0  0  0  0  0  0  0  0  0  0
   46.4400   33.9420   43.9220 C   0  0  0  0  0  0  0  0  0  0  0  0
   46.7900   33.1740   44.9910 N   0  0  0  0  0  0  0  0  0  0  0  0
   46.1700   33.2580   46.1760 C   0  0  0  0  0  0  0  0  0  0  0  0
   45.1490   34.1320   46.3630 N   0  0  0  0  0  0  0  0  0  0  0  0
   44.2399   32.9685   38.1842 H   0  0  0  0  0  0  0  0  0  0  0  0
   46.7083   33.0491   38.8953 H   0  0  0  0  0  0  0  0  0  0  0  0
   40.8518   35.1417   41.0881 H   0  0  0  0  0  0  0  0  0  0  0  0
   43.9281   35.6239   45.5005 H   0  0  0  0  0  0  0  0  0  0  0  0
   46.9640   33.8522   42.9590 H   0  0  0  0  0  0  0  0  0  0  0  0
   46.4921   32.6117   47.0058 H   0  0  0  0  0  0  0  0  0  0  0  0
  1  2  2  0
  1 13  1  0
  3  4  1  0
  3 11  1  0
  4  5  2  0
  5  6  1  0
  6  7  2  0
  7  8  1  0
  7  1  1  0
  9  8  2  0
 10  9  1  0
 11 10  2  0
 11  6  1  0
 12 17  2  0
 13 12  1  0
 14 13  2  0
 14 15  1  0
 15 16  2  0
 16 17  1  0
  3 18  1  0
  4 19  1  0
  9 20  1  0
 12 21  1  0
 14 22  1  0
 16 23  1  0
M  ISO  6  18   9  19  14  20  14  21  14  22  14  23  14
M  END
>  <minimizedAffinity>  (1) 
-4.61097527

>  <minimizedRMSD>  (1) 
0.580324948

$$$$
