
     RDKit          3D

 22 23  0  0  0  0  0  0  0  0999 V2000
   45.0600   35.6100   42.9610 C   0  0  0  0  0  0  0  0  0  0  0  0
   45.2720   36.8450   43.0930 O   0  0  0  0  0  0  0  0  0  0  0  0
   44.8840   34.7730   45.2630 C   0  0  0  0  0  0  0  0  0  0  0  0
   45.5430   34.7450   44.0120 C   0  0  0  0  0  0  0  0  0  0  0  0
   46.6220   33.8960   43.8410 C   0  0  0  0  0  0  0  0  0  0  0  0
   47.0200   33.1070   44.8870 N   0  0  0  0  0  0  0  0  0  0  0  0
   46.3770   33.1520   46.0690 C   0  0  0  0  0  0  0  0  0  0  0  0
   45.3160   33.9800   46.2510 N   0  0  0  0  0  0  0  0  0  0  0  0
   44.3510   35.1460   41.7730 C   0  0  0  0  0  0  0  0  0  0  0  0
   44.9590   34.2220   40.9310 C   0  0  0  0  0  0  0  0  0  0  0  0
   44.2710   33.7860   39.7950 C   0  0  0  0  0  0  0  0  0  0  0  0
   43.0070   34.2430   39.4800 C   0  0  0  0  0  0  0  0  0  0  0  0
   42.3890   35.1690   40.3160 C   0  0  0  0  0  0  0  0  0  0  0  0
   43.0880   35.5830   41.4310 C   0  0  0  0  0  0  0  0  0  0  0  0
   44.0243   35.4404   45.4226 H   0  0  0  0  0  0  0  0  0  0  0  0
   47.1527   33.8554   42.8783 H   0  0  0  0  0  0  0  0  0  0  0  0
   46.7148   32.5109   46.8966 H   0  0  0  0  0  0  0  0  0  0  0  0
   45.9658   33.8399   41.1552 H   0  0  0  0  0  0  0  0  0  0  0  0
   44.7529   33.0543   39.1298 H   0  0  0  0  0  0  0  0  0  0  0  0
   42.4934   33.8793   38.5778 H   0  0  0  0  0  0  0  0  0  0  0  0
   41.3828   35.5554   40.0961 H   0  0  0  0  0  0  0  0  0  0  0  0
   42.6035   36.3140   42.0950 H   0  0  0  0  0  0  0  0  0  0  0  0
  1  2  2  0
  1  4  1  0
  3  8  2  0
  4  3  1  0
  5  4  2  0
  5  6  1  0
  6  7  2  0
  7  8  1  0
  9  1  1  0
 10  9  2  0
 11 10  1  0
 12 11  2  0
 12 13  1  0
 13 14  2  0
 14  9  1  0
  3 15  1  0
  5 16  1  0
  7 17  1  0
 10 18  1  0
 11 19  1  0
 12 20  1  0
 13 21  1  0
 14 22  1  0
M  ISO  8  15  14  16  14  17  14  18  14  19  14  20  14  21  14  22  14
M  END
>  <minimizedAffinity>  (1) 
-4.32843399

>  <minimizedRMSD>  (1) 
0.579562247

$$$$
