
     RDKit          3D

 22 23  0  0  0  0  0  0  0  0999 V2000
   45.0830   35.4210   42.9220 C   0  0  0  0  0  0  0  0  0  0  0  0
   45.2720   36.6640   43.0390 O   0  0  0  0  0  0  0  0  0  0  0  0
   44.9530   34.6350   45.2650 C   0  0  0  0  0  0  0  0  0  0  0  0
   45.5740   34.6060   44.0030 C   0  0  0  0  0  0  0  0  0  0  0  0
   46.6800   33.7620   43.8350 C   0  0  0  0  0  0  0  0  0  0  0  0
   47.0970   33.0160   44.8910 N   0  0  0  0  0  0  0  0  0  0  0  0
   46.4830   33.0620   46.0920 C   0  0  0  0  0  0  0  0  0  0  0  0
   45.4160   33.8720   46.2660 N   0  0  0  0  0  0  0  0  0  0  0  0
   44.3890   35.0040   41.6970 C   0  0  0  0  0  0  0  0  0  0  0  0
   43.1450   35.5540   41.4460 C   0  0  0  0  0  0  0  0  0  0  0  0
   42.4540   35.1840   40.2940 C   0  0  0  0  0  0  0  0  0  0  0  0
   43.0530   34.2670   39.4400 C   0  0  0  0  0  0  0  0  0  0  0  0
   44.2990   33.7180   39.6950 C   0  0  0  0  0  0  0  0  0  0  0  0
   44.9960   34.0800   40.8390 C   0  0  0  0  0  0  0  0  0  0  0  0
   44.0829   35.2871   45.4316 H   0  0  0  0  0  0  0  0  0  0  0  0
   47.2001   33.7047   42.8674 H   0  0  0  0  0  0  0  0  0  0  0  0
   46.8494   32.4434   46.9245 H   0  0  0  0  0  0  0  0  0  0  0  0
   42.7053   36.2767   42.1492 H   0  0  0  0  0  0  0  0  0  0  0  0
   41.4635   35.6056   40.0677 H   0  0  0  0  0  0  0  0  0  0  0  0
   42.5182   33.9655   38.5273 H   0  0  0  0  0  0  0  0  0  0  0  0
   44.7360   32.9950   38.9905 H   0  0  0  0  0  0  0  0  0  0  0  0
   45.9866   33.6573   41.0626 H   0  0  0  0  0  0  0  0  0  0  0  0
  1  2  2  0
  1  4  1  0
  3  8  2  0
  4  3  1  0
  5  4  2  0
  5  6  1  0
  6  7  2  0
  7  8  1  0
  9  1  1  0
 10  9  2  0
 11 10  1  0
 12 13  1  0
 12 11  2  0
 13 14  2  0
 14  9  1  0
  3 15  1  0
  5 16  1  0
  7 17  1  0
 10 18  1  0
 11 19  1  0
 12 20  1  0
 13 21  1  0
 14 22  1  0
M  ISO  8  15  14  16  14  17  14  18  14  19  14  20  14  21  14  22  14
M  END
>  <minimizedAffinity>  (1) 
-4.25119066

>  <minimizedRMSD>  (1) 
0.750974953

$$$$
