
     RDKit          3D

 24 25  0  0  0  0  0  0  0  0999 V2000
   44.8930   34.8000   45.2570 C   0  0  0  0  0  0  0  0  0  0  0  0
   45.5540   34.7840   44.0080 C   0  0  0  0  0  0  0  0  0  0  0  0
   46.6240   33.9150   43.8240 C   0  0  0  0  0  0  0  0  0  0  0  0
   46.9900   33.1160   44.8500 N   0  0  0  0  0  0  0  0  0  0  0  0
   46.3480   33.1420   46.0360 C   0  0  0  0  0  0  0  0  0  0  0  0
   45.3090   33.9760   46.2410 N   0  0  0  0  0  0  0  0  0  0  0  0
   45.0630   35.6920   42.9860 C   0  0  0  0  0  0  0  0  0  0  0  0
   45.2520   36.9080   43.1680 O   0  0  0  0  0  0  0  0  0  0  0  0
   44.4020   35.2520   41.8340 N   0  0  0  0  0  0  0  0  0  0  0  0
   44.9370   34.3660   40.8250 C   0  0  0  0  0  0  0  0  0  0  0  0
   43.7930   33.5920   40.2580 C   0  0  0  0  0  0  0  0  0  0  0  0
   42.5940   34.1270   41.0090 C   0  0  0  0  0  0  0  0  0  0  0  0
   43.0690   35.5310   41.3350 C   0  0  0  0  0  0  0  0  0  0  0  0
   44.0449   35.4798   45.4258 H   0  0  0  0  0  0  0  0  0  0  0  0
   47.1604   33.8790   42.8643 H   0  0  0  0  0  0  0  0  0  0  0  0
   46.6764   32.4742   46.8461 H   0  0  0  0  0  0  0  0  0  0  0  0
   45.4251   34.9510   40.0316 H   0  0  0  0  0  0  0  0  0  0  0  0
   45.6861   33.6885   41.2608 H   0  0  0  0  0  0  0  0  0  0  0  0
   43.6929   33.7738   39.1778 H   0  0  0  0  0  0  0  0  0  0  0  0
   43.9162   32.5046   40.3689 H   0  0  0  0  0  0  0  0  0  0  0  0
   41.6933   34.1403   40.3777 H   0  0  0  0  0  0  0  0  0  0  0  0
   42.3004   33.5297   41.8848 H   0  0  0  0  0  0  0  0  0  0  0  0
   43.0963   36.1684   40.4389 H   0  0  0  0  0  0  0  0  0  0  0  0
   42.4239   36.0812   42.0358 H   0  0  0  0  0  0  0  0  0  0  0  0
  1  6  2  0
  2  1  1  0
  3  2  2  0
  3  4  1  0
  4  5  2  0
  5  6  1  0
  7  8  2  0
  7  2  1  0
  9  7  1  0
 10  9  1  0
 11 10  1  0
 11 12  1  0
 12 13  1  0
 13  9  1  0
  1 14  1  0
  3 15  1  0
  5 16  1  0
 10 17  1  0
 10 18  1  0
 11 19  1  0
 11 20  1  0
 12 21  1  0
 12 22  1  0
 13 23  1  0
 13 24  1  0
M  ISO  8  14  14  15  14  16  14  17  13  18  13  19  13  20  13  21  13
M  ISO  3  22  13  23  13  24  13
M  END
>  <minimizedAffinity>  (1) 
-4.09184217

>  <minimizedRMSD>  (1) 
0.417652428

$$$$
