
     RDKit          3D

 48 51  0  0  1  0  0  0  0  0999 V2000
   48.9930   33.4260   42.4390 C   0  0  2  0  0  0  0  0  0  0  0  0
   47.6610   33.7660   42.0750 C   0  0  2  0  0  0  0  0  0  0  0  0
   47.7210   35.2920   41.8160 C   0  0  0  0  0  0  0  0  0  0  0  0
   49.1480   35.7190   41.7360 C   0  0  0  0  0  0  0  0  0  0  0  0
   49.7710   34.7770   42.6700 C   0  0  0  0  0  0  0  0  0  0  0  0
   49.8510   32.7170   41.4920 C   0  0  0  0  0  0  0  0  0  0  0  0
   49.2610   32.2820   40.3200 C   0  0  0  0  0  0  0  0  0  0  0  0
   49.9820   31.5830   39.3580 C   0  0  0  0  0  0  0  0  0  0  0  0
   51.3120   31.3690   39.6680 N   0  0  0  0  0  0  0  0  0  0  0  0
   51.8730   31.7910   40.7930 C   0  0  0  0  0  0  0  0  0  0  0  0
   51.1350   32.4510   41.6750 N   0  0  0  0  0  0  0  0  0  0  0  0
   46.5970   33.4750   43.0690 C   0  0  0  0  0  0  0  0  0  0  0  0
   46.4090   34.2140   44.0090 O   0  0  0  0  0  0  0  0  0  0  0  0
   45.6840   32.3640   43.0920 C   0  0  0  0  0  0  0  0  0  0  0  0
   44.6720   32.2360   42.1360 C   0  0  0  0  0  0  0  0  0  0  0  0
   43.7500   31.1890   42.1260 C   0  0  0  0  0  0  0  0  0  0  0  0
   43.8230   30.2130   43.1100 C   0  0  0  0  0  0  0  0  0  0  0  0
   44.8240   30.3160   44.0760 C   0  0  0  0  0  0  0  0  0  0  0  0
   45.7190   31.3810   44.0340 C   0  0  0  0  0  0  0  0  0  0  0  0
   46.5940   31.0180   45.0900 N   0  0  0  0  0  0  0  0  0  0  0  0
   46.3380   31.2410   46.4180 C   0  0  0  0  0  0  0  0  0  0  0  0
   47.2290   30.7220   47.3700 C   0  0  0  0  0  0  0  0  0  0  0  0
   46.9560   30.9590   48.7940 C   0  0  0  0  0  0  0  0  0  0  0  0
   48.3210   30.0110   46.9050 C   0  0  0  0  0  0  0  0  0  0  0  0
   49.1380   29.5330   47.7500 O   0  0  0  0  0  0  0  0  0  0  0  0
   48.5820   29.7880   45.6090 N   0  0  0  0  0  0  0  0  0  0  0  0
   47.7030   30.3020   44.7290 C   0  0  0  0  0  0  0  0  0  0  0  0
   47.9830   30.0700   43.5080 O   0  0  0  0  0  0  0  0  0  0  0  0
   48.8319   32.7427   43.2858 H   0  0  0  0  0  0  0  0  0  0  0  0
   47.3680   33.1433   41.2168 H   0  0  0  0  0  0  0  0  0  0  0  0
   47.2134   35.5248   40.8683 H   0  0  0  0  0  0  0  0  0  0  0  0
   47.2202   35.8266   42.6366 H   0  0  0  0  0  0  0  0  0  0  0  0
   49.5483   35.6037   40.7179 H   0  0  0  0  0  0  0  0  0  0  0  0
   49.3198   36.7786   41.9764 H   0  0  0  0  0  0  0  0  0  0  0  0
   49.6529   35.1219   43.7078 H   0  0  0  0  0  0  0  0  0  0  0  0
   50.8530   34.6725   42.5017 H   0  0  0  0  0  0  0  0  0  0  0  0
   48.1960   32.4938   40.1442 H   0  0  0  0  0  0  0  0  0  0  0  0
   49.5283   31.2273   38.4212 H   0  0  0  0  0  0  0  0  0  0  0  0
   52.9371   31.5960   40.9920 H   0  0  0  0  0  0  0  0  0  0  0  0
   44.5988   33.0017   41.3497 H   0  0  0  0  0  0  0  0  0  0  0  0
   42.9745   31.1377   41.3476 H   0  0  0  0  0  0  0  0  0  0  0  0
   43.1079   29.3774   43.1277 H   0  0  0  0  0  0  0  0  0  0  0  0
   44.9058   29.5577   44.8687 H   0  0  0  0  0  0  0  0  0  0  0  0
   45.4530   31.8145   46.7309 H   0  0  0  0  0  0  0  0  0  0  0  0
   47.6469   30.3592   49.4046 H   0  0  0  0  0  0  0  0  0  0  0  0
   47.0971   32.0259   49.0218 H   0  0  0  0  0  0  0  0  0  0  0  0
   45.9195   30.6694   49.0218 H   0  0  0  0  0  0  0  0  0  0  0  0
   49.4082   29.2537   45.3042 H   0  0  0  0  0  0  0  0  0  0  0  0
  1  5  1  0
  2  1  1  0
  2 12  1  0
  3  2  1  0
  4  3  1  0
  4  5  1  0
  6 11  1  0
  6  1  1  0
  7  6  2  0
  8  9  2  0
  8  7  1  0
  9 10  1  0
 10 11  2  0
 12 14  1  0
 12 13  2  0
 14 19  1  0
 15 14  2  0
 16 15  1  0
 16 17  2  0
 17 18  1  0
 19 18  2  0
 19 20  1  0
 20 21  1  0
 21 22  2  0
 22 23  1  0
 24 22  1  0
 24 25  2  0
 26 24  1  0
 27 20  1  0
 27 26  1  0
 28 27  2  0
  1 29  1  1
  2 30  1  6
  3 31  1  0
  3 32  1  0
  4 33  1  0
  4 34  1  0
  5 35  1  0
  5 36  1  0
  7 37  1  0
  8 38  1  0
 10 39  1  0
 15 40  1  0
 16 41  1  0
 17 42  1  0
 18 43  1  0
 21 44  1  0
 23 45  1  0
 23 46  1  0
 23 47  1  0
 26 48  1  0
M  ISO  8  29  13  30  13  31  13  32  13  33  13  34  13  35  13  36  13
M  ISO  8  37  14  38  14  39  14  40  14  41  14  42  14  43  14  44  14
M  ISO  4  45   8  46   8  47   8  48   9
M  END
>  <minimizedAffinity>  (1) 
-5.46665287

>  <minimizedRMSD>  (1) 
3.47122884

$$$$
