
     RDKit          3D

 18 19  0  0  0  0  0  0  0  0999 V2000
   44.8640   34.7850   45.3280 C   0  0  0  0  0  0  0  0  0  0  0  0
   45.4280   34.7910   44.0540 C   0  0  0  0  0  0  0  0  0  0  0  0
   46.4860   33.9380   43.8010 C   0  0  0  0  0  0  0  0  0  0  0  0
   46.9320   33.1270   44.8050 N   0  0  0  0  0  0  0  0  0  0  0  0
   46.3760   33.1330   46.0320 C   0  0  0  0  0  0  0  0  0  0  0  0
   45.3350   33.9670   46.3010 N   0  0  0  0  0  0  0  0  0  0  0  0
   44.9000   35.6720   43.0460 C   0  0  0  0  0  0  0  0  0  0  0  0
   45.2200   36.8770   43.1120 O   0  0  0  0  0  0  0  0  0  0  0  0
   44.0080   35.2140   41.9530 C   0  0  0  0  0  0  0  0  0  0  0  0
   44.5920   34.5160   40.8540 C   0  0  0  0  0  0  0  0  0  0  0  0
   43.0850   34.2030   39.8460 S   0  0  0  0  0  0  0  0  0  0  0  0
   41.9820   35.0230   41.0140 C   0  0  0  0  0  0  0  0  0  0  0  0
   42.7200   35.4310   41.9720 N   0  0  0  0  0  0  0  0  0  0  0  0
   44.0210   35.4564   45.5484 H   0  0  0  0  0  0  0  0  0  0  0  0
   46.9601   33.9130   42.8087 H   0  0  0  0  0  0  0  0  0  0  0  0
   46.7630   32.4647   46.8153 H   0  0  0  0  0  0  0  0  0  0  0  0
   45.6407   34.2436   40.6642 H   0  0  0  0  0  0  0  0  0  0  0  0
   40.8930   35.1465   40.9197 H   0  0  0  0  0  0  0  0  0  0  0  0
  1  6  2  0
  2  1  1  0
  3  2  2  0
  3  4  1  0
  4  5  2  0
  5  6  1  0
  7  8  2  0
  7  2  1  0
  9 13  1  0
  9  7  1  0
 10  9  2  0
 11 10  1  0
 11 12  1  0
 12 13  2  0
  1 14  1  0
  3 15  1  0
  5 16  1  0
 10 17  1  0
 12 18  1  0
M  ISO  5  14  14  15  14  16  14  17  14  18  14
M  END
>  <minimizedAffinity>  (1) 
-3.84016109

>  <minimizedRMSD>  (1) 
0.583115101

$$$$
