
     RDKit          3D

 19 20  0  0  0  0  0  0  0  0999 V2000
   44.8920   34.8270   45.1960 C   0  0  0  0  0  0  0  0  0  0  0  0
   45.5060   34.8640   43.9450 C   0  0  0  0  0  0  0  0  0  0  0  0
   46.5900   34.0090   43.7050 C   0  0  0  0  0  0  0  0  0  0  0  0
   46.9740   33.1910   44.7270 N   0  0  0  0  0  0  0  0  0  0  0  0
   46.3670   33.1760   45.9220 C   0  0  0  0  0  0  0  0  0  0  0  0
   45.3140   34.0020   46.1640 N   0  0  0  0  0  0  0  0  0  0  0  0
   45.0170   35.7690   42.9330 C   0  0  0  0  0  0  0  0  0  0  0  0
   45.1440   37.0070   43.1490 O   0  0  0  0  0  0  0  0  0  0  0  0
   44.3830   35.3010   41.6670 C   0  0  0  0  0  0  0  0  0  0  0  0
   42.8450   35.3540   41.7340 C   0  0  0  0  0  0  0  0  0  0  0  0
   43.5820   34.0770   41.6060 C   0  0  0  0  0  0  0  0  0  0  0  0
   44.0387   35.4925   45.3937 H   0  0  0  0  0  0  0  0  0  0  0  0
   47.1086   33.9979   42.7350 H   0  0  0  0  0  0  0  0  0  0  0  0
   46.7214   32.4939   46.7089 H   0  0  0  0  0  0  0  0  0  0  0  0
   45.2107   35.6613   41.0385 H   0  0  0  0  0  0  0  0  0  0  0  0
   42.3384   35.6111   42.6760 H   0  0  0  0  0  0  0  0  0  0  0  0
   42.0474   35.8649   41.1747 H   0  0  0  0  0  0  0  0  0  0  0  0
   43.5271   33.5125   40.6635 H   0  0  0  0  0  0  0  0  0  0  0  0
   43.5826   33.1398   42.1819 H   0  0  0  0  0  0  0  0  0  0  0  0
  1  6  2  0
  2  1  1  0
  3  2  2  0
  3  4  1  0
  4  5  2  0
  5  6  1  0
  7  8  2  0
  7  2  1  0
  9 10  1  0
  9  7  1  0
 11  9  1  0
 11 10  1  0
  1 12  1  0
  3 13  1  0
  5 14  1  0
  9 15  1  0
 10 16  1  0
 10 17  1  0
 11 18  1  0
 11 19  1  0
M  ISO  8  12  14  13  14  14  14  15  13  16  13  17  13  18  13  19  13
M  END
>  <minimizedAffinity>  (1) 
-3.55326581

>  <minimizedRMSD>  (1) 
0.388711452

$$$$
