
     RDKit          3D

 48 51  0  0  1  0  0  0  0  0999 V2000
   49.1050   33.3570   42.5940 C   0  0  2  0  0  0  0  0  0  0  0  0
   47.7120   33.5570   42.3860 C   0  0  2  0  0  0  0  0  0  0  0  0
   47.6040   35.0670   42.0350 C   0  0  0  0  0  0  0  0  0  0  0  0
   48.9580   35.5990   41.7320 C   0  0  0  0  0  0  0  0  0  0  0  0
   49.7770   34.7800   42.6340 C   0  0  0  0  0  0  0  0  0  0  0  0
   49.8910   32.6550   41.5800 C   0  0  0  0  0  0  0  0  0  0  0  0
   49.2130   32.1870   40.4650 C   0  0  0  0  0  0  0  0  0  0  0  0
   49.8740   31.4870   39.4640 C   0  0  0  0  0  0  0  0  0  0  0  0
   51.2370   31.3030   39.6670 N   0  0  0  0  0  0  0  0  0  0  0  0
   51.8740   31.7590   40.7370 C   0  0  0  0  0  0  0  0  0  0  0  0
   51.1880   32.4180   41.6610 N   0  0  0  0  0  0  0  0  0  0  0  0
   46.8070   33.2500   43.5190 C   0  0  0  0  0  0  0  0  0  0  0  0
   46.5590   34.0890   44.3540 O   0  0  0  0  0  0  0  0  0  0  0  0
   46.1240   32.0180   43.8060 C   0  0  0  0  0  0  0  0  0  0  0  0
   45.3190   31.3960   42.8550 C   0  0  0  0  0  0  0  0  0  0  0  0
   44.6150   30.2080   43.0990 C   0  0  0  0  0  0  0  0  0  0  0  0
   44.7160   29.6140   44.3500 C   0  0  0  0  0  0  0  0  0  0  0  0
   45.5230   30.2240   45.3280 C   0  0  0  0  0  0  0  0  0  0  0  0
   46.1960   31.3960   45.0160 C   0  0  0  0  0  0  0  0  0  0  0  0
   46.9420   31.5580   46.2190 N   0  0  0  0  0  0  0  0  0  0  0  0
   47.8500   30.5330   46.7110 C   0  0  0  0  0  0  0  0  0  0  0  0
   48.4070   30.8390   48.0620 C   0  0  0  0  0  0  0  0  0  0  0  0
   47.7110   31.6640   48.8840 O   0  0  0  0  0  0  0  0  0  0  0  0
   46.4710   32.0850   48.4430 C   0  0  0  0  0  0  0  0  0  0  0  0
   46.6910   32.7280   47.0390 C   0  0  0  0  0  0  0  0  0  0  0  0
   49.1215   32.7303   43.4979 H   0  0  0  0  0  0  0  0  0  0  0  0
   47.3740   32.8520   41.6123 H   0  0  0  0  0  0  0  0  0  0  0  0
   46.9541   35.1945   41.1567 H   0  0  0  0  0  0  0  0  0  0  0  0
   47.1757   35.6138   42.8880 H   0  0  0  0  0  0  0  0  0  0  0  0
   49.2306   35.4387   40.6784 H   0  0  0  0  0  0  0  0  0  0  0  0
   49.0658   36.6844   41.8746 H   0  0  0  0  0  0  0  0  0  0  0  0
   49.7594   35.1897   43.6547 H   0  0  0  0  0  0  0  0  0  0  0  0
   50.8337   34.7521   42.3298 H   0  0  0  0  0  0  0  0  0  0  0  0
   48.1329   32.3733   40.3715 H   0  0  0  0  0  0  0  0  0  0  0  0
   49.3552   31.1047   38.5725 H   0  0  0  0  0  0  0  0  0  0  0  0
   52.9549   31.5932   40.8563 H   0  0  0  0  0  0  0  0  0  0  0  0
   45.2309   31.8603   41.8617 H   0  0  0  0  0  0  0  0  0  0  0  0
   43.9934   29.7545   42.3129 H   0  0  0  0  0  0  0  0  0  0  0  0
   44.1745   28.6827   44.5726 H   0  0  0  0  0  0  0  0  0  0  0  0
   45.6190   29.7766   46.3283 H   0  0  0  0  0  0  0  0  0  0  0  0
   47.3041   29.5796   46.7658 H   0  0  0  0  0  0  0  0  0  0  0  0
   48.6976   30.4846   46.0116 H   0  0  0  0  0  0  0  0  0  0  0  0
   48.5230   29.8803   48.5887 H   0  0  0  0  0  0  0  0  0  0  0  0
   49.3323   31.3943   47.8489 H   0  0  0  0  0  0  0  0  0  0  0  0
   45.7853   31.2285   48.3648 H   0  0  0  0  0  0  0  0  0  0  0  0
   46.0250   32.8062   49.1437 H   0  0  0  0  0  0  0  0  0  0  0  0
   47.5541   33.4099   47.0405 H   0  0  0  0  0  0  0  0  0  0  0  0
   45.8491   33.3454   46.6924 H   0  0  0  0  0  0  0  0  0  0  0  0
  1  5  1  0
  2  1  1  0
  2 12  1  0
  3  2  1  0
  4  3  1  0
  4  5  1  0
  6 11  1  0
  6  1  1  0
  7  6  2  0
  8  9  2  0
  8  7  1  0
  9 10  1  0
 10 11  2  0
 12 14  1  0
 12 13  2  0
 14 19  2  0
 15 16  2  0
 15 14  1  0
 16 17  1  0
 17 18  2  0
 19 18  1  0
 19 20  1  0
 20 21  1  0
 20 25  1  0
 21 22  1  0
 22 23  1  0
 24 23  1  0
 25 24  1  0
  1 26  1  1
  2 27  1  6
  3 28  1  0
  3 29  1  0
  4 30  1  0
  4 31  1  0
  5 32  1  0
  5 33  1  0
  7 34  1  0
  8 35  1  0
 10 36  1  0
 15 37  1  0
 16 38  1  0
 17 39  1  0
 18 40  1  0
 21 41  1  0
 21 42  1  0
 22 43  1  0
 22 44  1  0
 24 45  1  0
 24 46  1  0
 25 47  1  0
 25 48  1  0
M  ISO  8  26  13  27  13  28  13  29  13  30  13  31  13  32  13  33  13
M  ISO  8  34  14  35  14  36  14  37  14  38  14  39  14  40  14  41  13
M  ISO  7  42  13  43  13  44  13  45  13  46  13  47  13  48  13
M  END
>  <minimizedAffinity>  (1) 
-5.4556756

>  <minimizedRMSD>  (1) 
3.25326347

$$$$
