
     RDKit          3D

 26 27  0  0  0  0  0  0  0  0999 V2000
   45.0410   34.5350   45.3100 C   0  0  0  0  0  0  0  0  0  0  0  0
   45.6800   34.5270   44.0640 C   0  0  0  0  0  0  0  0  0  0  0  0
   46.7650   33.6680   43.9110 C   0  0  0  0  0  0  0  0  0  0  0  0
   47.1540   32.8850   44.9590 N   0  0  0  0  0  0  0  0  0  0  0  0
   46.5110   32.9250   46.1390 C   0  0  0  0  0  0  0  0  0  0  0  0
   45.4540   33.7480   46.3190 N   0  0  0  0  0  0  0  0  0  0  0  0
   45.2090   35.3820   43.0130 C   0  0  0  0  0  0  0  0  0  0  0  0
   45.1720   36.6170   43.2610 O   0  0  0  0  0  0  0  0  0  0  0  0
   44.7620   35.0830   41.6960 N   0  0  0  0  0  0  0  0  0  0  0  0
   43.5530   35.7630   41.2830 C   0  0  0  0  0  0  0  0  0  0  0  0
   42.6960   34.6460   40.6710 C   0  0  0  0  0  0  0  0  0  0  0  0
   43.4000   34.2860   39.4440 N   0  0  0  0  0  0  0  0  0  0  0  0
   44.5650   33.5180   39.8040 C   0  0  0  0  0  0  0  0  0  0  0  0
   45.4390   34.1800   40.8240 C   0  0  0  0  0  0  0  0  0  0  0  0
   44.1801   35.2014   45.4672 H   0  0  0  0  0  0  0  0  0  0  0  0
   47.3042   33.6208   42.9534 H   0  0  0  0  0  0  0  0  0  0  0  0
   46.8482   32.2821   46.9655 H   0  0  0  0  0  0  0  0  0  0  0  0
   43.0452   36.2185   42.1459 H   0  0  0  0  0  0  0  0  0  0  0  0
   43.7467   36.5853   40.5785 H   0  0  0  0  0  0  0  0  0  0  0  0
   42.6337   33.7845   41.3521 H   0  0  0  0  0  0  0  0  0  0  0  0
   41.6597   34.9643   40.4843 H   0  0  0  0  0  0  0  0  0  0  0  0
   43.6857   35.1391   38.9425 H   0  0  0  0  0  0  0  0  0  0  0  0
   44.2306   32.5517   40.2096 H   0  0  0  0  0  0  0  0  0  0  0  0
   45.1684   33.4078   38.8909 H   0  0  0  0  0  0  0  0  0  0  0  0
   45.9034   33.3945   41.4383 H   0  0  0  0  0  0  0  0  0  0  0  0
   46.1697   34.7808   40.2626 H   0  0  0  0  0  0  0  0  0  0  0  0
  1  6  2  0
  2  1  1  0
  3  2  2  0
  3  4  1  0
  4  5  2  0
  5  6  1  0
  7  8  2  0
  7  2  1  0
  9  7  1  0
 10  9  1  0
 11 10  1  0
 12 13  1  0
 12 11  1  0
 13 14  1  0
 14  9  1  0
  1 15  1  0
  3 16  1  0
  5 17  1  0
 10 18  1  0
 10 19  1  0
 11 20  1  0
 11 21  1  0
 12 22  1  0
 13 23  1  0
 13 24  1  0
 14 25  1  0
 14 26  1  0
M  ISO  8  15  14  16  14  17  14  18  13  19  13  20  13  21  13  22   5
M  ISO  4  23  13  24  13  25  13  26  13
M  END
>  <minimizedAffinity>  (1) 
-4.27427006

>  <minimizedRMSD>  (1) 
0.958544016

$$$$
