
     RDKit          3D

 39 42  0  0  1  0  0  0  0  0999 V2000
   45.1940   35.2410   42.9360 C   0  0  0  0  0  0  0  0  0  0  0  0
   45.3670   36.4840   43.0170 O   0  0  0  0  0  0  0  0  0  0  0  0
   44.5040   34.8760   41.7340 N   0  0  0  0  0  0  0  0  0  0  0  0
   43.3860   35.7050   41.3810 C   0  0  0  0  0  0  0  0  0  0  0  0
   42.2770   34.6870   41.0460 C   0  0  0  0  0  0  0  0  0  0  0  0
   42.7290   34.1070   39.7900 N   0  0  0  0  0  0  0  0  0  0  0  0
   43.8210   33.2070   40.0640 C   0  0  0  0  0  0  0  0  0  0  0  0
   44.8930   33.7490   40.9310 C   0  0  1  0  0  0  0  0  0  0  0  0
   45.0530   34.4960   45.2630 C   0  0  0  0  0  0  0  0  0  0  0  0
   45.6880   34.4330   44.0040 C   0  0  0  0  0  0  0  0  0  0  0  0
   46.7640   33.5790   43.8680 C   0  0  0  0  0  0  0  0  0  0  0  0
   47.1670   32.8360   44.9420 N   0  0  0  0  0  0  0  0  0  0  0  0
   46.5330   32.9210   46.1370 C   0  0  0  0  0  0  0  0  0  0  0  0
   45.4690   33.7560   46.3030 N   0  0  0  0  0  0  0  0  0  0  0  0
   46.1810   33.9070   40.2820 N   0  0  0  0  0  0  0  0  0  0  0  0
   47.3240   34.4570   40.7280 C   0  0  0  0  0  0  0  0  0  0  0  0
   48.2830   34.3900   39.7840 N   0  0  0  0  0  0  0  0  0  0  0  0
   47.7440   33.7810   38.7040 C   0  0  0  0  0  0  0  0  0  0  0  0
   48.3540   33.4930   37.4930 C   0  0  0  0  0  0  0  0  0  0  0  0
   47.5840   32.8680   36.5590 N   0  0  0  0  0  0  0  0  0  0  0  0
   46.2980   32.5670   36.8490 C   0  0  0  0  0  0  0  0  0  0  0  0
   45.7700   32.8720   38.0380 N   0  0  0  0  0  0  0  0  0  0  0  0
   46.4360   33.4850   39.0240 C   0  0  0  0  0  0  0  0  0  0  0  0
   49.7170   33.8370   37.2480 N   0  0  0  0  0  0  0  0  0  0  0  0
   43.0899   36.3463   42.2243 H   0  0  0  0  0  0  0  0  0  0  0  0
   43.6055   36.3900   40.5487 H   0  0  0  0  0  0  0  0  0  0  0  0
   42.1965   33.9188   41.8292 H   0  0  0  0  0  0  0  0  0  0  0  0
   41.2784   35.1430   40.9768 H   0  0  0  0  0  0  0  0  0  0  0  0
   43.0466   34.8550   39.1571 H   0  0  0  0  0  0  0  0  0  0  0  0
   43.4083   32.3130   40.5544 H   0  0  0  0  0  0  0  0  0  0  0  0
   44.2938   33.0018   39.0922 H   0  0  0  0  0  0  0  0  0  0  0  0
   45.0565   32.9401   41.6583 H   0  0  0  0  0  0  0  0  0  0  0  0
   44.1938   35.1699   45.3956 H   0  0  0  0  0  0  0  0  0  0  0  0
   47.2912   33.4974   42.9060 H   0  0  0  0  0  0  0  0  0  0  0  0
   46.8812   32.3091   46.9822 H   0  0  0  0  0  0  0  0  0  0  0  0
   47.4577   34.9004   41.7258 H   0  0  0  0  0  0  0  0  0  0  0  0
   45.6766   32.0630   36.0941 H   0  0  0  0  0  0  0  0  0  0  0  0
   50.1495   33.6132   36.3404 H   0  0  0  0  0  0  0  0  0  0  0  0
   50.2683   34.3092   37.9787 H   0  0  0  0  0  0  0  0  0  0  0  0
  1  2  2  0
  1 10  1  0
  3  1  1  0
  4  3  1  0
  5  4  1  0
  6  7  1  0
  6  5  1  0
  7  8  1  0
  8  3  1  0
  9 14  2  0
 10  9  1  0
 11 10  2  0
 11 12  1  0
 12 13  2  0
 13 14  1  0
 15 16  1  0
 15  8  1  0
 17 16  2  0
 18 23  2  0
 18 17  1  0
 19 18  1  0
 20 21  1  0
 20 19  2  0
 21 22  2  0
 22 23  1  0
 23 15  1  0
 24 19  1  0
  4 25  1  0
  4 26  1  0
  5 27  1  0
  5 28  1  0
  6 29  1  0
  7 30  1  0
  7 31  1  0
  8 32  1  1
  9 33  1  0
 11 34  1  0
 13 35  1  0
 16 36  1  0
 21 37  1  0
 24 38  1  0
 24 39  1  0
M  ISO  8  25  13  26  13  27  13  28  13  29   5  30  13  31  13  32  13
M  ISO  5  33  14  34  14  35  14  36  14  37  14
M  END
>  <minimizedAffinity>  (1) 
-6.34058142

>  <minimizedRMSD>  (1) 
0.987340212

$$$$
