
     RDKit          3D

 39 41  0  0  1  0  0  0  0  0999 V2000
   46.0350   34.4190   43.0350 C   0  0  0  0  0  0  0  0  0  0  0  0
   45.8230   35.6720   43.0180 O   0  0  0  0  0  0  0  0  0  0  0  0
   46.1360   33.8680   41.7130 N   0  0  0  0  0  0  0  0  0  0  0  0
   45.1170   34.3210   40.7820 C   0  0  0  0  0  0  0  0  0  0  0  0
   44.6660   33.0310   40.1050 C   0  0  0  0  0  0  0  0  0  0  0  0
   45.7960   32.6220   39.2980 N   0  0  0  0  0  0  0  0  0  0  0  0
   46.8180   32.0920   40.1690 C   0  0  0  0  0  0  0  0  0  0  0  0
   47.1480   32.9440   41.3540 C   0  0  1  0  0  0  0  0  0  0  0  0
   45.3130   34.2390   45.3660 C   0  0  0  0  0  0  0  0  0  0  0  0
   46.1310   33.8010   44.3110 C   0  0  0  0  0  0  0  0  0  0  0  0
   46.9970   32.7640   44.5830 C   0  0  0  0  0  0  0  0  0  0  0  0
   47.0500   32.1970   45.8170 N   0  0  0  0  0  0  0  0  0  0  0  0
   46.2450   32.6460   46.8080 C   0  0  0  0  0  0  0  0  0  0  0  0
   45.3850   33.6590   46.5850 N   0  0  0  0  0  0  0  0  0  0  0  0
   48.5220   33.5890   41.2300 C   0  0  0  0  0  0  0  0  0  0  0  0
   48.3930   34.9820   40.6520 C   0  0  0  0  0  0  0  0  0  0  0  0
   49.0420   35.9430   41.5840 C   0  0  0  0  0  0  0  0  0  0  0  0
   49.8910   35.0950   42.5060 C   0  0  0  0  0  0  0  0  0  0  0  0
   49.1770   33.7560   42.5840 C   0  0  0  0  0  0  0  0  0  0  0  0
   44.2818   34.8004   41.3137 H   0  0  0  0  0  0  0  0  0  0  0  0
   45.4862   35.0751   40.0713 H   0  0  0  0  0  0  0  0  0  0  0  0
   44.4273   32.2627   40.8552 H   0  0  0  0  0  0  0  0  0  0  0  0
   43.7563   33.1740   39.5033 H   0  0  0  0  0  0  0  0  0  0  0  0
   45.5001   31.8967   38.6292 H   0  0  0  0  0  0  0  0  0  0  0  0
   46.4773   31.1132   40.5376 H   0  0  0  0  0  0  0  0  0  0  0  0
   47.7363   32.0382   39.5657 H   0  0  0  0  0  0  0  0  0  0  0  0
   47.1929   32.2487   42.2052 H   0  0  0  0  0  0  0  0  0  0  0  0
   44.6052   35.0641   45.1980 H   0  0  0  0  0  0  0  0  0  0  0  0
   47.6571   32.3885   43.7872 H   0  0  0  0  0  0  0  0  0  0  0  0
   46.2932   32.1803   47.8034 H   0  0  0  0  0  0  0  0  0  0  0  0
   49.1233   32.9308   40.5857 H   0  0  0  0  0  0  0  0  0  0  0  0
   48.8893   35.0240   39.6712 H   0  0  0  0  0  0  0  0  0  0  0  0
   47.3313   35.2398   40.5246 H   0  0  0  0  0  0  0  0  0  0  0  0
   49.6701   36.6544   41.0278 H   0  0  0  0  0  0  0  0  0  0  0  0
   48.3023   36.5379   42.1398 H   0  0  0  0  0  0  0  0  0  0  0  0
   50.9026   34.9695   42.0925 H   0  0  0  0  0  0  0  0  0  0  0  0
   50.0092   35.5568   43.4974 H   0  0  0  0  0  0  0  0  0  0  0  0
   48.4202   33.7661   43.3822 H   0  0  0  0  0  0  0  0  0  0  0  0
   49.8657   32.9306   42.8172 H   0  0  0  0  0  0  0  0  0  0  0  0
  1 10  1  0
  2  1  2  0
  3  1  1  0
  4  3  1  0
  5  4  1  0
  6  5  1  0
  6  7  1  0
  7  8  1  0
  8  3  1  0
  9 14  2  0
 10 11  2  0
 10  9  1  0
 11 12  1  0
 12 13  2  0
 14 13  1  0
 15  8  1  0
 15 19  1  0
 16 15  1  0
 16 17  1  0
 17 18  1  0
 18 19  1  0
  4 20  1  0
  4 21  1  0
  5 22  1  0
  5 23  1  0
  6 24  1  0
  7 25  1  0
  7 26  1  0
  8 27  1  1
  9 28  1  0
 11 29  1  0
 13 30  1  0
 15 31  1  0
 16 32  1  0
 16 33  1  0
 17 34  1  0
 17 35  1  0
 18 36  1  0
 18 37  1  0
 19 38  1  0
 19 39  1  0
M  ISO  8  20  13  21  13  22  13  23  13  24   5  25  13  26  13  27  13
M  ISO  8  28  14  29  14  30  14  31  13  32  13  33  13  34  13  35  13
M  ISO  4  36  13  37  13  38  13  39  13
M  END
>  <minimizedAffinity>  (1) 
-5.57660151

>  <minimizedRMSD>  (1) 
1.82661974

$$$$
