
     RDKit          3D

 33 35  0  0  1  0  0  0  0  0999 V2000
   44.9670   35.2900   43.9510 C   0  0  0  0  0  0  0  0  0  0  0  0
   44.8810   36.5300   44.2150 O   0  0  0  0  0  0  0  0  0  0  0  0
   44.8110   35.0270   42.5580 N   0  0  0  0  0  0  0  0  0  0  0  0
   43.7470   35.7590   41.9070 C   0  0  0  0  0  0  0  0  0  0  0  0
   42.9910   34.6670   41.1200 C   0  0  0  0  0  0  0  0  0  0  0  0
   43.9430   34.3300   40.0540 N   0  0  0  0  0  0  0  0  0  0  0  0
   44.9690   33.5240   40.6260 C   0  0  0  0  0  0  0  0  0  0  0  0
   45.6320   34.1140   41.8390 C   0  0  1  0  0  0  0  0  0  0  0  0
   44.6100   34.6900   46.3050 C   0  0  0  0  0  0  0  0  0  0  0  0
   45.1930   34.4180   45.0520 C   0  0  0  0  0  0  0  0  0  0  0  0
   45.9690   33.2820   44.9620 C   0  0  0  0  0  0  0  0  0  0  0  0
   46.1550   32.4730   46.0360 N   0  0  0  0  0  0  0  0  0  0  0  0
   45.5740   32.7730   47.2220 C   0  0  0  0  0  0  0  0  0  0  0  0
   44.7970   33.8840   47.3650 N   0  0  0  0  0  0  0  0  0  0  0  0
   46.9650   34.6760   41.4930 C   0  0  0  0  0  0  0  0  0  0  0  0
   48.0060   35.3610   42.0850 C   0  0  0  0  0  0  0  0  0  0  0  0
   48.9980   35.5880   41.1640 C   0  0  0  0  0  0  0  0  0  0  0  0
   48.5000   35.0130   40.0160 C   0  0  0  0  0  0  0  0  0  0  0  0
   47.3260   34.4920   40.2280 O   0  0  0  0  0  0  0  0  0  0  0  0
   43.0888   36.2380   42.6468 H   0  0  0  0  0  0  0  0  0  0  0  0
   44.1157   36.5731   41.2657 H   0  0  0  0  0  0  0  0  0  0  0  0
   42.7789   33.7940   41.7546 H   0  0  0  0  0  0  0  0  0  0  0  0
   42.0100   34.9948   40.7456 H   0  0  0  0  0  0  0  0  0  0  0  0
   44.3508   35.1913   39.6632 H   0  0  0  0  0  0  0  0  0  0  0  0
   44.5258   32.5592   40.9136 H   0  0  0  0  0  0  0  0  0  0  0  0
   45.7526   33.4307   39.8597 H   0  0  0  0  0  0  0  0  0  0  0  0
   45.7931   33.2858   42.5448 H   0  0  0  0  0  0  0  0  0  0  0  0
   43.9840   35.5872   46.4197 H   0  0  0  0  0  0  0  0  0  0  0  0
   46.4454   33.0270   44.0039 H   0  0  0  0  0  0  0  0  0  0  0  0
   45.7317   32.1089   48.0846 H   0  0  0  0  0  0  0  0  0  0  0  0
   48.0364   35.6779   43.1379 H   0  0  0  0  0  0  0  0  0  0  0  0
   49.9585   36.1044   41.3080 H   0  0  0  0  0  0  0  0  0  0  0  0
   49.0242   34.9962   39.0491 H   0  0  0  0  0  0  0  0  0  0  0  0
  1  2  2  0
  1 10  1  0
  3  1  1  0
  4  3  1  0
  5  4  1  0
  6  7  1  0
  6  5  1  0
  7  8  1  0
  8  3  1  0
  9 14  2  0
 10  9  1  0
 11 10  2  0
 11 12  1  0
 12 13  2  0
 13 14  1  0
 15  8  1  0
 15 16  2  0
 17 16  1  0
 18 19  1  0
 18 17  2  0
 19 15  1  0
  4 20  1  0
  4 21  1  0
  5 22  1  0
  5 23  1  0
  6 24  1  0
  7 25  1  0
  7 26  1  0
  8 27  1  1
  9 28  1  0
 11 29  1  0
 13 30  1  0
 16 31  1  0
 17 32  1  0
 18 33  1  0
M  ISO  8  20  13  21  13  22  13  23  13  24   5  25  13  26  13  27  13
M  ISO  6  28  14  29  14  30  14  31  14  32  14  33  14
M  END
>  <minimizedAffinity>  (1) 
-5.50938416

>  <minimizedRMSD>  (1) 
1.27229559

$$$$
