
     RDKit          3D

 45 48  0  0  1  0  0  0  0  0999 V2000
   49.1050   33.7140   42.6400 C   0  0  2  0  0  0  0  0  0  0  0  0
   47.7120   33.9320   42.4520 C   0  0  2  0  0  0  0  0  0  0  0  0
   47.6320   35.3950   41.9480 C   0  0  0  0  0  0  0  0  0  0  0  0
   48.9940   35.8540   41.5520 C   0  0  0  0  0  0  0  0  0  0  0  0
   49.8190   35.1110   42.5100 C   0  0  0  0  0  0  0  0  0  0  0  0
   49.8460   32.8830   41.6940 C   0  0  0  0  0  0  0  0  0  0  0  0
   49.1610   32.4290   40.5860 C   0  0  0  0  0  0  0  0  0  0  0  0
   49.7600   31.6230   39.6270 C   0  0  0  0  0  0  0  0  0  0  0  0
   51.0940   31.3210   39.8760 N   0  0  0  0  0  0  0  0  0  0  0  0
   51.7480   31.7630   40.9400 C   0  0  0  0  0  0  0  0  0  0  0  0
   51.1140   32.5270   41.8190 N   0  0  0  0  0  0  0  0  0  0  0  0
   46.8400   33.7780   43.6440 C   0  0  0  0  0  0  0  0  0  0  0  0
   45.8840   34.4980   43.8120 O   0  0  0  0  0  0  0  0  0  0  0  0
   46.9640   32.8290   44.7170 C   0  0  0  0  0  0  0  0  0  0  0  0
   46.7650   33.2010   46.0500 C   0  0  0  0  0  0  0  0  0  0  0  0
   46.8950   32.3200   47.1260 C   0  0  0  0  0  0  0  0  0  0  0  0
   47.2420   30.9990   46.8790 C   0  0  0  0  0  0  0  0  0  0  0  0
   47.4480   30.5980   45.5560 C   0  0  0  0  0  0  0  0  0  0  0  0
   47.3000   31.5220   44.5250 C   0  0  0  0  0  0  0  0  0  0  0  0
   47.4530   30.6560   43.3650 C   0  0  0  0  0  0  0  0  0  0  0  0
   48.5390   29.8440   43.0880 C   0  0  0  0  0  0  0  0  0  0  0  0
   48.4860   28.9820   41.9850 C   0  0  0  0  0  0  0  0  0  0  0  0
   47.3790   28.9170   41.1580 C   0  0  0  0  0  0  0  0  0  0  0  0
   46.2760   29.7100   41.3930 C   0  0  0  0  0  0  0  0  0  0  0  0
   46.3650   30.5440   42.4890 C   0  0  0  0  0  0  0  0  0  0  0  0
   49.1258   33.1860   43.6048 H   0  0  0  0  0  0  0  0  0  0  0  0
   47.3298   33.1604   41.7675 H   0  0  0  0  0  0  0  0  0  0  0  0
   46.9591   35.4483   41.0794 H   0  0  0  0  0  0  0  0  0  0  0  0
   47.2438   36.0406   42.7496 H   0  0  0  0  0  0  0  0  0  0  0  0
   49.2294   35.5771   40.5138 H   0  0  0  0  0  0  0  0  0  0  0  0
   49.1342   36.9447   41.5775 H   0  0  0  0  0  0  0  0  0  0  0  0
   50.8441   34.9904   42.1297 H   0  0  0  0  0  0  0  0  0  0  0  0
   49.9079   35.6282   43.4767 H   0  0  0  0  0  0  0  0  0  0  0  0
   48.1065   32.7146   40.4581 H   0  0  0  0  0  0  0  0  0  0  0  0
   49.2223   31.2532   38.7415 H   0  0  0  0  0  0  0  0  0  0  0  0
   52.8050   31.4992   41.0925 H   0  0  0  0  0  0  0  0  0  0  0  0
   46.4910   34.2448   46.2630 H   0  0  0  0  0  0  0  0  0  0  0  0
   46.7247   32.6684   48.1554 H   0  0  0  0  0  0  0  0  0  0  0  0
   47.3525   30.2830   47.7067 H   0  0  0  0  0  0  0  0  0  0  0  0
   47.7256   29.5578   45.3305 H   0  0  0  0  0  0  0  0  0  0  0  0
   49.4339   29.8751   43.7269 H   0  0  0  0  0  0  0  0  0  0  0  0
   49.3509   28.3373   41.7700 H   0  0  0  0  0  0  0  0  0  0  0  0
   47.3788   28.2247   40.3032 H   0  0  0  0  0  0  0  0  0  0  0  0
   45.3842   29.6800   40.7497 H   0  0  0  0  0  0  0  0  0  0  0  0
   45.4951   31.1848   42.6955 H   0  0  0  0  0  0  0  0  0  0  0  0
  2  1  1  0
  2 12  1  0
  3  2  1  0
  4  3  1  0
  4  5  1  0
  5  1  1  0
  6 11  1  0
  6  1  1  0
  7  6  2  0
  8  9  2  0
  8  7  1  0
  9 10  1  0
 10 11  2  0
 12 13  2  0
 12 14  1  0
 14 15  2  0
 15 16  1  0
 17 16  2  0
 18 17  1  0
 19 14  1  0
 19 18  2  0
 20 19  1  0
 21 20  2  0
 22 21  1  0
 23 24  1  0
 23 22  2  0
 24 25  2  0
 25 20  1  0
  1 26  1  1
  2 27  1  6
  3 28  1  0
  3 29  1  0
  4 30  1  0
  4 31  1  0
  5 32  1  0
  5 33  1  0
  7 34  1  0
  8 35  1  0
 10 36  1  0
 15 37  1  0
 16 38  1  0
 17 39  1  0
 18 40  1  0
 21 41  1  0
 22 42  1  0
 23 43  1  0
 24 44  1  0
 25 45  1  0
M  ISO  8  26  13  27  13  28  13  29  13  30  13  31  13  32  13  33  13
M  ISO  8  34  14  35  14  36  14  37  14  38  14  39  14  40  14  41  14
M  ISO  4  42  14  43  14  44  14  45  14
M  END
>  <minimizedAffinity>  (1) 
-5.41799212

>  <minimizedRMSD>  (1) 
0.210587844

$$$$
