
     RDKit          3D

 35 36  0  0  1  0  0  0  0  0999 V2000
   45.9440   34.4540   43.7510 C   0  0  0  0  0  0  0  0  0  0  0  0
   45.3080   35.5180   44.0280 O   0  0  0  0  0  0  0  0  0  0  0  0
   46.3220   34.3980   42.3680 N   0  0  0  0  0  0  0  0  0  0  0  0
   45.2940   34.7940   41.4410 C   0  0  0  0  0  0  0  0  0  0  0  0
   45.3250   33.6810   40.3770 C   0  0  0  0  0  0  0  0  0  0  0  0
   46.5970   33.9280   39.6890 N   0  0  0  0  0  0  0  0  0  0  0  0
   47.6400   33.4290   40.5380 C   0  0  0  0  0  0  0  0  0  0  0  0
   47.6030   33.9820   41.9280 C   0  0  1  0  0  0  0  0  0  0  0  0
   45.5010   33.7290   46.0460 C   0  0  0  0  0  0  0  0  0  0  0  0
   46.1630   33.5350   44.8150 C   0  0  0  0  0  0  0  0  0  0  0  0
   46.9990   32.4430   44.6950 C   0  0  0  0  0  0  0  0  0  0  0  0
   47.1540   31.5960   45.7610 N   0  0  0  0  0  0  0  0  0  0  0  0
   46.5030   31.8120   46.9290 C   0  0  0  0  0  0  0  0  0  0  0  0
   45.6720   32.8820   47.0760 N   0  0  0  0  0  0  0  0  0  0  0  0
   48.6900   35.0040   42.1750 C   0  0  0  0  0  0  0  0  0  0  0  0
   48.9580   35.8600   40.9570 C   0  0  0  0  0  0  0  0  0  0  0  0
   49.9830   34.3660   42.5710 C   0  0  0  0  0  0  0  0  0  0  0  0
   44.3128   34.8378   41.9364 H   0  0  0  0  0  0  0  0  0  0  0  0
   45.4591   35.7963   41.0190 H   0  0  0  0  0  0  0  0  0  0  0  0
   45.3135   32.6852   40.8442 H   0  0  0  0  0  0  0  0  0  0  0  0
   44.4548   33.6958   39.7043 H   0  0  0  0  0  0  0  0  0  0  0  0
   46.6112   33.4348   38.7849 H   0  0  0  0  0  0  0  0  0  0  0  0
   47.5452   32.3347   40.5974 H   0  0  0  0  0  0  0  0  0  0  0  0
   48.5948   33.7451   40.0925 H   0  0  0  0  0  0  0  0  0  0  0  0
   47.8325   33.1249   42.5782 H   0  0  0  0  0  0  0  0  0  0  0  0
   44.8301   34.5925   46.1655 H   0  0  0  0  0  0  0  0  0  0  0  0
   47.5353   32.2547   43.7532 H   0  0  0  0  0  0  0  0  0  0  0  0
   46.6467   31.1158   47.7684 H   0  0  0  0  0  0  0  0  0  0  0  0
   48.3127   35.6305   42.9966 H   0  0  0  0  0  0  0  0  0  0  0  0
   49.2725   36.8644   41.2767 H   0  0  0  0  0  0  0  0  0  0  0  0
   49.7553   35.4007   40.3543 H   0  0  0  0  0  0  0  0  0  0  0  0
   48.0411   35.9374   40.3543 H   0  0  0  0  0  0  0  0  0  0  0  0
   50.0538   34.3311   43.6682 H   0  0  0  0  0  0  0  0  0  0  0  0
   50.0258   33.3433   42.1681 H   0  0  0  0  0  0  0  0  0  0  0  0
   50.8207   34.9542   42.1681 H   0  0  0  0  0  0  0  0  0  0  0  0
  1  2  2  0
  1 10  1  0
  3  1  1  0
  4  3  1  0
  5  4  1  0
  6  5  1  0
  6  7  1  0
  7  8  1  0
  8 15  1  0
  8  3  1  0
  9 14  2  0
 10  9  1  0
 11 10  2  0
 11 12  1  0
 12 13  2  0
 13 14  1  0
 15 17  1  0
 16 15  1  0
  4 18  1  0
  4 19  1  0
  5 20  1  0
  5 21  1  0
  6 22  1  0
  7 23  1  0
  7 24  1  0
  8 25  1  1
  9 26  1  0
 11 27  1  0
 13 28  1  0
 15 29  1  0
 16 30  1  0
 16 31  1  0
 16 32  1  0
 17 33  1  0
 17 34  1  0
 17 35  1  0
M  ISO  8  18  13  19  13  20  13  21  13  22   5  23  13  24  13  25  13
M  ISO  8  26  14  27  14  28  14  29   8  30   8  31   8  32   8  33   8
M  ISO  2  34   8  35   8
M  END
>  <minimizedAffinity>  (1) 
-5.11898232

>  <minimizedRMSD>  (1) 
2.34449768

$$$$
