
     RDKit          3D

 31 33  0  0  1  0  0  0  0  0999 V2000
   45.2430   35.0860   43.9000 C   0  0  0  0  0  0  0  0  0  0  0  0
   45.0210   36.3070   44.0930 O   0  0  0  0  0  0  0  0  0  0  0  0
   45.3570   34.7780   42.5060 N   0  0  0  0  0  0  0  0  0  0  0  0
   44.3720   35.3880   41.6510 C   0  0  0  0  0  0  0  0  0  0  0  0
   43.8920   34.2040   40.7820 C   0  0  0  0  0  0  0  0  0  0  0  0
   45.0180   33.9340   39.9180 N   0  0  0  0  0  0  0  0  0  0  0  0
   46.0410   33.2780   40.6830 C   0  0  0  0  0  0  0  0  0  0  0  0
   46.3730   33.9170   41.9800 C   0  0  1  0  0  0  0  0  0  0  0  0
   44.7090   34.6470   46.2480 C   0  0  0  0  0  0  0  0  0  0  0  0
   45.3390   34.2420   45.0520 C   0  0  0  0  0  0  0  0  0  0  0  0
   46.0140   33.0390   45.0480 C   0  0  0  0  0  0  0  0  0  0  0  0
   46.0460   32.2880   46.1960 N   0  0  0  0  0  0  0  0  0  0  0  0
   45.4290   32.7110   47.3230 C   0  0  0  0  0  0  0  0  0  0  0  0
   44.7540   33.8940   47.3600 N   0  0  0  0  0  0  0  0  0  0  0  0
   47.6860   34.6130   41.9580 C   0  0  0  0  0  0  0  0  0  0  0  0
   48.2400   35.5990   41.2130 N   0  0  0  0  0  0  0  0  0  0  0  0
   49.4360   35.8470   41.6000 O   0  0  0  0  0  0  0  0  0  0  0  0
   49.7140   35.0450   42.6030 C   0  0  0  0  0  0  0  0  0  0  0  0
   48.6440   34.2690   42.8440 N   0  0  0  0  0  0  0  0  0  0  0  0
   43.5433   35.8093   42.2391 H   0  0  0  0  0  0  0  0  0  0  0  0
   44.7676   36.2283   41.0616 H   0  0  0  0  0  0  0  0  0  0  0  0
   43.6580   33.3290   41.4062 H   0  0  0  0  0  0  0  0  0  0  0  0
   42.9715   34.4307   40.2240 H   0  0  0  0  0  0  0  0  0  0  0  0
   45.3833   34.8191   39.5385 H   0  0  0  0  0  0  0  0  0  0  0  0
   45.7061   32.2502   40.8868 H   0  0  0  0  0  0  0  0  0  0  0  0
   46.9562   33.3320   40.0751 H   0  0  0  0  0  0  0  0  0  0  0  0
   46.4394   33.0666   42.6745 H   0  0  0  0  0  0  0  0  0  0  0  0
   44.1670   35.6039   46.2706 H   0  0  0  0  0  0  0  0  0  0  0  0
   46.5197   32.6865   44.1370 H   0  0  0  0  0  0  0  0  0  0  0  0
   45.4731   32.0873   48.2280 H   0  0  0  0  0  0  0  0  0  0  0  0
   50.6654   35.0140   43.1542 H   0  0  0  0  0  0  0  0  0  0  0  0
  1  2  2  0
  1 10  1  0
  3  1  1  0
  4  3  1  0
  5  4  1  0
  6  7  1  0
  6  5  1  0
  7  8  1  0
  8  3  1  0
  9 14  2  0
 10  9  1  0
 11 10  2  0
 11 12  1  0
 12 13  2  0
 13 14  1  0
 15  8  1  0
 15 19  1  0
 16 17  1  0
 16 15  2  0
 17 18  1  0
 18 19  2  0
  4 20  1  0
  4 21  1  0
  5 22  1  0
  5 23  1  0
  6 24  1  0
  7 25  1  0
  7 26  1  0
  8 27  1  1
  9 28  1  0
 11 29  1  0
 13 30  1  0
 18 31  1  0
M  ISO  8  20  13  21  13  22  13  23  13  24   5  25  13  26  13  27  13
M  ISO  4  28  14  29  14  30  14  31  14
M  END
>  <minimizedAffinity>  (1) 
-5.11882019

>  <minimizedRMSD>  (1) 
1.83965373

$$$$
