
     RDKit          3D

 32 34  0  0  1  0  0  0  0  0999 V2000
   45.3490   35.0890   43.0020 C   0  0  0  0  0  0  0  0  0  0  0  0
   45.6620   36.3160   42.9570 O   0  0  0  0  0  0  0  0  0  0  0  0
   44.7370   34.6810   41.7990 N   0  0  0  0  0  0  0  0  0  0  0  0
   43.7120   35.5620   41.2620 C   0  0  0  0  0  0  0  0  0  0  0  0
   42.5790   34.6120   40.8970 C   0  0  0  0  0  0  0  0  0  0  0  0
   43.0840   33.8380   39.7670 N   0  0  0  0  0  0  0  0  0  0  0  0
   44.0260   32.8870   40.2660 C   0  0  0  0  0  0  0  0  0  0  0  0
   45.1000   33.4660   41.1180 C   0  0  1  0  0  0  0  0  0  0  0  0
   44.9290   34.6440   45.3730 C   0  0  0  0  0  0  0  0  0  0  0  0
   45.6600   34.3880   44.1980 C   0  0  0  0  0  0  0  0  0  0  0  0
   46.6550   33.4370   44.2760 C   0  0  0  0  0  0  0  0  0  0  0  0
   46.9060   32.7840   45.4420 N   0  0  0  0  0  0  0  0  0  0  0  0
   46.1770   33.0610   46.5500 C   0  0  0  0  0  0  0  0  0  0  0  0
   45.1860   33.9950   46.5150 N   0  0  0  0  0  0  0  0  0  0  0  0
   46.2680   33.7670   40.3090 N   0  0  0  0  0  0  0  0  0  0  0  0
   47.4040   34.3960   40.6420 C   0  0  0  0  0  0  0  0  0  0  0  0
   48.1990   34.4330   39.5410 N   0  0  0  0  0  0  0  0  0  0  0  0
   47.5460   33.8230   38.5250 C   0  0  0  0  0  0  0  0  0  0  0  0
   46.3770   33.4310   39.0280 N   0  0  0  0  0  0  0  0  0  0  0  0
   43.3851   36.2910   42.0181 H   0  0  0  0  0  0  0  0  0  0  0  0
   44.0644   36.1560   40.4059 H   0  0  0  0  0  0  0  0  0  0  0  0
   42.3413   33.9506   41.7432 H   0  0  0  0  0  0  0  0  0  0  0  0
   41.6526   35.1503   40.6480 H   0  0  0  0  0  0  0  0  0  0  0  0
   43.5450   34.4652   39.0925 H   0  0  0  0  0  0  0  0  0  0  0  0
   43.4785   32.1428   40.8630 H   0  0  0  0  0  0  0  0  0  0  0  0
   44.5256   32.4531   39.3873 H   0  0  0  0  0  0  0  0  0  0  0  0
   45.2969   32.6973   41.8798 H   0  0  0  0  0  0  0  0  0  0  0  0
   44.1265   35.3961   45.3524 H   0  0  0  0  0  0  0  0  0  0  0  0
   47.2537   33.2034   43.3833 H   0  0  0  0  0  0  0  0  0  0  0  0
   46.3876   32.5260   47.4878 H   0  0  0  0  0  0  0  0  0  0  0  0
   47.6491   34.8091   41.6316 H   0  0  0  0  0  0  0  0  0  0  0  0
   47.9065   33.6803   37.4956 H   0  0  0  0  0  0  0  0  0  0  0  0
  1 10  1  0
  2  1  2  0
  3  1  1  0
  4  3  1  0
  5  4  1  0
  6  7  1  0
  6  5  1  0
  7  8  1  0
  8  3  1  0
  9 14  2  0
 10 11  2  0
 10  9  1  0
 11 12  1  0
 12 13  2  0
 14 13  1  0
 15 16  1  0
 15  8  1  0
 17 16  2  0
 18 19  2  0
 18 17  1  0
 19 15  1  0
  4 20  1  0
  4 21  1  0
  5 22  1  0
  5 23  1  0
  6 24  1  0
  7 25  1  0
  7 26  1  0
  8 27  1  1
  9 28  1  0
 11 29  1  0
 13 30  1  0
 16 31  1  0
 18 32  1  0
M  ISO  8  20  13  21  13  22  13  23  13  24   5  25  13  26  13  27  13
M  ISO  5  28  14  29  14  30  14  31  14  32  14
M  END
>  <minimizedAffinity>  (1) 
-4.76385975

>  <minimizedRMSD>  (1) 
0.923549771

$$$$
