
     RDKit          3D

 35 37  0  0  0  0  0  0  0  0999 V2000
   46.7930   33.8250   42.5210 N   0  0  0  0  0  0  0  0  0  0  0  0
   47.3980   32.6320   42.3360 C   0  0  0  0  0  0  0  0  0  0  0  0
   48.0230   32.5850   41.1590 N   0  0  0  0  0  0  0  0  0  0  0  0
   47.7920   33.8010   40.5960 C   0  0  0  0  0  0  0  0  0  0  0  0
   47.0320   34.5670   41.4390 N   0  0  0  0  0  0  0  0  0  0  0  0
   44.5490   36.0440   44.5330 C   0  0  0  0  0  0  0  0  0  0  0  0
   45.2810   35.5890   43.4230 C   0  0  0  0  0  0  0  0  0  0  0  0
   46.0140   34.3970   43.5590 C   0  0  0  0  0  0  0  0  0  0  0  0
   45.9640   33.7720   44.7510 N   0  0  0  0  0  0  0  0  0  0  0  0
   45.2510   34.2310   45.8090 C   0  0  0  0  0  0  0  0  0  0  0  0
   44.5510   35.3670   45.6790 N   0  0  0  0  0  0  0  0  0  0  0  0
   48.2440   34.3200   39.2660 C   0  0  0  0  0  0  0  0  0  0  0  0
   48.1200   33.2580   38.2240 C   0  0  0  0  0  0  0  0  0  0  0  0
   47.7770   33.7480   36.8550 C   0  0  0  0  0  0  0  0  0  0  0  0
   48.4590   33.0040   35.7530 C   0  0  0  0  0  0  0  0  0  0  0  0
   48.6860   31.5510   36.0100 C   0  0  0  0  0  0  0  0  0  0  0  0
   49.1510   31.2130   37.3890 C   0  0  0  0  0  0  0  0  0  0  0  0
   49.4290   32.5070   38.1270 C   0  0  0  0  0  0  0  0  0  0  0  0
   47.3779   31.8060   43.0621 H   0  0  0  0  0  0  0  0  0  0  0  0
   43.9658   36.9733   44.4536 H   0  0  0  0  0  0  0  0  0  0  0  0
   45.2805   36.1487   42.4761 H   0  0  0  0  0  0  0  0  0  0  0  0
   45.2470   33.6791   46.7605 H   0  0  0  0  0  0  0  0  0  0  0  0
   47.6210   35.1810   38.9821 H   0  0  0  0  0  0  0  0  0  0  0  0
   49.2982   34.6250   39.3413 H   0  0  0  0  0  0  0  0  0  0  0  0
   47.2822   32.6257   38.5532 H   0  0  0  0  0  0  0  0  0  0  0  0
   46.6901   33.6520   36.7158 H   0  0  0  0  0  0  0  0  0  0  0  0
   48.1220   34.7908   36.7952 H   0  0  0  0  0  0  0  0  0  0  0  0
   49.4376   33.4754   35.5794 H   0  0  0  0  0  0  0  0  0  0  0  0
   47.7841   33.0580   34.8861 H   0  0  0  0  0  0  0  0  0  0  0  0
   47.7383   31.0219   35.8314 H   0  0  0  0  0  0  0  0  0  0  0  0
   49.4957   31.2443   35.3315 H   0  0  0  0  0  0  0  0  0  0  0  0
   48.3706   30.6444   37.9159 H   0  0  0  0  0  0  0  0  0  0  0  0
   50.0629   30.5996   37.3421 H   0  0  0  0  0  0  0  0  0  0  0  0
   49.8147   32.2908   39.1342 H   0  0  0  0  0  0  0  0  0  0  0  0
   50.1833   33.1052   37.5948 H   0  0  0  0  0  0  0  0  0  0  0  0
  1  8  1  0
  2  1  1  0
  3  2  2  0
  4  3  1  0
  4  5  2  0
  5  1  1  0
  6 11  2  0
  7  8  2  0
  7  6  1  0
  8  9  1  0
  9 10  2  0
 11 10  1  0
 12  4  1  0
 13 12  1  0
 14 13  1  0
 15 16  1  0
 15 14  1  0
 16 17  1  0
 17 18  1  0
 18 13  1  0
  2 19  1  0
  6 20  1  0
  7 21  1  0
 10 22  1  0
 12 23  1  0
 12 24  1  0
 13 25  1  0
 14 26  1  0
 14 27  1  0
 15 28  1  0
 15 29  1  0
 16 30  1  0
 16 31  1  0
 17 32  1  0
 17 33  1  0
 18 34  1  0
 18 35  1  0
M  ISO  8  19  14  20  14  21  14  22  14  23   8  24   8  25  13  26  13
M  ISO  8  27  13  28  13  29  13  30  13  31  13  32  13  33  13  34  13
M  ISO  1  35  13
M  END
>  <minimizedAffinity>  (1) 
-4.49456596

>  <minimizedRMSD>  (1) 
1.57336044

$$$$
