
     RDKit          3D

 50 54  0  0  1  0  0  0  0  0999 V2000
   42.2310   34.1160   40.4830 N   0  0  0  0  0  0  0  0  0  0  0  0
   41.2220   34.5480   41.4500 C   0  0  0  0  0  0  0  0  0  0  0  0
   40.3830   35.6340   40.8660 C   0  0  0  0  0  0  0  0  0  0  0  0
   39.7890   35.2230   39.5490 C   0  0  0  0  0  0  0  0  0  0  0  0
   40.7370   34.5710   38.5880 C   0  0  0  0  0  0  0  0  0  0  0  0
   41.6340   33.5820   39.3260 C   0  0  1  0  0  0  0  0  0  0  0  0
   42.5040   32.8380   38.4460 C   0  0  0  0  0  0  0  0  0  0  0  0
   43.7790   33.3940   38.2750 C   0  0  0  0  0  0  0  0  0  0  0  0
   44.6920   32.7830   37.4050 C   0  0  0  0  0  0  0  0  0  0  0  0
   44.3830   31.6410   36.6980 C   0  0  0  0  0  0  0  0  0  0  0  0
   43.1340   31.0770   36.8510 C   0  0  0  0  0  0  0  0  0  0  0  0
   42.7950   29.9310   36.1630 C   0  0  0  0  0  0  0  0  0  0  0  0
   41.5370   29.4020   36.3540 C   0  0  0  0  0  0  0  0  0  0  0  0
   40.6360   30.0040   37.2150 C   0  0  0  0  0  0  0  0  0  0  0  0
   41.0140   31.1520   37.8870 C   0  0  0  0  0  0  0  0  0  0  0  0
   42.2620   31.7020   37.7140 C   0  0  0  0  0  0  0  0  0  0  0  0
   43.1520   35.1600   40.2940 C   0  0  0  0  0  0  0  0  0  0  0  0
   46.1780   34.8170   42.2460 N   0  0  0  0  0  0  0  0  0  0  0  0
   45.4110   35.4990   43.0870 C   0  0  0  0  0  0  0  0  0  0  0  0
   44.1990   35.7500   42.5700 N   0  0  0  0  0  0  0  0  0  0  0  0
   44.2270   35.1930   41.3460 C   0  0  0  0  0  0  0  0  0  0  0  0
   45.4550   34.6080   41.1320 N   0  0  0  0  0  0  0  0  0  0  0  0
   49.8930   34.4690   42.3460 C   0  0  0  0  0  0  0  0  0  0  0  0
   48.6530   35.1040   42.3400 C   0  0  0  0  0  0  0  0  0  0  0  0
   47.4930   34.3020   42.2610 C   0  0  0  0  0  0  0  0  0  0  0  0
   47.6880   32.9820   42.1980 N   0  0  0  0  0  0  0  0  0  0  0  0
   48.8830   32.3660   42.2040 C   0  0  0  0  0  0  0  0  0  0  0  0
   49.9860   33.1250   42.2780 N   0  0  0  0  0  0  0  0  0  0  0  0
   40.5804   33.6939   41.7122 H   0  0  0  0  0  0  0  0  0  0  0  0
   41.7264   34.9281   42.3506 H   0  0  0  0  0  0  0  0  0  0  0  0
   39.5690   35.8726   41.5663 H   0  0  0  0  0  0  0  0  0  0  0  0
   41.0238   36.5119   40.6966 H   0  0  0  0  0  0  0  0  0  0  0  0
   38.9721   34.5148   39.7521 H   0  0  0  0  0  0  0  0  0  0  0  0
   39.4594   36.1533   39.0633 H   0  0  0  0  0  0  0  0  0  0  0  0
   41.3603   35.3423   38.1120 H   0  0  0  0  0  0  0  0  0  0  0  0
   40.1596   34.0316   37.8228 H   0  0  0  0  0  0  0  0  0  0  0  0
   40.9701   32.8067   39.7360 H   0  0  0  0  0  0  0  0  0  0  0  0
   44.0618   34.3059   38.8212 H   0  0  0  0  0  0  0  0  0  0  0  0
   45.6895   33.2302   37.2822 H   0  0  0  0  0  0  0  0  0  0  0  0
   45.1218   31.1862   36.0217 H   0  0  0  0  0  0  0  0  0  0  0  0
   43.5106   29.4513   35.4791 H   0  0  0  0  0  0  0  0  0  0  0  0
   41.2449   28.4888   35.8148 H   0  0  0  0  0  0  0  0  0  0  0  0
   39.6337   29.5755   37.3626 H   0  0  0  0  0  0  0  0  0  0  0  0
   40.3024   31.6344   38.5732 H   0  0  0  0  0  0  0  0  0  0  0  0
   43.6279   35.0338   39.3103 H   0  0  0  0  0  0  0  0  0  0  0  0
   42.5954   36.1063   40.3625 H   0  0  0  0  0  0  0  0  0  0  0  0
   45.7311   35.8204   44.0891 H   0  0  0  0  0  0  0  0  0  0  0  0
   50.8104   35.0729   42.4071 H   0  0  0  0  0  0  0  0  0  0  0  0
   48.5793   36.2001   42.3953 H   0  0  0  0  0  0  0  0  0  0  0  0
   48.9540   31.2696   42.1497 H   0  0  0  0  0  0  0  0  0  0  0  0
  1  2  1  0
  3  2  1  0
  4  3  1  0
  5  6  1  0
  5  4  1  0
  6  1  1  0
  7  6  1  0
  8  7  2  0
  9  8  1  0
 10 11  1  0
 10  9  2  0
 11 16  2  0
 12 13  2  0
 12 11  1  0
 13 14  1  0
 14 15  2  0
 16 15  1  0
 16  7  1  0
 17  1  1  0
 17 21  1  0
 18 25  1  0
 18 19  1  0
 20 19  2  0
 21 20  1  0
 22 21  2  0
 22 18  1  0
 24 23  2  0
 25 24  1  0
 26 27  1  0
 26 25  2  0
 27 28  2  0
 28 23  1  0
  2 29  1  0
  2 30  1  0
  3 31  1  0
  3 32  1  0
  4 33  1  0
  4 34  1  0
  5 35  1  0
  5 36  1  0
  6 37  1  1
  8 38  1  0
  9 39  1  0
 10 40  1  0
 12 41  1  0
 13 42  1  0
 14 43  1  0
 15 44  1  0
 17 45  1  0
 17 46  1  0
 19 47  1  0
 23 48  1  0
 24 49  1  0
 27 50  1  0
M  ISO  8  29  13  30  13  31  13  32  13  33  13  34  13  35  13  36  13
M  ISO  8  37  13  38  14  39  14  40  14  41  14  42  14  43  14  44  14
M  ISO  6  45   8  46   8  47  14  48  14  49  14  50  14
M  END
>  <minimizedAffinity>  (1) 
-6.4721899

>  <minimizedRMSD>  (1) 
1.23373449

$$$$
