
     RDKit          3D

 41 44  0  0  1  0  0  0  0  0999 V2000
   41.9090   34.4060   41.2660 N   0  0  0  0  0  0  0  0  0  0  0  0
   40.9760   35.4190   41.6930 C   0  0  0  0  0  0  0  0  0  0  0  0
   40.3360   36.0900   40.5250 C   0  0  0  0  0  0  0  0  0  0  0  0
   39.7620   35.1350   39.5490 C   0  0  0  0  0  0  0  0  0  0  0  0
   40.5940   33.9500   39.2330 C   0  0  0  0  0  0  0  0  0  0  0  0
   41.3670   33.4130   40.3970 C   0  0  2  0  0  0  0  0  0  0  0  0
   40.7160   32.3060   41.0680 N   0  0  0  0  0  0  0  0  0  0  0  0
   41.1770   31.4550   42.0320 C   0  0  0  0  0  0  0  0  0  0  0  0
   40.1570   30.5520   42.3530 C   0  0  0  0  0  0  0  0  0  0  0  0
   39.0810   30.8470   41.5900 N   0  0  0  0  0  0  0  0  0  0  0  0
   39.4550   31.8970   40.8400 C   0  0  0  0  0  0  0  0  0  0  0  0
   43.0240   35.0660   40.6500 C   0  0  0  0  0  0  0  0  0  0  0  0
   46.1840   35.0080   42.3790 N   0  0  0  0  0  0  0  0  0  0  0  0
   45.5000   35.8650   43.1240 C   0  0  0  0  0  0  0  0  0  0  0  0
   44.2680   36.0510   42.6680 N   0  0  0  0  0  0  0  0  0  0  0  0
   44.1730   35.2640   41.5690 C   0  0  0  0  0  0  0  0  0  0  0  0
   45.3650   34.6200   41.3940 N   0  0  0  0  0  0  0  0  0  0  0  0
   49.8890   34.5420   42.2540 C   0  0  0  0  0  0  0  0  0  0  0  0
   48.6670   35.2040   42.2190 C   0  0  0  0  0  0  0  0  0  0  0  0
   47.4860   34.4590   42.3930 C   0  0  0  0  0  0  0  0  0  0  0  0
   47.6460   33.1420   42.5810 N   0  0  0  0  0  0  0  0  0  0  0  0
   48.8260   32.5000   42.6150 C   0  0  0  0  0  0  0  0  0  0  0  0
   49.9460   33.2170   42.4490 N   0  0  0  0  0  0  0  0  0  0  0  0
   40.1950   34.9503   42.3097 H   0  0  0  0  0  0  0  0  0  0  0  0
   41.5251   36.1763   42.2718 H   0  0  0  0  0  0  0  0  0  0  0  0
   39.5295   36.7408   40.8938 H   0  0  0  0  0  0  0  0  0  0  0  0
   41.1196   36.6600   40.0043 H   0  0  0  0  0  0  0  0  0  0  0  0
   38.8042   34.7756   39.9533 H   0  0  0  0  0  0  0  0  0  0  0  0
   39.6713   35.6936   38.6058 H   0  0  0  0  0  0  0  0  0  0  0  0
   39.9324   33.1535   38.8616 H   0  0  0  0  0  0  0  0  0  0  0  0
   41.3334   34.2740   38.4858 H   0  0  0  0  0  0  0  0  0  0  0  0
   42.2653   32.9670   39.9451 H   0  0  0  0  0  0  0  0  0  0  0  0
   42.1812   31.4759   42.4806 H   0  0  0  0  0  0  0  0  0  0  0  0
   40.2200   29.7436   43.0963 H   0  0  0  0  0  0  0  0  0  0  0  0
   38.7910   32.3781   40.1068 H   0  0  0  0  0  0  0  0  0  0  0  0
   43.3606   34.4589   39.7967 H   0  0  0  0  0  0  0  0  0  0  0  0
   42.6801   36.0639   40.3403 H   0  0  0  0  0  0  0  0  0  0  0  0
   45.9064   36.3638   44.0162 H   0  0  0  0  0  0  0  0  0  0  0  0
   50.8201   35.1122   42.1201 H   0  0  0  0  0  0  0  0  0  0  0  0
   48.6241   36.2913   42.0581 H   0  0  0  0  0  0  0  0  0  0  0  0
   48.8715   31.4127   42.7751 H   0  0  0  0  0  0  0  0  0  0  0  0
  1  2  1  0
  3  2  1  0
  4  3  1  0
  5  4  1  0
  5  6  1  0
  6  7  1  0
  6  1  1  0
  7  8  1  0
  8  9  2  0
 10  9  1  0
 11  7  1  0
 11 10  2  0
 12  1  1  0
 12 16  1  0
 13 20  1  0
 13 14  1  0
 15 14  2  0
 16 15  1  0
 17 16  2  0
 17 13  1  0
 18 23  2  0
 19 18  1  0
 19 20  2  0
 20 21  1  0
 21 22  2  0
 23 22  1  0
  2 24  1  0
  2 25  1  0
  3 26  1  0
  3 27  1  0
  4 28  1  0
  4 29  1  0
  5 30  1  0
  5 31  1  0
  6 32  1  6
  8 33  1  0
  9 34  1  0
 11 35  1  0
 12 36  1  0
 12 37  1  0
 14 38  1  0
 18 39  1  0
 19 40  1  0
 22 41  1  0
M  ISO  8  24  13  25  13  26  13  27  13  28  13  29  13  30  13  31  13
M  ISO  8  32  13  33  14  34  14  35  14  36   8  37   8  38  14  39  14
M  ISO  2  40  14  41  14
M  END
>  <minimizedAffinity>  (1) 
-6.08441544

>  <minimizedRMSD>  (1) 
1.96435976

$$$$
