
     RDKit          3D

 39 42  0  0  1  0  0  0  0  0999 V2000
   41.9780   34.3220   41.1400 N   0  0  0  0  0  0  0  0  0  0  0  0
   40.9290   35.1760   41.6490 C   0  0  0  0  0  0  0  0  0  0  0  0
   40.2640   35.8990   40.5290 C   0  0  0  0  0  0  0  0  0  0  0  0
   39.8020   34.9800   39.4470 C   0  0  0  0  0  0  0  0  0  0  0  0
   40.7260   33.8830   39.0850 C   0  0  0  0  0  0  0  0  0  0  0  0
   41.5020   33.3300   40.2370 C   0  0  2  0  0  0  0  0  0  0  0  0
   40.7860   32.3030   40.9960 C   0  0  0  0  0  0  0  0  0  0  0  0
   39.5480   31.8990   40.6760 N   0  0  0  0  0  0  0  0  0  0  0  0
   39.1440   30.9920   41.4960 O   0  0  0  0  0  0  0  0  0  0  0  0
   40.1140   30.7760   42.3820 C   0  0  0  0  0  0  0  0  0  0  0  0
   41.1480   31.5920   42.0770 N   0  0  0  0  0  0  0  0  0  0  0  0
   43.0260   35.1120   40.6100 C   0  0  0  0  0  0  0  0  0  0  0  0
   46.1650   35.0180   42.3780 N   0  0  0  0  0  0  0  0  0  0  0  0
   45.4770   35.8560   43.1330 C   0  0  0  0  0  0  0  0  0  0  0  0
   44.2460   36.0480   42.6540 N   0  0  0  0  0  0  0  0  0  0  0  0
   44.1760   35.2850   41.5460 C   0  0  0  0  0  0  0  0  0  0  0  0
   45.3710   34.6310   41.3580 N   0  0  0  0  0  0  0  0  0  0  0  0
   49.8690   34.5440   42.2640 C   0  0  0  0  0  0  0  0  0  0  0  0
   48.6510   35.2200   42.2280 C   0  0  0  0  0  0  0  0  0  0  0  0
   47.4690   34.4620   42.3930 C   0  0  0  0  0  0  0  0  0  0  0  0
   47.6290   33.1370   42.5710 N   0  0  0  0  0  0  0  0  0  0  0  0
   48.8010   32.4990   42.6040 C   0  0  0  0  0  0  0  0  0  0  0  0
   49.9380   33.2290   42.4460 N   0  0  0  0  0  0  0  0  0  0  0  0
   40.1850   34.5618   42.1773 H   0  0  0  0  0  0  0  0  0  0  0  0
   41.3684   35.9110   42.3394 H   0  0  0  0  0  0  0  0  0  0  0  0
   39.3932   36.4406   40.9270 H   0  0  0  0  0  0  0  0  0  0  0  0
   41.0028   36.5857   40.0902 H   0  0  0  0  0  0  0  0  0  0  0  0
   38.8541   34.5270   39.7731 H   0  0  0  0  0  0  0  0  0  0  0  0
   39.7179   35.6045   38.5454 H   0  0  0  0  0  0  0  0  0  0  0  0
   40.1359   33.0667   38.6430 H   0  0  0  0  0  0  0  0  0  0  0  0
   41.4600   34.3065   38.3837 H   0  0  0  0  0  0  0  0  0  0  0  0
   42.3673   32.8607   39.7460 H   0  0  0  0  0  0  0  0  0  0  0  0
   40.0801   30.0594   43.2159 H   0  0  0  0  0  0  0  0  0  0  0  0
   43.3942   34.6307   39.6919 H   0  0  0  0  0  0  0  0  0  0  0  0
   42.6112   36.1129   40.4202 H   0  0  0  0  0  0  0  0  0  0  0  0
   45.8693   36.3352   44.0421 H   0  0  0  0  0  0  0  0  0  0  0  0
   50.8006   35.1152   42.1381 H   0  0  0  0  0  0  0  0  0  0  0  0
   48.6104   36.3087   42.0760 H   0  0  0  0  0  0  0  0  0  0  0  0
   48.8463   31.4104   42.7551 H   0  0  0  0  0  0  0  0  0  0  0  0
  1  2  1  0
  3  2  1  0
  4  3  1  0
  5  4  1  0
  5  6  1  0
  6  7  1  0
  6  1  1  0
  7 11  1  0
  8  7  2  0
  8  9  1  0
  9 10  1  0
 11 10  2  0
 12  1  1  0
 12 16  1  0
 13 20  1  0
 13 14  1  0
 15 14  2  0
 16 15  1  0
 17 16  2  0
 17 13  1  0
 18 23  2  0
 19 18  1  0
 19 20  2  0
 20 21  1  0
 21 22  2  0
 23 22  1  0
  2 24  1  0
  2 25  1  0
  3 26  1  0
  3 27  1  0
  4 28  1  0
  4 29  1  0
  5 30  1  0
  5 31  1  0
  6 32  1  6
 10 33  1  0
 12 34  1  0
 12 35  1  0
 14 36  1  0
 18 37  1  0
 19 38  1  0
 22 39  1  0
M  ISO  8  24  13  25  13  26  13  27  13  28  13  29  13  30  13  31  13
M  ISO  8  32  13  33  14  34   8  35   8  36  14  37  14  38  14  39  14
M  END
>  <minimizedAffinity>  (1) 
-6.05648947

>  <minimizedRMSD>  (1) 
1.71137595

$$$$
