
     RDKit          3D

 47 51  0  0  1  0  0  0  0  0999 V2000
   42.1660   34.5410   41.2000 N   0  0  0  0  0  0  0  0  0  0  0  0
   40.9660   35.1140   41.7230 C   0  0  0  0  0  0  0  0  0  0  0  0
   40.3780   36.1000   40.7630 C   0  0  0  0  0  0  0  0  0  0  0  0
   40.2020   35.5290   39.3980 C   0  0  0  0  0  0  0  0  0  0  0  0
   41.3230   34.6820   38.9030 C   0  0  0  0  0  0  0  0  0  0  0  0
   41.9550   33.8410   39.9760 C   0  0  1  0  0  0  0  0  0  0  0  0
   43.1390   33.2310   39.4720 N   0  0  0  0  0  0  0  0  0  0  0  0
   43.7640   33.5220   38.2930 C   0  0  0  0  0  0  0  0  0  0  0  0
   44.8590   32.7840   38.0850 N   0  0  0  0  0  0  0  0  0  0  0  0
   44.9670   31.9750   39.1620 C   0  0  0  0  0  0  0  0  0  0  0  0
   45.9410   31.0280   39.4100 C   0  0  0  0  0  0  0  0  0  0  0  0
   45.8130   30.3500   40.5750 N   0  0  0  0  0  0  0  0  0  0  0  0
   44.7690   30.6240   41.4120 C   0  0  0  0  0  0  0  0  0  0  0  0
   43.8280   31.5690   41.1270 N   0  0  0  0  0  0  0  0  0  0  0  0
   43.9160   32.2580   39.9950 C   0  0  0  0  0  0  0  0  0  0  0  0
   46.9990   30.8070   38.4760 N   0  0  0  0  0  0  0  0  0  0  0  0
   43.1870   35.5300   41.1090 C   0  0  0  0  0  0  0  0  0  0  0  0
   46.3320   34.6860   42.6680 N   0  0  0  0  0  0  0  0  0  0  0  0
   45.6400   35.1090   43.7200 C   0  0  0  0  0  0  0  0  0  0  0  0
   44.4030   35.4880   43.3800 N   0  0  0  0  0  0  0  0  0  0  0  0
   44.3310   35.2850   42.0420 C   0  0  0  0  0  0  0  0  0  0  0  0
   45.5250   34.7880   41.5970 N   0  0  0  0  0  0  0  0  0  0  0  0
   50.0380   34.3250   42.3500 C   0  0  0  0  0  0  0  0  0  0  0  0
   48.8150   34.9210   42.6130 C   0  0  0  0  0  0  0  0  0  0  0  0
   47.6330   34.1870   42.4330 C   0  0  0  0  0  0  0  0  0  0  0  0
   47.7940   32.9260   42.0050 N   0  0  0  0  0  0  0  0  0  0  0  0
   48.9790   32.3320   41.7440 C   0  0  0  0  0  0  0  0  0  0  0  0
   50.0970   33.0590   41.9260 N   0  0  0  0  0  0  0  0  0  0  0  0
   40.2356   34.3124   41.9074 H   0  0  0  0  0  0  0  0  0  0  0  0
   41.2080   35.6387   42.6590 H   0  0  0  0  0  0  0  0  0  0  0  0
   39.3957   36.4190   41.1417 H   0  0  0  0  0  0  0  0  0  0  0  0
   41.0747   36.9476   40.6844 H   0  0  0  0  0  0  0  0  0  0  0  0
   39.2904   34.9134   39.4040 H   0  0  0  0  0  0  0  0  0  0  0  0
   40.1535   36.3909   38.7162 H   0  0  0  0  0  0  0  0  0  0  0  0
   40.9356   34.0141   38.1195 H   0  0  0  0  0  0  0  0  0  0  0  0
   42.1002   35.3617   38.5235 H   0  0  0  0  0  0  0  0  0  0  0  0
   41.2421   33.0471   40.2432 H   0  0  0  0  0  0  0  0  0  0  0  0
   43.4035   34.2850   37.5874 H   0  0  0  0  0  0  0  0  0  0  0  0
   44.6839   30.0604   42.3528 H   0  0  0  0  0  0  0  0  0  0  0  0
   47.7196   30.0977   38.6724 H   0  0  0  0  0  0  0  0  0  0  0  0
   47.0413   31.3569   37.6061 H   0  0  0  0  0  0  0  0  0  0  0  0
   43.5724   35.5406   40.0788 H   0  0  0  0  0  0  0  0  0  0  0  0
   42.7355   36.4924   41.3917 H   0  0  0  0  0  0  0  0  0  0  0  0
   46.0359   35.1434   44.7457 H   0  0  0  0  0  0  0  0  0  0  0  0
   50.9665   34.8977   42.4912 H   0  0  0  0  0  0  0  0  0  0  0  0
   48.7712   35.9636   42.9609 H   0  0  0  0  0  0  0  0  0  0  0  0
   49.0284   31.2901   41.3948 H   0  0  0  0  0  0  0  0  0  0  0  0
  1  2  1  0
  3  2  1  0
  4  3  1  0
  5  4  1  0
  5  6  1  0
  6  1  1  0
  7  6  1  0
  7 15  1  0
  8  7  1  0
  9  8  2  0
  9 10  1  0
 10 11  2  0
 10 15  1  0
 11 12  1  0
 12 13  2  0
 14 13  1  0
 15 14  2  0
 16 11  1  0
 17  1  1  0
 17 21  1  0
 18 19  1  0
 20 19  2  0
 21 20  1  0
 22 21  2  0
 22 18  1  0
 23 24  2  0
 25 24  1  0
 25 18  1  0
 26 25  2  0
 27 28  2  0
 27 26  1  0
 28 23  1  0
  2 29  1  0
  2 30  1  0
  3 31  1  0
  3 32  1  0
  4 33  1  0
  4 34  1  0
  5 35  1  0
  5 36  1  0
  6 37  1  1
  8 38  1  0
 13 39  1  0
 16 40  1  0
 16 41  1  0
 17 42  1  0
 17 43  1  0
 19 44  1  0
 23 45  1  0
 24 46  1  0
 27 47  1  0
M  ISO  8  29  13  30  13  31  13  32  13  33  13  34  13  35  13  36  13
M  ISO  8  37  13  38  14  39  14  42   8  43   8  44  14  45  14  46  14
M  ISO  1  47  14
M  END
>  <minimizedAffinity>  (1) 
-5.84726238

>  <minimizedRMSD>  (1) 
2.94208503

$$$$
