
     RDKit          3D

 43 46  0  0  1  0  0  0  0  0999 V2000
   41.9660   34.3870   41.1160 N   0  0  0  0  0  0  0  0  0  0  0  0
   41.0060   35.2790   41.7260 C   0  0  0  0  0  0  0  0  0  0  0  0
   40.3430   36.1150   40.6750 C   0  0  0  0  0  0  0  0  0  0  0  0
   39.7560   35.2920   39.5810 C   0  0  0  0  0  0  0  0  0  0  0  0
   40.6250   34.1830   39.0850 C   0  0  0  0  0  0  0  0  0  0  0  0
   41.3750   33.4860   40.1950 C   0  0  1  0  0  0  0  0  0  0  0  0
   42.4090   32.6180   39.5980 C   0  0  0  0  0  0  0  0  0  0  0  0
   42.6050   32.5060   38.2350 C   0  0  0  0  0  0  0  0  0  0  0  0
   43.5770   31.6880   37.7050 C   0  0  0  0  0  0  0  0  0  0  0  0
   44.3960   30.9460   38.5290 C   0  0  0  0  0  0  0  0  0  0  0  0
   44.1900   31.0670   39.8800 C   0  0  0  0  0  0  0  0  0  0  0  0
   43.2360   31.8700   40.3770 N   0  0  0  0  0  0  0  0  0  0  0  0
   43.0460   35.1270   40.5810 C   0  0  0  0  0  0  0  0  0  0  0  0
   46.1880   34.9760   42.3630 N   0  0  0  0  0  0  0  0  0  0  0  0
   45.4970   35.7950   43.1370 C   0  0  0  0  0  0  0  0  0  0  0  0
   44.2710   36.0120   42.6750 N   0  0  0  0  0  0  0  0  0  0  0  0
   44.1930   35.2720   41.5290 C   0  0  0  0  0  0  0  0  0  0  0  0
   45.3810   34.6280   41.3340 N   0  0  0  0  0  0  0  0  0  0  0  0
   49.8810   34.4700   42.2690 C   0  0  0  0  0  0  0  0  0  0  0  0
   48.6700   35.1520   42.2530 C   0  0  0  0  0  0  0  0  0  0  0  0
   47.4930   34.4150   42.3650 C   0  0  0  0  0  0  0  0  0  0  0  0
   47.6400   33.0830   42.4810 N   0  0  0  0  0  0  0  0  0  0  0  0
   48.8070   32.4200   42.4970 C   0  0  0  0  0  0  0  0  0  0  0  0
   49.9320   33.1460   42.3880 N   0  0  0  0  0  0  0  0  0  0  0  0
   40.2442   34.6875   42.2550 H   0  0  0  0  0  0  0  0  0  0  0  0
   41.5265   35.9382   42.4363 H   0  0  0  0  0  0  0  0  0  0  0  0
   39.5402   36.7020   41.1450 H   0  0  0  0  0  0  0  0  0  0  0  0
   41.1107   36.7653   40.2303 H   0  0  0  0  0  0  0  0  0  0  0  0
   38.8192   34.8507   39.9519 H   0  0  0  0  0  0  0  0  0  0  0  0
   39.6129   35.9729   38.7290 H   0  0  0  0  0  0  0  0  0  0  0  0
   39.9928   33.4445   38.5703 H   0  0  0  0  0  0  0  0  0  0  0  0
   41.3709   34.6244   38.4077 H   0  0  0  0  0  0  0  0  0  0  0  0
   40.6489   32.8905   40.7678 H   0  0  0  0  0  0  0  0  0  0  0  0
   41.9660   33.0871   37.5538 H   0  0  0  0  0  0  0  0  0  0  0  0
   43.7014   31.6258   36.6138 H   0  0  0  0  0  0  0  0  0  0  0  0
   45.1780   30.2878   38.1224 H   0  0  0  0  0  0  0  0  0  0  0  0
   44.8220   30.4920   40.5728 H   0  0  0  0  0  0  0  0  0  0  0  0
   43.4045   34.6157   39.6754 H   0  0  0  0  0  0  0  0  0  0  0  0
   42.6719   36.1389   40.3663 H   0  0  0  0  0  0  0  0  0  0  0  0
   45.8926   36.2457   44.0592 H   0  0  0  0  0  0  0  0  0  0  0  0
   50.8188   35.0381   42.1812 H   0  0  0  0  0  0  0  0  0  0  0  0
   48.6416   36.2472   42.1543 H   0  0  0  0  0  0  0  0  0  0  0  0
   48.8408   31.3249   42.5955 H   0  0  0  0  0  0  0  0  0  0  0  0
  1  2  1  0
  3  2  1  0
  4  3  1  0
  5  4  1  0
  5  6  1  0
  6  1  1  0
  7  6  1  0
  7 12  1  0
  8  7  2  0
  9  8  1  0
  9 10  2  0
 10 11  1  0
 11 12  2  0
 13  1  1  0
 13 17  1  0
 14 21  1  0
 14 15  1  0
 16 15  2  0
 17 16  1  0
 18 17  2  0
 18 14  1  0
 19 24  2  0
 20 19  1  0
 20 21  2  0
 21 22  1  0
 22 23  2  0
 24 23  1  0
  2 25  1  0
  2 26  1  0
  3 27  1  0
  3 28  1  0
  4 29  1  0
  4 30  1  0
  5 31  1  0
  5 32  1  0
  6 33  1  1
  8 34  1  0
  9 35  1  0
 10 36  1  0
 11 37  1  0
 13 38  1  0
 13 39  1  0
 15 40  1  0
 19 41  1  0
 20 42  1  0
 23 43  1  0
M  ISO  8  25  13  26  13  27  13  28  13  29  13  30  13  31  13  32  13
M  ISO  8  33  13  34  14  35  14  36  14  37  14  38   8  39   8  40  14
M  ISO  3  41  14  42  14  43  14
M  END
>  <minimizedAffinity>  (1) 
-5.74224472

>  <minimizedRMSD>  (1) 
1.91444957

$$$$
