
     RDKit          3D

 36 38  0  0  1  0  0  0  0  0999 V2000
   42.8930   34.8130   40.7010 C   0  0  0  0  0  0  0  0  0  0  0  0
   46.0840   35.1160   42.3760 N   0  0  0  0  0  0  0  0  0  0  0  0
   45.3340   35.9500   43.0930 C   0  0  0  0  0  0  0  0  0  0  0  0
   44.0810   36.0020   42.6430 N   0  0  0  0  0  0  0  0  0  0  0  0
   44.0520   35.1510   41.5880 C   0  0  0  0  0  0  0  0  0  0  0  0
   45.2870   34.6030   41.4230 N   0  0  0  0  0  0  0  0  0  0  0  0
   49.8080   34.9430   42.2050 C   0  0  0  0  0  0  0  0  0  0  0  0
   48.5350   35.5120   42.1590 C   0  0  0  0  0  0  0  0  0  0  0  0
   47.4300   34.6800   42.3910 C   0  0  0  0  0  0  0  0  0  0  0  0
   47.7050   33.3950   42.6400 N   0  0  0  0  0  0  0  0  0  0  0  0
   48.9340   32.8400   42.6860 C   0  0  0  0  0  0  0  0  0  0  0  0
   49.9830   33.6490   42.4620 N   0  0  0  0  0  0  0  0  0  0  0  0
   41.6870   34.6200   41.4090 N   0  0  0  0  0  0  0  0  0  0  0  0
   40.8700   35.8080   41.3040 C   0  0  0  0  0  0  0  0  0  0  0  0
   40.4080   35.9960   39.8960 C   0  0  0  0  0  0  0  0  0  0  0  0
   39.7330   34.7720   39.3510 C   0  0  0  0  0  0  0  0  0  0  0  0
   40.4270   33.4730   39.6390 C   0  0  0  0  0  0  0  0  0  0  0  0
   40.9880   33.4340   41.0360 C   0  0  1  0  0  0  0  0  0  0  0  0
   41.9240   32.2790   41.1270 C   0  0  0  0  0  0  0  0  0  0  0  0
   42.2090   31.6270   42.1140 O   0  0  0  0  0  0  0  0  0  0  0  0
   43.1293   33.8879   40.1547 H   0  0  0  0  0  0  0  0  0  0  0  0
   42.7408   35.6663   40.0237 H   0  0  0  0  0  0  0  0  0  0  0  0
   45.7042   36.5268   43.9534 H   0  0  0  0  0  0  0  0  0  0  0  0
   50.6874   35.5787   42.0247 H   0  0  0  0  0  0  0  0  0  0  0  0
   48.4017   36.5831   41.9467 H   0  0  0  0  0  0  0  0  0  0  0  0
   49.0714   31.7694   42.8981 H   0  0  0  0  0  0  0  0  0  0  0  0
   39.9949   35.7061   41.9626 H   0  0  0  0  0  0  0  0  0  0  0  0
   41.4677   36.6813   41.6044 H   0  0  0  0  0  0  0  0  0  0  0  0
   39.6974   36.8351   39.8657 H   0  0  0  0  0  0  0  0  0  0  0  0
   41.2933   36.1973   39.2749 H   0  0  0  0  0  0  0  0  0  0  0  0
   39.6592   34.8827   38.2591 H   0  0  0  0  0  0  0  0  0  0  0  0
   38.7575   34.7133   39.8559 H   0  0  0  0  0  0  0  0  0  0  0  0
   39.7056   32.6508   39.5223 H   0  0  0  0  0  0  0  0  0  0  0  0
   41.2637   33.3694   38.9325 H   0  0  0  0  0  0  0  0  0  0  0  0
   40.1368   33.3405   41.7264 H   0  0  0  0  0  0  0  0  0  0  0  0
   42.4164   31.9797   40.1900 H   0  0  0  0  0  0  0  0  0  0  0  0
  1 13  1  0
  1  5  1  0
  2  9  1  0
  2  3  1  0
  4  3  2  0
  5  4  1  0
  6  5  2  0
  6  2  1  0
  7 12  2  0
  8  7  1  0
  8  9  2  0
  9 10  1  0
 10 11  2  0
 12 11  1  0
 14 13  1  0
 15 14  1  0
 16 17  1  0
 16 15  1  0
 17 18  1  0
 18 19  1  0
 18 13  1  0
 19 20  2  0
  1 21  1  0
  1 22  1  0
  3 23  1  0
  7 24  1  0
  8 25  1  0
 11 26  1  0
 14 27  1  0
 14 28  1  0
 15 29  1  0
 15 30  1  0
 16 31  1  0
 16 32  1  0
 17 33  1  0
 17 34  1  0
 18 35  1  1
 19 36  1  0
M  ISO  8  21   8  22   8  23  14  24  14  25  14  26  14  27  13  28  13
M  ISO  8  29  13  30  13  31  13  32  13  33  13  34  13  35  13  36   6
M  END
>  <minimizedAffinity>  (1) 
-5.38030624

>  <minimizedRMSD>  (1) 
1.78637743

$$$$
