
     RDKit          3D

 51 55  0  0  1  0  0  0  0  0999 V2000
   42.0470   34.4460   41.0630 N   0  0  0  0  0  0  0  0  0  0  0  0
   40.8130   34.9780   41.5500 C   0  0  0  0  0  0  0  0  0  0  0  0
   40.2080   35.8950   40.5330 C   0  0  0  0  0  0  0  0  0  0  0  0
   40.0860   35.2370   39.1890 C   0  0  0  0  0  0  0  0  0  0  0  0
   41.2480   34.4200   38.7540 C   0  0  0  0  0  0  0  0  0  0  0  0
   41.8870   33.6420   39.8870 C   0  0  1  0  0  0  0  0  0  0  0  0
   43.0270   35.4590   40.9480 C   0  0  0  0  0  0  0  0  0  0  0  0
   46.1080   34.9410   42.7720 N   0  0  0  0  0  0  0  0  0  0  0  0
   45.2890   35.3220   43.7420 C   0  0  0  0  0  0  0  0  0  0  0  0
   44.0660   35.5730   43.2890 N   0  0  0  0  0  0  0  0  0  0  0  0
   44.1230   35.3350   41.9590 C   0  0  0  0  0  0  0  0  0  0  0  0
   45.3950   34.9380   41.6220 N   0  0  0  0  0  0  0  0  0  0  0  0
   49.7950   34.9390   42.2500 C   0  0  0  0  0  0  0  0  0  0  0  0
   48.5060   35.4330   42.3310 C   0  0  0  0  0  0  0  0  0  0  0  0
   47.4780   34.5550   42.6580 C   0  0  0  0  0  0  0  0  0  0  0  0
   47.8340   33.2770   42.8690 N   0  0  0  0  0  0  0  0  0  0  0  0
   49.0750   32.7920   42.7930 C   0  0  0  0  0  0  0  0  0  0  0  0
   50.0720   33.6490   42.4760 N   0  0  0  0  0  0  0  0  0  0  0  0
   43.5150   33.0540   39.3760 S   0  0  0  0  0  0  0  0  0  0  0  0
   43.4750   32.0890   37.8820 C   0  0  0  0  0  0  0  0  0  0  0  0
   42.4350   31.3070   37.4320 C   0  0  0  0  0  0  0  0  0  0  0  0
   42.5530   30.6070   36.2370 C   0  0  0  0  0  0  0  0  0  0  0  0
   43.6850   30.6550   35.4580 C   0  0  0  0  0  0  0  0  0  0  0  0
   44.7190   31.4420   35.9210 C   0  0  0  0  0  0  0  0  0  0  0  0
   45.8670   31.5050   35.1550 C   0  0  0  0  0  0  0  0  0  0  0  0
   46.9530   32.2690   35.5400 C   0  0  0  0  0  0  0  0  0  0  0  0
   46.8810   32.9830   36.7240 C   0  0  0  0  0  0  0  0  0  0  0  0
   45.7190   32.8940   37.4600 C   0  0  0  0  0  0  0  0  0  0  0  0
   44.6150   32.1450   37.1090 C   0  0  0  0  0  0  0  0  0  0  0  0
   40.1164   34.1515   41.7540 H   0  0  0  0  0  0  0  0  0  0  0  0
   41.0056   35.5435   42.4736 H   0  0  0  0  0  0  0  0  0  0  0  0
   39.2062   36.1940   40.8749 H   0  0  0  0  0  0  0  0  0  0  0  0
   40.8675   36.7689   40.4264 H   0  0  0  0  0  0  0  0  0  0  0  0
   39.2041   34.5801   39.2151 H   0  0  0  0  0  0  0  0  0  0  0  0
   40.0144   36.0597   38.4624 H   0  0  0  0  0  0  0  0  0  0  0  0
   40.9075   33.7071   37.9886 H   0  0  0  0  0  0  0  0  0  0  0  0
   42.0077   35.1131   38.3635 H   0  0  0  0  0  0  0  0  0  0  0  0
   41.2205   32.7996   40.1237 H   0  0  0  0  0  0  0  0  0  0  0  0
   43.4705   35.4042   39.9429 H   0  0  0  0  0  0  0  0  0  0  0  0
   42.5252   36.4216   41.1257 H   0  0  0  0  0  0  0  0  0  0  0  0
   45.5867   35.4188   44.7965 H   0  0  0  0  0  0  0  0  0  0  0  0
   50.6155   35.6250   41.9927 H   0  0  0  0  0  0  0  0  0  0  0  0
   48.2983   36.4964   42.1411 H   0  0  0  0  0  0  0  0  0  0  0  0
   49.2806   31.7281   42.9823 H   0  0  0  0  0  0  0  0  0  0  0  0
   41.5080   31.2360   38.0199 H   0  0  0  0  0  0  0  0  0  0  0  0
   41.7067   29.9898   35.9010 H   0  0  0  0  0  0  0  0  0  0  0  0
   43.7621   30.0948   34.5145 H   0  0  0  0  0  0  0  0  0  0  0  0
   45.9182   30.9337   34.2164 H   0  0  0  0  0  0  0  0  0  0  0  0
   47.8584   32.3089   34.9166 H   0  0  0  0  0  0  0  0  0  0  0  0
   47.7239   33.6013   37.0663 H   0  0  0  0  0  0  0  0  0  0  0  0
   45.6681   33.4640   38.3994 H   0  0  0  0  0  0  0  0  0  0  0  0
  1  2  1  0
  3  2  1  0
  4  3  1  0
  5  4  1  0
  5  6  1  0
  6  1  1  0
  7  1  1  0
  7 11  1  0
  8  9  1  0
 10  9  2  0
 11 10  1  0
 12 11  2  0
 12  8  1  0
 13 14  2  0
 13 18  1  0
 14 15  1  0
 15  8  1  0
 15 16  2  0
 17 16  1  0
 18 17  2  0
 19  6  1  0
 20 19  1  0
 21 20  2  0
 22 21  1  0
 23 24  1  0
 23 22  2  0
 24 29  2  0
 25 26  2  0
 25 24  1  0
 26 27  1  0
 27 28  2  0
 29 28  1  0
 29 20  1  0
  2 30  1  0
  2 31  1  0
  3 32  1  0
  3 33  1  0
  4 34  1  0
  4 35  1  0
  5 36  1  0
  5 37  1  0
  6 38  1  1
  7 39  1  0
  7 40  1  0
  9 41  1  0
 13 42  1  0
 14 43  1  0
 17 44  1  0
 21 45  1  0
 22 46  1  0
 23 47  1  0
 25 48  1  0
 26 49  1  0
 27 50  1  0
 28 51  1  0
M  ISO  8  30  13  31  13  32  13  33  13  34  13  35  13  36  13  37  13
M  ISO  8  38  13  39   8  40   8  41  14  42  14  43  14  44  14  45  14
M  ISO  6  46  14  47  14  48  14  49  14  50  14  51  14
M  END
>  <minimizedAffinity>  (1) 
-6.19097424

>  <minimizedRMSD>  (1) 
1.55529058

$$$$
