
     RDKit          3D

 44 47  0  0  1  0  0  0  0  0999 V2000
   41.8270   33.9360   40.5610 N   0  0  0  0  0  0  0  0  0  0  0  0
   40.7190   34.5500   41.2280 C   0  0  0  0  0  0  0  0  0  0  0  0
   39.9780   35.4710   40.3220 C   0  0  0  0  0  0  0  0  0  0  0  0
   39.5880   34.8000   39.0410 C   0  0  0  0  0  0  0  0  0  0  0  0
   40.6610   33.9890   38.3920 C   0  0  0  0  0  0  0  0  0  0  0  0
   41.4550   33.2000   39.3870 C   0  0  1  0  0  0  0  0  0  0  0  0
   42.8060   34.9420   40.2680 C   0  0  0  0  0  0  0  0  0  0  0  0
   45.8030   34.9430   42.2790 N   0  0  0  0  0  0  0  0  0  0  0  0
   44.9260   35.4920   43.1050 C   0  0  0  0  0  0  0  0  0  0  0  0
   43.7240   35.5950   42.5610 N   0  0  0  0  0  0  0  0  0  0  0  0
   43.8470   35.0800   41.3210 C   0  0  0  0  0  0  0  0  0  0  0  0
   45.1440   34.6730   41.1460 N   0  0  0  0  0  0  0  0  0  0  0  0
   49.5240   35.0010   42.0260 C   0  0  0  0  0  0  0  0  0  0  0  0
   48.2210   35.4600   41.9550 C   0  0  0  0  0  0  0  0  0  0  0  0
   47.1860   34.5930   42.3080 C   0  0  0  0  0  0  0  0  0  0  0  0
   47.5490   33.3600   42.6960 N   0  0  0  0  0  0  0  0  0  0  0  0
   48.7990   32.9060   42.7680 C   0  0  0  0  0  0  0  0  0  0  0  0
   49.8020   33.7530   42.4230 N   0  0  0  0  0  0  0  0  0  0  0  0
   42.9320   32.4850   38.6830 S   0  0  0  0  0  0  0  0  0  0  0  0
   42.6160   31.3670   37.3410 C   0  0  0  0  0  0  0  0  0  0  0  0
   41.4080   30.6980   37.4210 C   0  0  0  0  0  0  0  0  0  0  0  0
   41.0410   29.7960   36.4370 C   0  0  0  0  0  0  0  0  0  0  0  0
   41.9130   29.5780   35.3650 C   0  0  0  0  0  0  0  0  0  0  0  0
   43.1240   30.2690   35.3120 C   0  0  0  0  0  0  0  0  0  0  0  0
   43.4470   31.1370   36.2900 N   0  0  0  0  0  0  0  0  0  0  0  0
   40.0330   33.7647   41.5782 H   0  0  0  0  0  0  0  0  0  0  0  0
   41.1075   35.1366   42.0735 H   0  0  0  0  0  0  0  0  0  0  0  0
   39.0678   35.8171   40.8336 H   0  0  0  0  0  0  0  0  0  0  0  0
   40.6403   36.3145   40.0772 H   0  0  0  0  0  0  0  0  0  0  0  0
   38.7388   34.1333   39.2516 H   0  0  0  0  0  0  0  0  0  0  0  0
   39.3494   35.6089   38.3348 H   0  0  0  0  0  0  0  0  0  0  0  0
   40.1961   33.2931   37.6782 H   0  0  0  0  0  0  0  0  0  0  0  0
   41.3484   34.6826   37.8857 H   0  0  0  0  0  0  0  0  0  0  0  0
   40.7604   32.4016   39.6871 H   0  0  0  0  0  0  0  0  0  0  0  0
   43.3010   34.6810   39.3209 H   0  0  0  0  0  0  0  0  0  0  0  0
   42.2749   35.9035   40.2095 H   0  0  0  0  0  0  0  0  0  0  0  0
   45.1684   35.8241   44.1253 H   0  0  0  0  0  0  0  0  0  0  0  0
   50.3485   35.6751   41.7507 H   0  0  0  0  0  0  0  0  0  0  0  0
   48.0051   36.4875   41.6270 H   0  0  0  0  0  0  0  0  0  0  0  0
   49.0117   31.8779   43.0964 H   0  0  0  0  0  0  0  0  0  0  0  0
   40.7352   30.8837   38.2712 H   0  0  0  0  0  0  0  0  0  0  0  0
   40.0818   29.2608   36.4969 H   0  0  0  0  0  0  0  0  0  0  0  0
   41.6458   28.8668   34.5695 H   0  0  0  0  0  0  0  0  0  0  0  0
   43.8147   30.1049   34.4718 H   0  0  0  0  0  0  0  0  0  0  0  0
  1  2  1  0
  3  2  1  0
  4  3  1  0
  5  4  1  0
  5  6  1  0
  6  1  1  0
  7  1  1  0
  7 11  1  0
  8 15  1  0
  8  9  1  0
 10  9  2  0
 11 10  1  0
 12 11  2  0
 12  8  1  0
 13 18  2  0
 14 13  1  0
 14 15  2  0
 15 16  1  0
 16 17  2  0
 18 17  1  0
 19  6  1  0
 20 21  2  0
 20 19  1  0
 22 21  1  0
 23 22  2  0
 24 23  1  0
 24 25  2  0
 25 20  1  0
  2 26  1  0
  2 27  1  0
  3 28  1  0
  3 29  1  0
  4 30  1  0
  4 31  1  0
  5 32  1  0
  5 33  1  0
  6 34  1  1
  7 35  1  0
  7 36  1  0
  9 37  1  0
 13 38  1  0
 14 39  1  0
 17 40  1  0
 21 41  1  0
 22 42  1  0
 23 43  1  0
 24 44  1  0
M  ISO  8  26  13  27  13  28  13  29  13  30  13  31  13  32  13  33  13
M  ISO  8  34  13  35   8  36   8  37  14  38  14  39  14  40  14  41  14
M  ISO  3  42  14  43  14  44  14
M  END
>  <minimizedAffinity>  (1) 
-5.53652

>  <minimizedRMSD>  (1) 
0.708585322

$$$$
