
     RDKit          3D

 47 50  0  0  1  0  0  0  0  0999 V2000
   42.0690   34.0050   40.4720 N   0  0  0  0  0  0  0  0  0  0  0  0
   40.8510   34.2800   41.1760 C   0  0  0  0  0  0  0  0  0  0  0  0
   40.0010   35.2370   40.4110 C   0  0  0  0  0  0  0  0  0  0  0  0
   39.7810   34.7900   38.9940 C   0  0  0  0  0  0  0  0  0  0  0  0
   40.9790   34.2520   38.2870 C   0  0  0  0  0  0  0  0  0  0  0  0
   41.8550   33.4130   39.1820 C   0  0  1  0  0  0  0  0  0  0  0  0
   42.8800   35.1720   40.4240 C   0  0  0  0  0  0  0  0  0  0  0  0
   45.8730   34.9910   42.4410 N   0  0  0  0  0  0  0  0  0  0  0  0
   44.9810   35.4100   43.3290 C   0  0  0  0  0  0  0  0  0  0  0  0
   43.7790   35.5760   42.7960 N   0  0  0  0  0  0  0  0  0  0  0  0
   43.9210   35.2060   41.5000 C   0  0  0  0  0  0  0  0  0  0  0  0
   45.2190   34.8330   41.2760 N   0  0  0  0  0  0  0  0  0  0  0  0
   49.5850   35.0820   42.0670 C   0  0  0  0  0  0  0  0  0  0  0  0
   48.2700   35.5260   42.0330 C   0  0  0  0  0  0  0  0  0  0  0  0
   47.2520   34.6630   42.4550 C   0  0  0  0  0  0  0  0  0  0  0  0
   47.6470   33.4390   42.8410 N   0  0  0  0  0  0  0  0  0  0  0  0
   48.9100   33.0070   42.8910 C   0  0  0  0  0  0  0  0  0  0  0  0
   49.8880   33.8610   42.4920 N   0  0  0  0  0  0  0  0  0  0  0  0
   43.4540   33.1230   38.4190 S   0  0  0  0  0  0  0  0  0  0  0  0
   43.2260   31.4630   36.3250 N   0  0  0  0  0  0  0  0  0  0  0  0
   44.3930   31.1880   35.5310 C   0  0  0  0  0  0  0  0  0  0  0  0
   45.5440   31.6740   36.4040 C   0  0  0  0  0  0  0  0  0  0  0  0
   45.0990   31.1260   37.7550 C   0  0  0  0  0  0  0  0  0  0  0  0
   43.6150   31.4710   37.7100 C   0  0  1  0  0  0  0  0  0  0  0  0
   40.2971   33.3404   41.3188 H   0  0  0  0  0  0  0  0  0  0  0  0
   41.1000   34.7296   42.1485 H   0  0  0  0  0  0  0  0  0  0  0  0
   39.0251   35.3227   40.9113 H   0  0  0  0  0  0  0  0  0  0  0  0
   40.5221   36.2053   40.3835 H   0  0  0  0  0  0  0  0  0  0  0  0
   39.0137   34.0018   39.0045 H   0  0  0  0  0  0  0  0  0  0  0  0
   39.4887   35.6936   38.4389 H   0  0  0  0  0  0  0  0  0  0  0  0
   40.6409   33.6317   37.4438 H   0  0  0  0  0  0  0  0  0  0  0  0
   41.5771   35.1102   37.9467 H   0  0  0  0  0  0  0  0  0  0  0  0
   41.3162   32.4644   39.3230 H   0  0  0  0  0  0  0  0  0  0  0  0
   43.3843   35.2084   39.4471 H   0  0  0  0  0  0  0  0  0  0  0  0
   42.2195   36.0381   40.5778 H   0  0  0  0  0  0  0  0  0  0  0  0
   45.2127   35.5983   44.3877 H   0  0  0  0  0  0  0  0  0  0  0  0
   50.3905   35.7539   41.7358 H   0  0  0  0  0  0  0  0  0  0  0  0
   48.0318   36.5402   41.6799 H   0  0  0  0  0  0  0  0  0  0  0  0
   49.1501   31.9931   43.2437 H   0  0  0  0  0  0  0  0  0  0  0  0
   42.5167   30.7331   36.1665 H   0  0  0  0  0  0  0  0  0  0  0  0
   44.4834   30.1111   35.3258 H   0  0  0  0  0  0  0  0  0  0  0  0
   44.3659   31.6796   34.5473 H   0  0  0  0  0  0  0  0  0  0  0  0
   46.5064   31.2461   36.0865 H   0  0  0  0  0  0  0  0  0  0  0  0
   45.7192   32.7597   36.3786 H   0  0  0  0  0  0  0  0  0  0  0  0
   45.2630   30.0408   37.8286 H   0  0  0  0  0  0  0  0  0  0  0  0
   45.6418   31.5344   38.6202 H   0  0  0  0  0  0  0  0  0  0  0  0
   42.9813   30.7657   38.2677 H   0  0  0  0  0  0  0  0  0  0  0  0
  1  2  1  0
  3  2  1  0
  4  3  1  0
  5  4  1  0
  5  6  1  0
  6  1  1  0
  7  1  1  0
  7 11  1  0
  8 15  1  0
  8  9  1  0
 10  9  2  0
 11 10  1  0
 12 11  2  0
 12  8  1  0
 13 18  2  0
 14 13  1  0
 14 15  2  0
 15 16  1  0
 16 17  2  0
 18 17  1  0
 19  6  1  0
 20 24  1  0
 21 20  1  0
 21 22  1  0
 22 23  1  0
 24 23  1  0
 24 19  1  0
  2 25  1  0
  2 26  1  0
  3 27  1  0
  3 28  1  0
  4 29  1  0
  4 30  1  0
  5 31  1  0
  5 32  1  0
  6 33  1  1
  7 34  1  0
  7 35  1  0
  9 36  1  0
 13 37  1  0
 14 38  1  0
 17 39  1  0
 20 40  1  0
 21 41  1  0
 21 42  1  0
 22 43  1  0
 22 44  1  0
 23 45  1  0
 23 46  1  0
 24 47  1  1
M  ISO  8  25  13  26  13  27  13  28  13  29  13  30  13  31  13  32  13
M  ISO  8  33  13  34   8  35   8  36  14  37  14  38  14  39  14  40   5
M  ISO  7  41  13  42  13  43  13  44  13  45  13  46  13  47  13
M  END
>  <minimizedAffinity>  (1) 
-5.42562103

>  <minimizedRMSD>  (1) 
1.10285699

$$$$
