
     RDKit          3D

 48 51  0  0  1  0  0  0  0  0999 V2000
   42.1500   34.0780   40.5560 N   0  0  0  0  0  0  0  0  0  0  0  0
   40.9320   34.2570   41.3020 C   0  0  0  0  0  0  0  0  0  0  0  0
   40.0320   35.2230   40.6200 C   0  0  0  0  0  0  0  0  0  0  0  0
   39.8110   34.8540   39.1760 C   0  0  0  0  0  0  0  0  0  0  0  0
   41.0180   34.4290   38.4150 C   0  0  0  0  0  0  0  0  0  0  0  0
   41.9230   33.5490   39.2480 C   0  0  1  0  0  0  0  0  0  0  0  0
   42.9230   35.2640   40.5660 C   0  0  0  0  0  0  0  0  0  0  0  0
   45.9400   35.0000   42.5460 N   0  0  0  0  0  0  0  0  0  0  0  0
   45.0770   35.4340   43.4460 C   0  0  0  0  0  0  0  0  0  0  0  0
   43.8710   35.6110   42.9450 N   0  0  0  0  0  0  0  0  0  0  0  0
   43.9750   35.2650   41.6340 C   0  0  0  0  0  0  0  0  0  0  0  0
   45.2710   34.8800   41.3780 N   0  0  0  0  0  0  0  0  0  0  0  0
   49.6470   35.1030   42.0750 C   0  0  0  0  0  0  0  0  0  0  0  0
   48.3250   35.5450   42.0820 C   0  0  0  0  0  0  0  0  0  0  0  0
   47.3190   34.6500   42.5000 C   0  0  0  0  0  0  0  0  0  0  0  0
   47.7170   33.4280   42.8610 N   0  0  0  0  0  0  0  0  0  0  0  0
   48.9910   33.0030   42.8540 C   0  0  0  0  0  0  0  0  0  0  0  0
   49.9590   33.8600   42.4540 N   0  0  0  0  0  0  0  0  0  0  0  0
   43.5090   33.3040   38.4620 S   0  0  0  0  0  0  0  0  0  0  0  0
   43.9300   31.5390   38.5260 C   0  0  0  0  0  0  0  0  0  0  0  0
   42.7260   30.6720   38.2460 C   0  0  0  0  0  0  0  0  0  0  0  0
   42.5270   30.9390   36.7660 C   0  0  0  0  0  0  0  0  0  0  0  0
   43.9300   30.7420   36.2340 C   0  0  0  0  0  0  0  0  0  0  0  0
   44.8390   31.1460   37.3780 C   0  0  0  0  0  0  0  0  0  0  0  0
   40.4189   33.2882   41.3924 H   0  0  0  0  0  0  0  0  0  0  0  0
   41.1833   34.6519   42.2974 H   0  0  0  0  0  0  0  0  0  0  0  0
   39.0616   35.2332   41.1380 H   0  0  0  0  0  0  0  0  0  0  0  0
   40.5060   36.2151   40.6520 H   0  0  0  0  0  0  0  0  0  0  0  0
   39.0875   34.0259   39.1480 H   0  0  0  0  0  0  0  0  0  0  0  0
   39.4630   35.7754   38.6862 H   0  0  0  0  0  0  0  0  0  0  0  0
   40.6986   33.8694   37.5235 H   0  0  0  0  0  0  0  0  0  0  0  0
   41.5811   35.3310   38.1333 H   0  0  0  0  0  0  0  0  0  0  0  0
   41.3948   32.5882   39.3368 H   0  0  0  0  0  0  0  0  0  0  0  0
   43.4153   35.3704   39.5881 H   0  0  0  0  0  0  0  0  0  0  0  0
   42.2406   36.1014   40.7737 H   0  0  0  0  0  0  0  0  0  0  0  0
   45.3359   35.6265   44.4976 H   0  0  0  0  0  0  0  0  0  0  0  0
   50.4454   35.7876   41.7527 H   0  0  0  0  0  0  0  0  0  0  0  0
   48.0724   36.5687   41.7686 H   0  0  0  0  0  0  0  0  0  0  0  0
   49.2426   31.9789   43.1671 H   0  0  0  0  0  0  0  0  0  0  0  0
   44.3689   31.3974   39.5247 H   0  0  0  0  0  0  0  0  0  0  0  0
   42.9365   29.6102   38.4418 H   0  0  0  0  0  0  0  0  0  0  0  0
   41.8488   30.8919   38.8722 H   0  0  0  0  0  0  0  0  0  0  0  0
   41.8231   30.2215   36.3191 H   0  0  0  0  0  0  0  0  0  0  0  0
   42.0962   31.9260   36.5417 H   0  0  0  0  0  0  0  0  0  0  0  0
   44.0963   29.6897   35.9602 H   0  0  0  0  0  0  0  0  0  0  0  0
   44.1167   31.3349   35.3264 H   0  0  0  0  0  0  0  0  0  0  0  0
   45.4799   30.3016   37.6716 H   0  0  0  0  0  0  0  0  0  0  0  0
   45.4998   31.9766   37.0892 H   0  0  0  0  0  0  0  0  0  0  0  0
  1  7  1  0
  1  2  1  0
  3  2  1  0
  4  3  1  0
  5  4  1  0
  5  6  1  0
  6  1  1  0
  7 11  1  0
  8  9  1  0
 10  9  2  0
 11 10  1  0
 12 11  2  0
 12  8  1  0
 13 14  2  0
 13 18  1  0
 14 15  1  0
 15  8  1  0
 15 16  2  0
 17 16  1  0
 18 17  2  0
 19 20  1  0
 19  6  1  0
 21 20  1  0
 22 21  1  0
 23 22  1  0
 23 24  1  0
 24 20  1  0
  2 25  1  0
  2 26  1  0
  3 27  1  0
  3 28  1  0
  4 29  1  0
  4 30  1  0
  5 31  1  0
  5 32  1  0
  6 33  1  1
  7 34  1  0
  7 35  1  0
  9 36  1  0
 13 37  1  0
 14 38  1  0
 17 39  1  0
 20 40  1  0
 21 41  1  0
 21 42  1  0
 22 43  1  0
 22 44  1  0
 23 45  1  0
 23 46  1  0
 24 47  1  0
 24 48  1  0
M  ISO  8  25  13  26  13  27  13  28  13  29  13  30  13  31  13  32  13
M  ISO  8  33  13  34   8  35   8  36  14  37  14  38  14  39  14  40  13
M  ISO  8  41  13  42  13  43  13  44  13  45  13  46  13  47  13  48  13
M  END
>  <minimizedAffinity>  (1) 
-5.19511938

>  <minimizedRMSD>  (1) 
1.27957857

$$$$
