
     RDKit          3D

 42 45  0  0  1  0  0  0  0  0999 V2000
   41.8980   34.3650   41.1090 N   0  0  0  0  0  0  0  0  0  0  0  0
   40.8820   35.2500   41.5960 C   0  0  0  0  0  0  0  0  0  0  0  0
   40.2360   35.9680   40.4620 C   0  0  0  0  0  0  0  0  0  0  0  0
   39.7520   35.0200   39.3910 C   0  0  0  0  0  0  0  0  0  0  0  0
   40.6770   33.9040   39.0400 C   0  0  0  0  0  0  0  0  0  0  0  0
   41.3830   33.3470   40.2520 C   0  0  1  0  0  0  0  0  0  0  0  0
   42.9820   35.0820   40.5500 C   0  0  0  0  0  0  0  0  0  0  0  0
   46.1060   35.0450   42.3820 N   0  0  0  0  0  0  0  0  0  0  0  0
   45.3660   35.8520   43.1270 C   0  0  0  0  0  0  0  0  0  0  0  0
   44.1540   36.0210   42.6440 N   0  0  0  0  0  0  0  0  0  0  0  0
   44.1170   35.2690   41.5120 C   0  0  0  0  0  0  0  0  0  0  0  0
   45.3210   34.6630   41.3460 N   0  0  0  0  0  0  0  0  0  0  0  0
   49.8150   34.6550   42.2190 C   0  0  0  0  0  0  0  0  0  0  0  0
   48.5770   35.2610   42.1710 C   0  0  0  0  0  0  0  0  0  0  0  0
   47.4260   34.5210   42.4090 C   0  0  0  0  0  0  0  0  0  0  0  0
   47.6080   33.2090   42.6820 N   0  0  0  0  0  0  0  0  0  0  0  0
   48.8090   32.6200   42.7290 C   0  0  0  0  0  0  0  0  0  0  0  0
   49.9120   33.3630   42.4930 N   0  0  0  0  0  0  0  0  0  0  0  0
   42.7280   32.2560   39.7910 S   0  0  0  0  0  0  0  0  0  0  0  0
   43.3620   31.3800   41.2500 C   0  0  0  0  0  0  0  0  0  0  0  0
   42.4330   30.9710   42.3290 C   0  0  0  0  0  0  0  0  0  0  0  0
   42.8620   29.9150   41.3170 C   0  0  0  0  0  0  0  0  0  0  0  0
   40.1218   34.6673   42.1370 H   0  0  0  0  0  0  0  0  0  0  0  0
   41.3422   35.9868   42.2708 H   0  0  0  0  0  0  0  0  0  0  0  0
   39.3769   36.5375   40.8462 H   0  0  0  0  0  0  0  0  0  0  0  0
   40.9867   36.6336   40.0110 H   0  0  0  0  0  0  0  0  0  0  0  0
   38.8059   34.5773   39.7358 H   0  0  0  0  0  0  0  0  0  0  0  0
   39.6585   35.6264   38.4780 H   0  0  0  0  0  0  0  0  0  0  0  0
   40.0967   33.0984   38.5665 H   0  0  0  0  0  0  0  0  0  0  0  0
   41.4417   34.3012   38.3563 H   0  0  0  0  0  0  0  0  0  0  0  0
   40.6151   32.7818   40.8005 H   0  0  0  0  0  0  0  0  0  0  0  0
   43.3525   34.5306   39.6732 H   0  0  0  0  0  0  0  0  0  0  0  0
   42.6114   36.0816   40.2789 H   0  0  0  0  0  0  0  0  0  0  0  0
   45.7260   36.3296   44.0502 H   0  0  0  0  0  0  0  0  0  0  0  0
   50.7233   35.2458   42.0294 H   0  0  0  0  0  0  0  0  0  0  0  0
   48.5009   36.3345   41.9434 H   0  0  0  0  0  0  0  0  0  0  0  0
   48.8964   31.5473   42.9563 H   0  0  0  0  0  0  0  0  0  0  0  0
   44.3178   31.9240   41.2734 H   0  0  0  0  0  0  0  0  0  0  0  0
   42.7958   30.9105   43.3657 H   0  0  0  0  0  0  0  0  0  0  0  0
   41.4596   31.3418   42.6826 H   0  0  0  0  0  0  0  0  0  0  0  0
   42.1476   29.5362   40.5713 H   0  0  0  0  0  0  0  0  0  0  0  0
   43.3296   28.9203   41.3610 H   0  0  0  0  0  0  0  0  0  0  0  0
  1  2  1  0
  3  2  1  0
  4  3  1  0
  5  4  1  0
  5  6  1  0
  6  1  1  0
  7  1  1  0
  7 11  1  0
  8 15  1  0
  8  9  1  0
 10  9  2  0
 11 10  1  0
 12 11  2  0
 12  8  1  0
 13 18  2  0
 14 13  1  0
 14 15  2  0
 15 16  1  0
 16 17  2  0
 18 17  1  0
 19  6  1  0
 19 20  1  0
 20 22  1  0
 20 21  1  0
 22 21  1  0
  2 23  1  0
  2 24  1  0
  3 25  1  0
  3 26  1  0
  4 27  1  0
  4 28  1  0
  5 29  1  0
  5 30  1  0
  6 31  1  1
  7 32  1  0
  7 33  1  0
  9 34  1  0
 13 35  1  0
 14 36  1  0
 17 37  1  0
 20 38  1  0
 21 39  1  0
 21 40  1  0
 22 41  1  0
 22 42  1  0
M  ISO  8  23  13  24  13  25  13  26  13  27  13  28  13  29  13  30  13
M  ISO  8  31  13  32   8  33   8  34  14  35  14  36  14  37  14  38  13
M  ISO  4  39  13  40  13  41  13  42  13
M  END
>  <minimizedAffinity>  (1) 
-5.03556919

>  <minimizedRMSD>  (1) 
0.908867598

$$$$
