
     RDKit          3D

 20 20  0  0  0  0  0  0  0  0999 V2000
   44.6240   35.8360   43.7530 C   0  0  0  0  0  0  0  0  0  0  0  0
   46.3890   34.1320   43.7030 C   0  0  0  0  0  0  0  0  0  0  0  0
   45.3700   34.7690   44.4110 C   0  0  0  0  0  0  0  0  0  0  0  0
   45.1090   34.3490   45.7300 C   0  0  0  0  0  0  0  0  0  0  0  0
   45.8790   33.3370   46.2320 N   0  0  0  0  0  0  0  0  0  0  0  0
   46.8470   32.7580   45.5130 C   0  0  0  0  0  0  0  0  0  0  0  0
   47.1310   33.1340   44.2340 N   0  0  0  0  0  0  0  0  0  0  0  0
   44.6590   35.5650   42.3060 N   0  0  0  0  0  0  0  0  0  0  0  0
   43.3910   35.4550   41.6640 C   0  0  0  0  0  0  0  0  0  0  0  0
   42.2430   35.4790   42.2520 N   0  0  0  0  0  0  0  0  0  0  0  0
   43.4350   35.3090   40.2490 N   0  0  0  0  0  0  0  0  0  0  0  0
   42.1180   35.5810   43.2690 H   0  0  0  0  0  0  0  0  0  0  0  0
   43.5835   35.8435   44.1098 H   0  0  0  0  0  0  0  0  0  0  0  0
   45.0676   36.8174   43.9768 H   0  0  0  0  0  0  0  0  0  0  0  0
   46.5973   34.4542   42.6721 H   0  0  0  0  0  0  0  0  0  0  0  0
   44.3166   34.8170   46.3325 H   0  0  0  0  0  0  0  0  0  0  0  0
   47.4353   31.9489   45.9706 H   0  0  0  0  0  0  0  0  0  0  0  0
   45.5444   35.4614   41.7900 H   0  0  0  0  0  0  0  0  0  0  0  0
   44.3420   35.2876   39.7614 H   0  0  0  0  0  0  0  0  0  0  0  0
   42.5598   35.2247   39.7125 H   0  0  0  0  0  0  0  0  0  0  0  0
  1  3  1  0
  2  7  2  0
  2  3  1  0
  3  4  2  0
  4  5  1  0
  6  5  2  0
  7  6  1  0
  8  1  1  0
  9 10  2  0
  9  8  1  0
 10 12  1  0
 11  9  1  0
  1 13  1  0
  1 14  1  0
  2 15  1  0
  4 16  1  0
  6 17  1  0
  8 18  1  0
 11 19  1  0
 11 20  1  0
M  ISO  5  13   8  14   8  15  14  16  14  17  14
M  END
>  <minimizedAffinity>  (1) 
-3.8846705

>  <minimizedRMSD>  (1) 
2.97044158

$$$$
