
     RDKit          3D

 20 21  0  0  0  0  0  0  0  0999 V2000
   44.3170   35.8280   44.2360 C   0  0  0  0  0  0  0  0  0  0  0  0
   44.5220   35.0550   43.0850 C   0  0  0  0  0  0  0  0  0  0  0  0
   45.1330   33.7920   43.2230 C   0  0  0  0  0  0  0  0  0  0  0  0
   45.4950   33.3890   44.4890 N   0  0  0  0  0  0  0  0  0  0  0  0
   45.2740   34.1720   45.5490 C   0  0  0  0  0  0  0  0  0  0  0  0
   44.6910   35.3940   45.4720 N   0  0  0  0  0  0  0  0  0  0  0  0
   44.1010   35.5730   41.7940 C   0  0  0  0  0  0  0  0  0  0  0  0
   42.7790   35.0830   41.4510 C   0  0  0  0  0  0  0  0  0  0  0  0
   41.5280   35.4770   41.7660 C   0  0  0  0  0  0  0  0  0  0  0  0
   40.4180   34.8350   41.3070 C   0  0  0  0  0  0  0  0  0  0  0  0
   40.7350   33.6960   40.4550 C   0  0  0  0  0  0  0  0  0  0  0  0
   42.5830   33.6940   40.4230 S   0  0  0  0  0  0  0  0  0  0  0  0
   43.8400   36.8144   44.1385 H   0  0  0  0  0  0  0  0  0  0  0  0
   45.3145   33.1499   42.3485 H   0  0  0  0  0  0  0  0  0  0  0  0
   45.5821   33.8050   46.5391 H   0  0  0  0  0  0  0  0  0  0  0  0
   44.0792   36.6720   41.8356 H   0  0  0  0  0  0  0  0  0  0  0  0
   44.8136   35.2341   41.0276 H   0  0  0  0  0  0  0  0  0  0  0  0
   41.3991   36.3521   42.4199 H   0  0  0  0  0  0  0  0  0  0  0  0
   39.3913   35.1435   41.5532 H   0  0  0  0  0  0  0  0  0  0  0  0
   40.0422   33.0048   39.9526 H   0  0  0  0  0  0  0  0  0  0  0  0
  1  6  2  0
  2  3  2  0
  2  1  1  0
  3  4  1  0
  4  5  2  0
  6  5  1  0
  7  2  1  0
  8  9  2  0
  8  7  1  0
 10  9  1  0
 11 10  2  0
 12 11  1  0
 12  8  1  0
  1 13  1  0
  3 14  1  0
  5 15  1  0
  7 16  1  0
  7 17  1  0
  9 18  1  0
 10 19  1  0
 11 20  1  0
M  ISO  8  13  14  14  14  15  14  16   8  17   8  18  14  19  14  20  14
M  END
>  <minimizedAffinity>  (1) 
-3.86446905

>  <minimizedRMSD>  (1) 
0.305797368

$$$$
