
     RDKit          3D

 20 21  0  0  0  0  0  0  0  0999 V2000
   43.9480   35.3380   41.6610 C   0  0  0  0  0  0  0  0  0  0  0  0
   44.2310   35.8210   44.0600 C   0  0  0  0  0  0  0  0  0  0  0  0
   44.4200   34.9520   42.9830 C   0  0  0  0  0  0  0  0  0  0  0  0
   45.0690   33.7190   43.2170 C   0  0  0  0  0  0  0  0  0  0  0  0
   45.4690   33.4640   44.5000 N   0  0  0  0  0  0  0  0  0  0  0  0
   45.2640   34.3340   45.5020 C   0  0  0  0  0  0  0  0  0  0  0  0
   44.6420   35.5340   45.3210 N   0  0  0  0  0  0  0  0  0  0  0  0
   42.5900   34.8630   41.4790 N   0  0  0  0  0  0  0  0  0  0  0  0
   42.2550   33.6190   41.1750 N   0  0  0  0  0  0  0  0  0  0  0  0
   40.9010   33.5080   41.0770 C   0  0  0  0  0  0  0  0  0  0  0  0
   40.3990   34.7750   41.3420 C   0  0  0  0  0  0  0  0  0  0  0  0
   41.4730   35.5950   41.5880 C   0  0  0  0  0  0  0  0  0  0  0  0
   43.9693   36.4339   41.5688 H   0  0  0  0  0  0  0  0  0  0  0  0
   44.5993   34.8946   40.8934 H   0  0  0  0  0  0  0  0  0  0  0  0
   43.7263   36.7812   43.8778 H   0  0  0  0  0  0  0  0  0  0  0  0
   45.2444   32.9977   42.4052 H   0  0  0  0  0  0  0  0  0  0  0  0
   45.6123   34.0677   46.5108 H   0  0  0  0  0  0  0  0  0  0  0  0
   40.3247   32.6022   40.8375 H   0  0  0  0  0  0  0  0  0  0  0  0
   39.3387   35.0676   41.3529 H   0  0  0  0  0  0  0  0  0  0  0  0
   41.4246   36.6665   41.8321 H   0  0  0  0  0  0  0  0  0  0  0  0
  1  3  1  0
  2  7  2  0
  3  4  2  0
  3  2  1  0
  4  5  1  0
  5  6  2  0
  7  6  1  0
  8 12  1  0
  8  1  1  0
  9  8  1  0
 10  9  2  0
 10 11  1  0
 11 12  2  0
  1 13  1  0
  1 14  1  0
  2 15  1  0
  4 16  1  0
  6 17  1  0
 10 18  1  0
 11 19  1  0
 12 20  1  0
M  ISO  8  13   8  14   8  15  14  16  14  17  14  18  14  19  14  20  14
M  END
>  <minimizedAffinity>  (1) 
-3.71108985

>  <minimizedRMSD>  (1) 
0.553562462

$$$$
