
     RDKit          3D

 33 35  0  0  0  0  0  0  0  0999 V2000
   42.7290   31.9730   41.5140 C   0  0  0  0  0  0  0  0  0  0  0  0
   42.8680   30.8050   42.2550 C   0  0  0  0  0  0  0  0  0  0  0  0
   41.8280   30.1620   42.9150 C   0  0  0  0  0  0  0  0  0  0  0  0
   40.5630   30.7220   42.8270 C   0  0  0  0  0  0  0  0  0  0  0  0
   40.3560   31.8840   42.1040 C   0  0  0  0  0  0  0  0  0  0  0  0
   41.4520   32.4640   41.4720 C   0  0  0  0  0  0  0  0  0  0  0  0
   41.0840   33.6570   40.7230 C   0  0  0  0  0  0  0  0  0  0  0  0
   40.9750   34.8190   41.4980 C   0  0  0  0  0  0  0  0  0  0  0  0
   40.6240   36.0610   41.0100 C   0  0  0  0  0  0  0  0  0  0  0  0
   40.3550   36.2000   39.6650 C   0  0  0  0  0  0  0  0  0  0  0  0
   40.4590   35.0640   38.8900 C   0  0  0  0  0  0  0  0  0  0  0  0
   40.8110   33.8270   39.3840 C   0  0  0  0  0  0  0  0  0  0  0  0
   43.8810   32.5790   40.8760 C   0  0  0  0  0  0  0  0  0  0  0  0
   44.4320   34.1920   42.6980 C   0  0  0  0  0  0  0  0  0  0  0  0
   44.7990   33.0830   41.9200 C   0  0  0  0  0  0  0  0  0  0  0  0
   46.0500   32.4630   42.1450 C   0  0  0  0  0  0  0  0  0  0  0  0
   46.8230   33.0090   43.1300 N   0  0  0  0  0  0  0  0  0  0  0  0
   46.4230   34.0760   43.8500 C   0  0  0  0  0  0  0  0  0  0  0  0
   45.2190   34.6960   43.6550 N   0  0  0  0  0  0  0  0  0  0  0  0
   43.8711   30.3588   42.3236 H   0  0  0  0  0  0  0  0  0  0  0  0
   42.0026   29.2395   43.4881 H   0  0  0  0  0  0  0  0  0  0  0  0
   39.7162   30.2386   43.3362 H   0  0  0  0  0  0  0  0  0  0  0  0
   39.3555   32.3354   42.0311 H   0  0  0  0  0  0  0  0  0  0  0  0
   41.1846   34.7351   42.5746 H   0  0  0  0  0  0  0  0  0  0  0  0
   40.5597   36.9277   41.6843 H   0  0  0  0  0  0  0  0  0  0  0  0
   40.0711   37.1701   39.2310 H   0  0  0  0  0  0  0  0  0  0  0  0
   40.2485   35.1507   37.8138 H   0  0  0  0  0  0  0  0  0  0  0  0
   40.8746   32.9664   38.7019 H   0  0  0  0  0  0  0  0  0  0  0  0
   44.3988   31.8289   40.2603 H   0  0  0  0  0  0  0  0  0  0  0  0
   43.5558   33.4106   40.2337 H   0  0  0  0  0  0  0  0  0  0  0  0
   43.4569   34.6663   42.5131 H   0  0  0  0  0  0  0  0  0  0  0  0
   46.3813   31.5918   41.5608 H   0  0  0  0  0  0  0  0  0  0  0  0
   47.0946   34.4657   44.6292 H   0  0  0  0  0  0  0  0  0  0  0  0
  1  2  2  0
  2  3  1  0
  4  3  2  0
  5  4  1  0
  6  1  1  0
  6  5  2  0
  7  6  1  0
  7  8  2  0
  9  8  1  0
 10  9  2  0
 11 12  2  0
 11 10  1  0
 12  7  1  0
 13  1  1  0
 13 15  1  0
 14 19  2  0
 15 16  2  0
 15 14  1  0
 16 17  1  0
 17 18  2  0
 19 18  1  0
  2 20  1  0
  3 21  1  0
  4 22  1  0
  5 23  1  0
  8 24  1  0
  9 25  1  0
 10 26  1  0
 11 27  1  0
 12 28  1  0
 13 29  1  0
 13 30  1  0
 14 31  1  0
 16 32  1  0
 18 33  1  0
M  ISO  8  20  14  21  14  22  14  23  14  24  14  25  14  26  14  27  14
M  ISO  6  28  14  29   8  30   8  31  14  32  14  33  14
M  END
>  <minimizedAffinity>  (1) 
-4.34910917

>  <minimizedRMSD>  (1) 
3.35086966

$$$$
