
     RDKit          3D

 31 32  0  0  0  0  0  0  0  0999 V2000
   42.0130   33.4740   40.8750 C   0  0  0  0  0  0  0  0  0  0  0  0
   42.4360   32.2610   41.3820 C   0  0  0  0  0  0  0  0  0  0  0  0
   41.6490   31.3570   42.0550 C   0  0  0  0  0  0  0  0  0  0  0  0
   40.3110   31.7080   42.2340 C   0  0  0  0  0  0  0  0  0  0  0  0
   39.8120   32.8900   41.7630 C   0  0  0  0  0  0  0  0  0  0  0  0
   40.6850   33.7590   41.0860 C   0  0  0  0  0  0  0  0  0  0  0  0
   42.9370   34.3540   40.1750 C   0  0  0  0  0  0  0  0  0  0  0  0
   43.7780   35.4980   42.1770 C   0  0  0  0  0  0  0  0  0  0  0  0
   44.0410   34.7080   41.0810 C   0  0  0  0  0  0  0  0  0  0  0  0
   45.3730   34.2570   40.8660 C   0  0  0  0  0  0  0  0  0  0  0  0
   46.3110   34.6510   41.7810 N   0  0  0  0  0  0  0  0  0  0  0  0
   45.9770   35.4250   42.8280 C   0  0  0  0  0  0  0  0  0  0  0  0
   44.7210   35.8670   43.0560 N   0  0  0  0  0  0  0  0  0  0  0  0
   40.0790   35.0160   40.6060 C   0  0  0  0  0  0  0  0  0  0  0  0
   39.0490   34.7750   39.4970 C   0  0  0  0  0  0  0  0  0  0  0  0
   39.6260   34.5160   38.2190 N   0  0  0  0  0  0  0  0  0  0  0  0
   43.4933   31.9955   41.2346 H   0  0  0  0  0  0  0  0  0  0  0  0
   42.0534   30.4063   42.4327 H   0  0  0  0  0  0  0  0  0  0  0  0
   39.6414   31.0170   42.7670 H   0  0  0  0  0  0  0  0  0  0  0  0
   38.7544   33.1544   41.9100 H   0  0  0  0  0  0  0  0  0  0  0  0
   43.3375   33.8389   39.2894 H   0  0  0  0  0  0  0  0  0  0  0  0
   42.4116   35.2660   39.8555 H   0  0  0  0  0  0  0  0  0  0  0  0
   42.7461   35.8427   42.3394 H   0  0  0  0  0  0  0  0  0  0  0  0
   45.6359   33.6228   40.0065 H   0  0  0  0  0  0  0  0  0  0  0  0
   46.7677   35.7136   43.5361 H   0  0  0  0  0  0  0  0  0  0  0  0
   39.5804   35.5141   41.4505 H   0  0  0  0  0  0  0  0  0  0  0  0
   40.8828   35.6416   40.1905 H   0  0  0  0  0  0  0  0  0  0  0  0
   38.4314   33.9098   39.7800 H   0  0  0  0  0  0  0  0  0  0  0  0
   38.4613   35.6998   39.4005 H   0  0  0  0  0  0  0  0  0  0  0  0
   40.5589   34.0972   38.3420 H   0  0  0  0  0  0  0  0  0  0  0  0
   39.0235   33.8646   37.6959 H   0  0  0  0  0  0  0  0  0  0  0  0
  1  6  1  0
  1  2  2  0
  2  3  1  0
  3  4  2  0
  5  4  1  0
  6  5  2  0
  7  1  1  0
  7  9  1  0
  8 13  2  0
  9  8  1  0
 10  9  2  0
 10 11  1  0
 11 12  2  0
 12 13  1  0
 14  6  1  0
 15 14  1  0
 16 15  1  0
  2 17  1  0
  3 18  1  0
  4 19  1  0
  5 20  1  0
  7 21  1  0
  7 22  1  0
  8 23  1  0
 10 24  1  0
 12 25  1  0
 14 26  1  0
 14 27  1  0
 15 28  1  0
 15 29  1  0
 16 30  1  0
 16 31  1  0
M  ISO  8  17  14  18  14  19  14  20  14  21   8  22   8  23  14  24  14
M  ISO  7  25  14  26   8  27   8  28   8  29   8  30   5  31   5
M  END
>  <minimizedAffinity>  (1) 
-4.25622559

>  <minimizedRMSD>  (1) 
0.0961294174

$$$$
