
     RDKit          3D

 36 39  0  0  0  0  0  0  0  0999 V2000
   47.1520   33.9070   42.6370 N   0  0  0  0  0  0  0  0  0  0  0  0
   48.2540   33.4160   43.2840 C   0  0  0  0  0  0  0  0  0  0  0  0
   49.2890   32.8230   42.5740 C   0  0  0  0  0  0  0  0  0  0  0  0
   49.1620   32.7480   41.1820 C   0  0  0  0  0  0  0  0  0  0  0  0
   50.0840   32.2150   40.5140 O   0  0  0  0  0  0  0  0  0  0  0  0
   48.0610   33.2470   40.6230 N   0  0  0  0  0  0  0  0  0  0  0  0
   47.0630   33.8210   41.3220 C   0  0  0  0  0  0  0  0  0  0  0  0
   46.0230   34.3000   40.8600 O   0  0  0  0  0  0  0  0  0  0  0  0
   47.8740   33.2010   39.2100 C   0  0  0  0  0  0  0  0  0  0  0  0
   48.3340   34.3080   38.5220 C   0  0  0  0  0  0  0  0  0  0  0  0
   48.2420   34.4480   37.1500 C   0  0  0  0  0  0  0  0  0  0  0  0
   47.6580   33.4200   36.4260 C   0  0  0  0  0  0  0  0  0  0  0  0
   47.1980   32.3080   37.1230 C   0  0  0  0  0  0  0  0  0  0  0  0
   46.6050   31.2580   36.4160 C   0  0  0  0  0  0  0  0  0  0  0  0
   46.1570   30.1670   37.1300 C   0  0  0  0  0  0  0  0  0  0  0  0
   46.2630   30.0530   38.5140 C   0  0  0  0  0  0  0  0  0  0  0  0
   46.8570   31.1080   39.2090 C   0  0  0  0  0  0  0  0  0  0  0  0
   47.2940   32.1770   38.4940 C   0  0  0  0  0  0  0  0  0  0  0  0
   44.7050   36.2100   44.1780 C   0  0  0  0  0  0  0  0  0  0  0  0
   45.6110   35.6520   43.2490 C   0  0  0  0  0  0  0  0  0  0  0  0
   46.2360   34.4630   43.5860 C   0  0  0  0  0  0  0  0  0  0  0  0
   45.9710   33.8600   44.7890 N   0  0  0  0  0  0  0  0  0  0  0  0
   45.0910   34.4320   45.6560 C   0  0  0  0  0  0  0  0  0  0  0  0
   44.4590   35.5950   45.3610 N   0  0  0  0  0  0  0  0  0  0  0  0
   48.3201   33.4923   44.3794 H   0  0  0  0  0  0  0  0  0  0  0  0
   50.1774   32.4261   43.0870 H   0  0  0  0  0  0  0  0  0  0  0  0
   48.7987   35.1220   39.0978 H   0  0  0  0  0  0  0  0  0  0  0  0
   48.6214   35.3496   36.6468 H   0  0  0  0  0  0  0  0  0  0  0  0
   47.5613   33.4821   35.3320 H   0  0  0  0  0  0  0  0  0  0  0  0
   46.4989   31.3009   35.3220 H   0  0  0  0  0  0  0  0  0  0  0  0
   45.6895   29.3400   36.5754 H   0  0  0  0  0  0  0  0  0  0  0  0
   45.8914   29.1621   39.0415 H   0  0  0  0  0  0  0  0  0  0  0  0
   46.9678   31.0746   40.3029 H   0  0  0  0  0  0  0  0  0  0  0  0
   44.1934   37.1540   43.9390 H   0  0  0  0  0  0  0  0  0  0  0  0
   45.8138   36.1466   42.2876 H   0  0  0  0  0  0  0  0  0  0  0  0
   44.8878   33.9393   46.6183 H   0  0  0  0  0  0  0  0  0  0  0  0
  1  2  1  0
  1 21  1  0
  3  2  2  0
  4  3  1  0
  5  4  2  0
  6  4  1  0
  6  7  1  0
  7  1  1  0
  8  7  2  0
  9  6  1  0
 10  9  2  0
 11 10  1  0
 12 13  1  0
 12 11  2  0
 13 18  2  0
 14 13  1  0
 14 15  2  0
 15 16  1  0
 16 17  2  0
 18 17  1  0
 18  9  1  0
 19 24  2  0
 20 21  2  0
 20 19  1  0
 21 22  1  0
 22 23  2  0
 24 23  1  0
  2 25  1  0
  3 26  1  0
 10 27  1  0
 11 28  1  0
 12 29  1  0
 14 30  1  0
 15 31  1  0
 16 32  1  0
 17 33  1  0
 19 34  1  0
 20 35  1  0
 23 36  1  0
M  ISO  8  25  14  26  14  27  14  28  14  29  14  30  14  31  14  32  14
M  ISO  4  33  14  34  14  35  14  36  14
M  END
>  <minimizedAffinity>  (1) 
-5.5933404

>  <minimizedRMSD>  (1) 
2.31916595

$$$$
