
     RDKit          3D

 27 29  0  0  0  0  0  0  0  0999 V2000
   46.5050   34.4380   41.9900 N   0  0  0  0  0  0  0  0  0  0  0  0
   47.6660   35.1560   41.8830 C   0  0  0  0  0  0  0  0  0  0  0  0
   48.4150   35.1510   40.7280 C   0  0  0  0  0  0  0  0  0  0  0  0
   47.9520   34.3890   39.6600 C   0  0  0  0  0  0  0  0  0  0  0  0
   48.6040   34.3570   38.5900 O   0  0  0  0  0  0  0  0  0  0  0  0
   46.8080   33.7070   39.8240 N   0  0  0  0  0  0  0  0  0  0  0  0
   46.0910   33.7230   40.9600 C   0  0  0  0  0  0  0  0  0  0  0  0
   45.0310   33.1130   41.1640 O   0  0  0  0  0  0  0  0  0  0  0  0
   44.5170   35.9010   44.7370 C   0  0  0  0  0  0  0  0  0  0  0  0
   45.0970   35.7310   43.4520 C   0  0  0  0  0  0  0  0  0  0  0  0
   45.9190   34.6090   43.2810 C   0  0  0  0  0  0  0  0  0  0  0  0
   46.1270   33.7540   44.3080 N   0  0  0  0  0  0  0  0  0  0  0  0
   45.5500   33.9570   45.5220 C   0  0  0  0  0  0  0  0  0  0  0  0
   44.7540   35.0170   45.7370 N   0  0  0  0  0  0  0  0  0  0  0  0
   46.2810   32.9040   38.7630 C   0  0  0  0  0  0  0  0  0  0  0  0
   45.4060   33.2290   37.7820 C   0  0  0  0  0  0  0  0  0  0  0  0
   45.0400   32.2970   36.8690 C   0  0  0  0  0  0  0  0  0  0  0  0
   45.6170   31.0210   37.0170 C   0  0  0  0  0  0  0  0  0  0  0  0
   46.7240   31.2200   38.5450 S   0  0  0  0  0  0  0  0  0  0  0  0
   48.0089   35.7519   42.7417 H   0  0  0  0  0  0  0  0  0  0  0  0
   49.3475   35.7296   40.6521 H   0  0  0  0  0  0  0  0  0  0  0  0
   43.8635   36.7658   44.9244 H   0  0  0  0  0  0  0  0  0  0  0  0
   44.9109   36.4425   42.6340 H   0  0  0  0  0  0  0  0  0  0  0  0
   45.7375   33.2441   46.3385 H   0  0  0  0  0  0  0  0  0  0  0  0
   44.9933   34.2471   37.7264 H   0  0  0  0  0  0  0  0  0  0  0  0
   44.3323   32.5243   36.0582 H   0  0  0  0  0  0  0  0  0  0  0  0
   45.4632   30.1256   36.3968 H   0  0  0  0  0  0  0  0  0  0  0  0
  1 11  1  0
  2  1  1  0
  3  2  2  0
  4  6  1  0
  4  3  1  0
  5  4  2  0
  6  7  1  0
  7  8  2  0
  7  1  1  0
  9 14  2  0
 10  9  1  0
 11 10  2  0
 11 12  1  0
 12 13  2  0
 13 14  1  0
 15  6  1  0
 16 15  2  0
 17 18  2  0
 17 16  1  0
 18 19  1  0
 19 15  1  0
  2 20  1  0
  3 21  1  0
  9 22  1  0
 10 23  1  0
 13 24  1  0
 16 25  1  0
 17 26  1  0
 18 27  1  0
M  ISO  8  20  14  21  14  22  14  23  14  24  14  25  14  26  14  27  14
M  END
>  <minimizedAffinity>  (1) 
-5.07441187

>  <minimizedRMSD>  (1) 
0.639311373

$$$$
