
     RDKit          3D

 29 30  0  0  0  0  0  0  0  0999 V2000
   46.4680   34.4400   42.0250 N   0  0  0  0  0  0  0  0  0  0  0  0
   47.6300   35.1570   41.9130 C   0  0  0  0  0  0  0  0  0  0  0  0
   48.3730   35.1370   40.7450 C   0  0  0  0  0  0  0  0  0  0  0  0
   47.8950   34.3600   39.6890 C   0  0  0  0  0  0  0  0  0  0  0  0
   48.5470   34.3220   38.6190 O   0  0  0  0  0  0  0  0  0  0  0  0
   46.7440   33.6770   39.8670 N   0  0  0  0  0  0  0  0  0  0  0  0
   46.0440   33.7130   41.0060 C   0  0  0  0  0  0  0  0  0  0  0  0
   44.9870   33.1120   41.2250 O   0  0  0  0  0  0  0  0  0  0  0  0
   44.5070   35.8960   44.8030 C   0  0  0  0  0  0  0  0  0  0  0  0
   45.0740   35.7320   43.5130 C   0  0  0  0  0  0  0  0  0  0  0  0
   45.8880   34.6210   43.3170 C   0  0  0  0  0  0  0  0  0  0  0  0
   46.1030   33.7500   44.3510 N   0  0  0  0  0  0  0  0  0  0  0  0
   45.5390   33.9460   45.5700 C   0  0  0  0  0  0  0  0  0  0  0  0
   44.7430   35.0200   45.7900 N   0  0  0  0  0  0  0  0  0  0  0  0
   46.2390   32.8660   38.7740 C   0  0  0  0  0  0  0  0  0  0  0  0
   44.7880   33.1750   38.5110 C   0  0  0  0  0  0  0  0  0  0  0  0
   46.4710   31.4080   39.0710 C   0  0  0  0  0  0  0  0  0  0  0  0
   47.9785   35.7587   42.7654 H   0  0  0  0  0  0  0  0  0  0  0  0
   49.3059   35.7125   40.6528 H   0  0  0  0  0  0  0  0  0  0  0  0
   43.8582   36.7626   44.9981 H   0  0  0  0  0  0  0  0  0  0  0  0
   44.8787   36.4512   42.7039 H   0  0  0  0  0  0  0  0  0  0  0  0
   45.7291   33.2296   46.3828 H   0  0  0  0  0  0  0  0  0  0  0  0
   46.7873   33.1091   37.8519 H   0  0  0  0  0  0  0  0  0  0  0  0
   44.2578   33.2879   39.4682 H   0  0  0  0  0  0  0  0  0  0  0  0
   44.7105   34.1098   37.9364 H   0  0  0  0  0  0  0  0  0  0  0  0
   44.3363   32.3529   37.9364 H   0  0  0  0  0  0  0  0  0  0  0  0
   46.4953   31.2550   40.1600 H   0  0  0  0  0  0  0  0  0  0  0  0
   45.6566   30.8109   38.6350 H   0  0  0  0  0  0  0  0  0  0  0  0
   47.4305   31.0931   38.6350 H   0  0  0  0  0  0  0  0  0  0  0  0
  1 11  1  0
  2  1  1  0
  3  2  2  0
  4  6  1  0
  4  3  1  0
  5  4  2  0
  6  7  1  0
  7  8  2  0
  7  1  1  0
  9 14  2  0
 10  9  1  0
 11 10  2  0
 11 12  1  0
 12 13  2  0
 13 14  1  0
 15 17  1  0
 15  6  1  0
 16 15  1  0
  2 18  1  0
  3 19  1  0
  9 20  1  0
 10 21  1  0
 13 22  1  0
 15 23  1  0
 16 24  1  0
 16 25  1  0
 16 26  1  0
 17 27  1  0
 17 28  1  0
 17 29  1  0
M  ISO  8  18  14  19  14  20  14  21  14  22  14  23   8  24   8  25   8
M  ISO  4  26   8  27   8  28   8  29   8
M  END
>  <minimizedAffinity>  (1) 
-4.81176281

>  <minimizedRMSD>  (1) 
0.487032294

$$$$
