
     RDKit          3D

 34 37  0  0  0  0  0  0  0  0999 V2000
   45.0580   33.8400   41.7570 N   0  0  0  0  0  0  0  0  0  0  0  0
   46.2910   34.1510   41.2330 C   0  0  0  0  0  0  0  0  0  0  0  0
   46.5960   33.8560   39.9180 C   0  0  0  0  0  0  0  0  0  0  0  0
   45.6160   33.2380   39.1450 C   0  0  0  0  0  0  0  0  0  0  0  0
   45.8670   32.9610   37.9530 O   0  0  0  0  0  0  0  0  0  0  0  0
   44.4540   32.9700   39.7210 N   0  0  0  0  0  0  0  0  0  0  0  0
   44.1560   33.2570   41.0040 C   0  0  0  0  0  0  0  0  0  0  0  0
   43.1020   33.0320   41.5840 O   0  0  0  0  0  0  0  0  0  0  0  0
   44.4490   35.9370   44.7380 C   0  0  0  0  0  0  0  0  0  0  0  0
   44.5090   35.5360   43.3860 C   0  0  0  0  0  0  0  0  0  0  0  0
   44.9950   34.2500   43.1370 C   0  0  0  0  0  0  0  0  0  0  0  0
   45.3810   33.4540   44.1640 N   0  0  0  0  0  0  0  0  0  0  0  0
   45.2980   33.8970   45.4470 C   0  0  0  0  0  0  0  0  0  0  0  0
   44.8410   35.1160   45.7330 N   0  0  0  0  0  0  0  0  0  0  0  0
   43.3840   32.3230   38.9460 C   0  0  0  0  0  0  0  0  0  0  0  0
   42.3440   33.2660   38.5910 N   0  0  0  0  0  0  0  0  0  0  0  0
   42.5640   34.5930   38.4950 C   0  0  0  0  0  0  0  0  0  0  0  0
   41.4580   35.2790   38.1510 N   0  0  0  0  0  0  0  0  0  0  0  0
   40.4860   34.3780   38.0180 C   0  0  0  0  0  0  0  0  0  0  0  0
   39.1400   34.4130   37.6910 C   0  0  0  0  0  0  0  0  0  0  0  0
   38.4390   33.2660   37.6500 N   0  0  0  0  0  0  0  0  0  0  0  0
   38.9990   32.0720   37.9200 C   0  0  0  0  0  0  0  0  0  0  0  0
   40.3040   32.0200   38.2400 N   0  0  0  0  0  0  0  0  0  0  0  0
   41.0400   33.1330   38.2920 C   0  0  0  0  0  0  0  0  0  0  0  0
   47.0436   34.6406   41.8686 H   0  0  0  0  0  0  0  0  0  0  0  0
   47.5814   34.1014   39.4951 H   0  0  0  0  0  0  0  0  0  0  0  0
   44.0743   36.9412   44.9852 H   0  0  0  0  0  0  0  0  0  0  0  0
   44.1896   36.2016   42.5705 H   0  0  0  0  0  0  0  0  0  0  0  0
   45.6148   33.2351   46.2664 H   0  0  0  0  0  0  0  0  0  0  0  0
   43.8138   31.9011   38.0256 H   0  0  0  0  0  0  0  0  0  0  0  0
   42.9370   31.5323   39.5664 H   0  0  0  0  0  0  0  0  0  0  0  0
   43.5412   35.0638   38.6779 H   0  0  0  0  0  0  0  0  0  0  0  0
   38.6487   35.3713   37.4667 H   0  0  0  0  0  0  0  0  0  0  0  0
   38.3976   31.1519   37.8794 H   0  0  0  0  0  0  0  0  0  0  0  0
  1 11  1  0
  2  1  1  0
  3  2  2  0
  4  6  1  0
  4  3  1  0
  5  4  2  0
  6  7  1  0
  7  8  2  0
  7  1  1  0
  9 14  2  0
 10  9  1  0
 11 10  2  0
 11 12  1  0
 12 13  2  0
 13 14  1  0
 15  6  1  0
 16 15  1  0
 17 16  1  0
 18 17  2  0
 19 18  1  0
 19 24  2  0
 20 19  1  0
 21 20  2  0
 21 22  1  0
 22 23  2  0
 23 24  1  0
 24 16  1  0
  2 25  1  0
  3 26  1  0
  9 27  1  0
 10 28  1  0
 13 29  1  0
 15 30  1  0
 15 31  1  0
 17 32  1  0
 20 33  1  0
 22 34  1  0
M  ISO  8  25  14  26  14  27  14  28  14  29  14  30   8  31   8  32  14
M  ISO  2  33  14  34  14
M  END
>  <minimizedAffinity>  (1) 
-5.55817032

>  <minimizedRMSD>  (1) 
2.45288396

$$$$
