
     RDKit          3D

 33 35  0  0  0  0  0  0  0  0999 V2000
   46.5660   34.1080   42.1790 N   0  0  0  0  0  0  0  0  0  0  0  0
   47.5220   35.0410   41.8550 C   0  0  0  0  0  0  0  0  0  0  0  0
   48.2930   34.8850   40.7170 C   0  0  0  0  0  0  0  0  0  0  0  0
   48.0590   33.7470   39.9170 C   0  0  0  0  0  0  0  0  0  0  0  0
   48.7570   33.6020   38.8930 O   0  0  0  0  0  0  0  0  0  0  0  0
   47.1040   32.8800   40.3010 N   0  0  0  0  0  0  0  0  0  0  0  0
   46.3750   33.0620   41.4120 C   0  0  0  0  0  0  0  0  0  0  0  0
   45.4960   32.3150   41.8230 O   0  0  0  0  0  0  0  0  0  0  0  0
   44.4920   36.0390   44.5670 C   0  0  0  0  0  0  0  0  0  0  0  0
   45.1350   35.6630   43.3700 C   0  0  0  0  0  0  0  0  0  0  0  0
   45.9070   34.4960   43.3920 C   0  0  0  0  0  0  0  0  0  0  0  0
   46.0010   33.7910   44.5450 N   0  0  0  0  0  0  0  0  0  0  0  0
   45.3610   34.1950   45.6750 C   0  0  0  0  0  0  0  0  0  0  0  0
   44.6100   35.3120   45.6870 N   0  0  0  0  0  0  0  0  0  0  0  0
   46.8320   31.7180   39.4900 C   0  0  0  0  0  0  0  0  0  0  0  0
   46.3680   31.9690   38.1550 N   0  0  0  0  0  0  0  0  0  0  0  0
   47.0580   31.4740   37.0850 C   0  0  0  0  0  0  0  0  0  0  0  0
   46.7210   31.6390   35.7470 C   0  0  0  0  0  0  0  0  0  0  0  0
   45.5850   32.3680   35.4490 C   0  0  0  0  0  0  0  0  0  0  0  0
   45.2110   32.5620   34.2670 O   0  0  0  0  0  0  0  0  0  0  0  0
   44.8870   32.8660   36.4840 N   0  0  0  0  0  0  0  0  0  0  0  0
   45.2930   32.6540   37.7420 C   0  0  0  0  0  0  0  0  0  0  0  0
   44.5390   33.1850   38.5910 O   0  0  0  0  0  0  0  0  0  0  0  0
   47.6748   35.9160   42.5038 H   0  0  0  0  0  0  0  0  0  0  0  0
   49.0621   35.6230   40.4453 H   0  0  0  0  0  0  0  0  0  0  0  0
   43.8782   36.9517   44.5822 H   0  0  0  0  0  0  0  0  0  0  0  0
   45.0338   36.2638   42.4541 H   0  0  0  0  0  0  0  0  0  0  0  0
   45.4587   33.5990   46.5944 H   0  0  0  0  0  0  0  0  0  0  0  0
   47.7618   31.1347   39.4176 H   0  0  0  0  0  0  0  0  0  0  0  0
   46.0060   31.1950   39.9943 H   0  0  0  0  0  0  0  0  0  0  0  0
   47.9647   30.8905   37.3028 H   0  0  0  0  0  0  0  0  0  0  0  0
   47.3396   31.2026   34.9490 H   0  0  0  0  0  0  0  0  0  0  0  0
   44.0334   33.4148   36.3080 H   0  0  0  0  0  0  0  0  0  0  0  0
  1 11  1  0
  2  1  1  0
  3  2  2  0
  4  6  1  0
  4  3  1  0
  5  4  2  0
  6  7  1  0
  7  8  2  0
  7  1  1  0
  9 14  2  0
 10 11  2  0
 10  9  1  0
 11 12  1  0
 12 13  2  0
 13 14  1  0
 15  6  1  0
 16 15  1  0
 17 16  1  0
 18 17  2  0
 19 18  1  0
 19 21  1  0
 20 19  2  0
 21 22  1  0
 22 16  1  0
 22 23  2  0
  2 24  1  0
  3 25  1  0
  9 26  1  0
 10 27  1  0
 13 28  1  0
 15 29  1  0
 15 30  1  0
 17 31  1  0
 18 32  1  0
 21 33  1  0
M  ISO  8  24  14  25  14  26  14  27  14  28  14  29   8  30   8  31  14
M  ISO  2  32  14  33   9
M  END
>  <minimizedAffinity>  (1) 
-5.45723486

>  <minimizedRMSD>  (1) 
1.89031184

$$$$
