
     RDKit          3D

 36 39  0  0  0  0  0  0  0  0999 V2000
   46.5680   34.5050   42.0340 N   0  0  0  0  0  0  0  0  0  0  0  0
   47.7370   35.2080   41.9950 C   0  0  0  0  0  0  0  0  0  0  0  0
   48.4880   35.2730   40.8280 C   0  0  0  0  0  0  0  0  0  0  0  0
   48.0050   34.5990   39.7110 C   0  0  0  0  0  0  0  0  0  0  0  0
   48.6670   34.6480   38.6520 O   0  0  0  0  0  0  0  0  0  0  0  0
   46.8450   33.9260   39.8210 N   0  0  0  0  0  0  0  0  0  0  0  0
   46.1390   33.8770   40.9580 C   0  0  0  0  0  0  0  0  0  0  0  0
   45.0790   33.2840   41.1180 O   0  0  0  0  0  0  0  0  0  0  0  0
   44.5610   35.6980   44.8940 C   0  0  0  0  0  0  0  0  0  0  0  0
   45.1250   35.6330   43.6020 C   0  0  0  0  0  0  0  0  0  0  0  0
   45.9840   34.5870   43.3450 C   0  0  0  0  0  0  0  0  0  0  0  0
   46.2560   33.6670   44.3280 N   0  0  0  0  0  0  0  0  0  0  0  0
   45.6830   33.7790   45.5530 C   0  0  0  0  0  0  0  0  0  0  0  0
   44.8420   34.7820   45.8420 N   0  0  0  0  0  0  0  0  0  0  0  0
   46.3280   33.2090   38.6720 C   0  0  0  0  0  0  0  0  0  0  0  0
   47.2390   32.1440   38.3400 N   0  0  0  0  0  0  0  0  0  0  0  0
   47.4850   31.1420   39.2350 C   0  0  0  0  0  0  0  0  0  0  0  0
   48.3690   30.2270   38.7500 N   0  0  0  0  0  0  0  0  0  0  0  0
   48.7020   30.6440   37.5160 C   0  0  0  0  0  0  0  0  0  0  0  0
   49.5370   30.1550   36.5350 C   0  0  0  0  0  0  0  0  0  0  0  0
   49.6410   30.8460   35.3700 N   0  0  0  0  0  0  0  0  0  0  0  0
   48.9310   31.9960   35.1860 C   0  0  0  0  0  0  0  0  0  0  0  0
   48.1110   32.4870   36.1320 N   0  0  0  0  0  0  0  0  0  0  0  0
   48.0020   31.8100   37.2870 C   0  0  0  0  0  0  0  0  0  0  0  0
   50.2770   28.9490   36.7380 N   0  0  0  0  0  0  0  0  0  0  0  0
   48.0886   35.7290   42.8977 H   0  0  0  0  0  0  0  0  0  0  0  0
   49.4313   35.8375   40.7886 H   0  0  0  0  0  0  0  0  0  0  0  0
   43.8716   36.5207   45.1345 H   0  0  0  0  0  0  0  0  0  0  0  0
   44.8892   36.3844   42.8340 H   0  0  0  0  0  0  0  0  0  0  0  0
   45.9136   33.0306   46.3255 H   0  0  0  0  0  0  0  0  0  0  0  0
   45.3402   32.7889   38.9124 H   0  0  0  0  0  0  0  0  0  0  0  0
   46.2282   33.8949   37.8178 H   0  0  0  0  0  0  0  0  0  0  0  0
   47.0229   31.0813   40.2314 H   0  0  0  0  0  0  0  0  0  0  0  0
   49.0323   32.5385   34.2345 H   0  0  0  0  0  0  0  0  0  0  0  0
   50.8976   28.5946   35.9963 H   0  0  0  0  0  0  0  0  0  0  0  0
   50.1896   28.4344   37.6260 H   0  0  0  0  0  0  0  0  0  0  0  0
  1 11  1  0
  2  1  1  0
  3  2  2  0
  4  6  1  0
  4  3  1  0
  5  4  2  0
  6  7  1  0
  7  8  2  0
  7  1  1  0
  9 14  2  0
 10  9  1  0
 11 10  2  0
 11 12  1  0
 12 13  2  0
 13 14  1  0
 15  6  1  0
 16 15  1  0
 16 17  1  0
 18 17  2  0
 19 18  1  0
 20 25  1  0
 20 19  2  0
 21 20  1  0
 22 21  2  0
 22 23  1  0
 23 24  2  0
 24 19  1  0
 24 16  1  0
  2 26  1  0
  3 27  1  0
  9 28  1  0
 10 29  1  0
 13 30  1  0
 15 31  1  0
 15 32  1  0
 17 33  1  0
 22 34  1  0
 25 35  1  0
 25 36  1  0
M  ISO  8  26  14  27  14  28  14  29  14  30  14  31   8  32   8  33  14
M  ISO  1  34  14
M  END
>  <minimizedAffinity>  (1) 
-5.31144714

>  <minimizedRMSD>  (1) 
1.83879471

$$$$
