
     RDKit          3D

 30 32  0  0  0  0  0  0  0  0999 V2000
   46.5200   34.1790   42.1610 N   0  0  0  0  0  0  0  0  0  0  0  0
   47.5550   35.0500   41.9160 C   0  0  0  0  0  0  0  0  0  0  0  0
   48.3250   34.9430   40.7800 C   0  0  0  0  0  0  0  0  0  0  0  0
   48.0150   33.9140   39.8830 C   0  0  0  0  0  0  0  0  0  0  0  0
   48.7010   33.7930   38.8370 O   0  0  0  0  0  0  0  0  0  0  0  0
   46.9920   33.1020   40.1880 N   0  0  0  0  0  0  0  0  0  0  0  0
   46.2580   33.2270   41.3000 C   0  0  0  0  0  0  0  0  0  0  0  0
   45.3150   32.5150   41.6250 O   0  0  0  0  0  0  0  0  0  0  0  0
   44.4690   35.9720   44.6560 C   0  0  0  0  0  0  0  0  0  0  0  0
   45.0890   35.6550   43.4280 C   0  0  0  0  0  0  0  0  0  0  0  0
   45.8830   34.5090   43.4080 C   0  0  0  0  0  0  0  0  0  0  0  0
   46.0290   33.7590   44.5280 N   0  0  0  0  0  0  0  0  0  0  0  0
   45.4080   34.1120   45.6840 C   0  0  0  0  0  0  0  0  0  0  0  0
   44.6350   35.2060   45.7510 N   0  0  0  0  0  0  0  0  0  0  0  0
   46.6590   32.0340   39.2670 C   0  0  0  0  0  0  0  0  0  0  0  0
   46.0710   32.5220   37.9940 C   0  0  0  0  0  0  0  0  0  0  0  0
   46.3730   32.0500   36.7280 C   0  0  0  0  0  0  0  0  0  0  0  0
   45.6290   32.7440   35.7810 C   0  0  0  0  0  0  0  0  0  0  0  0
   44.9130   33.6060   36.5430 N   0  0  0  0  0  0  0  0  0  0  0  0
   45.1550   33.4930   37.8400 N   0  0  0  0  0  0  0  0  0  0  0  0
   47.7720   35.8477   42.6416 H   0  0  0  0  0  0  0  0  0  0  0  0
   49.1531   35.6401   40.5844 H   0  0  0  0  0  0  0  0  0  0  0  0
   43.8339   36.8679   44.7200 H   0  0  0  0  0  0  0  0  0  0  0  0
   44.9527   36.2799   42.5330 H   0  0  0  0  0  0  0  0  0  0  0  0
   45.5417   33.4893   46.5809 H   0  0  0  0  0  0  0  0  0  0  0  0
   47.5764   31.4728   39.0359 H   0  0  0  0  0  0  0  0  0  0  0  0
   45.9018   31.4041   39.7567 H   0  0  0  0  0  0  0  0  0  0  0  0
   47.0922   31.2480   36.5055 H   0  0  0  0  0  0  0  0  0  0  0  0
   45.6229   32.6237   34.6876 H   0  0  0  0  0  0  0  0  0  0  0  0
   44.2444   34.2843   36.1508 H   0  0  0  0  0  0  0  0  0  0  0  0
  1 11  1  0
  2  1  1  0
  3  2  2  0
  4  6  1  0
  4  3  1  0
  5  4  2  0
  6  7  1  0
  7  8  2  0
  7  1  1  0
  9 14  2  0
 10  9  1  0
 11 10  2  0
 11 12  1  0
 12 13  2  0
 13 14  1  0
 15  6  1  0
 16 15  1  0
 17 16  1  0
 18 19  1  0
 18 17  2  0
 19 20  1  0
 20 16  2  0
  2 21  1  0
  3 22  1  0
  9 23  1  0
 10 24  1  0
 13 25  1  0
 15 26  1  0
 15 27  1  0
 17 28  1  0
 18 29  1  0
 19 30  1  0
M  ISO  8  21  14  22  14  23  14  24  14  25  14  26   8  27   8  28  14
M  ISO  2  29  14  30   9
M  END
>  <minimizedAffinity>  (1) 
-4.99703932

>  <minimizedRMSD>  (1) 
1.0951587

$$$$
