
     RDKit          3D

 37 39  0  0  0  0  0  0  0  0999 V2000
   46.4960   34.4860   42.0050 N   0  0  0  0  0  0  0  0  0  0  0  0
   47.6870   35.1710   41.9530 C   0  0  0  0  0  0  0  0  0  0  0  0
   48.4540   35.1760   40.7990 C   0  0  0  0  0  0  0  0  0  0  0  0
   47.9640   34.4580   39.7000 C   0  0  0  0  0  0  0  0  0  0  0  0
   48.6400   34.4470   38.6440 O   0  0  0  0  0  0  0  0  0  0  0  0
   46.7920   33.8100   39.8200 N   0  0  0  0  0  0  0  0  0  0  0  0
   46.0720   33.8250   40.9520 C   0  0  0  0  0  0  0  0  0  0  0  0
   45.0010   33.2610   41.1320 O   0  0  0  0  0  0  0  0  0  0  0  0
   44.5130   35.9100   44.7750 C   0  0  0  0  0  0  0  0  0  0  0  0
   45.0950   35.7420   43.5100 C   0  0  0  0  0  0  0  0  0  0  0  0
   45.9060   34.6430   43.3020 C   0  0  0  0  0  0  0  0  0  0  0  0
   46.1260   33.7480   44.3210 N   0  0  0  0  0  0  0  0  0  0  0  0
   45.5380   33.9540   45.5310 C   0  0  0  0  0  0  0  0  0  0  0  0
   44.7400   35.0190   45.7670 N   0  0  0  0  0  0  0  0  0  0  0  0
   46.2710   33.0530   38.7040 C   0  0  0  0  0  0  0  0  0  0  0  0
   46.6970   31.6810   38.6490 N   0  0  0  0  0  0  0  0  0  0  0  0
   47.3510   31.4500   37.3850 C   0  0  0  0  0  0  0  0  0  0  0  0
   48.6170   30.6460   37.4750 C   0  0  0  0  0  0  0  0  0  0  0  0
   48.5870   29.5530   38.3870 N   0  0  0  0  0  0  0  0  0  0  0  0
   47.8360   29.8150   39.5890 C   0  0  0  0  0  0  0  0  0  0  0  0
   47.5640   31.3210   39.7120 C   0  0  0  0  0  0  0  0  0  0  0  0
   48.0355   35.7222   42.8389 H   0  0  0  0  0  0  0  0  0  0  0  0
   49.4081   35.7211   40.7478 H   0  0  0  0  0  0  0  0  0  0  0  0
   43.8635   36.7777   44.9628 H   0  0  0  0  0  0  0  0  0  0  0  0
   44.9104   36.4671   42.7037 H   0  0  0  0  0  0  0  0  0  0  0  0
   45.7176   33.2320   46.3412 H   0  0  0  0  0  0  0  0  0  0  0  0
   45.1728   33.0672   38.7650 H   0  0  0  0  0  0  0  0  0  0  0  0
   46.6641   33.5337   37.7960 H   0  0  0  0  0  0  0  0  0  0  0  0
   47.5952   32.4265   36.9413 H   0  0  0  0  0  0  0  0  0  0  0  0
   46.6505   30.8621   36.7737 H   0  0  0  0  0  0  0  0  0  0  0  0
   48.8359   30.2459   36.4740 H   0  0  0  0  0  0  0  0  0  0  0  0
   49.3852   31.3351   37.8557 H   0  0  0  0  0  0  0  0  0  0  0  0
   48.1636   28.7443   37.9100 H   0  0  0  0  0  0  0  0  0  0  0  0
   46.8797   29.2730   39.5480 H   0  0  0  0  0  0  0  0  0  0  0  0
   48.4152   29.4773   40.4610 H   0  0  0  0  0  0  0  0  0  0  0  0
   48.5073   31.8815   39.6347 H   0  0  0  0  0  0  0  0  0  0  0  0
   47.1065   31.5560   40.6844 H   0  0  0  0  0  0  0  0  0  0  0  0
  1 11  1  0
  2  1  1  0
  3  2  2  0
  4  6  1  0
  4  3  1  0
  5  4  2  0
  6  7  1  0
  7  8  2  0
  7  1  1  0
  9 14  2  0
 10  9  1  0
 11 10  2  0
 11 12  1  0
 12 13  2  0
 13 14  1  0
 15  6  1  0
 16 15  1  0
 16 21  1  0
 17 18  1  0
 17 16  1  0
 18 19  1  0
 19 20  1  0
 20 21  1  0
  2 22  1  0
  3 23  1  0
  9 24  1  0
 10 25  1  0
 13 26  1  0
 15 27  1  0
 15 28  1  0
 17 29  1  0
 17 30  1  0
 18 31  1  0
 18 32  1  0
 19 33  1  0
 20 34  1  0
 20 35  1  0
 21 36  1  0
 21 37  1  0
M  ISO  8  22  14  23  14  24  14  25  14  26  14  27   8  28   8  29  13
M  ISO  8  30  13  31  13  32  13  33   5  34  13  35  13  36  13  37  13
M  END
>  <minimizedAffinity>  (1) 
-4.81885958

>  <minimizedRMSD>  (1) 
0.298877865

$$$$
