
     RDKit          3D

 39 41  0  0  0  0  0  0  0  0999 V2000
   46.5010   34.5050   42.0020 N   0  0  0  0  0  0  0  0  0  0  0  0
   47.7160   35.1460   41.9600 C   0  0  0  0  0  0  0  0  0  0  0  0
   48.4750   35.1540   40.8040 C   0  0  0  0  0  0  0  0  0  0  0  0
   47.9650   34.4890   39.6800 C   0  0  0  0  0  0  0  0  0  0  0  0
   48.6490   34.5020   38.6370 O   0  0  0  0  0  0  0  0  0  0  0  0
   46.7680   33.8830   39.7960 N   0  0  0  0  0  0  0  0  0  0  0  0
   46.0620   33.8950   40.9270 C   0  0  0  0  0  0  0  0  0  0  0  0
   44.9630   33.3570   41.0860 O   0  0  0  0  0  0  0  0  0  0  0  0
   44.5240   35.8800   44.7960 C   0  0  0  0  0  0  0  0  0  0  0  0
   45.0960   35.7540   43.5110 C   0  0  0  0  0  0  0  0  0  0  0  0
   45.9170   34.6410   43.3010 C   0  0  0  0  0  0  0  0  0  0  0  0
   46.1440   33.7320   44.3000 N   0  0  0  0  0  0  0  0  0  0  0  0
   45.5500   33.9300   45.5160 C   0  0  0  0  0  0  0  0  0  0  0  0
   44.7560   34.9760   45.7730 N   0  0  0  0  0  0  0  0  0  0  0  0
   46.2430   33.1820   38.6500 C   0  0  0  0  0  0  0  0  0  0  0  0
   46.8330   31.8480   38.3670 C   0  0  0  0  0  0  0  0  0  0  0  0
   45.7620   30.7800   38.6060 C   0  0  0  0  0  0  0  0  0  0  0  0
   46.1010   29.5840   37.7760 C   0  0  0  0  0  0  0  0  0  0  0  0
   47.5720   29.2970   37.7200 C   0  0  0  0  0  0  0  0  0  0  0  0
   48.3660   30.4250   37.1270 C   0  0  0  0  0  0  0  0  0  0  0  0
   47.4040   31.6250   37.0170 C   0  0  0  0  0  0  0  0  0  0  0  0
   48.0898   35.6596   42.8580 H   0  0  0  0  0  0  0  0  0  0  0  0
   49.4480   35.6659   40.7675 H   0  0  0  0  0  0  0  0  0  0  0  0
   43.8705   36.7392   45.0077 H   0  0  0  0  0  0  0  0  0  0  0  0
   44.9061   36.4917   42.7175 H   0  0  0  0  0  0  0  0  0  0  0  0
   45.7327   33.1983   46.3167 H   0  0  0  0  0  0  0  0  0  0  0  0
   45.1630   33.0443   38.8072 H   0  0  0  0  0  0  0  0  0  0  0  0
   46.4996   33.8064   37.7815 H   0  0  0  0  0  0  0  0  0  0  0  0
   47.6937   31.7876   39.0493 H   0  0  0  0  0  0  0  0  0  0  0  0
   45.7446   30.5019   39.6701 H   0  0  0  0  0  0  0  0  0  0  0  0
   44.7708   31.1671   38.3273 H   0  0  0  0  0  0  0  0  0  0  0  0
   45.5905   28.7077   38.2019 H   0  0  0  0  0  0  0  0  0  0  0  0
   45.7718   29.7973   36.7483 H   0  0  0  0  0  0  0  0  0  0  0  0
   47.9329   29.1137   38.7428 H   0  0  0  0  0  0  0  0  0  0  0  0
   47.7122   28.4189   37.0725 H   0  0  0  0  0  0  0  0  0  0  0  0
   49.2149   30.6767   37.7797 H   0  0  0  0  0  0  0  0  0  0  0  0
   48.7747   30.1505   36.1433 H   0  0  0  0  0  0  0  0  0  0  0  0
   47.9521   32.5195   36.6862 H   0  0  0  0  0  0  0  0  0  0  0  0
   46.6096   31.4252   36.2829 H   0  0  0  0  0  0  0  0  0  0  0  0
  1 11  1  0
  2  1  1  0
  3  2  2  0
  4  6  1  0
  4  3  1  0
  5  4  2  0
  6  7  1  0
  7  8  2  0
  7  1  1  0
  9 14  2  0
 10  9  1  0
 11 10  2  0
 11 12  1  0
 12 13  2  0
 13 14  1  0
 15  6  1  0
 16 17  1  0
 16 15  1  0
 18 17  1  0
 19 18  1  0
 20 19  1  0
 21 20  1  0
 21 16  1  0
  2 22  1  0
  3 23  1  0
  9 24  1  0
 10 25  1  0
 13 26  1  0
 15 27  1  0
 15 28  1  0
 16 29  1  0
 17 30  1  0
 17 31  1  0
 18 32  1  0
 18 33  1  0
 19 34  1  0
 19 35  1  0
 20 36  1  0
 20 37  1  0
 21 38  1  0
 21 39  1  0
M  ISO  8  22  14  23  14  24  14  25  14  26  14  27   8  28   8  29  13
M  ISO  8  30  13  31  13  32  13  33  13  34  13  35  13  36  13  37  13
M  ISO  2  38  13  39  13
M  END
>  <minimizedAffinity>  (1) 
-4.80331373

>  <minimizedRMSD>  (1) 
0.798389912

$$$$
