
     RDKit          3D

 33 34  0  0  1  0  0  0  0  0999 V2000
   45.6580   31.7930   47.5230 C   0  0  2  0  0  0  0  0  0  0  0  0
   44.5880   35.4120   45.5660 C   0  0  0  0  0  0  0  0  0  0  0  0
   44.4690   35.8600   44.2310 C   0  0  0  0  0  0  0  0  0  0  0  0
   45.0400   35.0780   43.2270 C   0  0  0  0  0  0  0  0  0  0  0  0
   45.6750   33.9420   43.5640 N   0  0  0  0  0  0  0  0  0  0  0  0
   45.7790   33.5260   44.8630 C   0  0  0  0  0  0  0  0  0  0  0  0
   45.2360   34.2690   45.8260 N   0  0  0  0  0  0  0  0  0  0  0  0
   46.4540   32.3300   45.2240 N   0  0  0  0  0  0  0  0  0  0  0  0
   47.2960   31.8100   44.2970 C   0  0  0  0  0  0  0  0  0  0  0  0
   47.8270   30.6630   44.8790 C   0  0  0  0  0  0  0  0  0  0  0  0
   47.3020   30.5240   46.1170 N   0  0  0  0  0  0  0  0  0  0  0  0
   46.4640   31.5420   46.3250 C   0  0  0  0  0  0  0  0  0  0  0  0
   46.6540   32.1990   48.6260 C   0  0  0  0  0  0  0  0  0  0  0  0
   44.9950   30.5210   47.9730 C   0  0  0  0  0  0  0  0  0  0  0  0
   44.5600   29.6920   46.8720 N   0  0  0  0  0  0  0  0  0  0  0  0
   44.7090   28.2810   47.1120 C   0  0  0  0  0  0  0  0  0  0  0  0
   45.1740   27.7460   48.1760 N   0  0  0  0  0  0  0  0  0  0  0  0
   44.3210   27.3210   46.1070 N   0  0  0  0  0  0  0  0  0  0  0  0
   45.2950   26.7480   48.3800 H   0  0  0  0  0  0  0  0  0  0  0  0
   44.8924   32.5570   47.3225 H   0  0  0  0  0  0  0  0  0  0  0  0
   44.1508   35.9989   46.3872 H   0  0  0  0  0  0  0  0  0  0  0  0
   43.9428   36.7957   43.9912 H   0  0  0  0  0  0  0  0  0  0  0  0
   44.9716   35.3867   42.1734 H   0  0  0  0  0  0  0  0  0  0  0  0
   47.5135   32.2105   43.2958 H   0  0  0  0  0  0  0  0  0  0  0  0
   48.5530   29.9827   44.4099 H   0  0  0  0  0  0  0  0  0  0  0  0
   46.2035   32.0153   49.6126 H   0  0  0  0  0  0  0  0  0  0  0  0
   47.5739   31.6041   48.5265 H   0  0  0  0  0  0  0  0  0  0  0  0
   46.8958   33.2675   48.5265 H   0  0  0  0  0  0  0  0  0  0  0  0
   45.7107   29.9487   48.5815 H   0  0  0  0  0  0  0  0  0  0  0  0
   44.1001   30.8014   48.5479 H   0  0  0  0  0  0  0  0  0  0  0  0
   44.1783   30.0760   45.9958 H   0  0  0  0  0  0  0  0  0  0  0  0
   44.4314   26.3130   46.2878 H   0  0  0  0  0  0  0  0  0  0  0  0
   43.9337   27.6437   45.2088 H   0  0  0  0  0  0  0  0  0  0  0  0
  1 14  1  0
  1 13  1  0
  2  7  2  0
  3  2  1  0
  4  5  1  0
  4  3  2  0
  5  6  2  0
  6  8  1  0
  6  7  1  0
  8 12  1  0
  9 10  2  0
  9  8  1  0
 10 11  1  0
 11 12  2  0
 12  1  1  0
 15 16  1  0
 15 14  1  0
 16 17  2  0
 17 19  1  0
 18 16  1  0
  1 20  1  6
  2 21  1  0
  3 22  1  0
  4 23  1  0
  9 24  1  0
 10 25  1  0
 13 26  1  0
 13 27  1  0
 13 28  1  0
 14 29  1  0
 14 30  1  0
 15 31  1  0
 18 32  1  0
 18 33  1  0
M  ISO  8  20   8  21  14  22  14  23  14  24  14  25  14  26   8  27   8
M  ISO  3  28   8  29   8  30   8
M  END
>  <minimizedAffinity>  (1) 
-4.74046135

>  <minimizedRMSD>  (1) 
0.413199306

$$$$
