
     RDKit          3D

 30 32  0  0  0  0  0  0  0  0999 V2000
   46.6000   34.0260   42.2590 N   0  0  0  0  0  0  0  0  0  0  0  0
   47.4670   35.0140   41.8610 C   0  0  0  0  0  0  0  0  0  0  0  0
   48.2200   34.8860   40.7110 C   0  0  0  0  0  0  0  0  0  0  0  0
   48.0670   33.7060   39.9620 C   0  0  0  0  0  0  0  0  0  0  0  0
   48.7370   33.5600   38.9140 O   0  0  0  0  0  0  0  0  0  0  0  0
   47.2000   32.7860   40.4180 N   0  0  0  0  0  0  0  0  0  0  0  0
   46.4860   32.9420   41.5340 C   0  0  0  0  0  0  0  0  0  0  0  0
   45.6840   32.1290   41.9860 O   0  0  0  0  0  0  0  0  0  0  0  0
   44.4800   35.9100   44.6270 C   0  0  0  0  0  0  0  0  0  0  0  0
   45.1320   35.5290   43.4420 C   0  0  0  0  0  0  0  0  0  0  0  0
   45.9460   34.3960   43.4690 C   0  0  0  0  0  0  0  0  0  0  0  0
   46.0810   33.7030   44.6320 N   0  0  0  0  0  0  0  0  0  0  0  0
   45.4310   34.1060   45.7610 C   0  0  0  0  0  0  0  0  0  0  0  0
   44.6360   35.2010   45.7590 N   0  0  0  0  0  0  0  0  0  0  0  0
   47.0260   31.5500   39.6510 C   0  0  0  0  0  0  0  0  0  0  0  0
   46.0540   31.6280   38.6060 C   0  0  0  0  0  0  0  0  0  0  0  0
   44.7230   31.8420   38.5460 C   0  0  0  0  0  0  0  0  0  0  0  0
   44.0190   31.8650   37.3720 C   0  0  0  0  0  0  0  0  0  0  0  0
   44.7950   31.6470   36.1830 C   0  0  0  0  0  0  0  0  0  0  0  0
   46.5340   31.4170   36.8920 S   0  0  0  0  0  0  0  0  0  0  0  0
   47.5633   35.9248   42.4702 H   0  0  0  0  0  0  0  0  0  0  0  0
   48.9139   35.6778   40.3925 H   0  0  0  0  0  0  0  0  0  0  0  0
   43.8335   36.7999   44.6287 H   0  0  0  0  0  0  0  0  0  0  0  0
   45.0039   36.1093   42.5164 H   0  0  0  0  0  0  0  0  0  0  0  0
   45.5552   33.5305   46.6902 H   0  0  0  0  0  0  0  0  0  0  0  0
   47.9942   31.2876   39.1996 H   0  0  0  0  0  0  0  0  0  0  0  0
   46.6600   30.7929   40.3602 H   0  0  0  0  0  0  0  0  0  0  0  0
   44.1768   32.0060   39.4866 H   0  0  0  0  0  0  0  0  0  0  0  0
   42.9332   32.0386   37.3413 H   0  0  0  0  0  0  0  0  0  0  0  0
   44.4645   31.6207   35.1342 H   0  0  0  0  0  0  0  0  0  0  0  0
  1 11  1  0
  2  1  1  0
  3  2  2  0
  4  6  1  0
  4  3  1  0
  5  4  2  0
  6  7  1  0
  7  8  2  0
  7  1  1  0
  9 14  2  0
 10 11  2  0
 10  9  1  0
 11 12  1  0
 12 13  2  0
 14 13  1  0
 15  6  1  0
 16 15  1  0
 17 16  2  0
 18 17  1  0
 19 20  1  0
 19 18  2  0
 20 16  1  0
  2 21  1  0
  3 22  1  0
  9 23  1  0
 10 24  1  0
 13 25  1  0
 15 26  1  0
 15 27  1  0
 17 28  1  0
 18 29  1  0
 19 30  1  0
M  ISO  8  21  14  22  14  23  14  24  14  25  14  26   8  27   8  28  14
M  ISO  2  29  14  30  14
M  END
>  <minimizedAffinity>  (1) 
-4.48433113

>  <minimizedRMSD>  (1) 
1.67630613

$$$$
