
     RDKit          3D

 44 48  0  0  0  0  0  0  0  0999 V2000
   47.1190   31.5190   39.5030 C   0  0  0  0  0  0  0  0  0  0  0  0
   46.6670   34.0470   42.0520 N   0  0  0  0  0  0  0  0  0  0  0  0
   47.5900   35.0050   41.6730 C   0  0  0  0  0  0  0  0  0  0  0  0
   48.3830   34.8210   40.5520 C   0  0  0  0  0  0  0  0  0  0  0  0
   48.2210   33.6380   39.8170 C   0  0  0  0  0  0  0  0  0  0  0  0
   48.9240   33.4430   38.7980 O   0  0  0  0  0  0  0  0  0  0  0  0
   47.3040   32.7680   40.2580 N   0  0  0  0  0  0  0  0  0  0  0  0
   46.5490   32.9650   41.3440 C   0  0  0  0  0  0  0  0  0  0  0  0
   45.7040   32.1970   41.7750 O   0  0  0  0  0  0  0  0  0  0  0  0
   44.5450   36.0780   44.2930 C   0  0  0  0  0  0  0  0  0  0  0  0
   45.2290   35.6370   43.1570 C   0  0  0  0  0  0  0  0  0  0  0  0
   45.9810   34.4660   43.2290 C   0  0  0  0  0  0  0  0  0  0  0  0
   46.0240   33.7930   44.3990 N   0  0  0  0  0  0  0  0  0  0  0  0
   45.3520   34.2370   45.4950 C   0  0  0  0  0  0  0  0  0  0  0  0
   44.6140   35.3730   45.4480 N   0  0  0  0  0  0  0  0  0  0  0  0
   46.8490   31.7020   38.1100 C   0  0  0  0  0  0  0  0  0  0  0  0
   46.0250   32.4710   37.3860 C   0  0  0  0  0  0  0  0  0  0  0  0
   45.9860   32.4210   36.0310 C   0  0  0  0  0  0  0  0  0  0  0  0
   46.8490   31.5280   35.3830 C   0  0  0  0  0  0  0  0  0  0  0  0
   47.7020   30.7760   36.8550 S   0  0  0  0  0  0  0  0  0  0  0  0
   47.1730   31.0570   34.1070 C   0  0  0  0  0  0  0  0  0  0  0  0
   46.6250   29.8700   33.6850 N   0  0  0  0  0  0  0  0  0  0  0  0
   46.7830   29.3700   32.4590 C   0  0  0  0  0  0  0  0  0  0  0  0
   47.5040   30.0000   31.5230 N   0  0  0  0  0  0  0  0  0  0  0  0
   48.0840   31.1540   31.8120 C   0  0  0  0  0  0  0  0  0  0  0  0
   48.8590   31.8220   30.8880 C   0  0  0  0  0  0  0  0  0  0  0  0
   49.4910   33.0120   31.2040 C   0  0  0  0  0  0  0  0  0  0  0  0
   49.2920   33.4830   32.5070 C   0  0  0  0  0  0  0  0  0  0  0  0
   48.5130   32.7940   33.4030 C   0  0  0  0  0  0  0  0  0  0  0  0
   47.8930   31.6290   33.0880 C   0  0  0  0  0  0  0  0  0  0  0  0
   48.0367   30.9202   39.5993 H   0  0  0  0  0  0  0  0  0  0  0  0
   46.2350   31.0232   39.9304 H   0  0  0  0  0  0  0  0  0  0  0  0
   47.6956   35.9237   42.2687 H   0  0  0  0  0  0  0  0  0  0  0  0
   49.1181   35.5806   40.2475 H   0  0  0  0  0  0  0  0  0  0  0  0
   43.9483   37.0010   44.2493 H   0  0  0  0  0  0  0  0  0  0  0  0
   45.1745   36.2070   42.2178 H   0  0  0  0  0  0  0  0  0  0  0  0
   45.4082   33.6658   46.4334 H   0  0  0  0  0  0  0  0  0  0  0  0
   45.3552   33.1689   37.9097 H   0  0  0  0  0  0  0  0  0  0  0  0
   45.2984   33.0615   35.4591 H   0  0  0  0  0  0  0  0  0  0  0  0
   46.3065   28.4106   32.2089 H   0  0  0  0  0  0  0  0  0  0  0  0
   48.9775   31.4005   29.8789 H   0  0  0  0  0  0  0  0  0  0  0  0
   50.1117   33.5545   30.4757 H   0  0  0  0  0  0  0  0  0  0  0  0
   49.7692   34.4237   32.8191 H   0  0  0  0  0  0  0  0  0  0  0  0
   48.3864   33.2026   34.4164 H   0  0  0  0  0  0  0  0  0  0  0  0
  1  7  1  0
  2 12  1  0
  3  2  1  0
  4  3  2  0
  5  7  1  0
  5  4  1  0
  6  5  2  0
  7  8  1  0
  8  9  2  0
  8  2  1  0
 10 15  2  0
 11 12  2  0
 11 10  1  0
 12 13  1  0
 13 14  2  0
 15 14  1  0
 16  1  1  0
 17 16  2  0
 18 17  1  0
 19 18  2  0
 19 20  1  0
 20 16  1  0
 21 19  1  0
 22 21  2  0
 23 22  1  0
 24 25  1  0
 24 23  2  0
 25 30  2  0
 26 27  2  0
 26 25  1  0
 27 28  1  0
 28 29  2  0
 30 29  1  0
 30 21  1  0
  1 31  1  0
  1 32  1  0
  3 33  1  0
  4 34  1  0
 10 35  1  0
 11 36  1  0
 14 37  1  0
 17 38  1  0
 18 39  1  0
 23 40  1  0
 26 41  1  0
 27 42  1  0
 28 43  1  0
 29 44  1  0
M  ISO  8  31   8  32   8  33  14  34  14  35  14  36  14  37  14  38  14
M  ISO  6  39  14  40  14  41  14  42  14  43  14  44  14
M  END
>  <minimizedAffinity>  (1) 
-6.76728106

>  <minimizedRMSD>  (1) 
1.95107102

$$$$
