
     RDKit          3D

 37 40  0  0  0  0  0  0  0  0999 V2000
   47.0720   33.1300   43.4710 N   0  0  0  0  0  0  0  0  0  0  0  0
   48.1330   34.0110   43.4570 C   0  0  0  0  0  0  0  0  0  0  0  0
   48.5240   34.6530   42.2930 C   0  0  0  0  0  0  0  0  0  0  0  0
   47.7900   34.3690   41.1210 C   0  0  0  0  0  0  0  0  0  0  0  0
   48.1190   34.9340   40.0520 O   0  0  0  0  0  0  0  0  0  0  0  0
   46.7770   33.5050   41.2220 N   0  0  0  0  0  0  0  0  0  0  0  0
   46.4270   32.9020   42.3660 C   0  0  0  0  0  0  0  0  0  0  0  0
   45.5060   32.1050   42.5000 O   0  0  0  0  0  0  0  0  0  0  0  0
   45.9280   32.8670   46.9650 C   0  0  0  0  0  0  0  0  0  0  0  0
   46.1240   33.3650   45.6780 C   0  0  0  0  0  0  0  0  0  0  0  0
   46.8810   32.6120   44.7750 C   0  0  0  0  0  0  0  0  0  0  0  0
   47.4020   31.4160   45.1890 N   0  0  0  0  0  0  0  0  0  0  0  0
   47.1880   30.9620   46.4570 C   0  0  0  0  0  0  0  0  0  0  0  0
   46.4590   31.6780   47.3400 N   0  0  0  0  0  0  0  0  0  0  0  0
   46.0060   33.2030   40.0210 C   0  0  0  0  0  0  0  0  0  0  0  0
   44.6480   33.6850   40.0410 C   0  0  0  0  0  0  0  0  0  0  0  0
   44.0160   34.7440   40.5630 C   0  0  0  0  0  0  0  0  0  0  0  0
   42.6750   34.9400   40.4170 C   0  0  0  0  0  0  0  0  0  0  0  0
   41.9790   33.9540   39.6780 C   0  0  0  0  0  0  0  0  0  0  0  0
   43.3360   32.7670   39.2200 S   0  0  0  0  0  0  0  0  0  0  0  0
   40.5690   33.9720   39.4080 N   0  0  0  0  0  0  0  0  0  0  0  0
   39.6450   33.9050   40.3520 N   0  0  0  0  0  0  0  0  0  0  0  0
   38.4290   33.9420   39.7750 C   0  0  0  0  0  0  0  0  0  0  0  0
   38.6810   34.0370   38.4230 C   0  0  0  0  0  0  0  0  0  0  0  0
   40.0370   34.0560   38.1730 C   0  0  0  0  0  0  0  0  0  0  0  0
   48.6808   34.2083   44.3903 H   0  0  0  0  0  0  0  0  0  0  0  0
   49.3710   35.3547   42.2826 H   0  0  0  0  0  0  0  0  0  0  0  0
   45.3340   33.4473   47.6864 H   0  0  0  0  0  0  0  0  0  0  0  0
   45.6918   34.3312   45.3786 H   0  0  0  0  0  0  0  0  0  0  0  0
   47.6161   29.9969   46.7656 H   0  0  0  0  0  0  0  0  0  0  0  0
   45.9801   32.1104   39.8960 H   0  0  0  0  0  0  0  0  0  0  0  0
   46.5078   33.7214   39.1907 H   0  0  0  0  0  0  0  0  0  0  0  0
   44.6006   35.4830   41.1305 H   0  0  0  0  0  0  0  0  0  0  0  0
   42.1638   35.8133   40.8483 H   0  0  0  0  0  0  0  0  0  0  0  0
   37.4491   33.9046   40.2733 H   0  0  0  0  0  0  0  0  0  0  0  0
   37.9036   34.0905   37.6466 H   0  0  0  0  0  0  0  0  0  0  0  0
   40.5557   34.1231   37.2053 H   0  0  0  0  0  0  0  0  0  0  0  0
  1 11  1  0
  2  1  1  0
  3  2  2  0
  4  6  1  0
  4  3  1  0
  5  4  2  0
  6  7  1  0
  7  8  2  0
  7  1  1  0
  9 14  2  0
 10  9  1  0
 11 12  1  0
 11 10  2  0
 12 13  2  0
 13 14  1  0
 15 16  1  0
 15  6  1  0
 16 17  2  0
 18 17  1  0
 19 18  2  0
 20 19  1  0
 20 16  1  0
 21 19  1  0
 21 22  1  0
 23 22  2  0
 24 23  1  0
 25 24  2  0
 25 21  1  0
  2 26  1  0
  3 27  1  0
  9 28  1  0
 10 29  1  0
 13 30  1  0
 15 31  1  0
 15 32  1  0
 17 33  1  0
 18 34  1  0
 23 35  1  0
 24 36  1  0
 25 37  1  0
M  ISO  8  26  14  27  14  28  14  29  14  30  14  31   8  32   8  33  14
M  ISO  4  34  14  35  14  36  14  37  14
M  END
>  <minimizedAffinity>  (1) 
-5.54497862

>  <minimizedRMSD>  (1) 
4.25498629

$$$$
