
     RDKit          3D

 31 33  0  0  0  0  0  0  0  0999 V2000
   46.6080   34.0420   42.2210 N   0  0  0  0  0  0  0  0  0  0  0  0
   47.4980   35.0270   41.8420 C   0  0  0  0  0  0  0  0  0  0  0  0
   48.2560   34.9100   40.6920 C   0  0  0  0  0  0  0  0  0  0  0  0
   48.0950   33.7590   39.9160 C   0  0  0  0  0  0  0  0  0  0  0  0
   48.7660   33.6240   38.8720 O   0  0  0  0  0  0  0  0  0  0  0  0
   47.2160   32.8460   40.3410 N   0  0  0  0  0  0  0  0  0  0  0  0
   46.5000   32.9900   41.4570 C   0  0  0  0  0  0  0  0  0  0  0  0
   45.6770   32.1760   41.8890 O   0  0  0  0  0  0  0  0  0  0  0  0
   44.4860   35.8800   44.6060 C   0  0  0  0  0  0  0  0  0  0  0  0
   45.1320   35.5190   43.4200 C   0  0  0  0  0  0  0  0  0  0  0  0
   45.9580   34.3920   43.4270 C   0  0  0  0  0  0  0  0  0  0  0  0
   46.0990   33.7000   44.5760 N   0  0  0  0  0  0  0  0  0  0  0  0
   45.4540   34.0770   45.7180 C   0  0  0  0  0  0  0  0  0  0  0  0
   44.6530   35.1560   45.7380 N   0  0  0  0  0  0  0  0  0  0  0  0
   47.0230   31.6300   39.5470 C   0  0  0  0  0  0  0  0  0  0  0  0
   46.0850   31.7550   38.4710 C   0  0  0  0  0  0  0  0  0  0  0  0
   44.7580   31.9170   38.3770 C   0  0  0  0  0  0  0  0  0  0  0  0
   44.1120   31.9990   37.1890 C   0  0  0  0  0  0  0  0  0  0  0  0
   44.9230   31.9040   36.0310 C   0  0  0  0  0  0  0  0  0  0  0  0
   46.6320   31.6940   36.7770 S   0  0  0  0  0  0  0  0  0  0  0  0
   44.2730   31.9860   34.7000 O   0  0  0  0  0  0  0  0  0  0  0  0
   47.6063   35.9244   42.4688 H   0  0  0  0  0  0  0  0  0  0  0  0
   48.9640   35.6984   40.3968 H   0  0  0  0  0  0  0  0  0  0  0  0
   43.8327   36.7649   44.6198 H   0  0  0  0  0  0  0  0  0  0  0  0
   44.9932   36.1089   42.5020 H   0  0  0  0  0  0  0  0  0  0  0  0
   45.5919   33.4883   46.6369 H   0  0  0  0  0  0  0  0  0  0  0  0
   47.9954   31.3421   39.1210 H   0  0  0  0  0  0  0  0  0  0  0  0
   46.6078   30.8765   40.2324 H   0  0  0  0  0  0  0  0  0  0  0  0
   44.1686   31.9863   39.3032 H   0  0  0  0  0  0  0  0  0  0  0  0
   43.0218   32.1316   37.1270 H   0  0  0  0  0  0  0  0  0  0  0  0
   43.2925   32.1058   34.6345 H   0  0  0  0  0  0  0  0  0  0  0  0
  1 11  1  0
  2  1  1  0
  3  2  2  0
  4  6  1  0
  4  3  1  0
  5  4  2  0
  6  7  1  0
  7  8  2  0
  7  1  1  0
  9 14  2  0
 10 11  2  0
 10  9  1  0
 11 12  1  0
 12 13  2  0
 13 14  1  0
 15  6  1  0
 16 15  1  0
 17 16  2  0
 18 17  1  0
 19 20  1  0
 19 18  2  0
 20 16  1  0
 21 19  1  0
  2 22  1  0
  3 23  1  0
  9 24  1  0
 10 25  1  0
 13 26  1  0
 15 27  1  0
 15 28  1  0
 17 29  1  0
 18 30  1  0
 21 31  1  0
M  ISO  8  22  14  23  14  24  14  25  14  26  14  27   8  28   8  29  14
M  ISO  2  30  14  31   3
M  END
>  <minimizedAffinity>  (1) 
-4.99147606

>  <minimizedRMSD>  (1) 
0.168551371

$$$$
