
     RDKit          3D

 50 54  0  0  0  0  0  0  0  0999 V2000
   48.4390   31.4310   39.8640 C   0  0  0  0  0  0  0  0  0  0  0  0
   47.6010   33.7240   42.5170 N   0  0  0  0  0  0  0  0  0  0  0  0
   48.8450   34.1190   42.9570 C   0  0  0  0  0  0  0  0  0  0  0  0
   50.0010   33.6340   42.3840 C   0  0  0  0  0  0  0  0  0  0  0  0
   49.8690   32.7160   41.3280 C   0  0  0  0  0  0  0  0  0  0  0  0
   50.8920   32.2560   40.7860 O   0  0  0  0  0  0  0  0  0  0  0  0
   48.6220   32.3800   40.9560 N   0  0  0  0  0  0  0  0  0  0  0  0
   47.5270   32.8710   41.5340 C   0  0  0  0  0  0  0  0  0  0  0  0
   46.3790   32.5990   41.2340 O   0  0  0  0  0  0  0  0  0  0  0  0
   45.0100   36.1700   43.4650 C   0  0  0  0  0  0  0  0  0  0  0  0
   46.0150   35.5350   42.7280 C   0  0  0  0  0  0  0  0  0  0  0  0
   46.5830   34.3640   43.2670 C   0  0  0  0  0  0  0  0  0  0  0  0
   46.1250   33.9080   44.4750 N   0  0  0  0  0  0  0  0  0  0  0  0
   45.1490   34.5540   45.1550 C   0  0  0  0  0  0  0  0  0  0  0  0
   44.5930   35.6930   44.6380 N   0  0  0  0  0  0  0  0  0  0  0  0
   48.4730   32.0290   38.5470 C   0  0  0  0  0  0  0  0  0  0  0  0
   48.4160   33.2750   38.0730 C   0  0  0  0  0  0  0  0  0  0  0  0
   48.4750   33.5300   36.7320 C   0  0  0  0  0  0  0  0  0  0  0  0
   48.5990   32.4250   35.8790 C   0  0  0  0  0  0  0  0  0  0  0  0
   48.6270   31.0140   37.0710 S   0  0  0  0  0  0  0  0  0  0  0  0
   48.6880   32.2750   34.4720 C   0  0  0  0  0  0  0  0  0  0  0  0
   48.8520   33.3400   33.6440 C   0  0  0  0  0  0  0  0  0  0  0  0
   48.9000   32.8440   32.3440 C   0  0  0  0  0  0  0  0  0  0  0  0
   48.7570   31.4730   32.4810 C   0  0  0  0  0  0  0  0  0  0  0  0
   48.6300   31.1530   33.7770 O   0  0  0  0  0  0  0  0  0  0  0  0
   48.7250   30.4310   31.5280 N   0  0  0  0  0  0  0  0  0  0  0  0
   49.2220   30.5740   30.1500 C   0  0  0  0  0  0  0  0  0  0  0  0
   48.0380   30.4300   29.1860 C   0  0  0  0  0  0  0  0  0  0  0  0
   47.3410   29.2590   29.4070 O   0  0  0  0  0  0  0  0  0  0  0  0
   47.0040   29.0250   30.7250 C   0  0  0  0  0  0  0  0  0  0  0  0
   48.2350   29.0560   31.6410 C   0  0  0  0  0  0  0  0  0  0  0  0
   49.2399   30.6792   39.9224 H   0  0  0  0  0  0  0  0  0  0  0  0
   47.4364   30.9958   39.9879 H   0  0  0  0  0  0  0  0  0  0  0  0
   48.9177   34.8388   43.7856 H   0  0  0  0  0  0  0  0  0  0  0  0
   50.9913   33.9539   42.7404 H   0  0  0  0  0  0  0  0  0  0  0  0
   44.5517   37.0870   43.0663 H   0  0  0  0  0  0  0  0  0  0  0  0
   46.3504   35.9364   41.7603 H   0  0  0  0  0  0  0  0  0  0  0  0
   44.8026   34.1636   46.1233 H   0  0  0  0  0  0  0  0  0  0  0  0
   48.3195   34.1148   38.7769 H   0  0  0  0  0  0  0  0  0  0  0  0
   48.4273   34.5565   36.3395 H   0  0  0  0  0  0  0  0  0  0  0  0
   48.9318   34.3952   33.9443 H   0  0  0  0  0  0  0  0  0  0  0  0
   49.0242   33.4155   31.4124 H   0  0  0  0  0  0  0  0  0  0  0  0
   49.6846   31.5640   30.0237 H   0  0  0  0  0  0  0  0  0  0  0  0
   49.9746   29.7999   29.9395 H   0  0  0  0  0  0  0  0  0  0  0  0
   48.4167   30.4303   28.1532 H   0  0  0  0  0  0  0  0  0  0  0  0
   47.3533   31.2744   29.3542 H   0  0  0  0  0  0  0  0  0  0  0  0
   46.2953   29.7991   31.0543 H   0  0  0  0  0  0  0  0  0  0  0  0
   46.5535   28.0236   30.7906 H   0  0  0  0  0  0  0  0  0  0  0  0
   48.9962   28.3400   31.2976 H   0  0  0  0  0  0  0  0  0  0  0  0
   47.9989   28.7742   32.6777 H   0  0  0  0  0  0  0  0  0  0  0  0
  1  7  1  0
  2  3  1  0
  2 12  1  0
  4  3  2  0
  5  4  1  0
  6  5  2  0
  7  5  1  0
  7  8  1  0
  8  2  1  0
  9  8  2  0
 10 15  2  0
 11 12  2  0
 11 10  1  0
 12 13  1  0
 13 14  2  0
 15 14  1  0
 16  1  1  0
 17 16  2  0
 18 17  1  0
 19 18  2  0
 19 20  1  0
 20 16  1  0
 21 19  1  0
 22 21  2  0
 23 24  2  0
 23 22  1  0
 24 25  1  0
 25 21  1  0
 26 31  1  0
 26 24  1  0
 27 26  1  0
 28 29  1  0
 28 27  1  0
 29 30  1  0
 30 31  1  0
  1 32  1  0
  1 33  1  0
  3 34  1  0
  4 35  1  0
 10 36  1  0
 11 37  1  0
 14 38  1  0
 17 39  1  0
 18 40  1  0
 22 41  1  0
 23 42  1  0
 27 43  1  0
 27 44  1  0
 28 45  1  0
 28 46  1  0
 30 47  1  0
 30 48  1  0
 31 49  1  0
 31 50  1  0
M  ISO  8  32   8  33   8  34  14  35  14  36  14  37  14  38  14  39  14
M  ISO  8  40  14  41  14  42  14  43  13  44  13  45  13  46  13  47  13
M  ISO  3  48  13  49  13  50  13
M  END
>  <minimizedAffinity>  (1) 
-6.49282837

>  <minimizedRMSD>  (1) 
0.622001648

$$$$
