
     RDKit          3D

 44 48  0  0  0  0  0  0  0  0999 V2000
   48.3210   31.4450   39.7230 C   0  0  0  0  0  0  0  0  0  0  0  0
   47.5620   33.6880   42.4540 N   0  0  0  0  0  0  0  0  0  0  0  0
   48.8270   34.0300   42.9040 C   0  0  0  0  0  0  0  0  0  0  0  0
   49.9630   33.5180   42.3040 C   0  0  0  0  0  0  0  0  0  0  0  0
   49.7950   32.6420   41.2270 C   0  0  0  0  0  0  0  0  0  0  0  0
   50.8060   32.1620   40.6620 O   0  0  0  0  0  0  0  0  0  0  0  0
   48.5330   32.3590   40.8490 N   0  0  0  0  0  0  0  0  0  0  0  0
   47.4670   32.8680   41.4470 C   0  0  0  0  0  0  0  0  0  0  0  0
   46.3080   32.6440   41.1440 O   0  0  0  0  0  0  0  0  0  0  0  0
   45.0160   36.1650   43.4590 C   0  0  0  0  0  0  0  0  0  0  0  0
   46.0040   35.5100   42.7130 C   0  0  0  0  0  0  0  0  0  0  0  0
   46.5610   34.3370   43.2250 C   0  0  0  0  0  0  0  0  0  0  0  0
   46.1330   33.8520   44.4410 N   0  0  0  0  0  0  0  0  0  0  0  0
   45.1630   34.5260   45.1360 C   0  0  0  0  0  0  0  0  0  0  0  0
   44.6130   35.6770   44.6380 N   0  0  0  0  0  0  0  0  0  0  0  0
   48.3820   32.0870   38.4310 C   0  0  0  0  0  0  0  0  0  0  0  0
   48.3730   33.3470   37.9910 C   0  0  0  0  0  0  0  0  0  0  0  0
   48.4470   33.6410   36.6630 C   0  0  0  0  0  0  0  0  0  0  0  0
   48.5330   32.5590   35.7760 C   0  0  0  0  0  0  0  0  0  0  0  0
   48.5030   31.1080   36.9300 S   0  0  0  0  0  0  0  0  0  0  0  0
   48.6210   32.4540   34.3600 C   0  0  0  0  0  0  0  0  0  0  0  0
   49.1570   33.4350   33.6010 C   0  0  0  0  0  0  0  0  0  0  0  0
   49.0780   32.9940   32.2730 C   0  0  0  0  0  0  0  0  0  0  0  0
   48.4760   31.7280   32.3460 C   0  0  0  0  0  0  0  0  0  0  0  0
   48.2180   31.4410   33.6120 O   0  0  0  0  0  0  0  0  0  0  0  0
   48.1960   30.8910   31.1840 C   0  0  0  0  0  0  0  0  0  0  0  0
   47.6550   29.6220   31.2370 C   0  0  0  0  0  0  0  0  0  0  0  0
   47.5850   29.2530   29.9080 C   0  0  0  0  0  0  0  0  0  0  0  0
   48.0760   30.2920   29.1190 C   0  0  0  0  0  0  0  0  0  0  0  0
   48.4330   31.2600   29.9470 O   0  0  0  0  0  0  0  0  0  0  0  0
   49.0955   30.6647   39.7593 H   0  0  0  0  0  0  0  0  0  0  0  0
   47.3054   31.0360   39.8296 H   0  0  0  0  0  0  0  0  0  0  0  0
   48.9296   34.7211   43.7536 H   0  0  0  0  0  0  0  0  0  0  0  0
   50.9665   33.7911   42.6624 H   0  0  0  0  0  0  0  0  0  0  0  0
   44.5663   37.0910   43.0713 H   0  0  0  0  0  0  0  0  0  0  0  0
   46.3342   35.9117   41.7437 H   0  0  0  0  0  0  0  0  0  0  0  0
   44.8217   34.1373   46.1068 H   0  0  0  0  0  0  0  0  0  0  0  0
   48.3041   34.1687   38.7191 H   0  0  0  0  0  0  0  0  0  0  0  0
   48.4396   34.6804   36.3030 H   0  0  0  0  0  0  0  0  0  0  0  0
   49.5727   34.3899   33.9550 H   0  0  0  0  0  0  0  0  0  0  0  0
   49.4145   33.5245   31.3700 H   0  0  0  0  0  0  0  0  0  0  0  0
   47.3529   29.0446   32.1232 H   0  0  0  0  0  0  0  0  0  0  0  0
   47.2028   28.2925   29.5321 H   0  0  0  0  0  0  0  0  0  0  0  0
   48.1518   30.3045   28.0217 H   0  0  0  0  0  0  0  0  0  0  0  0
  1  7  1  0
  2  3  1  0
  2 12  1  0
  4  3  2  0
  5  4  1  0
  6  5  2  0
  7  5  1  0
  7  8  1  0
  8  2  1  0
  9  8  2  0
 10 15  2  0
 11 12  2  0
 11 10  1  0
 12 13  1  0
 13 14  2  0
 15 14  1  0
 16  1  1  0
 17 16  2  0
 18 17  1  0
 19 18  2  0
 19 20  1  0
 20 16  1  0
 21 19  1  0
 22 21  2  0
 23 24  2  0
 23 22  1  0
 24 25  1  0
 25 21  1  0
 26 27  2  0
 26 24  1  0
 28 27  1  0
 29 28  2  0
 29 30  1  0
 30 26  1  0
  1 31  1  0
  1 32  1  0
  3 33  1  0
  4 34  1  0
 10 35  1  0
 11 36  1  0
 14 37  1  0
 17 38  1  0
 18 39  1  0
 22 40  1  0
 23 41  1  0
 27 42  1  0
 28 43  1  0
 29 44  1  0
M  ISO  8  31   8  32   8  33  14  34  14  35  14  36  14  37  14  38  14
M  ISO  6  39  14  40  14  41  14  42  14  43  14  44  14
M  END
>  <minimizedAffinity>  (1) 
-6.46951389

>  <minimizedRMSD>  (1) 
0.617478371

$$$$
