
     RDKit          3D

 44 48  0  0  0  0  0  0  0  0999 V2000
   48.4200   31.3330   39.6940 C   0  0  0  0  0  0  0  0  0  0  0  0
   47.6270   33.6370   42.3640 N   0  0  0  0  0  0  0  0  0  0  0  0
   48.8830   34.0020   42.8010 C   0  0  0  0  0  0  0  0  0  0  0  0
   50.0260   33.4820   42.2070 C   0  0  0  0  0  0  0  0  0  0  0  0
   49.8660   32.5790   41.1560 C   0  0  0  0  0  0  0  0  0  0  0  0
   50.8780   32.1030   40.6130 O   0  0  0  0  0  0  0  0  0  0  0  0
   48.6110   32.2740   40.7890 N   0  0  0  0  0  0  0  0  0  0  0  0
   47.5260   32.7900   41.3780 C   0  0  0  0  0  0  0  0  0  0  0  0
   46.3760   32.5450   41.0820 O   0  0  0  0  0  0  0  0  0  0  0  0
   45.0970   36.1440   43.3220 C   0  0  0  0  0  0  0  0  0  0  0  0
   46.0860   35.4790   42.5890 C   0  0  0  0  0  0  0  0  0  0  0  0
   46.6260   34.2970   43.1210 C   0  0  0  0  0  0  0  0  0  0  0  0
   46.1720   33.8390   44.3280 N   0  0  0  0  0  0  0  0  0  0  0  0
   45.2050   34.5170   45.0150 C   0  0  0  0  0  0  0  0  0  0  0  0
   44.6750   35.6710   44.4990 N   0  0  0  0  0  0  0  0  0  0  0  0
   48.4560   31.9330   38.3790 C   0  0  0  0  0  0  0  0  0  0  0  0
   48.4730   33.1840   37.9180 C   0  0  0  0  0  0  0  0  0  0  0  0
   48.5050   33.4530   36.5760 C   0  0  0  0  0  0  0  0  0  0  0  0
   48.5210   32.3480   35.7130 C   0  0  0  0  0  0  0  0  0  0  0  0
   48.4870   30.9200   36.9000 S   0  0  0  0  0  0  0  0  0  0  0  0
   48.5540   32.1870   34.3040 C   0  0  0  0  0  0  0  0  0  0  0  0
   48.9520   33.2160   33.4890 C   0  0  0  0  0  0  0  0  0  0  0  0
   48.8650   32.7160   32.1770 C   0  0  0  0  0  0  0  0  0  0  0  0
   48.4150   31.4090   32.3150 C   0  0  0  0  0  0  0  0  0  0  0  0
   48.2430   31.1360   33.6010 O   0  0  0  0  0  0  0  0  0  0  0  0
   48.1440   30.4090   31.2510 C   0  0  0  0  0  0  0  0  0  0  0  0
   48.3670   30.9420   29.8160 C   0  0  0  0  0  0  0  0  0  0  0  0
   49.2460   29.9080   30.3950 C   0  0  0  0  0  0  0  0  0  0  0  0
   49.2156   30.5753   39.7485 H   0  0  0  0  0  0  0  0  0  0  0  0
   47.4135   30.9068   39.8177 H   0  0  0  0  0  0  0  0  0  0  0  0
   48.9812   34.7156   43.6324 H   0  0  0  0  0  0  0  0  0  0  0  0
   51.0278   33.7738   42.5552 H   0  0  0  0  0  0  0  0  0  0  0  0
   44.6595   37.0712   42.9233 H   0  0  0  0  0  0  0  0  0  0  0  0
   46.4315   35.8718   41.6214 H   0  0  0  0  0  0  0  0  0  0  0  0
   44.8510   34.1360   45.9843 H   0  0  0  0  0  0  0  0  0  0  0  0
   48.4610   34.0199   38.6330 H   0  0  0  0  0  0  0  0  0  0  0  0
   48.5175   34.4844   36.1939 H   0  0  0  0  0  0  0  0  0  0  0  0
   49.2724   34.2222   33.7971 H   0  0  0  0  0  0  0  0  0  0  0  0
   49.1023   33.2460   31.2427 H   0  0  0  0  0  0  0  0  0  0  0  0
   47.3557   29.9080   31.8320 H   0  0  0  0  0  0  0  0  0  0  0  0
   48.7437   31.9632   29.6571 H   0  0  0  0  0  0  0  0  0  0  0  0
   47.7534   31.0324   28.9075 H   0  0  0  0  0  0  0  0  0  0  0  0
   49.2036   28.8807   30.0041 H   0  0  0  0  0  0  0  0  0  0  0  0
   50.3346   29.8252   30.5296 H   0  0  0  0  0  0  0  0  0  0  0  0
  1  7  1  0
  2  3  1  0
  2 12  1  0
  4  3  2  0
  5  4  1  0
  6  5  2  0
  7  5  1  0
  7  8  1  0
  8  2  1  0
  9  8  2  0
 10 15  2  0
 11 12  2  0
 11 10  1  0
 12 13  1  0
 13 14  2  0
 15 14  1  0
 16  1  1  0
 17 16  2  0
 18 17  1  0
 19 18  2  0
 19 20  1  0
 20 16  1  0
 21 19  1  0
 22 21  2  0
 23 24  2  0
 23 22  1  0
 24 25  1  0
 25 21  1  0
 26 24  1  0
 27 28  1  0
 27 26  1  0
 28 26  1  0
  1 29  1  0
  1 30  1  0
  3 31  1  0
  4 32  1  0
 10 33  1  0
 11 34  1  0
 14 35  1  0
 17 36  1  0
 18 37  1  0
 22 38  1  0
 23 39  1  0
 26 40  1  0
 27 41  1  0
 27 42  1  0
 28 43  1  0
 28 44  1  0
M  ISO  8  29   8  30   8  31  14  32  14  33  14  34  14  35  14  36  14
M  ISO  8  37  14  38  14  39  14  40  13  41  13  42  13  43  13  44  13
M  END
>  <minimizedAffinity>  (1) 
-5.92574883

>  <minimizedRMSD>  (1) 
0.345204324

$$$$
