
     RDKit          3D

 40 43  0  0  0  0  0  0  0  0999 V2000
   47.6070   33.7040   42.5080 N   0  0  0  0  0  0  0  0  0  0  0  0
   48.8590   34.1120   42.9280 C   0  0  0  0  0  0  0  0  0  0  0  0
   50.0090   33.6120   42.3430 C   0  0  0  0  0  0  0  0  0  0  0  0
   49.8660   32.6810   41.3140 C   0  0  0  0  0  0  0  0  0  0  0  0
   50.8910   32.2160   40.7720 O   0  0  0  0  0  0  0  0  0  0  0  0
   48.6050   32.3310   40.9590 N   0  0  0  0  0  0  0  0  0  0  0  0
   47.5260   32.8290   41.5400 C   0  0  0  0  0  0  0  0  0  0  0  0
   46.3820   32.5500   41.2600 O   0  0  0  0  0  0  0  0  0  0  0  0
   45.0200   36.1660   43.4340 C   0  0  0  0  0  0  0  0  0  0  0  0
   46.0260   35.5120   42.7140 C   0  0  0  0  0  0  0  0  0  0  0  0
   46.5890   34.3510   43.2530 C   0  0  0  0  0  0  0  0  0  0  0  0
   46.1400   33.8920   44.4660 N   0  0  0  0  0  0  0  0  0  0  0  0
   45.1560   34.5540   45.1410 C   0  0  0  0  0  0  0  0  0  0  0  0
   44.6030   35.6900   44.6180 N   0  0  0  0  0  0  0  0  0  0  0  0
   48.4500   31.3600   39.8870 C   0  0  0  0  0  0  0  0  0  0  0  0
   48.4630   31.9330   38.5590 C   0  0  0  0  0  0  0  0  0  0  0  0
   48.4770   33.1700   38.0610 C   0  0  0  0  0  0  0  0  0  0  0  0
   48.4840   33.3960   36.7180 C   0  0  0  0  0  0  0  0  0  0  0  0
   48.4770   32.2700   35.8840 C   0  0  0  0  0  0  0  0  0  0  0  0
   48.4580   30.8890   37.1050 S   0  0  0  0  0  0  0  0  0  0  0  0
   48.4810   32.0870   34.4780 C   0  0  0  0  0  0  0  0  0  0  0  0
   48.9180   33.0640   33.6330 C   0  0  0  0  0  0  0  0  0  0  0  0
   48.7920   32.5690   32.3340 C   0  0  0  0  0  0  0  0  0  0  0  0
   48.2650   31.2730   32.5070 C   0  0  0  0  0  0  0  0  0  0  0  0
   48.0980   31.0340   33.8030 O   0  0  0  0  0  0  0  0  0  0  0  0
   47.9330   30.2900   31.4240 C   0  0  0  0  0  0  0  0  0  0  0  0
   48.9427   34.8473   43.7418 H   0  0  0  0  0  0  0  0  0  0  0  0
   51.0044   33.9383   42.6787 H   0  0  0  0  0  0  0  0  0  0  0  0
   44.5657   37.0806   43.0252 H   0  0  0  0  0  0  0  0  0  0  0  0
   46.3669   35.9031   41.7440 H   0  0  0  0  0  0  0  0  0  0  0  0
   44.8057   34.1717   46.1111 H   0  0  0  0  0  0  0  0  0  0  0  0
   49.2739   30.6346   39.9574 H   0  0  0  0  0  0  0  0  0  0  0  0
   47.4610   30.8976   40.0211 H   0  0  0  0  0  0  0  0  0  0  0  0
   48.4830   34.0271   38.7505 H   0  0  0  0  0  0  0  0  0  0  0  0
   48.4947   34.4161   36.3067 H   0  0  0  0  0  0  0  0  0  0  0  0
   49.2981   34.0553   33.9208 H   0  0  0  0  0  0  0  0  0  0  0  0
   49.0459   33.0747   31.3907 H   0  0  0  0  0  0  0  0  0  0  0  0
   47.6122   29.3402   31.8767 H   0  0  0  0  0  0  0  0  0  0  0  0
   47.1207   30.6918   30.8005 H   0  0  0  0  0  0  0  0  0  0  0  0
   48.8226   30.1170   30.8005 H   0  0  0  0  0  0  0  0  0  0  0  0
  1  2  1  0
  1 11  1  0
  3  2  2  0
  4  3  1  0
  5  4  2  0
  6  4  1  0
  6  7  1  0
  7  1  1  0
  8  7  2  0
  9 14  2  0
 10 11  2  0
 10  9  1  0
 11 12  1  0
 12 13  2  0
 14 13  1  0
 15  6  1  0
 16 15  1  0
 17 16  2  0
 18 17  1  0
 19 18  2  0
 19 20  1  0
 20 16  1  0
 21 19  1  0
 22 21  2  0
 23 24  2  0
 23 22  1  0
 24 25  1  0
 25 21  1  0
 26 24  1  0
  2 27  1  0
  3 28  1  0
  9 29  1  0
 10 30  1  0
 13 31  1  0
 15 32  1  0
 15 33  1  0
 17 34  1  0
 18 35  1  0
 22 36  1  0
 23 37  1  0
 26 38  1  0
 26 39  1  0
 26 40  1  0
M  ISO  8  27  14  28  14  29  14  30  14  31  14  32   8  33   8  34  14
M  ISO  6  35  14  36  14  37  14  38   8  39   8  40   8
M  END
>  <minimizedAffinity>  (1) 
-5.75003862

>  <minimizedRMSD>  (1) 
0.0835189298

$$$$
