
     RDKit          3D

 25 27  0  0  0  0  0  0  0  0999 V2000
   45.8040   33.8790   45.4910 C   0  0  0  0  0  0  0  0  0  0  0  0
   44.8290   34.8560   45.6210 C   0  0  0  0  0  0  0  0  0  0  0  0
   44.5330   35.7800   44.6440 C   0  0  0  0  0  0  0  0  0  0  0  0
   45.2150   35.7490   43.4970 N   0  0  0  0  0  0  0  0  0  0  0  0
   46.1670   34.8030   43.3620 C   0  0  0  0  0  0  0  0  0  0  0  0
   46.4660   33.8860   44.3200 N   0  0  0  0  0  0  0  0  0  0  0  0
   47.3400   31.2620   47.5260 C   0  0  0  0  0  0  0  0  0  0  0  0
   46.4860   31.1920   48.6250 C   0  0  0  0  0  0  0  0  0  0  0  0
   45.3770   32.0520   48.6650 C   0  0  0  0  0  0  0  0  0  0  0  0
   45.2160   32.8910   47.6230 N   0  0  0  0  0  0  0  0  0  0  0  0
   46.0530   32.9430   46.5700 C   0  0  0  0  0  0  0  0  0  0  0  0
   47.1180   32.1320   46.5130 N   0  0  0  0  0  0  0  0  0  0  0  0
   46.9160   34.7650   42.1100 C   0  0  0  0  0  0  0  0  0  0  0  0
   46.5530   34.1350   40.9300 C   0  0  0  0  0  0  0  0  0  0  0  0
   47.5190   34.3340   39.9920 N   0  0  0  0  0  0  0  0  0  0  0  0
   48.4930   35.0850   40.5620 C   0  0  0  0  0  0  0  0  0  0  0  0
   48.0870   35.3160   41.8230 N   0  0  0  0  0  0  0  0  0  0  0  0
   44.2580   34.8954   46.5604 H   0  0  0  0  0  0  0  0  0  0  0  0
   43.7467   36.5320   44.8062 H   0  0  0  0  0  0  0  0  0  0  0  0
   48.2139   30.5955   47.4807 H   0  0  0  0  0  0  0  0  0  0  0  0
   46.6763   30.4800   49.4416 H   0  0  0  0  0  0  0  0  0  0  0  0
   44.6714   32.0414   49.5088 H   0  0  0  0  0  0  0  0  0  0  0  0
   45.6267   33.5623   40.7754 H   0  0  0  0  0  0  0  0  0  0  0  0
   49.4236   35.4336   40.0903 H   0  0  0  0  0  0  0  0  0  0  0  0
   48.6330   35.8676   42.5002 H   0  0  0  0  0  0  0  0  0  0  0  0
  1  2  2  0
  1 11  1  0
  3  2  1  0
  4  3  2  0
  5  4  1  0
  5  6  2  0
  6  1  1  0
  7  8  2  0
  8  9  1  0
 10  9  2  0
 11 10  1  0
 12 11  2  0
 12  7  1  0
 13  5  1  0
 14 13  2  0
 15 16  2  0
 15 14  1  0
 16 17  1  0
 17 13  1  0
  2 18  1  0
  3 19  1  0
  7 20  1  0
  8 21  1  0
  9 22  1  0
 14 23  1  0
 16 24  1  0
 17 25  1  0
M  ISO  8  18  14  19  14  20  14  21  14  22  14  23  14  24  14  25   9
M  END
>  <minimizedAffinity>  (1) 
-5.49262524

>  <minimizedRMSD>  (1) 
7.27603245

$$$$
