
     RDKit          3D

 25 27  0  0  0  0  0  0  0  0999 V2000
   45.8370   33.7720   45.6070 C   0  0  0  0  0  0  0  0  0  0  0  0
   44.8730   34.7570   45.7290 C   0  0  0  0  0  0  0  0  0  0  0  0
   44.5830   35.6630   44.7330 C   0  0  0  0  0  0  0  0  0  0  0  0
   45.2490   35.6140   43.5810 N   0  0  0  0  0  0  0  0  0  0  0  0
   46.2010   34.6470   43.4490 C   0  0  0  0  0  0  0  0  0  0  0  0
   46.4850   33.7520   44.4360 N   0  0  0  0  0  0  0  0  0  0  0  0
   47.0390   34.4050   42.3030 N   0  0  0  0  0  0  0  0  0  0  0  0
   47.0330   33.1670   41.7720 C   0  0  0  0  0  0  0  0  0  0  0  0
   47.9200   33.2320   40.6990 C   0  0  0  0  0  0  0  0  0  0  0  0
   48.4280   34.4750   40.6080 N   0  0  0  0  0  0  0  0  0  0  0  0
   47.8830   35.2050   41.6010 C   0  0  0  0  0  0  0  0  0  0  0  0
   47.4260   31.1910   47.6660 C   0  0  0  0  0  0  0  0  0  0  0  0
   46.5680   31.1020   48.7590 C   0  0  0  0  0  0  0  0  0  0  0  0
   45.4420   31.9350   48.7800 C   0  0  0  0  0  0  0  0  0  0  0  0
   45.2320   32.7930   47.7410 N   0  0  0  0  0  0  0  0  0  0  0  0
   46.0950   32.8410   46.7020 C   0  0  0  0  0  0  0  0  0  0  0  0
   47.1840   32.0500   46.6580 N   0  0  0  0  0  0  0  0  0  0  0  0
   44.3085   34.8198   46.6710 H   0  0  0  0  0  0  0  0  0  0  0  0
   43.8042   36.4241   44.8886 H   0  0  0  0  0  0  0  0  0  0  0  0
   46.4544   32.2952   42.1112 H   0  0  0  0  0  0  0  0  0  0  0  0
   48.1671   32.3954   40.0290 H   0  0  0  0  0  0  0  0  0  0  0  0
   48.0866   36.2661   41.8075 H   0  0  0  0  0  0  0  0  0  0  0  0
   48.3175   30.5479   47.6254 H   0  0  0  0  0  0  0  0  0  0  0  0
   46.7683   30.3990   49.5810 H   0  0  0  0  0  0  0  0  0  0  0  0
   44.7366   31.8976   49.6232 H   0  0  0  0  0  0  0  0  0  0  0  0
  1  2  2  0
  1 16  1  0
  3  2  1  0
  4  3  2  0
  5  4  1  0
  5  6  2  0
  6  1  1  0
  7  5  1  0
  8  7  1  0
  9  8  2  0
 10  9  1  0
 10 11  2  0
 11  7  1  0
 12 13  2  0
 13 14  1  0
 15 14  2  0
 16 15  1  0
 17 16  2  0
 17 12  1  0
  2 18  1  0
  3 19  1  0
  8 20  1  0
  9 21  1  0
 11 22  1  0
 12 23  1  0
 13 24  1  0
 14 25  1  0
M  ISO  8  18  14  19  14  20  14  21  14  22  14  23  14  24  14  25  14
M  END
>  <minimizedAffinity>  (1) 
-5.38794947

>  <minimizedRMSD>  (1) 
7.0195899

$$$$
