
     RDKit          3D

 19 20  0  0  0  0  0  0  0  0999 V2000
   45.9790   32.9430   46.6180 C   0  0  0  0  0  0  0  0  0  0  0  0
   47.1100   32.1400   46.5220 C   0  0  0  0  0  0  0  0  0  0  0  0
   47.4280   31.2220   47.4870 C   0  0  0  0  0  0  0  0  0  0  0  0
   46.6470   31.0730   48.5640 N   0  0  0  0  0  0  0  0  0  0  0  0
   45.5560   31.8550   48.6470 C   0  0  0  0  0  0  0  0  0  0  0  0
   45.2130   32.7730   47.7090 N   0  0  0  0  0  0  0  0  0  0  0  0
   44.5030   35.7680   44.8210 C   0  0  0  0  0  0  0  0  0  0  0  0
   45.1480   35.6940   43.5780 C   0  0  0  0  0  0  0  0  0  0  0  0
   46.0890   34.6740   43.3630 C   0  0  0  0  0  0  0  0  0  0  0  0
   46.3270   33.8070   44.3700 N   0  0  0  0  0  0  0  0  0  0  0  0
   45.6830   33.9100   45.5580 C   0  0  0  0  0  0  0  0  0  0  0  0
   44.7780   34.8790   45.7890 N   0  0  0  0  0  0  0  0  0  0  0  0
   44.7680   31.6750   49.7760 O   0  0  0  0  0  0  0  0  0  0  0  0
   47.7676   32.2451   45.6465 H   0  0  0  0  0  0  0  0  0  0  0  0
   48.3307   30.6032   47.3766 H   0  0  0  0  0  0  0  0  0  0  0  0
   43.7645   36.5622   45.0048 H   0  0  0  0  0  0  0  0  0  0  0  0
   44.9209   36.4221   42.7854 H   0  0  0  0  0  0  0  0  0  0  0  0
   46.6168   34.5841   42.4021 H   0  0  0  0  0  0  0  0  0  0  0  0
   43.9498   32.2183   49.9003 H   0  0  0  0  0  0  0  0  0  0  0  0
  1  6  1  0
  2  1  2  0
  2  3  1  0
  3  4  2  0
  4  5  1  0
  5 13  1  0
  6  5  2  0
  7 12  2  0
  8  7  1  0
  9  8  2  0
  9 10  1  0
 10 11  2  0
 11 12  1  0
 11  1  1  0
  2 14  1  0
  3 15  1  0
  7 16  1  0
  8 17  1  0
  9 18  1  0
 13 19  1  0
M  ISO  6  14  14  15  14  16  14  17  14  18  14  19   3
M  END
>  <minimizedAffinity>  (1) 
-4.88299799

>  <minimizedRMSD>  (1) 
0.161499694

$$$$
