
     RDKit          3D

 30 31  0  0  0  0  0  0  0  0999 V2000
   46.3970   32.8140   45.1550 C   0  0  0  0  0  0  0  0  0  0  0  0
   47.1500   31.8930   44.4060 C   0  0  0  0  0  0  0  0  0  0  0  0
   47.6430   30.7190   44.9360 C   0  0  0  0  0  0  0  0  0  0  0  0
   47.4060   30.4200   46.2130 N   0  0  0  0  0  0  0  0  0  0  0  0
   46.6810   31.3080   46.9330 C   0  0  0  0  0  0  0  0  0  0  0  0
   46.1880   32.4760   46.4180 N   0  0  0  0  0  0  0  0  0  0  0  0
   44.5650   35.9160   44.5570 C   0  0  0  0  0  0  0  0  0  0  0  0
   45.0200   36.3190   43.3060 C   0  0  0  0  0  0  0  0  0  0  0  0
   45.9580   35.5170   42.6750 C   0  0  0  0  0  0  0  0  0  0  0  0
   46.3900   34.3850   43.2940 N   0  0  0  0  0  0  0  0  0  0  0  0
   45.9160   34.0300   44.5210 C   0  0  0  0  0  0  0  0  0  0  0  0
   45.0050   34.7850   45.1620 N   0  0  0  0  0  0  0  0  0  0  0  0
   46.3380   31.1030   48.3790 C   0  0  0  0  0  0  0  0  0  0  0  0
   47.6530   30.7450   49.0700 C   0  0  0  0  0  0  0  0  0  0  0  0
   45.7760   32.3470   48.9910 C   0  0  0  0  0  0  0  0  0  0  0  0
   45.3730   29.9460   48.5440 C   0  0  0  0  0  0  0  0  0  0  0  0
   47.3553   32.1189   43.3492 H   0  0  0  0  0  0  0  0  0  0  0  0
   48.2292   30.0325   44.3075 H   0  0  0  0  0  0  0  0  0  0  0  0
   43.8203   36.5381   45.0751 H   0  0  0  0  0  0  0  0  0  0  0  0
   44.6489   37.2409   42.8344 H   0  0  0  0  0  0  0  0  0  0  0  0
   46.3489   35.7927   41.6845 H   0  0  0  0  0  0  0  0  0  0  0  0
   47.5160   30.7823   50.1608 H   0  0  0  0  0  0  0  0  0  0  0  0
   47.9589   29.7309   48.7733 H   0  0  0  0  0  0  0  0  0  0  0  0
   48.4307   31.4641   48.7733 H   0  0  0  0  0  0  0  0  0  0  0  0
   45.8129   32.2653   50.0873 H   0  0  0  0  0  0  0  0  0  0  0  0
   46.3694   33.2150   48.6678 H   0  0  0  0  0  0  0  0  0  0  0  0
   44.7324   32.4755   48.6678 H   0  0  0  0  0  0  0  0  0  0  0  0
   45.2119   29.7528   49.6148 H   0  0  0  0  0  0  0  0  0  0  0  0
   44.4137   30.1980   48.0685 H   0  0  0  0  0  0  0  0  0  0  0  0
   45.7931   29.0475   48.0685 H   0  0  0  0  0  0  0  0  0  0  0  0
  1  6  2  0
  2  3  2  0
  2  1  1  0
  3  4  1  0
  4  5  2  0
  5 13  1  0
  6  5  1  0
  7 12  2  0
  8  7  1  0
  9 10  1  0
  9  8  2  0
 10 11  2  0
 11  1  1  0
 11 12  1  0
 13 16  1  0
 13 15  1  0
 13 14  1  0
  2 17  1  0
  3 18  1  0
  7 19  1  0
  8 20  1  0
  9 21  1  0
 14 22  1  0
 14 23  1  0
 14 24  1  0
 15 25  1  0
 15 26  1  0
 15 27  1  0
 16 28  1  0
 16 29  1  0
 16 30  1  0
M  ISO  8  17  14  18  14  19  14  20  14  21  14  22   8  23   8  24   8
M  ISO  6  25   8  26   8  27   8  28   8  29   8  30   8
M  END
>  <minimizedAffinity>  (1) 
-4.810009

>  <minimizedRMSD>  (1) 
2.12865925

$$$$
