
     RDKit          3D

 21 22  0  0  0  0  0  0  0  0999 V2000
   46.0260   32.9100   46.1140 C   0  0  0  0  0  0  0  0  0  0  0  0
   46.9780   31.9700   45.7280 C   0  0  0  0  0  0  0  0  0  0  0  0
   47.3470   30.9120   46.5300 C   0  0  0  0  0  0  0  0  0  0  0  0
   46.7820   30.7620   47.7300 N   0  0  0  0  0  0  0  0  0  0  0  0
   45.8500   31.6860   48.1030 C   0  0  0  0  0  0  0  0  0  0  0  0
   45.4710   32.7380   47.3270 N   0  0  0  0  0  0  0  0  0  0  0  0
   44.4800   35.9550   44.8000 C   0  0  0  0  0  0  0  0  0  0  0  0
   45.0530   36.0470   43.5150 C   0  0  0  0  0  0  0  0  0  0  0  0
   45.9660   35.0550   43.1190 C   0  0  0  0  0  0  0  0  0  0  0  0
   46.2520   34.0620   43.9870 N   0  0  0  0  0  0  0  0  0  0  0  0
   45.6730   34.0130   45.2220 C   0  0  0  0  0  0  0  0  0  0  0  0
   44.7970   34.9470   45.6290 N   0  0  0  0  0  0  0  0  0  0  0  0
   45.2350   31.4990   49.4440 C   0  0  0  0  0  0  0  0  0  0  0  0
   47.4550   32.0764   44.7425 H   0  0  0  0  0  0  0  0  0  0  0  0
   48.1043   30.1938   46.1827 H   0  0  0  0  0  0  0  0  0  0  0  0
   43.7621   36.7208   45.1287 H   0  0  0  0  0  0  0  0  0  0  0  0
   44.7918   36.8748   42.8393 H   0  0  0  0  0  0  0  0  0  0  0  0
   46.4364   35.0870   42.1252 H   0  0  0  0  0  0  0  0  0  0  0  0
   45.9781   31.7250   50.2229 H   0  0  0  0  0  0  0  0  0  0  0  0
   44.3747   32.1762   49.5505 H   0  0  0  0  0  0  0  0  0  0  0  0
   44.8973   30.4576   49.5505 H   0  0  0  0  0  0  0  0  0  0  0  0
  1  6  1  0
  2  1  2  0
  2  3  1  0
  3  4  2  0
  4  5  1  0
  5 13  1  0
  6  5  2  0
  7 12  2  0
  8  7  1  0
  9  8  2  0
  9 10  1  0
 10 11  2  0
 11 12  1  0
 11  1  1  0
  2 14  1  0
  3 15  1  0
  7 16  1  0
  8 17  1  0
  9 18  1  0
 13 19  1  0
 13 20  1  0
 13 21  1  0
M  ISO  8  14  14  15  14  16  14  17  14  18  14  19   8  20   8  21   8
M  END
>  <minimizedAffinity>  (1) 
-4.72964001

>  <minimizedRMSD>  (1) 
0.732599199

$$$$
