
     RDKit          3D

 20 21  0  0  0  0  0  0  0  0999 V2000
   45.7980   33.9090   45.4340 C   0  0  0  0  0  0  0  0  0  0  0  0
   44.8260   34.9100   45.5850 C   0  0  0  0  0  0  0  0  0  0  0  0
   44.5280   35.8230   44.6070 C   0  0  0  0  0  0  0  0  0  0  0  0
   45.1870   35.7760   43.4370 N   0  0  0  0  0  0  0  0  0  0  0  0
   46.1150   34.8130   43.3010 C   0  0  0  0  0  0  0  0  0  0  0  0
   46.4360   33.8930   44.2500 N   0  0  0  0  0  0  0  0  0  0  0  0
   47.3740   31.3010   47.4640 C   0  0  0  0  0  0  0  0  0  0  0  0
   46.5280   31.2300   48.5670 C   0  0  0  0  0  0  0  0  0  0  0  0
   45.4170   32.0830   48.6070 C   0  0  0  0  0  0  0  0  0  0  0  0
   45.2100   32.9380   47.5780 N   0  0  0  0  0  0  0  0  0  0  0  0
   46.0580   32.9740   46.5190 C   0  0  0  0  0  0  0  0  0  0  0  0
   47.1210   32.1700   46.4640 N   0  0  0  0  0  0  0  0  0  0  0  0
   46.8250   34.7720   42.0240 C   0  0  0  0  0  0  0  0  0  0  0  0
   47.8960   35.4190   41.8860 O   0  0  0  0  0  0  0  0  0  0  0  0
   44.2757   34.9646   46.5359 H   0  0  0  0  0  0  0  0  0  0  0  0
   43.7560   36.5876   44.7785 H   0  0  0  0  0  0  0  0  0  0  0  0
   48.2546   30.6442   47.4075 H   0  0  0  0  0  0  0  0  0  0  0  0
   46.7264   30.5228   49.3858 H   0  0  0  0  0  0  0  0  0  0  0  0
   44.7241   32.0583   49.4609 H   0  0  0  0  0  0  0  0  0  0  0  0
   46.4256   34.1790   41.1881 H   0  0  0  0  0  0  0  0  0  0  0  0
  1  2  2  0
  1 11  1  0
  3  2  1  0
  4  3  2  0
  5  4  1  0
  5  6  2  0
  6  1  1  0
  7  8  2  0
  8  9  1  0
 10  9  2  0
 11 10  1  0
 12 11  2  0
 12  7  1  0
 13  5  1  0
 14 13  2  0
  2 15  1  0
  3 16  1  0
  7 17  1  0
  8 18  1  0
  9 19  1  0
 13 20  1  0
M  ISO  6  15  14  16  14  17  14  18  14  19  14  20   6
M  END
>  <minimizedAffinity>  (1) 
-4.64520025

>  <minimizedRMSD>  (1) 
5.84602213

$$$$
