
     RDKit          3D

 27 29  0  0  0  0  0  0  0  0999 V2000
   45.5580   33.0340   43.4190 C   0  0  0  0  0  0  0  0  0  0  0  0
   46.7820   32.6350   42.8890 C   0  0  0  0  0  0  0  0  0  0  0  0
   47.7050   31.9270   43.6140 C   0  0  0  0  0  0  0  0  0  0  0  0
   47.4490   31.5940   44.8780 N   0  0  0  0  0  0  0  0  0  0  0  0
   46.2670   31.9750   45.3980 C   0  0  0  0  0  0  0  0  0  0  0  0
   45.3530   32.6770   44.6790 N   0  0  0  0  0  0  0  0  0  0  0  0
   43.9190   35.8150   41.7150 C   0  0  0  0  0  0  0  0  0  0  0  0
   42.8750   35.2040   41.0250 C   0  0  0  0  0  0  0  0  0  0  0  0
   42.7520   33.8300   41.1610 C   0  0  0  0  0  0  0  0  0  0  0  0
   43.6280   33.1430   41.9380 N   0  0  0  0  0  0  0  0  0  0  0  0
   44.6240   33.7850   42.5870 C   0  0  0  0  0  0  0  0  0  0  0  0
   44.7830   35.1190   42.4840 N   0  0  0  0  0  0  0  0  0  0  0  0
   45.9630   31.6230   46.7800 C   0  0  0  0  0  0  0  0  0  0  0  0
   45.4840   30.3800   47.1190 C   0  0  0  0  0  0  0  0  0  0  0  0
   45.1840   30.0100   48.4260 C   0  0  0  0  0  0  0  0  0  0  0  0
   45.3870   30.9510   49.3890 C   0  0  0  0  0  0  0  0  0  0  0  0
   45.8720   32.2140   49.0520 C   0  0  0  0  0  0  0  0  0  0  0  0
   46.1510   32.5250   47.7540 N   0  0  0  0  0  0  0  0  0  0  0  0
   47.0177   32.8983   41.8473 H   0  0  0  0  0  0  0  0  0  0  0  0
   48.6587   31.6333   43.1512 H   0  0  0  0  0  0  0  0  0  0  0  0
   44.0442   36.9046   41.6303 H   0  0  0  0  0  0  0  0  0  0  0  0
   42.1800   35.7849   40.4009 H   0  0  0  0  0  0  0  0  0  0  0  0
   41.9442   33.2960   40.6391 H   0  0  0  0  0  0  0  0  0  0  0  0
   45.3304   29.6420   46.3179 H   0  0  0  0  0  0  0  0  0  0  0  0
   44.8020   29.0076   48.6693 H   0  0  0  0  0  0  0  0  0  0  0  0
   45.1668   30.7131   50.4402 H   0  0  0  0  0  0  0  0  0  0  0  0
   46.0308   32.9655   49.8394 H   0  0  0  0  0  0  0  0  0  0  0  0
  1  6  1  0
  2  1  2  0
  2  3  1  0
  3  4  2  0
  4  5  1  0
  5 13  1  0
  6  5  2  0
  7 12  2  0
  8  9  2  0
  8  7  1  0
  9 10  1  0
 10 11  2  0
 11  1  1  0
 12 11  1  0
 13 14  2  0
 13 18  1  0
 14 15  1  0
 15 16  2  0
 17 16  1  0
 18 17  2  0
  2 19  1  0
  3 20  1  0
  7 21  1  0
  8 22  1  0
  9 23  1  0
 14 24  1  0
 15 25  1  0
 16 26  1  0
 17 27  1  0
M  ISO  8  19  14  20  14  21  14  22  14  23  14  24  14  25  14  26  14
M  ISO  1  27  14
M  END
>  <minimizedAffinity>  (1) 
-4.59329176

>  <minimizedRMSD>  (1) 
3.59606981

$$$$
