
     RDKit          3D

 24 26  0  0  0  0  0  0  0  0999 V2000
   47.4400   31.1280   47.8950 C   0  0  0  0  0  0  0  0  0  0  0  0
   46.5320   31.1220   48.9620 C   0  0  0  0  0  0  0  0  0  0  0  0
   45.3990   31.9000   49.0010 C   0  0  0  0  0  0  0  0  0  0  0  0
   45.1330   32.7140   47.9740 N   0  0  0  0  0  0  0  0  0  0  0  0
   46.0100   32.7140   46.9500 C   0  0  0  0  0  0  0  0  0  0  0  0
   47.1360   31.9600   46.8810 N   0  0  0  0  0  0  0  0  0  0  0  0
   50.0330   28.7770   46.8630 C   0  0  0  0  0  0  0  0  0  0  0  0
   50.8140   28.6510   48.0240 C   0  0  0  0  0  0  0  0  0  0  0  0
   50.4310   29.3850   49.1570 C   0  0  0  0  0  0  0  0  0  0  0  0
   49.3400   30.1750   49.0880 N   0  0  0  0  0  0  0  0  0  0  0  0
   48.6140   30.2660   47.9440 C   0  0  0  0  0  0  0  0  0  0  0  0
   48.9460   29.5800   46.8340 N   0  0  0  0  0  0  0  0  0  0  0  0
   45.8690   33.5530   45.7370 C   0  0  0  0  0  0  0  0  0  0  0  0
   46.5480   33.4390   44.4780 C   0  0  0  0  0  0  0  0  0  0  0  0
   45.8210   34.8320   43.5270 S   0  0  0  0  0  0  0  0  0  0  0  0
   44.7270   35.3240   45.0010 C   0  0  0  0  0  0  0  0  0  0  0  0
   45.0120   34.5530   45.7810 N   0  0  0  0  0  0  0  0  0  0  0  0
   46.7367   30.4586   49.8152 H   0  0  0  0  0  0  0  0  0  0  0  0
   44.7204   31.8534   49.8655 H   0  0  0  0  0  0  0  0  0  0  0  0
   50.3111   28.2119   45.9612 H   0  0  0  0  0  0  0  0  0  0  0  0
   51.6984   27.9972   48.0443 H   0  0  0  0  0  0  0  0  0  0  0  0
   51.0124   29.3170   50.0883 H   0  0  0  0  0  0  0  0  0  0  0  0
   47.3069   32.7073   44.1640 H   0  0  0  0  0  0  0  0  0  0  0  0
   44.0018   36.1475   45.0775 H   0  0  0  0  0  0  0  0  0  0  0  0
  1 11  1  0
  1  2  2  0
  2  3  1  0
  4  3  2  0
  5  4  1  0
  6  5  2  0
  6  1  1  0
  7  8  2  0
  8  9  1  0
 10  9  2  0
 11 10  1  0
 12  7  1  0
 12 11  2  0
 13 17  1  0
 13  5  1  0
 14 13  2  0
 15 14  1  0
 15 16  1  0
 16 17  2  0
  2 18  1  0
  3 19  1  0
  7 20  1  0
  8 21  1  0
  9 22  1  0
 14 23  1  0
 16 24  1  0
M  ISO  7  18  14  19  14  20  14  21  14  22  14  23  14  24  14
M  END
>  <minimizedAffinity>  (1) 
-4.53272629

>  <minimizedRMSD>  (1) 
6.18439579

$$$$
