
     RDKit          3D

 19 20  0  0  0  0  0  0  0  0999 V2000
   46.0980   32.8820   45.7720 C   0  0  0  0  0  0  0  0  0  0  0  0
   46.9940   31.9310   45.2630 C   0  0  0  0  0  0  0  0  0  0  0  0
   47.4010   30.8220   45.9620 C   0  0  0  0  0  0  0  0  0  0  0  0
   46.9260   30.6160   47.2070 N   0  0  0  0  0  0  0  0  0  0  0  0
   46.0660   31.5300   47.6920 C   0  0  0  0  0  0  0  0  0  0  0  0
   45.6490   32.6440   47.0080 N   0  0  0  0  0  0  0  0  0  0  0  0
   44.4930   35.9800   44.6990 C   0  0  0  0  0  0  0  0  0  0  0  0
   45.0390   36.1630   43.4150 C   0  0  0  0  0  0  0  0  0  0  0  0
   45.9540   35.2230   42.9270 C   0  0  0  0  0  0  0  0  0  0  0  0
   46.2730   34.1710   43.7210 N   0  0  0  0  0  0  0  0  0  0  0  0
   45.7280   34.0230   44.9550 C   0  0  0  0  0  0  0  0  0  0  0  0
   44.8460   34.9140   45.4470 N   0  0  0  0  0  0  0  0  0  0  0  0
   45.3710   31.3590   49.3320 S   0  0  0  0  0  0  0  0  0  0  0  0
   47.3922   32.0819   44.2488 H   0  0  0  0  0  0  0  0  0  0  0  0
   48.1071   30.1090   45.5113 H   0  0  0  0  0  0  0  0  0  0  0  0
   43.7733   36.7112   45.0957 H   0  0  0  0  0  0  0  0  0  0  0  0
   44.7511   37.0314   42.8043 H   0  0  0  0  0  0  0  0  0  0  0  0
   46.4014   35.3344   41.9283 H   0  0  0  0  0  0  0  0  0  0  0  0
   46.3432   31.5982   50.2672 H   0  0  0  0  0  0  0  0  0  0  0  0
  1  6  1  0
  2  1  2  0
  2  3  1  0
  3  4  2  0
  4  5  1  0
  5 13  1  0
  6  5  2  0
  7 12  2  0
  8  7  1  0
  9  8  2  0
  9 10  1  0
 10 11  2  0
 11 12  1  0
 11  1  1  0
  2 14  1  0
  3 15  1  0
  7 16  1  0
  8 17  1  0
  9 18  1  0
 13 19  1  0
M  ISO  6  14  14  15  14  16  14  17  14  18  14  19  11
M  END
>  <minimizedAffinity>  (1) 
-4.42809105

>  <minimizedRMSD>  (1) 
1.10608375

$$$$
