
     RDKit          3D

 26 28  0  0  0  0  0  0  0  0999 V2000
   48.2260   33.7410   42.9900 C   0  0  0  0  0  0  0  0  0  0  0  0
   49.3340   34.5740   42.7710 C   0  0  0  0  0  0  0  0  0  0  0  0
   50.5580   34.0850   42.3910 C   0  0  0  0  0  0  0  0  0  0  0  0
   50.7110   32.7560   42.2180 N   0  0  0  0  0  0  0  0  0  0  0  0
   49.6430   31.9670   42.4320 C   0  0  0  0  0  0  0  0  0  0  0  0
   48.4220   32.4220   42.8080 N   0  0  0  0  0  0  0  0  0  0  0  0
   45.1940   34.4530   44.8980 C   0  0  0  0  0  0  0  0  0  0  0  0
   44.5890   35.4720   44.1570 C   0  0  0  0  0  0  0  0  0  0  0  0
   45.2320   35.9080   43.0040 C   0  0  0  0  0  0  0  0  0  0  0  0
   46.4000   35.3300   42.6590 N   0  0  0  0  0  0  0  0  0  0  0  0
   46.9570   34.3470   43.3950 C   0  0  0  0  0  0  0  0  0  0  0  0
   46.3670   33.8960   44.5180 N   0  0  0  0  0  0  0  0  0  0  0  0
   49.8370   30.5340   42.2390 C   0  0  0  0  0  0  0  0  0  0  0  0
   49.6350   29.6190   43.2610 C   0  0  0  0  0  0  0  0  0  0  0  0
   49.8130   28.2630   43.0990 C   0  0  0  0  0  0  0  0  0  0  0  0
   50.1990   27.8240   41.8890 N   0  0  0  0  0  0  0  0  0  0  0  0
   50.3960   28.7280   40.8880 C   0  0  0  0  0  0  0  0  0  0  0  0
   50.2230   30.0700   41.0410 N   0  0  0  0  0  0  0  0  0  0  0  0
   49.2166   35.6590   42.9091 H   0  0  0  0  0  0  0  0  0  0  0  0
   51.4046   34.7684   42.2293 H   0  0  0  0  0  0  0  0  0  0  0  0
   44.7033   34.0942   45.8148 H   0  0  0  0  0  0  0  0  0  0  0  0
   43.6341   35.9151   44.4760 H   0  0  0  0  0  0  0  0  0  0  0  0
   44.7969   36.7076   42.3864 H   0  0  0  0  0  0  0  0  0  0  0  0
   49.3182   29.9931   44.2457 H   0  0  0  0  0  0  0  0  0  0  0  0
   49.6450   27.5636   43.9312 H   0  0  0  0  0  0  0  0  0  0  0  0
   50.7118   28.3531   39.9033 H   0  0  0  0  0  0  0  0  0  0  0  0
  1 11  1  0
  2  1  2  0
  3  2  1  0
  4  3  2  0
  4  5  1  0
  5  6  2  0
  6  1  1  0
  8  7  2  0
  9  8  1  0
 10  9  2  0
 10 11  1  0
 11 12  2  0
 12  7  1  0
 13  5  1  0
 13 14  2  0
 15 14  1  0
 16 15  2  0
 17 18  2  0
 17 16  1  0
 18 13  1  0
  2 19  1  0
  3 20  1  0
  7 21  1  0
  8 22  1  0
  9 23  1  0
 14 24  1  0
 15 25  1  0
 17 26  1  0
M  ISO  8  19  14  20  14  21  14  22  14  23  14  24  14  25  14  26  14
M  END
>  <minimizedAffinity>  (1) 
-4.05141401

>  <minimizedRMSD>  (1) 
7.60300732

$$$$
