
     RDKit          3D

 20 21  0  0  0  0  0  0  0  0999 V2000
   45.9900   32.8630   46.3910 C   0  0  0  0  0  0  0  0  0  0  0  0
   47.0230   31.9710   46.1260 C   0  0  0  0  0  0  0  0  0  0  0  0
   47.3800   30.9540   46.9820 C   0  0  0  0  0  0  0  0  0  0  0  0
   46.7140   30.7990   48.1280 N   0  0  0  0  0  0  0  0  0  0  0  0
   45.6990   31.6730   48.3920 C   0  0  0  0  0  0  0  0  0  0  0  0
   45.3350   32.6850   47.5510 N   0  0  0  0  0  0  0  0  0  0  0  0
   44.8730   31.6670   49.5660 N   0  0  0  0  0  0  0  0  0  0  0  0
   44.4940   35.8510   44.8810 C   0  0  0  0  0  0  0  0  0  0  0  0
   45.0920   35.8760   43.6230 C   0  0  0  0  0  0  0  0  0  0  0  0
   46.0060   34.8710   43.2950 C   0  0  0  0  0  0  0  0  0  0  0  0
   46.2860   33.8970   44.2090 N   0  0  0  0  0  0  0  0  0  0  0  0
   45.6740   33.9160   45.4270 C   0  0  0  0  0  0  0  0  0  0  0  0
   44.7910   34.8710   45.7700 N   0  0  0  0  0  0  0  0  0  0  0  0
   47.5827   32.0836   45.1857 H   0  0  0  0  0  0  0  0  0  0  0  0
   48.2064   30.2754   46.7239 H   0  0  0  0  0  0  0  0  0  0  0  0
   44.1288   32.3706   49.6757 H   0  0  0  0  0  0  0  0  0  0  0  0
   45.0245   30.9591   50.2987 H   0  0  0  0  0  0  0  0  0  0  0  0
   43.7730   36.6348   45.1562 H   0  0  0  0  0  0  0  0  0  0  0  0
   44.8496   36.6709   42.9023 H   0  0  0  0  0  0  0  0  0  0  0  0
   46.4950   34.8651   42.3097 H   0  0  0  0  0  0  0  0  0  0  0  0
  1  6  1  0
  2  1  2  0
  2  3  1  0
  3  4  2  0
  4  5  1  0
  5  7  1  0
  6  5  2  0
  8 13  2  0
  9  8  1  0
 10  9  2  0
 10 11  1  0
 11 12  2  0
 12 13  1  0
 12  1  1  0
  2 14  1  0
  3 15  1  0
  7 16  1  0
  7 17  1  0
  8 18  1  0
  9 19  1  0
 10 20  1  0
M  ISO  5  14  14  15  14  18  14  19  14  20  14
M  END
>  <minimizedAffinity>  (1) 
-4.76391125

>  <minimizedRMSD>  (1) 
0.463677555

$$$$
