
     RDKit          3D

 33 36  0  0  0  0  0  0  0  0999 V2000
   44.5870   35.6300   44.6670 C   0  0  0  0  0  0  0  0  0  0  0  0
   45.3330   35.7070   43.4850 C   0  0  0  0  0  0  0  0  0  0  0  0
   46.3590   34.8070   43.2380 C   0  0  0  0  0  0  0  0  0  0  0  0
   46.5950   33.8680   44.1860 N   0  0  0  0  0  0  0  0  0  0  0  0
   45.8650   33.8070   45.3220 C   0  0  0  0  0  0  0  0  0  0  0  0
   44.8660   34.6740   45.5740 N   0  0  0  0  0  0  0  0  0  0  0  0
   46.1770   32.7600   46.3090 C   0  0  0  0  0  0  0  0  0  0  0  0
   47.0100   31.7140   45.9620 C   0  0  0  0  0  0  0  0  0  0  0  0
   47.3270   30.7190   46.8490 C   0  0  0  0  0  0  0  0  0  0  0  0
   46.8360   30.7270   48.0890 N   0  0  0  0  0  0  0  0  0  0  0  0
   46.0200   31.7560   48.4260 C   0  0  0  0  0  0  0  0  0  0  0  0
   45.6930   32.7510   47.5640 N   0  0  0  0  0  0  0  0  0  0  0  0
   45.3990   31.9400   49.6960 N   0  0  0  0  0  0  0  0  0  0  0  0
   47.1340   34.8440   42.0710 N   0  0  0  0  0  0  0  0  0  0  0  0
   48.2910   35.4970   41.9730 C   0  0  0  0  0  0  0  0  0  0  0  0
   48.7610   35.3210   40.7190 N   0  0  0  0  0  0  0  0  0  0  0  0
   47.8870   34.5550   40.0420 C   0  0  0  0  0  0  0  0  0  0  0  0
   47.8460   34.0580   38.7400 C   0  0  0  0  0  0  0  0  0  0  0  0
   46.7990   33.2870   38.3340 N   0  0  0  0  0  0  0  0  0  0  0  0
   45.8210   33.0210   39.2030 C   0  0  0  0  0  0  0  0  0  0  0  0
   45.8200   33.4750   40.4520 N   0  0  0  0  0  0  0  0  0  0  0  0
   46.8440   34.2490   40.9090 C   0  0  0  0  0  0  0  0  0  0  0  0
   48.9730   34.4300   37.9210 N   0  0  0  0  0  0  0  0  0  0  0  0
   43.7752   36.3482   44.8546 H   0  0  0  0  0  0  0  0  0  0  0  0
   45.1034   36.4883   42.7455 H   0  0  0  0  0  0  0  0  0  0  0  0
   47.4302   31.6790   44.9460 H   0  0  0  0  0  0  0  0  0  0  0  0
   47.9948   29.9034   46.5345 H   0  0  0  0  0  0  0  0  0  0  0  0
   44.7925   32.7563   49.8593 H   0  0  0  0  0  0  0  0  0  0  0  0
   45.5568   31.2566   50.4503 H   0  0  0  0  0  0  0  0  0  0  0  0
   48.7772   36.0766   42.7715 H   0  0  0  0  0  0  0  0  0  0  0  0
   44.9779   32.3979   38.8701 H   0  0  0  0  0  0  0  0  0  0  0  0
   49.0283   34.1082   36.9441 H   0  0  0  0  0  0  0  0  0  0  0  0
   49.7228   35.0175   38.3129 H   0  0  0  0  0  0  0  0  0  0  0  0
  1  6  2  0
  2  1  1  0
  3  2  2  0
  3  4  1  0
  4  5  2  0
  5  6  1  0
  5  7  1  0
  7 12  1  0
  8  7  2  0
  8  9  1  0
  9 10  2  0
 10 11  1  0
 11 13  1  0
 12 11  2  0
 14  3  1  0
 15 14  1  0
 16 15  2  0
 17 16  1  0
 17 22  2  0
 18 17  1  0
 19 18  2  0
 19 20  1  0
 20 21  2  0
 21 22  1  0
 22 14  1  0
 23 18  1  0
  1 24  1  0
  2 25  1  0
  8 26  1  0
  9 27  1  0
 13 28  1  0
 13 29  1  0
 15 30  1  0
 20 31  1  0
 23 32  1  0
 23 33  1  0
M  ISO  6  24  14  25  14  26  14  27  14  30  14  31  14
M  END
>  <minimizedAffinity>  (1) 
-7.26474047

>  <minimizedRMSD>  (1) 
0.68560195

$$$$
