
     RDKit          3D

 30 32  0  0  0  0  0  0  0  0999 V2000
   44.4930   35.6920   44.9640 C   0  0  0  0  0  0  0  0  0  0  0  0
   45.1290   35.7050   43.7140 C   0  0  0  0  0  0  0  0  0  0  0  0
   46.0840   34.7390   43.4350 C   0  0  0  0  0  0  0  0  0  0  0  0
   46.3620   33.8170   44.3890 N   0  0  0  0  0  0  0  0  0  0  0  0
   45.7340   33.8270   45.5880 C   0  0  0  0  0  0  0  0  0  0  0  0
   44.8080   34.7490   45.8820 N   0  0  0  0  0  0  0  0  0  0  0  0
   46.0750   32.8130   46.5710 C   0  0  0  0  0  0  0  0  0  0  0  0
   47.0310   31.8540   46.2940 C   0  0  0  0  0  0  0  0  0  0  0  0
   47.4140   30.8650   47.1570 C   0  0  0  0  0  0  0  0  0  0  0  0
   46.8420   30.8020   48.3500 N   0  0  0  0  0  0  0  0  0  0  0  0
   45.8940   31.7340   48.6530 C   0  0  0  0  0  0  0  0  0  0  0  0
   45.5090   32.7230   47.7960 N   0  0  0  0  0  0  0  0  0  0  0  0
   45.1740   31.8240   49.8820 N   0  0  0  0  0  0  0  0  0  0  0  0
   46.7880   34.6850   42.1640 C   0  0  0  0  0  0  0  0  0  0  0  0
   46.3400   33.9810   41.0710 C   0  0  0  0  0  0  0  0  0  0  0  0
   47.0660   33.9750   39.8850 C   0  0  0  0  0  0  0  0  0  0  0  0
   48.2440   34.6530   39.7380 C   0  0  0  0  0  0  0  0  0  0  0  0
   48.6960   35.3580   40.8280 C   0  0  0  0  0  0  0  0  0  0  0  0
   47.9740   35.3620   41.9990 C   0  0  0  0  0  0  0  0  0  0  0  0
   43.7340   36.4525   45.1994 H   0  0  0  0  0  0  0  0  0  0  0  0
   44.8740   36.4702   42.9660 H   0  0  0  0  0  0  0  0  0  0  0  0
   47.5187   31.8889   45.3086 H   0  0  0  0  0  0  0  0  0  0  0  0
   48.1834   30.1348   46.8657 H   0  0  0  0  0  0  0  0  0  0  0  0
   44.4741   32.5678   50.0156 H   0  0  0  0  0  0  0  0  0  0  0  0
   45.3543   31.1452   50.6354 H   0  0  0  0  0  0  0  0  0  0  0  0
   45.3978   33.4169   41.1355 H   0  0  0  0  0  0  0  0  0  0  0  0
   46.6768   33.4016   39.0307 H   0  0  0  0  0  0  0  0  0  0  0  0
   48.8041   34.6352   38.7914 H   0  0  0  0  0  0  0  0  0  0  0  0
   49.6387   35.9212   40.7637 H   0  0  0  0  0  0  0  0  0  0  0  0
   48.3666   35.9381   42.8499 H   0  0  0  0  0  0  0  0  0  0  0  0
  1  6  2  0
  2  1  1  0
  3  2  2  0
  3  4  1  0
  4  5  2  0
  5  6  1  0
  5  7  1  0
  7 12  1  0
  8  7  2  0
  8  9  1  0
  9 10  2  0
 10 11  1  0
 11 13  1  0
 12 11  2  0
 14  3  1  0
 15 14  2  0
 16 15  1  0
 17 16  2  0
 17 18  1  0
 18 19  2  0
 19 14  1  0
  1 20  1  0
  2 21  1  0
  8 22  1  0
  9 23  1  0
 13 24  1  0
 13 25  1  0
 15 26  1  0
 16 27  1  0
 17 28  1  0
 18 29  1  0
 19 30  1  0
M  ISO  8  20  14  21  14  22  14  23  14  26  14  27  14  28  14  29  14
M  ISO  1  30  14
M  END
>  <minimizedAffinity>  (1) 
-7.04252672

>  <minimizedRMSD>  (1) 
0.495302498

$$$$
