
     RDKit          3D

 33 35  0  0  0  0  0  0  0  0999 V2000
   44.5220   35.6860   44.9690 C   0  0  0  0  0  0  0  0  0  0  0  0
   45.0950   35.6420   43.6910 C   0  0  0  0  0  0  0  0  0  0  0  0
   46.0000   34.6360   43.3930 C   0  0  0  0  0  0  0  0  0  0  0  0
   46.2990   33.7290   44.3530 N   0  0  0  0  0  0  0  0  0  0  0  0
   45.7290   33.7980   45.5790 C   0  0  0  0  0  0  0  0  0  0  0  0
   44.8470   34.7650   45.8950 N   0  0  0  0  0  0  0  0  0  0  0  0
   46.0860   32.7970   46.5760 C   0  0  0  0  0  0  0  0  0  0  0  0
   47.0620   31.8490   46.3080 C   0  0  0  0  0  0  0  0  0  0  0  0
   47.4430   30.8810   47.2040 C   0  0  0  0  0  0  0  0  0  0  0  0
   46.8530   30.8380   48.3980 N   0  0  0  0  0  0  0  0  0  0  0  0
   45.8940   31.7590   48.6750 C   0  0  0  0  0  0  0  0  0  0  0  0
   45.5100   32.7200   47.7990 N   0  0  0  0  0  0  0  0  0  0  0  0
   45.1610   31.8560   49.9060 N   0  0  0  0  0  0  0  0  0  0  0  0
   47.9400   34.3600   39.6040 C   0  0  0  0  0  0  0  0  0  0  0  0
   46.7430   33.7030   39.8040 C   0  0  0  0  0  0  0  0  0  0  0  0
   46.1230   33.7990   41.0360 C   0  0  0  0  0  0  0  0  0  0  0  0
   46.6360   34.5220   42.0890 C   0  0  0  0  0  0  0  0  0  0  0  0
   47.8330   35.1600   41.8420 C   0  0  0  0  0  0  0  0  0  0  0  0
   48.5000   35.1020   40.6340 C   0  0  0  0  0  0  0  0  0  0  0  0
   48.7270   34.2390   38.0440 S   0  0  0  0  0  0  0  0  0  0  0  0
   49.2610   32.8720   37.7710 O   0  0  0  0  0  0  0  0  0  0  0  0
   47.7590   34.5830   36.9270 O   0  0  0  0  0  0  0  0  0  0  0  0
   43.8013   36.4791   45.2172 H   0  0  0  0  0  0  0  0  0  0  0  0
   44.8300   36.3957   42.9348 H   0  0  0  0  0  0  0  0  0  0  0  0
   47.5569   31.8739   45.3259 H   0  0  0  0  0  0  0  0  0  0  0  0
   48.2234   30.1520   46.9402 H   0  0  0  0  0  0  0  0  0  0  0  0
   44.4493   32.5910   50.0251 H   0  0  0  0  0  0  0  0  0  0  0  0
   45.3469   31.1906   50.6699 H   0  0  0  0  0  0  0  0  0  0  0  0
   46.2889   33.1117   38.9952 H   0  0  0  0  0  0  0  0  0  0  0  0
   45.1698   33.2699   41.1824 H   0  0  0  0  0  0  0  0  0  0  0  0
   48.2830   35.7496   42.6544 H   0  0  0  0  0  0  0  0  0  0  0  0
   49.4534   35.6319   40.4917 H   0  0  0  0  0  0  0  0  0  0  0  0
   49.7705   35.1258   38.0844 H   0  0  0  0  0  0  0  0  0  0  0  0
  1  6  2  0
  2  1  1  0
  3  2  2  0
  3  4  1  0
  4  5  2  0
  5  6  1  0
  5  7  1  0
  7 12  1  0
  8  7  2  0
  8  9  1  0
  9 10  2  0
 10 11  1  0
 11 13  1  0
 12 11  2  0
 14 15  2  0
 14 19  1  0
 15 16  1  0
 16 17  2  0
 17  3  1  0
 18 17  1  0
 19 18  2  0
 20 14  1  0
 21 20  2  0
 22 20  2  0
  1 23  1  0
  2 24  1  0
  8 25  1  0
  9 26  1  0
 13 27  1  0
 13 28  1  0
 15 29  1  0
 16 30  1  0
 18 31  1  0
 19 32  1  0
 20 33  1  0
M  ISO  8  23  14  24  14  25  14  26  14  29  14  30  14  31  14  32  14
M  ISO  1  33  11
M  END
>  <minimizedAffinity>  (1) 
-6.93329382

>  <minimizedRMSD>  (1) 
0.822697759

$$$$
