
     RDKit          3D

 29 31  0  0  0  0  0  0  0  0999 V2000
   44.4770   35.7060   44.9970 C   0  0  0  0  0  0  0  0  0  0  0  0
   45.0920   35.7230   43.7390 C   0  0  0  0  0  0  0  0  0  0  0  0
   46.0380   34.7560   43.4320 C   0  0  0  0  0  0  0  0  0  0  0  0
   46.3410   33.8230   44.3660 N   0  0  0  0  0  0  0  0  0  0  0  0
   45.7300   33.8320   45.5750 C   0  0  0  0  0  0  0  0  0  0  0  0
   44.8060   34.7600   45.8990 N   0  0  0  0  0  0  0  0  0  0  0  0
   46.0840   32.8050   46.5580 C   0  0  0  0  0  0  0  0  0  0  0  0
   47.0390   31.8560   46.2510 C   0  0  0  0  0  0  0  0  0  0  0  0
   47.4180   30.8660   47.1270 C   0  0  0  0  0  0  0  0  0  0  0  0
   46.8510   30.8000   48.3310 N   0  0  0  0  0  0  0  0  0  0  0  0
   45.9110   31.7310   48.6350 C   0  0  0  0  0  0  0  0  0  0  0  0
   45.5170   32.7260   47.7840 N   0  0  0  0  0  0  0  0  0  0  0  0
   45.1890   31.8280   49.8750 N   0  0  0  0  0  0  0  0  0  0  0  0
   46.7440   34.6710   42.1590 C   0  0  0  0  0  0  0  0  0  0  0  0
   47.9430   35.3110   41.9200 C   0  0  0  0  0  0  0  0  0  0  0  0
   48.6490   35.2610   40.7350 C   0  0  0  0  0  0  0  0  0  0  0  0
   48.1290   34.5160   39.6960 C   0  0  0  0  0  0  0  0  0  0  0  0
   46.9300   33.8800   39.9420 C   0  0  0  0  0  0  0  0  0  0  0  0
   46.2780   33.9580   41.1160 N   0  0  0  0  0  0  0  0  0  0  0  0
   43.7235   36.4666   45.2497 H   0  0  0  0  0  0  0  0  0  0  0  0
   44.8276   36.4954   43.0017 H   0  0  0  0  0  0  0  0  0  0  0  0
   47.5180   31.8936   45.2615 H   0  0  0  0  0  0  0  0  0  0  0  0
   48.1846   30.1330   46.8355 H   0  0  0  0  0  0  0  0  0  0  0  0
   44.4922   32.5747   50.0082 H   0  0  0  0  0  0  0  0  0  0  0  0
   45.3687   31.1507   50.6299 H   0  0  0  0  0  0  0  0  0  0  0  0
   48.3700   35.9085   42.7389 H   0  0  0  0  0  0  0  0  0  0  0  0
   49.6008   35.8006   40.6217 H   0  0  0  0  0  0  0  0  0  0  0  0
   48.6419   34.4341   38.7263 H   0  0  0  0  0  0  0  0  0  0  0  0
   46.4840   33.2780   39.1366 H   0  0  0  0  0  0  0  0  0  0  0  0
  1  6  2  0
  2  1  1  0
  3  2  2  0
  3  4  1  0
  4  5  2  0
  5  6  1  0
  5  7  1  0
  7 12  1  0
  8  7  2  0
  8  9  1  0
  9 10  2  0
 10 11  1  0
 11 13  1  0
 12 11  2  0
 14  3  1  0
 15 14  2  0
 16 15  1  0
 17 18  1  0
 17 16  2  0
 18 19  2  0
 19 14  1  0
  1 20  1  0
  2 21  1  0
  8 22  1  0
  9 23  1  0
 13 24  1  0
 13 25  1  0
 15 26  1  0
 16 27  1  0
 17 28  1  0
 18 29  1  0
M  ISO  8  20  14  21  14  22  14  23  14  26  14  27  14  28  14  29  14
M  END
>  <minimizedAffinity>  (1) 
-6.80864906

>  <minimizedRMSD>  (1) 
0.280672103

$$$$
