
     RDKit          3D

 33 35  0  0  0  0  0  0  0  0999 V2000
   44.4130   35.9630   44.9230 C   0  0  0  0  0  0  0  0  0  0  0  0
   44.9420   36.0460   43.6450 C   0  0  0  0  0  0  0  0  0  0  0  0
   45.8440   35.0690   43.2450 C   0  0  0  0  0  0  0  0  0  0  0  0
   46.1830   34.0730   44.1000 N   0  0  0  0  0  0  0  0  0  0  0  0
   45.6370   34.0300   45.3530 C   0  0  0  0  0  0  0  0  0  0  0  0
   44.7630   34.9600   45.7630 N   0  0  0  0  0  0  0  0  0  0  0  0
   46.0190   32.9490   46.2490 C   0  0  0  0  0  0  0  0  0  0  0  0
   46.8670   31.9470   45.8020 C   0  0  0  0  0  0  0  0  0  0  0  0
   47.2700   30.8950   46.5910 C   0  0  0  0  0  0  0  0  0  0  0  0
   46.8330   30.8230   47.8480 N   0  0  0  0  0  0  0  0  0  0  0  0
   46.0000   31.8080   48.2870 C   0  0  0  0  0  0  0  0  0  0  0  0
   45.5880   32.8570   47.5240 N   0  0  0  0  0  0  0  0  0  0  0  0
   45.4350   31.8950   49.5990 N   0  0  0  0  0  0  0  0  0  0  0  0
   46.4720   35.0570   41.9030 C   0  0  0  0  0  0  0  0  0  0  0  0
   47.9490   35.2530   41.9780 C   0  0  0  0  0  0  0  0  0  0  0  0
   48.4760   34.6350   40.7230 C   0  0  0  0  0  0  0  0  0  0  0  0
   47.3200   33.8910   40.0660 C   0  0  0  0  0  0  0  0  0  0  0  0
   46.3180   33.7220   41.2120 C   0  0  0  0  0  0  0  0  0  0  0  0
   43.6959   36.7254   45.2613 H   0  0  0  0  0  0  0  0  0  0  0  0
   44.6554   36.8629   42.9664 H   0  0  0  0  0  0  0  0  0  0  0  0
   47.2351   31.9959   44.7666 H   0  0  0  0  0  0  0  0  0  0  0  0
   47.9438   30.1235   46.1900 H   0  0  0  0  0  0  0  0  0  0  0  0
   44.8131   32.6796   49.8409 H   0  0  0  0  0  0  0  0  0  0  0  0
   45.6503   31.1730   50.3013 H   0  0  0  0  0  0  0  0  0  0  0  0
   45.9657   35.8682   41.3593 H   0  0  0  0  0  0  0  0  0  0  0  0
   48.1970   36.3239   42.0173 H   0  0  0  0  0  0  0  0  0  0  0  0
   48.3845   34.7998   42.8807 H   0  0  0  0  0  0  0  0  0  0  0  0
   48.8531   35.4170   40.0475 H   0  0  0  0  0  0  0  0  0  0  0  0
   49.3059   33.9481   40.9452 H   0  0  0  0  0  0  0  0  0  0  0  0
   46.8857   34.4817   39.2459 H   0  0  0  0  0  0  0  0  0  0  0  0
   47.6231   32.9356   39.6129 H   0  0  0  0  0  0  0  0  0  0  0  0
   45.2941   33.5724   40.8388 H   0  0  0  0  0  0  0  0  0  0  0  0
   46.4962   32.8472   41.8546 H   0  0  0  0  0  0  0  0  0  0  0  0
  1  6  2  0
  2  1  1  0
  3  2  2  0
  3  4  1  0
  4  5  2  0
  5  6  1  0
  5  7  1  0
  7 12  1  0
  8  7  2  0
  8  9  1  0
  9 10  2  0
 10 11  1  0
 11 13  1  0
 12 11  2  0
 14 15  1  0
 14  3  1  0
 16 15  1  0
 17 16  1  0
 17 18  1  0
 18 14  1  0
  1 19  1  0
  2 20  1  0
  8 21  1  0
  9 22  1  0
 13 23  1  0
 13 24  1  0
 14 25  1  0
 15 26  1  0
 15 27  1  0
 16 28  1  0
 16 29  1  0
 17 30  1  0
 17 31  1  0
 18 32  1  0
 18 33  1  0
M  ISO  8  19  14  20  14  21  14  22  14  25  13  26  13  27  13  28  13
M  ISO  5  29  13  30  13  31  13  32  13  33  13
M  END
>  <minimizedAffinity>  (1) 
-6.32095098

>  <minimizedRMSD>  (1) 
0.536717176

$$$$
