
     RDKit          3D

 26 28  0  0  0  0  0  0  0  0999 V2000
   44.5280   35.6780   44.8930 C   0  0  0  0  0  0  0  0  0  0  0  0
   45.1790   35.7080   43.6500 C   0  0  0  0  0  0  0  0  0  0  0  0
   46.1510   34.7470   43.3850 C   0  0  0  0  0  0  0  0  0  0  0  0
   46.4330   33.8170   44.3350 N   0  0  0  0  0  0  0  0  0  0  0  0
   45.7730   33.8240   45.5330 C   0  0  0  0  0  0  0  0  0  0  0  0
   44.8370   34.7380   45.8080 N   0  0  0  0  0  0  0  0  0  0  0  0
   46.1080   32.8070   46.5260 C   0  0  0  0  0  0  0  0  0  0  0  0
   47.0480   31.8370   46.2370 C   0  0  0  0  0  0  0  0  0  0  0  0
   47.4080   30.8520   47.1240 C   0  0  0  0  0  0  0  0  0  0  0  0
   46.8270   30.8180   48.3350 N   0  0  0  0  0  0  0  0  0  0  0  0
   45.9050   31.7700   48.6220 C   0  0  0  0  0  0  0  0  0  0  0  0
   45.5540   32.7410   47.7360 N   0  0  0  0  0  0  0  0  0  0  0  0
   45.2030   31.8700   49.8570 N   0  0  0  0  0  0  0  0  0  0  0  0
   46.8520   34.7170   42.1480 N   0  0  0  0  0  0  0  0  0  0  0  0
   46.5280   34.1470   40.9780 C   0  0  0  0  0  0  0  0  0  0  0  0
   47.5020   34.3710   40.0550 N   0  0  0  0  0  0  0  0  0  0  0  0
   48.4550   35.1040   40.6890 C   0  0  0  0  0  0  0  0  0  0  0  0
   48.0240   35.2910   41.9490 N   0  0  0  0  0  0  0  0  0  0  0  0
   43.7579   36.4292   45.1227 H   0  0  0  0  0  0  0  0  0  0  0  0
   44.9269   36.4738   42.9017 H   0  0  0  0  0  0  0  0  0  0  0  0
   47.5315   31.8542   45.2491 H   0  0  0  0  0  0  0  0  0  0  0  0
   48.1621   30.1008   46.8465 H   0  0  0  0  0  0  0  0  0  0  0  0
   44.5157   32.6238   49.9991 H   0  0  0  0  0  0  0  0  0  0  0  0
   45.3826   31.1885   50.6081 H   0  0  0  0  0  0  0  0  0  0  0  0
   45.6050   33.5786   40.7911 H   0  0  0  0  0  0  0  0  0  0  0  0
   49.3963   35.4728   40.2555 H   0  0  0  0  0  0  0  0  0  0  0  0
  1  6  2  0
  2  1  1  0
  3  2  2  0
  3  4  1  0
  4  5  2  0
  5  6  1  0
  5  7  1  0
  7 12  1  0
  8  7  2  0
  8  9  1  0
  9 10  2  0
 10 11  1  0
 11 13  1  0
 12 11  2  0
 14  3  1  0
 15 14  1  0
 16 17  1  0
 16 15  2  0
 17 18  2  0
 18 14  1  0
  1 19  1  0
  2 20  1  0
  8 21  1  0
  9 22  1  0
 13 23  1  0
 13 24  1  0
 15 25  1  0
 17 26  1  0
M  ISO  6  19  14  20  14  21  14  22  14  25  14  26  14
M  END
>  <minimizedAffinity>  (1) 
-6.13827991

>  <minimizedRMSD>  (1) 
0.319874525

$$$$
