
     RDKit          3D

 32 33  0  0  0  0  0  0  0  0999 V2000
   44.7050   35.4740   44.8470 C   0  0  0  0  0  0  0  0  0  0  0  0
   45.3290   35.3830   43.6140 C   0  0  0  0  0  0  0  0  0  0  0  0
   46.2540   34.3720   43.3930 C   0  0  0  0  0  0  0  0  0  0  0  0
   46.5290   33.4930   44.3890 N   0  0  0  0  0  0  0  0  0  0  0  0
   45.9030   33.6060   45.5880 C   0  0  0  0  0  0  0  0  0  0  0  0
   44.9980   34.5820   45.8270 N   0  0  0  0  0  0  0  0  0  0  0  0
   46.2080   32.6560   46.6460 C   0  0  0  0  0  0  0  0  0  0  0  0
   47.1790   31.6740   46.4430 C   0  0  0  0  0  0  0  0  0  0  0  0
   47.5200   30.7430   47.3950 C   0  0  0  0  0  0  0  0  0  0  0  0
   46.9130   30.7550   48.5750 N   0  0  0  0  0  0  0  0  0  0  0  0
   45.9670   31.7060   48.7850 C   0  0  0  0  0  0  0  0  0  0  0  0
   45.6190   32.6340   47.8490 N   0  0  0  0  0  0  0  0  0  0  0  0
   45.2070   31.8840   49.9790 N   0  0  0  0  0  0  0  0  0  0  0  0
   46.9240   34.2650   42.0870 C   0  0  0  0  0  0  0  0  0  0  0  0
   45.9540   34.3060   40.9320 C   0  0  0  0  0  0  0  0  0  0  0  0
   47.9400   35.3410   41.9090 C   0  0  0  0  0  0  0  0  0  0  0  0
   47.6150   32.9100   42.0200 C   0  0  0  0  0  0  0  0  0  0  0  0
   43.9701   36.2712   45.0325 H   0  0  0  0  0  0  0  0  0  0  0  0
   45.0939   36.1047   42.8178 H   0  0  0  0  0  0  0  0  0  0  0  0
   47.6970   31.6437   45.4731 H   0  0  0  0  0  0  0  0  0  0  0  0
   48.2932   29.9908   47.1795 H   0  0  0  0  0  0  0  0  0  0  0  0
   44.5097   32.6398   50.0378 H   0  0  0  0  0  0  0  0  0  0  0  0
   45.3555   31.2567   50.7823 H   0  0  0  0  0  0  0  0  0  0  0  0
   44.9251   34.3495   41.3186 H   0  0  0  0  0  0  0  0  0  0  0  0
   46.1528   35.1965   40.3177 H   0  0  0  0  0  0  0  0  0  0  0  0
   46.0769   33.4019   40.3177 H   0  0  0  0  0  0  0  0  0  0  0  0
   48.2750   35.6957   42.8949 H   0  0  0  0  0  0  0  0  0  0  0  0
   48.8004   34.9441   41.3504 H   0  0  0  0  0  0  0  0  0  0  0  0
   47.4944   36.1773   41.3504 H   0  0  0  0  0  0  0  0  0  0  0  0
   47.8021   32.5430   43.0400 H   0  0  0  0  0  0  0  0  0  0  0  0
   46.9709   32.1960   41.4858 H   0  0  0  0  0  0  0  0  0  0  0  0
   48.5712   33.0120   41.4858 H   0  0  0  0  0  0  0  0  0  0  0  0
  1  6  2  0
  2  1  1  0
  3  2  2  0
  3  4  1  0
  4  5  2  0
  5  6  1  0
  5  7  1  0
  7 12  1  0
  8  7  2  0
  8  9  1  0
  9 10  2  0
 10 11  1  0
 11 13  1  0
 12 11  2  0
 14  3  1  0
 15 14  1  0
 16 14  1  0
 17 14  1  0
  1 18  1  0
  2 19  1  0
  8 20  1  0
  9 21  1  0
 13 22  1  0
 13 23  1  0
 15 24  1  0
 15 25  1  0
 15 26  1  0
 16 27  1  0
 16 28  1  0
 16 29  1  0
 17 30  1  0
 17 31  1  0
 17 32  1  0
M  ISO  8  18  14  19  14  20  14  21  14  24   8  25   8  26   8  27   8
M  ISO  5  28   8  29   8  30   8  31   8  32   8
M  END
>  <minimizedAffinity>  (1) 
-5.72556734

>  <minimizedRMSD>  (1) 
0.589169025

$$$$
