
     RDKit          3D

 26 27  0  0  0  0  0  0  0  0999 V2000
   46.0820   32.8330   46.3580 C   0  0  0  0  0  0  0  0  0  0  0  0
   46.9670   31.8320   45.9860 C   0  0  0  0  0  0  0  0  0  0  0  0
   47.3550   30.8130   46.8280 C   0  0  0  0  0  0  0  0  0  0  0  0
   46.8650   30.7710   48.0670 N   0  0  0  0  0  0  0  0  0  0  0  0
   45.9980   31.7500   48.4340 C   0  0  0  0  0  0  0  0  0  0  0  0
   45.6070   32.7660   47.6040 N   0  0  0  0  0  0  0  0  0  0  0  0
   45.3620   31.8840   49.7160 N   0  0  0  0  0  0  0  0  0  0  0  0
   44.5260   35.7850   44.8720 C   0  0  0  0  0  0  0  0  0  0  0  0
   45.0730   35.8070   43.6000 C   0  0  0  0  0  0  0  0  0  0  0  0
   45.9760   34.8130   43.2440 C   0  0  0  0  0  0  0  0  0  0  0  0
   46.3000   33.8490   44.1470 N   0  0  0  0  0  0  0  0  0  0  0  0
   45.7350   33.8710   45.3830 C   0  0  0  0  0  0  0  0  0  0  0  0
   44.8590   34.8200   45.7520 N   0  0  0  0  0  0  0  0  0  0  0  0
   46.6180   34.7440   41.9150 C   0  0  0  0  0  0  0  0  0  0  0  0
   48.0430   35.2690   42.0020 C   0  0  0  0  0  0  0  0  0  0  0  0
   47.3801   31.8528   44.9667 H   0  0  0  0  0  0  0  0  0  0  0  0
   48.0606   30.0433   46.4821 H   0  0  0  0  0  0  0  0  0  0  0  0
   44.7174   32.6679   49.8917 H   0  0  0  0  0  0  0  0  0  0  0  0
   45.5508   31.1961   50.4590 H   0  0  0  0  0  0  0  0  0  0  0  0
   43.8100   36.5657   45.1682 H   0  0  0  0  0  0  0  0  0  0  0  0
   44.7978   36.5964   42.8851 H   0  0  0  0  0  0  0  0  0  0  0  0
   46.0466   35.3558   41.2014 H   0  0  0  0  0  0  0  0  0  0  0  0
   46.6369   33.6980   41.5752 H   0  0  0  0  0  0  0  0  0  0  0  0
   48.3308   35.3750   43.0584 H   0  0  0  0  0  0  0  0  0  0  0  0
   48.7248   34.5630   41.5053 H   0  0  0  0  0  0  0  0  0  0  0  0
   48.1038   36.2486   41.5053 H   0  0  0  0  0  0  0  0  0  0  0  0
  1  6  1  0
  2  1  2  0
  2  3  1  0
  3  4  2  0
  4  5  1  0
  5  7  1  0
  6  5  2  0
  8 13  2  0
  9  8  1  0
 10  9  2  0
 10 11  1  0
 11 12  2  0
 12 13  1  0
 12  1  1  0
 14 15  1  0
 14 10  1  0
  2 16  1  0
  3 17  1  0
  7 18  1  0
  7 19  1  0
  8 20  1  0
  9 21  1  0
 14 22  1  0
 14 23  1  0
 15 24  1  0
 15 25  1  0
 15 26  1  0
M  ISO  8  16  14  17  14  20  14  21  14  22   8  23   8  24   8  25   8
M  ISO  1  26   8
M  END
>  <minimizedAffinity>  (1) 
-5.43396282

>  <minimizedRMSD>  (1) 
0.430002958

$$$$
