
     RDKit          3D

 22 23  0  0  0  0  0  0  0  0999 V2000
   46.0880   32.8320   46.4520 C   0  0  0  0  0  0  0  0  0  0  0  0
   47.0030   31.8550   46.1190 C   0  0  0  0  0  0  0  0  0  0  0  0
   47.3800   30.8490   46.9770 C   0  0  0  0  0  0  0  0  0  0  0  0
   46.8440   30.7970   48.1990 N   0  0  0  0  0  0  0  0  0  0  0  0
   45.9400   31.7580   48.5330 C   0  0  0  0  0  0  0  0  0  0  0  0
   45.5670   32.7510   47.6890 N   0  0  0  0  0  0  0  0  0  0  0  0
   45.2740   31.8510   49.7900 N   0  0  0  0  0  0  0  0  0  0  0  0
   44.5020   35.7480   44.9160 C   0  0  0  0  0  0  0  0  0  0  0  0
   45.1010   35.7940   43.6700 C   0  0  0  0  0  0  0  0  0  0  0  0
   46.0470   34.8270   43.3590 C   0  0  0  0  0  0  0  0  0  0  0  0
   46.3480   33.8760   44.2810 N   0  0  0  0  0  0  0  0  0  0  0  0
   45.7360   33.8690   45.4890 C   0  0  0  0  0  0  0  0  0  0  0  0
   44.8170   34.7950   45.8150 N   0  0  0  0  0  0  0  0  0  0  0  0
   46.6870   34.8470   42.0750 C   0  0  0  0  0  0  0  0  0  0  0  0
   47.8080   35.3860   41.8930 O   0  0  0  0  0  0  0  0  0  0  0  0
   47.4540   31.8821   45.1161 H   0  0  0  0  0  0  0  0  0  0  0  0
   48.1155   30.0949   46.6602 H   0  0  0  0  0  0  0  0  0  0  0  0
   44.6018   32.6123   49.9616 H   0  0  0  0  0  0  0  0  0  0  0  0
   45.4650   31.1569   50.5266 H   0  0  0  0  0  0  0  0  0  0  0  0
   43.7508   36.5073   45.1791 H   0  0  0  0  0  0  0  0  0  0  0  0
   44.8346   36.5766   42.9444 H   0  0  0  0  0  0  0  0  0  0  0  0
   46.1796   34.3747   41.2209 H   0  0  0  0  0  0  0  0  0  0  0  0
  1  6  1  0
  2  1  2  0
  2  3  1  0
  3  4  2  0
  4  5  1  0
  5  7  1  0
  6  5  2  0
  8 13  2  0
  9  8  1  0
 10  9  2  0
 10 11  1  0
 11 12  2  0
 12 13  1  0
 12  1  1  0
 14 10  1  0
 15 14  2  0
  2 16  1  0
  3 17  1  0
  7 18  1  0
  7 19  1  0
  8 20  1  0
  9 21  1  0
 14 22  1  0
M  ISO  5  16  14  17  14  20  14  21  14  22   6
M  END
>  <minimizedAffinity>  (1) 
-5.27943134

>  <minimizedRMSD>  (1) 
0.267698705

$$$$
