
     RDKit          3D

 21 22  0  0  0  0  0  0  0  0999 V2000
   46.0350   32.8160   46.4900 C   0  0  0  0  0  0  0  0  0  0  0  0
   47.1060   31.9540   46.2760 C   0  0  0  0  0  0  0  0  0  0  0  0
   47.4520   30.9690   47.1670 C   0  0  0  0  0  0  0  0  0  0  0  0
   46.7560   30.8060   48.2860 N   0  0  0  0  0  0  0  0  0  0  0  0
   45.7000   31.6560   48.4970 C   0  0  0  0  0  0  0  0  0  0  0  0
   45.3320   32.6440   47.6300 N   0  0  0  0  0  0  0  0  0  0  0  0
   44.8280   31.6470   49.6350 N   0  0  0  0  0  0  0  0  0  0  0  0
   44.5280   35.7460   44.8740 C   0  0  0  0  0  0  0  0  0  0  0  0
   45.1710   35.7370   43.6340 C   0  0  0  0  0  0  0  0  0  0  0  0
   46.1050   34.7490   43.3470 C   0  0  0  0  0  0  0  0  0  0  0  0
   46.3710   33.8110   44.2890 N   0  0  0  0  0  0  0  0  0  0  0  0
   45.7310   33.8390   45.4910 C   0  0  0  0  0  0  0  0  0  0  0  0
   44.8200   34.7930   45.7850 N   0  0  0  0  0  0  0  0  0  0  0  0
   46.9180   34.7560   41.7540 S   0  0  0  0  0  0  0  0  0  0  0  0
   47.6989   32.0664   45.3563 H   0  0  0  0  0  0  0  0  0  0  0  0
   48.3085   30.3126   46.9534 H   0  0  0  0  0  0  0  0  0  0  0  0
   44.0599   32.3301   49.7006 H   0  0  0  0  0  0  0  0  0  0  0  0
   44.9697   30.9575   50.3869 H   0  0  0  0  0  0  0  0  0  0  0  0
   43.7876   36.5254   45.1072 H   0  0  0  0  0  0  0  0  0  0  0  0
   44.9386   36.5100   42.8867 H   0  0  0  0  0  0  0  0  0  0  0  0
   48.2760   34.7677   41.9344 H   0  0  0  0  0  0  0  0  0  0  0  0
  1  6  1  0
  2  1  2  0
  2  3  1  0
  3  4  2  0
  4  5  1  0
  5  7  1  0
  6  5  2  0
  8 13  2  0
  9  8  1  0
 10  9  2  0
 10 11  1  0
 11 12  2  0
 12 13  1  0
 12  1  1  0
 14 10  1  0
  2 15  1  0
  3 16  1  0
  7 17  1  0
  7 18  1  0
  8 19  1  0
  9 20  1  0
 14 21  1  0
M  ISO  5  15  14  16  14  19  14  20  14  21  11
M  END
>  <minimizedAffinity>  (1) 
-5.03169823

>  <minimizedRMSD>  (1) 
0.145889565

$$$$
