
     RDKit          3D

 33 36  0  0  0  0  0  0  0  0999 V2000
   44.4830   35.7790   44.9050 C   0  0  0  0  0  0  0  0  0  0  0  0
   44.5620   35.4590   43.5590 C   0  0  0  0  0  0  0  0  0  0  0  0
   45.1140   34.2390   43.1820 C   0  0  0  0  0  0  0  0  0  0  0  0
   45.5510   33.4150   44.1500 N   0  0  0  0  0  0  0  0  0  0  0  0
   45.4700   33.7380   45.4630 C   0  0  0  0  0  0  0  0  0  0  0  0
   44.9390   34.9090   45.8280 N   0  0  0  0  0  0  0  0  0  0  0  0
   45.9650   32.7920   46.4520 C   0  0  0  0  0  0  0  0  0  0  0  0
   46.9820   31.9130   46.1520 C   0  0  0  0  0  0  0  0  0  0  0  0
   47.4800   31.0060   47.0520 C   0  0  0  0  0  0  0  0  0  0  0  0
   46.9750   30.9490   48.2830 N   0  0  0  0  0  0  0  0  0  0  0  0
   45.9700   31.8150   48.5880 C   0  0  0  0  0  0  0  0  0  0  0  0
   45.4570   32.7260   47.7140 N   0  0  0  0  0  0  0  0  0  0  0  0
   45.3010   31.9090   49.8510 N   0  0  0  0  0  0  0  0  0  0  0  0
   45.2120   33.8660   41.7400 C   0  0  0  0  0  0  0  0  0  0  0  0
   44.0650   33.6160   40.9910 C   0  0  0  0  0  0  0  0  0  0  0  0
   44.7950   33.2150   39.3210 S   0  0  0  0  0  0  0  0  0  0  0  0
   46.5450   33.4730   39.9870 C   0  0  0  0  0  0  0  0  0  0  0  0
   46.3680   33.7540   41.0930 N   0  0  0  0  0  0  0  0  0  0  0  0
   47.7220   33.2980   39.0980 C   0  0  0  0  0  0  0  0  0  0  0  0
   47.5760   33.4950   37.6280 C   0  0  0  0  0  0  0  0  0  0  0  0
   48.3180   34.4970   38.4250 C   0  0  0  0  0  0  0  0  0  0  0  0
   44.0495   36.7399   45.2192 H   0  0  0  0  0  0  0  0  0  0  0  0
   44.1925   36.1615   42.7975 H   0  0  0  0  0  0  0  0  0  0  0  0
   47.4158   31.9398   45.1415 H   0  0  0  0  0  0  0  0  0  0  0  0
   48.2943   30.3274   46.7580 H   0  0  0  0  0  0  0  0  0  0  0  0
   44.5489   32.5998   49.9853 H   0  0  0  0  0  0  0  0  0  0  0  0
   45.5720   31.2858   50.6250 H   0  0  0  0  0  0  0  0  0  0  0  0
   43.0100   33.6467   41.3010 H   0  0  0  0  0  0  0  0  0  0  0  0
   48.1009   32.4904   39.7417 H   0  0  0  0  0  0  0  0  0  0  0  0
   46.5936   33.7501   37.2038 H   0  0  0  0  0  0  0  0  0  0  0  0
   47.8051   32.8889   36.7391 H   0  0  0  0  0  0  0  0  0  0  0  0
   49.4097   34.5833   38.3211 H   0  0  0  0  0  0  0  0  0  0  0  0
   48.2454   35.5852   38.5681 H   0  0  0  0  0  0  0  0  0  0  0  0
  1  6  2  0
  2  1  1  0
  3  2  2  0
  3  4  1  0
  4  5  2  0
  5  6  1  0
  5  7  1  0
  7 12  1  0
  8  7  2  0
  8  9  1  0
  9 10  2  0
 10 11  1  0
 11 13  1  0
 12 11  2  0
 14  3  1  0
 15 14  2  0
 16 17  1  0
 16 15  1  0
 17 18  2  0
 18 14  1  0
 19 17  1  0
 20 21  1  0
 20 19  1  0
 21 19  1  0
  1 22  1  0
  2 23  1  0
  8 24  1  0
  9 25  1  0
 13 26  1  0
 13 27  1  0
 15 28  1  0
 19 29  1  0
 20 30  1  0
 20 31  1  0
 21 32  1  0
 21 33  1  0
M  ISO  8  22  14  23  14  24  14  25  14  28  14  29  13  30  13  31  13
M  ISO  2  32  13  33  13
M  END
>  <minimizedAffinity>  (1) 
-5.78676081

>  <minimizedRMSD>  (1) 
2.24227524

$$$$
