
     RDKit          3D

 35 37  0  0  0  0  0  0  0  0999 V2000
   44.4460   35.7120   44.9980 C   0  0  0  0  0  0  0  0  0  0  0  0
   44.6110   35.4210   43.6610 C   0  0  0  0  0  0  0  0  0  0  0  0
   45.2420   34.2250   43.2890 C   0  0  0  0  0  0  0  0  0  0  0  0
   45.6640   33.4070   44.2690 N   0  0  0  0  0  0  0  0  0  0  0  0
   45.4970   33.7030   45.5770 C   0  0  0  0  0  0  0  0  0  0  0  0
   44.8920   34.8500   45.9340 N   0  0  0  0  0  0  0  0  0  0  0  0
   45.9720   32.7800   46.5900 C   0  0  0  0  0  0  0  0  0  0  0  0
   47.0290   31.9280   46.3190 C   0  0  0  0  0  0  0  0  0  0  0  0
   47.5170   31.0350   47.2330 C   0  0  0  0  0  0  0  0  0  0  0  0
   46.9790   30.9570   48.4380 N   0  0  0  0  0  0  0  0  0  0  0  0
   45.9390   31.7920   48.7130 C   0  0  0  0  0  0  0  0  0  0  0  0
   45.4310   32.6930   47.8190 N   0  0  0  0  0  0  0  0  0  0  0  0
   45.2110   31.8660   49.9620 N   0  0  0  0  0  0  0  0  0  0  0  0
   45.4290   33.8870   41.8580 C   0  0  0  0  0  0  0  0  0  0  0  0
   44.3910   33.3550   41.1030 C   0  0  0  0  0  0  0  0  0  0  0  0
   45.1720   33.1380   39.4420 S   0  0  0  0  0  0  0  0  0  0  0  0
   46.8140   33.8280   40.0920 C   0  0  0  0  0  0  0  0  0  0  0  0
   46.5770   34.0640   41.2120 N   0  0  0  0  0  0  0  0  0  0  0  0
   48.0440   33.9710   39.2270 C   0  0  0  0  0  0  0  0  0  0  0  0
   47.6540   33.9740   37.7770 C   0  0  0  0  0  0  0  0  0  0  0  0
   48.7890   35.2290   39.6210 C   0  0  0  0  0  0  0  0  0  0  0  0
   43.9510   36.6464   45.3012 H   0  0  0  0  0  0  0  0  0  0  0  0
   44.2509   36.1207   42.8924 H   0  0  0  0  0  0  0  0  0  0  0  0
   47.4972   31.9711   45.3245 H   0  0  0  0  0  0  0  0  0  0  0  0
   48.3592   30.3802   46.9647 H   0  0  0  0  0  0  0  0  0  0  0  0
   44.4361   32.5362   50.0675 H   0  0  0  0  0  0  0  0  0  0  0  0
   45.4680   31.2484   50.7452 H   0  0  0  0  0  0  0  0  0  0  0  0
   43.3625   33.1215   41.4154 H   0  0  0  0  0  0  0  0  0  0  0  0
   48.7184   33.1157   39.3809 H   0  0  0  0  0  0  0  0  0  0  0  0
   46.5573   33.9824   37.6923 H   0  0  0  0  0  0  0  0  0  0  0  0
   48.0664   34.8690   37.2882 H   0  0  0  0  0  0  0  0  0  0  0  0
   48.0526   33.0728   37.2882 H   0  0  0  0  0  0  0  0  0  0  0  0
   48.8319   35.3014   40.7178 H   0  0  0  0  0  0  0  0  0  0  0  0
   49.8110   35.1921   39.2157 H   0  0  0  0  0  0  0  0  0  0  0  0
   48.2654   36.1074   39.2157 H   0  0  0  0  0  0  0  0  0  0  0  0
  1  6  2  0
  2  1  1  0
  3  2  2  0
  3  4  1  0
  4  5  2  0
  5  6  1  0
  5  7  1  0
  7 12  1  0
  8  7  2  0
  8  9  1  0
  9 10  2  0
 10 11  1  0
 11 13  1  0
 12 11  2  0
 14  3  1  0
 15 14  2  0
 16 17  1  0
 16 15  1  0
 17 18  2  0
 18 14  1  0
 19 21  1  0
 19 17  1  0
 20 19  1  0
  1 22  1  0
  2 23  1  0
  8 24  1  0
  9 25  1  0
 13 26  1  0
 13 27  1  0
 15 28  1  0
 19 29  1  0
 20 30  1  0
 20 31  1  0
 20 32  1  0
 21 33  1  0
 21 34  1  0
 21 35  1  0
M  ISO  8  22  14  23  14  24  14  25  14  28  14  29   8  30   8  31   8
M  ISO  4  32   8  33   8  34   8  35   8
M  END
>  <minimizedAffinity>  (1) 
-5.77316618

>  <minimizedRMSD>  (1) 
1.79832232

$$$$
