
     RDKit          3D

 46 50  0  0  0  0  0  0  0  0999 V2000
   45.5760   33.9550   41.8600 C   0  0  0  0  0  0  0  0  0  0  0  0
   44.6220   33.2990   41.0960 C   0  0  0  0  0  0  0  0  0  0  0  0
   45.4540   33.1770   39.4520 S   0  0  0  0  0  0  0  0  0  0  0  0
   46.9980   34.0670   40.1160 C   0  0  0  0  0  0  0  0  0  0  0  0
   46.6930   34.2620   41.2180 N   0  0  0  0  0  0  0  0  0  0  0  0
   44.4570   35.7170   44.9980 C   0  0  0  0  0  0  0  0  0  0  0  0
   44.6700   35.4440   43.6530 C   0  0  0  0  0  0  0  0  0  0  0  0
   45.3270   34.2810   43.2980 C   0  0  0  0  0  0  0  0  0  0  0  0
   45.7370   33.4530   44.2800 N   0  0  0  0  0  0  0  0  0  0  0  0
   45.5190   33.7370   45.5880 C   0  0  0  0  0  0  0  0  0  0  0  0
   44.8930   34.8460   45.9270 N   0  0  0  0  0  0  0  0  0  0  0  0
   45.9940   32.7820   46.5880 C   0  0  0  0  0  0  0  0  0  0  0  0
   47.0300   31.9110   46.3230 C   0  0  0  0  0  0  0  0  0  0  0  0
   47.5080   30.9990   47.2250 C   0  0  0  0  0  0  0  0  0  0  0  0
   46.9470   30.9360   48.4390 N   0  0  0  0  0  0  0  0  0  0  0  0
   45.9290   31.7840   48.7130 C   0  0  0  0  0  0  0  0  0  0  0  0
   45.4480   32.6970   47.8170 N   0  0  0  0  0  0  0  0  0  0  0  0
   45.2110   31.8590   49.9490 N   0  0  0  0  0  0  0  0  0  0  0  0
   48.2060   34.3740   39.3140 C   0  0  0  0  0  0  0  0  0  0  0  0
   47.9570   33.7890   37.9200 C   0  0  0  0  0  0  0  0  0  0  0  0
   48.9350   32.6970   37.7010 C   0  0  0  0  0  0  0  0  0  0  0  0
   49.5500   32.1220   38.7480 N   0  0  0  0  0  0  0  0  0  0  0  0
   50.4330   31.1410   38.4850 C   0  0  0  0  0  0  0  0  0  0  0  0
   50.7290   30.7130   37.2330 N   0  0  0  0  0  0  0  0  0  0  0  0
   50.1200   31.2830   36.1830 C   0  0  0  0  0  0  0  0  0  0  0  0
   50.4440   30.8190   34.9090 C   0  0  0  0  0  0  0  0  0  0  0  0
   49.8030   31.4190   33.8480 C   0  0  0  0  0  0  0  0  0  0  0  0
   48.8750   32.4410   34.0150 C   0  0  0  0  0  0  0  0  0  0  0  0
   48.6070   32.8450   35.3030 C   0  0  0  0  0  0  0  0  0  0  0  0
   49.2110   32.2880   36.4100 C   0  0  0  0  0  0  0  0  0  0  0  0
   43.6248   32.9426   41.3934 H   0  0  0  0  0  0  0  0  0  0  0  0
   43.9364   36.6372   45.3015 H   0  0  0  0  0  0  0  0  0  0  0  0
   44.3203   36.1444   42.8802 H   0  0  0  0  0  0  0  0  0  0  0  0
   47.4995   31.9515   45.3290 H   0  0  0  0  0  0  0  0  0  0  0  0
   48.3386   30.3295   46.9570 H   0  0  0  0  0  0  0  0  0  0  0  0
   44.4479   32.5417   50.0607 H   0  0  0  0  0  0  0  0  0  0  0  0
   45.4575   31.2303   50.7267 H   0  0  0  0  0  0  0  0  0  0  0  0
   48.3539   35.4621   39.2495 H   0  0  0  0  0  0  0  0  0  0  0  0
   49.1095   33.9451   39.7720 H   0  0  0  0  0  0  0  0  0  0  0  0
   46.9333   33.3912   37.8594 H   0  0  0  0  0  0  0  0  0  0  0  0
   48.0747   34.5676   37.1519 H   0  0  0  0  0  0  0  0  0  0  0  0
   50.9428   30.6598   39.3327 H   0  0  0  0  0  0  0  0  0  0  0  0
   51.1765   30.0123   34.7584 H   0  0  0  0  0  0  0  0  0  0  0  0
   50.0342   31.0764   32.8286 H   0  0  0  0  0  0  0  0  0  0  0  0
   48.3756   32.9074   33.1530 H   0  0  0  0  0  0  0  0  0  0  0  0
   47.8751   33.6517   35.4567 H   0  0  0  0  0  0  0  0  0  0  0  0
  1  8  1  0
  2  1  2  0
  3  4  1  0
  3  2  1  0
  4  5  2  0
  5  1  1  0
  6 11  2  0
  7  6  1  0
  8  7  2  0
  8  9  1  0
  9 10  2  0
 10 11  1  0
 10 12  1  0
 12 17  1  0
 13 12  2  0
 13 14  1  0
 14 15  2  0
 15 16  1  0
 16 18  1  0
 17 16  2  0
 19  4  1  0
 20 19  1  0
 21 20  1  0
 21 22  2  0
 23 22  1  0
 24 23  2  0
 25 30  2  0
 25 24  1  0
 26 25  1  0
 27 28  1  0
 27 26  2  0
 28 29  2  0
 29 30  1  0
 30 21  1  0
  2 31  1  0
  6 32  1  0
  7 33  1  0
 13 34  1  0
 14 35  1  0
 18 36  1  0
 18 37  1  0
 19 38  1  0
 19 39  1  0
 20 40  1  0
 20 41  1  0
 23 42  1  0
 26 43  1  0
 27 44  1  0
 28 45  1  0
 29 46  1  0
M  ISO  8  31  14  32  14  33  14  34  14  35  14  38   8  39   8  40   8
M  ISO  6  41   8  42  14  43  14  44  14  45  14  46  14
M  END
>  <minimizedAffinity>  (1) 
-6.80702686

>  <minimizedRMSD>  (1) 
1.08534276

$$$$
