
     RDKit          3D

 44 47  0  0  0  0  0  0  0  0999 V2000
   44.4600   35.7570   45.0220 C   0  0  0  0  0  0  0  0  0  0  0  0
   44.6090   35.4760   43.6670 C   0  0  0  0  0  0  0  0  0  0  0  0
   45.2160   34.2910   43.2890 C   0  0  0  0  0  0  0  0  0  0  0  0
   45.6380   33.4590   44.2710 N   0  0  0  0  0  0  0  0  0  0  0  0
   45.4880   33.7430   45.5820 C   0  0  0  0  0  0  0  0  0  0  0  0
   44.9080   34.8750   45.9420 N   0  0  0  0  0  0  0  0  0  0  0  0
   45.9810   32.7780   46.5640 C   0  0  0  0  0  0  0  0  0  0  0  0
   47.0170   31.9160   46.2790 C   0  0  0  0  0  0  0  0  0  0  0  0
   47.5050   31.0050   47.1730 C   0  0  0  0  0  0  0  0  0  0  0  0
   46.9710   30.9240   48.3890 N   0  0  0  0  0  0  0  0  0  0  0  0
   45.9510   31.7660   48.6860 C   0  0  0  0  0  0  0  0  0  0  0  0
   45.4430   32.6940   47.7950 N   0  0  0  0  0  0  0  0  0  0  0  0
   45.2270   31.8560   49.9350 N   0  0  0  0  0  0  0  0  0  0  0  0
   45.3980   33.9460   41.8490 C   0  0  0  0  0  0  0  0  0  0  0  0
   44.3740   33.3690   41.1120 C   0  0  0  0  0  0  0  0  0  0  0  0
   45.1800   33.1850   39.4400 S   0  0  0  0  0  0  0  0  0  0  0  0
   46.7790   33.9440   40.0830 C   0  0  0  0  0  0  0  0  0  0  0  0
   46.5150   34.1600   41.1820 N   0  0  0  0  0  0  0  0  0  0  0  0
   47.9600   34.1310   39.2180 C   0  0  0  0  0  0  0  0  0  0  0  0
   47.6860   33.6040   37.8580 C   0  0  0  0  0  0  0  0  0  0  0  0
   48.2530   32.3680   37.4910 N   0  0  0  0  0  0  0  0  0  0  0  0
   47.2530   31.5350   36.8220 C   0  0  0  0  0  0  0  0  0  0  0  0
   47.2160   32.1430   35.4260 C   0  0  0  0  0  0  0  0  0  0  0  0
   48.6010   32.7400   35.2700 C   0  0  0  0  0  0  0  0  0  0  0  0
   49.3190   32.3630   36.5480 C   0  0  0  0  0  0  0  0  0  0  0  0
   43.9795   36.6932   45.3424 H   0  0  0  0  0  0  0  0  0  0  0  0
   44.2494   36.1856   42.9073 H   0  0  0  0  0  0  0  0  0  0  0  0
   47.4752   31.9635   45.2801 H   0  0  0  0  0  0  0  0  0  0  0  0
   48.3353   30.3418   46.8887 H   0  0  0  0  0  0  0  0  0  0  0  0
   44.4655   32.5414   50.0406 H   0  0  0  0  0  0  0  0  0  0  0  0
   45.4730   31.2347   50.7188 H   0  0  0  0  0  0  0  0  0  0  0  0
   43.3574   33.0934   41.4292 H   0  0  0  0  0  0  0  0  0  0  0  0
   48.1960   35.2033   39.1517 H   0  0  0  0  0  0  0  0  0  0  0  0
   48.8120   33.5857   39.6500 H   0  0  0  0  0  0  0  0  0  0  0  0
   46.5949   33.5022   37.7626 H   0  0  0  0  0  0  0  0  0  0  0  0
   48.1645   34.3310   37.1852 H   0  0  0  0  0  0  0  0  0  0  0  0
   47.5670   30.4812   36.7907 H   0  0  0  0  0  0  0  0  0  0  0  0
   46.2757   31.5242   37.3268 H   0  0  0  0  0  0  0  0  0  0  0  0
   47.0314   31.3710   34.6645 H   0  0  0  0  0  0  0  0  0  0  0  0
   46.4113   32.8822   35.2991 H   0  0  0  0  0  0  0  0  0  0  0  0
   49.1129   32.3126   34.3952 H   0  0  0  0  0  0  0  0  0  0  0  0
   48.5732   33.8279   35.1097 H   0  0  0  0  0  0  0  0  0  0  0  0
   49.7804   31.3675   36.4699 H   0  0  0  0  0  0  0  0  0  0  0  0
   50.1487   33.0364   36.8089 H   0  0  0  0  0  0  0  0  0  0  0  0
  1  6  2  0
  2  1  1  0
  3  2  2  0
  3  4  1  0
  4  5  2  0
  5  6  1  0
  5  7  1  0
  7 12  1  0
  8  7  2  0
  8  9  1  0
  9 10  2  0
 10 11  1  0
 11 13  1  0
 12 11  2  0
 14  3  1  0
 15 14  2  0
 16 17  1  0
 16 15  1  0
 17 18  2  0
 18 14  1  0
 19 17  1  0
 20 19  1  0
 21 20  1  0
 22 21  1  0
 23 22  1  0
 24 23  1  0
 24 25  1  0
 25 21  1  0
  1 26  1  0
  2 27  1  0
  8 28  1  0
  9 29  1  0
 13 30  1  0
 13 31  1  0
 15 32  1  0
 19 33  1  0
 19 34  1  0
 20 35  1  0
 20 36  1  0
 22 37  1  0
 22 38  1  0
 23 39  1  0
 23 40  1  0
 24 41  1  0
 24 42  1  0
 25 43  1  0
 25 44  1  0
M  ISO  8  26  14  27  14  28  14  29  14  32  14  33   8  34   8  35   8
M  ISO  8  36   8  37  13  38  13  39  13  40  13  41  13  42  13  43  13
M  ISO  1  44  13
M  END
>  <minimizedAffinity>  (1) 
-5.90381432

>  <minimizedRMSD>  (1) 
1.35055923

$$$$
