
     RDKit          3D

 39 42  0  0  0  0  0  0  0  0999 V2000
   44.5150   35.8550   44.7100 C   0  0  0  0  0  0  0  0  0  0  0  0
   44.4210   35.4830   43.3790 C   0  0  0  0  0  0  0  0  0  0  0  0
   44.8290   34.2210   43.0070 C   0  0  0  0  0  0  0  0  0  0  0  0
   45.3100   33.3800   43.9640 N   0  0  0  0  0  0  0  0  0  0  0  0
   45.3940   33.7580   45.2530 C   0  0  0  0  0  0  0  0  0  0  0  0
   45.0000   34.9810   45.6140 N   0  0  0  0  0  0  0  0  0  0  0  0
   45.9150   32.8330   46.2450 C   0  0  0  0  0  0  0  0  0  0  0  0
   46.9020   31.9200   45.8860 C   0  0  0  0  0  0  0  0  0  0  0  0
   47.4410   31.0190   46.7750 C   0  0  0  0  0  0  0  0  0  0  0  0
   47.0240   30.9900   48.0320 N   0  0  0  0  0  0  0  0  0  0  0  0
   46.0550   31.8870   48.3820 C   0  0  0  0  0  0  0  0  0  0  0  0
   45.5000   32.7970   47.5200 N   0  0  0  0  0  0  0  0  0  0  0  0
   45.4630   32.0290   49.6850 N   0  0  0  0  0  0  0  0  0  0  0  0
   44.7470   33.7730   41.5840 C   0  0  0  0  0  0  0  0  0  0  0  0
   43.5440   33.3820   41.0280 C   0  0  0  0  0  0  0  0  0  0  0  0
   44.0360   32.9450   39.2960 S   0  0  0  0  0  0  0  0  0  0  0  0
   45.8380   33.3860   39.6530 C   0  0  0  0  0  0  0  0  0  0  0  0
   45.7800   33.7150   40.7650 N   0  0  0  0  0  0  0  0  0  0  0  0
   46.9500   33.2910   38.6650 C   0  0  0  0  0  0  0  0  0  0  0  0
   46.2770   33.1440   37.2980 C   0  0  0  0  0  0  0  0  0  0  0  0
   47.1920   32.7870   36.2560 N   0  0  0  0  0  0  0  0  0  0  0  0
   46.7580   32.0960   35.1670 C   0  0  0  0  0  0  0  0  0  0  0  0
   47.9000   31.9280   34.3780 C   0  0  0  0  0  0  0  0  0  0  0  0
   48.9470   32.5000   34.9890 N   0  0  0  0  0  0  0  0  0  0  0  0
   48.5120   33.0220   36.1340 C   0  0  0  0  0  0  0  0  0  0  0  0
   44.1955   36.8585   45.0275 H   0  0  0  0  0  0  0  0  0  0  0  0
   44.0263   36.1852   42.6299 H   0  0  0  0  0  0  0  0  0  0  0  0
   47.2664   31.9187   44.8481 H   0  0  0  0  0  0  0  0  0  0  0  0
   48.2215   30.3197   46.4406 H   0  0  0  0  0  0  0  0  0  0  0  0
   44.7357   32.7404   49.8454 H   0  0  0  0  0  0  0  0  0  0  0  0
   45.7664   31.4193   50.4577 H   0  0  0  0  0  0  0  0  0  0  0  0
   42.5486   33.3407   41.4944 H   0  0  0  0  0  0  0  0  0  0  0  0
   47.5669   34.2013   38.6930 H   0  0  0  0  0  0  0  0  0  0  0  0
   47.6161   32.4432   38.8832 H   0  0  0  0  0  0  0  0  0  0  0  0
   45.5062   32.3626   37.3697 H   0  0  0  0  0  0  0  0  0  0  0  0
   45.8487   34.1229   37.0367 H   0  0  0  0  0  0  0  0  0  0  0  0
   45.7365   31.7474   34.9548 H   0  0  0  0  0  0  0  0  0  0  0  0
   47.9339   31.4085   33.4090 H   0  0  0  0  0  0  0  0  0  0  0  0
   49.1332   33.5604   36.8650 H   0  0  0  0  0  0  0  0  0  0  0  0
  1  6  2  0
  2  1  1  0
  3  2  2  0
  3  4  1  0
  4  5  2  0
  5  6  1  0
  5  7  1  0
  7 12  1  0
  8  7  2  0
  8  9  1  0
  9 10  2  0
 10 11  1  0
 11 13  1  0
 12 11  2  0
 14  3  1  0
 15 14  2  0
 16 17  1  0
 16 15  1  0
 17 18  2  0
 18 14  1  0
 19 17  1  0
 20 19  1  0
 21 20  1  0
 22 21  1  0
 23 24  1  0
 23 22  2  0
 24 25  2  0
 25 21  1  0
  1 26  1  0
  2 27  1  0
  8 28  1  0
  9 29  1  0
 13 30  1  0
 13 31  1  0
 15 32  1  0
 19 33  1  0
 19 34  1  0
 20 35  1  0
 20 36  1  0
 22 37  1  0
 23 38  1  0
 25 39  1  0
M  ISO  8  26  14  27  14  28  14  29  14  32  14  33   8  34   8  35   8
M  ISO  4  36   8  37  14  38  14  39  14
M  END
>  <minimizedAffinity>  (1) 
-5.75137377

>  <minimizedRMSD>  (1) 
1.80484331

$$$$
