
     RDKit          3D

 26 28  0  0  0  0  0  0  0  0999 V2000
   46.6500   34.7490   42.0620 C   0  0  0  0  0  0  0  0  0  0  0  0
   47.9140   35.2850   41.9660 C   0  0  0  0  0  0  0  0  0  0  0  0
   48.6780   35.1630   40.7970 C   0  0  0  0  0  0  0  0  0  0  0  0
   48.1520   34.4830   39.7000 C   0  0  0  0  0  0  0  0  0  0  0  0
   46.8940   33.9520   39.8060 C   0  0  0  0  0  0  0  0  0  0  0  0
   46.1440   34.0770   40.9640 C   0  0  0  0  0  0  0  0  0  0  0  0
   44.4520   36.0580   44.8230 C   0  0  0  0  0  0  0  0  0  0  0  0
   45.0820   36.0090   43.5640 C   0  0  0  0  0  0  0  0  0  0  0  0
   45.9350   34.9270   43.3140 C   0  0  0  0  0  0  0  0  0  0  0  0
   46.1160   33.9960   44.2690 N   0  0  0  0  0  0  0  0  0  0  0  0
   45.4810   34.0890   45.4730 C   0  0  0  0  0  0  0  0  0  0  0  0
   44.6640   35.1060   45.7390 N   0  0  0  0  0  0  0  0  0  0  0  0
   44.8320   33.5510   41.1380 N   0  0  0  0  0  0  0  0  0  0  0  0
   43.7760   34.2130   40.6110 C   0  0  0  0  0  0  0  0  0  0  0  0
   42.6180   33.5540   40.8840 N   0  0  0  0  0  0  0  0  0  0  0  0
   42.9940   32.4570   41.6010 C   0  0  0  0  0  0  0  0  0  0  0  0
   44.3230   32.4770   41.7400 N   0  0  0  0  0  0  0  0  0  0  0  0
   48.3353   35.8226   42.8282 H   0  0  0  0  0  0  0  0  0  0  0  0
   49.6858   35.6010   40.7459 H   0  0  0  0  0  0  0  0  0  0  0  0
   48.7328   34.3755   38.7721 H   0  0  0  0  0  0  0  0  0  0  0  0
   46.4675   33.4115   38.9482 H   0  0  0  0  0  0  0  0  0  0  0  0
   43.7747   36.8926   45.0569 H   0  0  0  0  0  0  0  0  0  0  0  0
   44.9108   36.7892   42.8078 H   0  0  0  0  0  0  0  0  0  0  0  0
   45.6464   33.3128   46.2347 H   0  0  0  0  0  0  0  0  0  0  0  0
   43.8445   35.1519   40.0420 H   0  0  0  0  0  0  0  0  0  0  0  0
   42.3176   31.6857   41.9980 H   0  0  0  0  0  0  0  0  0  0  0  0
  1  9  1  0
  2  1  2  0
  3  2  1  0
  4  5  1  0
  4  3  2  0
  5  6  2  0
  6 13  1  0
  6  1  1  0
  7 12  2  0
  8  7  1  0
  9  8  2  0
  9 10  1  0
 10 11  2  0
 11 12  1  0
 13 17  1  0
 14 15  2  0
 14 13  1  0
 15 16  1  0
 16 17  2  0
  2 18  1  0
  3 19  1  0
  4 20  1  0
  5 21  1  0
  7 22  1  0
  8 23  1  0
 11 24  1  0
 14 25  1  0
 16 26  1  0
M  ISO  8  18  14  19  14  20  14  21  14  22  14  23  14  24  14  25  14
M  ISO  1  26  14
M  END
>  <minimizedAffinity>  (1) 
-5.48370266

>  <minimizedRMSD>  (1) 
0.663450241

$$$$
