
     RDKit          3D

 56 60  0  0  0  0  0  0  0  0999 V2000
   45.3860   33.8830   41.7920 C   0  0  0  0  0  0  0  0  0  0  0  0
   44.3740   33.3200   41.0690 C   0  0  0  0  0  0  0  0  0  0  0  0
   45.1990   33.1440   39.4030 S   0  0  0  0  0  0  0  0  0  0  0  0
   46.7910   33.8870   40.0260 C   0  0  0  0  0  0  0  0  0  0  0  0
   46.5010   34.0900   41.1180 N   0  0  0  0  0  0  0  0  0  0  0  0
   44.4780   35.7470   44.9460 C   0  0  0  0  0  0  0  0  0  0  0  0
   44.6200   35.4420   43.6010 C   0  0  0  0  0  0  0  0  0  0  0  0
   45.2240   34.2300   43.2320 C   0  0  0  0  0  0  0  0  0  0  0  0
   45.6430   33.4090   44.2120 N   0  0  0  0  0  0  0  0  0  0  0  0
   45.4980   33.7190   45.5150 C   0  0  0  0  0  0  0  0  0  0  0  0
   44.9250   34.8700   45.8690 N   0  0  0  0  0  0  0  0  0  0  0  0
   45.9680   32.7990   46.5300 C   0  0  0  0  0  0  0  0  0  0  0  0
   47.0200   31.9230   46.2500 C   0  0  0  0  0  0  0  0  0  0  0  0
   47.5210   31.0240   47.1540 C   0  0  0  0  0  0  0  0  0  0  0  0
   46.9850   30.9710   48.3690 N   0  0  0  0  0  0  0  0  0  0  0  0
   45.9720   31.8100   48.6470 C   0  0  0  0  0  0  0  0  0  0  0  0
   45.4550   32.7160   47.7650 N   0  0  0  0  0  0  0  0  0  0  0  0
   45.2650   31.9000   49.9070 N   0  0  0  0  0  0  0  0  0  0  0  0
   47.9430   34.0490   39.1390 C   0  0  0  0  0  0  0  0  0  0  0  0
   48.6500   32.7320   38.9690 C   0  0  0  0  0  0  0  0  0  0  0  0
   48.4080   32.2930   37.5530 C   0  0  0  0  0  0  0  0  0  0  0  0
   48.8140   33.2270   36.6130 C   0  0  0  0  0  0  0  0  0  0  0  0
   48.6120   32.8740   35.2890 C   0  0  0  0  0  0  0  0  0  0  0  0
   48.0710   31.7260   34.9390 N   0  0  0  0  0  0  0  0  0  0  0  0
   47.6870   30.8380   35.8820 C   0  0  0  0  0  0  0  0  0  0  0  0
   47.8710   31.1570   37.1530 N   0  0  0  0  0  0  0  0  0  0  0  0
   47.0780   29.5480   35.4710 C   0  0  0  0  0  0  0  0  0  0  0  0
   45.6890   29.3620   35.9740 C   0  0  0  0  0  0  0  0  0  0  0  0
   44.6070   29.5110   34.9590 C   0  0  0  0  0  0  0  0  0  0  0  0
   44.9220   30.4270   33.8160 C   0  0  0  0  0  0  0  0  0  0  0  0
   46.2670   30.2300   33.2010 C   0  0  0  0  0  0  0  0  0  0  0  0
   47.1580   29.3200   33.9780 C   0  0  0  0  0  0  0  0  0  0  0  0
   43.3554   33.0461   41.3812 H   0  0  0  0  0  0  0  0  0  0  0  0
   44.0072   36.6914   45.2566 H   0  0  0  0  0  0  0  0  0  0  0  0
   44.2632   36.1423   42.8314 H   0  0  0  0  0  0  0  0  0  0  0  0
   47.4712   31.9572   45.2474 H   0  0  0  0  0  0  0  0  0  0  0  0
   48.3521   30.3578   46.8792 H   0  0  0  0  0  0  0  0  0  0  0  0
   44.4991   32.5793   50.0204 H   0  0  0  0  0  0  0  0  0  0  0  0
   45.5278   31.2847   50.6901 H   0  0  0  0  0  0  0  0  0  0  0  0
   47.5995   34.4075   38.1574 H   0  0  0  0  0  0  0  0  0  0  0  0
   48.6386   34.7783   39.5797 H   0  0  0  0  0  0  0  0  0  0  0  0
   49.7282   32.8543   39.1492 H   0  0  0  0  0  0  0  0  0  0  0  0
   48.2747   31.9857   39.6847 H   0  0  0  0  0  0  0  0  0  0  0  0
   49.2676   34.1871   36.9000 H   0  0  0  0  0  0  0  0  0  0  0  0
   48.9148   33.5790   34.5008 H   0  0  0  0  0  0  0  0  0  0  0  0
   47.6907   28.7743   35.9568 H   0  0  0  0  0  0  0  0  0  0  0  0
   45.6164   28.3500   36.3989 H   0  0  0  0  0  0  0  0  0  0  0  0
   45.5255   30.1667   36.7059 H   0  0  0  0  0  0  0  0  0  0  0  0
   44.3892   28.5150   34.5460 H   0  0  0  0  0  0  0  0  0  0  0  0
   43.7557   29.9655   35.4869 H   0  0  0  0  0  0  0  0  0  0  0  0
   44.1636   30.2708   33.0347 H   0  0  0  0  0  0  0  0  0  0  0  0
   44.9200   31.4462   34.2298 H   0  0  0  0  0  0  0  0  0  0  0  0
   46.1296   29.8053   32.1956 H   0  0  0  0  0  0  0  0  0  0  0  0
   46.7562   31.2150   33.1793 H   0  0  0  0  0  0  0  0  0  0  0  0
   46.8679   28.2803   33.7661 H   0  0  0  0  0  0  0  0  0  0  0  0
   48.1926   29.5288   33.6681 H   0  0  0  0  0  0  0  0  0  0  0  0
  1  8  1  0
  2  1  2  0
  3  4  1  0
  3  2  1  0
  4  5  2  0
  5  1  1  0
  6 11  2  0
  7  6  1  0
  8  7  2  0
  8  9  1  0
  9 10  2  0
 10 11  1  0
 10 12  1  0
 12 17  1  0
 13 12  2  0
 13 14  1  0
 14 15  2  0
 15 16  1  0
 16 18  1  0
 17 16  2  0
 19  4  1  0
 20 19  1  0
 21 20  1  0
 22 21  2  0
 23 22  1  0
 24 23  2  0
 24 25  1  0
 25 26  2  0
 26 21  1  0
 27 25  1  0
 27 28  1  0
 29 28  1  0
 30 29  1  0
 31 30  1  0
 31 32  1  0
 32 27  1  0
  2 33  1  0
  6 34  1  0
  7 35  1  0
 13 36  1  0
 14 37  1  0
 18 38  1  0
 18 39  1  0
 19 40  1  0
 19 41  1  0
 20 42  1  0
 20 43  1  0
 22 44  1  0
 23 45  1  0
 27 46  1  0
 28 47  1  0
 28 48  1  0
 29 49  1  0
 29 50  1  0
 30 51  1  0
 30 52  1  0
 31 53  1  0
 31 54  1  0
 32 55  1  0
 32 56  1  0
M  ISO  8  33  14  34  14  35  14  36  14  37  14  40   8  41   8  42   8
M  ISO  8  43   8  44  14  45  14  46  13  47  13  48  13  49  13  50  13
M  ISO  6  51  13  52  13  53  13  54  13  55  13  56  13
M  END
>  <minimizedAffinity>  (1) 
-6.44411469

>  <minimizedRMSD>  (1) 
0.32335794

$$$$
