
     RDKit          3D

 47 51  0  0  0  0  0  0  0  0999 V2000
   45.3960   33.9110   41.8430 C   0  0  0  0  0  0  0  0  0  0  0  0
   44.3890   33.3610   41.1020 C   0  0  0  0  0  0  0  0  0  0  0  0
   45.2210   33.1920   39.4360 S   0  0  0  0  0  0  0  0  0  0  0  0
   46.8130   33.9180   40.0820 C   0  0  0  0  0  0  0  0  0  0  0  0
   46.5250   34.1170   41.1760 N   0  0  0  0  0  0  0  0  0  0  0  0
   44.4630   35.7520   45.0100 C   0  0  0  0  0  0  0  0  0  0  0  0
   44.6140   35.4530   43.6510 C   0  0  0  0  0  0  0  0  0  0  0  0
   45.2250   34.2460   43.2790 C   0  0  0  0  0  0  0  0  0  0  0  0
   45.6420   33.4240   44.2540 N   0  0  0  0  0  0  0  0  0  0  0  0
   45.4860   33.7320   45.5550 C   0  0  0  0  0  0  0  0  0  0  0  0
   44.9070   34.8720   45.9270 N   0  0  0  0  0  0  0  0  0  0  0  0
   45.9610   32.7940   46.5630 C   0  0  0  0  0  0  0  0  0  0  0  0
   47.0190   31.9210   46.2830 C   0  0  0  0  0  0  0  0  0  0  0  0
   47.5200   31.0110   47.1800 C   0  0  0  0  0  0  0  0  0  0  0  0
   46.9890   30.9410   48.3770 N   0  0  0  0  0  0  0  0  0  0  0  0
   45.9610   31.7800   48.6690 C   0  0  0  0  0  0  0  0  0  0  0  0
   45.4350   32.7010   47.7960 N   0  0  0  0  0  0  0  0  0  0  0  0
   45.2390   31.8630   49.9310 N   0  0  0  0  0  0  0  0  0  0  0  0
   47.9710   34.0800   39.2080 C   0  0  0  0  0  0  0  0  0  0  0  0
   48.6200   32.7460   38.9610 C   0  0  0  0  0  0  0  0  0  0  0  0
   48.2890   32.3750   37.5370 C   0  0  0  0  0  0  0  0  0  0  0  0
   48.8660   33.2100   36.5920 C   0  0  0  0  0  0  0  0  0  0  0  0
   48.5930   32.9110   35.2730 C   0  0  0  0  0  0  0  0  0  0  0  0
   47.8220   31.8850   34.9210 N   0  0  0  0  0  0  0  0  0  0  0  0
   47.2820   31.0990   35.8590 C   0  0  0  0  0  0  0  0  0  0  0  0
   47.5280   31.3630   37.1440 N   0  0  0  0  0  0  0  0  0  0  0  0
   46.4380   29.9770   35.4730 C   0  0  0  0  0  0  0  0  0  0  0  0
   45.9360   28.9850   36.2860 C   0  0  0  0  0  0  0  0  0  0  0  0
   45.1970   28.1240   35.5510 N   0  0  0  0  0  0  0  0  0  0  0  0
   45.2590   28.6090   34.2780 C   0  0  0  0  0  0  0  0  0  0  0  0
   46.0060   29.7260   34.2250 N   0  0  0  0  0  0  0  0  0  0  0  0
   43.3662   33.0908   41.4035 H   0  0  0  0  0  0  0  0  0  0  0  0
   43.9881   36.6931   45.3244 H   0  0  0  0  0  0  0  0  0  0  0  0
   44.2578   36.1561   42.8836 H   0  0  0  0  0  0  0  0  0  0  0  0
   47.4764   31.9672   45.2837 H   0  0  0  0  0  0  0  0  0  0  0  0
   48.3538   30.3508   46.8993 H   0  0  0  0  0  0  0  0  0  0  0  0
   44.4715   32.5409   50.0416 H   0  0  0  0  0  0  0  0  0  0  0  0
   45.4959   31.2438   50.7130 H   0  0  0  0  0  0  0  0  0  0  0  0
   47.6462   34.5102   38.2491 H   0  0  0  0  0  0  0  0  0  0  0  0
   48.6969   34.7506   39.6911 H   0  0  0  0  0  0  0  0  0  0  0  0
   49.7095   32.8218   39.0920 H   0  0  0  0  0  0  0  0  0  0  0  0
   48.2566   31.9860   39.6683 H   0  0  0  0  0  0  0  0  0  0  0  0
   49.5033   34.0600   36.8770 H   0  0  0  0  0  0  0  0  0  0  0  0
   49.0279   33.5429   34.4846 H   0  0  0  0  0  0  0  0  0  0  0  0
   46.1100   28.9054   37.3692 H   0  0  0  0  0  0  0  0  0  0  0  0
   44.7641   28.1481   33.4104 H   0  0  0  0  0  0  0  0  0  0  0  0
   46.2094   30.2853   33.3843 H   0  0  0  0  0  0  0  0  0  0  0  0
  1  8  1  0
  2  1  2  0
  3  4  1  0
  3  2  1  0
  4  5  2  0
  5  1  1  0
  6 11  2  0
  7  6  1  0
  8  7  2  0
  8  9  1  0
  9 10  2  0
 10 11  1  0
 10 12  1  0
 12 17  1  0
 13 12  2  0
 13 14  1  0
 14 15  2  0
 15 16  1  0
 16 18  1  0
 17 16  2  0
 19  4  1  0
 20 19  1  0
 21 20  1  0
 22 21  2  0
 23 22  1  0
 24 23  2  0
 24 25  1  0
 25 26  2  0
 26 21  1  0
 27 25  1  0
 27 28  2  0
 29 28  1  0
 30 29  2  0
 31 30  1  0
 31 27  1  0
  2 32  1  0
  6 33  1  0
  7 34  1  0
 13 35  1  0
 14 36  1  0
 18 37  1  0
 18 38  1  0
 19 39  1  0
 19 40  1  0
 20 41  1  0
 20 42  1  0
 22 43  1  0
 23 44  1  0
 28 45  1  0
 30 46  1  0
 31 47  1  0
M  ISO  8  32  14  33  14  34  14  35  14  36  14  39   8  40   8  41   8
M  ISO  6  42   8  43  14  44  14  45  14  46  14  47   9
M  END
>  <minimizedAffinity>  (1) 
-6.12293196

>  <minimizedRMSD>  (1) 
0.219054818

$$$$
