
     RDKit          3D

 45 49  0  0  0  0  0  0  0  0999 V2000
   45.4020   33.9300   41.8600 C   0  0  0  0  0  0  0  0  0  0  0  0
   44.3960   33.3800   41.1200 C   0  0  0  0  0  0  0  0  0  0  0  0
   45.2280   33.2190   39.4530 S   0  0  0  0  0  0  0  0  0  0  0  0
   46.8180   33.9460   40.1000 C   0  0  0  0  0  0  0  0  0  0  0  0
   46.5290   34.1410   41.1940 N   0  0  0  0  0  0  0  0  0  0  0  0
   44.4580   35.7570   45.0300 C   0  0  0  0  0  0  0  0  0  0  0  0
   44.6140   35.4630   43.6720 C   0  0  0  0  0  0  0  0  0  0  0  0
   45.2280   34.2590   43.2970 C   0  0  0  0  0  0  0  0  0  0  0  0
   45.6440   33.4320   44.2690 N   0  0  0  0  0  0  0  0  0  0  0  0
   45.4840   33.7380   45.5750 C   0  0  0  0  0  0  0  0  0  0  0  0
   44.9030   34.8760   45.9420 N   0  0  0  0  0  0  0  0  0  0  0  0
   45.9600   32.7950   46.5760 C   0  0  0  0  0  0  0  0  0  0  0  0
   47.0150   31.9220   46.2980 C   0  0  0  0  0  0  0  0  0  0  0  0
   47.5140   31.0100   47.1920 C   0  0  0  0  0  0  0  0  0  0  0  0
   46.9790   30.9380   48.3900 N   0  0  0  0  0  0  0  0  0  0  0  0
   45.9570   31.7740   48.6760 C   0  0  0  0  0  0  0  0  0  0  0  0
   45.4310   32.6980   47.8110 N   0  0  0  0  0  0  0  0  0  0  0  0
   45.2330   31.8520   49.9380 N   0  0  0  0  0  0  0  0  0  0  0  0
   47.9720   34.1110   39.2260 C   0  0  0  0  0  0  0  0  0  0  0  0
   48.6250   32.7730   38.9740 C   0  0  0  0  0  0  0  0  0  0  0  0
   48.2730   32.3970   37.5560 C   0  0  0  0  0  0  0  0  0  0  0  0
   48.8970   33.1890   36.6050 C   0  0  0  0  0  0  0  0  0  0  0  0
   48.6120   32.8930   35.2890 C   0  0  0  0  0  0  0  0  0  0  0  0
   47.7950   31.9150   34.9480 N   0  0  0  0  0  0  0  0  0  0  0  0
   47.2040   31.1630   35.8900 C   0  0  0  0  0  0  0  0  0  0  0  0
   47.4630   31.4290   37.1690 N   0  0  0  0  0  0  0  0  0  0  0  0
   46.2750   30.0460   35.6680 C   0  0  0  0  0  0  0  0  0  0  0  0
   45.2700   29.9130   36.5440 N   0  0  0  0  0  0  0  0  0  0  0  0
   44.5720   28.8870   36.1840 O   0  0  0  0  0  0  0  0  0  0  0  0
   45.0870   28.3480   35.1090 C   0  0  0  0  0  0  0  0  0  0  0  0
   46.1870   29.0640   34.7430 N   0  0  0  0  0  0  0  0  0  0  0  0
   43.3743   33.1061   41.4218 H   0  0  0  0  0  0  0  0  0  0  0  0
   43.9785   36.6949   45.3469 H   0  0  0  0  0  0  0  0  0  0  0  0
   44.2591   36.1683   42.9061 H   0  0  0  0  0  0  0  0  0  0  0  0
   47.4739   31.9694   45.2994 H   0  0  0  0  0  0  0  0  0  0  0  0
   48.3479   30.3499   46.9111 H   0  0  0  0  0  0  0  0  0  0  0  0
   44.4654   32.5296   50.0504 H   0  0  0  0  0  0  0  0  0  0  0  0
   45.4887   31.2296   50.7178 H   0  0  0  0  0  0  0  0  0  0  0  0
   47.6450   34.5427   38.2686 H   0  0  0  0  0  0  0  0  0  0  0  0
   48.6978   34.7815   39.7093 H   0  0  0  0  0  0  0  0  0  0  0  0
   49.7161   32.8530   39.0882 H   0  0  0  0  0  0  0  0  0  0  0  0
   48.2761   32.0140   39.6897 H   0  0  0  0  0  0  0  0  0  0  0  0
   49.5793   34.0055   36.8838 H   0  0  0  0  0  0  0  0  0  0  0  0
   49.0821   33.4931   34.4959 H   0  0  0  0  0  0  0  0  0  0  0  0
   44.6963   27.4624   34.5865 H   0  0  0  0  0  0  0  0  0  0  0  0
  1  8  1  0
  2  1  2  0
  3  4  1  0
  3  2  1  0
  4  5  2  0
  5  1  1  0
  6 11  2  0
  7  6  1  0
  8  7  2  0
  8  9  1  0
  9 10  2  0
 10 11  1  0
 10 12  1  0
 12 17  1  0
 13 12  2  0
 13 14  1  0
 14 15  2  0
 15 16  1  0
 16 18  1  0
 17 16  2  0
 19  4  1  0
 20 19  1  0
 21 20  1  0
 22 21  2  0
 23 22  1  0
 24 23  2  0
 24 25  1  0
 25 26  2  0
 26 21  1  0
 27 25  1  0
 27 28  2  0
 29 28  1  0
 30 29  1  0
 31 30  2  0
 31 27  1  0
  2 32  1  0
  6 33  1  0
  7 34  1  0
 13 35  1  0
 14 36  1  0
 18 37  1  0
 18 38  1  0
 19 39  1  0
 19 40  1  0
 20 41  1  0
 20 42  1  0
 22 43  1  0
 23 44  1  0
 30 45  1  0
M  ISO  8  32  14  33  14  34  14  35  14  36  14  39   8  40   8  41   8
M  ISO  4  42   8  43  14  44  14  45  14
M  END
>  <minimizedAffinity>  (1) 
-6.12226295

>  <minimizedRMSD>  (1) 
0.616924882

$$$$
