
     RDKit          3D

 49 52  0  0  0  0  0  0  0  0999 V2000
   45.4060   33.9110   41.8410 C   0  0  0  0  0  0  0  0  0  0  0  0
   44.4080   33.3560   41.0930 C   0  0  0  0  0  0  0  0  0  0  0  0
   45.2280   33.1840   39.4350 S   0  0  0  0  0  0  0  0  0  0  0  0
   46.8180   33.9150   40.0800 C   0  0  0  0  0  0  0  0  0  0  0  0
   46.5230   34.1150   41.1730 N   0  0  0  0  0  0  0  0  0  0  0  0
   44.4640   35.7460   44.9930 C   0  0  0  0  0  0  0  0  0  0  0  0
   44.6170   35.4520   43.6450 C   0  0  0  0  0  0  0  0  0  0  0  0
   45.2310   34.2480   43.2720 C   0  0  0  0  0  0  0  0  0  0  0  0
   45.6490   33.4230   44.2490 N   0  0  0  0  0  0  0  0  0  0  0  0
   45.4880   33.7330   45.5550 C   0  0  0  0  0  0  0  0  0  0  0  0
   44.9090   34.8700   45.9190 N   0  0  0  0  0  0  0  0  0  0  0  0
   45.9630   32.7950   46.5610 C   0  0  0  0  0  0  0  0  0  0  0  0
   47.0210   31.9200   46.2870 C   0  0  0  0  0  0  0  0  0  0  0  0
   47.5170   31.0160   47.1820 C   0  0  0  0  0  0  0  0  0  0  0  0
   46.9870   30.9430   48.3830 N   0  0  0  0  0  0  0  0  0  0  0  0
   45.9600   31.7840   48.6670 C   0  0  0  0  0  0  0  0  0  0  0  0
   45.4300   32.7090   47.7950 N   0  0  0  0  0  0  0  0  0  0  0  0
   45.2390   31.8660   49.9250 N   0  0  0  0  0  0  0  0  0  0  0  0
   47.9830   34.0790   39.2040 C   0  0  0  0  0  0  0  0  0  0  0  0
   48.6450   32.7540   38.9770 C   0  0  0  0  0  0  0  0  0  0  0  0
   48.3280   32.3550   37.5580 C   0  0  0  0  0  0  0  0  0  0  0  0
   48.8290   33.2460   36.6130 C   0  0  0  0  0  0  0  0  0  0  0  0
   48.5700   32.9340   35.2960 C   0  0  0  0  0  0  0  0  0  0  0  0
   47.8910   31.8630   34.9370 N   0  0  0  0  0  0  0  0  0  0  0  0
   47.4160   31.0160   35.8760 C   0  0  0  0  0  0  0  0  0  0  0  0
   47.6530   31.2950   37.1610 N   0  0  0  0  0  0  0  0  0  0  0  0
   46.6480   29.8020   35.4940 C   0  0  0  0  0  0  0  0  0  0  0  0
   45.1530   30.0470   35.6730 C   0  0  0  0  0  0  0  0  0  0  0  0
   46.8360   29.4590   34.0280 C   0  0  0  0  0  0  0  0  0  0  0  0
   43.3858   33.0823   41.3934 H   0  0  0  0  0  0  0  0  0  0  0  0
   43.9839   36.6854   45.3044 H   0  0  0  0  0  0  0  0  0  0  0  0
   44.2606   36.1556   42.8782 H   0  0  0  0  0  0  0  0  0  0  0  0
   47.4812   31.9635   45.2888 H   0  0  0  0  0  0  0  0  0  0  0  0
   48.3510   30.3559   46.9013 H   0  0  0  0  0  0  0  0  0  0  0  0
   44.4712   32.5437   50.0353 H   0  0  0  0  0  0  0  0  0  0  0  0
   45.4954   31.2465   50.7069 H   0  0  0  0  0  0  0  0  0  0  0  0
   47.6572   34.4934   38.2386 H   0  0  0  0  0  0  0  0  0  0  0  0
   48.6998   34.7634   39.6813 H   0  0  0  0  0  0  0  0  0  0  0  0
   49.7329   32.8445   39.1124 H   0  0  0  0  0  0  0  0  0  0  0  0
   48.2834   32.0007   39.6924 H   0  0  0  0  0  0  0  0  0  0  0  0
   49.3965   34.1436   36.8998 H   0  0  0  0  0  0  0  0  0  0  0  0
   48.9458   33.6071   34.5113 H   0  0  0  0  0  0  0  0  0  0  0  0
   47.0159   28.9877   36.1355 H   0  0  0  0  0  0  0  0  0  0  0  0
   44.9138   30.0862   36.7460 H   0  0  0  0  0  0  0  0  0  0  0  0
   44.8789   31.0021   35.2011 H   0  0  0  0  0  0  0  0  0  0  0  0
   44.5884   29.2294   35.2011 H   0  0  0  0  0  0  0  0  0  0  0  0
   47.3631   28.4974   33.9411 H   0  0  0  0  0  0  0  0  0  0  0  0
   45.8530   29.3838   33.5400 H   0  0  0  0  0  0  0  0  0  0  0  0
   47.4282   30.2471   33.5400 H   0  0  0  0  0  0  0  0  0  0  0  0
  1  8  1  0
  2  1  2  0
  3  4  1  0
  3  2  1  0
  4  5  2  0
  5  1  1  0
  6 11  2  0
  7  6  1  0
  8  7  2  0
  8  9  1  0
  9 10  2  0
 10 11  1  0
 10 12  1  0
 12 17  1  0
 13 12  2  0
 13 14  1  0
 14 15  2  0
 15 16  1  0
 16 18  1  0
 17 16  2  0
 19  4  1  0
 20 19  1  0
 21 20  1  0
 22 21  2  0
 23 22  1  0
 24 23  2  0
 24 25  1  0
 25 26  2  0
 26 21  1  0
 27 28  1  0
 27 25  1  0
 29 27  1  0
  2 30  1  0
  6 31  1  0
  7 32  1  0
 13 33  1  0
 14 34  1  0
 18 35  1  0
 18 36  1  0
 19 37  1  0
 19 38  1  0
 20 39  1  0
 20 40  1  0
 22 41  1  0
 23 42  1  0
 27 43  1  0
 28 44  1  0
 28 45  1  0
 28 46  1  0
 29 47  1  0
 29 48  1  0
 29 49  1  0
M  ISO  8  30  14  31  14  32  14  33  14  34  14  37   8  38   8  39   8
M  ISO  8  40   8  41  14  42  14  43   8  44   8  45   8  46   8  47   8
M  ISO  2  48   8  49   8
M  END
>  <minimizedAffinity>  (1) 
-6.03503942

>  <minimizedRMSD>  (1) 
0.0711229071

$$$$
