
     RDKit          3D

 30 32  0  0  0  0  0  0  0  0999 V2000
   47.1540   35.3960   42.0080 C   0  0  0  0  0  0  0  0  0  0  0  0
   47.7470   34.2980   41.1690 C   0  0  0  0  0  0  0  0  0  0  0  0
   47.2220   33.7160   40.0300 C   0  0  0  0  0  0  0  0  0  0  0  0
   48.0460   32.7720   39.5680 N   0  0  0  0  0  0  0  0  0  0  0  0
   49.1170   32.7070   40.3760 C   0  0  0  0  0  0  0  0  0  0  0  0
   50.2300   31.8970   40.3160 C   0  0  0  0  0  0  0  0  0  0  0  0
   51.1970   32.0380   41.2860 C   0  0  0  0  0  0  0  0  0  0  0  0
   51.0430   32.9750   42.2920 C   0  0  0  0  0  0  0  0  0  0  0  0
   49.9290   33.7930   42.3620 C   0  0  0  0  0  0  0  0  0  0  0  0
   48.9490   33.6540   41.3830 C   0  0  0  0  0  0  0  0  0  0  0  0
   45.6940   35.0490   42.2280 C   0  0  0  0  0  0  0  0  0  0  0  0
   44.7320   35.6310   44.3840 C   0  0  0  0  0  0  0  0  0  0  0  0
   45.4950   34.7380   43.6230 C   0  0  0  0  0  0  0  0  0  0  0  0
   46.0010   33.6150   44.2670 C   0  0  0  0  0  0  0  0  0  0  0  0
   45.7250   33.4560   45.5900 N   0  0  0  0  0  0  0  0  0  0  0  0
   44.9910   34.3250   46.2990 C   0  0  0  0  0  0  0  0  0  0  0  0
   44.4850   35.4250   45.7030 N   0  0  0  0  0  0  0  0  0  0  0  0
   47.2382   36.3592   41.4835 H   0  0  0  0  0  0  0  0  0  0  0  0
   47.6843   35.4859   42.9675 H   0  0  0  0  0  0  0  0  0  0  0  0
   46.2617   33.9915   39.5696 H   0  0  0  0  0  0  0  0  0  0  0  0
   47.8869   32.1913   38.7323 H   0  0  0  0  0  0  0  0  0  0  0  0
   50.3434   31.1550   39.5119 H   0  0  0  0  0  0  0  0  0  0  0  0
   52.0951   31.4034   41.2609 H   0  0  0  0  0  0  0  0  0  0  0  0
   51.8273   33.0725   43.0571 H   0  0  0  0  0  0  0  0  0  0  0  0
   49.8208   34.5327   43.1690 H   0  0  0  0  0  0  0  0  0  0  0  0
   45.0639   35.9057   41.9467 H   0  0  0  0  0  0  0  0  0  0  0  0
   45.4184   34.1825   41.6089 H   0  0  0  0  0  0  0  0  0  0  0  0
   44.3196   36.5277   43.8983 H   0  0  0  0  0  0  0  0  0  0  0  0
   46.6072   32.8759   43.7228 H   0  0  0  0  0  0  0  0  0  0  0  0
   44.8010   34.1415   47.3668 H   0  0  0  0  0  0  0  0  0  0  0  0
  1 11  1  0
  2 10  1  0
  2  1  1  0
  3  2  2  0
  4  3  1  0
  4  5  1  0
  5 10  2  0
  6  5  1  0
  6  7  2  0
  7  8  1  0
  8  9  2  0
 10  9  1  0
 11 13  1  0
 12 17  2  0
 13 14  2  0
 13 12  1  0
 14 15  1  0
 15 16  2  0
 17 16  1  0
  1 18  1  0
  1 19  1  0
  3 20  1  0
  4 21  1  0
  6 22  1  0
  7 23  1  0
  8 24  1  0
  9 25  1  0
 11 26  1  0
 11 27  1  0
 12 28  1  0
 14 29  1  0
 16 30  1  0
M  ISO  8  18   8  19   8  20  14  21   9  22  14  23  14  24  14  25  14
M  ISO  5  26   8  27   8  28  14  29  14  30  14
M  END
>  <minimizedAffinity>  (1) 
-4.84090185

>  <minimizedRMSD>  (1) 
3.20617652

$$$$
