REMARK  Name = 
REMARK  2 active torsions:
REMARK  status: ('A' for Active; 'I' for Inactive)
REMARK    1  A    between atoms: N_13  and  C_18
REMARK    2  A    between atoms: C_25  and  C_26
REMARK                            x       y       z     vdW  Elec       q    Type
REMARK                         _______ _______ _______ _____ _____    ______ ____
ROOT
ATOM      1  C   UNL     1      41.635  21.589  36.047  0.00  0.00    +0.000 A 
ATOM      2  C   UNL     1      41.416  21.726  37.431  0.00  0.00    +0.000 A 
ATOM      3  C   UNL     1      40.277  22.432  37.818  0.00  0.00    +0.000 A 
ATOM      4  N   UNL     1      39.440  22.947  36.880  0.00  0.00    +0.000 NA
ATOM      5  C   UNL     1      39.694  22.788  35.555  0.00  0.00    +0.000 A 
ATOM      6  N   UNL     1      40.780  22.115  35.146  0.00  0.00    +0.000 NA
ATOM      7  N   UNL     1      38.844  23.310  34.538  0.00  0.00    +0.000 N 
ATOM      8  C   UNL     1      38.420  22.537  33.517  0.00  0.00    +0.000 A 
ATOM      9  N   UNL     1      37.634  23.314  32.723  0.00  0.00    +0.000 NA
ATOM     10  C   UNL     1      37.556  24.544  33.214  0.00  0.00    +0.000 A 
ATOM     11  C   UNL     1      36.950  25.773  32.914  0.00  0.00    +0.000 A 
ATOM     12  O   UNL     1      36.252  25.774  31.865  0.00  0.00    +0.000 OA
ATOM     13  N   UNL     1      37.132  26.838  33.715  0.00  0.00    +0.000 N 
ATOM     14  C   UNL     1      37.879  26.782  34.808  0.00  0.00    +0.000 A 
ATOM     15  N   UNL     1      37.952  28.015  35.528  0.00  0.00    +0.000 N 
ATOM     16  N   UNL     1      38.480  25.621  35.137  0.00  0.00    +0.000 NA
ATOM     17  C   UNL     1      38.323  24.550  34.369  0.00  0.00    +0.000 A 
ATOM     18  H   UNL     1      38.509  28.074  36.393  0.00  0.00    +0.000 HD
ATOM     19  H   UNL     1      37.448  28.844  35.182  0.00  0.00    +0.000 HD
ENDROOT
BRANCH  13  20
ATOM     20  C   UNL     1      36.483  28.103  33.367  0.00  0.00    +0.000 A 
ATOM     21  C   UNL     1      36.832  28.813  32.199  0.00  0.00    +0.000 A 
ATOM     22  S   UNL     1      35.732  30.290  32.261  0.00  0.00    +0.000 S 
ATOM     23  C   UNL     1      34.970  29.678  33.894  0.00  0.00    +0.000 A 
ATOM     24  N   UNL     1      35.539  28.715  34.055  0.00  0.00    +0.000 NA
ATOM     25  N   UNL     1      33.931  30.269  34.733  0.00  0.00    +0.000 N 
ATOM     26  C   UNL     1      34.271  31.220  35.621  0.00  0.00    +0.000 A 
ATOM     27  C   UNL     1      33.238  31.730  36.378  0.00  0.00    +0.000 A 
ATOM     28  C   UNL     1      33.532  32.786  37.381  0.00  0.00    +0.000 C 
ATOM     29  C   UNL     1      31.970  31.229  36.161  0.00  0.00    +0.000 A 
ATOM     30  O   UNL     1      31.037  31.715  36.870  0.00  0.00    +0.000 OA
ATOM     31  N   UNL     1      31.656  30.286  35.276  0.00  0.00    +0.000 N 
ATOM     32  C   UNL     1      32.683  29.789  34.534  0.00  0.00    +0.000 A 
ATOM     33  O   UNL     1      32.451  28.896  33.682  0.00  0.00    +0.000 OA
ATOM     34  H   UNL     1      30.689  29.951  35.159  0.00  0.00    +0.000 HD
ENDBRANCH  13  20
TORSDOF 1
