REMARK  Name = 
REMARK  4 active torsions:
REMARK  status: ('A' for Active; 'I' for Inactive)
REMARK    1  A    between atoms: C_1  and  C_17
REMARK    2  A    between atoms: C_2  and  C_13
REMARK    3  A    between atoms: C_12  and  C_21
REMARK    4  A    between atoms: C_21  and  C_22
REMARK                            x       y       z     vdW  Elec       q    Type
REMARK                         _______ _______ _______ _____ _____    ______ ____
ROOT
ATOM      1  C   UNL     1      38.129  23.961  35.679  0.00  0.00    +0.000 A 
ATOM      2  C   UNL     1      38.132  24.657  36.892  0.00  0.00    +0.000 A 
ATOM      3  C   UNL     1      38.078  26.058  36.847  0.00  0.00    +0.000 A 
ATOM      4  N   UNL     1      38.026  26.666  35.637  0.00  0.00    +0.000 NA
ATOM      5  C   UNL     1      38.024  25.988  34.498  0.00  0.00    +0.000 A 
ATOM      6  N   UNL     1      38.075  24.661  34.517  0.00  0.00    +0.000 NA
ATOM      7  N   UNL     1      37.960  26.717  33.278  0.00  0.00    +0.000 N 
ATOM      8  C   UNL     1      38.582  26.171  32.114  0.00  0.00    +0.000 C 
ATOM      9  C   UNL     1      38.851  27.332  31.192  0.00  0.00    +0.000 C 
ATOM     10  C   UNL     1      37.655  28.125  30.826  0.00  0.00    +0.000 C 
ATOM     11  C   UNL     1      36.629  28.286  31.908  0.00  0.00    +0.000 C 
ATOM     12  C   UNL     1      37.261  27.979  33.254  0.00  0.00    +0.000 C 
ENDROOT
BRANCH   2  13
ATOM     13  C   UNL     1      38.190  23.966  38.195  0.00  0.00    +0.000 C 
ATOM     14  F   UNL     1      39.432  23.417  38.319  0.00  0.00    +0.000 F 
ATOM     15  F   UNL     1      37.265  22.991  38.351  0.00  0.00    +0.000 F 
ATOM     16  F   UNL     1      38.099  24.898  39.243  0.00  0.00    +0.000 F 
ENDBRANCH   2  13
BRANCH   1  17
ATOM     17  C   UNL     1      38.185  22.494  35.491  0.00  0.00    +0.000 C 
ATOM     18  F   UNL     1      38.287  22.163  34.147  0.00  0.00    +0.000 F 
ATOM     19  F   UNL     1      39.252  21.947  36.197  0.00  0.00    +0.000 F 
ATOM     20  F   UNL     1      37.109  21.840  35.986  0.00  0.00    +0.000 F 
ENDBRANCH   1  17
BRANCH  12  21
ATOM     21  C   UNL     1      36.186  28.109  34.283  0.00  0.00    +0.000 C 
BRANCH  21  22
ATOM     22  C   UNL     1      35.236  29.230  33.919  0.00  0.00    +0.000 A 
ATOM     23  C   UNL     1      34.256  29.014  32.944  0.00  0.00    +0.000 A 
ATOM     24  C   UNL     1      33.347  29.946  32.492  0.00  0.00    +0.000 A 
ATOM     25  C   UNL     1      33.421  31.192  33.059  0.00  0.00    +0.000 A 
ATOM     26  C   UNL     1      34.366  31.457  34.023  0.00  0.00    +0.000 A 
ATOM     27  C   UNL     1      34.416  32.722  34.588  0.00  0.00    +0.000 A 
ATOM     28  C   UNL     1      35.372  32.970  35.570  0.00  0.00    +0.000 A 
ATOM     29  C   UNL     1      36.269  32.004  35.997  0.00  0.00    +0.000 A 
ATOM     30  C   UNL     1      36.184  30.763  35.411  0.00  0.00    +0.000 A 
ATOM     31  C   UNL     1      35.253  30.490  34.440  0.00  0.00    +0.000 A 
ENDBRANCH  21  22
ENDBRANCH  12  21
TORSDOF 4
