REMARK  Name = 
REMARK  3 active torsions:
REMARK  status: ('A' for Active; 'I' for Inactive)
REMARK    1  A    between atoms: S_1  and  C_4
REMARK    2  A    between atoms: S_1  and  C_20
REMARK    3  A    between atoms: C_23  and  C_27
REMARK                            x       y       z     vdW  Elec       q    Type
REMARK                         _______ _______ _______ _____ _____    ______ ____
ROOT
ATOM      1  C   UNL     1      35.880  28.288  32.787  0.00  0.00    +0.000 A 
ATOM      2  N   UNL     1      36.083  28.582  34.071  0.00  0.00    +0.000 NA
ATOM      3  O   UNL     1      34.995  29.131  34.552  0.00  0.00    +0.000 OA
ATOM      4  C   UNL     1      34.070  29.223  33.650  0.00  0.00    +0.000 A 
ATOM      5  N   UNL     1      34.600  28.701  32.540  0.00  0.00    +0.000 NA
ATOM      6  N   UNL     1      32.762  29.756  33.782  0.00  0.00    +0.000 N 
ATOM      7  C   UNL     1      32.019  30.358  32.840  0.00  0.00    +0.000 A 
ATOM      8  N   UNL     1      30.832  30.730  33.337  0.00  0.00    +0.000 NA
ATOM      9  C   UNL     1      30.796  30.363  34.644  0.00  0.00    +0.000 A 
ATOM     10  C   UNL     1      29.890  30.451  35.692  0.00  0.00    +0.000 A 
ATOM     11  O   UNL     1      28.785  31.000  35.470  0.00  0.00    +0.000 OA
ATOM     12  N   UNL     1      30.247  29.947  36.882  0.00  0.00    +0.000 N 
ATOM     13  C   UNL     1      31.422  29.353  37.154  0.00  0.00    +0.000 A 
ATOM     14  N   UNL     1      31.750  28.833  38.437  0.00  0.00    +0.000 N 
ATOM     15  N   UNL     1      32.301  29.273  36.117  0.00  0.00    +0.000 NA
ATOM     16  C   UNL     1      32.010  29.758  34.897  0.00  0.00    +0.000 A 
ATOM     17  H   UNL     1      29.565  30.021  37.651  0.00  0.00    +0.000 HD
ATOM     18  H   UNL     1      32.665  28.387  38.593  0.00  0.00    +0.000 HD
ATOM     19  H   UNL     1      31.072  28.903  39.210  0.00  0.00    +0.000 HD
ENDROOT
BRANCH   1  20
ATOM     20  S   UNL     1      36.920  27.544  31.577  0.00  0.00    +0.000 S 
ATOM     21  O   UNL     1      38.370  27.808  31.895  0.00  0.00    +0.000 OA
ATOM     22  O   UNL     1      36.554  28.092  30.239  0.00  0.00    +0.000 OA
BRANCH  20  23
ATOM     23  C   UNL     1      36.582  25.838  31.630  0.00  0.00    +0.000 A 
ATOM     24  C   UNL     1      37.470  25.036  32.310  0.00  0.00    +0.000 A 
ATOM     25  C   UNL     1      37.212  23.661  32.362  0.00  0.00    +0.000 A 
ATOM     26  C   UNL     1      36.099  23.091  31.755  0.00  0.00    +0.000 A 
ATOM     27  C   UNL     1      35.206  23.902  31.069  0.00  0.00    +0.000 A 
ATOM     28  C   UNL     1      35.487  25.248  31.036  0.00  0.00    +0.000 A 
BRANCH  26  30
ATOM     29  C   UNL     1      36.062  20.732  30.855  0.00  0.00    +0.000 A 
ATOM     30  C   UNL     1      35.944  21.661  31.879  0.00  0.00    +0.000 A 
ATOM     31  C   UNL     1      35.640  21.152  33.170  0.00  0.00    +0.000 A 
ATOM     32  N   UNL     1      35.488  19.804  33.319  0.00  0.00    +0.000 NA
ATOM     33  C   UNL     1      35.619  18.939  32.260  0.00  0.00    +0.000 A 
ATOM     34  N   UNL     1      35.911  19.425  31.013  0.00  0.00    +0.000 NA
ENDBRANCH  26  30
ENDBRANCH  20  23
ENDBRANCH   1  20
TORSDOF 3
