REMARK  Name = 
REMARK  3 active torsions:
REMARK  status: ('A' for Active; 'I' for Inactive)
REMARK    1  A    between atoms: N_1  and  C_24
REMARK    2  A    between atoms: C_5  and  C_6
REMARK    3  A    between atoms: C_21  and  C_30
REMARK                            x       y       z     vdW  Elec       q    Type
REMARK                         _______ _______ _______ _____ _____    ______ ____
ROOT
ATOM      1  N   UNL     1      36.077  20.606  32.285  0.00  0.00    +0.000 N 
ATOM      2  C   UNL     1      36.077  19.189  31.849  0.00  0.00    +0.000 C 
ATOM      3  C   UNL     1      36.360  19.174  30.399  0.00  0.00    +0.000 C 
ATOM      4  C   UNL     1      36.677  20.636  30.115  0.00  0.00    +0.000 C 
ATOM      5  C   UNL     1      35.736  21.325  31.057  0.00  0.00    +0.000 C 
ENDROOT
BRANCH   5   6
ATOM      6  C   UNL     1      36.143  22.717  31.233  0.00  0.00    +0.000 A 
ATOM      7  C   UNL     1      35.362  23.802  31.428  0.00  0.00    +0.000 A 
ATOM      8  C   UNL     1      36.214  24.911  31.519  0.00  0.00    +0.000 A 
ATOM      9  N   UNL     1      37.480  24.436  31.372  0.00  0.00    +0.000 N 
ATOM     10  N   UNL     1      37.439  23.111  31.199  0.00  0.00    +0.000 NA
ATOM     11  C   UNL     1      38.577  25.345  31.420  0.00  0.00    +0.000 A 
ATOM     12  N   UNL     1      39.159  25.740  30.263  0.00  0.00    +0.000 NA
ATOM     13  C   UNL     1      40.197  26.595  30.238  0.00  0.00    +0.000 A 
ATOM     14  N   UNL     1      40.699  27.092  31.369  0.00  0.00    +0.000 NA
ATOM     15  C   UNL     1      40.178  26.750  32.566  0.00  0.00    +0.000 A 
ATOM     16  C   UNL     1      40.675  27.247  33.744  0.00  0.00    +0.000 A 
ATOM     17  C   UNL     1      40.125  26.883  34.977  0.00  0.00    +0.000 A 
ATOM     18  C   UNL     1      39.060  26.003  34.965  0.00  0.00    +0.000 A 
ATOM     19  C   UNL     1      38.553  25.497  33.778  0.00  0.00    +0.000 A 
ATOM     20  C   UNL     1      39.118  25.876  32.571  0.00  0.00    +0.000 A 
ENDBRANCH   5   6
BRANCH   1  24
ATOM     21  C   UNL     1      37.178  21.771  35.459  0.00  0.00    +0.000 A 
ATOM     22  C   UNL     1      36.039  21.042  35.814  0.00  0.00    +0.000 A 
ATOM     23  C   UNL     1      35.492  20.515  34.638  0.00  0.00    +0.000 A 
ATOM     24  C   UNL     1      36.362  20.977  33.635  0.00  0.00    +0.000 A 
ATOM     25  O   UNL     1      37.293  21.680  34.155  0.00  0.00    +0.000 OA
BRANCH  21  30
ATOM     26  C   UNL     1      40.004  22.758  37.530  0.00  0.00    +0.000 A 
ATOM     27  C   UNL     1      39.429  23.586  38.491  0.00  0.00    +0.000 A 
ATOM     28  C   UNL     1      38.039  23.808  38.420  0.00  0.00    +0.000 A 
ATOM     29  N   UNL     1      37.309  23.222  37.440  0.00  0.00    +0.000 NA
ATOM     30  C   UNL     1      37.922  22.417  36.520  0.00  0.00    +0.000 A 
ATOM     31  N   UNL     1      39.242  22.200  36.578  0.00  0.00    +0.000 NA
ENDBRANCH  21  30
ENDBRANCH   1  24
TORSDOF 3
