REMARK  Name = 
REMARK  3 active torsions:
REMARK  status: ('A' for Active; 'I' for Inactive)
REMARK    1  A    between atoms: C_3  and  N_17
REMARK    2  A    between atoms: C_5  and  C_7
REMARK    3  A    between atoms: C_19  and  C_27
REMARK                            x       y       z     vdW  Elec       q    Type
REMARK                         _______ _______ _______ _____ _____    ______ ____
ROOT
ATOM      1  C   UNL     1      38.782  23.170  38.052  0.00  0.00    +0.000 A 
ATOM      2  C   UNL     1      38.006  23.237  36.882  0.00  0.00    +0.000 A 
ATOM      3  C   UNL     1      38.646  22.867  35.698  0.00  0.00    +0.000 A 
ATOM      4  N   UNL     1      39.918  22.493  35.807  0.00  0.00    +0.000 NA
ATOM      5  C   UNL     1      40.660  22.428  36.922  0.00  0.00    +0.000 A 
ATOM      6  N   UNL     1      40.042  22.783  38.059  0.00  0.00    +0.000 NA
ENDROOT
BRANCH   5   7
ATOM      7  C   UNL     1      42.012  21.975  36.668  0.00  0.00    +0.000 A 
ATOM      8  C   UNL     1      42.329  20.631  36.676  0.00  0.00    +0.000 A 
ATOM      9  C   UNL     1      43.603  20.138  36.441  0.00  0.00    +0.000 A 
ATOM     10  C   UNL     1      44.638  21.006  36.181  0.00  0.00    +0.000 A 
ATOM     11  C   UNL     1      44.364  22.337  36.165  0.00  0.00    +0.000 A 
ATOM     12  C   UNL     1      45.411  23.196  35.903  0.00  0.00    +0.000 A 
ATOM     13  C   UNL     1      45.223  24.562  35.868  0.00  0.00    +0.000 A 
ATOM     14  C   UNL     1      43.932  25.017  36.108  0.00  0.00    +0.000 A 
ATOM     15  C   UNL     1      42.920  24.122  36.364  0.00  0.00    +0.000 A 
ATOM     16  C   UNL     1      43.083  22.775  36.404  0.00  0.00    +0.000 A 
ENDBRANCH   5   7
BRANCH   3  17
ATOM     17  N   UNL     1      37.957  22.897  34.448  0.00  0.00    +0.000 N 
ATOM     18  C   UNL     1      37.215  21.891  34.034  0.00  0.00    +0.000 A 
ATOM     19  C   UNL     1      36.719  22.269  32.812  0.00  0.00    +0.000 A 
ATOM     20  N   UNL     1      37.169  23.489  32.515  0.00  0.00    +0.000 NA
ATOM     21  C   UNL     1      37.950  23.893  33.539  0.00  0.00    +0.000 A 
ATOM     22  N   UNL     1      38.629  25.140  33.624  0.00  0.00    +0.000 N 
ATOM     23  N   UNL     1      38.903  25.902  32.596  0.00  0.00    +0.000 NA
ATOM     24  C   UNL     1      39.556  27.025  32.989  0.00  0.00    +0.000 A 
ATOM     25  C   UNL     1      39.686  26.928  34.377  0.00  0.00    +0.000 A 
ATOM     26  C   UNL     1      39.088  25.721  34.750  0.00  0.00    +0.000 A 
BRANCH  19  27
ATOM     27  C   UNL     1      35.821  21.500  31.909  0.00  0.00    +0.000 C 
ATOM     28  F   UNL     1      34.751  20.922  32.551  0.00  0.00    +0.000 F 
ATOM     29  F   UNL     1      36.536  20.437  31.320  0.00  0.00    +0.000 F 
ATOM     30  F   UNL     1      35.439  22.282  30.831  0.00  0.00    +0.000 F 
ENDBRANCH  19  27
ENDBRANCH   3  17
TORSDOF 3
