REMARK  Name = 
REMARK  2 active torsions:
REMARK  status: ('A' for Active; 'I' for Inactive)
REMARK    1  A    between atoms: C_5  and  C_7
REMARK    2  A    between atoms: C_19  and  C_30
REMARK                            x       y       z     vdW  Elec       q    Type
REMARK                         _______ _______ _______ _____ _____    ______ ____
ROOT
ATOM      1  C   UNL     1      39.075  23.075  37.973  0.00  0.00    +0.000 A 
ATOM      2  C   UNL     1      38.328  23.224  36.803  0.00  0.00    +0.000 A 
ATOM      3  C   UNL     1      38.966  22.920  35.599  0.00  0.00    +0.000 A 
ATOM      4  N   UNL     1      40.233  22.516  35.690  0.00  0.00    +0.000 NA
ATOM      5  C   UNL     1      40.962  22.369  36.802  0.00  0.00    +0.000 A 
ATOM      6  N   UNL     1      40.338  22.664  37.953  0.00  0.00    +0.000 NA
ATOM      7  N   UNL     1      38.295  23.038  34.344  0.00  0.00    +0.000 N 
ATOM      8  C   UNL     1      37.334  22.208  33.986  0.00  0.00    +0.000 A 
ATOM      9  C   UNL     1      36.930  22.613  32.750  0.00  0.00    +0.000 A 
ATOM     10  N   UNL     1      37.648  23.678  32.377  0.00  0.00    +0.000 NA
ATOM     11  C   UNL     1      38.511  23.947  33.385  0.00  0.00    +0.000 A 
ATOM     12  N   UNL     1      39.461  25.007  33.395  0.00  0.00    +0.000 N 
ATOM     13  C   UNL     1      39.980  25.580  34.520  0.00  0.00    +0.000 A 
ATOM     14  C   UNL     1      40.908  26.616  34.374  0.00  0.00    +0.000 A 
ATOM     15  C   UNL     1      41.288  27.048  33.119  0.00  0.00    +0.000 A 
ATOM     16  N   UNL     1      42.234  28.103  33.002  0.00  0.00    +0.000 N 
ATOM     17  N   UNL     1      40.740  26.442  32.030  0.00  0.00    +0.000 NA
ATOM     18  C   UNL     1      39.842  25.439  32.167  0.00  0.00    +0.000 A 
ATOM     19  O   UNL     1      39.390  24.941  31.093  0.00  0.00    +0.000 OA
ATOM     20  H   UNL     1      42.525  28.433  32.071  0.00  0.00    +0.000 HD
ATOM     21  H   UNL     1      42.629  28.537  33.849  0.00  0.00    +0.000 HD
ENDROOT
BRANCH   5  22
ATOM     22  C   UNL     1      42.312  21.910  36.539  0.00  0.00    +0.000 A 
ATOM     23  C   UNL     1      42.605  20.575  36.387  0.00  0.00    +0.000 A 
ATOM     24  C   UNL     1      43.868  20.084  36.137  0.00  0.00    +0.000 A 
ATOM     25  C   UNL     1      44.937  20.949  36.023  0.00  0.00    +0.000 A 
ATOM     26  C   UNL     1      44.690  22.283  36.168  0.00  0.00    +0.000 A 
ATOM     27  C   UNL     1      45.763  23.157  36.055  0.00  0.00    +0.000 A 
ATOM     28  C   UNL     1      45.610  24.503  36.184  0.00  0.00    +0.000 A 
ATOM     29  C   UNL     1      44.316  24.967  36.437  0.00  0.00    +0.000 A 
ATOM     30  C   UNL     1      43.272  24.066  36.543  0.00  0.00    +0.000 A 
ATOM     31  C   UNL     1      43.414  22.728  36.416  0.00  0.00    +0.000 A 
ENDBRANCH   5  22
BRANCH   9  32
ATOM     32  C   UNL     1      35.871  22.032  31.873  0.00  0.00    +0.000 C 
ATOM     33  F   UNL     1      34.809  21.510  32.591  0.00  0.00    +0.000 F 
ATOM     34  F   UNL     1      36.382  20.994  31.098  0.00  0.00    +0.000 F 
ATOM     35  F   UNL     1      35.446  22.991  30.938  0.00  0.00    +0.000 F 
ENDBRANCH   9  32
TORSDOF 2
