REMARK  Name = 
REMARK  4 active torsions:
REMARK  status: ('A' for Active; 'I' for Inactive)
REMARK    1  A    between atoms: C_1  and  N_36
REMARK    2  A    between atoms: C_9  and  N_27
REMARK    3  A    between atoms: C_11  and  C_12
REMARK    4  A    between atoms: C_29  and  C_30
REMARK                            x       y       z     vdW  Elec       q    Type
REMARK                         _______ _______ _______ _____ _____    ______ ____
ROOT
ATOM      1  C   UNL     1      38.852  23.663  36.137  0.00  0.00    +0.000 A 
ATOM      2  C   UNL     1      40.262  23.826  36.079  0.00  0.00    +0.000 A 
ATOM      3  C   UNL     1      40.740  24.867  35.326  0.00  0.00    +0.000 A 
ATOM      4  N   UNL     1      39.815  25.626  34.718  0.00  0.00    +0.000 NA
ATOM      5  C   UNL     1      38.522  25.497  34.752  0.00  0.00    +0.000 A 
ATOM      6  N   UNL     1      38.036  24.484  35.486  0.00  0.00    +0.000 NA
ATOM      7  N   UNL     1      37.787  26.441  34.022  0.00  0.00    +0.000 N 
ATOM      8  C   UNL     1      37.006  27.322  34.701  0.00  0.00    +0.000 A 
ATOM      9  C   UNL     1      36.381  28.152  33.798  0.00  0.00    +0.000 A 
ATOM     10  N   UNL     1      36.782  27.772  32.597  0.00  0.00    +0.000 NA
ATOM     11  C   UNL     1      37.658  26.705  32.720  0.00  0.00    +0.000 A 
ENDROOT
BRANCH  11  12
ATOM     12  C   UNL     1      38.256  26.028  31.618  0.00  0.00    +0.000 A 
ATOM     13  C   UNL     1      38.742  26.716  30.487  0.00  0.00    +0.000 A 
ATOM     14  N   UNL     1      39.235  25.806  29.585  0.00  0.00    +0.000 NA
ATOM     15  C   UNL     1      39.048  24.549  30.168  0.00  0.00    +0.000 A 
ATOM     16  N   UNL     1      38.481  24.763  31.344  0.00  0.00    +0.000 N 
ATOM     17  C   UNL     1      38.400  23.478  31.892  0.00  0.00    +0.000 A 
ATOM     18  N   UNL     1      39.528  23.130  32.520  0.00  0.00    +0.000 NA
ATOM     19  C   UNL     1      39.639  21.887  33.058  0.00  0.00    +0.000 A 
ATOM     20  N   UNL     1      38.675  20.968  33.001  0.00  0.00    +0.000 NA
ATOM     21  C   UNL     1      37.525  21.277  32.381  0.00  0.00    +0.000 A 
ATOM     22  C   UNL     1      36.459  20.428  32.248  0.00  0.00    +0.000 A 
ATOM     23  C   UNL     1      35.315  20.795  31.601  0.00  0.00    +0.000 A 
ATOM     24  C   UNL     1      35.214  22.080  31.052  0.00  0.00    +0.000 A 
ATOM     25  C   UNL     1      36.254  22.969  31.158  0.00  0.00    +0.000 A 
ATOM     26  C   UNL     1      37.379  22.552  31.816  0.00  0.00    +0.000 A 
ENDBRANCH  11  12
BRANCH   9  27
ATOM     27  N   UNL     1      35.471  29.224  34.046  0.00  0.00    +0.000 N 
ATOM     28  C   UNL     1      35.817  30.123  35.002  0.00  0.00    +0.000 A 
ATOM     29  C   UNL     1      35.064  31.209  35.368  0.00  0.00    +0.000 A 
ATOM     30  C   UNL     1      35.523  32.145  36.431  0.00  0.00    +0.000 C 
ATOM     31  C   UNL     1      33.866  31.363  34.684  0.00  0.00    +0.000 A 
ATOM     32  O   UNL     1      33.152  32.355  35.000  0.00  0.00    +0.000 OA
ATOM     33  N   UNL     1      33.513  30.473  33.730  0.00  0.00    +0.000 N 
ATOM     34  C   UNL     1      34.301  29.418  33.412  0.00  0.00    +0.000 A 
ATOM     35  O   UNL     1      33.984  28.581  32.526  0.00  0.00    +0.000 OA
ATOM     36  H   UNL     1      32.621  30.600  33.231  0.00  0.00    +0.000 HD
ENDBRANCH   9  27
BRANCH   1  37
ATOM     37  N   UNL     1      38.310  22.588  36.933  0.00  0.00    +0.000 N 
ATOM     38  H   UNL     1      37.291  22.452  36.989  0.00  0.00    +0.000 HD
ATOM     39  H   UNL     1      38.943  21.957  37.445  0.00  0.00    +0.000 HD
ENDBRANCH   1  37
TORSDOF 3
