REMARK  Name = 
REMARK  3 active torsions:
REMARK  status: ('A' for Active; 'I' for Inactive)
REMARK    1  A    between atoms: C_3  and  N_7
REMARK    2  A    between atoms: C_5  and  C_12
REMARK    3  A    between atoms: C_10  and  C_22
REMARK                            x       y       z     vdW  Elec       q    Type
REMARK                         _______ _______ _______ _____ _____    ______ ____
ROOT
ATOM      1  N   UNL     1      37.361  27.160  32.279  0.00  0.00    +0.000 N 
ATOM      2  C   UNL     1      37.561  28.142  31.391  0.00  0.00    +0.000 A 
ATOM      3  N   UNL     1      36.810  29.179  31.679  0.00  0.00    +0.000 NA
ATOM      4  C   UNL     1      36.099  28.878  32.777  0.00  0.00    +0.000 A 
ATOM      5  N   UNL     1      36.466  27.627  33.117  0.00  0.00    +0.000 NA
ENDROOT
BRANCH   4   6
ATOM      6  C   UNL     1      35.109  29.588  33.578  0.00  0.00    +0.000 A 
ATOM      7  N   UNL     1      33.811  29.407  33.870  0.00  0.00    +0.000 NA
ATOM      8  O   UNL     1      33.410  30.374  34.658  0.00  0.00    +0.000 OA
ATOM      9  C   UNL     1      34.425  31.181  34.885  0.00  0.00    +0.000 A 
ATOM     10  N   UNL     1      35.510  30.726  34.227  0.00  0.00    +0.000 NA
ATOM     11  N   UNL     1      34.272  32.325  35.714  0.00  0.00    +0.000 N 
ATOM     12  C   UNL     1      34.737  32.339  36.978  0.00  0.00    +0.000 A 
ATOM     13  N   UNL     1      34.463  33.545  37.551  0.00  0.00    +0.000 NA
ATOM     14  C   UNL     1      33.816  34.309  36.646  0.00  0.00    +0.000 A 
ATOM     15  C   UNL     1      33.272  35.595  36.578  0.00  0.00    +0.000 A 
ATOM     16  N   UNL     1      32.686  35.999  35.445  0.00  0.00    +0.000 NA
ATOM     17  C   UNL     1      32.587  35.231  34.342  0.00  0.00    +0.000 A 
ATOM     18  N   UNL     1      33.106  33.989  34.391  0.00  0.00    +0.000 NA
ATOM     19  C   UNL     1      33.711  33.531  35.517  0.00  0.00    +0.000 A 
ENDBRANCH   4   6
BRANCH   1  22
ATOM     20  C   UNL     1      38.615  23.830  31.378  0.00  0.00    +0.000 A 
ATOM     21  C   UNL     1      37.958  25.040  31.200  0.00  0.00    +0.000 A 
ATOM     22  C   UNL     1      37.991  25.881  32.303  0.00  0.00    +0.000 A 
ATOM     23  N   UNL     1      38.622  25.474  33.385  0.00  0.00    +0.000 NA
ATOM     24  C   UNL     1      39.252  24.324  33.566  0.00  0.00    +0.000 A 
ATOM     25  N   UNL     1      39.218  23.531  32.520  0.00  0.00    +0.000 NA
BRANCH  24  26
ATOM     26  C   UNL     1      39.974  23.766  34.693  0.00  0.00    +0.000 A 
ATOM     27  C   UNL     1      41.286  23.306  34.563  0.00  0.00    +0.000 A 
ATOM     28  C   UNL     1      42.011  22.770  35.598  0.00  0.00    +0.000 A 
ATOM     29  C   UNL     1      41.455  22.657  36.856  0.00  0.00    +0.000 A 
ATOM     30  C   UNL     1      40.171  23.096  37.024  0.00  0.00    +0.000 A 
ATOM     31  C   UNL     1      39.605  22.990  38.278  0.00  0.00    +0.000 A 
ATOM     32  C   UNL     1      38.332  23.398  38.552  0.00  0.00    +0.000 A 
ATOM     33  C   UNL     1      37.612  23.938  37.495  0.00  0.00    +0.000 A 
ATOM     34  C   UNL     1      38.201  24.032  36.262  0.00  0.00    +0.000 A 
ATOM     35  C   UNL     1      39.464  23.629  35.976  0.00  0.00    +0.000 A 
ENDBRANCH  24  26
ENDBRANCH   1  22
TORSDOF 3
