REMARK  Name = 
REMARK  2 active torsions:
REMARK  status: ('A' for Active; 'I' for Inactive)
REMARK    1  A    between atoms: C_5  and  C_12
REMARK    2  A    between atoms: C_10  and  C_22
REMARK                            x       y       z     vdW  Elec       q    Type
REMARK                         _______ _______ _______ _____ _____    ______ ____
ROOT
ATOM      1  C   UNL     1      37.347  24.486  31.642  0.00  0.00    +0.000 A 
ATOM      2  C   UNL     1      36.741  25.735  31.659  0.00  0.00    +0.000 A 
ATOM      3  C   UNL     1      37.079  26.530  32.736  0.00  0.00    +0.000 A 
ATOM      4  N   UNL     1      37.923  26.052  33.631  0.00  0.00    +0.000 NA
ATOM      5  C   UNL     1      38.510  24.874  33.636  0.00  0.00    +0.000 A 
ATOM      6  N   UNL     1      38.185  24.120  32.608  0.00  0.00    +0.000 NA
ATOM      7  N   UNL     1      36.543  27.832  32.895  0.00  0.00    +0.000 N 
ATOM      8  C   UNL     1      36.591  28.832  32.002  0.00  0.00    +0.000 A 
ATOM      9  N   UNL     1      35.987  29.918  32.480  0.00  0.00    +0.000 NA
ATOM     10  C   UNL     1      35.546  29.603  33.702  0.00  0.00    +0.000 A 
ATOM     11  N   UNL     1      35.897  28.331  33.931  0.00  0.00    +0.000 NA
ENDROOT
BRANCH   5  12
ATOM     12  C   UNL     1      39.441  24.234  34.540  0.00  0.00    +0.000 A 
ATOM     13  C   UNL     1      40.715  23.869  34.153  0.00  0.00    +0.000 A 
ATOM     14  C   UNL     1      41.636  23.261  34.966  0.00  0.00    +0.000 A 
ATOM     15  C   UNL     1      41.304  22.978  36.277  0.00  0.00    +0.000 A 
ATOM     16  C   UNL     1      40.069  23.315  36.706  0.00  0.00    +0.000 A 
ATOM     17  C   UNL     1      39.729  23.030  38.026  0.00  0.00    +0.000 A 
ATOM     18  C   UNL     1      38.509  23.332  38.548  0.00  0.00    +0.000 A 
ATOM     19  C   UNL     1      37.590  23.948  37.705  0.00  0.00    +0.000 A 
ATOM     20  C   UNL     1      37.955  24.215  36.411  0.00  0.00    +0.000 A 
ATOM     21  C   UNL     1      39.172  23.922  35.862  0.00  0.00    +0.000 A 
ENDBRANCH   5  12
BRANCH  10  22
ATOM     22  C   UNL     1      34.815  30.345  34.735  0.00  0.00    +0.000 A 
ATOM     23  N   UNL     1      33.530  30.519  35.049  0.00  0.00    +0.000 NA
ATOM     24  O   UNL     1      33.414  31.291  36.079  0.00  0.00    +0.000 OA
ATOM     25  C   UNL     1      34.629  31.644  36.469  0.00  0.00    +0.000 A 
ATOM     26  N   UNL     1      35.541  31.063  35.640  0.00  0.00    +0.000 NA
ATOM     27  N   UNL     1      34.962  32.488  37.566  0.00  0.00    +0.000 N 
ATOM     28  H   UNL     1      35.949  32.694  37.776  0.00  0.00    +0.000 HD
ATOM     29  H   UNL     1      34.216  32.892  38.150  0.00  0.00    +0.000 HD
ENDBRANCH  10  22
TORSDOF 2
