REMARK  Name = 
REMARK  2 active torsions:
REMARK  status: ('A' for Active; 'I' for Inactive)
REMARK    1  A    between atoms: C_5  and  C_7
REMARK    2  A    between atoms: C_20  and  C_22
REMARK                            x       y       z     vdW  Elec       q    Type
REMARK                         _______ _______ _______ _____ _____    ______ ____
ROOT
ATOM      1  C   UNL     1      37.162  24.602  31.682  0.00  0.00    +0.000 A 
ATOM      2  C   UNL     1      36.586  25.858  31.816  0.00  0.00    +0.000 A 
ATOM      3  C   UNL     1      36.955  26.554  32.956  0.00  0.00    +0.000 A 
ATOM      4  N   UNL     1      37.808  25.983  33.809  0.00  0.00    +0.000 NA
ATOM      5  C   UNL     1      38.361  24.800  33.699  0.00  0.00    +0.000 A 
ATOM      6  N   UNL     1      38.002  24.144  32.608  0.00  0.00    +0.000 NA
ATOM      7  N   UNL     1      36.454  27.845  33.233  0.00  0.00    +0.000 N 
ATOM      8  C   UNL     1      36.269  28.835  32.359  0.00  0.00    +0.000 A 
ATOM      9  N   UNL     1      35.781  29.914  32.977  0.00  0.00    +0.000 NA
ATOM     10  C   UNL     1      35.651  29.609  34.278  0.00  0.00    +0.000 A 
ATOM     11  N   UNL     1      36.070  28.350  34.383  0.00  0.00    +0.000 NA
ENDROOT
BRANCH   5  12
ATOM     12  C   UNL     1      39.290  24.061  34.533  0.00  0.00    +0.000 A 
ATOM     13  C   UNL     1      40.453  23.518  34.024  0.00  0.00    +0.000 A 
ATOM     14  C   UNL     1      41.366  22.807  34.776  0.00  0.00    +0.000 A 
ATOM     15  C   UNL     1      41.141  22.606  36.119  0.00  0.00    +0.000 A 
ATOM     16  C   UNL     1      40.004  23.122  36.672  0.00  0.00    +0.000 A 
ATOM     17  C   UNL     1      39.781  22.918  38.022  0.00  0.00    +0.000 A 
ATOM     18  C   UNL     1      38.681  23.397  38.640  0.00  0.00    +0.000 A 
ATOM     19  C   UNL     1      37.776  24.110  37.862  0.00  0.00    +0.000 A 
ATOM     20  C   UNL     1      38.031  24.292  36.526  0.00  0.00    +0.000 A 
ATOM     21  C   UNL     1      39.119  23.828  35.878  0.00  0.00    +0.000 A 
ENDBRANCH   5  12
BRANCH  10  22
ATOM     22  C   UNL     1      35.135  30.628  35.166  0.00  0.00    +0.000 A 
ATOM     23  C   UNL     1      35.922  31.660  35.628  0.00  0.00    +0.000 A 
ATOM     24  C   UNL     1      35.468  32.653  36.477  0.00  0.00    +0.000 A 
ATOM     25  C   UNL     1      34.163  32.653  36.912  0.00  0.00    +0.000 A 
ATOM     26  C   UNL     1      33.342  31.654  36.483  0.00  0.00    +0.000 A 
ATOM     27  C   UNL     1      32.044  31.662  36.920  0.00  0.00    +0.000 A 
ATOM     28  C   UNL     1      31.160  30.696  36.535  0.00  0.00    +0.000 A 
ATOM     29  C   UNL     1      31.640  29.710  35.682  0.00  0.00    +0.000 A 
ATOM     30  C   UNL     1      32.937  29.731  35.266  0.00  0.00    +0.000 A 
ATOM     31  C   UNL     1      33.850  30.692  35.638  0.00  0.00    +0.000 A 
ENDBRANCH  10  22
TORSDOF 2
