REMARK  Name = 
REMARK  2 active torsions:
REMARK  status: ('A' for Active; 'I' for Inactive)
REMARK    1  A    between atoms: C_3  and  N_7
REMARK    2  A    between atoms: C_5  and  C_23
REMARK                            x       y       z     vdW  Elec       q    Type
REMARK                         _______ _______ _______ _____ _____    ______ ____
ROOT
ATOM      1  N   UNL     1      36.400  27.940  32.975  0.00  0.00    +0.000 N 
ATOM      2  C   UNL     1      36.413  28.836  31.961  0.00  0.00    +0.000 A 
ATOM      3  N   UNL     1      36.013  30.024  32.408  0.00  0.00    +0.000 NA
ATOM      4  C   UNL     1      35.741  29.899  33.708  0.00  0.00    +0.000 A 
ATOM      5  N   UNL     1      35.985  28.615  34.031  0.00  0.00    +0.000 NA
ATOM      6  N   UNL     1      35.284  30.782  34.729  0.00  0.00    +0.000 N 
ATOM      7  C   UNL     1      36.071  31.826  35.069  0.00  0.00    +0.000 A 
ATOM      8  N   UNL     1      35.449  32.533  36.054  0.00  0.00    +0.000 NA
ATOM      9  C   UNL     1      34.289  31.958  36.340  0.00  0.00    +0.000 A 
ATOM     10  C   UNL     1      33.220  32.163  37.203  0.00  0.00    +0.000 A 
ATOM     11  O   UNL     1      33.278  33.153  37.976  0.00  0.00    +0.000 OA
ATOM     12  N   UNL     1      32.187  31.299  37.171  0.00  0.00    +0.000 N 
ATOM     13  C   UNL     1      32.117  30.237  36.347  0.00  0.00    +0.000 A 
ATOM     14  N   UNL     1      30.930  29.462  36.488  0.00  0.00    +0.000 N 
ATOM     15  N   UNL     1      33.147  30.002  35.483  0.00  0.00    +0.000 NA
ATOM     16  C   UNL     1      34.190  30.863  35.507  0.00  0.00    +0.000 A 
ATOM     17  H   UNL     1      31.402  31.461  37.817  0.00  0.00    +0.000 HD
ATOM     18  H   UNL     1      30.786  28.629  35.900  0.00  0.00    +0.000 HD
ATOM     19  H   UNL     1      30.216  29.735  37.178  0.00  0.00    +0.000 HD
ENDROOT
BRANCH   1  22
ATOM     20  C   UNL     1      36.663  24.425  31.982  0.00  0.00    +0.000 A 
ATOM     21  C   UNL     1      36.188  25.732  31.952  0.00  0.00    +0.000 A 
ATOM     22  C   UNL     1      36.765  26.571  32.867  0.00  0.00    +0.000 A 
ATOM     23  N   UNL     1      37.700  26.092  33.685  0.00  0.00    +0.000 NA
ATOM     24  C   UNL     1      38.164  24.867  33.733  0.00  0.00    +0.000 A 
ATOM     25  N   UNL     1      37.607  24.064  32.853  0.00  0.00    +0.000 NA
BRANCH  24  26
ATOM     26  C   UNL     1      39.164  24.215  34.558  0.00  0.00    +0.000 A 
ATOM     27  C   UNL     1      40.395  23.822  34.042  0.00  0.00    +0.000 A 
ATOM     28  C   UNL     1      41.373  23.202  34.783  0.00  0.00    +0.000 A 
ATOM     29  C   UNL     1      41.155  22.942  36.113  0.00  0.00    +0.000 A 
ATOM     30  C   UNL     1      39.967  23.305  36.672  0.00  0.00    +0.000 A 
ATOM     31  C   UNL     1      39.762  23.038  38.007  0.00  0.00    +0.000 A 
ATOM     32  C   UNL     1      38.608  23.367  38.642  0.00  0.00    +0.000 A 
ATOM     33  C   UNL     1      37.618  23.998  37.872  0.00  0.00    +0.000 A 
ATOM     34  C   UNL     1      37.860  24.248  36.544  0.00  0.00    +0.000 A 
ATOM     35  C   UNL     1      39.003  23.926  35.904  0.00  0.00    +0.000 A 
ENDBRANCH  24  26
ENDBRANCH   1  22
TORSDOF 2
