REMARK  Name = 
REMARK  2 active torsions:
REMARK  status: ('A' for Active; 'I' for Inactive)
REMARK    1  A    between atoms: C_5  and  C_12
REMARK    2  A    between atoms: C_10  and  C_22
REMARK                            x       y       z     vdW  Elec       q    Type
REMARK                         _______ _______ _______ _____ _____    ______ ____
ROOT
ATOM      1  C   UNL     1      37.172  24.594  31.735  0.00  0.00    +0.000 A 
ATOM      2  C   UNL     1      36.575  25.848  31.780  0.00  0.00    +0.000 A 
ATOM      3  C   UNL     1      36.958  26.631  32.867  0.00  0.00    +0.000 A 
ATOM      4  N   UNL     1      37.826  26.135  33.737  0.00  0.00    +0.000 NA
ATOM      5  C   UNL     1      38.392  24.945  33.696  0.00  0.00    +0.000 A 
ATOM      6  N   UNL     1      38.035  24.205  32.670  0.00  0.00    +0.000 NA
ATOM      7  N   UNL     1      36.434  27.931  33.045  0.00  0.00    +0.000 N 
ATOM      8  C   UNL     1      36.452  28.945  32.163  0.00  0.00    +0.000 A 
ATOM      9  N   UNL     1      35.873  30.008  32.674  0.00  0.00    +0.000 NA
ATOM     10  C   UNL     1      35.466  29.704  33.902  0.00  0.00    +0.000 A 
ATOM     11  N   UNL     1      35.823  28.409  34.121  0.00  0.00    +0.000 NA
ENDROOT
BRANCH  10  12
ATOM     12  C   UNL     1      34.777  30.425  34.963  0.00  0.00    +0.000 A 
ATOM     13  N   UNL     1      33.524  30.472  35.429  0.00  0.00    +0.000 NA
ATOM     14  O   UNL     1      33.433  31.304  36.425  0.00  0.00    +0.000 OA
ATOM     15  C   UNL     1      34.647  31.824  36.628  0.00  0.00    +0.000 A 
ATOM     16  N   UNL     1      35.501  31.295  35.733  0.00  0.00    +0.000 NA
ATOM     17  N   UNL     1      34.921  32.783  37.651  0.00  0.00    +0.000 N 
ATOM     18  C   UNL     1      33.985  33.862  37.818  0.00  0.00    +0.000 C 
ATOM     19  N   UNL     1      33.137  34.071  37.000  0.00  0.00    +0.000 NA
ATOM     20  N   UNL     1      34.139  34.656  39.013  0.00  0.00    +0.000 N 
ATOM     21  H   UNL     1      32.513  34.133  36.280  0.00  0.00    +0.000 HD
ATOM     22  H   UNL     1      35.758  32.705  38.247  0.00  0.00    +0.000 HD
ATOM     23  H   UNL     1      33.501  35.444  39.193  0.00  0.00    +0.000 HD
ATOM     24  H   UNL     1      34.887  34.434  39.686  0.00  0.00    +0.000 HD
ENDBRANCH  10  12
BRANCH   5  25
ATOM     25  C   UNL     1      39.347  24.287  34.570  0.00  0.00    +0.000 A 
ATOM     26  C   UNL     1      40.606  23.928  34.133  0.00  0.00    +0.000 A 
ATOM     27  C   UNL     1      41.546  23.306  34.922  0.00  0.00    +0.000 A 
ATOM     28  C   UNL     1      41.253  23.003  36.238  0.00  0.00    +0.000 A 
ATOM     29  C   UNL     1      40.031  23.336  36.706  0.00  0.00    +0.000 A 
ATOM     30  C   UNL     1      39.728  23.036  38.019  0.00  0.00    +0.000 A 
ATOM     31  C   UNL     1      38.530  23.330  38.580  0.00  0.00    +0.000 A 
ATOM     32  C   UNL     1      37.588  23.961  37.769  0.00  0.00    +0.000 A 
ATOM     33  C   UNL     1      37.915  24.244  36.476  0.00  0.00    +0.000 A 
ATOM     34  C   UNL     1      39.114  23.959  35.887  0.00  0.00    +0.000 A 
ENDBRANCH   5  25
TORSDOF 2
