REMARK  Name = 
REMARK  2 active torsions:
REMARK  status: ('A' for Active; 'I' for Inactive)
REMARK    1  A    between atoms: C_5  and  C_7
REMARK    2  A    between atoms: C_20  and  C_22
REMARK                            x       y       z     vdW  Elec       q    Type
REMARK                         _______ _______ _______ _____ _____    ______ ____
ROOT
ATOM      1  C   UNL     1      36.786  24.319  31.834  0.00  0.00    +0.000 A 
ATOM      2  C   UNL     1      36.325  25.626  31.907  0.00  0.00    +0.000 A 
ATOM      3  C   UNL     1      36.818  26.360  32.971  0.00  0.00    +0.000 A 
ATOM      4  N   UNL     1      37.660  25.780  33.809  0.00  0.00    +0.000 NA
ATOM      5  C   UNL     1      38.108  24.548  33.759  0.00  0.00    +0.000 A 
ATOM      6  N   UNL     1      37.640  23.842  32.742  0.00  0.00    +0.000 NA
ATOM      7  N   UNL     1      36.436  27.706  33.173  0.00  0.00    +0.000 N 
ATOM      8  C   UNL     1      36.297  28.656  32.234  0.00  0.00    +0.000 A 
ATOM      9  N   UNL     1      35.928  29.802  32.774  0.00  0.00    +0.000 NA
ATOM     10  C   UNL     1      35.821  29.607  34.092  0.00  0.00    +0.000 A 
ATOM     11  N   UNL     1      36.137  28.317  34.309  0.00  0.00    +0.000 NA
ENDROOT
BRANCH   5  12
ATOM     12  C   UNL     1      39.021  23.796  34.600  0.00  0.00    +0.000 A 
ATOM     13  C   UNL     1      40.080  23.079  34.066  0.00  0.00    +0.000 A 
ATOM     14  C   UNL     1      40.979  22.347  34.811  0.00  0.00    +0.000 A 
ATOM     15  C   UNL     1      40.843  22.306  36.177  0.00  0.00    +0.000 A 
ATOM     16  C   UNL     1      39.824  22.989  36.757  0.00  0.00    +0.000 A 
ATOM     17  C   UNL     1      39.695  22.940  38.129  0.00  0.00    +0.000 A 
ATOM     18  C   UNL     1      38.701  23.597  38.786  0.00  0.00    +0.000 A 
ATOM     19  C   UNL     1      37.800  24.333  38.009  0.00  0.00    +0.000 A 
ATOM     20  C   UNL     1      37.960  24.358  36.642  0.00  0.00    +0.000 A 
ATOM     21  C   UNL     1      38.944  23.710  35.973  0.00  0.00    +0.000 A 
ENDBRANCH   5  12
BRANCH  10  22
ATOM     22  C   UNL     1      35.440  30.575  35.117  0.00  0.00    +0.000 A 
ATOM     23  C   UNL     1      36.226  31.523  35.782  0.00  0.00    +0.000 A 
ATOM     24  N   UNL     1      35.467  32.214  36.655  0.00  0.00    +0.000 N 
ATOM     25  C   UNL     1      34.203  31.748  36.586  0.00  0.00    +0.000 A 
ATOM     26  C   UNL     1      33.072  32.141  37.291  0.00  0.00    +0.000 A 
ATOM     27  C   UNL     1      31.932  31.430  36.955  0.00  0.00    +0.000 A 
ATOM     28  C   UNL     1      31.827  30.417  36.029  0.00  0.00    +0.000 A 
ATOM     29  C   UNL     1      32.998  30.091  35.378  0.00  0.00    +0.000 A 
ATOM     30  C   UNL     1      34.176  30.740  35.644  0.00  0.00    +0.000 A 
ATOM     31  H   UNL     1      35.797  32.971  37.271  0.00  0.00    +0.000 HD
ENDBRANCH  10  22
TORSDOF 2
