REMARK  Name = 
REMARK  4 active torsions:
REMARK  status: ('A' for Active; 'I' for Inactive)
REMARK    1  A    between atoms: C_1  and  N_7
REMARK    2  A    between atoms: C_5  and  O_17
REMARK    3  A    between atoms: C_11  and  N_16
REMARK    4  A    between atoms: O_17  and  C_18
REMARK                            x       y       z     vdW  Elec       q    Type
REMARK                         _______ _______ _______ _____ _____    ______ ____
ROOT
ATOM      1  O   UNL     1      40.820  21.900  37.794  0.00  0.00    +0.000 OA
ENDROOT
BRANCH   1   2
ATOM      2  C   UNL     1      39.765  22.754  37.758  0.00  0.00    +0.000 A 
ATOM      3  C   UNL     1      38.977  23.349  38.726  0.00  0.00    +0.000 A 
ATOM      4  C   UNL     1      37.945  24.195  38.424  0.00  0.00    +0.000 A 
ATOM      5  C   UNL     1      37.668  24.475  37.094  0.00  0.00    +0.000 A 
ATOM      6  C   UNL     1      38.459  23.878  36.145  0.00  0.00    +0.000 A 
ATOM      7  N   UNL     1      39.490  23.032  36.456  0.00  0.00    +0.000 NA
ATOM      8  N   UNL     1      38.096  24.228  34.800  0.00  0.00    +0.000 N 
ATOM      9  C   UNL     1      37.950  25.516  34.428  0.00  0.00    +0.000 A 
ATOM     10  N   UNL     1      37.608  25.551  33.118  0.00  0.00    +0.000 NA
ATOM     11  C   UNL     1      37.552  24.255  32.711  0.00  0.00    +0.000 A 
ATOM     12  C   UNL     1      37.263  23.647  31.507  0.00  0.00    +0.000 A 
ATOM     13  N   UNL     1      37.280  22.293  31.374  0.00  0.00    +0.000 NA
ATOM     14  C   UNL     1      37.589  21.507  32.447  0.00  0.00    +0.000 A 
ATOM     15  N   UNL     1      37.871  22.099  33.621  0.00  0.00    +0.000 NA
ATOM     16  C   UNL     1      37.859  23.433  33.772  0.00  0.00    +0.000 A 
ATOM     17  N   UNL     1      36.945  24.519  30.414  0.00  0.00    +0.000 N 
ATOM     18  H   UNL     1      36.720  24.125  29.489  0.00  0.00    +0.000 HD
ATOM     19  H   UNL     1      36.941  25.540  30.554  0.00  0.00    +0.000 HD
ENDBRANCH   1   2
BRANCH   1  24
ATOM     20  C   UNL     1      43.284  23.315  35.628  0.00  0.00    +0.000 A 
ATOM     21  C   UNL     1      44.065  22.233  35.246  0.00  0.00    +0.000 A 
ATOM     22  C   UNL     1      43.718  20.993  35.759  0.00  0.00    +0.000 A 
ATOM     23  N   UNL     1      42.661  20.888  36.589  0.00  0.00    +0.000 NA
ATOM     24  C   UNL     1      41.896  21.955  36.960  0.00  0.00    +0.000 A 
ATOM     25  N   UNL     1      42.236  23.170  36.456  0.00  0.00    +0.000 NA
BRANCH  20  26
ATOM     26  N   UNL     1      43.560  24.643  35.150  0.00  0.00    +0.000 N 
ATOM     27  C   UNL     1      42.712  25.427  34.425  0.00  0.00    +0.000 A 
ATOM     28  N   UNL     1      43.359  26.587  34.188  0.00  0.00    +0.000 NA
ATOM     29  C   UNL     1      44.567  26.517  34.753  0.00  0.00    +0.000 A 
ATOM     30  C   UNL     1      45.655  27.367  34.849  0.00  0.00    +0.000 A 
ATOM     31  N   UNL     1      46.795  26.998  35.516  0.00  0.00    +0.000 NA
ATOM     32  C   UNL     1      46.873  25.768  36.103  0.00  0.00    +0.000 A 
ATOM     33  N   UNL     1      45.828  24.919  36.025  0.00  0.00    +0.000 NA
ATOM     34  C   UNL     1      44.712  25.298  35.363  0.00  0.00    +0.000 A 
BRANCH  30  35
ATOM     35  N   UNL     1      45.603  28.638  34.258  0.00  0.00    +0.000 N 
ATOM     36  H   UNL     1      46.412  29.272  34.328  0.00  0.00    +0.000 HD
ATOM     37  H   UNL     1      44.756  28.937  33.754  0.00  0.00    +0.000 HD
ENDBRANCH  30  35
ENDBRANCH  20  26
ENDBRANCH   1  24
TORSDOF 4
