REMARK  Name = 
REMARK  6 active torsions:
REMARK  status: ('A' for Active; 'I' for Inactive)
REMARK    1  A    between atoms: C_3  and  N_7
REMARK    2  A    between atoms: C_5  and  C_12
REMARK    3  A    between atoms: C_10  and  C_22
REMARK    4  A    between atoms: C_25  and  C_27
REMARK    5  A    between atoms: C_27  and  C_28
REMARK    6  A    between atoms: C_27  and  C_29
REMARK                            x       y       z     vdW  Elec       q    Type
REMARK                         _______ _______ _______ _____ _____    ______ ____
ROOT
ATOM      1  C   UNL     1      36.547  24.002  31.884  0.00  0.00    +0.000 A 
ATOM      2  C   UNL     1      36.178  25.343  31.869  0.00  0.00    +0.000 A 
ATOM      3  C   UNL     1      36.808  26.128  32.819  0.00  0.00    +0.000 A 
ATOM      4  N   UNL     1      37.678  25.556  33.635  0.00  0.00    +0.000 NA
ATOM      5  C   UNL     1      38.045  24.293  33.670  0.00  0.00    +0.000 A 
ATOM      6  N   UNL     1      37.440  23.551  32.761  0.00  0.00    +0.000 NA
ENDROOT
BRANCH   5   7
ATOM      7  C   UNL     1      38.970  23.549  34.495  0.00  0.00    +0.000 A 
ATOM      8  C   UNL     1      39.989  22.784  33.940  0.00  0.00    +0.000 A 
ATOM      9  C   UNL     1      40.888  22.062  34.682  0.00  0.00    +0.000 A 
ATOM     10  C   UNL     1      40.814  22.066  36.069  0.00  0.00    +0.000 A 
ATOM     11  C   UNL     1      39.834  22.802  36.643  0.00  0.00    +0.000 A 
ATOM     12  C   UNL     1      39.752  22.812  38.027  0.00  0.00    +0.000 A 
ATOM     13  C   UNL     1      38.803  23.519  38.703  0.00  0.00    +0.000 A 
ATOM     14  C   UNL     1      37.898  24.245  37.933  0.00  0.00    +0.000 A 
ATOM     15  C   UNL     1      38.007  24.213  36.568  0.00  0.00    +0.000 A 
ATOM     16  C   UNL     1      38.945  23.515  35.887  0.00  0.00    +0.000 A 
ENDBRANCH   5   7
BRANCH   3  17
ATOM     17  N   UNL     1      36.536  27.518  32.930  0.00  0.00    +0.000 N 
ATOM     18  C   UNL     1      36.633  28.439  31.969  0.00  0.00    +0.000 A 
ATOM     19  N   UNL     1      36.303  29.636  32.424  0.00  0.00    +0.000 NA
ATOM     20  C   UNL     1      35.986  29.489  33.715  0.00  0.00    +0.000 A 
ATOM     21  N   UNL     1      36.138  28.178  33.999  0.00  0.00    +0.000 NA
BRANCH  20  22
ATOM     22  C   UNL     1      35.549  30.403  34.764  0.00  0.00    +0.000 A 
ATOM     23  N   UNL     1      36.152  31.120  35.714  0.00  0.00    +0.000 NA
ATOM     24  O   UNL     1      35.273  31.786  36.403  0.00  0.00    +0.000 OA
ATOM     25  C   UNL     1      34.078  31.516  35.917  0.00  0.00    +0.000 A 
ATOM     26  N   UNL     1      34.220  30.653  34.890  0.00  0.00    +0.000 NA
BRANCH  25  27
ATOM     27  C   UNL     1      32.752  32.047  36.383  0.00  0.00    +0.000 C 
ATOM     28  C   UNL     1      32.888  33.216  37.300  0.00  0.00    +0.000 C 
ATOM     29  C   UNL     1      31.949  30.933  37.054  0.00  0.00    +0.000 C 
ENDBRANCH  25  27
ENDBRANCH  20  22
ENDBRANCH   3  17
TORSDOF 4
