REMARK  Name = 
REMARK  7 active torsions:
REMARK  status: ('A' for Active; 'I' for Inactive)
REMARK    1  A    between atoms: C_1  and  C_5
REMARK    2  A    between atoms: C_1  and  O_23
REMARK    3  A    between atoms: C_4  and  C_18
REMARK    4  A    between atoms: C_13  and  N_22
REMARK    5  A    between atoms: O_23  and  C_24
REMARK    6  A    between atoms: C_28  and  C_30
REMARK    7  A    between atoms: C_30  and  C_31
REMARK                            x       y       z     vdW  Elec       q    Type
REMARK                         _______ _______ _______ _____ _____    ______ ____
ROOT
ATOM      1  C   UNL     1      38.684  23.666  30.327  0.00  0.00    +0.000 A 
ATOM      2  C   UNL     1      38.131  24.895  30.690  0.00  0.00    +0.000 A 
ATOM      3  C   UNL     1      36.927  24.865  31.458  0.00  0.00    +0.000 A 
ATOM      4  N   UNL     1      36.415  23.676  31.774  0.00  0.00    +0.000 NA
ATOM      5  C   UNL     1      36.972  22.501  31.407  0.00  0.00    +0.000 A 
ATOM      6  N   UNL     1      38.104  22.499  30.685  0.00  0.00    +0.000 NA
ATOM      7  N   UNL     1      36.240  21.365  31.861  0.00  0.00    +0.000 N 
ATOM      8  C   UNL     1      35.001  21.424  32.432  0.00  0.00    +0.000 A 
ATOM      9  N   UNL     1      34.658  20.148  32.719  0.00  0.00    +0.000 NA
ATOM     10  C   UNL     1      35.647  19.324  32.341  0.00  0.00    +0.000 A 
ATOM     11  C   UNL     1      35.834  17.961  32.391  0.00  0.00    +0.000 A 
ATOM     12  N   UNL     1      36.967  17.404  31.919  0.00  0.00    +0.000 NA
ATOM     13  C   UNL     1      37.962  18.164  31.380  0.00  0.00    +0.000 A 
ATOM     14  N   UNL     1      37.769  19.494  31.336  0.00  0.00    +0.000 NA
ATOM     15  C   UNL     1      36.667  20.091  31.790  0.00  0.00    +0.000 A 
ENDROOT
BRANCH   2  16
ATOM     16  C   UNL     1      38.903  26.082  30.194  0.00  0.00    +0.000 C 
ATOM     17  F   UNL     1      38.027  27.162  29.939  0.00  0.00    +0.000 F 
ATOM     18  F   UNL     1      39.687  26.423  31.248  0.00  0.00    +0.000 F 
ATOM     19  F   UNL     1      39.680  25.810  29.115  0.00  0.00    +0.000 F 
ENDBRANCH   2  16
BRANCH  11  20
ATOM     20  N   UNL     1      34.819  17.103  32.949  0.00  0.00    +0.000 N 
ATOM     21  H   UNL     1      34.967  16.084  32.983  0.00  0.00    +0.000 HD
ATOM     22  H   UNL     1      33.946  17.509  33.314  0.00  0.00    +0.000 HD
ENDBRANCH  11  20
BRANCH   3  23
ATOM     23  C   UNL     1      36.437  26.164  31.787  0.00  0.00    +0.000 C 
ATOM     24  O   UNL     1      35.493  26.704  31.152  0.00  0.00    +0.000 OA
BRANCH  23  25
ATOM     25  O   UNL     1      36.838  27.091  32.802  0.00  0.00    +0.000 OA
BRANCH  25  26
ATOM     26  C   UNL     1      37.588  26.692  33.868  0.00  0.00    +0.000 A 
ATOM     27  C   UNL     1      38.802  27.336  33.982  0.00  0.00    +0.000 A 
ATOM     28  C   UNL     1      39.662  27.059  34.993  0.00  0.00    +0.000 A 
ATOM     29  C   UNL     1      39.266  26.089  35.921  0.00  0.00    +0.000 A 
ATOM     30  C   UNL     1      38.048  25.435  35.811  0.00  0.00    +0.000 A 
ATOM     31  N   UNL     1      37.250  25.770  34.778  0.00  0.00    +0.000 NA
BRANCH  30  32
ATOM     32  C   UNL     1      37.605  24.374  36.756  0.00  0.00    +0.000 C 
BRANCH  32  33
ATOM     33  C   UNL     1      38.732  23.401  36.920  0.00  0.00    +0.000 A 
ATOM     34  C   UNL     1      39.475  22.618  36.046  0.00  0.00    +0.000 A 
ATOM     35  C   UNL     1      40.388  21.906  36.773  0.00  0.00    +0.000 A 
ATOM     36  N   UNL     1      40.204  22.248  38.067  0.00  0.00    +0.000 N 
ATOM     37  N   UNL     1      39.230  23.127  38.136  0.00  0.00    +0.000 NA
ATOM     38  H   UNL     1      40.739  21.881  38.867  0.00  0.00    +0.000 HD
ENDBRANCH  32  33
ENDBRANCH  30  32
ENDBRANCH  25  26
ENDBRANCH  23  25
ENDBRANCH   3  23
TORSDOF 7
