REMARK  Name = 
REMARK  3 active torsions:
REMARK  status: ('A' for Active; 'I' for Inactive)
REMARK    1  A    between atoms: C_3  and  N_17
REMARK    2  A    between atoms: C_5  and  C_7
REMARK    3  A    between atoms: C_20  and  C_22
REMARK                            x       y       z     vdW  Elec       q    Type
REMARK                         _______ _______ _______ _____ _____    ______ ____
ROOT
ATOM      1  C   UNL     1      36.797  24.220  31.881  0.00  0.00    +0.000 A 
ATOM      2  C   UNL     1      36.245  25.496  31.823  0.00  0.00    +0.000 A 
ATOM      3  C   UNL     1      36.749  26.380  32.764  0.00  0.00    +0.000 A 
ATOM      4  N   UNL     1      37.677  25.968  33.612  0.00  0.00    +0.000 NA
ATOM      5  C   UNL     1      38.209  24.772  33.680  0.00  0.00    +0.000 A 
ATOM      6  N   UNL     1      37.738  23.923  32.790  0.00  0.00    +0.000 NA
ENDROOT
BRANCH   5   7
ATOM      7  C   UNL     1      39.219  24.192  34.544  0.00  0.00    +0.000 A 
ATOM      8  C   UNL     1      40.492  23.884  34.075  0.00  0.00    +0.000 A 
ATOM      9  C   UNL     1      41.482  23.336  34.851  0.00  0.00    +0.000 A 
ATOM     10  C   UNL     1      41.241  23.060  36.175  0.00  0.00    +0.000 A 
ATOM     11  C   UNL     1      40.016  23.341  36.684  0.00  0.00    +0.000 A 
ATOM     12  C   UNL     1      39.777  23.058  38.026  0.00  0.00    +0.000 A 
ATOM     13  C   UNL     1      38.583  23.307  38.612  0.00  0.00    +0.000 A 
ATOM     14  C   UNL     1      37.594  23.863  37.804  0.00  0.00    +0.000 A 
ATOM     15  C   UNL     1      37.853  24.131  36.487  0.00  0.00    +0.000 A 
ATOM     16  C   UNL     1      39.037  23.891  35.885  0.00  0.00    +0.000 A 
ENDBRANCH   5   7
BRANCH   3  17
ATOM     17  N   UNL     1      36.275  27.720  32.824  0.00  0.00    +0.000 N 
ATOM     18  C   UNL     1      36.034  28.546  31.804  0.00  0.00    +0.000 A 
ATOM     19  N   UNL     1      35.601  29.714  32.243  0.00  0.00    +0.000 NA
ATOM     20  C   UNL     1      35.555  29.661  33.569  0.00  0.00    +0.000 A 
ATOM     21  N   UNL     1      35.974  28.426  33.891  0.00  0.00    +0.000 NA
BRANCH  20  22
ATOM     22  C   UNL     1      35.204  30.503  34.733  0.00  0.00    +0.000 A 
ATOM     23  N   UNL     1      36.002  31.407  35.333  0.00  0.00    +0.000 NA
ATOM     24  C   UNL     1      35.621  32.139  36.385  0.00  0.00    +0.000 A 
ATOM     25  N   UNL     1      34.409  32.040  36.942  0.00  0.00    +0.000 NA
ATOM     26  C   UNL     1      33.552  31.164  36.409  0.00  0.00    +0.000 A 
ATOM     27  C   UNL     1      32.305  31.067  36.986  0.00  0.00    +0.000 A 
ATOM     28  C   UNL     1      31.385  30.198  36.493  0.00  0.00    +0.000 A 
ATOM     29  C   UNL     1      31.730  29.411  35.395  0.00  0.00    +0.000 A 
ATOM     30  C   UNL     1      32.988  29.553  34.865  0.00  0.00    +0.000 A 
ATOM     31  C   UNL     1      33.962  30.416  35.321  0.00  0.00    +0.000 A 
ENDBRANCH  20  22
ENDBRANCH   3  17
TORSDOF 3
