REMARK  Name = 
REMARK  3 active torsions:
REMARK  status: ('A' for Active; 'I' for Inactive)
REMARK    1  A    between atoms: C_3  and  N_17
REMARK    2  A    between atoms: C_5  and  C_7
REMARK    3  A    between atoms: C_19  and  C_22
REMARK                            x       y       z     vdW  Elec       q    Type
REMARK                         _______ _______ _______ _____ _____    ______ ____
ROOT
ATOM      1  C   UNL     1      40.691  22.363  36.876  0.00  0.00    +0.000 A 
ATOM      2  C   UNL     1      40.031  23.351  36.122  0.00  0.00    +0.000 A 
ATOM      3  C   UNL     1      40.845  24.293  35.512  0.00  0.00    +0.000 A 
ATOM      4  N   UNL     1      42.167  24.168  35.702  0.00  0.00    +0.000 NA
ATOM      5  C   UNL     1      42.797  23.236  36.415  0.00  0.00    +0.000 A 
ATOM      6  N   UNL     1      42.012  22.323  37.007  0.00  0.00    +0.000 NA
ENDROOT
BRANCH   5   7
ATOM      7  C   UNL     1      44.247  23.401  36.409  0.00  0.00    +0.000 A 
ATOM      8  C   UNL     1      45.050  22.621  35.600  0.00  0.00    +0.000 A 
ATOM      9  C   UNL     1      46.420  22.736  35.555  0.00  0.00    +0.000 A 
ATOM     10  C   UNL     1      47.073  23.655  36.332  0.00  0.00    +0.000 A 
ATOM     11  C   UNL     1      46.307  24.456  37.157  0.00  0.00    +0.000 A 
ATOM     12  C   UNL     1      46.957  25.379  37.937  0.00  0.00    +0.000 A 
ATOM     13  C   UNL     1      46.276  26.212  38.782  0.00  0.00    +0.000 A 
ATOM     14  C   UNL     1      44.883  26.073  38.807  0.00  0.00    +0.000 A 
ATOM     15  C   UNL     1      44.280  25.132  38.004  0.00  0.00    +0.000 A 
ATOM     16  C   UNL     1      44.945  24.299  37.161  0.00  0.00    +0.000 A 
ENDBRANCH   5   7
BRANCH   3  17
ATOM     17  N   UNL     1      40.301  25.354  34.713  0.00  0.00    +0.000 N 
ATOM     18  C   UNL     1      39.099  25.250  34.144  0.00  0.00    +0.000 A 
ATOM     19  C   UNL     1      38.901  26.416  33.473  0.00  0.00    +0.000 A 
ATOM     20  N   UNL     1      39.971  27.206  33.639  0.00  0.00    +0.000 NA
ATOM     21  C   UNL     1      40.863  26.543  34.423  0.00  0.00    +0.000 A 
BRANCH  19  22
ATOM     22  C   UNL     1      37.671  26.696  32.702  0.00  0.00    +0.000 A 
ATOM     23  C   UNL     1      37.110  27.927  32.384  0.00  0.00    +0.000 A 
ATOM     24  N   UNL     1      35.989  27.722  31.667  0.00  0.00    +0.000 N 
ATOM     25  C   UNL     1      35.796  26.390  31.504  0.00  0.00    +0.000 A 
ATOM     26  C   UNL     1      34.810  25.675  30.857  0.00  0.00    +0.000 A 
ATOM     27  C   UNL     1      34.841  24.286  30.834  0.00  0.00    +0.000 A 
ATOM     28  C   UNL     1      35.872  23.606  31.467  0.00  0.00    +0.000 A 
ATOM     29  C   UNL     1      36.837  24.355  32.102  0.00  0.00    +0.000 A 
ATOM     30  C   UNL     1      36.848  25.734  32.151  0.00  0.00    +0.000 A 
ATOM     31  H   UNL     1      35.374  28.462  31.299  0.00  0.00    +0.000 HD
ENDBRANCH  19  22
ENDBRANCH   3  17
TORSDOF 3
