REMARK  Name = 
REMARK  3 active torsions:
REMARK  status: ('A' for Active; 'I' for Inactive)
REMARK    1  A    between atoms: C_3  and  N_17
REMARK    2  A    between atoms: C_5  and  C_7
REMARK    3  A    between atoms: C_24  and  C_25
REMARK                            x       y       z     vdW  Elec       q    Type
REMARK                         _______ _______ _______ _____ _____    ______ ____
ROOT
ATOM      1  C   UNL     1      36.478  23.021  31.933  0.00  0.00    +0.000 A 
ATOM      2  C   UNL     1      36.075  24.319  31.646  0.00  0.00    +0.000 A 
ATOM      3  C   UNL     1      36.721  25.289  32.368  0.00  0.00    +0.000 A 
ATOM      4  N   UNL     1      37.644  24.930  33.251  0.00  0.00    +0.000 NA
ATOM      5  C   UNL     1      38.036  23.715  33.533  0.00  0.00    +0.000 A 
ATOM      6  N   UNL     1      37.422  22.787  32.846  0.00  0.00    +0.000 NA
ENDROOT
BRANCH   3   7
ATOM      7  N   UNL     1      36.425  26.674  32.196  0.00  0.00    +0.000 N 
ATOM      8  C   UNL     1      36.145  27.274  31.015  0.00  0.00    +0.000 A 
ATOM      9  N   UNL     1      35.918  28.568  31.214  0.00  0.00    +0.000 NA
ATOM     10  C   UNL     1      36.054  28.798  32.536  0.00  0.00    +0.000 A 
ATOM     11  N   UNL     1      36.364  27.628  33.116  0.00  0.00    +0.000 NA
ATOM     12  N   UNL     1      35.878  30.097  33.118  0.00  0.00    +0.000 N 
ATOM     13  C   UNL     1      35.689  30.217  34.442  0.00  0.00    +0.000 A 
ATOM     14  C   UNL     1      35.529  31.503  34.920  0.00  0.00    +0.000 A 
ATOM     15  C   UNL     1      35.313  31.747  36.371  0.00  0.00    +0.000 C 
ATOM     16  C   UNL     1      35.578  32.528  33.998  0.00  0.00    +0.000 A 
ATOM     17  O   UNL     1      35.423  33.692  34.499  0.00  0.00    +0.000 OA
ATOM     18  N   UNL     1      35.767  32.396  32.677  0.00  0.00    +0.000 N 
ATOM     19  C   UNL     1      35.921  31.118  32.242  0.00  0.00    +0.000 A 
ATOM     20  O   UNL     1      36.102  30.951  31.009  0.00  0.00    +0.000 OA
ATOM     21  H   UNL     1      35.794  33.204  32.039  0.00  0.00    +0.000 HD
ENDBRANCH   3   7
BRANCH   5  22
ATOM     22  C   UNL     1      39.024  23.185  34.464  0.00  0.00    +0.000 A 
ATOM     23  C   UNL     1      40.167  22.529  34.028  0.00  0.00    +0.000 A 
ATOM     24  C   UNL     1      41.122  22.015  34.859  0.00  0.00    +0.000 A 
ATOM     25  C   UNL     1      40.983  22.133  36.217  0.00  0.00    +0.000 A 
ATOM     26  C   UNL     1      39.885  22.766  36.701  0.00  0.00    +0.000 A 
ATOM     27  C   UNL     1      39.747  22.884  38.077  0.00  0.00    +0.000 A 
ATOM     28  C   UNL     1      38.673  23.504  38.644  0.00  0.00    +0.000 A 
ATOM     29  C   UNL     1      37.710  24.023  37.781  0.00  0.00    +0.000 A 
ATOM     30  C   UNL     1      37.885  23.884  36.424  0.00  0.00    +0.000 A 
ATOM     31  C   UNL     1      38.950  23.267  35.836  0.00  0.00    +0.000 A 
ENDBRANCH   5  22
TORSDOF 2
