REMARK  Name = 
REMARK  8 active torsions:
REMARK  status: ('A' for Active; 'I' for Inactive)
REMARK    1  A    between atoms: C_1  and  C_6
REMARK    2  A    between atoms: C_1  and  C_9
REMARK    3  A    between atoms: C_1  and  C_10
REMARK    4  A    between atoms: C_1  and  C_25
REMARK    5  A    between atoms: C_3  and  N_8
REMARK    6  A    between atoms: C_10  and  N_11
REMARK    7  A    between atoms: C_13  and  C_19
REMARK    8  A    between atoms: C_25  and  C_26
REMARK                            x       y       z     vdW  Elec       q    Type
REMARK                         _______ _______ _______ _____ _____    ______ ____
ROOT
ATOM      1  C   UNL     1      38.778  25.984  34.809  0.00  0.00    +0.000 C 
ATOM      2  C   UNL     1      39.074  27.352  35.270  0.00  0.00    +0.000 C 
ENDROOT
BRANCH   1   7
ATOM      3  C   UNL     1      38.947  23.015  37.031  0.00  0.00    +0.000 A 
ATOM      4  C   UNL     1      38.365  23.432  38.203  0.00  0.00    +0.000 A 
ATOM      5  C   UNL     1      37.915  24.730  38.218  0.00  0.00    +0.000 A 
ATOM      6  N   UNL     1      38.055  25.516  37.130  0.00  0.00    +0.000 NA
ATOM      7  C   UNL     1      38.636  25.075  35.982  0.00  0.00    +0.000 A 
ATOM      8  N   UNL     1      39.079  23.793  35.968  0.00  0.00    +0.000 NA
BRANCH   4   9
ATOM      9  N   UNL     1      38.280  22.516  39.280  0.00  0.00    +0.000 N 
ATOM     10  H   UNL     1      37.848  22.805  40.169  0.00  0.00    +0.000 HD
ATOM     11  H   UNL     1      38.650  21.561  39.174  0.00  0.00    +0.000 HD
ENDBRANCH   4   9
ENDBRANCH   1   7
BRANCH   1  12
ATOM     12  C   UNL     1      37.432  25.914  34.103  0.00  0.00    +0.000 C 
BRANCH  12  13
ATOM     13  N   UNL     1      37.001  27.147  33.502  0.00  0.00    +0.000 N 
ATOM     14  C   UNL     1      36.385  28.016  34.330  0.00  0.00    +0.000 A 
ATOM     15  C   UNL     1      35.914  29.246  33.904  0.00  0.00    +0.000 A 
ATOM     16  C   UNL     1      36.092  29.574  32.579  0.00  0.00    +0.000 A 
ATOM     17  N   UNL     1      35.603  30.840  32.167  0.00  0.00    +0.000 N 
ATOM     18  N   UNL     1      36.706  28.703  31.753  0.00  0.00    +0.000 NA
ATOM     19  C   UNL     1      37.137  27.530  32.231  0.00  0.00    +0.000 A 
ATOM     20  O   UNL     1      37.700  26.722  31.476  0.00  0.00    +0.000 OA
ATOM     21  H   UNL     1      35.708  31.139  31.187  0.00  0.00    +0.000 HD
ATOM     22  H   UNL     1      35.142  31.461  32.848  0.00  0.00    +0.000 HD
BRANCH  15  23
ATOM     23  C   UNL     1      35.243  30.148  34.853  0.00  0.00    +0.000 A 
ATOM     24  C   UNL     1      35.946  31.053  35.598  0.00  0.00    +0.000 A 
ATOM     25  C   UNL     1      35.307  31.895  36.490  0.00  0.00    +0.000 A 
ATOM     26  C   UNL     1      33.957  31.777  36.586  0.00  0.00    +0.000 A 
ATOM     27  C   UNL     1      33.201  30.888  35.865  0.00  0.00    +0.000 A 
ATOM     28  C   UNL     1      33.852  30.036  34.961  0.00  0.00    +0.000 A 
ENDBRANCH  15  23
ENDBRANCH  12  13
ENDBRANCH   1  12
BRANCH   1  29
ATOM     29  C   UNL     1      39.803  25.405  33.866  0.00  0.00    +0.000 C 
BRANCH  29  30
ATOM     30  C   UNL     1      40.938  26.235  33.443  0.00  0.00    +0.000 A 
ATOM     31  C   UNL     1      41.087  27.207  32.484  0.00  0.00    +0.000 A 
ATOM     32  C   UNL     1      42.209  27.895  32.123  0.00  0.00    +0.000 A 
ATOM     33  C   UNL     1      43.366  27.612  32.785  0.00  0.00    +0.000 A 
ATOM     34  C   UNL     1      43.346  26.650  33.786  0.00  0.00    +0.000 A 
ATOM     35  C   UNL     1      44.548  26.474  34.428  0.00  0.00    +0.000 A 
ATOM     36  C   UNL     1      44.610  25.584  35.468  0.00  0.00    +0.000 A 
ATOM     37  C   UNL     1      43.478  24.896  35.842  0.00  0.00    +0.000 A 
ATOM     38  C   UNL     1      42.318  25.134  35.141  0.00  0.00    +0.000 A 
ATOM     39  C   UNL     1      42.164  26.001  34.087  0.00  0.00    +0.000 A 
ENDBRANCH  29  30
ENDBRANCH   1  29
TORSDOF 7
