REMARK  Name = 
REMARK  4 active torsions:
REMARK  status: ('A' for Active; 'I' for Inactive)
REMARK    1  A    between atoms: O_1  and  C_2
REMARK    2  A    between atoms: O_1  and  C_23
REMARK    3  A    between atoms: C_19  and  N_25
REMARK    4  A    between atoms: C_29  and  N_34
REMARK                            x       y       z     vdW  Elec       q    Type
REMARK                         _______ _______ _______ _____ _____    ______ ____
ROOT
ATOM      1  C   UNL     1      39.564  22.849  37.658  0.00  0.00    +0.000 A 
ATOM      2  C   UNL     1      38.845  23.510  38.640  0.00  0.00    +0.000 A 
ATOM      3  C   UNL     1      37.930  24.484  38.358  0.00  0.00    +0.000 A 
ATOM      4  C   UNL     1      37.708  24.831  37.046  0.00  0.00    +0.000 A 
ATOM      5  C   UNL     1      38.421  24.177  36.071  0.00  0.00    +0.000 A 
ATOM      6  N   UNL     1      39.344  23.192  36.365  0.00  0.00    +0.000 NA
ATOM      7  N   UNL     1      38.120  24.608  34.739  0.00  0.00    +0.000 N 
ATOM      8  C   UNL     1      38.454  23.797  33.698  0.00  0.00    +0.000 A 
ATOM      9  N   UNL     1      38.099  24.355  32.516  0.00  0.00    +0.000 NA
ATOM     10  C   UNL     1      37.534  25.535  32.811  0.00  0.00    +0.000 A 
ATOM     11  C   UNL     1      36.969  26.587  32.154  0.00  0.00    +0.000 A 
ATOM     12  O   UNL     1      36.914  26.530  30.879  0.00  0.00    +0.000 OA
ATOM     13  N   UNL     1      36.463  27.687  32.738  0.00  0.00    +0.000 N 
ATOM     14  C   UNL     1      36.525  27.741  34.098  0.00  0.00    +0.000 A 
ATOM     15  N   UNL     1      35.996  28.894  34.729  0.00  0.00    +0.000 N 
ATOM     16  N   UNL     1      37.071  26.739  34.850  0.00  0.00    +0.000 NA
ATOM     17  C   UNL     1      37.551  25.684  34.189  0.00  0.00    +0.000 A 
ATOM     18  H   UNL     1      36.049  28.451  32.185  0.00  0.00    +0.000 HD
ATOM     19  H   UNL     1      36.022  28.977  35.755  0.00  0.00    +0.000 HD
ATOM     20  H   UNL     1      35.586  29.649  34.161  0.00  0.00    +0.000 HD
ENDROOT
BRANCH   1  21
ATOM     21  O   UNL     1      40.505  21.869  37.684  0.00  0.00    +0.000 OA
BRANCH  21  26
ATOM     22  C   UNL     1      43.249  23.257  35.858  0.00  0.00    +0.000 A 
ATOM     23  C   UNL     1      44.119  22.177  35.689  0.00  0.00    +0.000 A 
ATOM     24  C   UNL     1      43.725  20.953  36.227  0.00  0.00    +0.000 A 
ATOM     25  N   UNL     1      42.554  20.865  36.870  0.00  0.00    +0.000 NA
ATOM     26  C   UNL     1      41.703  21.914  37.038  0.00  0.00    +0.000 A 
ATOM     27  N   UNL     1      42.087  23.109  36.513  0.00  0.00    +0.000 NA
BRANCH  22  28
ATOM     28  N   UNL     1      43.563  24.559  35.341  0.00  0.00    +0.000 N 
ATOM     29  C   UNL     1      42.763  25.316  34.568  0.00  0.00    +0.000 A 
ATOM     30  N   UNL     1      43.451  26.459  34.311  0.00  0.00    +0.000 NA
ATOM     31  C   UNL     1      44.624  26.395  34.907  0.00  0.00    +0.000 A 
ATOM     32  C   UNL     1      45.719  27.223  35.008  0.00  0.00    +0.000 A 
ATOM     33  N   UNL     1      46.847  26.861  35.736  0.00  0.00    +0.000 NA
ATOM     34  C   UNL     1      46.872  25.658  36.365  0.00  0.00    +0.000 A 
ATOM     35  N   UNL     1      45.814  24.825  36.284  0.00  0.00    +0.000 NA
ATOM     36  C   UNL     1      44.732  25.195  35.576  0.00  0.00    +0.000 A 
BRANCH  32  37
ATOM     37  N   UNL     1      45.728  28.475  34.368  0.00  0.00    +0.000 N 
ATOM     38  H   UNL     1      46.551  29.089  34.449  0.00  0.00    +0.000 HD
ATOM     39  H   UNL     1      44.911  28.779  33.819  0.00  0.00    +0.000 HD
ENDBRANCH  32  37
ENDBRANCH  22  28
ENDBRANCH  21  26
ENDBRANCH   1  21
TORSDOF 4
