REMARK  Name = 
REMARK  4 active torsions:
REMARK  status: ('A' for Active; 'I' for Inactive)
REMARK    1  A    between atoms: C_1  and  C_17
REMARK    2  A    between atoms: C_2  and  C_13
REMARK    3  A    between atoms: C_12  and  C_21
REMARK    4  A    between atoms: C_21  and  C_22
REMARK                            x       y       z     vdW  Elec       q    Type
REMARK                         _______ _______ _______ _____ _____    ______ ____
ROOT
ATOM      1  C   UNL     1      38.167  23.846  35.736  0.00  0.00    +0.000 A 
ATOM      2  C   UNL     1      38.180  24.541  36.954  0.00  0.00    +0.000 A 
ATOM      3  C   UNL     1      38.139  25.941  36.908  0.00  0.00    +0.000 A 
ATOM      4  N   UNL     1      38.091  26.547  35.698  0.00  0.00    +0.000 NA
ATOM      5  C   UNL     1      38.079  25.870  34.562  0.00  0.00    +0.000 A 
ATOM      6  N   UNL     1      38.118  24.540  34.587  0.00  0.00    +0.000 NA
ATOM      7  N   UNL     1      38.015  26.600  33.342  0.00  0.00    +0.000 N 
ATOM      8  C   UNL     1      38.655  26.050  32.183  0.00  0.00    +0.000 C 
ATOM      9  C   UNL     1      38.900  27.192  31.236  0.00  0.00    +0.000 C 
ATOM     10  C   UNL     1      37.667  27.941  30.852  0.00  0.00    +0.000 C 
ATOM     11  C   UNL     1      36.694  28.164  31.955  0.00  0.00    +0.000 C 
ATOM     12  C   UNL     1      37.314  27.840  33.277  0.00  0.00    +0.000 C 
ENDROOT
BRANCH   2  13
ATOM     13  C   UNL     1      38.233  23.851  38.259  0.00  0.00    +0.000 C 
ATOM     14  F   UNL     1      39.453  23.262  38.374  0.00  0.00    +0.000 F 
ATOM     15  F   UNL     1      37.267  22.904  38.425  0.00  0.00    +0.000 F 
ATOM     16  F   UNL     1      38.184  24.793  39.302  0.00  0.00    +0.000 F 
ENDBRANCH   2  13
BRANCH   1  17
ATOM     17  C   UNL     1      38.210  22.377  35.557  0.00  0.00    +0.000 C 
ATOM     18  F   UNL     1      38.298  22.040  34.213  0.00  0.00    +0.000 F 
ATOM     19  F   UNL     1      39.291  21.831  36.239  0.00  0.00    +0.000 F 
ATOM     20  F   UNL     1      37.142  21.722  36.072  0.00  0.00    +0.000 F 
ENDBRANCH   1  17
BRANCH  12  21
ATOM     21  C   UNL     1      36.275  28.017  34.355  0.00  0.00    +0.000 C 
BRANCH  21  22
ATOM     22  C   UNL     1      35.385  29.199  33.984  0.00  0.00    +0.000 A 
ATOM     23  C   UNL     1      34.417  29.240  33.000  0.00  0.00    +0.000 A 
ATOM     24  N   UNL     1      33.869  30.469  32.995  0.00  0.00    +0.000 N 
ATOM     25  C   UNL     1      34.451  31.225  33.943  0.00  0.00    +0.000 A 
ATOM     26  C   UNL     1      34.305  32.523  34.386  0.00  0.00    +0.000 A 
ATOM     27  C   UNL     1      35.033  33.102  35.405  0.00  0.00    +0.000 A 
ATOM     28  C   UNL     1      35.980  32.280  36.010  0.00  0.00    +0.000 A 
ATOM     29  C   UNL     1      36.184  30.966  35.618  0.00  0.00    +0.000 A 
ATOM     30  C   UNL     1      35.406  30.465  34.584  0.00  0.00    +0.000 A 
ATOM     31  H   UNL     1      33.119  30.783  32.362  0.00  0.00    +0.000 HD
ENDBRANCH  21  22
ENDBRANCH  12  21
TORSDOF 4
