REMARK  Name = 
REMARK  9 active torsions:
REMARK  status: ('A' for Active; 'I' for Inactive)
REMARK    1  A    between atoms: C_1  and  C_6
REMARK    2  A    between atoms: C_1  and  C_9
REMARK    3  A    between atoms: C_1  and  C_10
REMARK    4  A    between atoms: C_1  and  C_25
REMARK    5  A    between atoms: C_3  and  N_8
REMARK    6  A    between atoms: C_10  and  N_11
REMARK    7  A    between atoms: C_13  and  C_19
REMARK    8  A    between atoms: C_25  and  N_26
REMARK    9  A    between atoms: C_28  and  C_29
REMARK                            x       y       z     vdW  Elec       q    Type
REMARK                         _______ _______ _______ _____ _____    ______ ____
ROOT
ATOM      1  C   UNL     1      38.833  25.923  34.845  0.00  0.00    +0.000 C 
ATOM      2  C   UNL     1      39.103  27.334  35.296  0.00  0.00    +0.000 C 
ENDROOT
BRANCH   1   7
ATOM      3  C   UNL     1      38.864  22.951  37.012  0.00  0.00    +0.000 A 
ATOM      4  C   UNL     1      38.347  23.405  38.208  0.00  0.00    +0.000 A 
ATOM      5  C   UNL     1      37.988  24.733  38.253  0.00  0.00    +0.000 A 
ATOM      6  N   UNL     1      38.154  25.510  37.153  0.00  0.00    +0.000 NA
ATOM      7  C   UNL     1      38.663  25.041  35.995  0.00  0.00    +0.000 A 
ATOM      8  N   UNL     1      39.017  23.728  35.952  0.00  0.00    +0.000 NA
BRANCH   4   9
ATOM      9  N   UNL     1      38.238  22.494  39.283  0.00  0.00    +0.000 N 
ATOM     10  H   UNL     1      37.855  22.807  40.187  0.00  0.00    +0.000 HD
ATOM     11  H   UNL     1      38.541  21.517  39.163  0.00  0.00    +0.000 HD
ENDBRANCH   4   9
ENDBRANCH   1   7
BRANCH   1  12
ATOM     12  C   UNL     1      37.570  25.872  34.040  0.00  0.00    +0.000 C 
BRANCH  12  13
ATOM     13  N   UNL     1      37.123  27.074  33.434  0.00  0.00    +0.000 N 
ATOM     14  C   UNL     1      36.463  27.924  34.252  0.00  0.00    +0.000 A 
ATOM     15  C   UNL     1      35.975  29.144  33.812  0.00  0.00    +0.000 A 
ATOM     16  C   UNL     1      36.181  29.478  32.490  0.00  0.00    +0.000 A 
ATOM     17  N   UNL     1      35.671  30.735  32.066  0.00  0.00    +0.000 N 
ATOM     18  N   UNL     1      36.838  28.628  31.679  0.00  0.00    +0.000 NA
ATOM     19  C   UNL     1      37.283  27.466  32.169  0.00  0.00    +0.000 A 
ATOM     20  O   UNL     1      37.888  26.667  31.428  0.00  0.00    +0.000 OA
ATOM     21  H   UNL     1      35.795  31.038  31.090  0.00  0.00    +0.000 HD
ATOM     22  H   UNL     1      35.178  31.343  32.735  0.00  0.00    +0.000 HD
BRANCH  15  23
ATOM     23  C   UNL     1      35.260  30.030  34.742  0.00  0.00    +0.000 A 
ATOM     24  C   UNL     1      35.920  30.956  35.502  0.00  0.00    +0.000 A 
ATOM     25  C   UNL     1      35.239  31.782  36.376  0.00  0.00    +0.000 A 
ATOM     26  C   UNL     1      33.892  31.630  36.440  0.00  0.00    +0.000 A 
ATOM     27  C   UNL     1      33.179  30.720  35.702  0.00  0.00    +0.000 A 
ATOM     28  C   UNL     1      33.878  29.892  34.825  0.00  0.00    +0.000 A 
ENDBRANCH  15  23
ENDBRANCH  12  13
ENDBRANCH   1  12
BRANCH   1  29
ATOM     29  C   UNL     1      39.999  25.478  33.969  0.00  0.00    +0.000 C 
BRANCH  29  30
ATOM     30  N   UNL     1      41.314  25.890  34.270  0.00  0.00    +0.000 N 
ATOM     31  C   UNL     1      42.047  25.086  35.099  0.00  0.00    +0.000 A 
ATOM     32  C   UNL     1      43.383  25.337  35.428  0.00  0.00    +0.000 A 
ATOM     33  C   UNL     1      44.220  24.491  36.323  0.00  0.00    +0.000 C 
ATOM     34  C   UNL     1      44.044  26.457  34.907  0.00  0.00    +0.000 A 
ATOM     35  O   UNL     1      45.222  26.731  35.159  0.00  0.00    +0.000 OA
ATOM     36  N   UNL     1      43.310  27.235  34.100  0.00  0.00    +0.000 N 
ATOM     37  C   UNL     1      42.042  26.929  33.836  0.00  0.00    +0.000 A 
ATOM     38  O   UNL     1      41.463  27.751  33.079  0.00  0.00    +0.000 OA
ATOM     39  H   UNL     1      43.730  28.077  33.681  0.00  0.00    +0.000 HD
ENDBRANCH  29  30
ENDBRANCH   1  29
TORSDOF 7
