REMARK  Name = 
REMARK  3 active torsions:
REMARK  status: ('A' for Active; 'I' for Inactive)
REMARK    1  A    between atoms: N_1  and  C_11
REMARK    2  A    between atoms: C_5  and  C_18
REMARK    3  A    between atoms: C_6  and  C_16
REMARK                            x       y       z     vdW  Elec       q    Type
REMARK                         _______ _______ _______ _____ _____    ______ ____
ROOT
ATOM      1  N   UNL     1      38.314  25.344  33.976  0.00  0.00    +0.000 N 
ATOM      2  C   UNL     1      39.715  25.770  33.778  0.00  0.00    +0.000 C 
ATOM      3  C   UNL     1      40.078  26.401  35.106  0.00  0.00    +0.000 C 
ATOM      4  C   UNL     1      38.774  26.891  35.712  0.00  0.00    +0.000 C 
ATOM      5  C   UNL     1      37.726  26.442  34.685  0.00  0.00    +0.000 C 
ENDROOT
BRANCH   5   6
ATOM      6  C   UNL     1      37.134  27.528  33.937  0.00  0.00    +0.000 A 
ATOM      7  C   UNL     1      36.185  28.389  34.438  0.00  0.00    +0.000 A 
ATOM      8  C   UNL     1      35.564  29.412  33.752  0.00  0.00    +0.000 A 
ATOM      9  C   UNL     1      35.897  29.632  32.427  0.00  0.00    +0.000 A 
ATOM     10  C   UNL     1      36.841  28.810  31.851  0.00  0.00    +0.000 A 
ATOM     11  C   UNL     1      37.157  29.054  30.534  0.00  0.00    +0.000 A 
ATOM     12  C   UNL     1      38.092  28.285  29.886  0.00  0.00    +0.000 A 
ATOM     13  C   UNL     1      38.692  27.270  30.607  0.00  0.00    +0.000 A 
ATOM     14  C   UNL     1      38.346  27.061  31.924  0.00  0.00    +0.000 A 
ATOM     15  C   UNL     1      37.414  27.810  32.606  0.00  0.00    +0.000 A 
ENDBRANCH   5   6
BRANCH   1  21
ATOM     16  C   UNL     1      37.778  22.971  34.397  0.00  0.00    +0.000 A 
ATOM     17  C   UNL     1      37.298  21.740  34.011  0.00  0.00    +0.000 A 
ATOM     18  C   UNL     1      36.820  21.576  32.721  0.00  0.00    +0.000 A 
ATOM     19  C   UNL     1      36.833  22.646  31.850  0.00  0.00    +0.000 A 
ATOM     20  C   UNL     1      37.319  23.858  32.267  0.00  0.00    +0.000 A 
ATOM     21  C   UNL     1      37.805  24.075  33.534  0.00  0.00    +0.000 A 
BRANCH  16  26
ATOM     22  C   UNL     1      40.048  22.808  37.273  0.00  0.00    +0.000 A 
ATOM     23  C   UNL     1      39.283  23.275  38.336  0.00  0.00    +0.000 A 
ATOM     24  C   UNL     1      37.969  23.650  38.062  0.00  0.00    +0.000 A 
ATOM     25  N   UNL     1      37.513  23.543  36.794  0.00  0.00    +0.000 NA
ATOM     26  C   UNL     1      38.275  23.088  35.783  0.00  0.00    +0.000 A 
ATOM     27  N   UNL     1      39.542  22.724  36.040  0.00  0.00    +0.000 NA
ENDBRANCH  16  26
ENDBRANCH   1  21
TORSDOF 3
