REMARK  Name = 
REMARK  3 active torsions:
REMARK  status: ('A' for Active; 'I' for Inactive)
REMARK    1  A    between atoms: C_1  and  C_20
REMARK    2  A    between atoms: C_5  and  C_6
REMARK    3  A    between atoms: C_16  and  C_24
REMARK                            x       y       z     vdW  Elec       q    Type
REMARK                         _______ _______ _______ _____ _____    ______ ____
ROOT
ATOM      1  C   UNL     1      37.057  25.788  32.218  0.00  0.00    +0.000 C 
ATOM      2  C   UNL     1      36.569  24.344  32.199  0.00  0.00    +0.000 C 
ATOM      3  C   UNL     1      35.573  24.268  31.071  0.00  0.00    +0.000 C 
ATOM      4  C   UNL     1      35.128  25.647  30.749  0.00  0.00    +0.000 C 
ATOM      5  C   UNL     1      35.829  26.503  31.764  0.00  0.00    +0.000 C 
ENDROOT
BRANCH   5   6
ATOM      6  C   UNL     1      36.202  27.758  31.095  0.00  0.00    +0.000 A 
ATOM      7  C   UNL     1      37.123  27.948  30.096  0.00  0.00    +0.000 A 
ATOM      8  C   UNL     1      37.450  29.140  29.490  0.00  0.00    +0.000 A 
ATOM      9  C   UNL     1      36.804  30.283  29.907  0.00  0.00    +0.000 A 
ATOM     10  C   UNL     1      35.864  30.175  30.908  0.00  0.00    +0.000 A 
ATOM     11  C   UNL     1      35.261  31.356  31.265  0.00  0.00    +0.000 A 
ATOM     12  C   UNL     1      34.308  31.354  32.249  0.00  0.00    +0.000 A 
ATOM     13  C   UNL     1      33.984  30.167  32.849  0.00  0.00    +0.000 A 
ATOM     14  C   UNL     1      34.622  29.010  32.451  0.00  0.00    +0.000 A 
ATOM     15  C   UNL     1      35.578  28.951  31.479  0.00  0.00    +0.000 A 
ENDBRANCH   5   6
BRANCH   1  20
ATOM     16  C   UNL     1      38.281  25.612  35.688  0.00  0.00    +0.000 A 
ATOM     17  C   UNL     1      38.247  26.918  36.168  0.00  0.00    +0.000 A 
ATOM     18  C   UNL     1      37.789  27.860  35.267  0.00  0.00    +0.000 A 
ATOM     19  C   UNL     1      37.395  27.554  33.995  0.00  0.00    +0.000 A 
ATOM     20  C   UNL     1      37.447  26.247  33.565  0.00  0.00    +0.000 A 
ATOM     21  N   UNL     1      37.893  25.337  34.448  0.00  0.00    +0.000 NA
BRANCH  16  24
ATOM     22  C   UNL     1      38.630  23.304  38.576  0.00  0.00    +0.000 A 
ATOM     23  C   UNL     1      38.143  24.350  37.772  0.00  0.00    +0.000 A 
ATOM     24  C   UNL     1      38.743  24.552  36.546  0.00  0.00    +0.000 A 
ATOM     25  N   UNL     1      39.766  23.746  36.166  0.00  0.00    +0.000 NA
ATOM     26  C   UNL     1      40.232  22.737  36.947  0.00  0.00    +0.000 A 
ATOM     27  N   UNL     1      39.646  22.538  38.146  0.00  0.00    +0.000 NA
ATOM     28  N   UNL     1      41.289  21.902  36.555  0.00  0.00    +0.000 N 
ATOM     29  H   UNL     1      41.609  21.149  37.180  0.00  0.00    +0.000 HD
ATOM     30  H   UNL     1      41.745  22.042  35.642  0.00  0.00    +0.000 HD
ENDBRANCH  16  24
ENDBRANCH   1  20
TORSDOF 3
