REMARK  Name = 
REMARK  1 active torsions:
REMARK  status: ('A' for Active; 'I' for Inactive)
REMARK    1  A    between atoms: N_13  and  C_18
REMARK                            x       y       z     vdW  Elec       q    Type
REMARK                         _______ _______ _______ _____ _____    ______ ____
ROOT
ATOM      1  C   UNL     1      39.935  22.990  37.341  0.00  0.00    +0.000 A 
ATOM      2  C   UNL     1      39.131  23.144  38.492  0.00  0.00    +0.000 A 
ATOM      3  C   UNL     1      37.878  23.753  38.303  0.00  0.00    +0.000 A 
ATOM      4  N   UNL     1      37.498  24.161  37.062  0.00  0.00    +0.000 NA
ATOM      5  C   UNL     1      38.316  23.987  35.993  0.00  0.00    +0.000 A 
ATOM      6  N   UNL     1      39.518  23.408  36.136  0.00  0.00    +0.000 NA
ATOM      7  N   UNL     1      37.955  24.397  34.690  0.00  0.00    +0.000 N 
ATOM      8  C   UNL     1      38.075  23.548  33.635  0.00  0.00    +0.000 A 
ATOM      9  N   UNL     1      37.656  24.217  32.519  0.00  0.00    +0.000 NA
ATOM     10  C   UNL     1      37.280  25.456  32.856  0.00  0.00    +0.000 A 
ATOM     11  C   UNL     1      36.778  26.595  32.224  0.00  0.00    +0.000 A 
ATOM     12  O   UNL     1      36.604  26.501  30.991  0.00  0.00    +0.000 OA
ATOM     13  N   UNL     1      36.513  27.704  32.948  0.00  0.00    +0.000 N 
ATOM     14  C   UNL     1      36.712  27.764  34.270  0.00  0.00    +0.000 A 
ATOM     15  N   UNL     1      36.371  29.026  34.858  0.00  0.00    +0.000 N 
ATOM     16  N   UNL     1      37.197  26.678  34.904  0.00  0.00    +0.000 NA
ATOM     17  C   UNL     1      37.469  25.572  34.225  0.00  0.00    +0.000 A 
ATOM     18  H   UNL     1      36.489  29.171  35.871  0.00  0.00    +0.000 HD
ATOM     19  H   UNL     1      36.008  29.788  34.268  0.00  0.00    +0.000 HD
ENDROOT
BRANCH  13  20
ATOM     20  C   UNL     1      35.988  28.885  32.270  0.00  0.00    +0.000 A 
ATOM     21  C   UNL     1      36.797  29.707  31.468  0.00  0.00    +0.000 A 
ATOM     22  S   UNL     1      35.632  31.012  30.883  0.00  0.00    +0.000 S 
ATOM     23  C   UNL     1      34.214  30.215  31.840  0.00  0.00    +0.000 A 
ATOM     24  N   UNL     1      34.734  29.326  32.316  0.00  0.00    +0.000 NA
ATOM     25  N   UNL     1      32.832  30.619  31.948  0.00  0.00    +0.000 N 
ATOM     26  C   UNL     1      32.221  31.456  31.072  0.00  0.00    +0.000 A 
ATOM     27  N   UNL     1      30.929  31.616  31.476  0.00  0.00    +0.000 NA
ATOM     28  C   UNL     1      30.754  30.889  32.582  0.00  0.00    +0.000 A 
ATOM     29  C   UNL     1      29.723  30.621  33.460  0.00  0.00    +0.000 A 
ATOM     30  N   UNL     1      29.835  29.819  34.532  0.00  0.00    +0.000 NA
ATOM     31  C   UNL     1      31.033  29.218  34.790  0.00  0.00    +0.000 A 
ATOM     32  N   UNL     1      32.069  29.448  33.961  0.00  0.00    +0.000 NA
ATOM     33  C   UNL     1      31.940  30.252  32.898  0.00  0.00    +0.000 A 
ATOM     34  N   UNL     1      28.456  31.225  33.231  0.00  0.00    +0.000 N 
ATOM     35  H   UNL     1      27.673  31.039  33.874  0.00  0.00    +0.000 HD
ATOM     36  H   UNL     1      28.321  31.849  32.422  0.00  0.00    +0.000 HD
ENDBRANCH  13  20
TORSDOF 1
