REMARK  Name = 
REMARK  3 active torsions:
REMARK  status: ('A' for Active; 'I' for Inactive)
REMARK    1  A    between atoms: C_5  and  C_12
REMARK    2  A    between atoms: C_10  and  C_22
REMARK    3  A    between atoms: C_25  and  C_27
REMARK                            x       y       z     vdW  Elec       q    Type
REMARK                         _______ _______ _______ _____ _____    ______ ____
ROOT
ATOM      1  C   UNL     1      36.703  24.422  31.983  0.00  0.00    +0.000 A 
ATOM      2  C   UNL     1      36.239  25.722  32.021  0.00  0.00    +0.000 A 
ATOM      3  C   UNL     1      36.826  26.521  32.994  0.00  0.00    +0.000 A 
ATOM      4  N   UNL     1      37.748  25.982  33.774  0.00  0.00    +0.000 NA
ATOM      5  C   UNL     1      38.203  24.741  33.751  0.00  0.00    +0.000 A 
ATOM      6  N   UNL     1      37.638  23.997  32.824  0.00  0.00    +0.000 NA
ATOM      7  N   UNL     1      36.461  27.880  33.165  0.00  0.00    +0.000 N 
ATOM      8  C   UNL     1      36.475  28.840  32.220  0.00  0.00    +0.000 A 
ATOM      9  N   UNL     1      36.074  29.991  32.725  0.00  0.00    +0.000 NA
ATOM     10  C   UNL     1      35.792  29.779  34.028  0.00  0.00    +0.000 A 
ATOM     11  N   UNL     1      36.043  28.469  34.258  0.00  0.00    +0.000 NA
ENDROOT
BRANCH   5  12
ATOM     12  C   UNL     1      39.194  24.035  34.536  0.00  0.00    +0.000 A 
ATOM     13  C   UNL     1      40.354  23.536  33.964  0.00  0.00    +0.000 A 
ATOM     14  C   UNL     1      41.320  22.860  34.674  0.00  0.00    +0.000 A 
ATOM     15  C   UNL     1      41.165  22.646  36.036  0.00  0.00    +0.000 A 
ATOM     16  C   UNL     1      40.047  23.118  36.628  0.00  0.00    +0.000 A 
ATOM     17  C   UNL     1      39.890  22.907  37.981  0.00  0.00    +0.000 A 
ATOM     18  C   UNL     1      38.793  23.347  38.670  0.00  0.00    +0.000 A 
ATOM     19  C   UNL     1      37.823  24.029  37.937  0.00  0.00    +0.000 A 
ATOM     20  C   UNL     1      38.010  24.221  36.602  0.00  0.00    +0.000 A 
ATOM     21  C   UNL     1      39.103  23.787  35.900  0.00  0.00    +0.000 A 
ENDBRANCH   5  12
BRANCH  10  22
ATOM     22  C   UNL     1      35.316  30.625  35.108  0.00  0.00    +0.000 A 
ATOM     23  N   UNL     1      35.874  31.489  35.961  0.00  0.00    +0.000 NA
ATOM     24  O   UNL     1      34.978  31.991  36.750  0.00  0.00    +0.000 OA
ATOM     25  C   UNL     1      33.797  31.459  36.428  0.00  0.00    +0.000 A 
ATOM     26  N   UNL     1      33.986  30.598  35.398  0.00  0.00    +0.000 NA
BRANCH  25  27
ATOM     27  C   UNL     1      32.510  31.782  37.107  0.00  0.00    +0.000 C 
ATOM     28  C   UNL     1      31.983  33.150  37.017  0.00  0.00    +0.000 C 
ATOM     29  C   UNL     1      31.302  32.077  36.241  0.00  0.00    +0.000 C 
ENDBRANCH  25  27
ENDBRANCH  10  22
TORSDOF 3
