REMARK  Name = 
REMARK  7 active torsions:
REMARK  status: ('A' for Active; 'I' for Inactive)
REMARK    1  A    between atoms: C_1  and  N_2
REMARK    2  A    between atoms: C_1  and  C_20
REMARK    3  A    between atoms: C_4  and  C_10
REMARK    4  A    between atoms: C_20  and  C_25
REMARK    5  A    between atoms: C_20  and  C_28
REMARK    6  A    between atoms: C_20  and  C_29
REMARK    7  A    between atoms: C_22  and  N_27
REMARK                            x       y       z     vdW  Elec       q    Type
REMARK                         _______ _______ _______ _____ _____    ______ ____
ROOT
ATOM      1  N   UNL     1      37.399  27.116  32.812  0.00  0.00    +0.000 N 
ATOM      2  C   UNL     1      36.335  27.712  33.407  0.00  0.00    +0.000 A 
ATOM      3  C   UNL     1      35.652  28.749  32.794  0.00  0.00    +0.000 A 
ATOM      4  C   UNL     1      36.088  29.175  31.534  0.00  0.00    +0.000 A 
ATOM      5  N   UNL     1      35.361  30.230  30.958  0.00  0.00    +0.000 N 
ATOM      6  N   UNL     1      37.144  28.571  30.964  0.00  0.00    +0.000 NA
ATOM      7  C   UNL     1      37.766  27.575  31.600  0.00  0.00    +0.000 A 
ATOM      8  O   UNL     1      38.759  26.998  31.076  0.00  0.00    +0.000 OA
ATOM      9  H   UNL     1      35.627  30.593  30.032  0.00  0.00    +0.000 HD
ATOM     10  H   UNL     1      34.562  30.640  31.462  0.00  0.00    +0.000 HD
ENDROOT
BRANCH   3  11
ATOM     11  C   UNL     1      34.503  29.370  33.470  0.00  0.00    +0.000 A 
ATOM     12  C   UNL     1      33.283  28.966  32.946  0.00  0.00    +0.000 A 
ATOM     13  C   UNL     1      32.130  29.502  33.523  0.00  0.00    +0.000 A 
ATOM     14  C   UNL     1      32.236  30.381  34.555  0.00  0.00    +0.000 A 
ATOM     15  C   UNL     1      33.448  30.776  35.068  0.00  0.00    +0.000 A 
ATOM     16  C   UNL     1      33.621  31.671  36.122  0.00  0.00    +0.000 A 
ATOM     17  C   UNL     1      34.894  31.997  36.558  0.00  0.00    +0.000 A 
ATOM     18  C   UNL     1      36.017  31.462  35.980  0.00  0.00    +0.000 A 
ATOM     19  C   UNL     1      35.864  30.575  34.937  0.00  0.00    +0.000 A 
ATOM     20  C   UNL     1      34.607  30.262  34.518  0.00  0.00    +0.000 A 
ENDBRANCH   3  11
BRANCH   1  21
ATOM     21  C   UNL     1      37.999  26.060  33.567  0.00  0.00    +0.000 C 
BRANCH  21  22
ATOM     22  C   UNL     1      38.840  26.479  34.732  0.00  0.00    +0.000 C 
ATOM     23  C   UNL     1      38.158  27.505  35.583  0.00  0.00    +0.000 C 
ATOM     24  C   UNL     1      40.154  27.078  34.172  0.00  0.00    +0.000 C 
BRANCH  22  29
ATOM     25  C   UNL     1      40.513  23.450  36.022  0.00  0.00    +0.000 A 
ATOM     26  C   UNL     1      39.681  23.027  37.041  0.00  0.00    +0.000 A 
ATOM     27  C   UNL     1      38.562  23.791  37.264  0.00  0.00    +0.000 A 
ATOM     28  N   UNL     1      38.333  24.893  36.496  0.00  0.00    +0.000 NA
ATOM     29  C   UNL     1      39.175  25.271  35.508  0.00  0.00    +0.000 A 
ATOM     30  N   UNL     1      40.296  24.531  35.262  0.00  0.00    +0.000 NA
BRANCH  26  31
ATOM     31  N   UNL     1      40.052  21.867  37.745  0.00  0.00    +0.000 N 
ATOM     32  H   UNL     1      39.459  21.518  38.512  0.00  0.00    +0.000 HD
ATOM     33  H   UNL     1      40.916  21.366  37.494  0.00  0.00    +0.000 HD
ENDBRANCH  26  31
ENDBRANCH  22  29
ENDBRANCH  21  22
ENDBRANCH   1  21
TORSDOF 5
