REMARK  Name = 
REMARK  3 active torsions:
REMARK  status: ('A' for Active; 'I' for Inactive)
REMARK    1  A    between atoms: C_5  and  C_7
REMARK    2  A    between atoms: C_19  and  C_31
REMARK    3  A    between atoms: C_21  and  C_22
REMARK                            x       y       z     vdW  Elec       q    Type
REMARK                         _______ _______ _______ _____ _____    ______ ____
ROOT
ATOM      1  C   UNL     1      38.817  23.356  38.280  0.00  0.00    +0.000 A 
ATOM      2  C   UNL     1      38.144  23.898  37.169  0.00  0.00    +0.000 A 
ATOM      3  C   UNL     1      38.801  23.819  35.933  0.00  0.00    +0.000 A 
ATOM      4  N   UNL     1      39.975  23.240  35.990  0.00  0.00    +0.000 NA
ATOM      5  C   UNL     1      40.644  22.717  37.016  0.00  0.00    +0.000 A 
ATOM      6  N   UNL     1      40.011  22.798  38.179  0.00  0.00    +0.000 NA
ATOM      7  N   UNL     1      38.216  24.330  34.738  0.00  0.00    +0.000 N 
ATOM      8  C   UNL     1      37.866  25.614  34.631  0.00  0.00    +0.000 A 
ATOM      9  C   UNL     1      37.380  25.763  33.378  0.00  0.00    +0.000 A 
ATOM     10  N   UNL     1      37.441  24.593  32.754  0.00  0.00    +0.000 NA
ATOM     11  C   UNL     1      37.971  23.671  33.607  0.00  0.00    +0.000 A 
ENDROOT
BRANCH   5  12
ATOM     12  C   UNL     1      41.934  22.157  36.648  0.00  0.00    +0.000 A 
ATOM     13  C   UNL     1      42.091  20.805  36.423  0.00  0.00    +0.000 A 
ATOM     14  C   UNL     1      43.288  20.207  36.069  0.00  0.00    +0.000 A 
ATOM     15  C   UNL     1      44.416  20.979  35.922  0.00  0.00    +0.000 A 
ATOM     16  C   UNL     1      44.303  22.313  36.135  0.00  0.00    +0.000 A 
ATOM     17  C   UNL     1      45.443  23.077  35.982  0.00  0.00    +0.000 A 
ATOM     18  C   UNL     1      45.417  24.443  36.177  0.00  0.00    +0.000 A 
ATOM     19  C   UNL     1      44.189  25.015  36.534  0.00  0.00    +0.000 A 
ATOM     20  C   UNL     1      43.080  24.205  36.673  0.00  0.00    +0.000 A 
ATOM     21  C   UNL     1      43.089  22.854  36.484  0.00  0.00    +0.000 A 
ENDBRANCH   5  12
BRANCH  11  22
ATOM     22  C   UNL     1      38.167  22.328  33.115  0.00  0.00    +0.000 A 
ATOM     23  C   UNL     1      39.194  21.482  32.808  0.00  0.00    +0.000 A 
ATOM     24  N   UNL     1      38.872  20.300  32.279  0.00  0.00    +0.000 N 
ATOM     25  C   UNL     1      37.535  20.289  32.200  0.00  0.00    +0.000 A 
ATOM     26  C   UNL     1      36.684  19.315  31.731  0.00  0.00    +0.000 A 
ATOM     27  C   UNL     1      35.324  19.534  31.748  0.00  0.00    +0.000 A 
ATOM     28  C   UNL     1      34.816  20.720  32.234  0.00  0.00    +0.000 A 
ATOM     29  C   UNL     1      35.717  21.645  32.685  0.00  0.00    +0.000 A 
ATOM     30  C   UNL     1      37.112  21.492  32.697  0.00  0.00    +0.000 A 
ATOM     31  H   UNL     1      39.518  19.551  31.991  0.00  0.00    +0.000 HD
ENDBRANCH  11  22
BRANCH   9  32
ATOM     32  C   UNL     1      36.846  26.986  32.717  0.00  0.00    +0.000 C 
ATOM     33  F   UNL     1      36.248  27.853  33.587  0.00  0.00    +0.000 F 
ATOM     34  F   UNL     1      35.877  26.631  31.757  0.00  0.00    +0.000 F 
ATOM     35  F   UNL     1      37.861  27.600  31.962  0.00  0.00    +0.000 F 
ENDBRANCH   9  32
TORSDOF 3
