REMARK  Name = 
REMARK  3 active torsions:
REMARK  status: ('A' for Active; 'I' for Inactive)
REMARK    1  A    between atoms: C_3  and  N_7
REMARK    2  A    between atoms: C_5  and  C_12
REMARK    3  A    between atoms: C_10  and  C_22
REMARK                            x       y       z     vdW  Elec       q    Type
REMARK                         _______ _______ _______ _____ _____    ______ ____
ROOT
ATOM      1  C   UNL     1      37.996  23.121  31.347  0.00  0.00    +0.000 A 
ATOM      2  C   UNL     1      37.332  24.304  31.057  0.00  0.00    +0.000 A 
ATOM      3  C   UNL     1      37.484  25.308  32.003  0.00  0.00    +0.000 A 
ATOM      4  N   UNL     1      38.229  25.056  33.072  0.00  0.00    +0.000 NA
ATOM      5  C   UNL     1      38.870  23.937  33.367  0.00  0.00    +0.000 A 
ATOM      6  N   UNL     1      38.716  22.991  32.457  0.00  0.00    +0.000 NA
ENDROOT
BRANCH   5   7
ATOM      7  C   UNL     1      39.701  23.540  34.480  0.00  0.00    +0.000 A 
ATOM      8  C   UNL     1      41.021  23.169  34.309  0.00  0.00    +0.000 A 
ATOM      9  C   UNL     1      41.852  22.785  35.331  0.00  0.00    +0.000 A 
ATOM     10  C   UNL     1      41.387  22.748  36.634  0.00  0.00    +0.000 A 
ATOM     11  C   UNL     1      40.099  23.103  36.845  0.00  0.00    +0.000 A 
ATOM     12  C   UNL     1      39.616  23.073  38.146  0.00  0.00    +0.000 A 
ATOM     13  C   UNL     1      38.322  23.417  38.455  0.00  0.00    +0.000 A 
ATOM     14  C   UNL     1      37.507  23.801  37.406  0.00  0.00    +0.000 A 
ATOM     15  C   UNL     1      38.010  23.821  36.137  0.00  0.00    +0.000 A 
ATOM     16  C   UNL     1      39.282  23.487  35.802  0.00  0.00    +0.000 A 
ENDBRANCH   5   7
BRANCH   3  17
ATOM     17  N   UNL     1      36.869  26.579  31.856  0.00  0.00    +0.000 N 
ATOM     18  C   UNL     1      36.987  27.401  30.814  0.00  0.00    +0.000 A 
ATOM     19  N   UNL     1      36.280  28.507  31.002  0.00  0.00    +0.000 NA
ATOM     20  C   UNL     1      35.696  28.382  32.204  0.00  0.00    +0.000 A 
ATOM     21  N   UNL     1      36.075  27.193  32.700  0.00  0.00    +0.000 NA
BRANCH  20  22
ATOM     22  C   UNL     1      34.807  29.237  32.981  0.00  0.00    +0.000 A 
ATOM     23  N   UNL     1      33.594  29.770  32.796  0.00  0.00    +0.000 NA
ATOM     24  O   UNL     1      33.242  30.477  33.831  0.00  0.00    +0.000 OA
ATOM     25  C   UNL     1      34.214  30.423  34.715  0.00  0.00    +0.000 A 
ATOM     26  N   UNL     1      35.203  29.659  34.214  0.00  0.00    +0.000 NA
ATOM     27  N   UNL     1      34.163  31.080  35.952  0.00  0.00    +0.000 N 
ATOM     28  C   UNL     1      35.313  31.823  36.429  0.00  0.00    +0.000 C 
ATOM     29  C   UNL     1      34.923  33.244  36.778  0.00  0.00    +0.000 C 
ATOM     30  C   UNL     1      33.615  33.356  37.492  0.00  0.00    +0.000 C 
ATOM     31  C   UNL     1      32.519  32.516  36.871  0.00  0.00    +0.000 C 
ATOM     32  C   UNL     1      33.009  31.073  36.826  0.00  0.00    +0.000 C 
ENDBRANCH  20  22
ENDBRANCH   3  17
TORSDOF 3
