REMARK  Name = 
REMARK  3 active torsions:
REMARK  status: ('A' for Active; 'I' for Inactive)
REMARK    1  A    between atoms: N_13  and  C_18
REMARK    2  A    between atoms: C_21  and  C_23
REMARK    3  A    between atoms: C_25  and  C_26
REMARK                            x       y       z     vdW  Elec       q    Type
REMARK                         _______ _______ _______ _____ _____    ______ ____
ROOT
ATOM      1  C   UNL     1      40.043  22.895  37.264  0.00  0.00    +0.000 A 
ATOM      2  C   UNL     1      39.271  23.074  38.436  0.00  0.00    +0.000 A 
ATOM      3  C   UNL     1      38.026  23.704  38.285  0.00  0.00    +0.000 A 
ATOM      4  N   UNL     1      37.624  24.104  37.062  0.00  0.00    +0.000 NA
ATOM      5  C   UNL     1      38.401  23.911  35.955  0.00  0.00    +0.000 A 
ATOM      6  N   UNL     1      39.593  23.314  36.064  0.00  0.00    +0.000 NA
ATOM      7  N   UNL     1      38.004  24.320  34.663  0.00  0.00    +0.000 N 
ATOM      8  C   UNL     1      38.085  23.468  33.614  0.00  0.00    +0.000 A 
ATOM      9  N   UNL     1      37.637  24.135  32.514  0.00  0.00    +0.000 NA
ATOM     10  C   UNL     1      37.282  25.373  32.843  0.00  0.00    +0.000 A 
ATOM     11  C   UNL     1      36.765  26.528  32.229  0.00  0.00    +0.000 A 
ATOM     12  O   UNL     1      36.552  26.424  30.985  0.00  0.00    +0.000 OA
ATOM     13  N   UNL     1      36.530  27.643  32.950  0.00  0.00    +0.000 N 
ATOM     14  C   UNL     1      36.778  27.685  34.258  0.00  0.00    +0.000 A 
ATOM     15  N   UNL     1      36.468  28.954  34.860  0.00  0.00    +0.000 N 
ATOM     16  N   UNL     1      37.275  26.598  34.894  0.00  0.00    +0.000 NA
ATOM     17  C   UNL     1      37.516  25.485  34.202  0.00  0.00    +0.000 A 
ATOM     18  H   UNL     1      36.622  29.097  35.868  0.00  0.00    +0.000 HD
ATOM     19  H   UNL     1      36.092  29.720  34.283  0.00  0.00    +0.000 HD
ENDROOT
BRANCH  13  20
ATOM     20  C   UNL     1      35.995  28.825  32.286  0.00  0.00    +0.000 A 
ATOM     21  C   UNL     1      36.755  29.539  31.347  0.00  0.00    +0.000 A 
ATOM     22  S   UNL     1      35.609  30.904  30.843  0.00  0.00    +0.000 S 
ATOM     23  C   UNL     1      34.298  30.249  32.011  0.00  0.00    +0.000 A 
ATOM     24  N   UNL     1      34.795  29.332  32.484  0.00  0.00    +0.000 NA
BRANCH  23  25
ATOM     25  C   UNL     1      32.981  31.040  32.038  0.00  0.00    +0.000 C 
ATOM     26  C   UNL     1      31.937  30.511  32.968  0.00  0.00    +0.000 C 
ATOM     27  C   UNL     1      32.771  31.766  33.286  0.00  0.00    +0.000 C 
BRANCH  27  28
ATOM     28  C   UNL     1      33.616  31.748  34.491  0.00  0.00    +0.000 C 
ATOM     29  C   UNL     1      34.809  32.648  34.390  0.00  0.00    +0.000 C 
ATOM     30  C   UNL     1      35.595  32.705  35.677  0.00  0.00    +0.000 C 
ATOM     31  C   UNL     1      35.002  31.863  36.759  0.00  0.00    +0.000 C 
ATOM     32  C   UNL     1      33.541  32.232  36.957  0.00  0.00    +0.000 C 
ATOM     33  C   UNL     1      32.755  32.185  35.688  0.00  0.00    +0.000 C 
ENDBRANCH  27  28
ENDBRANCH  23  25
ENDBRANCH  13  20
TORSDOF 3
