REMARK  Name = 
REMARK  5 active torsions:
REMARK  status: ('A' for Active; 'I' for Inactive)
REMARK    1  A    between atoms: C_3  and  O_19
REMARK    2  A    between atoms: C_5  and  C_7
REMARK    3  A    between atoms: C_9  and  C_10
REMARK    4  A    between atoms: O_19  and  C_20
REMARK    5  A    between atoms: C_22  and  N_23
REMARK                            x       y       z     vdW  Elec       q    Type
REMARK                         _______ _______ _______ _____ _____    ______ ____
ROOT
ATOM      1  C   UNL     1      38.290  23.640  38.301  0.00  0.00    +0.000 A 
ATOM      2  C   UNL     1      39.378  22.864  37.903  0.00  0.00    +0.000 A 
ATOM      3  C   UNL     1      39.961  23.150  36.668  0.00  0.00    +0.000 A 
ATOM      4  N   UNL     1      39.465  24.162  35.892  0.00  0.00    +0.000 NA
ATOM      5  C   UNL     1      38.428  24.874  36.312  0.00  0.00    +0.000 A 
ATOM      6  N   UNL     1      37.833  24.626  37.504  0.00  0.00    +0.000 NA
ENDROOT
BRANCH   5   7
ATOM      7  C   UNL     1      37.764  26.025  35.636  0.00  0.00    +0.000 C 
ATOM      8  C   UNL     1      38.510  27.405  35.817  0.00  0.00    +0.000 C 
ATOM      9  C   UNL     1      38.399  26.737  34.503  0.00  0.00    +0.000 C 
BRANCH   9  10
ATOM     10  C   UNL     1      37.668  27.439  33.458  0.00  0.00    +0.000 A 
ATOM     11  C   UNL     1      36.440  28.015  33.815  0.00  0.00    +0.000 A 
ATOM     12  N   UNL     1      35.908  28.595  32.723  0.00  0.00    +0.000 N 
ATOM     13  C   UNL     1      36.704  28.445  31.649  0.00  0.00    +0.000 A 
ATOM     14  C   UNL     1      36.720  28.794  30.315  0.00  0.00    +0.000 A 
ATOM     15  C   UNL     1      37.771  28.447  29.480  0.00  0.00    +0.000 A 
ATOM     16  C   UNL     1      38.847  27.721  30.000  0.00  0.00    +0.000 A 
ATOM     17  C   UNL     1      38.823  27.379  31.328  0.00  0.00    +0.000 A 
ATOM     18  C   UNL     1      37.771  27.732  32.136  0.00  0.00    +0.000 A 
ATOM     19  H   UNL     1      35.005  29.091  32.711  0.00  0.00    +0.000 HD
ENDBRANCH   9  10
ENDBRANCH   5   7
BRANCH   3  20
ATOM     20  O   UNL     1      41.012  22.314  36.405  0.00  0.00    +0.000 OA
BRANCH  20  21
ATOM     21  C   UNL     1      42.384  22.668  36.671  0.00  0.00    +0.000 C 
ATOM     22  C   UNL     1      43.363  21.734  36.166  0.00  0.00    +0.000 C 
ATOM     23  C   UNL     1      43.139  22.975  35.351  0.00  0.00    +0.000 C 
BRANCH  23  24
ATOM     24  N   UNL     1      44.195  23.967  35.390  0.00  0.00    +0.000 N 
ATOM     25  C   UNL     1      45.479  23.919  35.839  0.00  0.00    +0.000 A 
ATOM     26  N   UNL     1      46.058  25.129  35.645  0.00  0.00    +0.000 NA
ATOM     27  C   UNL     1      45.115  25.929  35.069  0.00  0.00    +0.000 A 
ATOM     28  C   UNL     1      45.227  27.254  34.678  0.00  0.00    +0.000 A 
ATOM     29  O   UNL     1      46.280  27.931  34.816  0.00  0.00    +0.000 OA
ATOM     30  N   UNL     1      44.113  27.800  34.125  0.00  0.00    +0.000 N 
ATOM     31  C   UNL     1      42.987  27.104  33.969  0.00  0.00    +0.000 A 
ATOM     32  N   UNL     1      41.785  27.595  33.404  0.00  0.00    +0.000 N 
ATOM     33  N   UNL     1      42.912  25.856  34.346  0.00  0.00    +0.000 NA
ATOM     34  C   UNL     1      43.967  25.196  34.916  0.00  0.00    +0.000 A 
ATOM     35  H   UNL     1      44.139  28.782  33.817  0.00  0.00    +0.000 HD
ATOM     36  H   UNL     1      40.964  26.979  33.325  0.00  0.00    +0.000 HD
ATOM     37  H   UNL     1      41.732  28.569  33.072  0.00  0.00    +0.000 HD
ENDBRANCH  23  24
ENDBRANCH  20  21
ENDBRANCH   3  20
TORSDOF 5
