REMARK  Name = 
REMARK  4 active torsions:
REMARK  status: ('A' for Active; 'I' for Inactive)
REMARK    1  A    between atoms: C_1  and  N_36
REMARK    2  A    between atoms: C_9  and  C_30
REMARK    3  A    between atoms: C_11  and  C_12
REMARK    4  A    between atoms: C_27  and  S_33
REMARK                            x       y       z     vdW  Elec       q    Type
REMARK                         _______ _______ _______ _____ _____    ______ ____
ROOT
ATOM      1  C   UNL     1      39.173  23.514  36.106  0.00  0.00    +0.000 A 
ATOM      2  C   UNL     1      40.581  23.655  35.961  0.00  0.00    +0.000 A 
ATOM      3  C   UNL     1      41.030  24.727  35.235  0.00  0.00    +0.000 A 
ATOM      4  N   UNL     1      40.086  25.538  34.734  0.00  0.00    +0.000 NA
ATOM      5  C   UNL     1      38.806  25.433  34.849  0.00  0.00    +0.000 A 
ATOM      6  N   UNL     1      38.331  24.388  35.558  0.00  0.00    +0.000 NA
ATOM      7  N   UNL     1      38.036  26.431  34.224  0.00  0.00    +0.000 N 
ATOM      8  C   UNL     1      37.321  27.284  35.008  0.00  0.00    +0.000 A 
ATOM      9  C   UNL     1      36.647  28.170  34.197  0.00  0.00    +0.000 A 
ATOM     10  N   UNL     1      36.953  27.851  32.950  0.00  0.00    +0.000 NA
ATOM     11  C   UNL     1      37.819  26.766  32.952  0.00  0.00    +0.000 A 
ENDROOT
BRANCH  11  12
ATOM     12  C   UNL     1      38.329  26.143  31.774  0.00  0.00    +0.000 A 
ATOM     13  C   UNL     1      38.774  26.886  30.664  0.00  0.00    +0.000 A 
ATOM     14  N   UNL     1      39.179  26.021  29.680  0.00  0.00    +0.000 NA
ATOM     15  C   UNL     1      38.980  24.734  30.191  0.00  0.00    +0.000 A 
ATOM     16  N   UNL     1      38.489  24.893  31.411  0.00  0.00    +0.000 N 
ATOM     17  C   UNL     1      38.394  23.580  31.880  0.00  0.00    +0.000 A 
ATOM     18  N   UNL     1      39.541  23.152  32.418  0.00  0.00    +0.000 NA
ATOM     19  C   UNL     1      39.636  21.874  32.869  0.00  0.00    +0.000 A 
ATOM     20  N   UNL     1      38.639  20.992  32.814  0.00  0.00    +0.000 NA
ATOM     21  C   UNL     1      37.467  21.379  32.281  0.00  0.00    +0.000 A 
ATOM     22  C   UNL     1      36.361  20.579  32.158  0.00  0.00    +0.000 A 
ATOM     23  C   UNL     1      35.199  21.024  31.606  0.00  0.00    +0.000 A 
ATOM     24  C   UNL     1      35.122  22.338  31.148  0.00  0.00    +0.000 A 
ATOM     25  C   UNL     1      36.193  23.187  31.244  0.00  0.00    +0.000 A 
ATOM     26  C   UNL     1      37.337  22.691  31.806  0.00  0.00    +0.000 A 
ENDBRANCH  11  12
BRANCH   9  30
ATOM     27  C   UNL     1      34.142  31.292  35.468  0.00  0.00    +0.000 A 
ATOM     28  C   UNL     1      35.489  31.342  35.847  0.00  0.00    +0.000 A 
ATOM     29  C   UNL     1      36.254  30.281  35.393  0.00  0.00    +0.000 A 
ATOM     30  C   UNL     1      35.765  29.251  34.633  0.00  0.00    +0.000 A 
ATOM     31  C   UNL     1      34.430  29.236  34.278  0.00  0.00    +0.000 A 
ATOM     32  C   UNL     1      33.626  30.258  34.699  0.00  0.00    +0.000 A 
BRANCH  27  33
ATOM     33  S   UNL     1      33.020  32.530  35.937  0.00  0.00    +0.000 S 
ATOM     34  O   UNL     1      33.126  32.869  37.397  0.00  0.00    +0.000 OA
ATOM     35  O   UNL     1      31.629  32.062  35.592  0.00  0.00    +0.000 OA
ATOM     36  H   UNL     1      33.316  33.681  35.256  0.00  0.00    +0.000 HD
ENDBRANCH  27  33
ENDBRANCH   9  30
BRANCH   1  37
ATOM     37  N   UNL     1      38.664  22.404  36.877  0.00  0.00    +0.000 N 
ATOM     38  H   UNL     1      37.648  22.282  36.995  0.00  0.00    +0.000 HD
ATOM     39  H   UNL     1      39.317  21.734  37.309  0.00  0.00    +0.000 HD
ENDBRANCH   1  37
TORSDOF 4
