REMARK  Name = 
REMARK  3 active torsions:
REMARK  status: ('A' for Active; 'I' for Inactive)
REMARK    1  A    between atoms: C_1  and  N_36
REMARK    2  A    between atoms: C_9  and  N_27
REMARK    3  A    between atoms: C_11  and  C_12
REMARK                            x       y       z     vdW  Elec       q    Type
REMARK                         _______ _______ _______ _____ _____    ______ ____
ROOT
ATOM      1  C   UNL     1      38.945  23.544  36.094  0.00  0.00    +0.000 A 
ATOM      2  C   UNL     1      40.358  23.660  35.999  0.00  0.00    +0.000 A 
ATOM      3  C   UNL     1      40.852  24.723  35.288  0.00  0.00    +0.000 A 
ATOM      4  N   UNL     1      39.940  25.549  34.753  0.00  0.00    +0.000 NA
ATOM      5  C   UNL     1      38.643  25.464  34.827  0.00  0.00    +0.000 A 
ATOM      6  N   UNL     1      38.138  24.430  35.518  0.00  0.00    +0.000 NA
ATOM      7  N   UNL     1      37.924  26.475  34.172  0.00  0.00    +0.000 N 
ATOM      8  C   UNL     1      37.204  27.345  34.930  0.00  0.00    +0.000 A 
ATOM      9  C   UNL     1      36.580  28.249  34.097  0.00  0.00    +0.000 A 
ATOM     10  N   UNL     1      36.925  27.921  32.853  0.00  0.00    +0.000 NA
ATOM     11  C   UNL     1      37.760  26.818  32.893  0.00  0.00    +0.000 A 
ENDROOT
BRANCH  11  12
ATOM     12  C   UNL     1      38.299  26.181  31.735  0.00  0.00    +0.000 A 
ATOM     13  C   UNL     1      38.766  26.913  30.625  0.00  0.00    +0.000 A 
ATOM     14  N   UNL     1      39.197  26.038  29.660  0.00  0.00    +0.000 NA
ATOM     15  C   UNL     1      38.993  24.755  30.182  0.00  0.00    +0.000 A 
ATOM     16  N   UNL     1      38.473  24.928  31.389  0.00  0.00    +0.000 N 
ATOM     17  C   UNL     1      38.375  23.619  31.873  0.00  0.00    +0.000 A 
ATOM     18  N   UNL     1      39.511  23.204  32.440  0.00  0.00    +0.000 NA
ATOM     19  C   UNL     1      39.602  21.932  32.909  0.00  0.00    +0.000 A 
ATOM     20  N   UNL     1      38.610  21.044  32.841  0.00  0.00    +0.000 NA
ATOM     21  C   UNL     1      37.444  21.422  32.276  0.00  0.00    +0.000 A 
ATOM     22  C   UNL     1      36.346  20.615  32.137  0.00  0.00    +0.000 A 
ATOM     23  C   UNL     1      35.199  21.046  31.556  0.00  0.00    +0.000 A 
ATOM     24  C   UNL     1      35.126  22.353  31.080  0.00  0.00    +0.000 A 
ATOM     25  C   UNL     1      36.190  23.211  31.191  0.00  0.00    +0.000 A 
ATOM     26  C   UNL     1      37.323  22.727  31.785  0.00  0.00    +0.000 A 
ENDBRANCH  11  12
BRANCH   9  27
ATOM     27  N   UNL     1      35.719  29.338  34.494  0.00  0.00    +0.000 N 
ATOM     28  C   UNL     1      36.023  30.262  35.425  0.00  0.00    +0.000 A 
ATOM     29  N   UNL     1      35.009  31.118  35.543  0.00  0.00    +0.000 NA
ATOM     30  C   UNL     1      34.072  30.701  34.660  0.00  0.00    +0.000 A 
ATOM     31  C   UNL     1      32.817  31.225  34.366  0.00  0.00    +0.000 A 
ATOM     32  N   UNL     1      32.061  30.622  33.437  0.00  0.00    +0.000 NA
ATOM     33  C   UNL     1      32.486  29.524  32.782  0.00  0.00    +0.000 A 
ATOM     34  N   UNL     1      33.713  28.993  33.055  0.00  0.00    +0.000 NA
ATOM     35  C   UNL     1      34.500  29.567  33.978  0.00  0.00    +0.000 A 
ENDBRANCH   9  27
BRANCH   1  36
ATOM     36  N   UNL     1      38.387  22.444  36.846  0.00  0.00    +0.000 N 
ATOM     37  H   UNL     1      37.365  22.341  36.927  0.00  0.00    +0.000 HD
ATOM     38  H   UNL     1      39.011  21.762  37.301  0.00  0.00    +0.000 HD
ENDBRANCH   1  36
TORSDOF 3
