REMARK  Name = 
REMARK  2 active torsions:
REMARK  status: ('A' for Active; 'I' for Inactive)
REMARK    1  A    between atoms: C_1  and  C_15
REMARK    2  A    between atoms: C_15  and  C_18
REMARK                            x       y       z     vdW  Elec       q    Type
REMARK                         _______ _______ _______ _____ _____    ______ ____
ROOT
ATOM      1  C   UNL     1      38.272  24.677  33.379  0.00  0.00    +0.000 A 
ATOM      2  C   UNL     1      37.522  25.741  32.977  0.00  0.00    +0.000 A 
ATOM      3  C   UNL     1      36.462  25.653  32.119  0.00  0.00    +0.000 A 
ATOM      4  N   UNL     1      36.142  24.427  31.641  0.00  0.00    +0.000 NA
ATOM      5  C   UNL     1      36.855  23.349  32.011  0.00  0.00    +0.000 A 
ATOM      6  N   UNL     1      37.884  23.462  32.850  0.00  0.00    +0.000 NA
ATOM      7  N   UNL     1      36.619  22.000  31.578  0.00  0.00    +0.000 N 
ATOM      8  C   UNL     1      37.586  21.547  30.718  0.00  0.00    +0.000 A 
ATOM      9  C   UNL     1      37.503  20.265  30.210  0.00  0.00    +0.000 A 
ATOM     10  C   UNL     1      36.455  19.489  30.585  0.00  0.00    +0.000 A 
ATOM     11  N   UNL     1      36.371  18.174  30.061  0.00  0.00    +0.000 N 
ATOM     12  N   UNL     1      35.534  19.948  31.415  0.00  0.00    +0.000 NA
ATOM     13  C   UNL     1      35.607  21.190  31.913  0.00  0.00    +0.000 A 
ATOM     14  O   UNL     1      34.800  21.730  32.702  0.00  0.00    +0.000 OA
ATOM     15  H   UNL     1      35.587  17.562  30.328  0.00  0.00    +0.000 HD
ATOM     16  H   UNL     1      37.094  17.831  29.413  0.00  0.00    +0.000 HD
ENDROOT
BRANCH   1  17
ATOM     17  C   UNL     1      39.425  24.737  34.306  0.00  0.00    +0.000 C 
BRANCH  17  20
ATOM     18  C   UNL     1      37.751  24.214  37.693  0.00  0.00    +0.000 A 
ATOM     19  C   UNL     1      38.022  24.719  36.385  0.00  0.00    +0.000 A 
ATOM     20  C   UNL     1      39.109  24.231  35.679  0.00  0.00    +0.000 A 
ATOM     21  N   UNL     1      39.887  23.271  36.279  0.00  0.00    +0.000 NA
ATOM     22  C   UNL     1      39.602  22.824  37.503  0.00  0.00    +0.000 A 
ATOM     23  N   UNL     1      38.559  23.277  38.204  0.00  0.00    +0.000 NA
ATOM     24  N   UNL     1      40.469  21.825  38.040  0.00  0.00    +0.000 N 
ATOM     25  C   UNL     1      41.569  21.346  37.300  0.00  0.00    +0.000 C 
ATOM     26  N   UNL     1      41.821  21.871  36.147  0.00  0.00    +0.000 NA
ATOM     27  N   UNL     1      42.355  20.302  37.860  0.00  0.00    +0.000 N 
ATOM     28  H   UNL     1      42.643  21.490  35.628  0.00  0.00    +0.000 HD
ATOM     29  H   UNL     1      40.288  21.449  38.982  0.00  0.00    +0.000 HD
ATOM     30  H   UNL     1      43.165  19.932  37.342  0.00  0.00    +0.000 HD
ATOM     31  H   UNL     1      42.115  19.915  38.784  0.00  0.00    +0.000 HD
ENDBRANCH  17  20
ENDBRANCH   1  17
TORSDOF 2
