REMARK  Name = 
REMARK  3 active torsions:
REMARK  status: ('A' for Active; 'I' for Inactive)
REMARK    1  A    between atoms: C_5  and  C_12
REMARK    2  A    between atoms: C_10  and  C_22
REMARK    3  A    between atoms: C_25  and  C_27
REMARK                            x       y       z     vdW  Elec       q    Type
REMARK                         _______ _______ _______ _____ _____    ______ ____
ROOT
ATOM      1  C   UNL     1      36.503  24.297  31.856  0.00  0.00    +0.000 A 
ATOM      2  C   UNL     1      36.118  25.621  31.885  0.00  0.00    +0.000 A 
ATOM      3  C   UNL     1      36.762  26.402  32.841  0.00  0.00    +0.000 A 
ATOM      4  N   UNL     1      37.657  25.817  33.608  0.00  0.00    +0.000 NA
ATOM      5  C   UNL     1      38.043  24.555  33.598  0.00  0.00    +0.000 A 
ATOM      6  N   UNL     1      37.424  23.835  32.692  0.00  0.00    +0.000 NA
ATOM      7  N   UNL     1      36.477  27.777  32.996  0.00  0.00    +0.000 N 
ATOM      8  C   UNL     1      36.526  28.721  32.041  0.00  0.00    +0.000 A 
ATOM      9  N   UNL     1      36.197  29.906  32.529  0.00  0.00    +0.000 NA
ATOM     10  C   UNL     1      35.928  29.731  33.832  0.00  0.00    +0.000 A 
ATOM     11  N   UNL     1      36.107  28.416  34.086  0.00  0.00    +0.000 NA
ENDROOT
BRANCH   5  12
ATOM     12  C   UNL     1      38.999  23.813  34.378  0.00  0.00    +0.000 A 
ATOM     13  C   UNL     1      40.085  23.169  33.792  0.00  0.00    +0.000 A 
ATOM     14  C   UNL     1      41.020  22.452  34.493  0.00  0.00    +0.000 A 
ATOM     15  C   UNL     1      40.920  22.332  35.861  0.00  0.00    +0.000 A 
ATOM     16  C   UNL     1      39.885  22.938  36.480  0.00  0.00    +0.000 A 
ATOM     17  C   UNL     1      39.779  22.822  37.853  0.00  0.00    +0.000 A 
ATOM     18  C   UNL     1      38.770  23.397  38.563  0.00  0.00    +0.000 A 
ATOM     19  C   UNL     1      37.822  24.127  37.839  0.00  0.00    +0.000 A 
ATOM     20  C   UNL     1      37.957  24.222  36.480  0.00  0.00    +0.000 A 
ATOM     21  C   UNL     1      38.951  23.656  35.763  0.00  0.00    +0.000 A 
ENDBRANCH   5  12
BRANCH  10  22
ATOM     22  C   UNL     1      35.518  30.610  34.912  0.00  0.00    +0.000 A 
ATOM     23  N   UNL     1      36.142  31.520  35.688  0.00  0.00    +0.000 NA
ATOM     24  O   UNL     1      35.297  32.044  36.528  0.00  0.00    +0.000 OA
ATOM     25  C   UNL     1      34.118  31.494  36.323  0.00  0.00    +0.000 A 
ATOM     26  N   UNL     1      34.224  30.592  35.317  0.00  0.00    +0.000 NA
BRANCH  25  27
ATOM     27  C   UNL     1      32.830  31.778  37.050  0.00  0.00    +0.000 C 
ATOM     28  F   UNL     1      32.907  32.945  37.746  0.00  0.00    +0.000 F 
ATOM     29  F   UNL     1      31.811  31.827  36.129  0.00  0.00    +0.000 F 
ATOM     30  F   UNL     1      32.536  30.750  37.941  0.00  0.00    +0.000 F 
ENDBRANCH  25  27
ENDBRANCH  10  22
TORSDOF 3
