REMARK  Name = 
REMARK  5 active torsions:
REMARK  status: ('A' for Active; 'I' for Inactive)
REMARK    1  A    between atoms: C_1  and  C_23
REMARK    2  A    between atoms: N_5  and  C_6
REMARK    3  A    between atoms: C_23  and  C_24
REMARK    4  A    between atoms: C_24  and  C_28
REMARK    5  A    between atoms: C_25  and  C_32
REMARK                            x       y       z     vdW  Elec       q    Type
REMARK                         _______ _______ _______ _____ _____    ______ ____
ROOT
ATOM      1  C   UNL     1      35.136  31.353  34.177  0.00  0.00    +0.000 A 
ATOM      2  C   UNL     1      35.969  31.818  35.199  0.00  0.00    +0.000 A 
ATOM      3  C   UNL     1      35.523  32.123  36.474  0.00  0.00    +0.000 A 
ATOM      4  N   UNL     1      34.208  31.964  36.752  0.00  0.00    +0.000 NA
ATOM      5  C   UNL     1      33.415  31.511  35.749  0.00  0.00    +0.000 A 
ATOM      6  N   UNL     1      33.838  31.214  34.513  0.00  0.00    +0.000 NA
ATOM      7  N   UNL     1      32.039  31.351  36.064  0.00  0.00    +0.000 N 
ATOM      8  C   UNL     1      31.093  32.330  36.130  0.00  0.00    +0.000 A 
ATOM      9  N   UNL     1      29.887  31.834  36.456  0.00  0.00    +0.000 NA
ATOM     10  C   UNL     1      30.021  30.498  36.612  0.00  0.00    +0.000 A 
ATOM     11  C   UNL     1      29.139  29.493  36.939  0.00  0.00    +0.000 A 
ATOM     12  O   UNL     1      27.929  29.796  37.154  0.00  0.00    +0.000 OA
ATOM     13  N   UNL     1      29.580  28.221  37.021  0.00  0.00    +0.000 N 
ATOM     14  C   UNL     1      30.876  27.956  36.782  0.00  0.00    +0.000 A 
ATOM     15  N   UNL     1      31.381  26.610  36.861  0.00  0.00    +0.000 N 
ATOM     16  N   UNL     1      31.744  28.944  36.460  0.00  0.00    +0.000 NA
ATOM     17  C   UNL     1      31.355  30.233  36.365  0.00  0.00    +0.000 A 
ATOM     18  H   UNL     1      28.930  27.460  37.264  0.00  0.00    +0.000 HD
ATOM     19  H   UNL     1      32.377  26.422  36.675  0.00  0.00    +0.000 HD
ATOM     20  H   UNL     1      30.747  25.835  37.103  0.00  0.00    +0.000 HD
ENDROOT
BRANCH   1  25
ATOM     21  C   UNL     1      35.981  29.830  32.402  0.00  0.00    +0.000 A 
ATOM     22  C   UNL     1      36.529  30.128  31.176  0.00  0.00    +0.000 A 
ATOM     23  N   UNL     1      36.584  31.461  30.976  0.00  0.00    +0.000 NA
ATOM     24  C   UNL     1      36.082  32.040  32.050  0.00  0.00    +0.000 A 
ATOM     25  N   UNL     1      35.719  31.076  32.910  0.00  0.00    +0.000 N 
BRANCH  21  26
ATOM     26  C   UNL     1      35.698  28.584  33.104  0.00  0.00    +0.000 C 
BRANCH  26  27
ATOM     27  C   UNL     1      36.363  28.382  34.415  0.00  0.00    +0.000 C 
BRANCH  27  31
ATOM     28  C   UNL     1      38.011  25.246  35.175  0.00  0.00    +0.000 A 
ATOM     29  N   UNL     1      37.692  25.132  33.844  0.00  0.00    +0.000 NA
ATOM     30  O   UNL     1      37.086  26.242  33.494  0.00  0.00    +0.000 OA
ATOM     31  C   UNL     1      36.993  27.058  34.500  0.00  0.00    +0.000 A 
ATOM     32  N   UNL     1      37.552  26.473  35.546  0.00  0.00    +0.000 NA
BRANCH  28  35
ATOM     33  C   UNL     1      38.819  23.329  38.256  0.00  0.00    +0.000 A 
ATOM     34  C   UNL     1      38.122  24.199  37.407  0.00  0.00    +0.000 A 
ATOM     35  C   UNL     1      38.674  24.365  36.106  0.00  0.00    +0.000 A 
ATOM     36  N   UNL     1      39.825  23.679  35.778  0.00  0.00    +0.000 NA
ATOM     37  C   UNL     1      40.427  22.870  36.643  0.00  0.00    +0.000 A 
ATOM     38  N   UNL     1      39.944  22.691  37.861  0.00  0.00    +0.000 NA
ENDBRANCH  28  35
ENDBRANCH  27  31
ENDBRANCH  26  27
ENDBRANCH  21  26
ENDBRANCH   1  25
TORSDOF 5
