REMARK  Name = 
REMARK  1 active torsions:
REMARK  status: ('A' for Active; 'I' for Inactive)
REMARK    1  A    between atoms: N_13  and  C_18
REMARK                            x       y       z     vdW  Elec       q    Type
REMARK                         _______ _______ _______ _____ _____    ______ ____
ROOT
ATOM      1  C   UNL     1      40.001  22.936  37.367  0.00  0.00    +0.000 A 
ATOM      2  C   UNL     1      39.187  23.105  38.513  0.00  0.00    +0.000 A 
ATOM      3  C   UNL     1      37.938  23.704  38.309  0.00  0.00    +0.000 A 
ATOM      4  N   UNL     1      37.564  24.088  37.066  0.00  0.00    +0.000 NA
ATOM      5  C   UNL     1      38.379  23.905  35.999  0.00  0.00    +0.000 A 
ATOM      6  N   UNL     1      39.590  23.333  36.146  0.00  0.00    +0.000 NA
ATOM      7  N   UNL     1      38.019  24.295  34.689  0.00  0.00    +0.000 N 
ATOM      8  C   UNL     1      38.143  23.434  33.645  0.00  0.00    +0.000 A 
ATOM      9  N   UNL     1      37.722  24.091  32.527  0.00  0.00    +0.000 NA
ATOM     10  C   UNL     1      37.341  25.328  32.838  0.00  0.00    +0.000 A 
ATOM     11  C   UNL     1      36.835  26.464  32.204  0.00  0.00    +0.000 A 
ATOM     12  O   UNL     1      36.662  26.351  30.965  0.00  0.00    +0.000 OA
ATOM     13  N   UNL     1      36.558  27.595  32.911  0.00  0.00    +0.000 N 
ATOM     14  C   UNL     1      36.759  27.658  34.223  0.00  0.00    +0.000 A 
ATOM     15  N   UNL     1      36.416  28.918  34.800  0.00  0.00    +0.000 N 
ATOM     16  N   UNL     1      37.250  26.573  34.869  0.00  0.00    +0.000 NA
ATOM     17  C   UNL     1      37.528  25.462  34.208  0.00  0.00    +0.000 A 
ATOM     18  H   UNL     1      36.535  29.070  35.812  0.00  0.00    +0.000 HD
ATOM     19  H   UNL     1      36.050  29.674  34.205  0.00  0.00    +0.000 HD
ENDROOT
BRANCH  13  20
ATOM     20  C   UNL     1      36.031  28.759  32.220  0.00  0.00    +0.000 A 
ATOM     21  C   UNL     1      36.832  29.520  31.344  0.00  0.00    +0.000 A 
ATOM     22  S   UNL     1      35.678  30.839  30.769  0.00  0.00    +0.000 S 
ATOM     23  C   UNL     1      34.289  30.121  31.831  0.00  0.00    +0.000 A 
ATOM     24  N   UNL     1      34.796  29.233  32.319  0.00  0.00    +0.000 NA
ATOM     25  N   UNL     1      32.921  30.590  31.984  0.00  0.00    +0.000 N 
ATOM     26  C   UNL     1      32.373  31.535  31.231  0.00  0.00    +0.000 A 
ATOM     27  N   UNL     1      31.086  31.726  31.645  0.00  0.00    +0.000 NA
ATOM     28  C   UNL     1      30.838  30.883  32.668  0.00  0.00    +0.000 A 
ATOM     29  C   UNL     1      29.735  30.632  33.466  0.00  0.00    +0.000 A 
ATOM     30  N   UNL     1      29.840  29.693  34.424  0.00  0.00    +0.000 NA
ATOM     31  C   UNL     1      30.982  28.980  34.642  0.00  0.00    +0.000 A 
ATOM     32  N   UNL     1      32.052  29.237  33.854  0.00  0.00    +0.000 NA
ATOM     33  C   UNL     1      32.010  30.165  32.878  0.00  0.00    +0.000 A 
ENDBRANCH  13  20
TORSDOF 1
