REMARK  Name = 
REMARK  3 active torsions:
REMARK  status: ('A' for Active; 'I' for Inactive)
REMARK    1  A    between atoms: N_13  and  C_18
REMARK    2  A    between atoms: C_21  and  C_23
REMARK    3  A    between atoms: C_25  and  C_26
REMARK                            x       y       z     vdW  Elec       q    Type
REMARK                         _______ _______ _______ _____ _____    ______ ____
ROOT
ATOM      1  C   UNL     1      41.511  21.610  36.159  0.00  0.00    +0.000 A 
ATOM      2  C   UNL     1      41.190  21.862  37.517  0.00  0.00    +0.000 A 
ATOM      3  C   UNL     1      40.003  22.570  37.765  0.00  0.00    +0.000 A 
ATOM      4  N   UNL     1      39.239  22.969  36.724  0.00  0.00    +0.000 NA
ATOM      5  C   UNL     1      39.583  22.707  35.438  0.00  0.00    +0.000 A 
ATOM      6  N   UNL     1      40.709  22.034  35.170  0.00  0.00    +0.000 NA
ATOM      7  N   UNL     1      38.803  23.113  34.330  0.00  0.00    +0.000 N 
ATOM      8  C   UNL     1      38.485  22.241  33.347  0.00  0.00    +0.000 A 
ATOM      9  N   UNL     1      37.740  22.920  32.439  0.00  0.00    +0.000 NA
ATOM     10  C   UNL     1      37.579  24.185  32.815  0.00  0.00    +0.000 A 
ATOM     11  C   UNL     1      36.963  25.364  32.380  0.00  0.00    +0.000 A 
ATOM     12  O   UNL     1      36.345  25.242  31.277  0.00  0.00    +0.000 OA
ATOM     13  N   UNL     1      37.049  26.515  33.112  0.00  0.00    +0.000 N 
ATOM     14  C   UNL     1      37.707  26.562  34.244  0.00  0.00    +0.000 A 
ATOM     15  N   UNL     1      37.672  27.853  34.852  0.00  0.00    +0.000 N 
ATOM     16  N   UNL     1      38.319  25.441  34.704  0.00  0.00    +0.000 NA
ATOM     17  C   UNL     1      38.256  24.308  34.019  0.00  0.00    +0.000 A 
ATOM     18  H   UNL     1      38.155  28.014  35.748  0.00  0.00    +0.000 HD
ATOM     19  H   UNL     1      37.164  28.624  34.395  0.00  0.00    +0.000 HD
ENDROOT
BRANCH  13  20
ATOM     20  C   UNL     1      36.384  27.709  32.600  0.00  0.00    +0.000 A 
ATOM     21  C   UNL     1      36.937  28.474  31.561  0.00  0.00    +0.000 A 
ATOM     22  S   UNL     1      35.688  29.824  31.336  0.00  0.00    +0.000 S 
ATOM     23  C   UNL     1      34.634  29.104  32.701  0.00  0.00    +0.000 A 
ATOM     24  N   UNL     1      35.237  28.198  33.020  0.00  0.00    +0.000 NA
BRANCH  23  25
ATOM     25  C   UNL     1      33.308  29.843  33.020  0.00  0.00    +0.000 C 
ATOM     26  C   UNL     1      32.094  29.014  33.068  0.00  0.00    +0.000 C 
ATOM     27  C   UNL     1      32.816  29.497  34.359  0.00  0.00    +0.000 C 
BRANCH  27  28
ATOM     28  C   UNL     1      32.078  30.546  35.107  0.00  0.00    +0.000 A 
ATOM     29  C   UNL     1      30.714  30.744  35.136  0.00  0.00    +0.000 A 
ATOM     30  C   UNL     1      30.181  31.775  35.890  0.00  0.00    +0.000 A 
ATOM     31  C   UNL     1      30.965  32.645  36.641  0.00  0.00    +0.000 A 
ATOM     32  C   UNL     1      32.340  32.429  36.600  0.00  0.00    +0.000 A 
ATOM     33  C   UNL     1      33.139  33.286  37.342  0.00  0.00    +0.000 A 
ATOM     34  C   UNL     1      34.510  33.132  37.349  0.00  0.00    +0.000 A 
ATOM     35  C   UNL     1      35.085  32.115  36.609  0.00  0.00    +0.000 A 
ATOM     36  C   UNL     1      34.264  31.278  35.881  0.00  0.00    +0.000 A 
ATOM     37  C   UNL     1      32.883  31.393  35.843  0.00  0.00    +0.000 A 
ENDBRANCH  27  28
ENDBRANCH  23  25
ENDBRANCH  13  20
TORSDOF 3
