REMARK  Name = 
REMARK  3 active torsions:
REMARK  status: ('A' for Active; 'I' for Inactive)
REMARK    1  A    between atoms: C_1  and  N_38
REMARK    2  A    between atoms: C_9  and  N_27
REMARK    3  A    between atoms: C_11  and  C_12
REMARK                            x       y       z     vdW  Elec       q    Type
REMARK                         _______ _______ _______ _____ _____    ______ ____
ROOT
ATOM      1  C   UNL     1      39.000  23.558  36.105  0.00  0.00    +0.000 A 
ATOM      2  C   UNL     1      40.411  23.674  35.981  0.00  0.00    +0.000 A 
ATOM      3  C   UNL     1      40.891  24.758  35.296  0.00  0.00    +0.000 A 
ATOM      4  N   UNL     1      39.972  25.602  34.809  0.00  0.00    +0.000 NA
ATOM      5  C   UNL     1      38.682  25.520  34.906  0.00  0.00    +0.000 A 
ATOM      6  N   UNL     1      38.185  24.463  35.576  0.00  0.00    +0.000 NA
ATOM      7  N   UNL     1      37.948  26.554  34.304  0.00  0.00    +0.000 N 
ATOM      8  C   UNL     1      37.249  27.401  35.106  0.00  0.00    +0.000 A 
ATOM      9  C   UNL     1      36.604  28.332  34.319  0.00  0.00    +0.000 A 
ATOM     10  N   UNL     1      36.919  28.040  33.056  0.00  0.00    +0.000 NA
ATOM     11  C   UNL     1      37.752  26.937  33.041  0.00  0.00    +0.000 A 
ENDROOT
BRANCH  11  12
ATOM     12  C   UNL     1      38.263  26.338  31.852  0.00  0.00    +0.000 A 
ATOM     13  C   UNL     1      38.691  27.105  30.750  0.00  0.00    +0.000 A 
ATOM     14  N   UNL     1      39.102  26.264  29.746  0.00  0.00    +0.000 NA
ATOM     15  C   UNL     1      38.923  24.965  30.238  0.00  0.00    +0.000 A 
ATOM     16  N   UNL     1      38.438  25.098  31.464  0.00  0.00    +0.000 N 
ATOM     17  C   UNL     1      38.361  23.775  31.911  0.00  0.00    +0.000 A 
ATOM     18  N   UNL     1      39.516  23.352  32.434  0.00  0.00    +0.000 NA
ATOM     19  C   UNL     1      39.632  22.069  32.863  0.00  0.00    +0.000 A 
ATOM     20  N   UNL     1      38.644  21.175  32.797  0.00  0.00    +0.000 NA
ATOM     21  C   UNL     1      37.460  21.557  32.277  0.00  0.00    +0.000 A 
ATOM     22  C   UNL     1      36.369  20.743  32.146  0.00  0.00    +0.000 A 
ATOM     23  C   UNL     1      35.198  21.182  31.607  0.00  0.00    +0.000 A 
ATOM     24  C   UNL     1      35.101  22.501  31.173  0.00  0.00    +0.000 A 
ATOM     25  C   UNL     1      36.163  23.365  31.279  0.00  0.00    +0.000 A 
ATOM     26  C   UNL     1      37.316  22.875  31.828  0.00  0.00    +0.000 A 
ENDBRANCH  11  12
BRANCH   9  27
ATOM     27  N   UNL     1      35.756  29.420  34.676  0.00  0.00    +0.000 N 
ATOM     28  C   UNL     1      36.135  30.466  35.450  0.00  0.00    +0.000 A 
ATOM     29  N   UNL     1      35.141  31.344  35.626  0.00  0.00    +0.000 NA
ATOM     30  C   UNL     1      34.086  30.866  34.954  0.00  0.00    +0.000 A 
ATOM     31  C   UNL     1      32.787  31.356  34.784  0.00  0.00    +0.000 A 
ATOM     32  O   UNL     1      32.411  32.428  35.301  0.00  0.00    +0.000 OA
ATOM     33  N   UNL     1      31.971  30.591  34.022  0.00  0.00    +0.000 N 
ATOM     34  C   UNL     1      32.351  29.419  33.445  0.00  0.00    +0.000 A 
ATOM     35  N   UNL     1      31.333  28.765  32.679  0.00  0.00    +0.000 N 
ATOM     36  N   UNL     1      33.604  28.968  33.623  0.00  0.00    +0.000 NA
ATOM     37  C   UNL     1      34.472  29.676  34.368  0.00  0.00    +0.000 A 
ATOM     38  H   UNL     1      31.005  30.915  33.870  0.00  0.00    +0.000 HD
ATOM     39  H   UNL     1      30.397  29.188  32.599  0.00  0.00    +0.000 HD
ATOM     40  H   UNL     1      31.537  27.872  32.209  0.00  0.00    +0.000 HD
ENDBRANCH   9  27
BRANCH   1  41
ATOM     41  N   UNL     1      38.456  22.435  36.834  0.00  0.00    +0.000 N 
ATOM     42  H   UNL     1      37.436  22.332  36.936  0.00  0.00    +0.000 HD
ATOM     43  H   UNL     1      39.088  21.737  37.252  0.00  0.00    +0.000 HD
ENDBRANCH   1  41
TORSDOF 3
