REMARK  Name = 
REMARK  5 active torsions:
REMARK  status: ('A' for Active; 'I' for Inactive)
REMARK    1  A    between atoms: C_1  and  C_2
REMARK    2  A    between atoms: C_1  and  C_17
REMARK    3  A    between atoms: C_6  and  C_7
REMARK    4  A    between atoms: C_17  and  C_22
REMARK    5  A    between atoms: C_18  and  C_28
REMARK                            x       y       z     vdW  Elec       q    Type
REMARK                         _______ _______ _______ _____ _____    ______ ____
ROOT
ATOM      1  C   UNL     1      36.828  26.456  31.382  0.00  0.00    +0.000 C 
ATOM      2  C   UNL     1      36.501  27.580  30.483  0.00  0.00    +0.000 C 
ATOM      3  C   UNL     1      36.400  28.799  31.337  0.00  0.00    +0.000 C 
ATOM      4  C   UNL     1      35.790  28.250  32.613  0.00  0.00    +0.000 C 
ATOM      5  C   UNL     1      36.367  26.852  32.769  0.00  0.00    +0.000 C 
ENDROOT
BRANCH   5   6
ATOM      6  C   UNL     1      37.568  26.831  33.656  0.00  0.00    +0.000 A 
ATOM      7  C   UNL     1      37.266  26.698  35.015  0.00  0.00    +0.000 A 
ATOM      8  C   UNL     1      38.257  26.709  35.988  0.00  0.00    +0.000 A 
ATOM      9  C   UNL     1      39.598  26.854  35.651  0.00  0.00    +0.000 A 
ATOM     10  C   UNL     1      39.907  26.985  34.315  0.00  0.00    +0.000 A 
ATOM     11  C   UNL     1      41.209  27.121  33.891  0.00  0.00    +0.000 A 
ATOM     12  C   UNL     1      41.525  27.241  32.535  0.00  0.00    +0.000 A 
ATOM     13  C   UNL     1      40.483  27.220  31.621  0.00  0.00    +0.000 A 
ATOM     14  C   UNL     1      39.178  27.084  32.036  0.00  0.00    +0.000 A 
ATOM     15  C   UNL     1      38.905  26.970  33.377  0.00  0.00    +0.000 A 
ENDBRANCH   5   6
BRANCH   1  16
ATOM     16  C   UNL     1      36.112  25.200  30.969  0.00  0.00    +0.000 C 
BRANCH  16  17
ATOM     17  C   UNL     1      37.053  24.027  30.882  0.00  0.00    +0.000 C 
BRANCH  17  22
ATOM     18  C   UNL     1      37.328  22.277  34.152  0.00  0.00    +0.000 A 
ATOM     19  C   UNL     1      36.433  21.245  34.045  0.00  0.00    +0.000 A 
ATOM     20  C   UNL     1      35.712  21.105  32.875  0.00  0.00    +0.000 A 
ATOM     21  C   UNL     1      35.933  22.002  31.894  0.00  0.00    +0.000 A 
ATOM     22  C   UNL     1      36.810  23.045  31.953  0.00  0.00    +0.000 A 
ATOM     23  N   UNL     1      37.469  23.116  33.109  0.00  0.00    +0.000 NA
BRANCH  18  28
ATOM     24  C   UNL     1      40.123  22.379  36.493  0.00  0.00    +0.000 A 
ATOM     25  C   UNL     1      39.601  22.965  37.628  0.00  0.00    +0.000 A 
ATOM     26  C   UNL     1      38.246  23.325  37.556  0.00  0.00    +0.000 A 
ATOM     27  N   UNL     1      37.541  23.080  36.398  0.00  0.00    +0.000 NA
ATOM     28  C   UNL     1      38.127  22.504  35.334  0.00  0.00    +0.000 A 
ATOM     29  N   UNL     1      39.414  22.159  35.393  0.00  0.00    +0.000 NA
ENDBRANCH  18  28
ENDBRANCH  17  22
ENDBRANCH  16  17
ENDBRANCH   1  16
TORSDOF 5
