REMARK  Name = 
REMARK  5 active torsions:
REMARK  status: ('A' for Active; 'I' for Inactive)
REMARK    1  A    between atoms: C_1  and  O_21
REMARK    2  A    between atoms: O_21  and  C_22
REMARK    3  A    between atoms: C_25  and  C_27
REMARK    4  A    between atoms: C_29  and  C_30
REMARK    5  A    between atoms: C_30  and  O_32
REMARK                            x       y       z     vdW  Elec       q    Type
REMARK                         _______ _______ _______ _____ _____    ______ ____
ROOT
ATOM      1  C   UNL     1      39.573  22.908  37.262  0.00  0.00    +0.000 A 
ATOM      2  C   UNL     1      39.055  23.283  38.509  0.00  0.00    +0.000 A 
ATOM      3  C   UNL     1      38.125  24.311  38.542  0.00  0.00    +0.000 A 
ATOM      4  N   UNL     1      37.755  24.907  37.397  0.00  0.00    +0.000 NA
ATOM      5  C   UNL     1      38.285  24.512  36.193  0.00  0.00    +0.000 A 
ATOM      6  N   UNL     1      39.177  23.530  36.127  0.00  0.00    +0.000 NA
ATOM      7  N   UNL     1      37.852  25.187  35.036  0.00  0.00    +0.000 N 
ATOM      8  C   UNL     1      37.399  26.441  35.278  0.00  0.00    +0.000 A 
ATOM      9  C   UNL     1      36.990  26.993  34.048  0.00  0.00    +0.000 A 
ATOM     10  N   UNL     1      37.213  26.050  33.125  0.00  0.00    +0.000 NA
ATOM     11  C   UNL     1      37.730  24.962  33.707  0.00  0.00    +0.000 A 
ATOM     12  N   UNL     1      38.155  23.687  33.234  0.00  0.00    +0.000 N 
ATOM     13  C   UNL     1      39.316  23.035  33.441  0.00  0.00    +0.000 A 
ATOM     14  N   UNL     1      39.325  21.859  32.823  0.00  0.00    +0.000 NA
ATOM     15  C   UNL     1      38.160  21.714  32.193  0.00  0.00    +0.000 A 
ATOM     16  C   UNL     1      37.564  20.749  31.399  0.00  0.00    +0.000 A 
ATOM     17  N   UNL     1      36.328  20.896  30.889  0.00  0.00    +0.000 NA
ATOM     18  C   UNL     1      35.630  22.009  31.147  0.00  0.00    +0.000 A 
ATOM     19  N   UNL     1      36.160  23.000  31.922  0.00  0.00    +0.000 NA
ATOM     20  C   UNL     1      37.413  22.859  32.443  0.00  0.00    +0.000 A 
ENDROOT
BRANCH   1  21
ATOM     21  O   UNL     1      40.478  21.907  37.229  0.00  0.00    +0.000 OA
BRANCH  21  22
ATOM     22  C   UNL     1      41.789  22.156  36.804  0.00  0.00    +0.000 A 
ATOM     23  C   UNL     1      42.412  21.100  36.194  0.00  0.00    +0.000 A 
ATOM     24  S   UNL     1      44.022  21.807  35.814  0.00  0.00    +0.000 S 
ATOM     25  C   UNL     1      43.583  23.494  36.570  0.00  0.00    +0.000 A 
ATOM     26  N   UNL     1      42.521  23.238  36.894  0.00  0.00    +0.000 NA
BRANCH  25  27
ATOM     27  C   UNL     1      44.577  24.625  36.580  0.00  0.00    +0.000 C 
ATOM     28  C   UNL     1      45.976  24.315  36.369  0.00  0.00    +0.000 C 
ATOM     29  C   UNL     1      45.688  24.424  37.746  0.00  0.00    +0.000 C 
BRANCH  29  30
ATOM     30  C   UNL     1      46.178  25.761  38.320  0.00  0.00    +0.000 C 
ATOM     31  O   UNL     1      47.223  26.375  37.775  0.00  0.00    +0.000 OA
BRANCH  30  32
ATOM     32  O   UNL     1      45.510  26.334  39.422  0.00  0.00    +0.000 OA
ATOM     33  H   UNL     1      45.822  27.196  39.796  0.00  0.00    +0.000 HD
ENDBRANCH  30  32
ENDBRANCH  29  30
ENDBRANCH  25  27
ENDBRANCH  21  22
ENDBRANCH   1  21
TORSDOF 5
