REMARK  Name = 
REMARK  1 active torsions:
REMARK  status: ('A' for Active; 'I' for Inactive)
REMARK    1  A    between atoms: C_13  and  C_17
REMARK                            x       y       z     vdW  Elec       q    Type
REMARK                         _______ _______ _______ _____ _____    ______ ____
ROOT
ATOM      1  C   UNL     1      39.672  22.874  37.985  0.00  0.00    +0.000 A 
ATOM      2  C   UNL     1      38.822  23.660  38.763  0.00  0.00    +0.000 A 
ATOM      3  C   UNL     1      37.824  24.403  38.090  0.00  0.00    +0.000 A 
ATOM      4  N   UNL     1      37.778  24.287  36.724  0.00  0.00    +0.000 NA
ATOM      5  C   UNL     1      38.615  23.520  36.024  0.00  0.00    +0.000 A 
ATOM      6  N   UNL     1      39.571  22.807  36.655  0.00  0.00    +0.000 NA
ATOM      7  N   UNL     1      38.434  23.509  34.614  0.00  0.00    +0.000 N 
ATOM      8  C   UNL     1      38.739  22.422  33.829  0.00  0.00    +0.000 A 
ATOM      9  N   UNL     1      38.461  22.705  32.532  0.00  0.00    +0.000 NA
ATOM     10  C   UNL     1      37.976  23.975  32.466  0.00  0.00    +0.000 A 
ATOM     11  C   UNL     1      37.531  24.816  31.455  0.00  0.00    +0.000 A 
ATOM     12  N   UNL     1      37.107  26.059  31.751  0.00  0.00    +0.000 NA
ATOM     13  C   UNL     1      37.114  26.487  33.026  0.00  0.00    +0.000 A 
ATOM     14  N   UNL     1      37.546  25.671  33.996  0.00  0.00    +0.000 NA
ATOM     15  C   UNL     1      37.977  24.433  33.763  0.00  0.00    +0.000 A 
ATOM     16  N   UNL     1      37.584  24.210  30.159  0.00  0.00    +0.000 N 
ATOM     17  H   UNL     1      37.930  23.245  30.055  0.00  0.00    +0.000 HD
ATOM     18  H   UNL     1      37.276  24.739  29.330  0.00  0.00    +0.000 HD
ENDROOT
BRANCH  13  19
ATOM     19  C   UNL     1      36.624  27.850  33.141  0.00  0.00    +0.000 A 
ATOM     20  C   UNL     1      36.103  28.329  34.320  0.00  0.00    +0.000 A 
ATOM     21  C   UNL     1      35.620  29.598  34.514  0.00  0.00    +0.000 A 
ATOM     22  C   UNL     1      35.635  30.501  33.479  0.00  0.00    +0.000 A 
ATOM     23  C   UNL     1      36.142  30.094  32.265  0.00  0.00    +0.000 A 
ATOM     24  C   UNL     1      36.162  30.990  31.227  0.00  0.00    +0.000 A 
ATOM     25  C   UNL     1      36.658  30.644  29.987  0.00  0.00    +0.000 A 
ATOM     26  C   UNL     1      37.136  29.338  29.848  0.00  0.00    +0.000 A 
ATOM     27  C   UNL     1      37.096  28.476  30.918  0.00  0.00    +0.000 A 
ATOM     28  C   UNL     1      36.607  28.807  32.157  0.00  0.00    +0.000 A 
ENDBRANCH  13  19
TORSDOF 1
