REMARK  Name = 
REMARK  3 active torsions:
REMARK  status: ('A' for Active; 'I' for Inactive)
REMARK    1  A    between atoms: C_3  and  N_17
REMARK    2  A    between atoms: C_5  and  C_7
REMARK    3  A    between atoms: C_19  and  C_30
REMARK                            x       y       z     vdW  Elec       q    Type
REMARK                         _______ _______ _______ _____ _____    ______ ____
ROOT
ATOM      1  N   UNL     1      38.074  22.877  34.357  0.00  0.00    +0.000 N 
ATOM      2  C   UNL     1      37.190  21.958  34.002  0.00  0.00    +0.000 A 
ATOM      3  C   UNL     1      36.765  22.308  32.749  0.00  0.00    +0.000 A 
ATOM      4  N   UNL     1      37.398  23.423  32.376  0.00  0.00    +0.000 NA
ATOM      5  C   UNL     1      38.223  23.785  33.385  0.00  0.00    +0.000 A 
ATOM      6  N   UNL     1      39.077  24.922  33.388  0.00  0.00    +0.000 N 
ATOM      7  C   UNL     1      39.172  25.891  34.318  0.00  0.00    +0.000 A 
ATOM      8  C   UNL     1      40.057  26.929  34.167  0.00  0.00    +0.000 A 
ATOM      9  C   UNL     1      40.870  27.000  33.053  0.00  0.00    +0.000 A 
ATOM     10  O   UNL     1      41.691  27.941  32.888  0.00  0.00    +0.000 OA
ATOM     11  N   UNL     1      40.779  26.033  32.119  0.00  0.00    +0.000 N 
ATOM     12  C   UNL     1      39.895  25.024  32.301  0.00  0.00    +0.000 A 
ATOM     13  O   UNL     1      39.871  24.149  31.370  0.00  0.00    +0.000 OA
ATOM     14  H   UNL     1      41.374  26.061  31.279  0.00  0.00    +0.000 HD
ENDROOT
BRANCH   1  17
ATOM     15  C   UNL     1      38.827  23.126  37.986  0.00  0.00    +0.000 A 
ATOM     16  C   UNL     1      38.082  23.209  36.798  0.00  0.00    +0.000 A 
ATOM     17  C   UNL     1      38.735  22.832  35.621  0.00  0.00    +0.000 A 
ATOM     18  N   UNL     1      39.995  22.437  35.757  0.00  0.00    +0.000 NA
ATOM     19  C   UNL     1      40.723  22.351  36.874  0.00  0.00    +0.000 A 
ATOM     20  N   UNL     1      40.090  22.712  37.995  0.00  0.00    +0.000 NA
BRANCH  19  21
ATOM     21  C   UNL     1      42.071  21.876  36.641  0.00  0.00    +0.000 A 
ATOM     22  C   UNL     1      42.353  20.526  36.618  0.00  0.00    +0.000 A 
ATOM     23  C   UNL     1      43.622  20.009  36.400  0.00  0.00    +0.000 A 
ATOM     24  C   UNL     1      44.686  20.861  36.191  0.00  0.00    +0.000 A 
ATOM     25  C   UNL     1      44.445  22.204  36.206  0.00  0.00    +0.000 A 
ATOM     26  C   UNL     1      45.513  23.044  35.995  0.00  0.00    +0.000 A 
ATOM     27  C   UNL     1      45.354  24.408  35.996  0.00  0.00    +0.000 A 
ATOM     28  C   UNL     1      44.068  24.887  36.218  0.00  0.00    +0.000 A 
ATOM     29  C   UNL     1      43.027  24.013  36.424  0.00  0.00    +0.000 A 
ATOM     30  C   UNL     1      43.168  22.661  36.426  0.00  0.00    +0.000 A 
ENDBRANCH  19  21
ENDBRANCH   1  17
BRANCH   3  31
ATOM     31  C   UNL     1      35.773  21.621  31.880  0.00  0.00    +0.000 C 
ATOM     32  F   UNL     1      34.702  21.112  32.572  0.00  0.00    +0.000 F 
ATOM     33  F   UNL     1      36.379  20.538  31.224  0.00  0.00    +0.000 F 
ATOM     34  F   UNL     1      35.380  22.462  30.841  0.00  0.00    +0.000 F 
ENDBRANCH   3  31
TORSDOF 3
