REMARK  Name = 
REMARK  3 active torsions:
REMARK  status: ('A' for Active; 'I' for Inactive)
REMARK    1  A    between atoms: C_3  and  N_7
REMARK    2  A    between atoms: C_5  and  C_28
REMARK    3  A    between atoms: C_10  and  C_12
REMARK                            x       y       z     vdW  Elec       q    Type
REMARK                         _______ _______ _______ _____ _____    ______ ____
ROOT
ATOM      1  N   UNL     1      37.773  26.640  32.129  0.00  0.00    +0.000 N 
ATOM      2  C   UNL     1      38.184  27.591  31.288  0.00  0.00    +0.000 A 
ATOM      3  N   UNL     1      37.417  28.662  31.391  0.00  0.00    +0.000 NA
ATOM      4  C   UNL     1      36.491  28.399  32.316  0.00  0.00    +0.000 A 
ATOM      5  N   UNL     1      36.732  27.149  32.754  0.00  0.00    +0.000 NA
ENDROOT
BRANCH   4   6
ATOM      6  C   UNL     1      35.375  29.153  32.879  0.00  0.00    +0.000 A 
ATOM      7  N   UNL     1      34.139  29.466  32.466  0.00  0.00    +0.000 NA
ATOM      8  O   UNL     1      33.544  30.177  33.382  0.00  0.00    +0.000 OA
ATOM      9  C   UNL     1      34.367  30.341  34.398  0.00  0.00    +0.000 A 
ATOM     10  N   UNL     1      35.535  29.706  34.113  0.00  0.00    +0.000 NA
ATOM     11  N   UNL     1      33.997  31.079  35.556  0.00  0.00    +0.000 N 
ATOM     12  C   UNL     1      33.195  30.750  36.583  0.00  0.00    +0.000 A 
ATOM     13  N   UNL     1      33.147  31.791  37.463  0.00  0.00    +0.000 NA
ATOM     14  C   UNL     1      33.940  32.768  36.948  0.00  0.00    +0.000 A 
ATOM     15  C   UNL     1      34.230  34.035  37.462  0.00  0.00    +0.000 A 
ATOM     16  O   UNL     1      33.770  34.464  38.528  0.00  0.00    +0.000 OA
ATOM     17  N   UNL     1      35.062  34.862  36.772  0.00  0.00    +0.000 N 
ATOM     18  C   UNL     1      35.582  34.415  35.597  0.00  0.00    +0.000 A 
ATOM     19  N   UNL     1      36.468  35.212  34.797  0.00  0.00    +0.000 N 
ATOM     20  N   UNL     1      35.292  33.197  35.123  0.00  0.00    +0.000 NA
ATOM     21  C   UNL     1      34.481  32.319  35.740  0.00  0.00    +0.000 A 
ATOM     22  H   UNL     1      35.292  35.800  37.130  0.00  0.00    +0.000 HD
ATOM     23  H   UNL     1      36.841  34.837  33.913  0.00  0.00    +0.000 HD
ATOM     24  H   UNL     1      36.731  36.158  35.107  0.00  0.00    +0.000 HD
ENDBRANCH   4   6
BRANCH   1  27
ATOM     25  C   UNL     1      39.111  23.265  31.567  0.00  0.00    +0.000 A 
ATOM     26  C   UNL     1      38.534  24.484  31.240  0.00  0.00    +0.000 A 
ATOM     27  C   UNL     1      38.350  25.354  32.298  0.00  0.00    +0.000 A 
ATOM     28  N   UNL     1      38.734  24.954  33.499  0.00  0.00    +0.000 NA
ATOM     29  C   UNL     1      39.285  23.803  33.841  0.00  0.00    +0.000 A 
ATOM     30  N   UNL     1      39.451  22.991  32.825  0.00  0.00    +0.000 NA
BRANCH  29  31
ATOM     31  C   UNL     1      39.739  23.258  35.091  0.00  0.00    +0.000 A 
ATOM     32  C   UNL     1      40.796  22.350  35.155  0.00  0.00    +0.000 A 
ATOM     33  C   UNL     1      41.267  21.802  36.323  0.00  0.00    +0.000 A 
ATOM     34  C   UNL     1      40.692  22.139  37.533  0.00  0.00    +0.000 A 
ATOM     35  C   UNL     1      39.661  23.018  37.518  0.00  0.00    +0.000 A 
ATOM     36  C   UNL     1      39.072  23.367  38.730  0.00  0.00    +0.000 A 
ATOM     37  C   UNL     1      38.035  24.239  38.813  0.00  0.00    +0.000 A 
ATOM     38  C   UNL     1      37.570  24.785  37.622  0.00  0.00    +0.000 A 
ATOM     39  C   UNL     1      38.161  24.431  36.443  0.00  0.00    +0.000 A 
ATOM     40  C   UNL     1      39.198  23.561  36.340  0.00  0.00    +0.000 A 
ENDBRANCH  29  31
ENDBRANCH   1  27
TORSDOF 3
