REMARK  Name = 
REMARK  4 active torsions:
REMARK  status: ('A' for Active; 'I' for Inactive)
REMARK    1  A    between atoms: C_1  and  C_17
REMARK    2  A    between atoms: C_2  and  C_13
REMARK    3  A    between atoms: C_12  and  C_21
REMARK    4  A    between atoms: C_21  and  N_22
REMARK                            x       y       z     vdW  Elec       q    Type
REMARK                         _______ _______ _______ _____ _____    ______ ____
ROOT
ATOM      1  C   UNL     1      38.252  23.810  35.639  0.00  0.00    +0.000 A 
ATOM      2  C   UNL     1      38.184  24.532  36.831  0.00  0.00    +0.000 A 
ATOM      3  C   UNL     1      38.134  25.927  36.751  0.00  0.00    +0.000 A 
ATOM      4  N   UNL     1      38.154  26.506  35.526  0.00  0.00    +0.000 NA
ATOM      5  C   UNL     1      38.216  25.800  34.406  0.00  0.00    +0.000 A 
ATOM      6  N   UNL     1      38.265  24.473  34.466  0.00  0.00    +0.000 NA
ATOM      7  N   UNL     1      38.221  26.499  33.168  0.00  0.00    +0.000 N 
ATOM      8  C   UNL     1      38.934  25.936  32.067  0.00  0.00    +0.000 C 
ATOM      9  C   UNL     1      39.277  27.082  31.142  0.00  0.00    +0.000 C 
ATOM     10  C   UNL     1      38.085  27.815  30.655  0.00  0.00    +0.000 C 
ATOM     11  C   UNL     1      36.992  28.036  31.668  0.00  0.00    +0.000 C 
ATOM     12  C   UNL     1      37.506  27.739  33.040  0.00  0.00    +0.000 C 
ENDROOT
BRANCH   2  13
ATOM     13  C   UNL     1      38.165  23.870  38.150  0.00  0.00    +0.000 C 
ATOM     14  F   UNL     1      39.377  23.318  38.370  0.00  0.00    +0.000 F 
ATOM     15  F   UNL     1      37.207  22.901  38.276  0.00  0.00    +0.000 F 
ATOM     16  F   UNL     1      38.006  24.828  39.166  0.00  0.00    +0.000 F 
ENDBRANCH   2  13
BRANCH   1  17
ATOM     17  C   UNL     1      38.319  22.330  35.493  0.00  0.00    +0.000 C 
ATOM     18  F   UNL     1      38.475  21.967  34.163  0.00  0.00    +0.000 F 
ATOM     19  F   UNL     1      39.364  21.810  36.242  0.00  0.00    +0.000 F 
ATOM     20  F   UNL     1      37.229  21.679  35.961  0.00  0.00    +0.000 F 
ENDBRANCH   1  17
BRANCH  12  21
ATOM     21  C   UNL     1      36.404  27.923  34.038  0.00  0.00    +0.000 C 
BRANCH  21  22
ATOM     22  N   UNL     1      35.478  28.995  33.588  0.00  0.00    +0.000 N 
ATOM     23  C   UNL     1      34.858  29.041  32.372  0.00  0.00    +0.000 A 
ATOM     24  N   UNL     1      34.092  30.129  32.304  0.00  0.00    +0.000 NA
ATOM     25  C   UNL     1      34.193  30.811  33.455  0.00  0.00    +0.000 A 
ATOM     26  C   UNL     1      33.630  31.987  33.914  0.00  0.00    +0.000 A 
ATOM     27  O   UNL     1      32.836  32.650  33.198  0.00  0.00    +0.000 OA
ATOM     28  N   UNL     1      33.917  32.460  35.147  0.00  0.00    +0.000 N 
ATOM     29  C   UNL     1      34.775  31.724  35.894  0.00  0.00    +0.000 A 
ATOM     30  N   UNL     1      35.136  32.140  37.202  0.00  0.00    +0.000 N 
ATOM     31  N   UNL     1      35.326  30.580  35.457  0.00  0.00    +0.000 NA
ATOM     32  C   UNL     1      35.059  30.089  34.239  0.00  0.00    +0.000 A 
ATOM     33  H   UNL     1      33.505  33.335  35.501  0.00  0.00    +0.000 HD
ATOM     34  H   UNL     1      35.789  31.573  37.761  0.00  0.00    +0.000 HD
ATOM     35  H   UNL     1      34.745  33.009  37.592  0.00  0.00    +0.000 HD
ENDBRANCH  21  22
ENDBRANCH  12  21
TORSDOF 4
