REMARK  Name = 
REMARK  2 active torsions:
REMARK  status: ('A' for Active; 'I' for Inactive)
REMARK    1  A    between atoms: C_5  and  C_7
REMARK    2  A    between atoms: C_19  and  C_28
REMARK                            x       y       z     vdW  Elec       q    Type
REMARK                         _______ _______ _______ _____ _____    ______ ____
ROOT
ATOM      1  C   UNL     1      38.997  23.188  38.068  0.00  0.00    +0.000 A 
ATOM      2  C   UNL     1      38.219  23.358  36.919  0.00  0.00    +0.000 A 
ATOM      3  C   UNL     1      38.831  23.048  35.702  0.00  0.00    +0.000 A 
ATOM      4  N   UNL     1      40.098  22.618  35.759  0.00  0.00    +0.000 NA
ATOM      5  C   UNL     1      40.847  22.453  36.865  0.00  0.00    +0.000 A 
ATOM      6  N   UNL     1      40.253  22.753  38.024  0.00  0.00    +0.000 NA
ATOM      7  N   UNL     1      38.136  23.183  34.459  0.00  0.00    +0.000 N 
ATOM      8  C   UNL     1      37.450  22.190  33.926  0.00  0.00    +0.000 A 
ATOM      9  C   UNL     1      36.929  22.666  32.758  0.00  0.00    +0.000 A 
ATOM     10  N   UNL     1      37.306  23.930  32.608  0.00  0.00    +0.000 NA
ATOM     11  C   UNL     1      38.066  24.263  33.673  0.00  0.00    +0.000 A 
ATOM     12  N   UNL     1      38.656  25.539  33.882  0.00  0.00    +0.000 N 
ATOM     13  C   UNL     1      39.639  26.127  34.766  0.00  0.00    +0.000 C 
ATOM     14  C   UNL     1      40.556  27.058  34.012  0.00  0.00    +0.000 C 
ATOM     15  O   UNL     1      40.582  26.669  32.681  0.00  0.00    +0.000 OA
ATOM     16  C   UNL     1      39.368  27.085  32.128  0.00  0.00    +0.000 C 
ATOM     17  C   UNL     1      38.202  26.621  32.992  0.00  0.00    +0.000 C 
ENDROOT
BRANCH   5  18
ATOM     18  C   UNL     1      42.179  21.973  36.560  0.00  0.00    +0.000 A 
ATOM     19  C   UNL     1      42.430  20.636  36.365  0.00  0.00    +0.000 A 
ATOM     20  C   UNL     1      43.677  20.114  36.072  0.00  0.00    +0.000 A 
ATOM     21  C   UNL     1      44.760  20.948  35.962  0.00  0.00    +0.000 A 
ATOM     22  C   UNL     1      44.566  22.298  36.148  0.00  0.00    +0.000 A 
ATOM     23  C   UNL     1      45.659  23.122  36.033  0.00  0.00    +0.000 A 
ATOM     24  C   UNL     1      45.535  24.477  36.206  0.00  0.00    +0.000 A 
ATOM     25  C   UNL     1      44.255  24.961  36.500  0.00  0.00    +0.000 A 
ATOM     26  C   UNL     1      43.193  24.096  36.604  0.00  0.00    +0.000 A 
ATOM     27  C   UNL     1      43.298  22.761  36.438  0.00  0.00    +0.000 A 
ENDBRANCH   5  18
BRANCH   9  28
ATOM     28  C   UNL     1      36.073  21.963  31.766  0.00  0.00    +0.000 C 
ATOM     29  F   UNL     1      35.063  21.225  32.342  0.00  0.00    +0.000 F 
ATOM     30  F   UNL     1      36.835  21.090  30.995  0.00  0.00    +0.000 F 
ATOM     31  F   UNL     1      35.578  22.883  30.825  0.00  0.00    +0.000 F 
ENDBRANCH   9  28
TORSDOF 2
