REMARK  Name = 
REMARK  3 active torsions:
REMARK  status: ('A' for Active; 'I' for Inactive)
REMARK    1  A    between atoms: C_1  and  N_35
REMARK    2  A    between atoms: C_9  and  N_27
REMARK    3  A    between atoms: C_11  and  C_12
REMARK                            x       y       z     vdW  Elec       q    Type
REMARK                         _______ _______ _______ _____ _____    ______ ____
ROOT
ATOM      1  C   UNL     1      38.746  23.609  36.131  0.00  0.00    +0.000 A 
ATOM      2  C   UNL     1      40.164  23.715  36.080  0.00  0.00    +0.000 A 
ATOM      3  C   UNL     1      40.688  24.747  35.347  0.00  0.00    +0.000 A 
ATOM      4  N   UNL     1      39.801  25.558  34.750  0.00  0.00    +0.000 NA
ATOM      5  C   UNL     1      38.512  25.485  34.780  0.00  0.00    +0.000 A 
ATOM      6  N   UNL     1      37.965  24.475  35.495  0.00  0.00    +0.000 NA
ATOM      7  N   UNL     1      37.814  26.472  34.066  0.00  0.00    +0.000 N 
ATOM      8  C   UNL     1      37.073  27.373  34.766  0.00  0.00    +0.000 A 
ATOM      9  C   UNL     1      36.476  28.242  33.879  0.00  0.00    +0.000 A 
ATOM     10  N   UNL     1      36.856  27.866  32.664  0.00  0.00    +0.000 NA
ATOM     11  C   UNL     1      37.689  26.763  32.770  0.00  0.00    +0.000 A 
ENDROOT
BRANCH  11  12
ATOM     12  C   UNL     1      38.262  26.081  31.655  0.00  0.00    +0.000 A 
ATOM     13  C   UNL     1      38.759  26.770  30.530  0.00  0.00    +0.000 A 
ATOM     14  N   UNL     1      39.220  25.859  29.618  0.00  0.00    +0.000 NA
ATOM     15  C   UNL     1      39.004  24.597  30.184  0.00  0.00    +0.000 A 
ATOM     16  N   UNL     1      38.448  24.818  31.367  0.00  0.00    +0.000 N 
ATOM     17  C   UNL     1      38.335  23.528  31.900  0.00  0.00    +0.000 A 
ATOM     18  N   UNL     1      39.460  23.141  32.517  0.00  0.00    +0.000 NA
ATOM     19  C   UNL     1      39.540  21.889  33.040  0.00  0.00    +0.000 A 
ATOM     20  N   UNL     1      38.548  20.995  32.977  0.00  0.00    +0.000 NA
ATOM     21  C   UNL     1      37.402  21.345  32.366  0.00  0.00    +0.000 A 
ATOM     22  C   UNL     1      36.310  20.529  32.229  0.00  0.00    +0.000 A 
ATOM     23  C   UNL     1      35.174  20.935  31.595  0.00  0.00    +0.000 A 
ATOM     24  C   UNL     1      35.113  22.222  31.068  0.00  0.00    +0.000 A 
ATOM     25  C   UNL     1      36.173  23.087  31.173  0.00  0.00    +0.000 A 
ATOM     26  C   UNL     1      37.290  22.629  31.819  0.00  0.00    +0.000 A 
ENDBRANCH  11  12
BRANCH   9  27
ATOM     27  N   UNL     1      35.607  29.348  34.203  0.00  0.00    +0.000 N 
ATOM     28  C   UNL     1      36.016  30.201  35.161  0.00  0.00    +0.000 A 
ATOM     29  C   UNL     1      35.186  31.261  35.474  0.00  0.00    +0.000 A 
ATOM     30  C   UNL     1      33.997  31.367  34.782  0.00  0.00    +0.000 A 
ATOM     31  N   UNL     1      33.039  32.398  34.988  0.00  0.00    +0.000 N 
ATOM     32  N   UNL     1      33.618  30.484  33.820  0.00  0.00    +0.000 NA
ATOM     33  C   UNL     1      34.448  29.442  33.522  0.00  0.00    +0.000 A 
ATOM     34  O   UNL     1      34.125  28.612  32.640  0.00  0.00    +0.000 OA
ATOM     35  H   UNL     1      32.172  32.413  34.433  0.00  0.00    +0.000 HD
ATOM     36  H   UNL     1      33.213  33.129  35.692  0.00  0.00    +0.000 HD
ENDBRANCH   9  27
BRANCH   1  37
ATOM     37  N   UNL     1      38.157  22.543  36.906  0.00  0.00    +0.000 N 
ATOM     38  H   UNL     1      37.133  22.448  36.956  0.00  0.00    +0.000 HD
ATOM     39  H   UNL     1      38.761  21.877  37.409  0.00  0.00    +0.000 HD
ENDBRANCH   1  37
TORSDOF 3
