REMARK  Name = 
REMARK  2 active torsions:
REMARK  status: ('A' for Active; 'I' for Inactive)
REMARK    1  A    between atoms: N_13  and  C_18
REMARK    2  A    between atoms: C_21  and  C_23
REMARK                            x       y       z     vdW  Elec       q    Type
REMARK                         _______ _______ _______ _____ _____    ______ ____
ROOT
ATOM      1  C   UNL     1      40.034  23.007  37.356  0.00  0.00    +0.000 A 
ATOM      2  C   UNL     1      39.221  23.125  38.501  0.00  0.00    +0.000 A 
ATOM      3  C   UNL     1      37.955  23.691  38.299  0.00  0.00    +0.000 A 
ATOM      4  N   UNL     1      37.567  24.091  37.062  0.00  0.00    +0.000 NA
ATOM      5  C   UNL     1      38.396  23.953  35.987  0.00  0.00    +0.000 A 
ATOM      6  N   UNL     1      39.615  23.415  36.142  0.00  0.00    +0.000 NA
ATOM      7  N   UNL     1      38.018  24.359  34.690  0.00  0.00    +0.000 N 
ATOM      8  C   UNL     1      38.145  23.514  33.636  0.00  0.00    +0.000 A 
ATOM      9  N   UNL     1      37.706  24.177  32.525  0.00  0.00    +0.000 NA
ATOM     10  C   UNL     1      37.310  25.405  32.865  0.00  0.00    +0.000 A 
ATOM     11  C   UNL     1      36.779  26.549  32.251  0.00  0.00    +0.000 A 
ATOM     12  O   UNL     1      36.600  26.445  31.013  0.00  0.00    +0.000 OA
ATOM     13  N   UNL     1      36.496  27.658  32.976  0.00  0.00    +0.000 N 
ATOM     14  C   UNL     1      36.709  27.705  34.290  0.00  0.00    +0.000 A 
ATOM     15  N   UNL     1      36.352  28.953  34.890  0.00  0.00    +0.000 N 
ATOM     16  N   UNL     1      37.220  26.620  34.920  0.00  0.00    +0.000 NA
ATOM     17  C   UNL     1      37.506  25.527  34.238  0.00  0.00    +0.000 A 
ATOM     18  H   UNL     1      36.478  29.092  35.903  0.00  0.00    +0.000 HD
ATOM     19  H   UNL     1      35.969  29.713  34.309  0.00  0.00    +0.000 HD
ENDROOT
BRANCH  13  20
ATOM     20  C   UNL     1      35.948  28.829  32.300  0.00  0.00    +0.000 A 
ATOM     21  C   UNL     1      36.748  29.669  31.517  0.00  0.00    +0.000 A 
ATOM     22  S   UNL     1      35.527  30.938  30.945  0.00  0.00    +0.000 S 
ATOM     23  C   UNL     1      34.133  30.089  31.884  0.00  0.00    +0.000 A 
ATOM     24  N   UNL     1      34.710  29.242  32.325  0.00  0.00    +0.000 NA
BRANCH  23  25
ATOM     25  C   UNL     1      32.803  30.775  31.744  0.00  0.00    +0.000 A 
ATOM     26  N   UNL     1      32.519  31.657  30.791  0.00  0.00    +0.000 NA
ATOM     27  C   UNL     1      31.335  32.268  30.665  0.00  0.00    +0.000 A 
ATOM     28  N   UNL     1      30.361  31.986  31.546  0.00  0.00    +0.000 NA
ATOM     29  C   UNL     1      30.580  31.103  32.533  0.00  0.00    +0.000 A 
ATOM     30  C   UNL     1      29.600  30.792  33.454  0.00  0.00    +0.000 A 
ATOM     31  C   UNL     1      29.812  29.880  34.483  0.00  0.00    +0.000 A 
ATOM     32  C   UNL     1      31.083  29.293  34.532  0.00  0.00    +0.000 A 
ATOM     33  C   UNL     1      32.062  29.597  33.621  0.00  0.00    +0.000 A 
ATOM     34  C   UNL     1      31.809  30.496  32.630  0.00  0.00    +0.000 A 
ENDBRANCH  23  25
ENDBRANCH  13  20
TORSDOF 2
