REMARK  Name = 
REMARK  4 active torsions:
REMARK  status: ('A' for Active; 'I' for Inactive)
REMARK    1  A    between atoms: C_3  and  N_7
REMARK    2  A    between atoms: C_5  and  C_12
REMARK    3  A    between atoms: C_10  and  C_22
REMARK    4  A    between atoms: C_25  and  C_27
REMARK                            x       y       z     vdW  Elec       q    Type
REMARK                         _______ _______ _______ _____ _____    ______ ____
ROOT
ATOM      1  C   UNL     1      36.659  22.714  31.914  0.00  0.00    +0.000 A 
ATOM      2  C   UNL     1      36.212  23.975  31.554  0.00  0.00    +0.000 A 
ATOM      3  C   UNL     1      36.803  25.018  32.236  0.00  0.00    +0.000 A 
ATOM      4  N   UNL     1      37.727  24.731  33.157  0.00  0.00    +0.000 NA
ATOM      5  C   UNL     1      38.164  23.548  33.512  0.00  0.00    +0.000 A 
ATOM      6  N   UNL     1      37.592  22.555  32.854  0.00  0.00    +0.000 NA
ENDROOT
BRANCH   5   7
ATOM      7  C   UNL     1      39.145  23.102  34.479  0.00  0.00    +0.000 A 
ATOM      8  C   UNL     1      40.330  22.508  34.100  0.00  0.00    +0.000 A 
ATOM      9  C   UNL     1      41.290  22.070  34.977  0.00  0.00    +0.000 A 
ATOM     10  C   UNL     1      41.098  22.213  36.339  0.00  0.00    +0.000 A 
ATOM     11  C   UNL     1      39.951  22.790  36.756  0.00  0.00    +0.000 A 
ATOM     12  C   UNL     1      39.749  22.937  38.116  0.00  0.00    +0.000 A 
ATOM     13  C   UNL     1      38.630  23.505  38.635  0.00  0.00    +0.000 A 
ATOM     14  C   UNL     1      37.660  23.946  37.734  0.00  0.00    +0.000 A 
ATOM     15  C   UNL     1      37.891  23.784  36.386  0.00  0.00    +0.000 A 
ATOM     16  C   UNL     1      39.008  23.218  35.847  0.00  0.00    +0.000 A 
ENDBRANCH   5   7
BRANCH   3  17
ATOM     17  N   UNL     1      36.452  26.370  31.982  0.00  0.00    +0.000 N 
ATOM     18  C   UNL     1      36.475  26.996  30.799  0.00  0.00    +0.000 A 
ATOM     19  N   UNL     1      36.086  28.250  30.929  0.00  0.00    +0.000 NA
ATOM     20  C   UNL     1      35.803  28.448  32.220  0.00  0.00    +0.000 A 
ATOM     21  N   UNL     1      36.038  27.272  32.845  0.00  0.00    +0.000 NA
BRANCH  20  22
ATOM     22  C   UNL     1      35.336  29.583  32.996  0.00  0.00    +0.000 A 
ATOM     23  N   UNL     1      34.353  30.504  32.862  0.00  0.00    +0.000 NA
ATOM     24  O   UNL     1      34.375  31.325  33.881  0.00  0.00    +0.000 OA
ATOM     25  C   UNL     1      35.356  30.966  34.691  0.00  0.00    +0.000 A 
ATOM     26  N   UNL     1      35.970  29.877  34.156  0.00  0.00    +0.000 NA
BRANCH  25  27
ATOM     27  C   UNL     1      35.778  31.600  35.991  0.00  0.00    +0.000 C 
ATOM     28  C   UNL     1      34.546  31.849  36.850  0.00  0.00    +0.000 C 
ATOM     29  C   UNL     1      34.546  33.321  37.192  0.00  0.00    +0.000 C 
ATOM     30  C   UNL     1      35.431  33.984  36.186  0.00  0.00    +0.000 C 
ATOM     31  C   UNL     1      36.396  32.928  35.690  0.00  0.00    +0.000 C 
ENDBRANCH  25  27
ENDBRANCH  20  22
ENDBRANCH   3  17
TORSDOF 4
