REMARK  Name = 
REMARK  8 active torsions:
REMARK  status: ('A' for Active; 'I' for Inactive)
REMARK    1  A    between atoms: C_4  and  N_7
REMARK    2  A    between atoms: C_6  and  C_25
REMARK    3  A    between atoms: N_7  and  C_8
REMARK    4  A    between atoms: C_8  and  C_9
REMARK    5  A    between atoms: C_9  and  C_12
REMARK    6  A    between atoms: C_25  and  C_26
REMARK    7  A    between atoms: C_25  and  C_27
REMARK    8  A    between atoms: C_25  and  C_28
REMARK                            x       y       z     vdW  Elec       q    Type
REMARK                         _______ _______ _______ _____ _____    ______ ____
ROOT
ATOM      1  C   UNL     1      61.573  55.468  26.493  0.00  0.00    +0.000 C 
ENDROOT
BRANCH   1   4
ATOM      2  C   UNL     1      65.059  56.772  26.048  0.00  0.00    +0.000 A 
ATOM      3  C   UNL     1      63.818  56.146  25.820  0.00  0.00    +0.000 A 
ATOM      4  C   UNL     1      62.853  56.134  26.792  0.00  0.00    +0.000 A 
ATOM      5  N   UNL     1      63.142  56.735  27.956  0.00  0.00    +0.000 NA
ATOM      6  C   UNL     1      64.314  57.332  28.189  0.00  0.00    +0.000 A 
ATOM      7  N   UNL     1      65.270  57.352  27.241  0.00  0.00    +0.000 NA
ATOM      8  N   UNL     1      64.407  57.906  29.489  0.00  0.00    +0.000 N 
ATOM      9  C   UNL     1      63.578  58.898  29.878  0.00  0.00    +0.000 A 
ATOM     10  N   UNL     1      63.936  59.200  31.138  0.00  0.00    +0.000 NA
ATOM     11  C   UNL     1      64.949  58.423  31.518  0.00  0.00    +0.000 A 
ATOM     12  C   UNL     1      65.719  58.268  32.659  0.00  0.00    +0.000 A 
ATOM     13  N   UNL     1      66.689  57.355  32.688  0.00  0.00    +0.000 NA
ATOM     14  C   UNL     1      67.003  56.536  31.672  0.00  0.00    +0.000 A 
ATOM     15  N   UNL     1      66.261  56.678  30.558  0.00  0.00    +0.000 NA
ATOM     16  C   UNL     1      65.260  57.596  30.482  0.00  0.00    +0.000 A 
ENDBRANCH   1   4
BRANCH   1  17
ATOM     17  C   UNL     1      60.820  55.987  25.298  0.00  0.00    +0.000 C 
BRANCH  17  18
ATOM     18  N   UNL     1      59.634  56.527  25.707  0.00  0.00    +0.000 NA
ATOM     19  H   UNL     1      59.553  56.357  26.720  0.00  0.00    +0.000 HD
BRANCH  18  23
ATOM     20  N   UNL     1      60.814  60.181  24.476  0.00  0.00    +0.000 NA
ATOM     21  C   UNL     1      59.910  59.608  23.652  0.00  0.00    +0.000 C 
ATOM     22  C   UNL     1      59.612  58.177  24.040  0.00  0.00    +0.000 C 
ATOM     23  C   UNL     1      59.421  57.943  25.489  0.00  0.00    +0.000 C 
ATOM     24  C   UNL     1      60.346  58.705  26.336  0.00  0.00    +0.000 C 
ATOM     25  C   UNL     1      60.536  60.122  25.863  0.00  0.00    +0.000 C 
ATOM     26  H   UNL     1      60.889  61.174  24.215  0.00  0.00    +0.000 HD
BRANCH  25  27
ATOM     27  C   UNL     1      59.549  61.104  26.395  0.00  0.00    +0.000 C 
ATOM     28  C   UNL     1      60.055  62.120  27.360  0.00  0.00    +0.000 C 
ATOM     29  C   UNL     1      58.987  61.914  25.204  0.00  0.00    +0.000 C 
ATOM     30  C   UNL     1      58.396  60.393  27.013  0.00  0.00    +0.000 C 
ENDBRANCH  25  27
ENDBRANCH  18  23
ENDBRANCH  17  18
ENDBRANCH   1  17
TORSDOF 5
