REMARK  Name = 
REMARK  2 active torsions:
REMARK  status: ('A' for Active; 'I' for Inactive)
REMARK    1  A    between atoms: N_1  and  C_7
REMARK    2  A    between atoms: C_5  and  C_21
REMARK                            x       y       z     vdW  Elec       q    Type
REMARK                         _______ _______ _______ _____ _____    ______ ____
ROOT
ATOM      1  N   UNL     1      61.768  56.949  26.390  0.00  0.00    +0.000 N 
ATOM      2  C   UNL     1      61.325  55.656  25.887  0.00  0.00    +0.000 C 
ATOM      3  C   UNL     1      60.339  55.990  24.810  0.00  0.00    +0.000 C 
ATOM      4  C   UNL     1      59.683  57.228  25.406  0.00  0.00    +0.000 C 
ATOM      5  C   UNL     1      61.062  57.993  25.772  0.00  0.00    +0.000 C 
ENDROOT
BRANCH   1   7
ATOM      6  C   UNL     1      64.117  57.308  27.049  0.00  0.00    +0.000 A 
ATOM      7  C   UNL     1      62.754  57.105  27.383  0.00  0.00    +0.000 A 
ATOM      8  C   UNL     1      62.458  57.091  28.746  0.00  0.00    +0.000 A 
ATOM      9  N   UNL     1      63.442  57.268  29.641  0.00  0.00    +0.000 NA
ATOM     10  C   UNL     1      64.705  57.456  29.278  0.00  0.00    +0.000 A 
ATOM     11  N   UNL     1      65.064  57.479  27.991  0.00  0.00    +0.000 NA
ATOM     12  N   UNL     1      65.707  57.638  30.272  0.00  0.00    +0.000 N 
ATOM     13  C   UNL     1      66.645  56.779  30.727  0.00  0.00    +0.000 A 
ATOM     14  N   UNL     1      67.399  57.374  31.687  0.00  0.00    +0.000 NA
ATOM     15  C   UNL     1      66.972  58.632  31.879  0.00  0.00    +0.000 A 
ATOM     16  C   UNL     1      67.266  59.738  32.658  0.00  0.00    +0.000 A 
ATOM     17  N   UNL     1      66.568  60.893  32.558  0.00  0.00    +0.000 NA
ATOM     18  C   UNL     1      65.547  61.007  31.682  0.00  0.00    +0.000 A 
ATOM     19  N   UNL     1      65.260  59.934  30.925  0.00  0.00    +0.000 NA
ATOM     20  C   UNL     1      65.930  58.764  30.994  0.00  0.00    +0.000 A 
ENDBRANCH   1   7
BRANCH   5  21
ATOM     21  C   UNL     1      60.698  59.164  26.552  0.00  0.00    +0.000 A 
ATOM     22  C   UNL     1      60.981  59.588  27.854  0.00  0.00    +0.000 A 
ATOM     23  N   UNL     1      60.422  60.798  28.106  0.00  0.00    +0.000 N 
ATOM     24  C   UNL     1      59.781  61.182  26.995  0.00  0.00    +0.000 A 
ATOM     25  C   UNL     1      59.084  62.347  26.799  0.00  0.00    +0.000 A 
ATOM     26  C   UNL     1      58.499  62.593  25.595  0.00  0.00    +0.000 A 
ATOM     27  C   UNL     1      58.635  61.653  24.623  0.00  0.00    +0.000 A 
ATOM     28  C   UNL     1      59.340  60.480  24.837  0.00  0.00    +0.000 A 
ATOM     29  C   UNL     1      59.935  60.210  26.035  0.00  0.00    +0.000 A 
ATOM     30  H   UNL     1      60.480  61.324  28.989  0.00  0.00    +0.000 HD
ENDBRANCH   5  21
TORSDOF 2
