REMARK  Name = 
REMARK  4 active torsions:
REMARK  status: ('A' for Active; 'I' for Inactive)
REMARK    1  A    between atoms: C_3  and  C_17
REMARK    2  A    between atoms: C_5  and  C_7
REMARK    3  A    between atoms: C_10  and  N_12
REMARK    4  A    between atoms: C_20  and  N_22
REMARK                            x       y       z     vdW  Elec       q    Type
REMARK                         _______ _______ _______ _____ _____    ______ ____
ROOT
ATOM      1  C   UNL     1      65.357  56.742  26.020  0.00  0.00    +0.000 A 
ATOM      2  C   UNL     1      64.018  56.683  25.548  0.00  0.00    +0.000 A 
ATOM      3  C   UNL     1      62.985  56.878  26.432  0.00  0.00    +0.000 A 
ATOM      4  N   UNL     1      63.293  57.124  27.745  0.00  0.00    +0.000 NA
ATOM      5  C   UNL     1      64.566  57.174  28.162  0.00  0.00    +0.000 A 
ATOM      6  N   UNL     1      65.608  56.989  27.331  0.00  0.00    +0.000 NA
ENDROOT
BRANCH   5   7
ATOM      7  C   UNL     1      64.804  57.447  29.596  0.00  0.00    +0.000 A 
ATOM      8  C   UNL     1      63.959  58.020  30.495  0.00  0.00    +0.000 A 
ATOM      9  C   UNL     1      64.412  58.163  31.776  0.00  0.00    +0.000 A 
ATOM     10  C   UNL     1      65.694  57.711  32.042  0.00  0.00    +0.000 A 
ATOM     11  S   UNL     1      66.254  57.093  30.510  0.00  0.00    +0.000 S 
BRANCH  10  12
ATOM     12  N   UNL     1      66.415  57.719  33.249  0.00  0.00    +0.000 N 
ATOM     13  C   UNL     1      67.632  57.070  33.384  0.00  0.00    +0.000 C 
ATOM     14  N   UNL     1      67.888  55.950  32.806  0.00  0.00    +0.000 NA
ATOM     15  N   UNL     1      68.611  57.719  34.221  0.00  0.00    +0.000 N 
ATOM     16  H   UNL     1      67.199  55.454  32.247  0.00  0.00    +0.000 HD
ATOM     17  H   UNL     1      66.026  58.223  34.059  0.00  0.00    +0.000 HD
ATOM     18  H   UNL     1      69.535  57.287  34.362  0.00  0.00    +0.000 HD
ATOM     19  H   UNL     1      68.386  58.614  34.678  0.00  0.00    +0.000 HD
ENDBRANCH  10  12
ENDBRANCH   5   7
BRANCH   3  20
ATOM     20  C   UNL     1      61.597  56.828  25.983  0.00  0.00    +0.000 A 
ATOM     21  C   UNL     1      60.797  55.729  26.002  0.00  0.00    +0.000 A 
ATOM     22  C   UNL     1      59.574  56.176  25.477  0.00  0.00    +0.000 A 
ATOM     23  C   UNL     1      59.716  57.513  25.174  0.00  0.00    +0.000 A 
ATOM     24  O   UNL     1      60.943  57.817  25.506  0.00  0.00    +0.000 OA
BRANCH  23  25
ATOM     25  N   UNL     1      58.856  58.483  24.634  0.00  0.00    +0.000 N 
ATOM     26  C   UNL     1      59.386  59.745  24.553  0.00  0.00    +0.000 A 
ATOM     27  C   UNL     1      58.429  60.582  24.025  0.00  0.00    +0.000 A 
ATOM     28  N   UNL     1      57.330  59.801  23.793  0.00  0.00    +0.000 NA
ATOM     29  C   UNL     1      57.632  58.554  24.174  0.00  0.00    +0.000 A 
ATOM     30  N   UNL     1      56.746  57.454  24.129  0.00  0.00    +0.000 N 
ATOM     31  C   UNL     1      56.297  56.401  25.027  0.00  0.00    +0.000 C 
ATOM     32  C   UNL     1      56.705  55.024  24.551  0.00  0.00    +0.000 C 
ATOM     33  C   UNL     1      56.585  54.825  23.073  0.00  0.00    +0.000 C 
ATOM     34  C   UNL     1      56.868  56.037  22.253  0.00  0.00    +0.000 C 
ATOM     35  C   UNL     1      56.101  57.249  22.819  0.00  0.00    +0.000 C 
ENDBRANCH  23  25
ENDBRANCH   3  20
TORSDOF 4
