REMARK  Name = 
REMARK  5 active torsions:
REMARK  status: ('A' for Active; 'I' for Inactive)
REMARK    1  A    between atoms: C_1  and  N_2
REMARK    2  A    between atoms: C_1  and  C_14
REMARK    3  A    between atoms: C_7  and  C_8
REMARK    4  A    between atoms: C_14  and  C_17
REMARK    5  A    between atoms: C_25  and  N_30
REMARK                            x       y       z     vdW  Elec       q    Type
REMARK                         _______ _______ _______ _____ _____    ______ ____
ROOT
ATOM      1  C   UNL     1      65.151  56.730  26.097  0.00  0.00    +0.000 A 
ATOM      2  C   UNL     1      63.892  56.249  25.664  0.00  0.00    +0.000 A 
ATOM      3  C   UNL     1      62.819  56.305  26.540  0.00  0.00    +0.000 A 
ATOM      4  N   UNL     1      63.052  56.823  27.770  0.00  0.00    +0.000 NA
ATOM      5  C   UNL     1      64.250  57.275  28.171  0.00  0.00    +0.000 A 
ATOM      6  N   UNL     1      65.288  57.234  27.354  0.00  0.00    +0.000 NA
ATOM      7  N   UNL     1      64.359  57.798  29.498  0.00  0.00    +0.000 N 
ATOM      8  C   UNL     1      63.526  58.708  30.072  0.00  0.00    +0.000 A 
ATOM      9  N   UNL     1      63.922  58.981  31.342  0.00  0.00    +0.000 NA
ATOM     10  C   UNL     1      65.003  58.243  31.567  0.00  0.00    +0.000 A 
ATOM     11  C   UNL     1      65.874  58.048  32.616  0.00  0.00    +0.000 A 
ATOM     12  N   UNL     1      66.932  57.218  32.600  0.00  0.00    +0.000 NA
ATOM     13  C   UNL     1      67.183  56.504  31.465  0.00  0.00    +0.000 A 
ATOM     14  N   UNL     1      66.336  56.690  30.431  0.00  0.00    +0.000 NA
ATOM     15  C   UNL     1      65.287  57.503  30.431  0.00  0.00    +0.000 A 
ENDROOT
BRANCH  11  16
ATOM     16  N   UNL     1      65.683  58.753  33.834  0.00  0.00    +0.000 N 
ATOM     17  H   UNL     1      66.333  58.609  34.620  0.00  0.00    +0.000 HD
ATOM     18  H   UNL     1      64.894  59.408  33.931  0.00  0.00    +0.000 HD
ENDBRANCH  11  16
BRANCH   3  19
ATOM     19  C   UNL     1      61.524  55.796  26.053  0.00  0.00    +0.000 C 
BRANCH  19  20
ATOM     20  C   UNL     1      60.892  56.693  25.014  0.00  0.00    +0.000 C 
BRANCH  20  21
ATOM     21  N   UNL     1      59.489  56.420  24.904  0.00  0.00    +0.000 NA
ATOM     22  C   UNL     1      59.134  55.067  25.112  0.00  0.00    +0.000 C 
ATOM     23  C   UNL     1      57.645  54.944  24.766  0.00  0.00    +0.000 C 
ATOM     24  O   UNL     1      56.865  55.817  25.494  0.00  0.00    +0.000 OA
ATOM     25  C   UNL     1      57.256  57.127  25.390  0.00  0.00    +0.000 C 
ATOM     26  C   UNL     1      58.696  57.294  25.789  0.00  0.00    +0.000 C 
BRANCH  26  27
ATOM     27  C   UNL     1      59.153  58.690  25.727  0.00  0.00    +0.000 A 
ATOM     28  C   UNL     1      59.919  59.352  26.660  0.00  0.00    +0.000 A 
ATOM     29  C   UNL     1      60.241  60.667  26.447  0.00  0.00    +0.000 A 
ATOM     30  N   UNL     1      59.834  61.355  25.343  0.00  0.00    +0.000 NA
ATOM     31  C   UNL     1      59.084  60.674  24.450  0.00  0.00    +0.000 A 
ATOM     32  N   UNL     1      58.744  59.380  24.619  0.00  0.00    +0.000 NA
ENDBRANCH  26  27
ENDBRANCH  20  21
ENDBRANCH  19  20
ENDBRANCH   3  19
TORSDOF 5
