REMARK  Name = 
REMARK  4 active torsions:
REMARK  status: ('A' for Active; 'I' for Inactive)
REMARK    1  A    between atoms: C_1  and  N_2
REMARK    2  A    between atoms: C_1  and  C_13
REMARK    3  A    between atoms: C_5  and  C_7
REMARK    4  A    between atoms: C_13  and  C_14
REMARK                            x       y       z     vdW  Elec       q    Type
REMARK                         _______ _______ _______ _____ _____    ______ ____
ROOT
ATOM      1  C   UNL     1      62.160  55.986  25.948  0.00  0.00    +0.000 C 
ENDROOT
BRANCH   1   2
ATOM      2  C   UNL     1      61.235  57.043  25.441  0.00  0.00    +0.000 A 
ATOM      3  C   UNL     1      61.401  58.423  25.630  0.00  0.00    +0.000 A 
ATOM      4  C   UNL     1      60.437  59.256  25.085  0.00  0.00    +0.000 A 
ATOM      5  N   UNL     1      59.409  58.717  24.416  0.00  0.00    +0.000 NA
ATOM      6  C   UNL     1      59.269  57.403  24.249  0.00  0.00    +0.000 A 
ATOM      7  N   UNL     1      60.196  56.550  24.769  0.00  0.00    +0.000 NA
ATOM      8  N   UNL     1      58.124  56.984  23.514  0.00  0.00    +0.000 N 
ATOM      9  C   UNL     1      56.966  57.652  23.677  0.00  0.00    +0.000 A 
ATOM     10  N   UNL     1      55.991  57.127  22.914  0.00  0.00    +0.000 NA
ATOM     11  C   UNL     1      56.525  56.097  22.240  0.00  0.00    +0.000 A 
ATOM     12  C   UNL     1      56.121  55.142  21.313  0.00  0.00    +0.000 A 
ATOM     13  N   UNL     1      56.994  54.230  20.851  0.00  0.00    +0.000 NA
ATOM     14  C   UNL     1      58.280  54.210  21.268  0.00  0.00    +0.000 A 
ATOM     15  N   UNL     1      58.757  55.107  22.173  0.00  0.00    +0.000 NA
ATOM     16  C   UNL     1      57.850  56.016  22.620  0.00  0.00    +0.000 A 
ENDBRANCH   1   2
BRANCH   1  17
ATOM     17  C   UNL     1      62.068  55.998  27.458  0.00  0.00    +0.000 C 
BRANCH  17  18
ATOM     18  N   UNL     1      63.250  56.538  28.088  0.00  0.00    +0.000 NA
ATOM     19  C   UNL     1      64.233  57.087  27.359  0.00  0.00    +0.000 C 
ATOM     20  N   UNL     1      65.257  57.365  28.149  0.00  0.00    +0.000 NA
ATOM     21  C   UNL     1      64.822  57.239  29.424  0.00  0.00    +0.000 C 
ATOM     22  N   UNL     1      63.583  56.700  29.358  0.00  0.00    +0.000 NA
ATOM     23  H   UNL     1      66.029  56.706  27.972  0.00  0.00    +0.000 HD
ATOM     24  H   UNL     1      62.908  57.330  29.814  0.00  0.00    +0.000 HD
BRANCH  21  25
ATOM     25  C   UNL     1      65.251  57.490  30.822  0.00  0.00    +0.000 A 
ATOM     26  C   UNL     1      64.519  58.124  31.785  0.00  0.00    +0.000 A 
ATOM     27  C   UNL     1      65.055  58.283  33.042  0.00  0.00    +0.000 A 
ATOM     28  C   UNL     1      66.333  57.786  33.280  0.00  0.00    +0.000 A 
ATOM     29  C   UNL     1      67.092  57.140  32.319  0.00  0.00    +0.000 A 
ATOM     30  C   UNL     1      66.519  56.994  31.049  0.00  0.00    +0.000 A 
ENDBRANCH  21  25
ENDBRANCH  17  18
ENDBRANCH   1  17
TORSDOF 4
