REMARK  Name = 
REMARK  2 active torsions:
REMARK  status: ('A' for Active; 'I' for Inactive)
REMARK    1  A    between atoms: N_1  and  C_7
REMARK    2  A    between atoms: C_5  and  C_17
REMARK                            x       y       z     vdW  Elec       q    Type
REMARK                         _______ _______ _______ _____ _____    ______ ____
ROOT
ATOM      1  N   UNL     1      61.025  56.671  25.963  0.00  0.00    +0.000 N 
ATOM      2  C   UNL     1      60.355  55.403  25.701  0.00  0.00    +0.000 C 
ATOM      3  C   UNL     1      59.168  55.779  24.862  0.00  0.00    +0.000 C 
ATOM      4  C   UNL     1      58.794  57.108  25.516  0.00  0.00    +0.000 C 
ATOM      5  C   UNL     1      60.284  57.744  25.442  0.00  0.00    +0.000 C 
ENDROOT
BRANCH   1   7
ATOM      6  C   UNL     1      63.454  57.111  26.011  0.00  0.00    +0.000 A 
ATOM      7  C   UNL     1      62.240  56.780  26.669  0.00  0.00    +0.000 A 
ATOM      8  C   UNL     1      62.331  56.595  28.047  0.00  0.00    +0.000 A 
ATOM      9  N   UNL     1      63.515  56.737  28.659  0.00  0.00    +0.000 NA
ATOM     10  C   UNL     1      64.625  57.050  28.000  0.00  0.00    +0.000 A 
ATOM     11  N   UNL     1      64.614  57.239  26.677  0.00  0.00    +0.000 NA
ATOM     12  N   UNL     1      65.858  57.189  28.697  0.00  0.00    +0.000 N 
ATOM     13  C   UNL     1      65.924  57.317  30.112  0.00  0.00    +0.000 C 
ATOM     14  N   UNL     1      64.845  56.992  30.778  0.00  0.00    +0.000 NA
ATOM     15  N   UNL     1      67.138  57.781  30.740  0.00  0.00    +0.000 N 
ATOM     16  H   UNL     1      64.893  57.086  31.816  0.00  0.00    +0.000 HD
ATOM     17  H   UNL     1      66.735  57.197  28.157  0.00  0.00    +0.000 HD
ATOM     18  H   UNL     1      67.185  57.873  31.765  0.00  0.00    +0.000 HD
ATOM     19  H   UNL     1      67.957  58.020  30.163  0.00  0.00    +0.000 HD
ENDBRANCH   1   7
BRANCH   5  20
ATOM     20  C   UNL     1      60.238  58.998  26.183  0.00  0.00    +0.000 A 
ATOM     21  C   UNL     1      60.805  59.439  27.378  0.00  0.00    +0.000 A 
ATOM     22  N   UNL     1      60.479  60.732  27.627  0.00  0.00    +0.000 N 
ATOM     23  C   UNL     1      59.712  61.151  26.614  0.00  0.00    +0.000 A 
ATOM     24  C   UNL     1      59.164  62.397  26.447  0.00  0.00    +0.000 A 
ATOM     25  C   UNL     1      58.414  62.667  25.345  0.00  0.00    +0.000 A 
ATOM     26  C   UNL     1      58.235  61.666  24.436  0.00  0.00    +0.000 A 
ATOM     27  C   UNL     1      58.795  60.411  24.620  0.00  0.00    +0.000 A 
ATOM     28  C   UNL     1      59.551  60.117  25.719  0.00  0.00    +0.000 A 
ATOM     29  H   UNL     1      60.768  61.288  28.444  0.00  0.00    +0.000 HD
ENDBRANCH   5  20
TORSDOF 2
