REMARK  Name = 
REMARK  2 active torsions:
REMARK  status: ('A' for Active; 'I' for Inactive)
REMARK    1  A    between atoms: N_1  and  C_16
REMARK    2  A    between atoms: C_5  and  C_6
REMARK                            x       y       z     vdW  Elec       q    Type
REMARK                         _______ _______ _______ _____ _____    ______ ____
ROOT
ATOM      1  N   UNL     1      61.425  57.066  26.211  0.00  0.00    +0.000 N 
ATOM      2  C   UNL     1      60.915  55.754  25.839  0.00  0.00    +0.000 C 
ATOM      3  C   UNL     1      59.970  56.031  24.709  0.00  0.00    +0.000 C 
ATOM      4  C   UNL     1      59.365  57.348  25.193  0.00  0.00    +0.000 C 
ATOM      5  C   UNL     1      60.782  58.080  25.479  0.00  0.00    +0.000 C 
ENDROOT
BRANCH   1   7
ATOM      6  C   UNL     1      63.792  57.079  26.915  0.00  0.00    +0.000 A 
ATOM      7  C   UNL     1      62.416  57.272  27.194  0.00  0.00    +0.000 A 
ATOM      8  C   UNL     1      62.108  57.694  28.488  0.00  0.00    +0.000 A 
ATOM      9  N   UNL     1      63.096  57.894  29.373  0.00  0.00    +0.000 NA
ATOM     10  C   UNL     1      64.374  57.699  29.063  0.00  0.00    +0.000 A 
ATOM     11  N   UNL     1      64.741  57.293  27.845  0.00  0.00    +0.000 NA
ATOM     12  N   UNL     1      65.323  57.949  30.098  0.00  0.00    +0.000 N 
ATOM     13  C   UNL     1      66.393  57.029  30.346  0.00  0.00    +0.000 C 
ATOM     14  C   UNL     1      66.886  56.971  31.749  0.00  0.00    +0.000 C 
ATOM     15  C   UNL     1      66.032  57.772  32.712  0.00  0.00    +0.000 C 
ATOM     16  C   UNL     1      65.997  59.184  32.119  0.00  0.00    +0.000 C 
ATOM     17  C   UNL     1      65.169  59.156  30.885  0.00  0.00    +0.000 C 
ENDBRANCH   1   7
BRANCH   5  18
ATOM     18  C   UNL     1      60.477  59.343  26.143  0.00  0.00    +0.000 A 
ATOM     19  C   UNL     1      60.880  59.932  27.338  0.00  0.00    +0.000 A 
ATOM     20  N   UNL     1      60.320  61.157  27.494  0.00  0.00    +0.000 N 
ATOM     21  C   UNL     1      59.558  61.386  26.418  0.00  0.00    +0.000 A 
ATOM     22  C   UNL     1      58.814  62.507  26.144  0.00  0.00    +0.000 A 
ATOM     23  C   UNL     1      58.106  62.592  24.989  0.00  0.00    +0.000 A 
ATOM     24  C   UNL     1      58.169  61.535  24.135  0.00  0.00    +0.000 A 
ATOM     25  C   UNL     1      58.919  60.406  24.419  0.00  0.00    +0.000 A 
ATOM     26  C   UNL     1      59.637  60.301  25.575  0.00  0.00    +0.000 A 
ATOM     27  H   UNL     1      60.456  61.793  28.293  0.00  0.00    +0.000 HD
ENDBRANCH   5  18
TORSDOF 2
