REMARK  Name = 
REMARK  3 active torsions:
REMARK  status: ('A' for Active; 'I' for Inactive)
REMARK    1  A    between atoms: C_1  and  O_13
REMARK    2  A    between atoms: O_13  and  C_14
REMARK    3  A    between atoms: C_18  and  C_29
REMARK                            x       y       z     vdW  Elec       q    Type
REMARK                         _______ _______ _______ _____ _____    ______ ____
ROOT
ATOM      1  C   UNL     1      64.370  58.239  30.450  0.00  0.00    +0.000 A 
ATOM      2  C   UNL     1      64.755  57.805  31.703  0.00  0.00    +0.000 A 
ATOM      3  C   UNL     1      65.495  58.633  32.556  0.00  0.00    +0.000 A 
ATOM      4  N   UNL     1      65.816  59.873  32.104  0.00  0.00    +0.000 NA
ATOM      5  C   UNL     1      65.441  60.283  30.891  0.00  0.00    +0.000 A 
ATOM      6  N   UNL     1      64.733  59.490  30.076  0.00  0.00    +0.000 NA
ATOM      7  N   UNL     1      65.873  58.156  33.837  0.00  0.00    +0.000 N 
ATOM      8  C   UNL     1      65.357  58.298  35.093  0.00  0.00    +0.000 A 
ATOM      9  N   UNL     1      66.138  57.614  35.962  0.00  0.00    +0.000 NA
ATOM     10  C   UNL     1      67.137  57.049  35.245  0.00  0.00    +0.000 A 
ATOM     11  C   UNL     1      68.186  56.253  35.695  0.00  0.00    +0.000 A 
ATOM     12  N   UNL     1      69.100  55.775  34.812  0.00  0.00    +0.000 NA
ATOM     13  C   UNL     1      68.901  56.129  33.528  0.00  0.00    +0.000 A 
ATOM     14  N   UNL     1      67.915  56.884  33.063  0.00  0.00    +0.000 NA
ATOM     15  C   UNL     1      66.978  57.386  33.904  0.00  0.00    +0.000 A 
ENDROOT
BRANCH   5  16
ATOM     16  C   UNL     1      65.781  61.631  30.379  0.00  0.00    +0.000 C 
ATOM     17  F   UNL     1      64.667  62.391  30.076  0.00  0.00    +0.000 F 
ATOM     18  F   UNL     1      66.538  61.565  29.209  0.00  0.00    +0.000 F 
ATOM     19  F   UNL     1      66.630  62.248  31.293  0.00  0.00    +0.000 F 
ENDBRANCH   5  16
BRANCH   1  20
ATOM     20  O   UNL     1      63.648  57.325  29.713  0.00  0.00    +0.000 OA
BRANCH  20  21
ATOM     21  C   UNL     1      63.411  57.356  28.356  0.00  0.00    +0.000 A 
ATOM     22  C   UNL     1      64.444  56.933  27.529  0.00  0.00    +0.000 A 
ATOM     23  C   UNL     1      64.205  56.965  26.140  0.00  0.00    +0.000 A 
ATOM     24  N   UNL     1      63.001  57.398  25.677  0.00  0.00    +0.000 NA
ATOM     25  C   UNL     1      62.022  57.802  26.524  0.00  0.00    +0.000 A 
ATOM     26  N   UNL     1      62.227  57.782  27.868  0.00  0.00    +0.000 NA
ATOM     27  N   UNL     1      60.772  58.250  26.007  0.00  0.00    +0.000 N 
ATOM     28  C   UNL     1      60.008  59.246  26.743  0.00  0.00    +0.000 C 
ATOM     29  C   UNL     1      58.575  59.297  26.416  0.00  0.00    +0.000 C 
ATOM     30  N   UNL     1      58.200  58.956  25.089  0.00  0.00    +0.000 NA
ATOM     31  C   UNL     1      59.312  58.744  24.191  0.00  0.00    +0.000 C 
ATOM     32  C   UNL     1      60.274  57.721  24.768  0.00  0.00    +0.000 C 
ATOM     33  H   UNL     1      57.644  58.090  25.124  0.00  0.00    +0.000 HD
ENDBRANCH  20  21
ENDBRANCH   1  20
TORSDOF 3
