REMARK  Name = 
REMARK  4 active torsions:
REMARK  status: ('A' for Active; 'I' for Inactive)
REMARK    1  A    between atoms: C_1  and  C_8
REMARK    2  A    between atoms: C_5  and  N_15
REMARK    3  A    between atoms: C_6  and  C_13
REMARK    4  A    between atoms: C_18  and  C_20
REMARK                            x       y       z     vdW  Elec       q    Type
REMARK                         _______ _______ _______ _____ _____    ______ ____
ROOT
ATOM      1  N   UNL     1      66.140  60.539  31.352  0.00  0.00    +0.000 NA
ATOM      2  C   UNL     1      64.922  61.019  31.032  0.00  0.00    +0.000 C 
ATOM      3  N   UNL     1      65.055  61.986  30.106  0.00  0.00    +0.000 NA
ATOM      4  C   UNL     1      66.370  62.121  29.838  0.00  0.00    +0.000 C 
ATOM      5  N   UNL     1      67.008  61.237  30.601  0.00  0.00    +0.000 N 
ATOM      6  H   UNL     1      68.029  61.106  30.614  0.00  0.00    +0.000 HD
ENDROOT
BRANCH   4   7
ATOM      7  C   UNL     1      66.970  63.063  28.884  0.00  0.00    +0.000 A 
ATOM      8  C   UNL     1      66.334  63.793  27.888  0.00  0.00    +0.000 A 
ATOM      9  N   UNL     1      67.282  64.519  27.269  0.00  0.00    +0.000 N 
ATOM     10  C   UNL     1      68.512  64.302  27.808  0.00  0.00    +0.000 A 
ATOM     11  C   UNL     1      69.711  64.873  27.427  0.00  0.00    +0.000 A 
ATOM     12  C   UNL     1      70.806  64.458  28.164  0.00  0.00    +0.000 A 
ATOM     13  C   UNL     1      70.688  63.542  29.202  0.00  0.00    +0.000 A 
ATOM     14  C   UNL     1      69.430  63.019  29.511  0.00  0.00    +0.000 A 
ATOM     15  C   UNL     1      68.310  63.388  28.821  0.00  0.00    +0.000 A 
ATOM     16  H   UNL     1      67.099  65.160  26.484  0.00  0.00    +0.000 HD
ENDBRANCH   4   7
BRANCH   1  21
ATOM     17  C   UNL     1      65.425  58.539  32.429  0.00  0.00    +0.000 C 
ATOM     18  C   UNL     1      65.738  57.839  33.726  0.00  0.00    +0.000 C 
ATOM     19  C   UNL     1      66.237  58.965  34.615  0.00  0.00    +0.000 C 
ATOM     20  C   UNL     1      66.547  60.123  33.682  0.00  0.00    +0.000 C 
ATOM     21  C   UNL     1      66.538  59.492  32.294  0.00  0.00    +0.000 C 
BRANCH  17  24
ATOM     22  C   UNL     1      65.667  57.820  29.977  0.00  0.00    +0.000 C 
ATOM     23  C   UNL     1      66.411  56.860  30.820  0.00  0.00    +0.000 C 
ATOM     24  C   UNL     1      65.274  57.593  31.249  0.00  0.00    +0.000 C 
BRANCH  22  29
ATOM     25  C   UNL     1      64.280  56.976  26.631  0.00  0.00    +0.000 A 
ATOM     26  C   UNL     1      62.962  56.540  26.958  0.00  0.00    +0.000 A 
ATOM     27  C   UNL     1      62.624  56.559  28.301  0.00  0.00    +0.000 A 
ATOM     28  N   UNL     1      63.534  56.976  29.211  0.00  0.00    +0.000 NA
ATOM     29  C   UNL     1      64.784  57.386  28.862  0.00  0.00    +0.000 A 
ATOM     30  N   UNL     1      65.133  57.376  27.569  0.00  0.00    +0.000 NA
ENDBRANCH  22  29
ENDBRANCH  17  24
ENDBRANCH   1  21
TORSDOF 4
