REMARK  Name = 
REMARK  4 active torsions:
REMARK  status: ('A' for Active; 'I' for Inactive)
REMARK    1  A    between atoms: C_3  and  C_17
REMARK    2  A    between atoms: C_5  and  C_7
REMARK    3  A    between atoms: C_10  and  N_12
REMARK    4  A    between atoms: C_20  and  N_22
REMARK                            x       y       z     vdW  Elec       q    Type
REMARK                         _______ _______ _______ _____ _____    ______ ____
ROOT
ATOM      1  C   UNL     1      65.301  56.708  25.941  0.00  0.00    +0.000 A 
ATOM      2  C   UNL     1      63.976  56.641  25.461  0.00  0.00    +0.000 A 
ATOM      3  C   UNL     1      62.932  56.841  26.337  0.00  0.00    +0.000 A 
ATOM      4  N   UNL     1      63.233  57.100  27.645  0.00  0.00    +0.000 NA
ATOM      5  C   UNL     1      64.505  57.157  28.074  0.00  0.00    +0.000 A 
ATOM      6  N   UNL     1      65.548  56.970  27.263  0.00  0.00    +0.000 NA
ENDROOT
BRANCH   5   7
ATOM      7  C   UNL     1      64.731  57.445  29.504  0.00  0.00    +0.000 A 
ATOM      8  C   UNL     1      63.878  58.037  30.399  0.00  0.00    +0.000 A 
ATOM      9  C   UNL     1      64.325  58.196  31.671  0.00  0.00    +0.000 A 
ATOM     10  C   UNL     1      65.600  57.747  31.960  0.00  0.00    +0.000 A 
ATOM     11  S   UNL     1      66.180  57.097  30.432  0.00  0.00    +0.000 S 
BRANCH  10  12
ATOM     12  N   UNL     1      66.316  57.780  33.169  0.00  0.00    +0.000 N 
ATOM     13  C   UNL     1      67.529  57.143  33.332  0.00  0.00    +0.000 C 
ATOM     14  N   UNL     1      67.790  56.017  32.774  0.00  0.00    +0.000 NA
ATOM     15  N   UNL     1      68.503  57.796  34.159  0.00  0.00    +0.000 N 
ATOM     16  H   UNL     1      67.114  55.500  32.217  0.00  0.00    +0.000 HD
ATOM     17  H   UNL     1      65.920  58.300  33.965  0.00  0.00    +0.000 HD
ATOM     18  H   UNL     1      69.424  57.361  34.312  0.00  0.00    +0.000 HD
ATOM     19  H   UNL     1      68.281  58.700  34.600  0.00  0.00    +0.000 HD
ENDBRANCH  10  12
ENDBRANCH   5   7
BRANCH   3  20
ATOM     20  C   UNL     1      61.544  56.784  25.891  0.00  0.00    +0.000 A 
ATOM     21  C   UNL     1      60.719  55.700  25.992  0.00  0.00    +0.000 A 
ATOM     22  C   UNL     1      59.493  56.109  25.437  0.00  0.00    +0.000 A 
ATOM     23  C   UNL     1      59.679  57.431  25.038  0.00  0.00    +0.000 A 
ATOM     24  O   UNL     1      60.908  57.767  25.334  0.00  0.00    +0.000 OA
BRANCH  23  25
ATOM     25  N   UNL     1      58.685  58.242  24.422  0.00  0.00    +0.000 N 
ATOM     26  C   UNL     1      58.669  59.670  24.681  0.00  0.00    +0.000 C 
ATOM     27  C   UNL     1      58.412  60.438  23.386  0.00  0.00    +0.000 C 
ATOM     28  N   UNL     1      58.401  59.534  22.261  0.00  0.00    +0.000 NA
ATOM     29  C   UNL     1      57.351  58.555  22.403  0.00  0.00    +0.000 C 
ATOM     30  C   UNL     1      57.709  57.621  23.545  0.00  0.00    +0.000 C 
ATOM     31  H   UNL     1      59.309  59.050  22.207  0.00  0.00    +0.000 HD
ENDBRANCH  23  25
ENDBRANCH   3  20
TORSDOF 4
