REMARK  Name = 
REMARK  3 active torsions:
REMARK  status: ('A' for Active; 'I' for Inactive)
REMARK    1  A    between atoms: C_1  and  C_20
REMARK    2  A    between atoms: C_9  and  C_10
REMARK    3  A    between atoms: C_16  and  N_22
REMARK                            x       y       z     vdW  Elec       q    Type
REMARK                         _______ _______ _______ _____ _____    ______ ____
ROOT
ATOM      1  C   UNL     1      64.905  58.160  30.029  0.00  0.00    +0.000 A 
ATOM      2  C   UNL     1      64.379  59.382  30.448  0.00  0.00    +0.000 A 
ATOM      3  C   UNL     1      65.029  59.958  31.526  0.00  0.00    +0.000 A 
ATOM      4  C   UNL     1      66.106  59.324  32.096  0.00  0.00    +0.000 A 
ATOM      5  C   UNL     1      66.595  58.124  31.655  0.00  0.00    +0.000 A 
ATOM      6  N   UNL     1      65.966  57.551  30.602  0.00  0.00    +0.000 NA
ATOM      7  N   UNL     1      67.710  57.550  32.308  0.00  0.00    +0.000 N 
ATOM      8  C   UNL     1      67.573  56.481  33.138  0.00  0.00    +0.000 A 
ATOM      9  C   UNL     1      68.641  55.910  33.781  0.00  0.00    +0.000 A 
ATOM     10  C   UNL     1      68.506  54.737  34.694  0.00  0.00    +0.000 C 
ATOM     11  C   UNL     1      69.920  56.391  33.621  0.00  0.00    +0.000 A 
ATOM     12  O   UNL     1      70.947  55.931  34.168  0.00  0.00    +0.000 OA
ATOM     13  N   UNL     1      70.032  57.461  32.787  0.00  0.00    +0.000 N 
ATOM     14  C   UNL     1      68.951  58.007  32.161  0.00  0.00    +0.000 A 
ATOM     15  O   UNL     1      69.194  58.987  31.420  0.00  0.00    +0.000 OA
ATOM     16  H   UNL     1      70.963  57.871  32.624  0.00  0.00    +0.000 HD
ENDROOT
BRANCH   1  21
ATOM     17  C   UNL     1      64.288  56.861  26.653  0.00  0.00    +0.000 A 
ATOM     18  C   UNL     1      63.090  56.153  26.780  0.00  0.00    +0.000 A 
ATOM     19  C   UNL     1      62.501  56.137  28.065  0.00  0.00    +0.000 A 
ATOM     20  N   UNL     1      63.134  56.805  29.077  0.00  0.00    +0.000 NA
ATOM     21  C   UNL     1      64.287  57.470  28.897  0.00  0.00    +0.000 A 
ATOM     22  N   UNL     1      64.853  57.492  27.684  0.00  0.00    +0.000 NA
BRANCH  17  23
ATOM     23  N   UNL     1      64.913  56.900  25.370  0.00  0.00    +0.000 N 
ATOM     24  H   UNL     1      65.797  57.413  25.243  0.00  0.00    +0.000 HD
ATOM     25  H   UNL     1      64.480  56.415  24.571  0.00  0.00    +0.000 HD
ENDBRANCH  17  23
ENDBRANCH   1  21
TORSDOF 2
