REMARK  Name = 
REMARK  7 active torsions:
REMARK  status: ('A' for Active; 'I' for Inactive)
REMARK    1  A    between atoms: C_1  and  C_4
REMARK    2  A    between atoms: C_1  and  C_14
REMARK    3  A    between atoms: C_1  and  C_15
REMARK    4  A    between atoms: C_1  and  C_16
REMARK    5  A    between atoms: C_6  and  C_8
REMARK    6  A    between atoms: C_16  and  C_17
REMARK    7  A    between atoms: N_20  and  C_22
REMARK                            x       y       z     vdW  Elec       q    Type
REMARK                         _______ _______ _______ _____ _____    ______ ____
ROOT
ATOM      1  C   UNL     1      60.793  58.746  27.420  0.00  0.00    +0.000 C 
ENDROOT
BRANCH   1   2
ATOM      2  C   UNL     1      60.108  60.000  27.064  0.00  0.00    +0.000 A 
ATOM      3  C   UNL     1      60.599  61.220  27.509  0.00  0.00    +0.000 A 
ATOM      4  C   UNL     1      59.717  62.173  27.002  0.00  0.00    +0.000 A 
ATOM      5  N   UNL     1      58.764  61.566  26.301  0.00  0.00    +0.000 N 
ATOM      6  N   UNL     1      59.015  60.283  26.351  0.00  0.00    +0.000 NA
BRANCH   5   7
ATOM      7  C   UNL     1      57.704  62.262  25.653  0.00  0.00    +0.000 A 
ATOM      8  C   UNL     1      57.538  62.068  24.281  0.00  0.00    +0.000 A 
ATOM      9  C   UNL     1      56.517  62.730  23.609  0.00  0.00    +0.000 A 
ATOM     10  C   UNL     1      55.646  63.591  24.287  0.00  0.00    +0.000 A 
ATOM     11  C   UNL     1      55.829  63.770  25.661  0.00  0.00    +0.000 A 
ATOM     12  C   UNL     1      54.987  64.614  26.356  0.00  0.00    +0.000 A 
ATOM     13  C   UNL     1      55.162  64.801  27.732  0.00  0.00    +0.000 A 
ATOM     14  C   UNL     1      56.186  64.142  28.422  0.00  0.00    +0.000 A 
ATOM     15  C   UNL     1      56.997  63.313  27.677  0.00  0.00    +0.000 A 
ATOM     16  C   UNL     1      56.854  63.107  26.333  0.00  0.00    +0.000 A 
ENDBRANCH   5   7
ENDBRANCH   1   2
BRANCH   1  17
ATOM     17  C   UNL     1      61.401  58.014  26.238  0.00  0.00    +0.000 C 
ATOM     18  C   UNL     1      60.539  56.858  25.857  0.00  0.00    +0.000 C 
ATOM     19  C   UNL     1      61.442  58.974  25.084  0.00  0.00    +0.000 C 
BRANCH  17  22
ATOM     20  C   UNL     1      65.005  56.797  26.023  0.00  0.00    +0.000 A 
ATOM     21  C   UNL     1      63.703  57.154  25.618  0.00  0.00    +0.000 A 
ATOM     22  C   UNL     1      62.793  57.616  26.573  0.00  0.00    +0.000 A 
ATOM     23  N   UNL     1      63.243  57.692  27.879  0.00  0.00    +0.000 NA
ATOM     24  C   UNL     1      64.489  57.342  28.221  0.00  0.00    +0.000 A 
ATOM     25  N   UNL     1      65.372  56.896  27.304  0.00  0.00    +0.000 NA
BRANCH  24  26
ATOM     26  C   UNL     1      64.908  57.446  29.619  0.00  0.00    +0.000 A 
ATOM     27  C   UNL     1      64.071  58.041  30.548  0.00  0.00    +0.000 A 
ATOM     28  C   UNL     1      64.522  58.109  31.842  0.00  0.00    +0.000 A 
ATOM     29  N   UNL     1      65.702  57.639  32.243  0.00  0.00    +0.000 NA
ATOM     30  C   UNL     1      66.501  57.062  31.318  0.00  0.00    +0.000 A 
ATOM     31  N   UNL     1      66.109  56.964  30.005  0.00  0.00    +0.000 NA
ENDBRANCH  24  26
ENDBRANCH  17  22
ENDBRANCH   1  17
TORSDOF 5
