REMARK  Name = 
REMARK  4 active torsions:
REMARK  status: ('A' for Active; 'I' for Inactive)
REMARK    1  A    between atoms: C_1  and  N_2
REMARK    2  A    between atoms: C_1  and  C_13
REMARK    3  A    between atoms: C_5  and  C_7
REMARK    4  A    between atoms: C_13  and  C_14
REMARK                            x       y       z     vdW  Elec       q    Type
REMARK                         _______ _______ _______ _____ _____    ______ ____
ROOT
ATOM      1  C   UNL     1      62.389  56.616  28.212  0.00  0.00    +0.000 C 
ENDROOT
BRANCH   1   2
ATOM      2  N   UNL     1      63.642  56.900  28.887  0.00  0.00    +0.000 NA
ATOM      3  C   UNL     1      64.729  57.233  28.192  0.00  0.00    +0.000 C 
ATOM      4  N   UNL     1      65.757  57.331  29.027  0.00  0.00    +0.000 NA
ATOM      5  C   UNL     1      65.240  57.339  30.282  0.00  0.00    +0.000 C 
ATOM      6  N   UNL     1      63.925  57.107  30.161  0.00  0.00    +0.000 NA
ATOM      7  H   UNL     1      66.389  56.526  28.908  0.00  0.00    +0.000 HD
ATOM      8  H   UNL     1      63.397  57.922  30.504  0.00  0.00    +0.000 HD
BRANCH   5   9
ATOM      9  C   UNL     1      65.666  57.522  31.689  0.00  0.00    +0.000 A 
ATOM     10  C   UNL     1      64.991  58.272  32.634  0.00  0.00    +0.000 A 
ATOM     11  C   UNL     1      65.512  58.349  33.909  0.00  0.00    +0.000 A 
ATOM     12  C   UNL     1      66.684  57.675  34.191  0.00  0.00    +0.000 A 
ATOM     13  C   UNL     1      67.369  56.921  33.256  0.00  0.00    +0.000 A 
ATOM     14  C   UNL     1      66.836  56.845  31.961  0.00  0.00    +0.000 A 
ENDBRANCH   5   9
ENDBRANCH   1   2
BRANCH   1  15
ATOM     15  C   UNL     1      62.597  56.051  26.815  0.00  0.00    +0.000 C 
BRANCH  15  16
ATOM     16  C   UNL     1      61.411  56.475  26.012  0.00  0.00    +0.000 A 
ATOM     17  C   UNL     1      61.309  57.712  25.329  0.00  0.00    +0.000 A 
ATOM     18  C   UNL     1      60.130  57.925  24.638  0.00  0.00    +0.000 A 
ATOM     19  N   UNL     1      59.159  56.993  24.632  0.00  0.00    +0.000 NA
ATOM     20  C   UNL     1      59.282  55.834  25.284  0.00  0.00    +0.000 A 
ATOM     21  N   UNL     1      60.426  55.583  25.978  0.00  0.00    +0.000 NA
ATOM     22  N   UNL     1      58.197  54.912  25.217  0.00  0.00    +0.000 N 
ATOM     23  N   UNL     1      56.946  54.928  25.661  0.00  0.00    +0.000 NA
ATOM     24  C   UNL     1      56.321  53.788  25.329  0.00  0.00    +0.000 A 
ATOM     25  C   UNL     1      57.237  53.006  24.633  0.00  0.00    +0.000 A 
ATOM     26  C   UNL     1      58.416  53.735  24.573  0.00  0.00    +0.000 A 
ENDBRANCH  15  16
ENDBRANCH   1  15
TORSDOF 4
