REMARK  Name = 
REMARK  6 active torsions:
REMARK  status: ('A' for Active; 'I' for Inactive)
REMARK    1  A    between atoms: C_1  and  O_15
REMARK    2  A    between atoms: C_4  and  C_6
REMARK    3  A    between atoms: O_15  and  C_16
REMARK    4  A    between atoms: C_16  and  C_20
REMARK    5  A    between atoms: C_22  and  C_27
REMARK    6  A    between atoms: C_24  and  S_30
REMARK                            x       y       z     vdW  Elec       q    Type
REMARK                         _______ _______ _______ _____ _____    ______ ____
ROOT
ATOM      1  C   UNL     1      61.532  56.735  26.419  0.00  0.00    +0.000 C 
ATOM      2  O   UNL     1      61.093  55.697  25.910  0.00  0.00    +0.000 OA
ENDROOT
BRANCH   1   5
ATOM      3  C   UNL     1      65.259  56.780  26.155  0.00  0.00    +0.000 A 
ATOM      4  C   UNL     1      63.897  56.675  25.767  0.00  0.00    +0.000 A 
ATOM      5  C   UNL     1      62.946  56.828  26.735  0.00  0.00    +0.000 A 
ATOM      6  N   UNL     1      63.353  57.068  27.996  0.00  0.00    +0.000 NA
ATOM      7  C   UNL     1      64.657  57.165  28.358  0.00  0.00    +0.000 A 
ATOM      8  N   UNL     1      65.598  57.025  27.454  0.00  0.00    +0.000 NA
BRANCH   7  12
ATOM      9  C   UNL     1      65.506  57.968  32.476  0.00  0.00    +0.000 A 
ATOM     10  C   UNL     1      64.312  58.369  31.912  0.00  0.00    +0.000 A 
ATOM     11  C   UNL     1      64.075  58.092  30.581  0.00  0.00    +0.000 A 
ATOM     12  C   UNL     1      64.966  57.428  29.759  0.00  0.00    +0.000 A 
ATOM     13  C   UNL     1      66.155  57.035  30.339  0.00  0.00    +0.000 A 
ATOM     14  C   UNL     1      66.427  57.299  31.686  0.00  0.00    +0.000 A 
BRANCH   9  15
ATOM     15  S   UNL     1      65.838  58.303  34.163  0.00  0.00    +0.000 S 
ATOM     16  O   UNL     1      66.420  59.705  34.259  0.00  0.00    +0.000 OA
ATOM     17  O   UNL     1      66.897  57.360  34.661  0.00  0.00    +0.000 OA
ATOM     18  H   UNL     1      64.686  58.171  34.893  0.00  0.00    +0.000 HD
ENDBRANCH   9  15
ENDBRANCH   7  12
ENDBRANCH   1   5
BRANCH   1  19
ATOM     19  O   UNL     1      60.694  57.828  26.700  0.00  0.00    +0.000 OA
BRANCH  19  20
ATOM     20  C   UNL     1      60.367  58.657  25.609  0.00  0.00    +0.000 A 
ATOM     21  C   UNL     1      61.255  59.235  24.703  0.00  0.00    +0.000 A 
ATOM     22  C   UNL     1      60.517  59.979  23.780  0.00  0.00    +0.000 A 
ATOM     23  C   UNL     1      59.208  59.803  24.192  0.00  0.00    +0.000 A 
ATOM     24  O   UNL     1      59.170  59.044  25.234  0.00  0.00    +0.000 OA
BRANCH  23  25
ATOM     25  C   UNL     1      58.079  60.419  23.496  0.00  0.00    +0.000 A 
ATOM     26  C   UNL     1      57.502  60.059  22.294  0.00  0.00    +0.000 A 
ATOM     27  N   UNL     1      56.497  60.876  22.012  0.00  0.00    +0.000 N 
ATOM     28  C   UNL     1      56.367  61.782  22.982  0.00  0.00    +0.000 A 
ATOM     29  C   UNL     1      55.475  62.807  23.107  0.00  0.00    +0.000 A 
ATOM     30  C   UNL     1      55.588  63.589  24.237  0.00  0.00    +0.000 A 
ATOM     31  C   UNL     1      56.547  63.398  25.243  0.00  0.00    +0.000 A 
ATOM     32  C   UNL     1      57.409  62.339  25.036  0.00  0.00    +0.000 A 
ATOM     33  C   UNL     1      57.356  61.514  23.931  0.00  0.00    +0.000 A 
ATOM     34  H   UNL     1      55.906  60.820  21.171  0.00  0.00    +0.000 HD
ENDBRANCH  23  25
ENDBRANCH  19  20
ENDBRANCH   1  19
TORSDOF 6
