REMARK  Name = 
REMARK  3 active torsions:
REMARK  status: ('A' for Active; 'I' for Inactive)
REMARK    1  A    between atoms: C_3  and  C_7
REMARK    2  A    between atoms: C_5  and  C_16
REMARK    3  A    between atoms: C_19  and  N_21
REMARK                            x       y       z     vdW  Elec       q    Type
REMARK                         _______ _______ _______ _____ _____    ______ ____
ROOT
ATOM      1  C   UNL     1      65.229  56.775  26.014  0.00  0.00    +0.000 A 
ATOM      2  C   UNL     1      63.869  56.745  25.561  0.00  0.00    +0.000 A 
ATOM      3  C   UNL     1      62.864  56.952  26.473  0.00  0.00    +0.000 A 
ATOM      4  N   UNL     1      63.209  57.176  27.766  0.00  0.00    +0.000 NA
ATOM      5  C   UNL     1      64.483  57.201  28.175  0.00  0.00    +0.000 A 
ATOM      6  N   UNL     1      65.511  57.004  27.321  0.00  0.00    +0.000 NA
ENDROOT
BRANCH   3   7
ATOM      7  C   UNL     1      61.479  56.933  26.081  0.00  0.00    +0.000 A 
ATOM      8  C   UNL     1      60.716  55.802  25.868  0.00  0.00    +0.000 A 
ATOM      9  N   UNL     1      59.463  56.170  25.512  0.00  0.00    +0.000 N 
ATOM     10  C   UNL     1      59.411  57.520  25.495  0.00  0.00    +0.000 A 
ATOM     11  C   UNL     1      58.351  58.348  25.193  0.00  0.00    +0.000 A 
ATOM     12  C   UNL     1      58.505  59.720  25.234  0.00  0.00    +0.000 A 
ATOM     13  C   UNL     1      59.745  60.174  25.585  0.00  0.00    +0.000 A 
ATOM     14  C   UNL     1      60.841  59.387  25.896  0.00  0.00    +0.000 A 
ATOM     15  C   UNL     1      60.666  58.022  25.849  0.00  0.00    +0.000 A 
ATOM     16  H   UNL     1      58.685  55.532  25.292  0.00  0.00    +0.000 HD
ENDBRANCH   3   7
BRANCH   5  17
ATOM     17  C   UNL     1      64.758  57.454  29.588  0.00  0.00    +0.000 A 
ATOM     18  C   UNL     1      63.929  58.024  30.531  0.00  0.00    +0.000 A 
ATOM     19  C   UNL     1      64.419  58.159  31.798  0.00  0.00    +0.000 A 
ATOM     20  C   UNL     1      65.700  57.717  32.039  0.00  0.00    +0.000 A 
ATOM     21  S   UNL     1      66.233  57.100  30.466  0.00  0.00    +0.000 S 
BRANCH  20  22
ATOM     22  N   UNL     1      66.456  57.729  33.224  0.00  0.00    +0.000 N 
ATOM     23  C   UNL     1      67.675  57.074  33.338  0.00  0.00    +0.000 C 
ATOM     24  N   UNL     1      67.869  55.938  32.784  0.00  0.00    +0.000 NA
ATOM     25  N   UNL     1      68.715  57.713  34.102  0.00  0.00    +0.000 N 
ATOM     26  H   UNL     1      67.169  55.436  32.236  0.00  0.00    +0.000 HD
ATOM     27  H   UNL     1      66.092  58.243  34.039  0.00  0.00    +0.000 HD
ATOM     28  H   UNL     1      69.632  57.255  34.207  0.00  0.00    +0.000 HD
ATOM     29  H   UNL     1      68.542  58.627  34.543  0.00  0.00    +0.000 HD
ENDBRANCH  20  22
ENDBRANCH   5  17
TORSDOF 3
