REMARK  Name = 
REMARK  2 active torsions:
REMARK  status: ('A' for Active; 'I' for Inactive)
REMARK    1  A    between atoms: C_1  and  C_21
REMARK    2  A    between atoms: C_5  and  C_7
REMARK                            x       y       z     vdW  Elec       q    Type
REMARK                         _______ _______ _______ _____ _____    ______ ____
ROOT
ATOM      1  C   UNL     1      64.944  57.740  30.720  0.00  0.00    +0.000 A 
ATOM      2  C   UNL     1      64.051  58.152  31.685  0.00  0.00    +0.000 A 
ATOM      3  C   UNL     1      64.617  58.396  32.934  0.00  0.00    +0.000 A 
ATOM      4  C   UNL     1      65.967  58.222  33.121  0.00  0.00    +0.000 A 
ATOM      5  C   UNL     1      66.843  57.810  32.145  0.00  0.00    +0.000 A 
ATOM      6  N   UNL     1      66.229  57.597  30.978  0.00  0.00    +0.000 NA
ENDROOT
BRANCH   5   7
ATOM      7  C   UNL     1      68.229  57.685  32.538  0.00  0.00    +0.000 A 
ATOM      8  N   UNL     1      69.150  58.542  32.066  0.00  0.00    +0.000 NA
ATOM      9  C   UNL     1      70.451  58.496  32.379  0.00  0.00    +0.000 A 
ATOM     10  N   UNL     1      70.953  57.580  33.201  0.00  0.00    +0.000 NA
ATOM     11  C   UNL     1      70.106  56.671  33.729  0.00  0.00    +0.000 A 
ATOM     12  C   UNL     1      70.576  55.709  34.581  0.00  0.00    +0.000 A 
ATOM     13  C   UNL     1      69.731  54.761  35.139  0.00  0.00    +0.000 A 
ATOM     14  C   UNL     1      68.389  54.835  34.795  0.00  0.00    +0.000 A 
ATOM     15  C   UNL     1      67.962  55.818  33.937  0.00  0.00    +0.000 A 
ATOM     16  C   UNL     1      68.783  56.752  33.384  0.00  0.00    +0.000 A 
ENDBRANCH   5   7
BRANCH   1  21
ATOM     17  C   UNL     1      64.900  57.052  27.123  0.00  0.00    +0.000 A 
ATOM     18  C   UNL     1      63.547  56.879  26.836  0.00  0.00    +0.000 A 
ATOM     19  C   UNL     1      62.638  57.005  27.929  0.00  0.00    +0.000 A 
ATOM     20  N   UNL     1      63.158  57.282  29.151  0.00  0.00    +0.000 NA
ATOM     21  C   UNL     1      64.480  57.440  29.374  0.00  0.00    +0.000 A 
ATOM     22  N   UNL     1      65.358  57.323  28.346  0.00  0.00    +0.000 NA
ATOM     23  N   UNL     1      65.803  56.936  26.044  0.00  0.00    +0.000 N 
ATOM     24  H   UNL     1      65.452  56.727  25.099  0.00  0.00    +0.000 HD
ATOM     25  H   UNL     1      66.813  57.061  26.202  0.00  0.00    +0.000 HD
ENDBRANCH   1  21
TORSDOF 2
