REMARK  Name = 
REMARK  2 active torsions:
REMARK  status: ('A' for Active; 'I' for Inactive)
REMARK    1  A    between atoms: N_1  and  C_7
REMARK    2  A    between atoms: C_5  and  C_20
REMARK                            x       y       z     vdW  Elec       q    Type
REMARK                         _______ _______ _______ _____ _____    ______ ____
ROOT
ATOM      1  C   UNL     1      64.118  57.245  27.791  0.00  0.00    +0.000 A 
ATOM      2  C   UNL     1      62.729  57.502  27.875  0.00  0.00    +0.000 A 
ATOM      3  C   UNL     1      62.325  58.173  29.018  0.00  0.00    +0.000 A 
ATOM      4  N   UNL     1      63.209  58.540  29.956  0.00  0.00    +0.000 NA
ATOM      5  C   UNL     1      64.506  58.273  29.826  0.00  0.00    +0.000 A 
ATOM      6  N   UNL     1      64.978  57.629  28.757  0.00  0.00    +0.000 NA
ATOM      7  N   UNL     1      65.506  58.631  30.775  0.00  0.00    +0.000 N 
ATOM      8  C   UNL     1      65.410  59.810  31.418  0.00  0.00    +0.000 A 
ATOM      9  C   UNL     1      66.424  60.101  32.337  0.00  0.00    +0.000 A 
ATOM     10  C   UNL     1      67.468  59.210  32.563  0.00  0.00    +0.000 A 
ATOM     11  N   UNL     1      68.518  59.466  33.487  0.00  0.00    +0.000 N 
ATOM     12  N   UNL     1      67.486  58.054  31.877  0.00  0.00    +0.000 NA
ATOM     13  C   UNL     1      66.507  57.750  30.974  0.00  0.00    +0.000 A 
ATOM     14  O   UNL     1      66.601  56.647  30.377  0.00  0.00    +0.000 OA
ATOM     15  H   UNL     1      69.269  58.773  33.618  0.00  0.00    +0.000 HD
ATOM     16  H   UNL     1      68.528  60.344  34.025  0.00  0.00    +0.000 HD
ENDROOT
BRANCH   2  17
ATOM     17  N   UNL     1      61.834  57.117  26.862  0.00  0.00    +0.000 N 
ATOM     18  C   UNL     1      61.494  55.736  26.542  0.00  0.00    +0.000 C 
ATOM     19  C   UNL     1      60.627  55.836  25.322  0.00  0.00    +0.000 C 
ATOM     20  C   UNL     1      59.854  57.118  25.636  0.00  0.00    +0.000 C 
ATOM     21  C   UNL     1      61.121  57.992  26.032  0.00  0.00    +0.000 C 
BRANCH  21  22
ATOM     22  C   UNL     1      60.644  59.254  26.561  0.00  0.00    +0.000 A 
ATOM     23  C   UNL     1      60.820  59.946  27.718  0.00  0.00    +0.000 A 
ATOM     24  N   UNL     1      60.229  61.148  27.724  0.00  0.00    +0.000 N 
ATOM     25  C   UNL     1      59.629  61.275  26.539  0.00  0.00    +0.000 A 
ATOM     26  C   UNL     1      58.838  62.305  26.075  0.00  0.00    +0.000 A 
ATOM     27  C   UNL     1      58.238  62.240  24.842  0.00  0.00    +0.000 A 
ATOM     28  C   UNL     1      58.457  61.106  24.083  0.00  0.00    +0.000 A 
ATOM     29  C   UNL     1      59.251  60.088  24.559  0.00  0.00    +0.000 A 
ATOM     30  C   UNL     1      59.862  60.143  25.808  0.00  0.00    +0.000 A 
ATOM     31  H   UNL     1      60.236  61.837  28.490  0.00  0.00    +0.000 HD
ENDBRANCH  21  22
ENDBRANCH   2  17
TORSDOF 2
