REMARK  Name = 
REMARK  2 active torsions:
REMARK  status: ('A' for Active; 'I' for Inactive)
REMARK    1  A    between atoms: C_2  and  N_18
REMARK    2  A    between atoms: C_23  and  C_24
REMARK                            x       y       z     vdW  Elec       q    Type
REMARK                         _______ _______ _______ _____ _____    ______ ____
ROOT
ATOM      1  C   UNL     1      63.497  56.755  26.787  0.00  0.00    +0.000 A 
ATOM      2  C   UNL     1      62.164  57.113  26.909  0.00  0.00    +0.000 A 
ATOM      3  C   UNL     1      61.794  57.811  28.056  0.00  0.00    +0.000 A 
ATOM      4  N   UNL     1      62.729  58.111  28.991  0.00  0.00    +0.000 NA
ATOM      5  C   UNL     1      64.025  57.746  28.840  0.00  0.00    +0.000 A 
ATOM      6  N   UNL     1      64.395  57.072  27.742  0.00  0.00    +0.000 NA
ATOM      7  N   UNL     1      65.045  58.036  29.791  0.00  0.00    +0.000 N 
ATOM      8  C   UNL     1      65.944  57.077  30.116  0.00  0.00    +0.000 A 
ATOM      9  N   UNL     1      66.812  57.574  31.031  0.00  0.00    +0.000 NA
ATOM     10  C   UNL     1      66.424  58.847  31.255  0.00  0.00    +0.000 A 
ATOM     11  C   UNL     1      66.872  59.885  32.056  0.00  0.00    +0.000 A 
ATOM     12  O   UNL     1      67.883  59.650  32.780  0.00  0.00    +0.000 OA
ATOM     13  N   UNL     1      66.233  61.080  32.044  0.00  0.00    +0.000 N 
ATOM     14  C   UNL     1      65.159  61.318  31.272  0.00  0.00    +0.000 A 
ATOM     15  N   UNL     1      64.624  62.629  31.392  0.00  0.00    +0.000 N 
ATOM     16  N   UNL     1      64.686  60.342  30.475  0.00  0.00    +0.000 NA
ATOM     17  C   UNL     1      65.318  59.154  30.486  0.00  0.00    +0.000 A 
ATOM     18  H   UNL     1      66.584  61.835  32.650  0.00  0.00    +0.000 HD
ATOM     19  H   UNL     1      63.800  62.902  30.838  0.00  0.00    +0.000 HD
ATOM     20  H   UNL     1      65.060  63.307  32.033  0.00  0.00    +0.000 HD
ENDROOT
BRANCH   2  21
ATOM     21  N   UNL     1      61.177  56.813  25.949  0.00  0.00    +0.000 N 
ATOM     22  C   UNL     1      60.483  55.568  25.927  0.00  0.00    +0.000 C 
ATOM     23  C   UNL     1      59.297  55.499  25.057  0.00  0.00    +0.000 C 
ATOM     24  C   UNL     1      58.520  56.735  24.858  0.00  0.00    +0.000 C 
ATOM     25  C   UNL     1      59.270  57.998  25.221  0.00  0.00    +0.000 C 
ATOM     26  C   UNL     1      60.746  57.699  24.891  0.00  0.00    +0.000 C 
BRANCH  26  27
ATOM     27  C   UNL     1      61.429  59.029  24.855  0.00  0.00    +0.000 C 
ATOM     28  F   UNL     1      61.140  59.694  26.065  0.00  0.00    +0.000 F 
ATOM     29  F   UNL     1      62.796  58.817  24.881  0.00  0.00    +0.000 F 
ATOM     30  F   UNL     1      61.077  59.838  23.826  0.00  0.00    +0.000 F 
ENDBRANCH  26  27
ENDBRANCH   2  21
TORSDOF 2
