REMARK  Name = 
REMARK  4 active torsions:
REMARK  status: ('A' for Active; 'I' for Inactive)
REMARK    1  A    between atoms: O_1  and  C_2
REMARK    2  A    between atoms: O_1  and  C_14
REMARK    3  A    between atoms: C_16  and  C_20
REMARK    4  A    between atoms: C_18  and  C_30
REMARK                            x       y       z     vdW  Elec       q    Type
REMARK                         _______ _______ _______ _____ _____    ______ ____
ROOT
ATOM      1  C   UNL     1      64.431  58.274  30.301  0.00  0.00    +0.000 A 
ATOM      2  C   UNL     1      64.826  57.898  31.567  0.00  0.00    +0.000 A 
ATOM      3  C   UNL     1      65.570  58.740  32.393  0.00  0.00    +0.000 A 
ATOM      4  N   UNL     1      65.880  59.945  31.878  0.00  0.00    +0.000 NA
ATOM      5  C   UNL     1      65.507  60.322  30.661  0.00  0.00    +0.000 A 
ATOM      6  N   UNL     1      64.795  59.511  29.875  0.00  0.00    +0.000 NA
ENDROOT
BRANCH   3   7
ATOM      7  C   UNL     1      65.895  58.174  33.699  0.00  0.00    +0.000 A 
ATOM      8  N   UNL     1      65.141  58.403  34.772  0.00  0.00    +0.000 NA
ATOM      9  C   UNL     1      65.401  57.911  35.976  0.00  0.00    +0.000 A 
ATOM     10  N   UNL     1      66.483  57.112  36.218  0.00  0.00    +0.000 NA
ATOM     11  C   UNL     1      67.304  56.828  35.177  0.00  0.00    +0.000 A 
ATOM     12  C   UNL     1      68.397  56.030  35.394  0.00  0.00    +0.000 A 
ATOM     13  C   UNL     1      69.249  55.720  34.370  0.00  0.00    +0.000 A 
ATOM     14  C   UNL     1      68.950  56.253  33.115  0.00  0.00    +0.000 A 
ATOM     15  C   UNL     1      67.847  57.043  32.961  0.00  0.00    +0.000 A 
ATOM     16  C   UNL     1      66.976  57.371  33.962  0.00  0.00    +0.000 A 
ENDBRANCH   3   7
BRANCH   5  17
ATOM     17  C   UNL     1      65.857  61.654  30.110  0.00  0.00    +0.000 C 
ATOM     18  F   UNL     1      64.748  62.413  29.812  0.00  0.00    +0.000 F 
ATOM     19  F   UNL     1      66.597  61.562  28.942  0.00  0.00    +0.000 F 
ATOM     20  F   UNL     1      66.714  62.296  31.005  0.00  0.00    +0.000 F 
ENDBRANCH   5  17
BRANCH   1  21
ATOM     21  O   UNL     1      63.701  57.348  29.591  0.00  0.00    +0.000 OA
BRANCH  21  22
ATOM     22  C   UNL     1      63.309  57.412  28.274  0.00  0.00    +0.000 A 
ATOM     23  C   UNL     1      64.218  56.941  27.333  0.00  0.00    +0.000 A 
ATOM     24  C   UNL     1      63.801  57.014  25.989  0.00  0.00    +0.000 A 
ATOM     25  N   UNL     1      62.574  57.523  25.674  0.00  0.00    +0.000 NA
ATOM     26  C   UNL     1      61.732  57.967  26.640  0.00  0.00    +0.000 A 
ATOM     27  N   UNL     1      62.112  57.905  27.927  0.00  0.00    +0.000 NA
ATOM     28  N   UNL     1      60.458  58.492  26.284  0.00  0.00    +0.000 N 
ATOM     29  C   UNL     1      59.852  59.529  27.095  0.00  0.00    +0.000 C 
ATOM     30  C   UNL     1      58.390  59.658  26.958  0.00  0.00    +0.000 C 
ATOM     31  N   UNL     1      57.844  59.367  25.674  0.00  0.00    +0.000 NA
ATOM     32  C   UNL     1      58.812  59.073  24.668  0.00  0.00    +0.000 C 
ATOM     33  C   UNL     1      59.777  57.991  25.117  0.00  0.00    +0.000 C 
ATOM     34  H   UNL     1      57.221  58.552  25.767  0.00  0.00    +0.000 HD
ENDBRANCH  21  22
ENDBRANCH   1  21
TORSDOF 4
