REMARK  Name = 
REMARK  3 active torsions:
REMARK  status: ('A' for Active; 'I' for Inactive)
REMARK    1  A    between atoms: C_1  and  C_6
REMARK    2  A    between atoms: C_5  and  C_12
REMARK    3  A    between atoms: C_12  and  C_13
REMARK                            x       y       z     vdW  Elec       q    Type
REMARK                         _______ _______ _______ _____ _____    ______ ____
ROOT
ATOM      1  C   UNL     1      64.298  57.405  27.450  0.00  0.00    +0.000 C 
ATOM      2  C   UNL     1      65.439  57.026  26.577  0.00  0.00    +0.000 C 
ATOM      3  C   UNL     1      64.937  55.976  25.628  0.00  0.00    +0.000 C 
ATOM      4  C   UNL     1      63.421  56.124  25.712  0.00  0.00    +0.000 C 
ATOM      5  C   UNL     1      63.141  56.492  27.180  0.00  0.00    +0.000 C 
ENDROOT
BRANCH   1   6
ATOM      6  C   UNL     1      64.736  57.430  28.865  0.00  0.00    +0.000 A 
ATOM      7  C   UNL     1      63.837  58.043  29.761  0.00  0.00    +0.000 A 
ATOM      8  C   UNL     1      64.230  58.097  31.097  0.00  0.00    +0.000 A 
ATOM      9  N   UNL     1      65.446  57.562  31.472  0.00  0.00    +0.000 NA
ATOM     10  C   UNL     1      66.265  56.988  30.573  0.00  0.00    +0.000 A 
ATOM     11  N   UNL     1      65.931  56.911  29.264  0.00  0.00    +0.000 NA
ENDBRANCH   1   6
BRANCH   5  12
ATOM     12  C   UNL     1      61.812  57.192  27.300  0.00  0.00    +0.000 C 
BRANCH  12  13
ATOM     13  C   UNL     1      60.922  56.897  26.153  0.00  0.00    +0.000 A 
ATOM     14  C   UNL     1      60.411  55.596  26.041  0.00  0.00    +0.000 A 
ATOM     15  C   UNL     1      59.560  55.183  25.043  0.00  0.00    +0.000 A 
ATOM     16  C   UNL     1      59.219  56.149  24.123  0.00  0.00    +0.000 A 
ATOM     17  C   UNL     1      59.667  57.431  24.156  0.00  0.00    +0.000 A 
ATOM     18  C   UNL     1      59.310  58.373  23.214  0.00  0.00    +0.000 A 
ATOM     19  C   UNL     1      59.783  59.673  23.263  0.00  0.00    +0.000 A 
ATOM     20  C   UNL     1      60.637  59.975  24.314  0.00  0.00    +0.000 A 
ATOM     21  C   UNL     1      61.032  59.082  25.288  0.00  0.00    +0.000 A 
ATOM     22  C   UNL     1      60.527  57.796  25.187  0.00  0.00    +0.000 A 
ENDBRANCH  12  13
ENDBRANCH   5  12
TORSDOF 3
