REMARK  Name = 
REMARK  5 active torsions:
REMARK  status: ('A' for Active; 'I' for Inactive)
REMARK    1  A    between atoms: C_1  and  N_2
REMARK    2  A    between atoms: C_1  and  C_13
REMARK    3  A    between atoms: C_5  and  C_7
REMARK    4  A    between atoms: C_13  and  C_14
REMARK    5  A    between atoms: C_18  and  C_20
REMARK                            x       y       z     vdW  Elec       q    Type
REMARK                         _______ _______ _______ _____ _____    ______ ____
ROOT
ATOM      1  C   UNL     1      62.556  57.180  28.182  0.00  0.00    +0.000 C 
ENDROOT
BRANCH   1   2
ATOM      2  N   UNL     1      63.785  57.198  28.947  0.00  0.00    +0.000 NA
ATOM      3  C   UNL     1      64.967  57.200  28.340  0.00  0.00    +0.000 C 
ATOM      4  N   UNL     1      65.927  57.110  29.255  0.00  0.00    +0.000 NA
ATOM      5  C   UNL     1      65.339  57.336  30.457  0.00  0.00    +0.000 C 
ATOM      6  N   UNL     1      64.017  57.397  30.234  0.00  0.00    +0.000 NA
ATOM      7  H   UNL     1      66.349  56.170  29.237  0.00  0.00    +0.000 HD
ATOM      8  H   UNL     1      63.663  58.325  30.509  0.00  0.00    +0.000 HD
BRANCH   5   9
ATOM      9  C   UNL     1      65.683  57.530  31.887  0.00  0.00    +0.000 A 
ATOM     10  C   UNL     1      64.930  58.228  32.803  0.00  0.00    +0.000 A 
ATOM     11  C   UNL     1      65.376  58.325  34.097  0.00  0.00    +0.000 A 
ATOM     12  C   UNL     1      66.568  57.714  34.429  0.00  0.00    +0.000 A 
ATOM     13  C   UNL     1      67.338  57.012  33.530  0.00  0.00    +0.000 A 
ATOM     14  C   UNL     1      66.887  56.911  32.210  0.00  0.00    +0.000 A 
ENDBRANCH   5   9
ENDBRANCH   1   2
BRANCH   1  15
ATOM     15  C   UNL     1      62.813  57.082  26.689  0.00  0.00    +0.000 C 
BRANCH  15  16
ATOM     16  C   UNL     1      61.526  57.444  26.026  0.00  0.00    +0.000 A 
ATOM     17  C   UNL     1      61.230  58.712  25.527  0.00  0.00    +0.000 A 
ATOM     18  C   UNL     1      59.973  58.872  24.936  0.00  0.00    +0.000 A 
ATOM     19  N   UNL     1      59.115  57.821  24.872  0.00  0.00    +0.000 NA
ATOM     20  C   UNL     1      59.434  56.623  25.360  0.00  0.00    +0.000 A 
ATOM     21  N   UNL     1      60.639  56.457  25.930  0.00  0.00    +0.000 NA
BRANCH  20  22
ATOM     22  C   UNL     1      58.502  55.501  25.283  0.00  0.00    +0.000 A 
ATOM     23  C   UNL     1      58.878  54.337  24.643  0.00  0.00    +0.000 A 
ATOM     24  C   UNL     1      58.065  53.231  24.523  0.00  0.00    +0.000 A 
ATOM     25  C   UNL     1      56.804  53.301  25.080  0.00  0.00    +0.000 A 
ATOM     26  C   UNL     1      56.439  54.466  25.716  0.00  0.00    +0.000 A 
ATOM     27  C   UNL     1      57.253  55.595  25.844  0.00  0.00    +0.000 A 
ENDBRANCH  20  22
ENDBRANCH  15  16
ENDBRANCH   1  15
TORSDOF 5
