REMARK  Name = 
REMARK  4 active torsions:
REMARK  status: ('A' for Active; 'I' for Inactive)
REMARK    1  A    between atoms: C_3  and  C_17
REMARK    2  A    between atoms: C_5  and  C_7
REMARK    3  A    between atoms: C_10  and  N_12
REMARK    4  A    between atoms: C_20  and  C_22
REMARK                            x       y       z     vdW  Elec       q    Type
REMARK                         _______ _______ _______ _____ _____    ______ ____
ROOT
ATOM      1  C   UNL     1      65.260  56.754  25.963  0.00  0.00    +0.000 A 
ATOM      2  C   UNL     1      63.926  56.655  25.507  0.00  0.00    +0.000 A 
ATOM      3  C   UNL     1      62.889  56.824  26.406  0.00  0.00    +0.000 A 
ATOM      4  N   UNL     1      63.214  57.078  27.696  0.00  0.00    +0.000 NA
ATOM      5  C   UNL     1      64.490  57.168  28.111  0.00  0.00    +0.000 A 
ATOM      6  N   UNL     1      65.525  57.014  27.282  0.00  0.00    +0.000 NA
ENDROOT
BRANCH   5   7
ATOM      7  C   UNL     1      64.727  57.452  29.539  0.00  0.00    +0.000 A 
ATOM      8  C   UNL     1      63.887  58.044  30.446  0.00  0.00    +0.000 A 
ATOM      9  C   UNL     1      64.348  58.198  31.723  0.00  0.00    +0.000 A 
ATOM     10  C   UNL     1      65.614  57.748  31.993  0.00  0.00    +0.000 A 
ATOM     11  S   UNL     1      66.176  57.102  30.456  0.00  0.00    +0.000 S 
BRANCH  10  12
ATOM     12  N   UNL     1      66.352  57.772  33.198  0.00  0.00    +0.000 N 
ATOM     13  C   UNL     1      67.571  57.142  33.331  0.00  0.00    +0.000 C 
ATOM     14  N   UNL     1      67.812  56.005  32.777  0.00  0.00    +0.000 NA
ATOM     15  N   UNL     1      68.588  57.793  34.115  0.00  0.00    +0.000 N 
ATOM     16  H   UNL     1      67.133  55.496  32.217  0.00  0.00    +0.000 HD
ATOM     17  H   UNL     1      65.965  58.279  34.007  0.00  0.00    +0.000 HD
ATOM     18  H   UNL     1      69.510  57.349  34.234  0.00  0.00    +0.000 HD
ATOM     19  H   UNL     1      68.394  58.703  34.557  0.00  0.00    +0.000 HD
ENDBRANCH  10  12
ENDBRANCH   5   7
BRANCH   3  20
ATOM     20  C   UNL     1      61.502  56.730  25.972  0.00  0.00    +0.000 A 
ATOM     21  C   UNL     1      60.739  55.595  25.985  0.00  0.00    +0.000 A 
ATOM     22  C   UNL     1      59.493  55.986  25.486  0.00  0.00    +0.000 A 
ATOM     23  C   UNL     1      59.586  57.343  25.201  0.00  0.00    +0.000 A 
ATOM     24  O   UNL     1      60.805  57.721  25.513  0.00  0.00    +0.000 OA
BRANCH  23  25
ATOM     25  C   UNL     1      58.582  58.292  24.652  0.00  0.00    +0.000 C 
ATOM     26  C   UNL     1      58.626  58.399  23.147  0.00  0.00    +0.000 C 
ATOM     27  C   UNL     1      58.317  59.812  22.774  0.00  0.00    +0.000 C 
ATOM     28  C   UNL     1      58.480  60.624  24.024  0.00  0.00    +0.000 C 
ATOM     29  C   UNL     1      58.764  59.704  25.167  0.00  0.00    +0.000 C 
ENDBRANCH  23  25
ENDBRANCH   3  20
TORSDOF 4
