REMARK  Name = 
REMARK  3 active torsions:
REMARK  status: ('A' for Active; 'I' for Inactive)
REMARK    1  A    between atoms: N_1  and  C_7
REMARK    2  A    between atoms: C_5  and  C_22
REMARK    3  A    between atoms: C_16  and  N_21
REMARK                            x       y       z     vdW  Elec       q    Type
REMARK                         _______ _______ _______ _____ _____    ______ ____
ROOT
ATOM      1  C   UNL     1      63.887  57.115  26.894  0.00  0.00    +0.000 A 
ATOM      2  C   UNL     1      62.526  57.102  27.283  0.00  0.00    +0.000 A 
ATOM      3  C   UNL     1      62.306  57.356  28.623  0.00  0.00    +0.000 A 
ATOM      4  N   UNL     1      63.319  57.597  29.465  0.00  0.00    +0.000 NA
ATOM      5  C   UNL     1      64.581  57.598  29.045  0.00  0.00    +0.000 A 
ATOM      6  N   UNL     1      64.881  57.359  27.769  0.00  0.00    +0.000 NA
ATOM      7  N   UNL     1      65.530  57.871  30.069  0.00  0.00    +0.000 N 
ATOM      8  C   UNL     1      66.440  56.943  30.450  0.00  0.00    +0.000 A 
ATOM      9  N   UNL     1      67.211  57.477  31.440  0.00  0.00    +0.000 NA
ATOM     10  C   UNL     1      66.754  58.729  31.642  0.00  0.00    +0.000 A 
ATOM     11  C   UNL     1      67.097  59.765  32.484  0.00  0.00    +0.000 A 
ATOM     12  N   UNL     1      66.469  60.955  32.497  0.00  0.00    +0.000 NA
ATOM     13  C   UNL     1      65.435  61.156  31.633  0.00  0.00    +0.000 A 
ATOM     14  N   UNL     1      65.063  60.170  30.790  0.00  0.00    +0.000 NA
ATOM     15  C   UNL     1      65.695  59.002  30.792  0.00  0.00    +0.000 A 
ENDROOT
BRANCH   2  16
ATOM     16  N   UNL     1      61.487  56.864  26.367  0.00  0.00    +0.000 N 
ATOM     17  C   UNL     1      60.974  55.540  26.031  0.00  0.00    +0.000 C 
ATOM     18  C   UNL     1      59.981  55.792  24.935  0.00  0.00    +0.000 C 
ATOM     19  C   UNL     1      59.383  57.122  25.401  0.00  0.00    +0.000 C 
ATOM     20  C   UNL     1      60.778  57.848  25.670  0.00  0.00    +0.000 C 
BRANCH  20  21
ATOM     21  C   UNL     1      60.493  59.119  26.314  0.00  0.00    +0.000 A 
ATOM     22  C   UNL     1      60.841  59.705  27.492  0.00  0.00    +0.000 A 
ATOM     23  N   UNL     1      60.384  60.956  27.629  0.00  0.00    +0.000 N 
ATOM     24  C   UNL     1      59.702  61.224  26.513  0.00  0.00    +0.000 A 
ATOM     25  C   UNL     1      58.986  62.360  26.189  0.00  0.00    +0.000 A 
ATOM     26  C   UNL     1      58.277  62.439  25.005  0.00  0.00    +0.000 A 
ATOM     27  C   UNL     1      58.318  61.358  24.175  0.00  0.00    +0.000 A 
ATOM     28  C   UNL     1      59.035  60.226  24.503  0.00  0.00    +0.000 A 
ATOM     29  C   UNL     1      59.750  60.132  25.693  0.00  0.00    +0.000 A 
ATOM     30  H   UNL     1      60.529  61.584  28.432  0.00  0.00    +0.000 HD
ENDBRANCH  20  21
ENDBRANCH   2  16
BRANCH  11  31
ATOM     31  N   UNL     1      68.170  59.595  33.402  0.00  0.00    +0.000 N 
ATOM     32  H   UNL     1      68.433  60.364  34.035  0.00  0.00    +0.000 HD
ATOM     33  H   UNL     1      68.684  58.703  33.434  0.00  0.00    +0.000 HD
ENDBRANCH  11  31
TORSDOF 3
