REMARK  Name = 
REMARK  3 active torsions:
REMARK  status: ('A' for Active; 'I' for Inactive)
REMARK    1  A    between atoms: N_1  and  C_16
REMARK    2  A    between atoms: C_5  and  C_6
REMARK    3  A    between atoms: C_19  and  C_21
REMARK                            x       y       z     vdW  Elec       q    Type
REMARK                         _______ _______ _______ _____ _____    ______ ____
ROOT
ATOM      1  C   UNL     1      64.043  57.460  27.034  0.00  0.00    +0.000 A 
ATOM      2  C   UNL     1      62.715  57.065  27.331  0.00  0.00    +0.000 A 
ATOM      3  C   UNL     1      62.453  56.828  28.671  0.00  0.00    +0.000 A 
ATOM      4  N   UNL     1      63.409  56.975  29.602  0.00  0.00    +0.000 NA
ATOM      5  C   UNL     1      64.642  57.351  29.267  0.00  0.00    +0.000 A 
ATOM      6  N   UNL     1      64.977  57.595  27.998  0.00  0.00    +0.000 NA
ENDROOT
BRANCH   5   7
ATOM      7  C   UNL     1      65.715  57.528  30.241  0.00  0.00    +0.000 A 
ATOM      8  C   UNL     1      66.705  56.636  30.672  0.00  0.00    +0.000 A 
ATOM      9  N   UNL     1      67.468  57.234  31.574  0.00  0.00    +0.000 N 
ATOM     10  C   UNL     1      67.028  58.478  31.761  0.00  0.00    +0.000 A 
ATOM     11  C   UNL     1      67.521  59.442  32.601  0.00  0.00    +0.000 A 
ATOM     12  C   UNL     1      66.895  60.665  32.621  0.00  0.00    +0.000 A 
ATOM     13  C   UNL     1      65.788  60.962  31.830  0.00  0.00    +0.000 A 
ATOM     14  C   UNL     1      65.353  59.934  31.009  0.00  0.00    +0.000 A 
ATOM     15  C   UNL     1      65.924  58.699  30.937  0.00  0.00    +0.000 A 
ATOM     16  H   UNL     1      68.273  56.806  32.054  0.00  0.00    +0.000 HD
ENDBRANCH   5   7
BRANCH   2  17
ATOM     17  N   UNL     1      61.733  56.947  26.331  0.00  0.00    +0.000 N 
ATOM     18  C   UNL     1      61.280  55.679  25.769  0.00  0.00    +0.000 C 
ATOM     19  C   UNL     1      60.332  56.067  24.678  0.00  0.00    +0.000 C 
ATOM     20  C   UNL     1      59.674  57.301  25.295  0.00  0.00    +0.000 C 
ATOM     21  C   UNL     1      61.030  58.008  25.749  0.00  0.00    +0.000 C 
BRANCH  21  22
ATOM     22  C   UNL     1      60.672  59.158  26.559  0.00  0.00    +0.000 A 
ATOM     23  C   UNL     1      60.921  59.561  27.830  0.00  0.00    +0.000 A 
ATOM     24  N   UNL     1      60.431  60.777  28.117  0.00  0.00    +0.000 N 
ATOM     25  C   UNL     1      59.829  61.205  27.007  0.00  0.00    +0.000 A 
ATOM     26  C   UNL     1      59.122  62.371  26.824  0.00  0.00    +0.000 A 
ATOM     27  C   UNL     1      58.491  62.626  25.611  0.00  0.00    +0.000 A 
ATOM     28  C   UNL     1      58.605  61.675  24.618  0.00  0.00    +0.000 A 
ATOM     29  C   UNL     1      59.320  60.517  24.830  0.00  0.00    +0.000 A 
ATOM     30  C   UNL     1      59.955  60.249  26.040  0.00  0.00    +0.000 A 
ATOM     31  H   UNL     1      60.505  61.278  29.014  0.00  0.00    +0.000 HD
ENDBRANCH  21  22
ENDBRANCH   2  17
TORSDOF 3
