REMARK  Name = 
REMARK  4 active torsions:
REMARK  status: ('A' for Active; 'I' for Inactive)
REMARK    1  A    between atoms: O_1  and  C_2
REMARK    2  A    between atoms: O_1  and  C_14
REMARK    3  A    between atoms: C_18  and  C_29
REMARK    4  A    between atoms: C_24  and  N_33
REMARK                            x       y       z     vdW  Elec       q    Type
REMARK                         _______ _______ _______ _____ _____    ______ ____
ROOT
ATOM      1  C   UNL     1      64.294  58.231  30.528  0.00  0.00    +0.000 A 
ATOM      2  C   UNL     1      64.815  57.717  31.689  0.00  0.00    +0.000 A 
ATOM      3  C   UNL     1      65.579  58.510  32.555  0.00  0.00    +0.000 A 
ATOM      4  N   UNL     1      65.782  59.809  32.194  0.00  0.00    +0.000 NA
ATOM      5  C   UNL     1      65.275  60.306  31.067  0.00  0.00    +0.000 A 
ATOM      6  N   UNL     1      64.545  59.545  30.244  0.00  0.00    +0.000 NA
ATOM      7  N   UNL     1      66.124  57.984  33.762  0.00  0.00    +0.000 N 
ATOM      8  C   UNL     1      65.652  58.134  35.032  0.00  0.00    +0.000 A 
ATOM      9  N   UNL     1      66.485  57.466  35.853  0.00  0.00    +0.000 NA
ATOM     10  C   UNL     1      67.464  56.903  35.128  0.00  0.00    +0.000 A 
ATOM     11  C   UNL     1      68.569  56.123  35.407  0.00  0.00    +0.000 A 
ATOM     12  N   UNL     1      69.393  55.698  34.431  0.00  0.00    +0.000 NA
ATOM     13  C   UNL     1      69.173  56.017  33.134  0.00  0.00    +0.000 A 
ATOM     14  N   UNL     1      68.103  56.776  32.841  0.00  0.00    +0.000 NA
ATOM     15  C   UNL     1      67.248  57.225  33.790  0.00  0.00    +0.000 A 
ENDROOT
BRANCH   5  16
ATOM     16  C   UNL     1      65.485  61.716  30.659  0.00  0.00    +0.000 C 
ATOM     17  F   UNL     1      66.040  61.833  29.410  0.00  0.00    +0.000 F 
ATOM     18  F   UNL     1      66.272  62.406  31.550  0.00  0.00    +0.000 F 
ATOM     19  F   UNL     1      64.229  62.358  30.733  0.00  0.00    +0.000 F 
ENDBRANCH   5  16
BRANCH  11  20
ATOM     20  N   UNL     1      68.835  55.765  36.759  0.00  0.00    +0.000 N 
ATOM     21  H   UNL     1      69.654  55.184  36.986  0.00  0.00    +0.000 HD
ATOM     22  H   UNL     1      68.208  56.087  37.510  0.00  0.00    +0.000 HD
ENDBRANCH  11  20
BRANCH   1  23
ATOM     23  O   UNL     1      63.567  57.353  29.774  0.00  0.00    +0.000 OA
BRANCH  23  24
ATOM     24  C   UNL     1      63.366  57.395  28.402  0.00  0.00    +0.000 A 
ATOM     25  C   UNL     1      64.446  57.003  27.606  0.00  0.00    +0.000 A 
ATOM     26  C   UNL     1      64.251  57.041  26.214  0.00  0.00    +0.000 A 
ATOM     27  N   UNL     1      63.051  57.447  25.709  0.00  0.00    +0.000 NA
ATOM     28  C   UNL     1      62.041  57.815  26.521  0.00  0.00    +0.000 A 
ATOM     29  N   UNL     1      62.203  57.787  27.874  0.00  0.00    +0.000 NA
ATOM     30  N   UNL     1      60.783  58.240  25.977  0.00  0.00    +0.000 N 
ATOM     31  C   UNL     1      59.972  59.204  26.684  0.00  0.00    +0.000 C 
ATOM     32  C   UNL     1      58.540  59.210  26.323  0.00  0.00    +0.000 C 
ATOM     33  N   UNL     1      58.231  58.914  24.961  0.00  0.00    +0.000 NA
ATOM     34  C   UNL     1      59.365  58.703  24.123  0.00  0.00    +0.000 C 
ATOM     35  C   UNL     1      60.335  57.698  24.721  0.00  0.00    +0.000 C 
ATOM     36  H   UNL     1      57.655  58.060  24.941  0.00  0.00    +0.000 HD
ENDBRANCH  23  24
ENDBRANCH   1  23
TORSDOF 4
