REMARK  Name = 
REMARK  4 active torsions:
REMARK  status: ('A' for Active; 'I' for Inactive)
REMARK    1  A    between atoms: C_3  and  C_17
REMARK    2  A    between atoms: C_5  and  C_7
REMARK    3  A    between atoms: C_10  and  N_12
REMARK    4  A    between atoms: C_20  and  N_22
REMARK                            x       y       z     vdW  Elec       q    Type
REMARK                         _______ _______ _______ _____ _____    ______ ____
ROOT
ATOM      1  C   UNL     1      65.161  56.810  26.007  0.00  0.00    +0.000 A 
ATOM      2  C   UNL     1      63.805  56.804  25.581  0.00  0.00    +0.000 A 
ATOM      3  C   UNL     1      62.816  57.015  26.501  0.00  0.00    +0.000 A 
ATOM      4  N   UNL     1      63.177  57.226  27.797  0.00  0.00    +0.000 NA
ATOM      5  C   UNL     1      64.464  57.230  28.182  0.00  0.00    +0.000 A 
ATOM      6  N   UNL     1      65.462  57.028  27.323  0.00  0.00    +0.000 NA
ENDROOT
BRANCH   5   7
ATOM      7  C   UNL     1      64.755  57.468  29.608  0.00  0.00    +0.000 A 
ATOM      8  C   UNL     1      63.952  58.025  30.567  0.00  0.00    +0.000 A 
ATOM      9  C   UNL     1      64.455  58.142  31.826  0.00  0.00    +0.000 A 
ATOM     10  C   UNL     1      65.752  57.679  32.026  0.00  0.00    +0.000 A 
ATOM     11  S   UNL     1      66.250  57.088  30.446  0.00  0.00    +0.000 S 
BRANCH  10  12
ATOM     12  N   UNL     1      66.528  57.669  33.202  0.00  0.00    +0.000 N 
ATOM     13  C   UNL     1      67.709  56.965  33.298  0.00  0.00    +0.000 C 
ATOM     14  N   UNL     1      67.876  55.826  32.731  0.00  0.00    +0.000 NA
ATOM     15  N   UNL     1      68.762  57.564  34.071  0.00  0.00    +0.000 N 
ATOM     16  H   UNL     1      67.150  55.355  32.198  0.00  0.00    +0.000 HD
ATOM     17  H   UNL     1      66.201  58.206  34.018  0.00  0.00    +0.000 HD
ATOM     18  H   UNL     1      69.665  57.079  34.174  0.00  0.00    +0.000 HD
ATOM     19  H   UNL     1      68.614  58.478  34.522  0.00  0.00    +0.000 HD
ENDBRANCH  10  12
ENDBRANCH   5   7
BRANCH   3  20
ATOM     20  C   UNL     1      61.409  57.017  26.110  0.00  0.00    +0.000 A 
ATOM     21  C   UNL     1      60.703  55.922  25.664  0.00  0.00    +0.000 A 
ATOM     22  C   UNL     1      59.409  56.404  25.414  0.00  0.00    +0.000 A 
ATOM     23  C   UNL     1      59.428  57.757  25.727  0.00  0.00    +0.000 A 
ATOM     24  O   UNL     1      60.635  58.067  26.134  0.00  0.00    +0.000 OA
BRANCH  23  25
ATOM     25  N   UNL     1      58.278  58.582  25.595  0.00  0.00    +0.000 N 
ATOM     26  C   UNL     1      57.353  58.940  26.534  0.00  0.00    +0.000 A 
ATOM     27  N   UNL     1      56.430  59.746  25.940  0.00  0.00    +0.000 NA
ATOM     28  C   UNL     1      56.790  59.882  24.630  0.00  0.00    +0.000 A 
ATOM     29  C   UNL     1      56.123  60.619  23.668  0.00  0.00    +0.000 A 
ATOM     30  N   UNL     1      56.696  60.586  22.443  0.00  0.00    +0.000 NA
ATOM     31  C   UNL     1      57.822  59.890  22.183  0.00  0.00    +0.000 A 
ATOM     32  N   UNL     1      58.431  59.189  23.157  0.00  0.00    +0.000 NA
ATOM     33  C   UNL     1      57.946  59.154  24.413  0.00  0.00    +0.000 A 
ENDBRANCH  23  25
ENDBRANCH   3  20
TORSDOF 4
