REMARK  Name = 
REMARK  4 active torsions:
REMARK  status: ('A' for Active; 'I' for Inactive)
REMARK    1  A    between atoms: C_3  and  C_17
REMARK    2  A    between atoms: C_5  and  C_7
REMARK    3  A    between atoms: C_10  and  N_12
REMARK    4  A    between atoms: C_20  and  N_22
REMARK                            x       y       z     vdW  Elec       q    Type
REMARK                         _______ _______ _______ _____ _____    ______ ____
ROOT
ATOM      1  C   UNL     1      65.338  56.701  26.001  0.00  0.00    +0.000 A 
ATOM      2  C   UNL     1      64.009  56.713  25.510  0.00  0.00    +0.000 A 
ATOM      3  C   UNL     1      62.969  56.971  26.385  0.00  0.00    +0.000 A 
ATOM      4  N   UNL     1      63.279  57.206  27.695  0.00  0.00    +0.000 NA
ATOM      5  C   UNL     1      64.555  57.187  28.129  0.00  0.00    +0.000 A 
ATOM      6  N   UNL     1      65.589  56.943  27.325  0.00  0.00    +0.000 NA
ENDROOT
BRANCH   5   7
ATOM      7  C   UNL     1      64.785  57.456  29.558  0.00  0.00    +0.000 A 
ATOM      8  C   UNL     1      63.936  58.034  30.465  0.00  0.00    +0.000 A 
ATOM      9  C   UNL     1      64.385  58.179  31.749  0.00  0.00    +0.000 A 
ATOM     10  C   UNL     1      65.664  57.725  32.020  0.00  0.00    +0.000 A 
ATOM     11  S   UNL     1      66.232  57.097  30.476  0.00  0.00    +0.000 S 
BRANCH  10  12
ATOM     12  N   UNL     1      66.382  57.741  33.222  0.00  0.00    +0.000 N 
ATOM     13  C   UNL     1      67.596  57.105  33.370  0.00  0.00    +0.000 C 
ATOM     14  N   UNL     1      67.854  55.978  32.800  0.00  0.00    +0.000 NA
ATOM     15  N   UNL     1      68.596  57.729  34.190  0.00  0.00    +0.000 N 
ATOM     16  H   UNL     1      67.176  55.476  32.233  0.00  0.00    +0.000 HD
ATOM     17  H   UNL     1      65.988  58.248  34.027  0.00  0.00    +0.000 HD
ATOM     18  H   UNL     1      69.512  57.277  34.319  0.00  0.00    +0.000 HD
ATOM     19  H   UNL     1      68.397  58.629  34.650  0.00  0.00    +0.000 HD
ENDBRANCH  10  12
ENDBRANCH   5   7
BRANCH   3  20
ATOM     20  C   UNL     1      61.589  56.992  25.922  0.00  0.00    +0.000 A 
ATOM     21  C   UNL     1      60.756  55.884  25.883  0.00  0.00    +0.000 A 
ATOM     22  C   UNL     1      59.544  56.383  25.373  0.00  0.00    +0.000 A 
ATOM     23  C   UNL     1      59.739  57.750  25.144  0.00  0.00    +0.000 A 
ATOM     24  O   UNL     1      60.969  58.036  25.491  0.00  0.00    +0.000 OA
BRANCH  23  25
ATOM     25  N   UNL     1      58.875  58.758  24.640  0.00  0.00    +0.000 N 
ATOM     26  C   UNL     1      58.906  58.917  23.296  0.00  0.00    +0.000 A 
ATOM     27  C   UNL     1      58.116  59.862  22.656  0.00  0.00    +0.000 A 
ATOM     28  C   UNL     1      57.301  60.630  23.466  0.00  0.00    +0.000 A 
ATOM     29  O   UNL     1      56.556  61.507  22.977  0.00  0.00    +0.000 OA
ATOM     30  N   UNL     1      57.305  60.436  24.797  0.00  0.00    +0.000 N 
ATOM     31  C   UNL     1      58.071  59.519  25.411  0.00  0.00    +0.000 A 
ATOM     32  O   UNL     1      58.079  59.332  26.657  0.00  0.00    +0.000 OA
ATOM     33  H   UNL     1      56.688  61.022  25.377  0.00  0.00    +0.000 HD
ENDBRANCH  23  25
ENDBRANCH   3  20
TORSDOF 4
