REMARK  Name = 
REMARK  4 active torsions:
REMARK  status: ('A' for Active; 'I' for Inactive)
REMARK    1  A    between atoms: C_1  and  C_2
REMARK    2  A    between atoms: C_1  and  C_18
REMARK    3  A    between atoms: C_18  and  N_19
REMARK    4  A    between atoms: C_22  and  C_24
REMARK                            x       y       z     vdW  Elec       q    Type
REMARK                         _______ _______ _______ _____ _____    ______ ____
ROOT
ATOM      1  C   UNL     1      60.897  56.688  25.646  0.00  0.00    +0.000 A 
ATOM      2  C   UNL     1      60.783  58.083  25.728  0.00  0.00    +0.000 A 
ATOM      3  C   UNL     1      59.563  58.645  25.390  0.00  0.00    +0.000 A 
ATOM      4  N   UNL     1      58.558  57.847  25.005  0.00  0.00    +0.000 NA
ATOM      5  C   UNL     1      58.676  56.521  24.930  0.00  0.00    +0.000 A 
ATOM      6  N   UNL     1      59.864  55.941  25.255  0.00  0.00    +0.000 NA
ATOM      7  N   UNL     1      57.544  55.766  24.508  0.00  0.00    +0.000 N 
ATOM      8  C   UNL     1      57.085  54.647  25.095  0.00  0.00    +0.000 A 
ATOM      9  N   UNL     1      55.990  54.216  24.407  0.00  0.00    +0.000 NA
ATOM     10  C   UNL     1      55.793  55.071  23.413  0.00  0.00    +0.000 A 
ATOM     11  C   UNL     1      54.888  55.209  22.382  0.00  0.00    +0.000 A 
ATOM     12  N   UNL     1      54.881  56.192  21.457  0.00  0.00    +0.000 NA
ATOM     13  C   UNL     1      55.857  57.143  21.540  0.00  0.00    +0.000 A 
ATOM     14  N   UNL     1      56.761  57.047  22.531  0.00  0.00    +0.000 NA
ATOM     15  C   UNL     1      56.754  56.071  23.436  0.00  0.00    +0.000 A 
ATOM     16  N   UNL     1      53.845  54.251  22.237  0.00  0.00    +0.000 N 
ATOM     17  H   UNL     1      53.163  54.344  21.471  0.00  0.00    +0.000 HD
ATOM     18  H   UNL     1      53.772  53.465  22.898  0.00  0.00    +0.000 HD
ENDROOT
BRANCH   1  19
ATOM     19  C   UNL     1      62.131  55.929  25.971  0.00  0.00    +0.000 C 
BRANCH  19  20
ATOM     20  C   UNL     1      62.140  55.758  27.490  0.00  0.00    +0.000 C 
BRANCH  20  21
ATOM     21  N   UNL     1      63.286  56.398  28.099  0.00  0.00    +0.000 NA
ATOM     22  C   UNL     1      64.145  57.127  27.376  0.00  0.00    +0.000 C 
ATOM     23  N   UNL     1      65.157  57.485  28.150  0.00  0.00    +0.000 NA
ATOM     24  C   UNL     1      64.771  57.267  29.430  0.00  0.00    +0.000 C 
ATOM     25  N   UNL     1      63.603  56.601  29.367  0.00  0.00    +0.000 NA
ATOM     26  H   UNL     1      65.989  56.919  27.930  0.00  0.00    +0.000 HD
ATOM     27  H   UNL     1      62.865  57.157  29.822  0.00  0.00    +0.000 HD
BRANCH  24  28
ATOM     28  C   UNL     1      65.212  57.519  30.824  0.00  0.00    +0.000 A 
ATOM     29  C   UNL     1      64.487  58.156  31.795  0.00  0.00    +0.000 A 
ATOM     30  C   UNL     1      65.046  58.307  33.040  0.00  0.00    +0.000 A 
ATOM     31  C   UNL     1      66.308  57.819  33.274  0.00  0.00    +0.000 A 
ATOM     32  C   UNL     1      67.060  57.172  32.309  0.00  0.00    +0.000 A 
ATOM     33  C   UNL     1      66.490  57.019  31.042  0.00  0.00    +0.000 A 
ENDBRANCH  24  28
ENDBRANCH  20  21
ENDBRANCH  19  20
ENDBRANCH   1  19
TORSDOF 4
