REMARK  Name = 
REMARK  9 active torsions:
REMARK  status: ('A' for Active; 'I' for Inactive)
REMARK    1  A    between atoms: C_4  and  N_7
REMARK    2  A    between atoms: C_6  and  C_26
REMARK    3  A    between atoms: N_7  and  C_8
REMARK    4  A    between atoms: C_8  and  C_9
REMARK    5  A    between atoms: C_9  and  C_12
REMARK    6  A    between atoms: C_20  and  N_25
REMARK    7  A    between atoms: C_26  and  C_27
REMARK    8  A    between atoms: C_26  and  C_28
REMARK    9  A    between atoms: C_26  and  C_29
REMARK                            x       y       z     vdW  Elec       q    Type
REMARK                         _______ _______ _______ _____ _____    ______ ____
ROOT
ATOM      1  C   UNL     1      65.028  56.790  26.079  0.00  0.00    +0.000 A 
ATOM      2  C   UNL     1      63.763  56.224  25.826  0.00  0.00    +0.000 A 
ATOM      3  C   UNL     1      62.818  56.155  26.804  0.00  0.00    +0.000 A 
ATOM      4  N   UNL     1      63.142  56.647  28.012  0.00  0.00    +0.000 NA
ATOM      5  C   UNL     1      64.334  57.189  28.279  0.00  0.00    +0.000 A 
ATOM      6  N   UNL     1      65.274  57.260  27.315  0.00  0.00    +0.000 NA
ATOM      7  N   UNL     1      64.505  57.661  29.611  0.00  0.00    +0.000 N 
ATOM      8  C   UNL     1      63.605  58.538  30.123  0.00  0.00    +0.000 A 
ATOM      9  N   UNL     1      63.933  58.868  31.392  0.00  0.00    +0.000 NA
ATOM     10  C   UNL     1      65.060  58.184  31.679  0.00  0.00    +0.000 A 
ATOM     11  C   UNL     1      65.896  58.070  32.771  0.00  0.00    +0.000 A 
ATOM     12  N   UNL     1      66.987  57.262  32.717  0.00  0.00    +0.000 NA
ATOM     13  C   UNL     1      67.276  56.559  31.608  0.00  0.00    +0.000 A 
ATOM     14  N   UNL     1      66.475  56.647  30.517  0.00  0.00    +0.000 NA
ATOM     15  C   UNL     1      65.400  57.444  30.565  0.00  0.00    +0.000 A 
ENDROOT
BRANCH  11  16
ATOM     16  N   UNL     1      65.544  58.836  33.921  0.00  0.00    +0.000 N 
ATOM     17  H   UNL     1      66.129  58.793  34.767  0.00  0.00    +0.000 HD
ATOM     18  H   UNL     1      64.704  59.432  33.905  0.00  0.00    +0.000 HD
ENDBRANCH  11  16
BRANCH   3  19
ATOM     19  C   UNL     1      61.514  55.555  26.477  0.00  0.00    +0.000 C 
BRANCH  19  20
ATOM     20  C   UNL     1      60.810  56.117  25.268  0.00  0.00    +0.000 C 
BRANCH  20  21
ATOM     21  N   UNL     1      59.595  56.625  25.642  0.00  0.00    +0.000 NA
ATOM     22  H   UNL     1      59.469  56.415  26.643  0.00  0.00    +0.000 HD
BRANCH  21  26
ATOM     23  N   UNL     1      60.725  60.312  24.448  0.00  0.00    +0.000 NA
ATOM     24  C   UNL     1      59.787  59.757  23.650  0.00  0.00    +0.000 C 
ATOM     25  C   UNL     1      59.506  58.315  24.015  0.00  0.00    +0.000 C 
ATOM     26  C   UNL     1      59.374  58.047  25.467  0.00  0.00    +0.000 C 
ATOM     27  C   UNL     1      60.337  58.792  26.288  0.00  0.00    +0.000 C 
ATOM     28  C   UNL     1      60.501  60.219  25.847  0.00  0.00    +0.000 C 
ATOM     29  H   UNL     1      60.790  61.311  24.207  0.00  0.00    +0.000 HD
BRANCH  28  30
ATOM     30  C   UNL     1      59.528  61.183  26.437  0.00  0.00    +0.000 C 
ATOM     31  C   UNL     1      60.074  62.180  27.403  0.00  0.00    +0.000 C 
ATOM     32  C   UNL     1      58.908  62.016  25.296  0.00  0.00    +0.000 C 
ATOM     33  C   UNL     1      58.407  60.450  27.087  0.00  0.00    +0.000 C 
ENDBRANCH  28  30
ENDBRANCH  21  26
ENDBRANCH  20  21
ENDBRANCH  19  20
ENDBRANCH   3  19
TORSDOF 6
