REMARK  Name = 
REMARK  6 active torsions:
REMARK  status: ('A' for Active; 'I' for Inactive)
REMARK    1  A    between atoms: C_1  and  C_4
REMARK    2  A    between atoms: C_1  and  C_14
REMARK    3  A    between atoms: C_1  and  C_15
REMARK    4  A    between atoms: C_1  and  C_16
REMARK    5  A    between atoms: C_6  and  C_8
REMARK    6  A    between atoms: C_16  and  C_17
REMARK                            x       y       z     vdW  Elec       q    Type
REMARK                         _______ _______ _______ _____ _____    ______ ____
ROOT
ATOM      1  C   UNL     1      60.877  58.757  27.309  0.00  0.00    +0.000 C 
ENDROOT
BRANCH   1   2
ATOM      2  C   UNL     1      60.082  59.905  26.873  0.00  0.00    +0.000 A 
ATOM      3  C   UNL     1      60.338  61.183  27.330  0.00  0.00    +0.000 A 
ATOM      4  C   UNL     1      59.413  62.022  26.728  0.00  0.00    +0.000 A 
ATOM      5  N   UNL     1      58.626  61.291  25.940  0.00  0.00    +0.000 N 
ATOM      6  N   UNL     1      59.049  60.060  26.052  0.00  0.00    +0.000 NA
ATOM      7  C   UNL     1      57.542  61.738  25.132  0.00  0.00    +0.000 A 
ATOM      8  N   UNL     1      57.457  61.093  23.963  0.00  0.00    +0.000 NA
ATOM      9  C   UNL     1      56.451  61.442  23.110  0.00  0.00    +0.000 A 
ATOM     10  N   UNL     1      55.520  62.392  23.334  0.00  0.00    +0.000 NA
ATOM     11  C   UNL     1      55.624  63.038  24.531  0.00  0.00    +0.000 A 
ATOM     12  C   UNL     1      54.725  64.037  24.884  0.00  0.00    +0.000 A 
ATOM     13  C   UNL     1      54.846  64.688  26.109  0.00  0.00    +0.000 A 
ATOM     14  C   UNL     1      55.878  64.328  26.984  0.00  0.00    +0.000 A 
ATOM     15  C   UNL     1      56.786  63.330  26.647  0.00  0.00    +0.000 A 
ATOM     16  C   UNL     1      56.627  62.714  25.422  0.00  0.00    +0.000 A 
ENDBRANCH   1   2
BRANCH   1  17
ATOM     17  C   UNL     1      61.502  57.970  26.171  0.00  0.00    +0.000 C 
ATOM     18  C   UNL     1      60.632  56.809  25.823  0.00  0.00    +0.000 C 
ATOM     19  C   UNL     1      61.575  58.874  24.956  0.00  0.00    +0.000 C 
BRANCH  17  22
ATOM     20  C   UNL     1      65.102  56.739  26.024  0.00  0.00    +0.000 A 
ATOM     21  C   UNL     1      63.816  57.093  25.590  0.00  0.00    +0.000 A 
ATOM     22  C   UNL     1      62.885  57.570  26.527  0.00  0.00    +0.000 A 
ATOM     23  N   UNL     1      63.311  57.661  27.841  0.00  0.00    +0.000 NA
ATOM     24  C   UNL     1      64.558  57.308  28.205  0.00  0.00    +0.000 A 
ATOM     25  N   UNL     1      65.453  56.850  27.312  0.00  0.00    +0.000 NA
BRANCH  24  26
ATOM     26  C   UNL     1      64.938  57.430  29.612  0.00  0.00    +0.000 A 
ATOM     27  C   UNL     1      64.086  58.024  30.515  0.00  0.00    +0.000 A 
ATOM     28  C   UNL     1      64.498  58.111  31.827  0.00  0.00    +0.000 A 
ATOM     29  N   UNL     1      65.696  57.634  32.231  0.00  0.00    +0.000 NA
ATOM     30  C   UNL     1      66.505  57.062  31.338  0.00  0.00    +0.000 A 
ATOM     31  N   UNL     1      66.133  56.958  30.036  0.00  0.00    +0.000 NA
ENDBRANCH  24  26
ENDBRANCH  17  22
ENDBRANCH   1  17
TORSDOF 4
