REMARK  Name = 
REMARK  3 active torsions:
REMARK  status: ('A' for Active; 'I' for Inactive)
REMARK    1  A    between atoms: C_1  and  C_11
REMARK    2  A    between atoms: C_6  and  C_13
REMARK    3  A    between atoms: C_17  and  C_19
REMARK                            x       y       z     vdW  Elec       q    Type
REMARK                         _______ _______ _______ _____ _____    ______ ____
ROOT
ATOM      1  C   UNL     1      59.727  60.894  27.636  0.00  0.00    +0.000 A 
ATOM      2  C   UNL     1      60.613  61.564  28.408  0.00  0.00    +0.000 A 
ATOM      3  C   UNL     1      60.268  62.356  29.474  0.00  0.00    +0.000 A 
ATOM      4  N   UNL     1      58.960  62.485  29.784  0.00  0.00    +0.000 NA
ATOM      5  C   UNL     1      58.029  61.846  29.063  0.00  0.00    +0.000 A 
ATOM      6  N   UNL     1      58.491  61.126  28.077  0.00  0.00    +0.000 NA
ENDROOT
BRANCH   5   7
ATOM      7  C   UNL     1      56.569  61.788  29.162  0.00  0.00    +0.000 A 
ATOM      8  N   UNL     1      55.760  62.872  29.093  0.00  0.00    +0.000 NA
ATOM      9  C   UNL     1      54.431  62.820  29.181  0.00  0.00    +0.000 A 
ATOM     10  N   UNL     1      53.769  61.660  29.352  0.00  0.00    +0.000 NA
ATOM     11  C   UNL     1      54.490  60.510  29.435  0.00  0.00    +0.000 A 
ATOM     12  C   UNL     1      53.811  59.332  29.608  0.00  0.00    +0.000 A 
ATOM     13  C   UNL     1      54.507  58.145  29.695  0.00  0.00    +0.000 A 
ATOM     14  C   UNL     1      55.901  58.209  29.601  0.00  0.00    +0.000 A 
ATOM     15  C   UNL     1      56.507  59.421  29.429  0.00  0.00    +0.000 A 
ATOM     16  C   UNL     1      55.855  60.625  29.337  0.00  0.00    +0.000 A 
ENDBRANCH   5   7
BRANCH   1  22
ATOM     17  C   UNL     1      60.495  58.679  26.415  0.00  0.00    +0.000 C 
ATOM     18  C   UNL     1      60.940  58.169  25.113  0.00  0.00    +0.000 C 
ATOM     19  C   UNL     1      61.415  59.231  24.159  0.00  0.00    +0.000 C 
ATOM     20  C   UNL     1      60.277  60.197  23.990  0.00  0.00    +0.000 C 
ATOM     21  C   UNL     1      59.962  60.899  25.242  0.00  0.00    +0.000 C 
ATOM     22  C   UNL     1      60.081  60.088  26.496  0.00  0.00    +0.000 C 
BRANCH  17  27
ATOM     23  C   UNL     1      62.428  58.718  29.548  0.00  0.00    +0.000 A 
ATOM     24  C   UNL     1      63.462  57.797  29.293  0.00  0.00    +0.000 A 
ATOM     25  C   UNL     1      63.484  57.167  28.038  0.00  0.00    +0.000 A 
ATOM     26  N   UNL     1      62.505  57.486  27.146  0.00  0.00    +0.000 NA
ATOM     27  C   UNL     1      61.525  58.375  27.423  0.00  0.00    +0.000 A 
ATOM     28  N   UNL     1      61.526  58.957  28.615  0.00  0.00    +0.000 NA
ENDBRANCH  17  27
ENDBRANCH   1  22
TORSDOF 3
