REMARK  Name = 
REMARK  4 active torsions:
REMARK  status: ('A' for Active; 'I' for Inactive)
REMARK    1  A    between atoms: C_1  and  C_8
REMARK    2  A    between atoms: C_5  and  N_15
REMARK    3  A    between atoms: C_6  and  C_13
REMARK    4  A    between atoms: C_18  and  C_20
REMARK                            x       y       z     vdW  Elec       q    Type
REMARK                         _______ _______ _______ _____ _____    ______ ____
ROOT
ATOM      1  N   UNL     1      66.078  60.573  31.340  0.00  0.00    +0.000 NA
ATOM      2  C   UNL     1      64.857  60.942  30.971  0.00  0.00    +0.000 C 
ATOM      3  N   UNL     1      64.960  61.945  30.078  0.00  0.00    +0.000 NA
ATOM      4  C   UNL     1      66.241  62.220  29.874  0.00  0.00    +0.000 C 
ATOM      5  N   UNL     1      66.882  61.367  30.659  0.00  0.00    +0.000 N 
ATOM      6  H   UNL     1      67.909  61.327  30.731  0.00  0.00    +0.000 HD
ENDROOT
BRANCH   4   7
ATOM      7  C   UNL     1      67.082  63.126  29.090  0.00  0.00    +0.000 A 
ATOM      8  N   UNL     1      66.657  64.167  28.352  0.00  0.00    +0.000 NA
ATOM      9  C   UNL     1      67.429  64.985  27.644  0.00  0.00    +0.000 A 
ATOM     10  N   UNL     1      68.763  64.820  27.612  0.00  0.00    +0.000 NA
ATOM     11  C   UNL     1      69.304  63.792  28.327  0.00  0.00    +0.000 A 
ATOM     12  C   UNL     1      70.671  63.638  28.284  0.00  0.00    +0.000 A 
ATOM     13  C   UNL     1      71.276  62.617  28.986  0.00  0.00    +0.000 A 
ATOM     14  C   UNL     1      70.463  61.783  29.712  0.00  0.00    +0.000 A 
ATOM     15  C   UNL     1      69.106  61.984  29.717  0.00  0.00    +0.000 A 
ATOM     16  C   UNL     1      68.449  62.985  29.036  0.00  0.00    +0.000 A 
ENDBRANCH   4   7
BRANCH   1  21
ATOM     17  C   UNL     1      65.460  58.549  32.435  0.00  0.00    +0.000 C 
ATOM     18  C   UNL     1      65.817  57.869  33.732  0.00  0.00    +0.000 C 
ATOM     19  C   UNL     1      66.323  58.998  34.602  0.00  0.00    +0.000 C 
ATOM     20  C   UNL     1      66.570  60.168  33.660  0.00  0.00    +0.000 C 
ATOM     21  C   UNL     1      66.533  59.528  32.280  0.00  0.00    +0.000 C 
BRANCH  17  24
ATOM     22  C   UNL     1      65.679  57.804  29.988  0.00  0.00    +0.000 C 
ATOM     23  C   UNL     1      66.405  56.849  30.848  0.00  0.00    +0.000 C 
ATOM     24  C   UNL     1      65.271  57.595  31.259  0.00  0.00    +0.000 C 
BRANCH  22  29
ATOM     25  C   UNL     1      64.298  56.980  26.648  0.00  0.00    +0.000 A 
ATOM     26  C   UNL     1      62.959  56.548  26.975  0.00  0.00    +0.000 A 
ATOM     27  C   UNL     1      62.633  56.569  28.322  0.00  0.00    +0.000 A 
ATOM     28  N   UNL     1      63.548  56.978  29.228  0.00  0.00    +0.000 NA
ATOM     29  C   UNL     1      64.799  57.378  28.872  0.00  0.00    +0.000 A 
ATOM     30  N   UNL     1      65.157  57.372  27.580  0.00  0.00    +0.000 NA
ENDBRANCH  22  29
ENDBRANCH  17  24
ENDBRANCH   1  21
TORSDOF 4
