REMARK  Name = 
REMARK  8 active torsions:
REMARK  status: ('A' for Active; 'I' for Inactive)
REMARK    1  A    between atoms: C_3  and  C_17
REMARK    2  A    between atoms: C_5  and  C_7
REMARK    3  A    between atoms: C_10  and  N_12
REMARK    4  A    between atoms: C_20  and  N_22
REMARK    5  A    between atoms: C_26  and  C_27
REMARK    6  A    between atoms: C_27  and  C_28
REMARK    7  A    between atoms: C_27  and  C_29
REMARK    8  A    between atoms: C_27  and  C_30
REMARK                            x       y       z     vdW  Elec       q    Type
REMARK                         _______ _______ _______ _____ _____    ______ ____
ROOT
ATOM      1  C   UNL     1      65.335  56.710  25.987  0.00  0.00    +0.000 A 
ATOM      2  C   UNL     1      64.003  56.682  25.499  0.00  0.00    +0.000 A 
ATOM      3  C   UNL     1      62.965  56.906  26.375  0.00  0.00    +0.000 A 
ATOM      4  N   UNL     1      63.259  57.148  27.686  0.00  0.00    +0.000 NA
ATOM      5  C   UNL     1      64.526  57.169  28.119  0.00  0.00    +0.000 A 
ATOM      6  N   UNL     1      65.573  56.958  27.309  0.00  0.00    +0.000 NA
ENDROOT
BRANCH   5   7
ATOM      7  C   UNL     1      64.759  57.447  29.552  0.00  0.00    +0.000 A 
ATOM      8  C   UNL     1      63.911  58.035  30.436  0.00  0.00    +0.000 A 
ATOM      9  C   UNL     1      64.350  58.196  31.725  0.00  0.00    +0.000 A 
ATOM     10  C   UNL     1      65.631  57.740  32.002  0.00  0.00    +0.000 A 
ATOM     11  S   UNL     1      66.196  57.100  30.480  0.00  0.00    +0.000 S 
BRANCH  10  12
ATOM     12  N   UNL     1      66.359  57.758  33.201  0.00  0.00    +0.000 N 
ATOM     13  C   UNL     1      67.577  57.125  33.348  0.00  0.00    +0.000 C 
ATOM     14  N   UNL     1      67.830  55.988  32.785  0.00  0.00    +0.000 NA
ATOM     15  N   UNL     1      68.569  57.779  34.159  0.00  0.00    +0.000 N 
ATOM     16  H   UNL     1      67.158  55.489  32.215  0.00  0.00    +0.000 HD
ATOM     17  H   UNL     1      65.968  58.266  34.007  0.00  0.00    +0.000 HD
ATOM     18  H   UNL     1      69.492  57.342  34.296  0.00  0.00    +0.000 HD
ATOM     19  H   UNL     1      68.356  58.684  34.603  0.00  0.00    +0.000 HD
ENDBRANCH  10  12
ENDBRANCH   5   7
BRANCH   3  20
ATOM     20  C   UNL     1      61.597  56.884  25.909  0.00  0.00    +0.000 A 
ATOM     21  C   UNL     1      60.753  55.800  25.952  0.00  0.00    +0.000 A 
ATOM     22  C   UNL     1      59.553  56.257  25.394  0.00  0.00    +0.000 A 
ATOM     23  C   UNL     1      59.740  57.586  25.048  0.00  0.00    +0.000 A 
ATOM     24  O   UNL     1      60.967  57.865  25.387  0.00  0.00    +0.000 OA
BRANCH  23  25
ATOM     25  N   UNL     1      58.903  58.537  24.462  0.00  0.00    +0.000 N 
ATOM     26  C   UNL     1      59.078  58.683  23.104  0.00  0.00    +0.000 A 
ATOM     27  C   UNL     1      58.232  59.658  22.645  0.00  0.00    +0.000 A 
ATOM     28  N   UNL     1      57.542  60.097  23.737  0.00  0.00    +0.000 NA
ATOM     29  C   UNL     1      57.971  59.399  24.822  0.00  0.00    +0.000 A 
BRANCH  29  30
ATOM     30  C   UNL     1      57.515  59.516  26.196  0.00  0.00    +0.000 C 
ATOM     31  C   UNL     1      56.489  60.674  26.209  0.00  0.00    +0.000 C 
ATOM     32  C   UNL     1      58.514  59.887  27.226  0.00  0.00    +0.000 C 
ATOM     33  C   UNL     1      56.623  58.327  26.582  0.00  0.00    +0.000 C 
ENDBRANCH  29  30
ENDBRANCH  23  25
ENDBRANCH   3  20
TORSDOF 5
