REMARK  Name = 
REMARK  4 active torsions:
REMARK  status: ('A' for Active; 'I' for Inactive)
REMARK    1  A    between atoms: C_3  and  C_17
REMARK    2  A    between atoms: C_5  and  C_7
REMARK    3  A    between atoms: C_10  and  N_12
REMARK    4  A    between atoms: C_20  and  N_22
REMARK                            x       y       z     vdW  Elec       q    Type
REMARK                         _______ _______ _______ _____ _____    ______ ____
ROOT
ATOM      1  C   UNL     1      65.357  56.715  25.947  0.00  0.00    +0.000 A 
ATOM      2  C   UNL     1      64.028  56.605  25.463  0.00  0.00    +0.000 A 
ATOM      3  C   UNL     1      62.983  56.764  26.346  0.00  0.00    +0.000 A 
ATOM      4  N   UNL     1      63.258  57.024  27.662  0.00  0.00    +0.000 NA
ATOM      5  C   UNL     1      64.531  57.122  28.081  0.00  0.00    +0.000 A 
ATOM      6  N   UNL     1      65.586  56.976  27.268  0.00  0.00    +0.000 NA
ENDROOT
BRANCH   5   7
ATOM      7  C   UNL     1      64.760  57.414  29.514  0.00  0.00    +0.000 A 
ATOM      8  C   UNL     1      63.903  57.998  30.392  0.00  0.00    +0.000 A 
ATOM      9  C   UNL     1      64.332  58.179  31.680  0.00  0.00    +0.000 A 
ATOM     10  C   UNL     1      65.622  57.739  31.966  0.00  0.00    +0.000 A 
ATOM     11  S   UNL     1      66.201  57.092  30.450  0.00  0.00    +0.000 S 
BRANCH  10  12
ATOM     12  N   UNL     1      66.348  57.778  33.167  0.00  0.00    +0.000 N 
ATOM     13  C   UNL     1      67.549  57.135  33.339  0.00  0.00    +0.000 C 
ATOM     14  N   UNL     1      67.815  56.003  32.782  0.00  0.00    +0.000 NA
ATOM     15  N   UNL     1      68.511  57.793  34.179  0.00  0.00    +0.000 N 
ATOM     16  H   UNL     1      67.157  55.503  32.203  0.00  0.00    +0.000 HD
ATOM     17  H   UNL     1      65.961  58.315  33.957  0.00  0.00    +0.000 HD
ATOM     18  H   UNL     1      69.430  57.360  34.346  0.00  0.00    +0.000 HD
ATOM     19  H   UNL     1      68.281  58.698  34.614  0.00  0.00    +0.000 HD
ENDBRANCH  10  12
ENDBRANCH   5   7
BRANCH   3  20
ATOM     20  C   UNL     1      61.610  56.656  25.890  0.00  0.00    +0.000 A 
ATOM     21  C   UNL     1      60.730  55.668  26.226  0.00  0.00    +0.000 A 
ATOM     22  C   UNL     1      59.541  55.985  25.548  0.00  0.00    +0.000 A 
ATOM     23  C   UNL     1      59.780  57.148  24.846  0.00  0.00    +0.000 A 
ATOM     24  O   UNL     1      61.024  57.476  25.102  0.00  0.00    +0.000 OA
BRANCH  23  25
ATOM     25  N   UNL     1      58.996  57.957  23.989  0.00  0.00    +0.000 N 
ATOM     26  C   UNL     1      59.142  59.302  24.149  0.00  0.00    +0.000 A 
ATOM     27  C   UNL     1      58.298  59.924  23.264  0.00  0.00    +0.000 A 
ATOM     28  N   UNL     1      57.656  58.930  22.579  0.00  0.00    +0.000 NA
ATOM     29  C   UNL     1      58.098  57.755  23.039  0.00  0.00    +0.000 A 
ATOM     30  N   UNL     1      57.723  56.446  22.628  0.00  0.00    +0.000 N 
ATOM     31  C   UNL     1      56.457  56.416  21.886  0.00  0.00    +0.000 C 
ATOM     32  C   UNL     1      56.290  54.984  21.468  0.00  0.00    +0.000 C 
ATOM     33  C   UNL     1      57.744  54.495  21.412  0.00  0.00    +0.000 C 
ATOM     34  C   UNL     1      58.244  55.106  22.728  0.00  0.00    +0.000 C 
ENDBRANCH  23  25
ENDBRANCH   3  20
TORSDOF 4
