REMARK  Name = 
REMARK  4 active torsions:
REMARK  status: ('A' for Active; 'I' for Inactive)
REMARK    1  A    between atoms: N_1  and  C_13
REMARK    2  A    between atoms: C_6  and  N_7
REMARK    3  A    between atoms: C_13  and  C_16
REMARK    4  A    between atoms: C_22  and  C_23
REMARK                            x       y       z     vdW  Elec       q    Type
REMARK                         _______ _______ _______ _____ _____    ______ ____
ROOT
ATOM      1  C   UNL     1      64.960  57.017  26.622  0.00  0.00    +0.000 A 
ATOM      2  C   UNL     1      63.602  57.181  26.304  0.00  0.00    +0.000 A 
ATOM      3  C   UNL     1      62.720  57.503  27.286  0.00  0.00    +0.000 A 
ATOM      4  N   UNL     1      63.220  57.640  28.514  0.00  0.00    +0.000 NA
ATOM      5  C   UNL     1      64.522  57.483  28.837  0.00  0.00    +0.000 A 
ATOM      6  N   UNL     1      65.373  57.172  27.864  0.00  0.00    +0.000 NA
ATOM      7  N   UNL     1      64.953  57.656  30.202  0.00  0.00    +0.000 N 
ATOM      8  C   UNL     1      66.033  56.961  30.605  0.00  0.00    +0.000 A 
ATOM      9  C   UNL     1      66.442  57.131  31.920  0.00  0.00    +0.000 A 
ATOM     10  C   UNL     1      67.619  56.436  32.526  0.00  0.00    +0.000 C 
ATOM     11  C   UNL     1      65.737  57.992  32.748  0.00  0.00    +0.000 A 
ATOM     12  O   UNL     1      66.100  58.160  33.962  0.00  0.00    +0.000 OA
ATOM     13  N   UNL     1      64.661  58.656  32.274  0.00  0.00    +0.000 N 
ATOM     14  C   UNL     1      64.264  58.492  30.999  0.00  0.00    +0.000 A 
ATOM     15  O   UNL     1      63.261  59.107  30.543  0.00  0.00    +0.000 OA
ATOM     16  H   UNL     1      64.140  59.293  32.893  0.00  0.00    +0.000 HD
ENDROOT
BRANCH   3  17
ATOM     17  C   UNL     1      61.339  57.678  26.943  0.00  0.00    +0.000 C 
BRANCH  17  18
ATOM     18  N   UNL     1      60.982  58.687  26.140  0.00  0.00    +0.000 N 
ATOM     19  C   UNL     1      61.254  58.539  24.727  0.00  0.00    +0.000 C 
ATOM     20  C   UNL     1      61.255  59.817  23.969  0.00  0.00    +0.000 C 
ATOM     21  C   UNL     1      59.812  60.283  24.105  0.00  0.00    +0.000 C 
ATOM     22  C   UNL     1      59.656  60.731  25.520  0.00  0.00    +0.000 C 
ATOM     23  C   UNL     1      60.284  59.881  26.547  0.00  0.00    +0.000 C 
BRANCH  23  24
ATOM     24  N   UNL     1      60.166  60.265  27.883  0.00  0.00    +0.000 N 
ATOM     25  C   UNL     1      61.263  60.956  28.547  0.00  0.00    +0.000 C 
ATOM     26  C   UNL     1      60.779  62.375  28.891  0.00  0.00    +0.000 C 
ATOM     27  N   UNL     1      59.484  62.288  29.472  0.00  0.00    +0.000 NA
ATOM     28  C   UNL     1      59.068  60.988  29.921  0.00  0.00    +0.000 C 
ATOM     29  C   UNL     1      59.008  60.044  28.745  0.00  0.00    +0.000 C 
ATOM     30  H   UNL     1      59.462  62.921  30.284  0.00  0.00    +0.000 HD
ENDBRANCH  23  24
ENDBRANCH  17  18
ENDBRANCH   3  17
TORSDOF 3
