REMARK  Name = 
REMARK  8 active torsions:
REMARK  status: ('A' for Active; 'I' for Inactive)
REMARK    1  A    between atoms: N_1  and  C_5
REMARK    2  A    between atoms: N_1  and  C_12
REMARK    3  A    between atoms: C_7  and  C_8
REMARK    4  A    between atoms: C_8  and  C_9
REMARK    5  A    between atoms: C_8  and  C_10
REMARK    6  A    between atoms: C_8  and  C_11
REMARK    7  A    between atoms: C_12  and  C_13
REMARK    8  A    between atoms: C_13  and  C_16
REMARK                            x       y       z     vdW  Elec       q    Type
REMARK                         _______ _______ _______ _____ _____    ______ ____
ROOT
ATOM      1  C   UNL     1      65.191  56.755  26.318  0.00  0.00    +0.000 A 
ATOM      2  C   UNL     1      63.925  56.178  26.091  0.00  0.00    +0.000 A 
ATOM      3  C   UNL     1      62.961  56.223  27.060  0.00  0.00    +0.000 A 
ATOM      4  N   UNL     1      63.267  56.836  28.230  0.00  0.00    +0.000 NA
ATOM      5  C   UNL     1      64.466  57.385  28.449  0.00  0.00    +0.000 A 
ATOM      6  N   UNL     1      65.426  57.348  27.503  0.00  0.00    +0.000 NA
ATOM      7  N   UNL     1      64.707  58.012  29.708  0.00  0.00    +0.000 N 
ATOM      8  C   UNL     1      63.997  59.126  30.045  0.00  0.00    +0.000 A 
ATOM      9  N   UNL     1      64.324  59.613  31.255  0.00  0.00    +0.000 NA
ATOM     10  C   UNL     1      65.286  58.774  31.716  0.00  0.00    +0.000 A 
ATOM     11  C   UNL     1      66.059  58.660  32.851  0.00  0.00    +0.000 A 
ATOM     12  O   UNL     1      65.908  59.511  33.764  0.00  0.00    +0.000 OA
ATOM     13  N   UNL     1      66.959  57.642  32.964  0.00  0.00    +0.000 N 
ATOM     14  C   UNL     1      67.140  56.713  32.000  0.00  0.00    +0.000 A 
ATOM     15  N   UNL     1      68.122  55.732  32.298  0.00  0.00    +0.000 N 
ATOM     16  N   UNL     1      66.397  56.788  30.858  0.00  0.00    +0.000 NA
ATOM     17  C   UNL     1      65.503  57.806  30.758  0.00  0.00    +0.000 A 
ATOM     18  H   UNL     1      67.526  57.578  33.822  0.00  0.00    +0.000 HD
ATOM     19  H   UNL     1      68.326  54.985  31.619  0.00  0.00    +0.000 HD
ATOM     20  H   UNL     1      68.631  55.768  33.193  0.00  0.00    +0.000 HD
ENDROOT
BRANCH   3  21
ATOM     21  C   UNL     1      61.654  55.610  26.775  0.00  0.00    +0.000 C 
BRANCH  21  22
ATOM     22  C   UNL     1      61.008  56.008  25.476  0.00  0.00    +0.000 C 
BRANCH  22  23
ATOM     23  N   UNL     1      59.742  56.476  25.715  0.00  0.00    +0.000 NA
ATOM     24  H   UNL     1      59.525  56.288  26.704  0.00  0.00    +0.000 HD
BRANCH  23  28
ATOM     25  N   UNL     1      60.818  60.152  24.434  0.00  0.00    +0.000 NA
ATOM     26  C   UNL     1      59.927  59.537  23.616  0.00  0.00    +0.000 C 
ATOM     27  C   UNL     1      59.660  58.104  24.027  0.00  0.00    +0.000 C 
ATOM     28  C   UNL     1      59.492  57.882  25.476  0.00  0.00    +0.000 C 
ATOM     29  C   UNL     1      60.394  58.686  26.309  0.00  0.00    +0.000 C 
ATOM     30  C   UNL     1      60.536  60.101  25.830  0.00  0.00    +0.000 C 
ATOM     31  H   UNL     1      60.863  61.144  24.159  0.00  0.00    +0.000 HD
BRANCH  30  32
ATOM     32  C   UNL     1      59.515  61.055  26.342  0.00  0.00    +0.000 C 
ATOM     33  C   UNL     1      59.990  62.120  27.264  0.00  0.00    +0.000 C 
ATOM     34  C   UNL     1      58.888  61.803  25.140  0.00  0.00    +0.000 C 
ATOM     35  C   UNL     1      58.405  60.307  26.999  0.00  0.00    +0.000 C 
ENDBRANCH  30  32
ENDBRANCH  23  28
ENDBRANCH  22  23
ENDBRANCH  21  22
ENDBRANCH   3  21
TORSDOF 5
