REMARK  Name = 
REMARK  5 active torsions:
REMARK  status: ('A' for Active; 'I' for Inactive)
REMARK    1  A    between atoms: C_3  and  C_17
REMARK    2  A    between atoms: C_5  and  C_7
REMARK    3  A    between atoms: C_10  and  N_12
REMARK    4  A    between atoms: C_20  and  N_22
REMARK    5  A    between atoms: C_26  and  C_27
REMARK                            x       y       z     vdW  Elec       q    Type
REMARK                         _______ _______ _______ _____ _____    ______ ____
ROOT
ATOM      1  C   UNL     1      65.310  56.839  26.018  0.00  0.00    +0.000 A 
ATOM      2  C   UNL     1      63.977  56.691  25.565  0.00  0.00    +0.000 A 
ATOM      3  C   UNL     1      62.956  56.797  26.460  0.00  0.00    +0.000 A 
ATOM      4  N   UNL     1      63.249  57.047  27.780  0.00  0.00    +0.000 NA
ATOM      5  C   UNL     1      64.534  57.183  28.168  0.00  0.00    +0.000 A 
ATOM      6  N   UNL     1      65.560  57.087  27.336  0.00  0.00    +0.000 NA
ENDROOT
BRANCH   5   7
ATOM      7  C   UNL     1      64.772  57.453  29.609  0.00  0.00    +0.000 A 
ATOM      8  C   UNL     1      63.930  58.026  30.509  0.00  0.00    +0.000 A 
ATOM      9  C   UNL     1      64.376  58.174  31.792  0.00  0.00    +0.000 A 
ATOM     10  C   UNL     1      65.666  57.719  32.053  0.00  0.00    +0.000 A 
ATOM     11  S   UNL     1      66.224  57.097  30.517  0.00  0.00    +0.000 S 
BRANCH  10  12
ATOM     12  N   UNL     1      66.400  57.730  33.248  0.00  0.00    +0.000 N 
ATOM     13  C   UNL     1      67.605  57.093  33.386  0.00  0.00    +0.000 C 
ATOM     14  N   UNL     1      67.868  55.971  32.808  0.00  0.00    +0.000 NA
ATOM     15  N   UNL     1      68.599  57.717  34.214  0.00  0.00    +0.000 N 
ATOM     16  H   UNL     1      67.175  55.470  32.257  0.00  0.00    +0.000 HD
ATOM     17  H   UNL     1      66.016  58.239  34.057  0.00  0.00    +0.000 HD
ATOM     18  H   UNL     1      69.517  57.269  34.342  0.00  0.00    +0.000 HD
ATOM     19  H   UNL     1      68.393  58.613  34.679  0.00  0.00    +0.000 HD
ENDBRANCH  10  12
ENDBRANCH   5   7
BRANCH   3  20
ATOM     20  C   UNL     1      61.572  56.652  26.039  0.00  0.00    +0.000 A 
ATOM     21  C   UNL     1      60.864  55.477  25.982  0.00  0.00    +0.000 A 
ATOM     22  C   UNL     1      59.592  55.848  25.522  0.00  0.00    +0.000 A 
ATOM     23  C   UNL     1      59.601  57.218  25.328  0.00  0.00    +0.000 A 
ATOM     24  O   UNL     1      60.801  57.592  25.657  0.00  0.00    +0.000 OA
BRANCH  23  25
ATOM     25  N   UNL     1      58.659  58.145  24.893  0.00  0.00    +0.000 N 
ATOM     26  C   UNL     1      59.156  59.317  24.403  0.00  0.00    +0.000 A 
ATOM     27  C   UNL     1      58.052  60.085  23.991  0.00  0.00    +0.000 A 
ATOM     28  N   UNL     1      56.941  59.341  24.253  0.00  0.00    +0.000 NA
ATOM     29  C   UNL     1      57.338  58.187  24.794  0.00  0.00    +0.000 A 
BRANCH  29  30
ATOM     30  C   UNL     1      56.428  57.112  25.249  0.00  0.00    +0.000 C 
ATOM     31  C   UNL     1      55.770  56.417  24.059  0.00  0.00    +0.000 C 
ATOM     32  C   UNL     1      56.430  55.084  23.939  0.00  0.00    +0.000 C 
ATOM     33  C   UNL     1      56.743  54.735  25.380  0.00  0.00    +0.000 C 
ATOM     34  C   UNL     1      57.255  56.026  25.933  0.00  0.00    +0.000 C 
ENDBRANCH  29  30
ENDBRANCH  23  25
ENDBRANCH   3  20
TORSDOF 5
