REMARK  Name = 
REMARK  3 active torsions:
REMARK  status: ('A' for Active; 'I' for Inactive)
REMARK    1  A    between atoms: C_1  and  O_13
REMARK    2  A    between atoms: O_13  and  C_14
REMARK    3  A    between atoms: C_18  and  C_20
REMARK                            x       y       z     vdW  Elec       q    Type
REMARK                         _______ _______ _______ _____ _____    ______ ____
ROOT
ATOM      1  C   UNL     1      64.903  59.497  31.067  0.00  0.00    +0.000 A 
ATOM      2  C   UNL     1      65.724  59.122  32.112  0.00  0.00    +0.000 A 
ATOM      3  C   UNL     1      66.912  59.790  32.379  0.00  0.00    +0.000 A 
ATOM      4  N   UNL     1      67.239  60.831  31.569  0.00  0.00    +0.000 NA
ATOM      5  C   UNL     1      66.448  61.205  30.548  0.00  0.00    +0.000 A 
ATOM      6  N   UNL     1      65.304  60.544  30.309  0.00  0.00    +0.000 NA
ATOM      7  N   UNL     1      67.781  59.431  33.447  0.00  0.00    +0.000 N 
ATOM      8  C   UNL     1      67.941  60.333  34.431  0.00  0.00    +0.000 A 
ATOM      9  C   UNL     1      68.784  59.978  35.464  0.00  0.00    +0.000 A 
ATOM     10  C   UNL     1      69.390  58.741  35.405  0.00  0.00    +0.000 A 
ATOM     11  N   UNL     1      70.263  58.357  36.461  0.00  0.00    +0.000 N 
ATOM     12  N   UNL     1      69.178  57.891  34.383  0.00  0.00    +0.000 NA
ATOM     13  C   UNL     1      68.349  58.223  33.354  0.00  0.00    +0.000 A 
ATOM     14  O   UNL     1      68.137  57.450  32.393  0.00  0.00    +0.000 OA
ATOM     15  H   UNL     1      70.479  57.768  37.295  0.00  0.00    +0.000 HD
ATOM     16  H   UNL     1      69.798  57.595  37.022  0.00  0.00    +0.000 HD
ENDROOT
BRANCH   5  17
ATOM     17  C   UNL     1      66.786  62.331  29.659  0.00  0.00    +0.000 C 
ATOM     18  F   UNL     1      65.732  62.710  28.861  0.00  0.00    +0.000 F 
ATOM     19  F   UNL     1      67.841  62.047  28.826  0.00  0.00    +0.000 F 
ATOM     20  F   UNL     1      67.258  63.380  30.475  0.00  0.00    +0.000 F 
ENDBRANCH   5  17
BRANCH   1  21
ATOM     21  O   UNL     1      63.766  58.752  30.920  0.00  0.00    +0.000 OA
BRANCH  21  22
ATOM     22  C   UNL     1      63.062  58.524  29.749  0.00  0.00    +0.000 A 
ATOM     23  C   UNL     1      63.391  57.365  29.061  0.00  0.00    +0.000 A 
ATOM     24  C   UNL     1      62.684  57.120  27.870  0.00  0.00    +0.000 A 
ATOM     25  N   UNL     1      61.732  57.999  27.446  0.00  0.00    +0.000 NA
ATOM     26  C   UNL     1      61.452  59.118  28.160  0.00  0.00    +0.000 A 
ATOM     27  N   UNL     1      62.117  59.367  29.300  0.00  0.00    +0.000 NA
ATOM     28  N   UNL     1      60.452  60.032  27.705  0.00  0.00    +0.000 N 
ATOM     29  C   UNL     1      60.560  61.438  28.015  0.00  0.00    +0.000 C 
ATOM     30  C   UNL     1      59.296  62.193  27.955  0.00  0.00    +0.000 C 
ATOM     31  N   UNL     1      58.335  61.760  27.009  0.00  0.00    +0.000 NA
ATOM     32  C   UNL     1      58.789  60.702  26.139  0.00  0.00    +0.000 C 
ATOM     33  C   UNL     1      59.334  59.534  26.933  0.00  0.00    +0.000 C 
ATOM     34  H   UNL     1      57.507  61.376  27.518  0.00  0.00    +0.000 HD
ENDBRANCH  21  22
ENDBRANCH   1  21
TORSDOF 3
