REMARK  Name = 
REMARK  2 active torsions:
REMARK  status: ('A' for Active; 'I' for Inactive)
REMARK    1  A    between atoms: N_1  and  C_7
REMARK    2  A    between atoms: C_5  and  C_20
REMARK                            x       y       z     vdW  Elec       q    Type
REMARK                         _______ _______ _______ _____ _____    ______ ____
ROOT
ATOM      1  N   UNL     1      61.756  56.887  26.431  0.00  0.00    +0.000 N 
ATOM      2  C   UNL     1      61.282  55.574  26.014  0.00  0.00    +0.000 C 
ATOM      3  C   UNL     1      60.297  55.863  24.927  0.00  0.00    +0.000 C 
ATOM      4  C   UNL     1      59.655  57.133  25.484  0.00  0.00    +0.000 C 
ATOM      5  C   UNL     1      61.051  57.907  25.774  0.00  0.00    +0.000 C 
ENDROOT
BRANCH   1   7
ATOM      6  C   UNL     1      64.123  57.277  27.010  0.00  0.00    +0.000 A 
ATOM      7  C   UNL     1      62.770  57.087  27.391  0.00  0.00    +0.000 A 
ATOM      8  C   UNL     1      62.510  57.131  28.760  0.00  0.00    +0.000 A 
ATOM      9  N   UNL     1      63.518  57.348  29.621  0.00  0.00    +0.000 NA
ATOM     10  C   UNL     1      64.771  57.522  29.212  0.00  0.00    +0.000 A 
ATOM     11  N   UNL     1      65.094  57.489  27.916  0.00  0.00    +0.000 NA
ATOM     12  N   UNL     1      65.674  57.738  30.303  0.00  0.00    +0.000 N 
ATOM     13  C   UNL     1      66.470  56.725  30.726  0.00  0.00    +0.000 A 
ATOM     14  C   UNL     1      67.350  56.914  31.777  0.00  0.00    +0.000 A 
ATOM     15  C   UNL     1      67.393  58.163  32.385  0.00  0.00    +0.000 A 
ATOM     16  O   UNL     1      68.165  58.383  33.332  0.00  0.00    +0.000 OA
ATOM     17  N   UNL     1      66.570  59.090  31.894  0.00  0.00    +0.000 N 
ATOM     18  C   UNL     1      65.702  58.956  30.879  0.00  0.00    +0.000 A 
ATOM     19  O   UNL     1      64.964  59.896  30.488  0.00  0.00    +0.000 OA
ATOM     20  H   UNL     1      66.604  60.015  32.345  0.00  0.00    +0.000 HD
ENDBRANCH   1   7
BRANCH   5  21
ATOM     21  C   UNL     1      60.711  59.119  26.508  0.00  0.00    +0.000 A 
ATOM     22  C   UNL     1      61.024  59.600  27.780  0.00  0.00    +0.000 A 
ATOM     23  N   UNL     1      60.474  60.818  27.997  0.00  0.00    +0.000 N 
ATOM     24  C   UNL     1      59.805  61.154  26.885  0.00  0.00    +0.000 A 
ATOM     25  C   UNL     1      59.103  62.309  26.639  0.00  0.00    +0.000 A 
ATOM     26  C   UNL     1      58.499  62.509  25.446  0.00  0.00    +0.000 A 
ATOM     27  C   UNL     1      58.619  61.527  24.519  0.00  0.00    +0.000 A 
ATOM     28  C   UNL     1      59.321  60.362  24.765  0.00  0.00    +0.000 A 
ATOM     29  C   UNL     1      59.937  60.142  25.963  0.00  0.00    +0.000 A 
ATOM     30  H   UNL     1      60.554  61.381  28.856  0.00  0.00    +0.000 HD
ENDBRANCH   5  21
TORSDOF 2
