REMARK  Name = 
REMARK  5 active torsions:
REMARK  status: ('A' for Active; 'I' for Inactive)
REMARK    1  A    between atoms: N_1  and  C_11
REMARK    2  A    between atoms: C_5  and  C_18
REMARK    3  A    between atoms: C_6  and  C_13
REMARK    4  A    between atoms: C_18  and  C_19
REMARK    5  A    between atoms: C_19  and  N_20
REMARK                            x       y       z     vdW  Elec       q    Type
REMARK                         _______ _______ _______ _____ _____    ______ ____
ROOT
ATOM      1  N   UNL     1      60.807  59.303  26.837  0.00  0.00    +0.000 N 
ATOM      2  N   UNL     1      60.982  59.289  28.166  0.00  0.00    +0.000 NA
ATOM      3  C   UNL     1      60.552  60.450  28.676  0.00  0.00    +0.000 A 
ATOM      4  C   UNL     1      60.097  61.215  27.639  0.00  0.00    +0.000 A 
ATOM      5  C   UNL     1      60.252  60.500  26.475  0.00  0.00    +0.000 A 
ENDROOT
BRANCH   1  11
ATOM      6  C   UNL     1      61.438  57.052  26.645  0.00  0.00    +0.000 C 
ATOM      7  C   UNL     1      61.282  55.771  25.824  0.00  0.00    +0.000 C 
ATOM      8  C   UNL     1      59.790  55.735  25.491  0.00  0.00    +0.000 C 
ATOM      9  C   UNL     1      59.626  56.798  24.453  0.00  0.00    +0.000 C 
ATOM     10  C   UNL     1      59.998  58.187  24.929  0.00  0.00    +0.000 C 
ATOM     11  C   UNL     1      61.127  58.271  25.858  0.00  0.00    +0.000 C 
BRANCH   6  13
ATOM     12  C   UNL     1      63.953  57.263  26.441  0.00  0.00    +0.000 A 
ATOM     13  C   UNL     1      62.783  57.109  27.231  0.00  0.00    +0.000 A 
ATOM     14  C   UNL     1      62.982  57.016  28.595  0.00  0.00    +0.000 A 
ATOM     15  N   UNL     1      64.227  57.073  29.107  0.00  0.00    +0.000 NA
ATOM     16  C   UNL     1      65.300  57.218  28.333  0.00  0.00    +0.000 A 
ATOM     17  N   UNL     1      65.171  57.313  26.996  0.00  0.00    +0.000 NA
ENDBRANCH   6  13
ENDBRANCH   1  11
BRANCH   5  18
ATOM     18  C   UNL     1      59.819  61.148  25.257  0.00  0.00    +0.000 C 
BRANCH  18  19
ATOM     19  C   UNL     1      58.393  60.865  24.830  0.00  0.00    +0.000 C 
BRANCH  19  20
ATOM     20  N   UNL     1      57.376  61.705  25.323  0.00  0.00    +0.000 N 
ATOM     21  C   UNL     1      56.924  61.810  26.614  0.00  0.00    +0.000 A 
ATOM     22  N   UNL     1      55.893  62.690  26.741  0.00  0.00    +0.000 NA
ATOM     23  C   UNL     1      55.634  63.194  25.522  0.00  0.00    +0.000 A 
ATOM     24  C   UNL     1      54.753  64.096  24.969  0.00  0.00    +0.000 A 
ATOM     25  O   UNL     1      53.927  64.650  25.736  0.00  0.00    +0.000 OA
ATOM     26  N   UNL     1      54.737  64.410  23.652  0.00  0.00    +0.000 N 
ATOM     27  C   UNL     1      55.645  63.784  22.883  0.00  0.00    +0.000 A 
ATOM     28  N   UNL     1      55.594  64.144  21.497  0.00  0.00    +0.000 N 
ATOM     29  N   UNL     1      56.528  62.895  23.370  0.00  0.00    +0.000 NA
ATOM     30  C   UNL     1      56.550  62.575  24.698  0.00  0.00    +0.000 A 
ATOM     31  H   UNL     1      54.068  65.089  23.262  0.00  0.00    +0.000 HD
ATOM     32  H   UNL     1      54.900  64.831  21.168  0.00  0.00    +0.000 HD
ATOM     33  H   UNL     1      56.251  63.716  20.829  0.00  0.00    +0.000 HD
ENDBRANCH  19  20
ENDBRANCH  18  19
ENDBRANCH   5  18
TORSDOF 5
