REMARK  Name = 
REMARK  5 active torsions:
REMARK  status: ('A' for Active; 'I' for Inactive)
REMARK    1  A    between atoms: C_1  and  N_2
REMARK    2  A    between atoms: C_1  and  C_13
REMARK    3  A    between atoms: C_5  and  C_7
REMARK    4  A    between atoms: C_13  and  C_14
REMARK    5  A    between atoms: C_18  and  C_20
REMARK                            x       y       z     vdW  Elec       q    Type
REMARK                         _______ _______ _______ _____ _____    ______ ____
ROOT
ATOM      1  C   UNL     1      61.321  57.253  25.451  0.00  0.00    +0.000 A 
ATOM      2  C   UNL     1      61.721  58.583  25.382  0.00  0.00    +0.000 A 
ATOM      3  C   UNL     1      60.762  59.475  24.948  0.00  0.00    +0.000 A 
ATOM      4  N   UNL     1      59.542  59.043  24.627  0.00  0.00    +0.000 NA
ATOM      5  C   UNL     1      59.159  57.777  24.691  0.00  0.00    +0.000 A 
ATOM      6  N   UNL     1      60.092  56.922  25.111  0.00  0.00    +0.000 NA
ENDROOT
BRANCH   5   7
ATOM      7  C   UNL     1      57.864  57.151  24.374  0.00  0.00    +0.000 A 
ATOM      8  C   UNL     1      56.791  57.904  23.882  0.00  0.00    +0.000 A 
ATOM      9  C   UNL     1      55.566  57.374  23.572  0.00  0.00    +0.000 A 
ATOM     10  C   UNL     1      55.340  56.034  23.737  0.00  0.00    +0.000 A 
ATOM     11  C   UNL     1      56.359  55.255  24.215  0.00  0.00    +0.000 A 
ATOM     12  C   UNL     1      56.101  53.911  24.370  0.00  0.00    +0.000 A 
ATOM     13  C   UNL     1      57.069  53.057  24.844  0.00  0.00    +0.000 A 
ATOM     14  C   UNL     1      58.306  53.637  25.149  0.00  0.00    +0.000 A 
ATOM     15  C   UNL     1      58.519  54.984  24.979  0.00  0.00    +0.000 A 
ATOM     16  C   UNL     1      57.564  55.833  24.510  0.00  0.00    +0.000 A 
ENDBRANCH   5   7
BRANCH   1  17
ATOM     17  C   UNL     1      62.206  56.118  25.894  0.00  0.00    +0.000 C 
BRANCH  17  18
ATOM     18  C   UNL     1      62.095  56.051  27.407  0.00  0.00    +0.000 C 
BRANCH  18  19
ATOM     19  N   UNL     1      63.282  56.573  28.057  0.00  0.00    +0.000 NA
ATOM     20  C   UNL     1      64.280  57.101  27.349  0.00  0.00    +0.000 C 
ATOM     21  N   UNL     1      65.300  57.340  28.161  0.00  0.00    +0.000 NA
ATOM     22  C   UNL     1      64.825  57.225  29.430  0.00  0.00    +0.000 C 
ATOM     23  N   UNL     1      63.584  56.726  29.335  0.00  0.00    +0.000 NA
ATOM     24  H   UNL     1      66.051  56.654  27.999  0.00  0.00    +0.000 HD
ATOM     25  H   UNL     1      62.915  57.376  29.773  0.00  0.00    +0.000 HD
BRANCH  22  26
ATOM     26  C   UNL     1      65.256  57.476  30.826  0.00  0.00    +0.000 A 
ATOM     27  C   UNL     1      64.499  58.126  31.779  0.00  0.00    +0.000 A 
ATOM     28  C   UNL     1      65.024  58.291  33.042  0.00  0.00    +0.000 A 
ATOM     29  C   UNL     1      66.298  57.792  33.294  0.00  0.00    +0.000 A 
ATOM     30  C   UNL     1      67.067  57.137  32.345  0.00  0.00    +0.000 A 
ATOM     31  C   UNL     1      66.515  56.981  31.073  0.00  0.00    +0.000 A 
ENDBRANCH  22  26
ENDBRANCH  18  19
ENDBRANCH  17  18
ENDBRANCH   1  17
TORSDOF 5
