REMARK  Name = 
REMARK  5 active torsions:
REMARK  status: ('A' for Active; 'I' for Inactive)
REMARK    1  A    between atoms: C_1  and  O_15
REMARK    2  A    between atoms: C_4  and  C_6
REMARK    3  A    between atoms: O_15  and  C_16
REMARK    4  A    between atoms: C_16  and  C_20
REMARK    5  A    between atoms: C_26  and  C_27
REMARK                            x       y       z     vdW  Elec       q    Type
REMARK                         _______ _______ _______ _____ _____    ______ ____
ROOT
ATOM      1  C   UNL     1      61.559  56.601  26.251  0.00  0.00    +0.000 C 
ATOM      2  O   UNL     1      61.223  55.553  25.693  0.00  0.00    +0.000 OA
ENDROOT
BRANCH   1   5
ATOM      3  C   UNL     1      65.282  56.924  26.146  0.00  0.00    +0.000 A 
ATOM      4  C   UNL     1      63.947  56.722  25.705  0.00  0.00    +0.000 A 
ATOM      5  C   UNL     1      62.947  56.797  26.634  0.00  0.00    +0.000 A 
ATOM      6  N   UNL     1      63.301  57.057  27.908  0.00  0.00    +0.000 NA
ATOM      7  C   UNL     1      64.572  57.248  28.317  0.00  0.00    +0.000 A 
ATOM      8  N   UNL     1      65.549  57.181  27.445  0.00  0.00    +0.000 NA
ATOM      9  N   UNL     1      64.763  57.518  29.711  0.00  0.00    +0.000 N 
ATOM     10  C   UNL     1      65.812  56.956  30.335  0.00  0.00    +0.000 A 
ATOM     11  C   UNL     1      65.917  57.273  31.673  0.00  0.00    +0.000 A 
ATOM     12  C   UNL     1      67.079  56.661  32.403  0.00  0.00    +0.000 C 
ATOM     13  C   UNL     1      65.065  58.086  32.389  0.00  0.00    +0.000 A 
ATOM     14  O   UNL     1      65.291  58.281  33.607  0.00  0.00    +0.000 OA
ATOM     15  N   UNL     1      64.018  58.626  31.694  0.00  0.00    +0.000 N 
ATOM     16  C   UNL     1      63.900  58.328  30.388  0.00  0.00    +0.000 A 
ATOM     17  O   UNL     1      62.922  58.839  29.764  0.00  0.00    +0.000 OA
ATOM     18  H   UNL     1      63.338  59.245  32.159  0.00  0.00    +0.000 HD
ENDBRANCH   1   5
BRANCH   1  19
ATOM     19  O   UNL     1      60.640  57.627  26.535  0.00  0.00    +0.000 OA
BRANCH  19  20
ATOM     20  C   UNL     1      60.248  58.444  25.463  0.00  0.00    +0.000 A 
ATOM     21  C   UNL     1      61.080  59.238  24.691  0.00  0.00    +0.000 A 
ATOM     22  C   UNL     1      60.306  59.894  23.726  0.00  0.00    +0.000 A 
ATOM     23  C   UNL     1      59.020  59.434  23.992  0.00  0.00    +0.000 A 
ATOM     24  O   UNL     1      59.043  58.614  24.985  0.00  0.00    +0.000 OA
BRANCH  23  25
ATOM     25  C   UNL     1      57.859  59.861  23.215  0.00  0.00    +0.000 A 
ATOM     26  C   UNL     1      57.159  59.167  22.241  0.00  0.00    +0.000 A 
ATOM     27  N   UNL     1      56.170  59.924  21.785  0.00  0.00    +0.000 N 
ATOM     28  C   UNL     1      56.165  61.093  22.399  0.00  0.00    +0.000 A 
ATOM     29  C   UNL     1      55.335  62.171  22.250  0.00  0.00    +0.000 A 
ATOM     30  C   UNL     1      55.591  63.284  23.059  0.00  0.00    +0.000 A 
ATOM     31  C   UNL     1      56.619  63.349  23.983  0.00  0.00    +0.000 A 
ATOM     32  C   UNL     1      57.414  62.229  24.080  0.00  0.00    +0.000 A 
ATOM     33  C   UNL     1      57.228  61.085  23.314  0.00  0.00    +0.000 A 
ATOM     34  H   UNL     1      55.501  59.640  21.055  0.00  0.00    +0.000 HD
ENDBRANCH  23  25
ENDBRANCH  19  20
ENDBRANCH   1  19
TORSDOF 4
