REMARK  Name = 
REMARK  5 active torsions:
REMARK  status: ('A' for Active; 'I' for Inactive)
REMARK    1  A    between atoms: C_1  and  O_15
REMARK    2  A    between atoms: C_4  and  C_6
REMARK    3  A    between atoms: O_15  and  C_16
REMARK    4  A    between atoms: C_16  and  C_20
REMARK    5  A    between atoms: C_22  and  C_24
REMARK                            x       y       z     vdW  Elec       q    Type
REMARK                         _______ _______ _______ _____ _____    ______ ____
ROOT
ATOM      1  C   UNL     1      60.361  58.636  25.580  0.00  0.00    +0.000 A 
ATOM      2  C   UNL     1      61.249  59.245  24.713  0.00  0.00    +0.000 A 
ATOM      3  C   UNL     1      60.522  59.983  23.777  0.00  0.00    +0.000 A 
ATOM      4  C   UNL     1      59.196  59.766  24.149  0.00  0.00    +0.000 A 
ATOM      5  O   UNL     1      59.180  59.000  25.170  0.00  0.00    +0.000 OA
ENDROOT
BRANCH   4   6
ATOM      6  C   UNL     1      58.074  60.363  23.426  0.00  0.00    +0.000 A 
ATOM      7  C   UNL     1      57.517  59.980  22.232  0.00  0.00    +0.000 A 
ATOM      8  N   UNL     1      56.512  60.807  21.945  0.00  0.00    +0.000 N 
ATOM      9  C   UNL     1      56.375  61.723  22.895  0.00  0.00    +0.000 A 
ATOM     10  C   UNL     1      55.476  62.743  22.984  0.00  0.00    +0.000 A 
ATOM     11  C   UNL     1      55.578  63.555  24.114  0.00  0.00    +0.000 A 
ATOM     12  C   UNL     1      56.522  63.375  25.119  0.00  0.00    +0.000 A 
ATOM     13  C   UNL     1      57.392  62.316  24.947  0.00  0.00    +0.000 A 
ATOM     14  C   UNL     1      57.349  61.468  23.847  0.00  0.00    +0.000 A 
ATOM     15  H   UNL     1      55.923  60.744  21.102  0.00  0.00    +0.000 HD
ENDBRANCH   4   6
BRANCH   1  16
ATOM     16  O   UNL     1      60.669  57.799  26.675  0.00  0.00    +0.000 OA
BRANCH  16  17
ATOM     17  C   UNL     1      61.529  56.710  26.392  0.00  0.00    +0.000 C 
ATOM     18  O   UNL     1      61.122  55.680  25.857  0.00  0.00    +0.000 OA
BRANCH  17  21
ATOM     19  C   UNL     1      65.269  56.827  26.222  0.00  0.00    +0.000 A 
ATOM     20  C   UNL     1      63.916  56.703  25.809  0.00  0.00    +0.000 A 
ATOM     21  C   UNL     1      62.930  56.828  26.751  0.00  0.00    +0.000 A 
ATOM     22  N   UNL     1      63.306  57.064  28.024  0.00  0.00    +0.000 NA
ATOM     23  C   UNL     1      64.596  57.181  28.409  0.00  0.00    +0.000 A 
ATOM     24  N   UNL     1      65.575  57.064  27.514  0.00  0.00    +0.000 NA
BRANCH  23  25
ATOM     25  C   UNL     1      64.921  57.439  29.811  0.00  0.00    +0.000 A 
ATOM     26  C   UNL     1      66.117  57.022  30.357  0.00  0.00    +0.000 A 
ATOM     27  C   UNL     1      66.480  57.238  31.684  0.00  0.00    +0.000 A 
ATOM     28  C   UNL     1      65.551  57.915  32.459  0.00  0.00    +0.000 A 
ATOM     29  C   UNL     1      64.337  58.349  31.944  0.00  0.00    +0.000 A 
ATOM     30  C   UNL     1      64.027  58.110  30.623  0.00  0.00    +0.000 A 
ENDBRANCH  23  25
ENDBRANCH  17  21
ENDBRANCH  16  17
ENDBRANCH   1  16
TORSDOF 5
