REMARK  Name = 
REMARK  4 active torsions:
REMARK  status: ('A' for Active; 'I' for Inactive)
REMARK    1  A    between atoms: C_3  and  C_17
REMARK    2  A    between atoms: C_5  and  C_7
REMARK    3  A    between atoms: C_10  and  N_12
REMARK    4  A    between atoms: C_20  and  N_22
REMARK                            x       y       z     vdW  Elec       q    Type
REMARK                         _______ _______ _______ _____ _____    ______ ____
ROOT
ATOM      1  C   UNL     1      65.286  56.754  26.028  0.00  0.00    +0.000 A 
ATOM      2  C   UNL     1      63.955  56.769  25.556  0.00  0.00    +0.000 A 
ATOM      3  C   UNL     1      62.948  57.011  26.436  0.00  0.00    +0.000 A 
ATOM      4  N   UNL     1      63.256  57.230  27.749  0.00  0.00    +0.000 NA
ATOM      5  C   UNL     1      64.531  57.212  28.174  0.00  0.00    +0.000 A 
ATOM      6  N   UNL     1      65.551  56.979  27.346  0.00  0.00    +0.000 NA
ENDROOT
BRANCH   5   7
ATOM      7  C   UNL     1      64.790  57.463  29.606  0.00  0.00    +0.000 A 
ATOM      8  C   UNL     1      63.950  58.039  30.529  0.00  0.00    +0.000 A 
ATOM      9  C   UNL     1      64.422  58.171  31.807  0.00  0.00    +0.000 A 
ATOM     10  C   UNL     1      65.711  57.707  32.049  0.00  0.00    +0.000 A 
ATOM     11  S   UNL     1      66.255  57.092  30.496  0.00  0.00    +0.000 S 
BRANCH  10  12
ATOM     12  N   UNL     1      66.446  57.717  33.245  0.00  0.00    +0.000 N 
ATOM     13  C   UNL     1      67.661  57.066  33.367  0.00  0.00    +0.000 C 
ATOM     14  N   UNL     1      67.894  55.939  32.803  0.00  0.00    +0.000 NA
ATOM     15  N   UNL     1      68.689  57.696  34.168  0.00  0.00    +0.000 N 
ATOM     16  H   UNL     1      67.196  55.438  32.249  0.00  0.00    +0.000 HD
ATOM     17  H   UNL     1      66.069  58.225  34.058  0.00  0.00    +0.000 HD
ATOM     18  H   UNL     1      69.606  57.240  34.281  0.00  0.00    +0.000 HD
ATOM     19  H   UNL     1      68.504  58.600  34.625  0.00  0.00    +0.000 HD
ENDBRANCH  10  12
ENDBRANCH   5   7
BRANCH   3  20
ATOM     20  C   UNL     1      61.546  57.036  26.009  0.00  0.00    +0.000 A 
ATOM     21  C   UNL     1      60.744  55.929  25.840  0.00  0.00    +0.000 A 
ATOM     22  C   UNL     1      59.502  56.399  25.434  0.00  0.00    +0.000 A 
ATOM     23  C   UNL     1      59.634  57.781  25.382  0.00  0.00    +0.000 A 
ATOM     24  O   UNL     1      60.862  58.094  25.732  0.00  0.00    +0.000 OA
BRANCH  23  25
ATOM     25  N   UNL     1      58.599  58.693  25.014  0.00  0.00    +0.000 N 
ATOM     26  C   UNL     1      58.307  60.076  25.340  0.00  0.00    +0.000 C 
ATOM     27  C   UNL     1      58.196  60.966  24.123  0.00  0.00    +0.000 C 
ATOM     28  C   UNL     1      57.656  60.316  22.901  0.00  0.00    +0.000 C 
ATOM     29  C   UNL     1      57.889  58.850  22.767  0.00  0.00    +0.000 C 
ATOM     30  C   UNL     1      57.554  58.224  24.124  0.00  0.00    +0.000 C 
ENDBRANCH  23  25
ENDBRANCH   3  20
TORSDOF 4
