REMARK  Name = 
REMARK  4 active torsions:
REMARK  status: ('A' for Active; 'I' for Inactive)
REMARK    1  A    between atoms: C_1  and  O_13
REMARK    2  A    between atoms: O_13  and  C_14
REMARK    3  A    between atoms: C_18  and  C_29
REMARK    4  A    between atoms: C_22  and  C_23
REMARK                            x       y       z     vdW  Elec       q    Type
REMARK                         _______ _______ _______ _____ _____    ______ ____
ROOT
ATOM      1  C   UNL     1      63.394  59.255  30.146  0.00  0.00    +0.000 A 
ATOM      2  C   UNL     1      64.166  58.339  30.826  0.00  0.00    +0.000 A 
ATOM      3  C   UNL     1      65.389  58.714  31.386  0.00  0.00    +0.000 A 
ATOM      4  N   UNL     1      65.781  60.013  31.232  0.00  0.00    +0.000 NA
ATOM      5  C   UNL     1      65.023  60.883  30.573  0.00  0.00    +0.000 A 
ATOM      6  N   UNL     1      63.848  60.527  30.035  0.00  0.00    +0.000 NA
ATOM      7  N   UNL     1      66.228  57.815  32.097  0.00  0.00    +0.000 N 
ATOM      8  C   UNL     1      66.343  58.073  33.428  0.00  0.00    +0.000 A 
ATOM      9  C   UNL     1      67.111  57.317  34.303  0.00  0.00    +0.000 A 
ATOM     10  C   UNL     1      67.189  57.661  35.746  0.00  0.00    +0.000 C 
ATOM     11  C   UNL     1      67.773  56.254  33.725  0.00  0.00    +0.000 A 
ATOM     12  O   UNL     1      68.487  55.541  34.507  0.00  0.00    +0.000 OA
ATOM     13  N   UNL     1      67.663  55.992  32.409  0.00  0.00    +0.000 N 
ATOM     14  C   UNL     1      66.903  56.760  31.611  0.00  0.00    +0.000 A 
ATOM     15  O   UNL     1      66.773  56.556  30.393  0.00  0.00    +0.000 OA
ATOM     16  H   UNL     1      68.170  55.190  32.008  0.00  0.00    +0.000 HD
ENDROOT
BRANCH   5  17
ATOM     17  C   UNL     1      65.431  62.296  30.395  0.00  0.00    +0.000 C 
ATOM     18  F   UNL     1      64.808  62.908  29.339  0.00  0.00    +0.000 F 
ATOM     19  F   UNL     1      66.799  62.415  30.163  0.00  0.00    +0.000 F 
ATOM     20  F   UNL     1      65.243  62.953  31.616  0.00  0.00    +0.000 F 
ENDBRANCH   5  17
BRANCH   1  21
ATOM     21  O   UNL     1      62.217  58.753  29.649  0.00  0.00    +0.000 OA
BRANCH  21  22
ATOM     22  C   UNL     1      62.033  58.089  28.445  0.00  0.00    +0.000 A 
ATOM     23  C   UNL     1      62.616  56.825  28.351  0.00  0.00    +0.000 A 
ATOM     24  C   UNL     1      62.440  56.135  27.137  0.00  0.00    +0.000 A 
ATOM     25  N   UNL     1      61.725  56.717  26.129  0.00  0.00    +0.000 NA
ATOM     26  C   UNL     1      61.180  57.949  26.278  0.00  0.00    +0.000 A 
ATOM     27  N   UNL     1      61.339  58.631  27.440  0.00  0.00    +0.000 NA
ATOM     28  N   UNL     1      60.438  58.531  25.204  0.00  0.00    +0.000 N 
ATOM     29  C   UNL     1      60.415  59.967  25.046  0.00  0.00    +0.000 C 
ATOM     30  C   UNL     1      59.282  60.490  24.264  0.00  0.00    +0.000 C 
ATOM     31  N   UNL     1      58.816  59.674  23.192  0.00  0.00    +0.000 NA
ATOM     32  C   UNL     1      59.558  58.457  22.994  0.00  0.00    +0.000 C 
ATOM     33  C   UNL     1      59.717  57.684  24.287  0.00  0.00    +0.000 C 
ATOM     34  H   UNL     1      57.835  59.424  23.383  0.00  0.00    +0.000 HD
ENDBRANCH  21  22
ENDBRANCH   1  21
TORSDOF 3
