REMARK  Name = 
REMARK  2 active torsions:
REMARK  status: ('A' for Active; 'I' for Inactive)
REMARK    1  A    between atoms: C_1  and  C_18
REMARK    2  A    between atoms: C_6  and  C_7
REMARK                            x       y       z     vdW  Elec       q    Type
REMARK                         _______ _______ _______ _____ _____    ______ ____
ROOT
ATOM      1  C   UNL     1      61.364  56.758  26.798  0.00  0.00    +0.000 C 
ATOM      2  C   UNL     1      61.319  55.535  25.889  0.00  0.00    +0.000 C 
ATOM      3  C   UNL     1      59.868  55.319  25.540  0.00  0.00    +0.000 C 
ATOM      4  C   UNL     1      59.514  56.476  24.584  0.00  0.00    +0.000 C 
ATOM      5  C   UNL     1      59.611  57.778  25.329  0.00  0.00    +0.000 C 
ATOM      6  C   UNL     1      60.924  57.972  26.024  0.00  0.00    +0.000 C 
ENDROOT
BRANCH   6   7
ATOM      7  C   UNL     1      60.763  59.092  26.935  0.00  0.00    +0.000 A 
ATOM      8  C   UNL     1      61.206  59.183  28.231  0.00  0.00    +0.000 A 
ATOM      9  C   UNL     1      61.047  60.258  29.079  0.00  0.00    +0.000 A 
ATOM     10  C   UNL     1      60.380  61.369  28.608  0.00  0.00    +0.000 A 
ATOM     11  C   UNL     1      59.912  61.352  27.334  0.00  0.00    +0.000 A 
ATOM     12  C   UNL     1      59.253  62.490  26.923  0.00  0.00    +0.000 A 
ATOM     13  C   UNL     1      58.741  62.568  25.649  0.00  0.00    +0.000 A 
ATOM     14  C   UNL     1      58.897  61.493  24.798  0.00  0.00    +0.000 A 
ATOM     15  C   UNL     1      59.565  60.380  25.261  0.00  0.00    +0.000 A 
ATOM     16  C   UNL     1      60.097  60.251  26.525  0.00  0.00    +0.000 A 
ENDBRANCH   6   7
BRANCH   1  18
ATOM     17  C   UNL     1      63.850  57.216  26.506  0.00  0.00    +0.000 A 
ATOM     18  C   UNL     1      62.719  56.949  27.306  0.00  0.00    +0.000 A 
ATOM     19  C   UNL     1      62.949  56.867  28.682  0.00  0.00    +0.000 A 
ATOM     20  N   UNL     1      64.201  57.043  29.161  0.00  0.00    +0.000 NA
ATOM     21  C   UNL     1      65.252  57.298  28.346  0.00  0.00    +0.000 A 
ATOM     22  N   UNL     1      65.082  57.388  26.996  0.00  0.00    +0.000 NA
ENDBRANCH   1  18
TORSDOF 2
