REMARK  Name = 
REMARK  4 active torsions:
REMARK  status: ('A' for Active; 'I' for Inactive)
REMARK    1  A    between atoms: C_1  and  C_2
REMARK    2  A    between atoms: C_1  and  C_19
REMARK    3  A    between atoms: C_19  and  N_20
REMARK    4  A    between atoms: C_23  and  C_25
REMARK                            x       y       z     vdW  Elec       q    Type
REMARK                         _______ _______ _______ _____ _____    ______ ____
ROOT
ATOM      1  C   UNL     1      60.971  56.711  25.507  0.00  0.00    +0.000 A 
ATOM      2  C   UNL     1      60.932  58.114  25.509  0.00  0.00    +0.000 A 
ATOM      3  C   UNL     1      59.771  58.723  25.073  0.00  0.00    +0.000 A 
ATOM      4  N   UNL     1      58.745  57.956  24.670  0.00  0.00    +0.000 NA
ATOM      5  C   UNL     1      58.804  56.617  24.677  0.00  0.00    +0.000 A 
ATOM      6  N   UNL     1      59.921  55.987  25.096  0.00  0.00    +0.000 NA
ATOM      7  N   UNL     1      57.641  55.949  24.223  0.00  0.00    +0.000 N 
ATOM      8  C   UNL     1      57.190  54.885  24.933  0.00  0.00    +0.000 A 
ATOM      9  N   UNL     1      56.080  54.364  24.372  0.00  0.00    +0.000 NA
ATOM     10  C   UNL     1      55.800  55.101  23.279  0.00  0.00    +0.000 A 
ATOM     11  C   UNL     1      54.857  55.128  22.288  0.00  0.00    +0.000 A 
ATOM     12  O   UNL     1      53.949  54.266  22.309  0.00  0.00    +0.000 OA
ATOM     13  N   UNL     1      54.940  56.078  21.329  0.00  0.00    +0.000 N 
ATOM     14  C   UNL     1      55.907  57.024  21.277  0.00  0.00    +0.000 A 
ATOM     15  N   UNL     1      55.783  57.913  20.175  0.00  0.00    +0.000 N 
ATOM     16  N   UNL     1      56.847  57.012  22.248  0.00  0.00    +0.000 NA
ATOM     17  C   UNL     1      56.778  56.068  23.214  0.00  0.00    +0.000 A 
ATOM     18  H   UNL     1      54.221  56.082  20.591  0.00  0.00    +0.000 HD
ATOM     19  H   UNL     1      56.469  58.670  20.044  0.00  0.00    +0.000 HD
ATOM     20  H   UNL     1      55.007  57.800  19.507  0.00  0.00    +0.000 HD
ENDROOT
BRANCH   1  21
ATOM     21  C   UNL     1      62.141  55.890  25.944  0.00  0.00    +0.000 C 
BRANCH  21  22
ATOM     22  C   UNL     1      62.083  55.827  27.459  0.00  0.00    +0.000 C 
BRANCH  22  23
ATOM     23  N   UNL     1      63.211  56.501  28.071  0.00  0.00    +0.000 NA
ATOM     24  C   UNL     1      64.131  57.125  27.336  0.00  0.00    +0.000 C 
ATOM     25  N   UNL     1      65.155  57.457  28.104  0.00  0.00    +0.000 NA
ATOM     26  C   UNL     1      64.763  57.259  29.390  0.00  0.00    +0.000 C 
ATOM     27  N   UNL     1      63.575  56.643  29.335  0.00  0.00    +0.000 N 
ATOM     28  H   UNL     1      63.029  56.329  30.150  0.00  0.00    +0.000 HD
BRANCH  26  29
ATOM     29  C   UNL     1      65.217  57.498  30.782  0.00  0.00    +0.000 A 
ATOM     30  C   UNL     1      64.491  58.130  31.761  0.00  0.00    +0.000 A 
ATOM     31  C   UNL     1      65.045  58.280  33.013  0.00  0.00    +0.000 A 
ATOM     32  C   UNL     1      66.312  57.788  33.234  0.00  0.00    +0.000 A 
ATOM     33  C   UNL     1      67.066  57.144  32.257  0.00  0.00    +0.000 A 
ATOM     34  C   UNL     1      66.487  57.001  30.991  0.00  0.00    +0.000 A 
ENDBRANCH  26  29
ENDBRANCH  22  23
ENDBRANCH  21  22
ENDBRANCH   1  21
TORSDOF 4
