REMARK  Name = 
REMARK  4 active torsions:
REMARK  status: ('A' for Active; 'I' for Inactive)
REMARK    1  A    between atoms: C_1  and  N_2
REMARK    2  A    between atoms: C_1  and  C_14
REMARK    3  A    between atoms: C_7  and  C_8
REMARK    4  A    between atoms: C_14  and  C_17
REMARK                            x       y       z     vdW  Elec       q    Type
REMARK                         _______ _______ _______ _____ _____    ______ ____
ROOT
ATOM      1  C   UNL     1      65.035  56.753  25.877  0.00  0.00    +0.000 A 
ATOM      2  C   UNL     1      63.730  56.288  25.583  0.00  0.00    +0.000 A 
ATOM      3  C   UNL     1      62.780  56.260  26.591  0.00  0.00    +0.000 A 
ATOM      4  N   UNL     1      63.167  56.686  27.814  0.00  0.00    +0.000 NA
ATOM      5  C   UNL     1      64.409  57.125  28.080  0.00  0.00    +0.000 A 
ATOM      6  N   UNL     1      65.330  57.160  27.130  0.00  0.00    +0.000 NA
ATOM      7  N   UNL     1      64.516  57.506  29.454  0.00  0.00    +0.000 N 
ATOM      8  C   UNL     1      65.623  56.996  30.063  0.00  0.00    +0.000 A 
ATOM      9  C   UNL     1      65.797  57.325  31.409  0.00  0.00    +0.000 A 
ATOM     10  C   UNL     1      64.887  58.132  32.090  0.00  0.00    +0.000 A 
ATOM     11  O   UNL     1      65.064  58.415  33.303  0.00  0.00    +0.000 OA
ATOM     12  N   UNL     1      63.804  58.603  31.406  0.00  0.00    +0.000 N 
ATOM     13  C   UNL     1      63.633  58.286  30.101  0.00  0.00    +0.000 A 
ATOM     14  O   UNL     1      62.632  58.713  29.446  0.00  0.00    +0.000 OA
ATOM     15  H   UNL     1      63.115  59.201  31.884  0.00  0.00    +0.000 HD
ENDROOT
BRANCH   3  16
ATOM     16  C   UNL     1      61.436  55.767  26.231  0.00  0.00    +0.000 C 
BRANCH  16  17
ATOM     17  C   UNL     1      60.851  56.465  25.031  0.00  0.00    +0.000 C 
BRANCH  17  18
ATOM     18  N   UNL     1      59.433  56.227  24.953  0.00  0.00    +0.000 NA
ATOM     19  C   UNL     1      59.052  54.892  25.195  0.00  0.00    +0.000 C 
ATOM     20  C   UNL     1      57.548  54.795  24.899  0.00  0.00    +0.000 C 
ATOM     21  O   UNL     1      56.803  55.721  25.596  0.00  0.00    +0.000 OA
ATOM     22  C   UNL     1      57.228  57.020  25.462  0.00  0.00    +0.000 C 
ATOM     23  C   UNL     1      58.683  57.153  25.819  0.00  0.00    +0.000 C 
BRANCH  23  24
ATOM     24  C   UNL     1      59.176  58.532  25.691  0.00  0.00    +0.000 A 
ATOM     25  C   UNL     1      59.960  59.217  26.600  0.00  0.00    +0.000 A 
ATOM     26  C   UNL     1      60.318  60.513  26.325  0.00  0.00    +0.000 A 
ATOM     27  N   UNL     1      59.933  61.156  25.191  0.00  0.00    +0.000 NA
ATOM     28  C   UNL     1      59.168  60.459  24.325  0.00  0.00    +0.000 A 
ATOM     29  N   UNL     1      58.791  59.184  24.550  0.00  0.00    +0.000 NA
ENDBRANCH  23  24
ENDBRANCH  17  18
ENDBRANCH  16  17
ENDBRANCH   3  16
TORSDOF 4
