REMARK  Name = 
REMARK  5 active torsions:
REMARK  status: ('A' for Active; 'I' for Inactive)
REMARK    1  A    between atoms: C_1  and  N_2
REMARK    2  A    between atoms: C_1  and  C_13
REMARK    3  A    between atoms: C_5  and  C_7
REMARK    4  A    between atoms: C_13  and  C_14
REMARK    5  A    between atoms: C_22  and  C_23
REMARK                            x       y       z     vdW  Elec       q    Type
REMARK                         _______ _______ _______ _____ _____    ______ ____
ROOT
ATOM      1  C   UNL     1      61.557  56.829  25.925  0.00  0.00    +0.000 A 
ATOM      2  C   UNL     1      61.805  58.146  25.531  0.00  0.00    +0.000 A 
ATOM      3  C   UNL     1      60.852  58.776  24.750  0.00  0.00    +0.000 A 
ATOM      4  N   UNL     1      59.745  58.103  24.407  0.00  0.00    +0.000 NA
ATOM      5  C   UNL     1      59.513  56.829  24.791  0.00  0.00    +0.000 A 
ATOM      6  N   UNL     1      60.442  56.199  25.559  0.00  0.00    +0.000 NA
ATOM      7  N   UNL     1      58.289  56.193  24.369  0.00  0.00    +0.000 N 
ATOM      8  C   UNL     1      57.931  55.055  24.989  0.00  0.00    +0.000 A 
ATOM      9  C   UNL     1      56.750  54.456  24.571  0.00  0.00    +0.000 A 
ATOM     10  C   UNL     1      56.243  53.196  25.174  0.00  0.00    +0.000 C 
ATOM     11  C   UNL     1      56.073  55.100  23.558  0.00  0.00    +0.000 A 
ATOM     12  O   UNL     1      54.987  54.562  23.163  0.00  0.00    +0.000 OA
ATOM     13  N   UNL     1      56.427  56.234  22.938  0.00  0.00    +0.000 N 
ATOM     14  C   UNL     1      57.592  56.789  23.381  0.00  0.00    +0.000 A 
ATOM     15  O   UNL     1      57.967  57.851  22.832  0.00  0.00    +0.000 OA
ATOM     16  H   UNL     1      55.863  56.654  22.185  0.00  0.00    +0.000 HD
ENDROOT
BRANCH   1  17
ATOM     17  C   UNL     1      62.463  55.993  26.762  0.00  0.00    +0.000 C 
BRANCH  17  18
ATOM     18  C   UNL     1      62.277  56.453  28.195  0.00  0.00    +0.000 C 
BRANCH  18  19
ATOM     19  N   UNL     1      63.537  56.807  28.819  0.00  0.00    +0.000 NA
ATOM     20  C   UNL     1      64.569  57.247  28.108  0.00  0.00    +0.000 C 
ATOM     21  N   UNL     1      65.615  57.377  28.908  0.00  0.00    +0.000 NA
ATOM     22  C   UNL     1      65.143  57.319  30.183  0.00  0.00    +0.000 C 
ATOM     23  N   UNL     1      63.856  56.959  30.095  0.00  0.00    +0.000 NA
ATOM     24  H   UNL     1      66.285  56.613  28.743  0.00  0.00    +0.000 HD
ATOM     25  H   UNL     1      63.264  57.690  30.514  0.00  0.00    +0.000 HD
BRANCH  22  26
ATOM     26  C   UNL     1      65.598  57.524  31.580  0.00  0.00    +0.000 A 
ATOM     27  C   UNL     1      64.947  58.273  32.525  0.00  0.00    +0.000 A 
ATOM     28  C   UNL     1      65.494  58.371  33.787  0.00  0.00    +0.000 A 
ATOM     29  C   UNL     1      66.672  57.715  34.046  0.00  0.00    +0.000 A 
ATOM     30  C   UNL     1      67.347  56.953  33.104  0.00  0.00    +0.000 A 
ATOM     31  C   UNL     1      66.783  56.858  31.824  0.00  0.00    +0.000 A 
ENDBRANCH  22  26
ENDBRANCH  18  19
ENDBRANCH  17  18
ENDBRANCH   1  17
TORSDOF 4
