REMARK  Name = 
REMARK  2 active torsions:
REMARK  status: ('A' for Active; 'I' for Inactive)
REMARK    1  A    between atoms: N_1  and  C_7
REMARK    2  A    between atoms: C_5  and  C_23
REMARK                            x       y       z     vdW  Elec       q    Type
REMARK                         _______ _______ _______ _____ _____    ______ ____
ROOT
ATOM      1  C   UNL     1      63.857  57.152  26.954  0.00  0.00    +0.000 A 
ATOM      2  C   UNL     1      62.479  57.116  27.303  0.00  0.00    +0.000 A 
ATOM      3  C   UNL     1      62.178  57.359  28.641  0.00  0.00    +0.000 A 
ATOM      4  N   UNL     1      63.172  57.614  29.509  0.00  0.00    +0.000 NA
ATOM      5  C   UNL     1      64.447  57.641  29.136  0.00  0.00    +0.000 A 
ATOM      6  N   UNL     1      64.810  57.413  27.870  0.00  0.00    +0.000 NA
ATOM      7  N   UNL     1      65.463  57.918  30.096  0.00  0.00    +0.000 N 
ATOM      8  C   UNL     1      66.392  56.978  30.440  0.00  0.00    +0.000 A 
ATOM      9  N   UNL     1      67.280  57.419  31.368  0.00  0.00    +0.000 NA
ATOM     10  C   UNL     1      66.900  58.684  31.623  0.00  0.00    +0.000 A 
ATOM     11  C   UNL     1      67.363  59.690  32.454  0.00  0.00    +0.000 A 
ATOM     12  O   UNL     1      68.372  59.445  33.175  0.00  0.00    +0.000 OA
ATOM     13  N   UNL     1      66.727  60.875  32.461  0.00  0.00    +0.000 N 
ATOM     14  C   UNL     1      65.647  61.140  31.692  0.00  0.00    +0.000 A 
ATOM     15  N   UNL     1      65.104  62.462  31.837  0.00  0.00    +0.000 N 
ATOM     16  N   UNL     1      65.165  60.171  30.860  0.00  0.00    +0.000 NA
ATOM     17  C   UNL     1      65.808  58.975  30.854  0.00  0.00    +0.000 A 
ATOM     18  H   UNL     1      67.080  61.617  33.082  0.00  0.00    +0.000 HD
ATOM     19  H   UNL     1      64.281  62.744  31.286  0.00  0.00    +0.000 HD
ATOM     20  H   UNL     1      65.538  63.128  32.492  0.00  0.00    +0.000 HD
ENDROOT
BRANCH   2  21
ATOM     21  N   UNL     1      61.485  56.870  26.335  0.00  0.00    +0.000 N 
ATOM     22  C   UNL     1      60.979  55.543  26.012  0.00  0.00    +0.000 C 
ATOM     23  C   UNL     1      60.064  55.777  24.850  0.00  0.00    +0.000 C 
ATOM     24  C   UNL     1      59.421  57.088  25.312  0.00  0.00    +0.000 C 
ATOM     25  C   UNL     1      60.827  57.852  25.579  0.00  0.00    +0.000 C 
BRANCH  25  26
ATOM     26  C   UNL     1      60.506  59.128  26.193  0.00  0.00    +0.000 A 
ATOM     27  C   UNL     1      60.890  59.755  27.378  0.00  0.00    +0.000 A 
ATOM     28  N   UNL     1      60.338  60.992  27.481  0.00  0.00    +0.000 N 
ATOM     29  C   UNL     1      59.602  61.190  26.381  0.00  0.00    +0.000 A 
ATOM     30  C   UNL     1      58.877  62.310  26.064  0.00  0.00    +0.000 A 
ATOM     31  C   UNL     1      58.188  62.362  24.892  0.00  0.00    +0.000 A 
ATOM     32  C   UNL     1      58.252  61.274  24.071  0.00  0.00    +0.000 A 
ATOM     33  C   UNL     1      58.991  60.148  24.407  0.00  0.00    +0.000 A 
ATOM     34  C   UNL     1      59.688  60.076  25.577  0.00  0.00    +0.000 A 
ATOM     35  H   UNL     1      60.463  61.654  28.260  0.00  0.00    +0.000 HD
ENDBRANCH  25  26
ENDBRANCH   2  21
TORSDOF 2
