REMARK  Name = 
REMARK  3 active torsions:
REMARK  status: ('A' for Active; 'I' for Inactive)
REMARK    1  A    between atoms: C_1  and  C_18
REMARK    2  A    between atoms: C_5  and  C_7
REMARK    3  A    between atoms: C_16  and  C_21
REMARK                            x       y       z     vdW  Elec       q    Type
REMARK                         _______ _______ _______ _____ _____    ______ ____
ROOT
ATOM      1  C   UNL     1      64.791  57.877  30.405  0.00  0.00    +0.000 A 
ATOM      2  C   UNL     1      63.783  58.084  31.354  0.00  0.00    +0.000 A 
ATOM      3  C   UNL     1      64.263  58.293  32.642  0.00  0.00    +0.000 A 
ATOM      4  C   UNL     1      65.614  58.284  32.891  0.00  0.00    +0.000 A 
ATOM      5  C   UNL     1      66.564  58.076  31.928  0.00  0.00    +0.000 A 
ATOM      6  N   UNL     1      66.102  57.871  30.666  0.00  0.00    +0.000 NA
ENDROOT
BRANCH   5   7
ATOM      7  C   UNL     1      67.987  58.070  32.219  0.00  0.00    +0.000 A 
ATOM      8  C   UNL     1      68.492  57.105  33.061  0.00  0.00    +0.000 A 
ATOM      9  C   UNL     1      69.839  57.041  33.382  0.00  0.00    +0.000 A 
ATOM     10  C   UNL     1      70.611  58.009  32.797  0.00  0.00    +0.000 A 
ATOM     11  C   UNL     1      70.085  58.974  31.953  0.00  0.00    +0.000 A 
ATOM     12  N   UNL     1      68.771  58.989  31.676  0.00  0.00    +0.000 NA
ATOM     13  N   UNL     1      70.966  59.961  31.377  0.00  0.00    +0.000 N 
ATOM     14  H   UNL     1      70.588  60.684  30.748  0.00  0.00    +0.000 HD
ATOM     15  H   UNL     1      71.972  59.943  31.595  0.00  0.00    +0.000 HD
ENDBRANCH   5   7
BRANCH   1  20
ATOM     16  C   UNL     1      64.989  57.036  26.829  0.00  0.00    +0.000 A 
ATOM     17  C   UNL     1      63.656  57.218  26.382  0.00  0.00    +0.000 A 
ATOM     18  C   UNL     1      62.710  57.636  27.357  0.00  0.00    +0.000 A 
ATOM     19  N   UNL     1      63.125  57.837  28.645  0.00  0.00    +0.000 NA
ATOM     20  C   UNL     1      64.411  57.643  28.998  0.00  0.00    +0.000 A 
ATOM     21  N   UNL     1      65.295  57.253  28.090  0.00  0.00    +0.000 NA
ATOM     22  N   UNL     1      65.944  56.622  25.882  0.00  0.00    +0.000 N 
ATOM     23  H   UNL     1      65.664  56.463  24.904  0.00  0.00    +0.000 HD
ATOM     24  H   UNL     1      66.923  56.478  26.167  0.00  0.00    +0.000 HD
BRANCH  18  25
ATOM     25  C   UNL     1      61.284  57.851  26.967  0.00  0.00    +0.000 C 
ATOM     26  C   UNL     1      60.679  59.054  27.559  0.00  0.00    +0.000 C 
ATOM     27  C   UNL     1      60.578  60.265  26.696  0.00  0.00    +0.000 C 
ATOM     28  C   UNL     1      60.560  59.987  25.221  0.00  0.00    +0.000 C 
ATOM     29  C   UNL     1      61.573  58.944  24.805  0.00  0.00    +0.000 C 
ATOM     30  C   UNL     1      61.175  57.673  25.486  0.00  0.00    +0.000 C 
ENDBRANCH  18  25
ENDBRANCH   1  20
TORSDOF 3
