REMARK  Name = 
REMARK  9 active torsions:
REMARK  status: ('A' for Active; 'I' for Inactive)
REMARK    1  A    between atoms: C_4  and  N_7
REMARK    2  A    between atoms: C_6  and  C_25
REMARK    3  A    between atoms: N_7  and  C_8
REMARK    4  A    between atoms: C_8  and  C_9
REMARK    5  A    between atoms: C_9  and  C_12
REMARK    6  A    between atoms: C_18  and  C_19
REMARK    7  A    between atoms: C_25  and  C_26
REMARK    8  A    between atoms: C_25  and  C_27
REMARK    9  A    between atoms: C_25  and  C_28
REMARK                            x       y       z     vdW  Elec       q    Type
REMARK                         _______ _______ _______ _____ _____    ______ ____
ROOT
ATOM      1  C   UNL     1      64.983  56.804  26.045  0.00  0.00    +0.000 A 
ATOM      2  C   UNL     1      63.711  56.250  25.793  0.00  0.00    +0.000 A 
ATOM      3  C   UNL     1      62.784  56.134  26.796  0.00  0.00    +0.000 A 
ATOM      4  N   UNL     1      63.133  56.564  28.020  0.00  0.00    +0.000 NA
ATOM      5  C   UNL     1      64.340  57.093  28.275  0.00  0.00    +0.000 A 
ATOM      6  N   UNL     1      65.257  57.212  27.297  0.00  0.00    +0.000 NA
ATOM      7  N   UNL     1      64.635  57.525  29.591  0.00  0.00    +0.000 N 
ATOM      8  C   UNL     1      65.700  57.036  30.255  0.00  0.00    +0.000 A 
ATOM      9  C   UNL     1      66.074  57.390  31.535  0.00  0.00    +0.000 A 
ATOM     10  C   UNL     1      67.268  56.796  32.189  0.00  0.00    +0.000 C 
ATOM     11  C   UNL     1      65.260  58.322  32.136  0.00  0.00    +0.000 A 
ATOM     12  O   UNL     1      65.531  58.702  33.307  0.00  0.00    +0.000 OA
ATOM     13  N   UNL     1      64.175  58.844  31.505  0.00  0.00    +0.000 N 
ATOM     14  C   UNL     1      63.891  58.432  30.248  0.00  0.00    +0.000 A 
ATOM     15  O   UNL     1      62.880  58.931  29.684  0.00  0.00    +0.000 OA
ATOM     16  H   UNL     1      63.580  59.541  31.975  0.00  0.00    +0.000 HD
ENDROOT
BRANCH   3  17
ATOM     17  C   UNL     1      61.477  55.551  26.466  0.00  0.00    +0.000 C 
BRANCH  17  18
ATOM     18  C   UNL     1      60.782  56.127  25.253  0.00  0.00    +0.000 C 
BRANCH  18  19
ATOM     19  N   UNL     1      59.559  56.623  25.631  0.00  0.00    +0.000 NA
ATOM     20  H   UNL     1      59.424  56.386  26.624  0.00  0.00    +0.000 HD
BRANCH  19  24
ATOM     21  N   UNL     1      60.682  60.322  24.471  0.00  0.00    +0.000 NA
ATOM     22  C   UNL     1      59.714  59.793  23.692  0.00  0.00    +0.000 C 
ATOM     23  C   UNL     1      59.426  58.346  24.042  0.00  0.00    +0.000 C 
ATOM     24  C   UNL     1      59.341  58.049  25.492  0.00  0.00    +0.000 C 
ATOM     25  C   UNL     1      60.328  58.774  26.300  0.00  0.00    +0.000 C 
ATOM     26  C   UNL     1      60.492  60.208  25.874  0.00  0.00    +0.000 C 
ATOM     27  H   UNL     1      60.755  61.324  24.244  0.00  0.00    +0.000 HD
BRANCH  26  28
ATOM     28  C   UNL     1      59.553  61.170  26.512  0.00  0.00    +0.000 C 
ATOM     29  C   UNL     1      60.120  62.098  27.532  0.00  0.00    +0.000 C 
ATOM     30  C   UNL     1      58.970  62.078  25.408  0.00  0.00    +0.000 C 
ATOM     31  C   UNL     1      58.406  60.444  27.121  0.00  0.00    +0.000 C 
ENDBRANCH  26  28
ENDBRANCH  19  24
ENDBRANCH  18  19
ENDBRANCH  17  18
ENDBRANCH   3  17
TORSDOF 5
