REMARK  Name = 
REMARK  3 active torsions:
REMARK  status: ('A' for Active; 'I' for Inactive)
REMARK    1  A    between atoms: C_1  and  C_11
REMARK    2  A    between atoms: C_6  and  C_13
REMARK    3  A    between atoms: C_17  and  C_19
REMARK                            x       y       z     vdW  Elec       q    Type
REMARK                         _______ _______ _______ _____ _____    ______ ____
ROOT
ATOM      1  C   UNL     1      60.027  61.600  27.714  0.00  0.00    +0.000 A 
ATOM      2  C   UNL     1      61.114  62.337  28.064  0.00  0.00    +0.000 A 
ATOM      3  C   UNL     1      61.116  63.313  29.034  0.00  0.00    +0.000 A 
ATOM      4  N   UNL     1      59.945  63.561  29.690  0.00  0.00    +0.000 NA
ATOM      5  C   UNL     1      58.852  62.873  29.391  0.00  0.00    +0.000 A 
ATOM      6  N   UNL     1      58.958  61.950  28.439  0.00  0.00    +0.000 NA
ENDROOT
BRANCH   5   7
ATOM      7  C   UNL     1      57.550  63.051  30.027  0.00  0.00    +0.000 A 
ATOM      8  C   UNL     1      57.046  62.407  31.163  0.00  0.00    +0.000 A 
ATOM      9  N   UNL     1      55.811  62.885  31.379  0.00  0.00    +0.000 N 
ATOM     10  C   UNL     1      55.532  63.786  30.439  0.00  0.00    +0.000 A 
ATOM     11  C   UNL     1      54.375  64.522  30.284  0.00  0.00    +0.000 A 
ATOM     12  C   UNL     1      54.241  65.419  29.253  0.00  0.00    +0.000 A 
ATOM     13  C   UNL     1      55.291  65.579  28.361  0.00  0.00    +0.000 A 
ATOM     14  C   UNL     1      56.438  64.831  28.539  0.00  0.00    +0.000 A 
ATOM     15  C   UNL     1      56.589  63.937  29.555  0.00  0.00    +0.000 A 
ATOM     16  H   UNL     1      55.183  62.602  32.145  0.00  0.00    +0.000 HD
ENDBRANCH   5   7
BRANCH   1  22
ATOM     17  C   UNL     1      60.134  59.128  26.772  0.00  0.00    +0.000 C 
ATOM     18  C   UNL     1      60.254  58.367  25.525  0.00  0.00    +0.000 C 
ATOM     19  C   UNL     1      60.750  59.168  24.351  0.00  0.00    +0.000 C 
ATOM     20  C   UNL     1      59.816  60.330  24.187  0.00  0.00    +0.000 C 
ATOM     21  C   UNL     1      59.854  61.239  25.342  0.00  0.00    +0.000 C 
ATOM     22  C   UNL     1      60.020  60.594  26.684  0.00  0.00    +0.000 C 
BRANCH  17  27
ATOM     23  C   UNL     1      62.395  59.006  29.678  0.00  0.00    +0.000 A 
ATOM     24  C   UNL     1      63.320  58.010  29.319  0.00  0.00    +0.000 A 
ATOM     25  C   UNL     1      63.162  57.374  28.067  0.00  0.00    +0.000 A 
ATOM     26  N   UNL     1      62.119  57.774  27.293  0.00  0.00    +0.000 NA
ATOM     27  C   UNL     1      61.243  58.740  27.669  0.00  0.00    +0.000 A 
ATOM     28  N   UNL     1      61.410  59.322  28.847  0.00  0.00    +0.000 NA
ENDBRANCH  17  27
ENDBRANCH   1  22
TORSDOF 3
