REMARK  Name = 
REMARK  4 active torsions:
REMARK  status: ('A' for Active; 'I' for Inactive)
REMARK    1  A    between atoms: C_3  and  C_17
REMARK    2  A    between atoms: C_5  and  C_7
REMARK    3  A    between atoms: C_10  and  N_12
REMARK    4  A    between atoms: C_20  and  N_22
REMARK                            x       y       z     vdW  Elec       q    Type
REMARK                         _______ _______ _______ _____ _____    ______ ____
ROOT
ATOM      1  C   UNL     1      65.280  56.783  26.000  0.00  0.00    +0.000 A 
ATOM      2  C   UNL     1      63.937  56.684  25.555  0.00  0.00    +0.000 A 
ATOM      3  C   UNL     1      62.915  56.841  26.464  0.00  0.00    +0.000 A 
ATOM      4  N   UNL     1      63.235  57.089  27.771  0.00  0.00    +0.000 NA
ATOM      5  C   UNL     1      64.525  57.177  28.157  0.00  0.00    +0.000 A 
ATOM      6  N   UNL     1      65.549  57.032  27.313  0.00  0.00    +0.000 NA
ENDROOT
BRANCH   5   7
ATOM      7  C   UNL     1      64.779  57.449  29.595  0.00  0.00    +0.000 A 
ATOM      8  C   UNL     1      63.941  58.018  30.507  0.00  0.00    +0.000 A 
ATOM      9  C   UNL     1      64.423  58.153  31.775  0.00  0.00    +0.000 A 
ATOM     10  C   UNL     1      65.697  57.713  32.032  0.00  0.00    +0.000 A 
ATOM     11  S   UNL     1      66.241  57.098  30.489  0.00  0.00    +0.000 S 
BRANCH  10  12
ATOM     12  N   UNL     1      66.450  57.720  33.215  0.00  0.00    +0.000 N 
ATOM     13  C   UNL     1      67.655  57.063  33.344  0.00  0.00    +0.000 C 
ATOM     14  N   UNL     1      67.875  55.920  32.778  0.00  0.00    +0.000 NA
ATOM     15  N   UNL     1      68.668  57.712  34.147  0.00  0.00    +0.000 N 
ATOM     16  H   UNL     1      67.175  55.439  32.236  0.00  0.00    +0.000 HD
ATOM     17  H   UNL     1      66.086  58.240  34.026  0.00  0.00    +0.000 HD
ATOM     18  H   UNL     1      69.587  57.265  34.277  0.00  0.00    +0.000 HD
ATOM     19  H   UNL     1      68.471  58.621  34.589  0.00  0.00    +0.000 HD
ENDBRANCH  10  12
ENDBRANCH   5   7
BRANCH   3  20
ATOM     20  C   UNL     1      61.523  56.744  26.043  0.00  0.00    +0.000 A 
ATOM     21  C   UNL     1      60.774  55.612  26.024  0.00  0.00    +0.000 A 
ATOM     22  C   UNL     1      59.519  56.019  25.546  0.00  0.00    +0.000 A 
ATOM     23  C   UNL     1      59.589  57.375  25.307  0.00  0.00    +0.000 A 
ATOM     24  O   UNL     1      60.820  57.730  25.629  0.00  0.00    +0.000 OA
BRANCH  23  25
ATOM     25  N   UNL     1      58.688  58.346  24.833  0.00  0.00    +0.000 N 
ATOM     26  C   UNL     1      59.098  59.626  24.863  0.00  0.00    +0.000 A 
ATOM     27  C   UNL     1      58.088  60.418  24.395  0.00  0.00    +0.000 A 
ATOM     28  N   UNL     1      57.058  59.576  24.078  0.00  0.00    +0.000 NA
ATOM     29  C   UNL     1      57.438  58.314  24.350  0.00  0.00    +0.000 A 
ATOM     30  N   UNL     1      56.719  57.096  24.189  0.00  0.00    +0.000 N 
ATOM     31  C   UNL     1      55.362  56.821  23.721  0.00  0.00    +0.000 C 
ATOM     32  C   UNL     1      55.487  55.513  22.930  0.00  0.00    +0.000 C 
ATOM     33  O   UNL     1      55.618  54.468  23.808  0.00  0.00    +0.000 OA
ATOM     34  C   UNL     1      56.592  54.690  24.755  0.00  0.00    +0.000 C 
ATOM     35  C   UNL     1      57.445  55.894  24.540  0.00  0.00    +0.000 C 
ENDBRANCH  23  25
ENDBRANCH   3  20
TORSDOF 4
