REMARK  Name = 
REMARK  2 active torsions:
REMARK  status: ('A' for Active; 'I' for Inactive)
REMARK    1  A    between atoms: N_1  and  C_8
REMARK    2  A    between atoms: C_6  and  C_18
REMARK                            x       y       z     vdW  Elec       q    Type
REMARK                         _______ _______ _______ _____ _____    ______ ____
ROOT
ATOM      1  C   UNL     1      63.593  56.852  26.016  0.00  0.00    +0.000 A 
ATOM      2  C   UNL     1      62.310  56.969  26.524  0.00  0.00    +0.000 A 
ATOM      3  C   UNL     1      62.193  57.246  27.885  0.00  0.00    +0.000 A 
ATOM      4  N   UNL     1      63.323  57.382  28.619  0.00  0.00    +0.000 NA
ATOM      5  C   UNL     1      64.550  57.268  28.114  0.00  0.00    +0.000 A 
ATOM      6  N   UNL     1      64.673  57.001  26.802  0.00  0.00    +0.000 NA
ATOM      7  N   UNL     1      65.736  57.411  28.887  0.00  0.00    +0.000 N 
ATOM      8  C   UNL     1      65.725  57.063  30.265  0.00  0.00    +0.000 C 
ATOM      9  N   UNL     1      64.702  57.301  30.989  0.00  0.00    +0.000 NA
ATOM     10  N   UNL     1      66.863  56.440  30.861  0.00  0.00    +0.000 N 
ATOM     11  H   UNL     1      63.813  57.733  30.743  0.00  0.00    +0.000 HD
ATOM     12  H   UNL     1      66.599  57.765  28.450  0.00  0.00    +0.000 HD
ATOM     13  H   UNL     1      66.849  56.190  31.860  0.00  0.00    +0.000 HD
ATOM     14  H   UNL     1      67.698  56.240  30.292  0.00  0.00    +0.000 HD
ENDROOT
BRANCH   2  15
ATOM     15  N   UNL     1      61.137  56.827  25.756  0.00  0.00    +0.000 N 
ATOM     16  C   UNL     1      60.411  55.595  25.703  0.00  0.00    +0.000 C 
ATOM     17  C   UNL     1      59.066  55.668  25.098  0.00  0.00    +0.000 C 
ATOM     18  C   UNL     1      58.315  56.932  25.250  0.00  0.00    +0.000 C 
ATOM     19  C   UNL     1      59.171  58.115  25.624  0.00  0.00    +0.000 C 
ATOM     20  C   UNL     1      60.539  57.868  24.955  0.00  0.00    +0.000 C 
BRANCH  20  21
ATOM     21  C   UNL     1      61.245  59.182  24.978  0.00  0.00    +0.000 C 
ATOM     22  F   UNL     1      61.248  59.653  26.302  0.00  0.00    +0.000 F 
ATOM     23  F   UNL     1      62.578  58.949  24.673  0.00  0.00    +0.000 F 
ATOM     24  F   UNL     1      60.722  60.142  24.176  0.00  0.00    +0.000 F 
ENDBRANCH  20  21
ENDBRANCH   2  15
TORSDOF 2
