REMARK  Name = 
REMARK  5 active torsions:
REMARK  status: ('A' for Active; 'I' for Inactive)
REMARK    1  A    between atoms: C_1  and  N_2
REMARK    2  A    between atoms: C_1  and  C_13
REMARK    3  A    between atoms: C_5  and  C_7
REMARK    4  A    between atoms: C_13  and  C_14
REMARK    5  A    between atoms: C_18  and  C_20
REMARK                            x       y       z     vdW  Elec       q    Type
REMARK                         _______ _______ _______ _____ _____    ______ ____
ROOT
ATOM      1  C   UNL     1      61.392  57.043  25.604  0.00  0.00    +0.000 A 
ATOM      2  C   UNL     1      61.703  58.413  25.498  0.00  0.00    +0.000 A 
ATOM      3  C   UNL     1      60.781  59.206  24.835  0.00  0.00    +0.000 A 
ATOM      4  N   UNL     1      59.656  58.643  24.335  0.00  0.00    +0.000 NA
ATOM      5  C   UNL     1      59.395  57.329  24.457  0.00  0.00    +0.000 A 
ATOM      6  N   UNL     1      60.262  56.510  25.095  0.00  0.00    +0.000 NA
ENDROOT
BRANCH   5   7
ATOM      7  C   UNL     1      58.153  56.822  23.882  0.00  0.00    +0.000 A 
ATOM      8  C   UNL     1      57.490  57.427  22.840  0.00  0.00    +0.000 A 
ATOM      9  N   UNL     1      56.382  56.735  22.528  0.00  0.00    +0.000 N 
ATOM     10  C   UNL     1      56.335  55.677  23.375  0.00  0.00    +0.000 A 
ATOM     11  C   UNL     1      55.447  54.641  23.528  0.00  0.00    +0.000 A 
ATOM     12  C   UNL     1      55.636  53.673  24.491  0.00  0.00    +0.000 A 
ATOM     13  C   UNL     1      56.734  53.698  25.356  0.00  0.00    +0.000 A 
ATOM     14  C   UNL     1      57.625  54.740  25.202  0.00  0.00    +0.000 A 
ATOM     15  C   UNL     1      57.428  55.704  24.234  0.00  0.00    +0.000 A 
ATOM     16  H   UNL     1      55.701  56.963  21.790  0.00  0.00    +0.000 HD
ENDBRANCH   5   7
BRANCH   1  17
ATOM     17  C   UNL     1      62.276  56.055  26.286  0.00  0.00    +0.000 C 
BRANCH  17  18
ATOM     18  C   UNL     1      62.106  56.278  27.777  0.00  0.00    +0.000 C 
BRANCH  18  19
ATOM     19  N   UNL     1      63.349  56.686  28.406  0.00  0.00    +0.000 NA
ATOM     20  C   UNL     1      64.362  57.162  27.691  0.00  0.00    +0.000 C 
ATOM     21  N   UNL     1      65.401  57.348  28.494  0.00  0.00    +0.000 NA
ATOM     22  C   UNL     1      64.932  57.289  29.765  0.00  0.00    +0.000 C 
ATOM     23  N   UNL     1      63.648  56.895  29.679  0.00  0.00    +0.000 NA
ATOM     24  H   UNL     1      66.103  56.610  28.341  0.00  0.00    +0.000 HD
ATOM     25  H   UNL     1      63.035  57.628  30.063  0.00  0.00    +0.000 HD
BRANCH  22  26
ATOM     26  C   UNL     1      65.367  57.512  31.164  0.00  0.00    +0.000 A 
ATOM     27  C   UNL     1      64.653  58.178  32.128  0.00  0.00    +0.000 A 
ATOM     28  C   UNL     1      65.183  58.309  33.387  0.00  0.00    +0.000 A 
ATOM     29  C   UNL     1      66.434  57.758  33.638  0.00  0.00    +0.000 A 
ATOM     30  C   UNL     1      67.173  57.079  32.672  0.00  0.00    +0.000 A 
ATOM     31  C   UNL     1      66.609  56.962  31.403  0.00  0.00    +0.000 A 
ENDBRANCH  22  26
ENDBRANCH  18  19
ENDBRANCH  17  18
ENDBRANCH   1  17
TORSDOF 5
