REMARK  Name = 
REMARK  7 active torsions:
REMARK  status: ('A' for Active; 'I' for Inactive)
REMARK    1  A    between atoms: C_1  and  C_4
REMARK    2  A    between atoms: C_1  and  C_14
REMARK    3  A    between atoms: C_1  and  C_15
REMARK    4  A    between atoms: C_1  and  C_16
REMARK    5  A    between atoms: C_6  and  C_8
REMARK    6  A    between atoms: C_16  and  C_17
REMARK    7  A    between atoms: N_20  and  C_22
REMARK                            x       y       z     vdW  Elec       q    Type
REMARK                         _______ _______ _______ _____ _____    ______ ____
ROOT
ATOM      1  C   UNL     1      60.861  58.745  27.324  0.00  0.00    +0.000 C 
ENDROOT
BRANCH   1   2
ATOM      2  C   UNL     1      60.124  59.936  26.909  0.00  0.00    +0.000 A 
ATOM      3  C   UNL     1      60.434  61.191  27.408  0.00  0.00    +0.000 A 
ATOM      4  C   UNL     1      59.554  62.085  26.815  0.00  0.00    +0.000 A 
ATOM      5  N   UNL     1      58.748  61.411  25.996  0.00  0.00    +0.000 N 
ATOM      6  N   UNL     1      59.109  60.155  26.074  0.00  0.00    +0.000 NA
BRANCH   5   7
ATOM      7  C   UNL     1      57.718  62.014  25.220  0.00  0.00    +0.000 A 
ATOM      8  C   UNL     1      57.656  61.722  23.855  0.00  0.00    +0.000 A 
ATOM      9  N   UNL     1      56.615  62.400  23.344  0.00  0.00    +0.000 N 
ATOM     10  C   UNL     1      55.993  63.124  24.318  0.00  0.00    +0.000 A 
ATOM     11  C   UNL     1      54.909  63.976  24.368  0.00  0.00    +0.000 A 
ATOM     12  C   UNL     1      54.563  64.546  25.582  0.00  0.00    +0.000 A 
ATOM     13  C   UNL     1      55.276  64.288  26.757  0.00  0.00    +0.000 A 
ATOM     14  C   UNL     1      56.374  63.430  26.723  0.00  0.00    +0.000 A 
ATOM     15  C   UNL     1      56.682  62.885  25.493  0.00  0.00    +0.000 A 
ATOM     16  H   UNL     1      56.327  62.376  22.355  0.00  0.00    +0.000 HD
ENDBRANCH   5   7
ENDBRANCH   1   2
BRANCH   1  17
ATOM     17  C   UNL     1      61.475  57.960  26.175  0.00  0.00    +0.000 C 
ATOM     18  C   UNL     1      60.609  56.796  25.835  0.00  0.00    +0.000 C 
ATOM     19  C   UNL     1      61.539  58.870  24.984  0.00  0.00    +0.000 C 
BRANCH  17  22
ATOM     20  C   UNL     1      65.083  56.753  26.032  0.00  0.00    +0.000 A 
ATOM     21  C   UNL     1      63.796  57.098  25.596  0.00  0.00    +0.000 A 
ATOM     22  C   UNL     1      62.860  57.570  26.536  0.00  0.00    +0.000 A 
ATOM     23  N   UNL     1      63.295  57.661  27.853  0.00  0.00    +0.000 NA
ATOM     24  C   UNL     1      64.541  57.315  28.213  0.00  0.00    +0.000 A 
ATOM     25  N   UNL     1      65.441  56.864  27.317  0.00  0.00    +0.000 NA
BRANCH  24  26
ATOM     26  C   UNL     1      64.927  57.438  29.619  0.00  0.00    +0.000 A 
ATOM     27  C   UNL     1      64.078  58.036  30.522  0.00  0.00    +0.000 A 
ATOM     28  C   UNL     1      64.491  58.125  31.836  0.00  0.00    +0.000 A 
ATOM     29  N   UNL     1      65.685  57.649  32.242  0.00  0.00    +0.000 NA
ATOM     30  C   UNL     1      66.495  57.071  31.348  0.00  0.00    +0.000 A 
ATOM     31  N   UNL     1      66.116  56.969  30.051  0.00  0.00    +0.000 NA
ENDBRANCH  24  26
ENDBRANCH  17  22
ENDBRANCH   1  17
TORSDOF 5
