REMARK  Name = 
REMARK  3 active torsions:
REMARK  status: ('A' for Active; 'I' for Inactive)
REMARK    1  A    between atoms: C_3  and  C_8
REMARK    2  A    between atoms: C_5  and  C_18
REMARK    3  A    between atoms: C_22  and  C_24
REMARK                            x       y       z     vdW  Elec       q    Type
REMARK                         _______ _______ _______ _____ _____    ______ ____
ROOT
ATOM      1  C   UNL     1      65.182  56.865  26.530  0.00  0.00    +0.000 A 
ATOM      2  C   UNL     1      63.881  56.767  26.026  0.00  0.00    +0.000 A 
ATOM      3  C   UNL     1      62.815  56.981  26.935  0.00  0.00    +0.000 A 
ATOM      4  N   UNL     1      63.153  57.263  28.220  0.00  0.00    +0.000 NA
ATOM      5  C   UNL     1      64.407  57.346  28.650  0.00  0.00    +0.000 A 
ATOM      6  N   UNL     1      65.388  57.145  27.795  0.00  0.00    +0.000 NA
ATOM      7  N   UNL     1      66.267  56.654  25.627  0.00  0.00    +0.000 N 
ATOM      8  H   UNL     1      66.079  56.435  24.638  0.00  0.00    +0.000 HD
ATOM      9  H   UNL     1      67.238  56.720  25.964  0.00  0.00    +0.000 HD
ENDROOT
BRANCH   3  10
ATOM     10  C   UNL     1      61.495  56.860  26.346  0.00  0.00    +0.000 A 
ATOM     11  N   UNL     1      60.978  55.655  26.081  0.00  0.00    +0.000 NA
ATOM     12  C   UNL     1      59.773  55.475  25.541  0.00  0.00    +0.000 A 
ATOM     13  N   UNL     1      58.956  56.520  25.209  0.00  0.00    +0.000 NA
ATOM     14  C   UNL     1      59.400  57.791  25.445  0.00  0.00    +0.000 A 
ATOM     15  C   UNL     1      58.616  58.874  25.129  0.00  0.00    +0.000 A 
ATOM     16  C   UNL     1      59.060  60.158  25.365  0.00  0.00    +0.000 A 
ATOM     17  C   UNL     1      60.321  60.283  25.928  0.00  0.00    +0.000 A 
ATOM     18  C   UNL     1      61.071  59.174  26.228  0.00  0.00    +0.000 A 
ATOM     19  C   UNL     1      60.653  57.887  26.003  0.00  0.00    +0.000 A 
ENDBRANCH   3  10
BRANCH   5  20
ATOM     20  C   UNL     1      64.636  57.661  30.072  0.00  0.00    +0.000 A 
ATOM     21  C   UNL     1      63.591  58.163  30.855  0.00  0.00    +0.000 A 
ATOM     22  C   UNL     1      63.950  58.419  32.171  0.00  0.00    +0.000 A 
ATOM     23  C   UNL     1      65.221  58.182  32.602  0.00  0.00    +0.000 A 
ATOM     24  C   UNL     1      66.222  57.688  31.802  0.00  0.00    +0.000 A 
ATOM     25  N   UNL     1      65.891  57.431  30.513  0.00  0.00    +0.000 NA
BRANCH  24  26
ATOM     26  C   UNL     1      67.566  57.448  32.295  0.00  0.00    +0.000 A 
ATOM     27  C   UNL     1      67.837  56.310  32.987  0.00  0.00    +0.000 A 
ATOM     28  C   UNL     1      69.102  56.031  33.479  0.00  0.00    +0.000 A 
ATOM     29  C   UNL     1      70.055  56.986  33.215  0.00  0.00    +0.000 A 
ATOM     30  C   UNL     1      69.764  58.150  32.504  0.00  0.00    +0.000 A 
ATOM     31  N   UNL     1      68.521  58.352  32.059  0.00  0.00    +0.000 NA
ATOM     32  N   UNL     1      70.818  59.094  32.273  0.00  0.00    +0.000 N 
ATOM     33  H   UNL     1      70.627  59.961  31.750  0.00  0.00    +0.000 HD
ATOM     34  H   UNL     1      71.766  58.905  32.630  0.00  0.00    +0.000 HD
ENDBRANCH  24  26
ENDBRANCH   5  20
TORSDOF 3
