REMARK  Name = 
REMARK  5 active torsions:
REMARK  status: ('A' for Active; 'I' for Inactive)
REMARK    1  A    between atoms: C_1  and  N_2
REMARK    2  A    between atoms: C_1  and  C_13
REMARK    3  A    between atoms: C_5  and  C_7
REMARK    4  A    between atoms: C_13  and  C_14
REMARK    5  A    between atoms: C_18  and  C_20
REMARK                            x       y       z     vdW  Elec       q    Type
REMARK                         _______ _______ _______ _____ _____    ______ ____
ROOT
ATOM      1  C   UNL     1      62.186  55.784  27.456  0.00  0.00    +0.000 C 
ENDROOT
BRANCH   1   2
ATOM      2  N   UNL     1      63.324  56.438  28.079  0.00  0.00    +0.000 NA
ATOM      3  C   UNL     1      64.194  57.145  27.370  0.00  0.00    +0.000 C 
ATOM      4  N   UNL     1      65.188  57.522  28.156  0.00  0.00    +0.000 NA
ATOM      5  C   UNL     1      64.788  57.276  29.439  0.00  0.00    +0.000 C 
ATOM      6  N   UNL     1      63.631  56.607  29.355  0.00  0.00    +0.000 NA
ATOM      7  H   UNL     1      66.037  56.981  27.939  0.00  0.00    +0.000 HD
ATOM      8  H   UNL     1      62.886  57.145  29.821  0.00  0.00    +0.000 HD
BRANCH   5   9
ATOM      9  C   UNL     1      65.225  57.515  30.832  0.00  0.00    +0.000 A 
ATOM     10  C   UNL     1      64.481  58.154  31.802  0.00  0.00    +0.000 A 
ATOM     11  C   UNL     1      65.020  58.305  33.059  0.00  0.00    +0.000 A 
ATOM     12  C   UNL     1      66.281  57.810  33.292  0.00  0.00    +0.000 A 
ATOM     13  C   UNL     1      67.046  57.169  32.344  0.00  0.00    +0.000 A 
ATOM     14  C   UNL     1      66.492  57.019  31.069  0.00  0.00    +0.000 A 
ENDBRANCH   5   9
ENDBRANCH   1   2
BRANCH   1  15
ATOM     15  C   UNL     1      62.184  55.959  25.951  0.00  0.00    +0.000 C 
BRANCH  15  16
ATOM     16  C   UNL     1      60.853  56.545  25.593  0.00  0.00    +0.000 A 
ATOM     17  C   UNL     1      60.623  57.887  25.281  0.00  0.00    +0.000 A 
ATOM     18  C   UNL     1      59.326  58.258  24.973  0.00  0.00    +0.000 A 
ATOM     19  N   UNL     1      58.360  57.328  24.985  0.00  0.00    +0.000 NA
ATOM     20  C   UNL     1      58.606  56.049  25.287  0.00  0.00    +0.000 A 
ATOM     21  N   UNL     1      59.869  55.646  25.595  0.00  0.00    +0.000 NA
BRANCH  20  22
ATOM     22  C   UNL     1      57.430  55.141  25.257  0.00  0.00    +0.000 C 
ATOM     23  C   UNL     1      56.541  55.562  24.104  0.00  0.00    +0.000 C 
ATOM     24  C   UNL     1      55.523  54.521  23.759  0.00  0.00    +0.000 C 
ATOM     25  C   UNL     1      55.455  53.391  24.764  0.00  0.00    +0.000 C 
ATOM     26  C   UNL     1      56.796  52.743  25.008  0.00  0.00    +0.000 C 
ATOM     27  C   UNL     1      57.920  53.727  24.931  0.00  0.00    +0.000 C 
ENDBRANCH  20  22
ENDBRANCH  15  16
ENDBRANCH   1  15
TORSDOF 5
