REMARK  Name = 
REMARK  2 active torsions:
REMARK  status: ('A' for Active; 'I' for Inactive)
REMARK    1  A    between atoms: C_3  and  C_7
REMARK    2  A    between atoms: C_5  and  C_17
REMARK                            x       y       z     vdW  Elec       q    Type
REMARK                         _______ _______ _______ _____ _____    ______ ____
ROOT
ATOM      1  C   UNL     1      65.135  56.851  26.109  0.00  0.00    +0.000 A 
ATOM      2  C   UNL     1      63.797  56.768  25.695  0.00  0.00    +0.000 A 
ATOM      3  C   UNL     1      62.787  56.935  26.661  0.00  0.00    +0.000 A 
ATOM      4  N   UNL     1      63.247  57.164  27.910  0.00  0.00    +0.000 NA
ATOM      5  C   UNL     1      64.506  57.243  28.298  0.00  0.00    +0.000 A 
ATOM      6  N   UNL     1      65.465  57.085  27.394  0.00  0.00    +0.000 NA
ENDROOT
BRANCH   3   7
ATOM      7  C   UNL     1      61.453  56.834  26.154  0.00  0.00    +0.000 A 
ATOM      8  N   UNL     1      60.857  55.644  25.982  0.00  0.00    +0.000 NA
ATOM      9  C   UNL     1      59.617  55.464  25.516  0.00  0.00    +0.000 A 
ATOM     10  N   UNL     1      58.832  56.498  25.164  0.00  0.00    +0.000 NA
ATOM     11  C   UNL     1      59.329  57.749  25.295  0.00  0.00    +0.000 A 
ATOM     12  C   UNL     1      58.567  58.844  24.951  0.00  0.00    +0.000 A 
ATOM     13  C   UNL     1      59.060  60.127  25.078  0.00  0.00    +0.000 A 
ATOM     14  C   UNL     1      60.360  60.281  25.569  0.00  0.00    +0.000 A 
ATOM     15  C   UNL     1      61.068  59.148  25.895  0.00  0.00    +0.000 A 
ATOM     16  C   UNL     1      60.611  57.856  25.782  0.00  0.00    +0.000 A 
ENDBRANCH   3   7
BRANCH   5  17
ATOM     17  C   UNL     1      64.810  57.480  29.698  0.00  0.00    +0.000 A 
ATOM     18  C   UNL     1      63.947  58.137  30.531  0.00  0.00    +0.000 A 
ATOM     19  C   UNL     1      64.338  58.302  31.841  0.00  0.00    +0.000 A 
ATOM     20  N   UNL     1      65.508  57.855  32.325  0.00  0.00    +0.000 NA
ATOM     21  C   UNL     1      66.349  57.212  31.496  0.00  0.00    +0.000 A 
ATOM     22  N   UNL     1      65.993  57.033  30.206  0.00  0.00    +0.000 NA
ENDBRANCH   5  17
TORSDOF 2
