REMARK  Name = 
REMARK  5 active torsions:
REMARK  status: ('A' for Active; 'I' for Inactive)
REMARK    1  A    between atoms: C_3  and  C_17
REMARK    2  A    between atoms: C_5  and  C_7
REMARK    3  A    between atoms: C_10  and  N_12
REMARK    4  A    between atoms: C_20  and  N_22
REMARK    5  A    between atoms: C_26  and  C_27
REMARK                            x       y       z     vdW  Elec       q    Type
REMARK                         _______ _______ _______ _____ _____    ______ ____
ROOT
ATOM      1  C   UNL     1      65.323  56.696  25.968  0.00  0.00    +0.000 A 
ATOM      2  C   UNL     1      63.992  56.655  25.482  0.00  0.00    +0.000 A 
ATOM      3  C   UNL     1      62.955  56.881  26.358  0.00  0.00    +0.000 A 
ATOM      4  N   UNL     1      63.250  57.137  27.669  0.00  0.00    +0.000 NA
ATOM      5  C   UNL     1      64.530  57.168  28.092  0.00  0.00    +0.000 A 
ATOM      6  N   UNL     1      65.568  56.955  27.285  0.00  0.00    +0.000 NA
ENDROOT
BRANCH   5   7
ATOM      7  C   UNL     1      64.750  57.456  29.533  0.00  0.00    +0.000 A 
ATOM      8  C   UNL     1      63.897  58.040  30.420  0.00  0.00    +0.000 A 
ATOM      9  C   UNL     1      64.352  58.189  31.696  0.00  0.00    +0.000 A 
ATOM     10  C   UNL     1      65.617  57.745  31.985  0.00  0.00    +0.000 A 
ATOM     11  S   UNL     1      66.191  57.108  30.461  0.00  0.00    +0.000 S 
BRANCH  10  12
ATOM     12  N   UNL     1      66.341  57.766  33.186  0.00  0.00    +0.000 N 
ATOM     13  C   UNL     1      67.556  57.129  33.339  0.00  0.00    +0.000 C 
ATOM     14  N   UNL     1      67.814  55.993  32.776  0.00  0.00    +0.000 NA
ATOM     15  N   UNL     1      68.541  57.791  34.163  0.00  0.00    +0.000 N 
ATOM     16  H   UNL     1      67.135  55.495  32.217  0.00  0.00    +0.000 HD
ATOM     17  H   UNL     1      65.949  58.279  33.989  0.00  0.00    +0.000 HD
ATOM     18  H   UNL     1      69.464  57.358  34.310  0.00  0.00    +0.000 HD
ATOM     19  H   UNL     1      68.320  58.695  34.604  0.00  0.00    +0.000 HD
ENDBRANCH  10  12
ENDBRANCH   5   7
BRANCH   3  20
ATOM     20  C   UNL     1      61.573  56.848  25.896  0.00  0.00    +0.000 A 
ATOM     21  C   UNL     1      60.741  55.776  25.947  0.00  0.00    +0.000 A 
ATOM     22  C   UNL     1      59.528  56.225  25.388  0.00  0.00    +0.000 A 
ATOM     23  C   UNL     1      59.725  57.556  25.039  0.00  0.00    +0.000 A 
ATOM     24  O   UNL     1      60.956  57.841  25.373  0.00  0.00    +0.000 OA
BRANCH  23  25
ATOM     25  N   UNL     1      58.890  58.520  24.448  0.00  0.00    +0.000 N 
ATOM     26  C   UNL     1      59.095  58.713  23.107  0.00  0.00    +0.000 A 
ATOM     27  C   UNL     1      58.237  59.691  22.680  0.00  0.00    +0.000 A 
ATOM     28  N   UNL     1      57.516  60.080  23.775  0.00  0.00    +0.000 NA
ATOM     29  C   UNL     1      57.937  59.354  24.820  0.00  0.00    +0.000 A 
BRANCH  29  30
ATOM     30  C   UNL     1      57.466  59.410  26.220  0.00  0.00    +0.000 C 
ATOM     31  F   UNL     1      58.584  59.702  27.024  0.00  0.00    +0.000 F 
ATOM     32  F   UNL     1      57.017  58.196  26.707  0.00  0.00    +0.000 F 
ATOM     33  F   UNL     1      56.588  60.425  26.474  0.00  0.00    +0.000 F 
ENDBRANCH  29  30
ENDBRANCH  23  25
ENDBRANCH   3  20
TORSDOF 5
