REMARK  Name = 
REMARK  3 active torsions:
REMARK  status: ('A' for Active; 'I' for Inactive)
REMARK    1  A    between atoms: C_1  and  O_22
REMARK    2  A    between atoms: C_5  and  C_18
REMARK    3  A    between atoms: O_22  and  C_23
REMARK                            x       y       z     vdW  Elec       q    Type
REMARK                         _______ _______ _______ _____ _____    ______ ____
ROOT
ATOM      1  C   UNL     1      64.756  58.072  30.515  0.00  0.00    +0.000 A 
ATOM      2  C   UNL     1      65.167  57.591  31.756  0.00  0.00    +0.000 A 
ATOM      3  C   UNL     1      65.991  58.349  32.574  0.00  0.00    +0.000 A 
ATOM      4  N   UNL     1      66.383  59.570  32.123  0.00  0.00    +0.000 NA
ATOM      5  C   UNL     1      65.990  60.031  30.933  0.00  0.00    +0.000 A 
ATOM      6  N   UNL     1      65.191  59.292  30.147  0.00  0.00    +0.000 NA
ATOM      7  N   UNL     1      66.443  57.920  33.842  0.00  0.00    +0.000 N 
ATOM      8  C   UNL     1      66.102  58.291  35.103  0.00  0.00    +0.000 A 
ATOM      9  N   UNL     1      66.839  57.565  35.992  0.00  0.00    +0.000 NA
ATOM     10  C   UNL     1      67.646  56.733  35.278  0.00  0.00    +0.000 A 
ATOM     11  C   UNL     1      68.566  55.812  35.739  0.00  0.00    +0.000 A 
ATOM     12  O   UNL     1      68.799  55.602  36.957  0.00  0.00    +0.000 OA
ATOM     13  N   UNL     1      69.211  55.140  34.766  0.00  0.00    +0.000 N 
ATOM     14  C   UNL     1      69.012  55.313  33.456  0.00  0.00    +0.000 A 
ATOM     15  N   UNL     1      69.695  54.601  32.460  0.00  0.00    +0.000 N 
ATOM     16  N   UNL     1      68.100  56.226  33.018  0.00  0.00    +0.000 NA
ATOM     17  C   UNL     1      67.401  56.952  33.933  0.00  0.00    +0.000 A 
ATOM     18  H   UNL     1      69.910  54.440  35.053  0.00  0.00    +0.000 HD
ATOM     19  H   UNL     1      69.493  54.783  31.466  0.00  0.00    +0.000 HD
ATOM     20  H   UNL     1      70.398  53.895  32.722  0.00  0.00    +0.000 HD
ENDROOT
BRANCH   5  21
ATOM     21  C   UNL     1      66.406  61.356  30.428  0.00  0.00    +0.000 C 
ATOM     22  F   UNL     1      66.455  61.414  29.061  0.00  0.00    +0.000 F 
ATOM     23  F   UNL     1      67.669  61.711  30.899  0.00  0.00    +0.000 F 
ATOM     24  F   UNL     1      65.548  62.310  30.985  0.00  0.00    +0.000 F 
ENDBRANCH   5  21
BRANCH   1  25
ATOM     25  O   UNL     1      63.945  57.224  29.812  0.00  0.00    +0.000 OA
BRANCH  25  26
ATOM     26  C   UNL     1      63.619  57.313  28.469  0.00  0.00    +0.000 A 
ATOM     27  C   UNL     1      64.590  56.862  27.578  0.00  0.00    +0.000 A 
ATOM     28  C   UNL     1      64.278  56.943  26.209  0.00  0.00    +0.000 A 
ATOM     29  N   UNL     1      63.068  57.447  25.821  0.00  0.00    +0.000 NA
ATOM     30  C   UNL     1      62.168  57.869  26.725  0.00  0.00    +0.000 A 
ATOM     31  N   UNL     1      62.457  57.796  28.036  0.00  0.00    +0.000 NA
ATOM     32  N   UNL     1      60.903  58.396  26.295  0.00  0.00    +0.000 N 
ATOM     33  C   UNL     1      60.222  59.382  27.096  0.00  0.00    +0.000 C 
ATOM     34  C   UNL     1      58.771  59.485  26.860  0.00  0.00    +0.000 C 
ATOM     35  N   UNL     1      58.331  59.259  25.525  0.00  0.00    +0.000 NA
ATOM     36  C   UNL     1      59.383  59.016  24.577  0.00  0.00    +0.000 C 
ATOM     37  C   UNL     1      60.326  57.927  25.057  0.00  0.00    +0.000 C 
ATOM     38  H   UNL     1      57.707  58.440  25.528  0.00  0.00    +0.000 HD
ENDBRANCH  25  26
ENDBRANCH   1  25
TORSDOF 3
