REMARK  Name = 
REMARK  3 active torsions:
REMARK  status: ('A' for Active; 'I' for Inactive)
REMARK    1  A    between atoms: N_1  and  C_13
REMARK    2  A    between atoms: C_6  and  N_7
REMARK    3  A    between atoms: C_13  and  C_16
REMARK                            x       y       z     vdW  Elec       q    Type
REMARK                         _______ _______ _______ _____ _____    ______ ____
ROOT
ATOM      1  C   UNL     1      64.880  56.965  26.420  0.00  0.00    +0.000 A 
ATOM      2  C   UNL     1      63.513  57.172  26.168  0.00  0.00    +0.000 A 
ATOM      3  C   UNL     1      62.691  57.503  27.198  0.00  0.00    +0.000 A 
ATOM      4  N   UNL     1      63.254  57.606  28.402  0.00  0.00    +0.000 NA
ATOM      5  C   UNL     1      64.566  57.408  28.659  0.00  0.00    +0.000 A 
ATOM      6  N   UNL     1      65.360  57.087  27.641  0.00  0.00    +0.000 NA
ATOM      7  N   UNL     1      65.052  57.547  30.003  0.00  0.00    +0.000 N 
ATOM      8  C   UNL     1      66.203  56.942  30.394  0.00  0.00    +0.000 A 
ATOM      9  C   UNL     1      66.678  57.071  31.686  0.00  0.00    +0.000 A 
ATOM     10  C   UNL     1      65.946  57.842  32.589  0.00  0.00    +0.000 A 
ATOM     11  N   UNL     1      66.349  58.041  33.947  0.00  0.00    +0.000 N 
ATOM     12  N   UNL     1      64.808  58.425  32.154  0.00  0.00    +0.000 NA
ATOM     13  C   UNL     1      64.351  58.291  30.883  0.00  0.00    +0.000 A 
ATOM     14  O   UNL     1      63.278  58.852  30.505  0.00  0.00    +0.000 OA
ATOM     15  H   UNL     1      65.774  58.620  34.575  0.00  0.00    +0.000 HD
ATOM     16  H   UNL     1      67.215  57.606  34.296  0.00  0.00    +0.000 HD
ENDROOT
BRANCH   3  17
ATOM     17  C   UNL     1      61.302  57.722  26.927  0.00  0.00    +0.000 C 
BRANCH  17  18
ATOM     18  N   UNL     1      60.938  58.736  26.128  0.00  0.00    +0.000 N 
ATOM     19  C   UNL     1      61.202  58.587  24.713  0.00  0.00    +0.000 C 
ATOM     20  C   UNL     1      61.174  59.870  23.955  0.00  0.00    +0.000 C 
ATOM     21  C   UNL     1      59.725  60.309  24.121  0.00  0.00    +0.000 C 
ATOM     22  C   UNL     1      59.596  60.774  25.528  0.00  0.00    +0.000 C 
ATOM     23  C   UNL     1      60.242  59.929  26.546  0.00  0.00    +0.000 C 
BRANCH  23  24
ATOM     24  N   UNL     1      60.134  60.305  27.886  0.00  0.00    +0.000 N 
ATOM     25  C   UNL     1      61.264  60.925  28.564  0.00  0.00    +0.000 C 
ATOM     26  C   UNL     1      60.859  62.365  28.914  0.00  0.00    +0.000 C 
ATOM     27  N   UNL     1      59.566  62.344  29.498  0.00  0.00    +0.000 NA
ATOM     28  C   UNL     1      59.059  61.076  29.919  0.00  0.00    +0.000 C 
ATOM     29  C   UNL     1      58.957  60.141  28.740  0.00  0.00    +0.000 C 
ATOM     30  H   UNL     1      59.590  62.958  30.325  0.00  0.00    +0.000 HD
ENDBRANCH  23  24
ENDBRANCH  17  18
ENDBRANCH   3  17
TORSDOF 3
