REMARK  Name = 
REMARK  3 active torsions:
REMARK  status: ('A' for Active; 'I' for Inactive)
REMARK    1  A    between atoms: C_1  and  C_11
REMARK    2  A    between atoms: C_5  and  C_14
REMARK    3  A    between atoms: C_18  and  C_20
REMARK                            x       y       z     vdW  Elec       q    Type
REMARK                         _______ _______ _______ _____ _____    ______ ____
ROOT
ATOM      1  C   UNL     1      68.491  59.091  31.881  0.00  0.00    +0.000 A 
ATOM      2  C   UNL     1      69.382  58.434  32.677  0.00  0.00    +0.000 A 
ATOM      3  C   UNL     1      70.718  58.798  32.689  0.00  0.00    +0.000 A 
ATOM      4  C   UNL     1      71.064  59.828  31.875  0.00  0.00    +0.000 A 
ATOM      5  C   UNL     1      70.161  60.496  31.063  0.00  0.00    +0.000 A 
ATOM      6  N   UNL     1      68.895  60.084  31.111  0.00  0.00    +0.000 NA
ENDROOT
BRANCH   5   7
ATOM      7  C   UNL     1      70.392  61.642  30.212  0.00  0.00    +0.000 A 
ATOM      8  C   UNL     1      69.543  62.752  30.356  0.00  0.00    +0.000 A 
ATOM      9  C   UNL     1      69.609  63.904  29.627  0.00  0.00    +0.000 A 
ATOM     10  C   UNL     1      70.577  64.025  28.658  0.00  0.00    +0.000 A 
ATOM     11  C   UNL     1      71.439  62.980  28.459  0.00  0.00    +0.000 A 
ATOM     12  C   UNL     1      72.391  63.068  27.468  0.00  0.00    +0.000 A 
ATOM     13  C   UNL     1      73.276  62.025  27.184  0.00  0.00    +0.000 A 
ATOM     14  C   UNL     1      73.130  60.880  27.977  0.00  0.00    +0.000 A 
ATOM     15  C   UNL     1      72.170  60.825  28.959  0.00  0.00    +0.000 A 
ATOM     16  C   UNL     1      71.314  61.855  29.227  0.00  0.00    +0.000 A 
ENDBRANCH   5   7
BRANCH   1  21
ATOM     17  C   UNL     1      65.170  57.986  30.730  0.00  0.00    +0.000 A 
ATOM     18  C   UNL     1      64.359  57.931  31.880  0.00  0.00    +0.000 A 
ATOM     19  C   UNL     1      65.015  58.289  33.049  0.00  0.00    +0.000 A 
ATOM     20  C   UNL     1      66.336  58.655  33.016  0.00  0.00    +0.000 A 
ATOM     21  C   UNL     1      67.086  58.696  31.880  0.00  0.00    +0.000 A 
ATOM     22  N   UNL     1      66.463  58.349  30.732  0.00  0.00    +0.000 NA
BRANCH  17  27
ATOM     23  C   UNL     1      64.834  57.107  27.186  0.00  0.00    +0.000 A 
ATOM     24  C   UNL     1      63.459  56.957  27.009  0.00  0.00    +0.000 A 
ATOM     25  C   UNL     1      62.671  57.171  28.146  0.00  0.00    +0.000 A 
ATOM     26  N   UNL     1      63.255  57.501  29.333  0.00  0.00    +0.000 NA
ATOM     27  C   UNL     1      64.582  57.629  29.439  0.00  0.00    +0.000 A 
ATOM     28  N   UNL     1      65.358  57.431  28.364  0.00  0.00    +0.000 NA
ATOM     29  N   UNL     1      65.693  56.901  26.058  0.00  0.00    +0.000 N 
ATOM     30  H   UNL     1      65.291  56.650  25.144  0.00  0.00    +0.000 HD
ATOM     31  H   UNL     1      66.713  57.004  26.162  0.00  0.00    +0.000 HD
ENDBRANCH  17  27
ENDBRANCH   1  21
TORSDOF 3
