REMARK  Name = 
REMARK  3 active torsions:
REMARK  status: ('A' for Active; 'I' for Inactive)
REMARK    1  A    between atoms: C_1  and  C_22
REMARK    2  A    between atoms: C_6  and  C_7
REMARK    3  A    between atoms: C_17  and  C_24
REMARK                            x       y       z     vdW  Elec       q    Type
REMARK                         _______ _______ _______ _____ _____    ______ ____
ROOT
ATOM      1  C   UNL     1      60.828  58.844  25.915  0.00  0.00    +0.000 C 
ATOM      2  C   UNL     1      61.168  59.523  24.660  0.00  0.00    +0.000 C 
ATOM      3  C   UNL     1      60.357  60.742  24.319  0.00  0.00    +0.000 C 
ATOM      4  C   UNL     1      59.882  61.519  25.465  0.00  0.00    +0.000 C 
ATOM      5  C   UNL     1      60.327  60.980  26.818  0.00  0.00    +0.000 C 
ATOM      6  C   UNL     1      59.878  59.533  26.851  0.00  0.00    +0.000 C 
ENDROOT
BRANCH   6   7
ATOM      7  C   UNL     1      58.452  59.443  26.581  0.00  0.00    +0.000 A 
ATOM      8  N   UNL     1      57.825  59.322  25.422  0.00  0.00    +0.000 NA
ATOM      9  C   UNL     1      56.564  59.228  25.108  0.00  0.00    +0.000 A 
ATOM     10  N   UNL     1      55.646  59.246  26.060  0.00  0.00    +0.000 NA
ATOM     11  C   UNL     1      56.076  59.364  27.324  0.00  0.00    +0.000 A 
ATOM     12  C   UNL     1      55.132  59.384  28.324  0.00  0.00    +0.000 A 
ATOM     13  C   UNL     1      55.516  59.502  29.622  0.00  0.00    +0.000 A 
ATOM     14  C   UNL     1      56.874  59.602  29.954  0.00  0.00    +0.000 A 
ATOM     15  C   UNL     1      57.751  59.573  28.894  0.00  0.00    +0.000 A 
ATOM     16  C   UNL     1      57.454  59.459  27.561  0.00  0.00    +0.000 A 
ENDBRANCH   6   7
BRANCH   1  22
ATOM     17  C   UNL     1      61.091  56.316  26.222  0.00  0.00    +0.000 A 
ATOM     18  C   UNL     1      60.571  55.067  25.999  0.00  0.00    +0.000 A 
ATOM     19  C   UNL     1      59.386  54.940  25.307  0.00  0.00    +0.000 A 
ATOM     20  C   UNL     1      58.693  56.005  24.825  0.00  0.00    +0.000 A 
ATOM     21  C   UNL     1      59.180  57.256  25.029  0.00  0.00    +0.000 A 
ATOM     22  C   UNL     1      60.381  57.428  25.729  0.00  0.00    +0.000 A 
BRANCH  17  24
ATOM     23  C   UNL     1      63.536  56.956  26.257  0.00  0.00    +0.000 A 
ATOM     24  C   UNL     1      62.317  56.669  26.894  0.00  0.00    +0.000 A 
ATOM     25  C   UNL     1      62.336  56.762  28.298  0.00  0.00    +0.000 A 
ATOM     26  N   UNL     1      63.475  57.109  28.930  0.00  0.00    +0.000 NA
ATOM     27  C   UNL     1      64.637  57.378  28.257  0.00  0.00    +0.000 A 
ATOM     28  N   UNL     1      64.653  57.298  26.929  0.00  0.00    +0.000 NA
ENDBRANCH  17  24
ENDBRANCH   1  22
TORSDOF 3
