REMARK  Name = 
REMARK  5 active torsions:
REMARK  status: ('A' for Active; 'I' for Inactive)
REMARK    1  A    between atoms: C_1  and  N_2
REMARK    2  A    between atoms: C_1  and  C_14
REMARK    3  A    between atoms: C_7  and  C_8
REMARK    4  A    between atoms: C_14  and  C_17
REMARK    5  A    between atoms: C_23  and  C_24
REMARK                            x       y       z     vdW  Elec       q    Type
REMARK                         _______ _______ _______ _____ _____    ______ ____
ROOT
ATOM      1  C   UNL     1      65.080  56.801  26.013  0.00  0.00    +0.000 A 
ATOM      2  C   UNL     1      63.801  56.378  25.574  0.00  0.00    +0.000 A 
ATOM      3  C   UNL     1      62.767  56.331  26.496  0.00  0.00    +0.000 A 
ATOM      4  N   UNL     1      63.048  56.697  27.769  0.00  0.00    +0.000 NA
ATOM      5  C   UNL     1      64.262  57.093  28.165  0.00  0.00    +0.000 A 
ATOM      6  N   UNL     1      65.269  57.149  27.310  0.00  0.00    +0.000 NA
ATOM      7  N   UNL     1      64.524  57.472  29.513  0.00  0.00    +0.000 N 
ATOM      8  C   UNL     1      65.630  56.977  30.099  0.00  0.00    +0.000 A 
ATOM      9  C   UNL     1      65.896  57.333  31.399  0.00  0.00    +0.000 A 
ATOM     10  C   UNL     1      67.098  56.830  32.121  0.00  0.00    +0.000 C 
ATOM     11  C   UNL     1      64.998  58.182  32.014  0.00  0.00    +0.000 A 
ATOM     12  O   UNL     1      65.214  58.529  33.209  0.00  0.00    +0.000 OA
ATOM     13  N   UNL     1      63.882  58.685  31.432  0.00  0.00    +0.000 N 
ATOM     14  C   UNL     1      63.672  58.298  30.145  0.00  0.00    +0.000 A 
ATOM     15  O   UNL     1      62.635  58.769  29.613  0.00  0.00    +0.000 OA
ATOM     16  H   UNL     1      63.238  59.316  31.930  0.00  0.00    +0.000 HD
ENDROOT
BRANCH   3  17
ATOM     17  C   UNL     1      61.442  55.884  26.010  0.00  0.00    +0.000 C 
BRANCH  17  18
ATOM     18  C   UNL     1      60.852  56.831  24.986  0.00  0.00    +0.000 C 
BRANCH  18  19
ATOM     19  N   UNL     1      59.444  56.577  24.832  0.00  0.00    +0.000 NA
ATOM     20  C   UNL     1      59.084  55.218  24.949  0.00  0.00    +0.000 C 
ATOM     21  C   UNL     1      57.595  55.128  24.569  0.00  0.00    +0.000 C 
ATOM     22  O   UNL     1      56.803  55.971  25.332  0.00  0.00    +0.000 OA
ATOM     23  C   UNL     1      57.204  57.278  25.312  0.00  0.00    +0.000 C 
ATOM     24  C   UNL     1      58.640  57.413  25.742  0.00  0.00    +0.000 C 
BRANCH  24  25
ATOM     25  C   UNL     1      59.101  58.808  25.728  0.00  0.00    +0.000 A 
ATOM     26  C   UNL     1      59.872  59.426  26.709  0.00  0.00    +0.000 A 
ATOM     27  C   UNL     1      60.207  60.749  26.548  0.00  0.00    +0.000 A 
ATOM     28  N   UNL     1      59.811  61.481  25.466  0.00  0.00    +0.000 NA
ATOM     29  C   UNL     1      59.069  60.847  24.543  0.00  0.00    +0.000 A 
ATOM     30  N   UNL     1      58.709  59.550  24.646  0.00  0.00    +0.000 NA
ENDBRANCH  24  25
ENDBRANCH  18  19
ENDBRANCH  17  18
ENDBRANCH   3  17
TORSDOF 4
