REMARK  Name = 
REMARK  2 active torsions:
REMARK  status: ('A' for Active; 'I' for Inactive)
REMARK    1  A    between atoms: N_1  and  C_16
REMARK    2  A    between atoms: C_5  and  C_6
REMARK                            x       y       z     vdW  Elec       q    Type
REMARK                         _______ _______ _______ _____ _____    ______ ____
ROOT
ATOM      1  N   UNL     1      61.423  56.925  26.315  0.00  0.00    +0.000 N 
ATOM      2  C   UNL     1      60.899  55.603  25.995  0.00  0.00    +0.000 C 
ATOM      3  C   UNL     1      59.928  55.842  24.881  0.00  0.00    +0.000 C 
ATOM      4  C   UNL     1      59.344  57.191  25.295  0.00  0.00    +0.000 C 
ATOM      5  C   UNL     1      60.747  57.902  25.575  0.00  0.00    +0.000 C 
ENDROOT
BRANCH   1   7
ATOM      6  C   UNL     1      63.814  57.093  26.914  0.00  0.00    +0.000 A 
ATOM      7  C   UNL     1      62.443  57.170  27.254  0.00  0.00    +0.000 A 
ATOM      8  C   UNL     1      62.189  57.519  28.565  0.00  0.00    +0.000 A 
ATOM      9  N   UNL     1      63.184  57.764  29.429  0.00  0.00    +0.000 NA
ATOM     10  C   UNL     1      64.458  57.678  29.053  0.00  0.00    +0.000 A 
ATOM     11  N   UNL     1      64.791  57.344  27.806  0.00  0.00    +0.000 NA
ATOM     12  N   UNL     1      65.484  57.947  30.001  0.00  0.00    +0.000 N 
ATOM     13  C   UNL     1      66.477  56.954  30.363  0.00  0.00    +0.000 C 
ATOM     14  C   UNL     1      66.799  57.136  31.845  0.00  0.00    +0.000 C 
ATOM     15  N   UNL     1      65.620  57.627  32.509  0.00  0.00    +0.000 NA
ATOM     16  C   UNL     1      65.317  58.998  32.147  0.00  0.00    +0.000 C 
ATOM     17  C   UNL     1      65.608  59.229  30.668  0.00  0.00    +0.000 C 
ATOM     18  H   UNL     1      64.821  57.031  32.249  0.00  0.00    +0.000 HD
ENDBRANCH   1   7
BRANCH   5  19
ATOM     19  C   UNL     1      60.464  59.191  26.188  0.00  0.00    +0.000 A 
ATOM     20  C   UNL     1      60.841  59.824  27.331  0.00  0.00    +0.000 A 
ATOM     21  N   UNL     1      60.364  61.070  27.440  0.00  0.00    +0.000 N 
ATOM     22  C   UNL     1      59.638  61.289  26.341  0.00  0.00    +0.000 A 
ATOM     23  C   UNL     1      58.888  62.402  25.988  0.00  0.00    +0.000 A 
ATOM     24  C   UNL     1      58.154  62.430  24.838  0.00  0.00    +0.000 A 
ATOM     25  C   UNL     1      58.183  61.325  24.044  0.00  0.00    +0.000 A 
ATOM     26  C   UNL     1      58.930  60.203  24.384  0.00  0.00    +0.000 A 
ATOM     27  C   UNL     1      59.679  60.168  25.557  0.00  0.00    +0.000 A 
ATOM     28  H   UNL     1      60.525  61.728  28.216  0.00  0.00    +0.000 HD
ENDBRANCH   5  19
TORSDOF 2
