REMARK  Name = 
REMARK  3 active torsions:
REMARK  status: ('A' for Active; 'I' for Inactive)
REMARK    1  A    between atoms: C_3  and  C_7
REMARK    2  A    between atoms: C_5  and  C_17
REMARK    3  A    between atoms: C_20  and  N_22
REMARK                            x       y       z     vdW  Elec       q    Type
REMARK                         _______ _______ _______ _____ _____    ______ ____
ROOT
ATOM      1  C   UNL     1      65.232  56.692  25.775  0.00  0.00    +0.000 A 
ATOM      2  C   UNL     1      63.935  56.421  25.331  0.00  0.00    +0.000 A 
ATOM      3  C   UNL     1      62.881  56.467  26.227  0.00  0.00    +0.000 A 
ATOM      4  N   UNL     1      63.173  56.777  27.513  0.00  0.00    +0.000 NA
ATOM      5  C   UNL     1      64.400  57.034  27.943  0.00  0.00    +0.000 A 
ATOM      6  N   UNL     1      65.397  56.988  27.077  0.00  0.00    +0.000 NA
ENDROOT
BRANCH   3   7
ATOM      7  C   UNL     1      61.528  56.056  26.010  0.00  0.00    +0.000 C 
ATOM      8  N   UNL     1      60.358  55.700  25.823  0.00  0.00    +0.000 NA
ATOM      9  C   UNL     1      59.212  55.292  25.664  0.00  0.00    +0.000 C 
ATOM     10  N   UNL     1      58.781  56.415  25.085  0.00  0.00    +0.000 N 
ATOM     11  C   UNL     1      59.671  57.442  24.925  0.00  0.00    +0.000 A 
ATOM     12  C   UNL     1      59.071  58.599  24.359  0.00  0.00    +0.000 A 
ATOM     13  C   UNL     1      59.890  59.687  24.245  0.00  0.00    +0.000 A 
ATOM     14  C   UNL     1      61.208  59.756  24.622  0.00  0.00    +0.000 A 
ATOM     15  C   UNL     1      61.613  58.548  25.144  0.00  0.00    +0.000 A 
ATOM     16  C   UNL     1      61.007  57.263  25.379  0.00  0.00    +0.000 A 
ATOM     17  H   UNL     1      60.009  56.529  26.325  0.00  0.00    +0.000 HD
ATOM     18  H   UNL     1      57.805  56.506  24.767  0.00  0.00    +0.000 HD
ENDBRANCH   3   7
BRANCH   5  19
ATOM     19  C   UNL     1      64.633  57.373  29.334  0.00  0.00    +0.000 A 
ATOM     20  C   UNL     1      63.748  58.002  30.202  0.00  0.00    +0.000 A 
ATOM     21  C   UNL     1      64.194  58.223  31.483  0.00  0.00    +0.000 A 
ATOM     22  C   UNL     1      65.463  57.810  31.801  0.00  0.00    +0.000 A 
ATOM     23  S   UNL     1      66.056  57.096  30.282  0.00  0.00    +0.000 S 
BRANCH  22  24
ATOM     24  N   UNL     1      66.165  57.908  33.010  0.00  0.00    +0.000 N 
ATOM     25  C   UNL     1      67.416  57.321  33.188  0.00  0.00    +0.000 C 
ATOM     26  N   UNL     1      67.693  56.173  32.688  0.00  0.00    +0.000 NA
ATOM     27  N   UNL     1      68.406  58.034  33.953  0.00  0.00    +0.000 N 
ATOM     28  H   UNL     1      67.032  55.615  32.137  0.00  0.00    +0.000 HD
ATOM     29  H   UNL     1      65.743  58.430  33.791  0.00  0.00    +0.000 HD
ATOM     30  H   UNL     1      69.339  57.622  34.099  0.00  0.00    +0.000 HD
ATOM     31  H   UNL     1      68.181  58.956  34.354  0.00  0.00    +0.000 HD
ENDBRANCH  22  24
ENDBRANCH   5  19
TORSDOF 3
