REMARK  Name = 
REMARK  4 active torsions:
REMARK  status: ('A' for Active; 'I' for Inactive)
REMARK    1  A    between atoms: C_3  and  C_17
REMARK    2  A    between atoms: C_5  and  C_7
REMARK    3  A    between atoms: C_10  and  N_12
REMARK    4  A    between atoms: C_20  and  N_22
REMARK                            x       y       z     vdW  Elec       q    Type
REMARK                         _______ _______ _______ _____ _____    ______ ____
ROOT
ATOM      1  C   UNL     1      65.285  56.726  25.939  0.00  0.00    +0.000 A 
ATOM      2  C   UNL     1      63.955  56.642  25.467  0.00  0.00    +0.000 A 
ATOM      3  C   UNL     1      62.927  56.827  26.341  0.00  0.00    +0.000 A 
ATOM      4  N   UNL     1      63.230  57.088  27.654  0.00  0.00    +0.000 NA
ATOM      5  C   UNL     1      64.494  57.162  28.079  0.00  0.00    +0.000 A 
ATOM      6  N   UNL     1      65.528  56.989  27.256  0.00  0.00    +0.000 NA
ENDROOT
BRANCH   5   7
ATOM      7  C   UNL     1      64.722  57.451  29.509  0.00  0.00    +0.000 A 
ATOM      8  C   UNL     1      63.876  58.046  30.407  0.00  0.00    +0.000 A 
ATOM      9  C   UNL     1      64.327  58.202  31.687  0.00  0.00    +0.000 A 
ATOM     10  C   UNL     1      65.602  57.749  31.970  0.00  0.00    +0.000 A 
ATOM     11  S   UNL     1      66.162  57.101  30.433  0.00  0.00    +0.000 S 
BRANCH  10  12
ATOM     12  N   UNL     1      66.320  57.777  33.176  0.00  0.00    +0.000 N 
ATOM     13  C   UNL     1      67.546  57.136  33.325  0.00  0.00    +0.000 C 
ATOM     14  N   UNL     1      67.800  56.020  32.777  0.00  0.00    +0.000 NA
ATOM     15  N   UNL     1      68.543  57.779  34.129  0.00  0.00    +0.000 N 
ATOM     16  H   UNL     1      67.111  55.495  32.218  0.00  0.00    +0.000 HD
ATOM     17  H   UNL     1      65.926  58.289  33.978  0.00  0.00    +0.000 HD
ATOM     18  H   UNL     1      69.463  57.335  34.262  0.00  0.00    +0.000 HD
ATOM     19  H   UNL     1      68.340  58.686  34.574  0.00  0.00    +0.000 HD
ENDBRANCH  10  12
ENDBRANCH   5   7
BRANCH   3  20
ATOM     20  C   UNL     1      61.536  56.763  25.911  0.00  0.00    +0.000 A 
ATOM     21  C   UNL     1      60.718  55.675  25.990  0.00  0.00    +0.000 A 
ATOM     22  C   UNL     1      59.486  56.054  25.474  0.00  0.00    +0.000 A 
ATOM     23  C   UNL     1      59.627  57.384  25.103  0.00  0.00    +0.000 A 
ATOM     24  O   UNL     1      60.865  57.748  25.386  0.00  0.00    +0.000 OA
BRANCH  23  25
ATOM     25  N   UNL     1      58.907  58.495  24.527  0.00  0.00    +0.000 N 
ATOM     26  C   UNL     1      59.382  59.881  24.531  0.00  0.00    +0.000 C 
ATOM     27  C   UNL     1      58.353  60.652  23.697  0.00  0.00    +0.000 C 
ATOM     28  O   UNL     1      58.209  60.013  22.450  0.00  0.00    +0.000 OA
ATOM     29  C   UNL     1      57.473  58.840  22.547  0.00  0.00    +0.000 C 
ATOM     30  C   UNL     1      57.616  58.258  23.909  0.00  0.00    +0.000 C 
ENDBRANCH  23  25
ENDBRANCH   3  20
TORSDOF 4
