REMARK  Name = 
REMARK  4 active torsions:
REMARK  status: ('A' for Active; 'I' for Inactive)
REMARK    1  A    between atoms: C_1  and  O_15
REMARK    2  A    between atoms: C_4  and  C_6
REMARK    3  A    between atoms: O_15  and  C_16
REMARK    4  A    between atoms: C_16  and  C_20
REMARK                            x       y       z     vdW  Elec       q    Type
REMARK                         _______ _______ _______ _____ _____    ______ ____
ROOT
ATOM      1  C   UNL     1      61.559  56.639  26.201  0.00  0.00    +0.000 C 
ATOM      2  O   UNL     1      61.250  55.609  25.581  0.00  0.00    +0.000 OA
ENDROOT
BRANCH   1   5
ATOM      3  C   UNL     1      65.300  56.940  26.191  0.00  0.00    +0.000 A 
ATOM      4  C   UNL     1      63.966  56.762  25.751  0.00  0.00    +0.000 A 
ATOM      5  C   UNL     1      62.929  56.819  26.639  0.00  0.00    +0.000 A 
ATOM      6  N   UNL     1      63.231  57.050  27.941  0.00  0.00    +0.000 NA
ATOM      7  C   UNL     1      64.504  57.219  28.355  0.00  0.00    +0.000 A 
ATOM      8  N   UNL     1      65.522  57.165  27.501  0.00  0.00    +0.000 NA
ATOM      9  N   UNL     1      64.758  57.459  29.734  0.00  0.00    +0.000 N 
ATOM     10  C   UNL     1      65.793  56.925  30.396  0.00  0.00    +0.000 A 
ATOM     11  C   UNL     1      65.999  57.192  31.753  0.00  0.00    +0.000 A 
ATOM     12  C   UNL     1      65.105  58.022  32.396  0.00  0.00    +0.000 A 
ATOM     13  O   UNL     1      65.220  58.314  33.625  0.00  0.00    +0.000 OA
ATOM     14  N   UNL     1      64.054  58.574  31.760  0.00  0.00    +0.000 N 
ATOM     15  C   UNL     1      63.948  58.253  30.454  0.00  0.00    +0.000 A 
ATOM     16  O   UNL     1      62.962  58.762  29.823  0.00  0.00    +0.000 OA
ATOM     17  H   UNL     1      63.382  59.194  32.235  0.00  0.00    +0.000 HD
ENDBRANCH   1   5
BRANCH   1  18
ATOM     18  O   UNL     1      60.633  57.654  26.505  0.00  0.00    +0.000 OA
BRANCH  18  19
ATOM     19  C   UNL     1      60.240  58.476  25.432  0.00  0.00    +0.000 A 
ATOM     20  C   UNL     1      61.061  59.268  24.659  0.00  0.00    +0.000 A 
ATOM     21  C   UNL     1      60.276  59.921  23.703  0.00  0.00    +0.000 A 
ATOM     22  C   UNL     1      58.994  59.469  23.968  0.00  0.00    +0.000 A 
ATOM     23  O   UNL     1      59.033  58.650  24.960  0.00  0.00    +0.000 OA
BRANCH  22  24
ATOM     24  C   UNL     1      57.830  59.900  23.197  0.00  0.00    +0.000 A 
ATOM     25  C   UNL     1      57.128  59.207  22.228  0.00  0.00    +0.000 A 
ATOM     26  N   UNL     1      56.133  59.956  21.771  0.00  0.00    +0.000 N 
ATOM     27  C   UNL     1      56.136  61.132  22.396  0.00  0.00    +0.000 A 
ATOM     28  C   UNL     1      55.305  62.218  22.258  0.00  0.00    +0.000 A 
ATOM     29  C   UNL     1      55.562  63.313  23.060  0.00  0.00    +0.000 A 
ATOM     30  C   UNL     1      56.594  63.381  23.980  0.00  0.00    +0.000 A 
ATOM     31  C   UNL     1      57.391  62.250  24.066  0.00  0.00    +0.000 A 
ATOM     32  C   UNL     1      57.203  61.124  23.308  0.00  0.00    +0.000 A 
ATOM     33  H   UNL     1      55.461  59.672  21.044  0.00  0.00    +0.000 HD
ENDBRANCH  22  24
ENDBRANCH  18  19
ENDBRANCH   1  18
TORSDOF 4
