REMARK  Name = 
REMARK  4 active torsions:
REMARK  status: ('A' for Active; 'I' for Inactive)
REMARK    1  A    between atoms: C_1  and  N_2
REMARK    2  A    between atoms: C_1  and  C_13
REMARK    3  A    between atoms: C_5  and  C_7
REMARK    4  A    between atoms: C_13  and  C_14
REMARK                            x       y       z     vdW  Elec       q    Type
REMARK                         _______ _______ _______ _____ _____    ______ ____
ROOT
ATOM      1  C   UNL     1      62.192  56.000  25.936  0.00  0.00    +0.000 C 
ENDROOT
BRANCH   1   2
ATOM      2  C   UNL     1      61.065  56.901  25.558  0.00  0.00    +0.000 A 
ATOM      3  C   UNL     1      61.225  58.288  25.410  0.00  0.00    +0.000 A 
ATOM      4  C   UNL     1      60.091  59.011  25.055  0.00  0.00    +0.000 A 
ATOM      5  N   UNL     1      58.920  58.382  24.870  0.00  0.00    +0.000 NA
ATOM      6  C   UNL     1      58.806  57.049  25.021  0.00  0.00    +0.000 A 
ATOM      7  N   UNL     1      59.882  56.295  25.368  0.00  0.00    +0.000 NA
ATOM      8  N   UNL     1      57.566  56.345  24.831  0.00  0.00    +0.000 N 
ATOM      9  C   UNL     1      56.934  55.569  25.883  0.00  0.00    +0.000 C 
ATOM     10  C   UNL     1      56.746  54.169  25.336  0.00  0.00    +0.000 C 
ATOM     11  N   UNL     1      57.222  54.010  23.988  0.00  0.00    +0.000 NA
ATOM     12  C   UNL     1      56.704  54.988  23.059  0.00  0.00    +0.000 C 
ATOM     13  C   UNL     1      56.908  56.401  23.539  0.00  0.00    +0.000 C 
ATOM     14  H   UNL     1      58.249  54.085  23.997  0.00  0.00    +0.000 HD
ENDBRANCH   1   2
BRANCH   1  15
ATOM     15  C   UNL     1      62.144  55.877  27.450  0.00  0.00    +0.000 C 
BRANCH  15  16
ATOM     16  N   UNL     1      63.272  56.496  28.096  0.00  0.00    +0.000 NA
ATOM     17  C   UNL     1      64.208  57.123  27.368  0.00  0.00    +0.000 C 
ATOM     18  N   UNL     1      65.213  57.464  28.160  0.00  0.00    +0.000 NA
ATOM     19  C   UNL     1      64.800  57.260  29.435  0.00  0.00    +0.000 C 
ATOM     20  N   UNL     1      63.615  56.643  29.362  0.00  0.00    +0.000 N 
ATOM     21  H   UNL     1      63.057  56.331  30.169  0.00  0.00    +0.000 HD
BRANCH  19  22
ATOM     22  C   UNL     1      65.241  57.502  30.829  0.00  0.00    +0.000 A 
ATOM     23  C   UNL     1      64.493  58.143  31.797  0.00  0.00    +0.000 A 
ATOM     24  C   UNL     1      65.022  58.302  33.055  0.00  0.00    +0.000 A 
ATOM     25  C   UNL     1      66.298  57.806  33.300  0.00  0.00    +0.000 A 
ATOM     26  C   UNL     1      67.068  57.156  32.337  0.00  0.00    +0.000 A 
ATOM     27  C   UNL     1      66.507  57.009  31.071  0.00  0.00    +0.000 A 
ENDBRANCH  19  22
ENDBRANCH  15  16
ENDBRANCH   1  15
TORSDOF 4
