REMARK  Name = 
REMARK  3 active torsions:
REMARK  status: ('A' for Active; 'I' for Inactive)
REMARK    1  A    between atoms: C_1  and  O_13
REMARK    2  A    between atoms: O_13  and  C_14
REMARK    3  A    between atoms: C_18  and  C_28
REMARK                            x       y       z     vdW  Elec       q    Type
REMARK                         _______ _______ _______ _____ _____    ______ ____
ROOT
ATOM      1  C   UNL     1      63.466  59.144  30.163  0.00  0.00    +0.000 A 
ATOM      2  C   UNL     1      64.286  58.307  30.904  0.00  0.00    +0.000 A 
ATOM      3  C   UNL     1      65.483  58.753  31.449  0.00  0.00    +0.000 A 
ATOM      4  N   UNL     1      65.824  60.050  31.226  0.00  0.00    +0.000 NA
ATOM      5  C   UNL     1      65.035  60.861  30.511  0.00  0.00    +0.000 A 
ATOM      6  N   UNL     1      63.882  60.420  29.991  0.00  0.00    +0.000 NA
ATOM      7  N   UNL     1      66.302  57.864  32.206  0.00  0.00    +0.000 N 
ATOM      8  C   UNL     1      66.472  58.191  33.516  0.00  0.00    +0.000 A 
ATOM      9  C   UNL     1      67.259  57.377  34.335  0.00  0.00    +0.000 A 
ATOM     10  C   UNL     1      67.810  56.276  33.711  0.00  0.00    +0.000 A 
ATOM     11  O   UNL     1      68.524  55.554  34.485  0.00  0.00    +0.000 OA
ATOM     12  N   UNL     1      67.648  55.945  32.416  0.00  0.00    +0.000 N 
ATOM     13  C   UNL     1      66.869  56.772  31.658  0.00  0.00    +0.000 A 
ATOM     14  O   UNL     1      66.692  56.499  30.443  0.00  0.00    +0.000 OA
ATOM     15  H   UNL     1      68.091  55.106  32.015  0.00  0.00    +0.000 HD
ENDROOT
BRANCH   5  16
ATOM     16  C   UNL     1      65.386  62.273  30.259  0.00  0.00    +0.000 C 
ATOM     17  F   UNL     1      64.286  63.072  30.014  0.00  0.00    +0.000 F 
ATOM     18  F   UNL     1      66.229  62.410  29.160  0.00  0.00    +0.000 F 
ATOM     19  F   UNL     1      66.158  62.734  31.325  0.00  0.00    +0.000 F 
ENDBRANCH   5  16
BRANCH   1  20
ATOM     20  O   UNL     1      62.310  58.566  29.683  0.00  0.00    +0.000 OA
BRANCH  20  21
ATOM     21  C   UNL     1      62.142  57.941  28.472  0.00  0.00    +0.000 A 
ATOM     22  C   UNL     1      62.717  56.686  28.335  0.00  0.00    +0.000 A 
ATOM     23  C   UNL     1      62.551  56.037  27.096  0.00  0.00    +0.000 A 
ATOM     24  N   UNL     1      61.844  56.656  26.100  0.00  0.00    +0.000 NA
ATOM     25  C   UNL     1      61.309  57.874  26.292  0.00  0.00    +0.000 A 
ATOM     26  N   UNL     1      61.451  58.523  27.470  0.00  0.00    +0.000 NA
ATOM     27  N   UNL     1      60.570  58.509  25.233  0.00  0.00    +0.000 N 
ATOM     28  C   UNL     1      60.576  59.957  25.112  0.00  0.00    +0.000 C 
ATOM     29  C   UNL     1      59.423  60.502  24.358  0.00  0.00    +0.000 C 
ATOM     30  N   UNL     1      58.948  59.726  23.269  0.00  0.00    +0.000 NA
ATOM     31  C   UNL     1      59.678  58.501  23.032  0.00  0.00    +0.000 C 
ATOM     32  C   UNL     1      59.827  57.692  24.303  0.00  0.00    +0.000 C 
ATOM     33  H   UNL     1      57.965  59.482  23.455  0.00  0.00    +0.000 HD
ENDBRANCH  20  21
ENDBRANCH   1  20
TORSDOF 3
