REMARK  Name = 
REMARK  3 active torsions:
REMARK  status: ('A' for Active; 'I' for Inactive)
REMARK    1  A    between atoms: C_1  and  O_13
REMARK    2  A    between atoms: O_13  and  C_14
REMARK    3  A    between atoms: C_18  and  C_25
REMARK                            x       y       z     vdW  Elec       q    Type
REMARK                         _______ _______ _______ _____ _____    ______ ____
ROOT
ATOM      1  C   UNL     1      64.207  58.191  30.282  0.00  0.00    +0.000 A 
ATOM      2  C   UNL     1      65.073  57.608  31.175  0.00  0.00    +0.000 A 
ATOM      3  C   UNL     1      65.912  58.391  31.982  0.00  0.00    +0.000 A 
ATOM      4  N   UNL     1      65.833  59.735  31.846  0.00  0.00    +0.000 NA
ATOM      5  C   UNL     1      64.991  60.298  30.978  0.00  0.00    +0.000 A 
ATOM      6  N   UNL     1      64.194  59.544  30.212  0.00  0.00    +0.000 NA
ATOM      7  N   UNL     1      66.814  57.826  32.911  0.00  0.00    +0.000 N 
ATOM      8  C   UNL     1      67.621  56.722  32.542  0.00  0.00    +0.000 C 
ATOM      9  N   UNL     1      67.174  55.984  31.561  0.00  0.00    +0.000 NA
ATOM     10  N   UNL     1      68.846  56.432  33.202  0.00  0.00    +0.000 N 
ATOM     11  H   UNL     1      67.670  55.154  31.201  0.00  0.00    +0.000 HD
ATOM     12  H   UNL     1      66.885  58.218  33.861  0.00  0.00    +0.000 HD
ATOM     13  H   UNL     1      69.409  55.621  32.909  0.00  0.00    +0.000 HD
ATOM     14  H   UNL     1      69.170  57.033  33.973  0.00  0.00    +0.000 HD
ENDROOT
BRANCH   5  15
ATOM     15  C   UNL     1      64.893  61.770  30.817  0.00  0.00    +0.000 C 
ATOM     16  F   UNL     1      63.759  62.156  30.148  0.00  0.00    +0.000 F 
ATOM     17  F   UNL     1      65.976  62.291  30.125  0.00  0.00    +0.000 F 
ATOM     18  F   UNL     1      64.993  62.342  32.094  0.00  0.00    +0.000 F 
ENDBRANCH   5  15
BRANCH   1  19
ATOM     19  O   UNL     1      63.446  57.320  29.558  0.00  0.00    +0.000 OA
BRANCH  19  20
ATOM     20  C   UNL     1      62.981  57.486  28.267  0.00  0.00    +0.000 A 
ATOM     21  C   UNL     1      63.805  56.971  27.255  0.00  0.00    +0.000 A 
ATOM     22  C   UNL     1      63.360  57.124  25.927  0.00  0.00    +0.000 A 
ATOM     23  N   UNL     1      62.172  57.754  25.690  0.00  0.00    +0.000 NA
ATOM     24  C   UNL     1      61.413  58.234  26.704  0.00  0.00    +0.000 A 
ATOM     25  N   UNL     1      61.829  58.093  27.975  0.00  0.00    +0.000 NA
ATOM     26  N   UNL     1      60.168  58.892  26.432  0.00  0.00    +0.000 N 
ATOM     27  C   UNL     1      59.684  59.927  27.323  0.00  0.00    +0.000 C 
ATOM     28  C   UNL     1      58.242  60.198  27.249  0.00  0.00    +0.000 C 
ATOM     29  N   UNL     1      57.611  60.009  25.986  0.00  0.00    +0.000 NA
ATOM     30  C   UNL     1      58.511  59.683  24.921  0.00  0.00    +0.000 C 
ATOM     31  C   UNL     1      59.408  58.513  25.269  0.00  0.00    +0.000 C 
ATOM     32  H   UNL     1      56.929  59.243  26.078  0.00  0.00    +0.000 HD
ENDBRANCH  19  20
ENDBRANCH   1  19
TORSDOF 3
