REMARK  Name = 
REMARK  4 active torsions:
REMARK  status: ('A' for Active; 'I' for Inactive)
REMARK    1  A    between atoms: C_1  and  C_8
REMARK    2  A    between atoms: C_5  and  N_15
REMARK    3  A    between atoms: C_6  and  C_13
REMARK    4  A    between atoms: C_18  and  C_20
REMARK                            x       y       z     vdW  Elec       q    Type
REMARK                         _______ _______ _______ _____ _____    ______ ____
ROOT
ATOM      1  N   UNL     1      66.082  60.527  31.357  0.00  0.00    +0.000 NA
ATOM      2  C   UNL     1      64.864  60.977  31.060  0.00  0.00    +0.000 C 
ATOM      3  N   UNL     1      64.974  61.951  30.127  0.00  0.00    +0.000 NA
ATOM      4  C   UNL     1      66.244  62.112  29.838  0.00  0.00    +0.000 C 
ATOM      5  N   UNL     1      66.899  61.241  30.595  0.00  0.00    +0.000 N 
ATOM      6  H   UNL     1      67.923  61.132  30.591  0.00  0.00    +0.000 HD
ENDROOT
BRANCH   4   7
ATOM      7  C   UNL     1      67.066  62.944  28.957  0.00  0.00    +0.000 A 
ATOM      8  C   UNL     1      66.571  63.817  27.981  0.00  0.00    +0.000 A 
ATOM      9  C   UNL     1      67.371  64.584  27.172  0.00  0.00    +0.000 A 
ATOM     10  C   UNL     1      68.741  64.530  27.286  0.00  0.00    +0.000 A 
ATOM     11  C   UNL     1      69.287  63.688  28.230  0.00  0.00    +0.000 A 
ATOM     12  C   UNL     1      70.650  63.670  28.304  0.00  0.00    +0.000 A 
ATOM     13  C   UNL     1      71.280  62.862  29.214  0.00  0.00    +0.000 A 
ATOM     14  C   UNL     1      70.485  62.086  30.034  0.00  0.00    +0.000 A 
ATOM     15  C   UNL     1      69.130  62.147  29.913  0.00  0.00    +0.000 A 
ATOM     16  C   UNL     1      68.441  62.938  29.019  0.00  0.00    +0.000 A 
ENDBRANCH   4   7
BRANCH   1  21
ATOM     17  C   UNL     1      65.441  58.494  32.424  0.00  0.00    +0.000 C 
ATOM     18  C   UNL     1      65.798  57.794  33.716  0.00  0.00    +0.000 C 
ATOM     19  C   UNL     1      66.301  58.917  34.601  0.00  0.00    +0.000 C 
ATOM     20  C   UNL     1      66.534  60.094  33.674  0.00  0.00    +0.000 C 
ATOM     21  C   UNL     1      66.517  59.481  32.287  0.00  0.00    +0.000 C 
BRANCH  17  24
ATOM     22  C   UNL     1      65.661  57.785  29.965  0.00  0.00    +0.000 C 
ATOM     23  C   UNL     1      66.417  56.837  30.807  0.00  0.00    +0.000 C 
ATOM     24  C   UNL     1      65.270  57.551  31.237  0.00  0.00    +0.000 C 
BRANCH  22  29
ATOM     25  C   UNL     1      64.272  56.959  26.623  0.00  0.00    +0.000 A 
ATOM     26  C   UNL     1      62.954  56.521  26.956  0.00  0.00    +0.000 A 
ATOM     27  C   UNL     1      62.615  56.530  28.314  0.00  0.00    +0.000 A 
ATOM     28  N   UNL     1      63.532  56.942  29.218  0.00  0.00    +0.000 NA
ATOM     29  C   UNL     1      64.780  57.353  28.851  0.00  0.00    +0.000 A 
ATOM     30  N   UNL     1      65.143  57.358  27.555  0.00  0.00    +0.000 NA
ENDBRANCH  22  29
ENDBRANCH  17  24
ENDBRANCH   1  21
TORSDOF 4
