REMARK  Name = 
REMARK  4 active torsions:
REMARK  status: ('A' for Active; 'I' for Inactive)
REMARK    1  A    between atoms: C_1  and  N_2
REMARK    2  A    between atoms: C_1  and  C_13
REMARK    3  A    between atoms: C_5  and  C_7
REMARK    4  A    between atoms: C_13  and  C_14
REMARK                            x       y       z     vdW  Elec       q    Type
REMARK                         _______ _______ _______ _____ _____    ______ ____
ROOT
ATOM      1  C   UNL     1      62.134  55.863  27.476  0.00  0.00    +0.000 C 
ENDROOT
BRANCH   1   2
ATOM      2  N   UNL     1      63.292  56.470  28.099  0.00  0.00    +0.000 NA
ATOM      3  C   UNL     1      64.181  57.153  27.385  0.00  0.00    +0.000 C 
ATOM      4  N   UNL     1      65.194  57.498  28.166  0.00  0.00    +0.000 NA
ATOM      5  C   UNL     1      64.792  57.277  29.446  0.00  0.00    +0.000 C 
ATOM      6  N   UNL     1      63.612  56.635  29.371  0.00  0.00    +0.000 NA
ATOM      7  H   UNL     1      66.021  56.924  27.949  0.00  0.00    +0.000 HD
ATOM      8  H   UNL     1      62.885  57.193  29.840  0.00  0.00    +0.000 HD
BRANCH   5   9
ATOM      9  C   UNL     1      65.233  57.516  30.843  0.00  0.00    +0.000 A 
ATOM     10  C   UNL     1      64.501  58.146  31.808  0.00  0.00    +0.000 A 
ATOM     11  C   UNL     1      65.038  58.299  33.065  0.00  0.00    +0.000 A 
ATOM     12  C   UNL     1      66.299  57.807  33.301  0.00  0.00    +0.000 A 
ATOM     13  C   UNL     1      67.057  57.167  32.342  0.00  0.00    +0.000 A 
ATOM     14  C   UNL     1      66.501  57.015  31.061  0.00  0.00    +0.000 A 
ENDBRANCH   5   9
ENDBRANCH   1   2
BRANCH   1  15
ATOM     15  C   UNL     1      62.184  55.958  25.965  0.00  0.00    +0.000 C 
BRANCH  15  16
ATOM     16  C   UNL     1      60.860  56.461  25.525  0.00  0.00    +0.000 A 
ATOM     17  C   UNL     1      60.518  57.832  25.482  0.00  0.00    +0.000 A 
ATOM     18  C   UNL     1      59.244  58.142  25.049  0.00  0.00    +0.000 A 
ATOM     19  N   UNL     1      58.400  57.160  24.692  0.00  0.00    +0.000 NA
ATOM     20  C   UNL     1      58.752  55.870  24.742  0.00  0.00    +0.000 A 
ATOM     21  N   UNL     1      59.986  55.499  25.158  0.00  0.00    +0.000 NA
ATOM     22  N   UNL     1      57.835  54.851  24.357  0.00  0.00    +0.000 N 
ATOM     23  C   UNL     1      56.468  54.936  23.877  0.00  0.00    +0.000 C 
ATOM     24  C   UNL     1      55.780  53.821  24.648  0.00  0.00    +0.000 C 
ATOM     25  C   UNL     1      56.895  52.922  25.159  0.00  0.00    +0.000 C 
ATOM     26  C   UNL     1      58.084  53.421  24.363  0.00  0.00    +0.000 C 
ENDBRANCH  15  16
ENDBRANCH   1  15
TORSDOF 4
