REMARK  Name = 
REMARK  5 active torsions:
REMARK  status: ('A' for Active; 'I' for Inactive)
REMARK    1  A    between atoms: C_1  and  N_2
REMARK    2  A    between atoms: C_1  and  C_13
REMARK    3  A    between atoms: C_5  and  C_7
REMARK    4  A    between atoms: C_13  and  C_14
REMARK    5  A    between atoms: C_18  and  C_20
REMARK                            x       y       z     vdW  Elec       q    Type
REMARK                         _______ _______ _______ _____ _____    ______ ____
ROOT
ATOM      1  C   UNL     1      62.555  57.206  28.174  0.00  0.00    +0.000 C 
ENDROOT
BRANCH   1   2
ATOM      2  N   UNL     1      63.780  57.304  28.940  0.00  0.00    +0.000 NA
ATOM      3  C   UNL     1      64.966  57.230  28.339  0.00  0.00    +0.000 C 
ATOM      4  N   UNL     1      65.911  57.108  29.252  0.00  0.00    +0.000 NA
ATOM      5  C   UNL     1      65.331  57.333  30.455  0.00  0.00    +0.000 C 
ATOM      6  N   UNL     1      64.009  57.394  30.237  0.00  0.00    +0.000 N 
ATOM      7  H   UNL     1      63.288  57.495  30.965  0.00  0.00    +0.000 HD
BRANCH   5   8
ATOM      8  C   UNL     1      65.685  57.526  31.881  0.00  0.00    +0.000 A 
ATOM      9  C   UNL     1      64.933  58.232  32.800  0.00  0.00    +0.000 A 
ATOM     10  C   UNL     1      65.400  58.321  34.097  0.00  0.00    +0.000 A 
ATOM     11  C   UNL     1      66.586  57.709  34.426  0.00  0.00    +0.000 A 
ATOM     12  C   UNL     1      67.352  56.996  33.512  0.00  0.00    +0.000 A 
ATOM     13  C   UNL     1      66.876  56.908  32.198  0.00  0.00    +0.000 A 
ENDBRANCH   5   8
ENDBRANCH   1   2
BRANCH   1  14
ATOM     14  C   UNL     1      62.813  57.070  26.681  0.00  0.00    +0.000 C 
BRANCH  14  15
ATOM     15  C   UNL     1      61.533  57.405  26.004  0.00  0.00    +0.000 A 
ATOM     16  C   UNL     1      61.270  58.677  25.489  0.00  0.00    +0.000 A 
ATOM     17  C   UNL     1      60.031  58.872  24.874  0.00  0.00    +0.000 A 
ATOM     18  N   UNL     1      59.157  57.841  24.807  0.00  0.00    +0.000 NA
ATOM     19  C   UNL     1      59.443  56.639  25.310  0.00  0.00    +0.000 A 
ATOM     20  N   UNL     1      60.631  56.434  25.905  0.00  0.00    +0.000 NA
BRANCH  19  21
ATOM     21  C   UNL     1      58.511  55.493  25.252  0.00  0.00    +0.000 A 
ATOM     22  C   UNL     1      58.913  54.338  24.611  0.00  0.00    +0.000 A 
ATOM     23  C   UNL     1      58.076  53.245  24.535  0.00  0.00    +0.000 A 
ATOM     24  C   UNL     1      56.822  53.334  25.116  0.00  0.00    +0.000 A 
ATOM     25  C   UNL     1      56.390  54.459  25.760  0.00  0.00    +0.000 A 
ATOM     26  C   UNL     1      57.255  55.540  25.819  0.00  0.00    +0.000 A 
ENDBRANCH  19  21
ENDBRANCH  14  15
ENDBRANCH   1  14
TORSDOF 5
