REMARK  Name = 
REMARK  3 active torsions:
REMARK  status: ('A' for Active; 'I' for Inactive)
REMARK    1  A    between atoms: N_1  and  C_16
REMARK    2  A    between atoms: C_5  and  C_6
REMARK    3  A    between atoms: C_19  and  C_21
REMARK                            x       y       z     vdW  Elec       q    Type
REMARK                         _______ _______ _______ _____ _____    ______ ____
ROOT
ATOM      1  C   UNL     1      64.025  57.334  26.944  0.00  0.00    +0.000 A 
ATOM      2  C   UNL     1      62.710  56.990  27.352  0.00  0.00    +0.000 A 
ATOM      3  C   UNL     1      62.514  56.896  28.718  0.00  0.00    +0.000 A 
ATOM      4  N   UNL     1      63.542  57.134  29.550  0.00  0.00    +0.000 NA
ATOM      5  C   UNL     1      64.752  57.455  29.133  0.00  0.00    +0.000 A 
ATOM      6  N   UNL     1      65.004  57.555  27.845  0.00  0.00    +0.000 NA
ENDROOT
BRANCH   5   7
ATOM      7  C   UNL     1      65.648  57.652  30.279  0.00  0.00    +0.000 A 
ATOM      8  C   UNL     1      66.407  56.641  30.823  0.00  0.00    +0.000 A 
ATOM      9  C   UNL     1      67.262  56.768  31.894  0.00  0.00    +0.000 A 
ATOM     10  C   UNL     1      67.395  57.992  32.499  0.00  0.00    +0.000 A 
ATOM     11  C   UNL     1      66.662  59.043  32.001  0.00  0.00    +0.000 A 
ATOM     12  C   UNL     1      66.829  60.253  32.640  0.00  0.00    +0.000 A 
ATOM     13  C   UNL     1      66.136  61.365  32.212  0.00  0.00    +0.000 A 
ATOM     14  C   UNL     1      65.273  61.209  31.120  0.00  0.00    +0.000 A 
ATOM     15  C   UNL     1      65.164  59.966  30.540  0.00  0.00    +0.000 A 
ATOM     16  C   UNL     1      65.829  58.849  30.930  0.00  0.00    +0.000 A 
ENDBRANCH   5   7
BRANCH   2  17
ATOM     17  N   UNL     1      61.682  56.783  26.410  0.00  0.00    +0.000 N 
ATOM     18  C   UNL     1      61.193  55.464  26.024  0.00  0.00    +0.000 C 
ATOM     19  C   UNL     1      60.191  55.746  24.942  0.00  0.00    +0.000 C 
ATOM     20  C   UNL     1      59.565  57.026  25.499  0.00  0.00    +0.000 C 
ATOM     21  C   UNL     1      60.974  57.793  25.741  0.00  0.00    +0.000 C 
BRANCH  21  22
ATOM     22  C   UNL     1      60.661  59.028  26.447  0.00  0.00    +0.000 A 
ATOM     23  C   UNL     1      61.000  59.537  27.702  0.00  0.00    +0.000 A 
ATOM     24  N   UNL     1      60.473  60.774  27.885  0.00  0.00    +0.000 N 
ATOM     25  C   UNL     1      59.798  61.089  26.771  0.00  0.00    +0.000 A 
ATOM     26  C   UNL     1      59.119  62.253  26.516  0.00  0.00    +0.000 A 
ATOM     27  C   UNL     1      58.500  62.426  25.322  0.00  0.00    +0.000 A 
ATOM     28  C   UNL     1      58.582  61.414  24.411  0.00  0.00    +0.000 A 
ATOM     29  C   UNL     1      59.270  60.244  24.685  0.00  0.00    +0.000 A 
ATOM     30  C   UNL     1      59.900  60.046  25.879  0.00  0.00    +0.000 A 
ATOM     31  H   UNL     1      60.573  61.362  28.725  0.00  0.00    +0.000 HD
ENDBRANCH  21  22
ENDBRANCH   2  17
TORSDOF 3
