REMARK  Name = 
REMARK  4 active torsions:
REMARK  status: ('A' for Active; 'I' for Inactive)
REMARK    1  A    between atoms: C_1  and  O_13
REMARK    2  A    between atoms: O_13  and  C_14
REMARK    3  A    between atoms: C_16  and  C_20
REMARK    4  A    between atoms: C_18  and  C_30
REMARK                            x       y       z     vdW  Elec       q    Type
REMARK                         _______ _______ _______ _____ _____    ______ ____
ROOT
ATOM      1  C   UNL     1      64.456  57.973  30.111  0.00  0.00    +0.000 A 
ATOM      2  C   UNL     1      64.885  57.472  31.312  0.00  0.00    +0.000 A 
ATOM      3  C   UNL     1      65.595  58.228  32.222  0.00  0.00    +0.000 A 
ATOM      4  N   UNL     1      65.850  59.527  31.858  0.00  0.00    +0.000 NA
ATOM      5  C   UNL     1      65.433  60.025  30.688  0.00  0.00    +0.000 A 
ATOM      6  N   UNL     1      64.755  59.258  29.843  0.00  0.00    +0.000 NA
ENDROOT
BRANCH   3   7
ATOM      7  C   UNL     1      66.062  57.894  33.541  0.00  0.00    +0.000 A 
ATOM      8  C   UNL     1      65.362  58.441  34.624  0.00  0.00    +0.000 A 
ATOM      9  C   UNL     1      65.659  58.252  35.956  0.00  0.00    +0.000 A 
ATOM     10  C   UNL     1      66.733  57.462  36.272  0.00  0.00    +0.000 A 
ATOM     11  C   UNL     1      67.478  56.889  35.267  0.00  0.00    +0.000 A 
ATOM     12  C   UNL     1      68.570  56.132  35.586  0.00  0.00    +0.000 A 
ATOM     13  C   UNL     1      69.381  55.561  34.598  0.00  0.00    +0.000 A 
ATOM     14  C   UNL     1      69.007  55.815  33.274  0.00  0.00    +0.000 A 
ATOM     15  C   UNL     1      67.899  56.582  33.014  0.00  0.00    +0.000 A 
ATOM     16  C   UNL     1      67.103  57.136  33.973  0.00  0.00    +0.000 A 
ENDBRANCH   3   7
BRANCH   5  17
ATOM     17  C   UNL     1      65.710  61.428  30.296  0.00  0.00    +0.000 C 
ATOM     18  F   UNL     1      64.566  62.132  30.032  0.00  0.00    +0.000 F 
ATOM     19  F   UNL     1      66.488  61.500  29.141  0.00  0.00    +0.000 F 
ATOM     20  F   UNL     1      66.522  61.995  31.272  0.00  0.00    +0.000 F 
ENDBRANCH   5  17
BRANCH   1  21
ATOM     21  O   UNL     1      63.761  57.106  29.301  0.00  0.00    +0.000 OA
BRANCH  21  22
ATOM     22  C   UNL     1      63.194  57.363  28.080  0.00  0.00    +0.000 A 
ATOM     23  C   UNL     1      63.877  56.915  26.959  0.00  0.00    +0.000 A 
ATOM     24  C   UNL     1      63.295  57.180  25.707  0.00  0.00    +0.000 A 
ATOM     25  N   UNL     1      62.110  57.853  25.644  0.00  0.00    +0.000 NA
ATOM     26  C   UNL     1      61.477  58.273  26.771  0.00  0.00    +0.000 A 
ATOM     27  N   UNL     1      62.031  58.021  27.970  0.00  0.00    +0.000 NA
ATOM     28  N   UNL     1      60.242  58.972  26.668  0.00  0.00    +0.000 N 
ATOM     29  C   UNL     1      59.887  59.950  27.675  0.00  0.00    +0.000 C 
ATOM     30  C   UNL     1      58.448  60.255  27.778  0.00  0.00    +0.000 C 
ATOM     31  N   UNL     1      57.697  60.189  26.564  0.00  0.00    +0.000 NA
ATOM     32  C   UNL     1      58.478  59.929  25.390  0.00  0.00    +0.000 C 
ATOM     33  C   UNL     1      59.352  58.708  25.569  0.00  0.00    +0.000 C 
ATOM     34  H   UNL     1      57.000  59.437  26.659  0.00  0.00    +0.000 HD
ENDBRANCH  21  22
ENDBRANCH   1  21
TORSDOF 4
