REMARK  Name = 
REMARK  4 active torsions:
REMARK  status: ('A' for Active; 'I' for Inactive)
REMARK    1  A    between atoms: C_1  and  O_13
REMARK    2  A    between atoms: O_13  and  C_14
REMARK    3  A    between atoms: C_16  and  C_20
REMARK    4  A    between atoms: C_18  and  C_29
REMARK                            x       y       z     vdW  Elec       q    Type
REMARK                         _______ _______ _______ _____ _____    ______ ____
ROOT
ATOM      1  C   UNL     1      64.397  58.193  30.410  0.00  0.00    +0.000 A 
ATOM      2  C   UNL     1      64.840  57.722  31.642  0.00  0.00    +0.000 A 
ATOM      3  C   UNL     1      65.603  58.520  32.478  0.00  0.00    +0.000 A 
ATOM      4  N   UNL     1      65.899  59.780  32.046  0.00  0.00    +0.000 NA
ATOM      5  C   UNL     1      65.475  60.229  30.869  0.00  0.00    +0.000 A 
ATOM      6  N   UNL     1      64.739  59.452  30.066  0.00  0.00    +0.000 NA
ENDROOT
BRANCH   3   7
ATOM      7  C   UNL     1      66.068  58.028  33.770  0.00  0.00    +0.000 A 
ATOM      8  C   UNL     1      65.530  58.375  34.991  0.00  0.00    +0.000 A 
ATOM      9  N   UNL     1      66.241  57.709  35.920  0.00  0.00    +0.000 N 
ATOM     10  C   UNL     1      67.189  56.972  35.298  0.00  0.00    +0.000 A 
ATOM     11  C   UNL     1      68.151  56.132  35.819  0.00  0.00    +0.000 A 
ATOM     12  C   UNL     1      69.042  55.460  34.992  0.00  0.00    +0.000 A 
ATOM     13  C   UNL     1      68.938  55.658  33.632  0.00  0.00    +0.000 A 
ATOM     14  C   UNL     1      67.988  56.491  33.078  0.00  0.00    +0.000 A 
ATOM     15  C   UNL     1      67.116  57.146  33.928  0.00  0.00    +0.000 A 
ATOM     16  H   UNL     1      66.088  57.754  36.938  0.00  0.00    +0.000 HD
ENDBRANCH   3   7
BRANCH   5  17
ATOM     17  C   UNL     1      65.788  61.589  30.389  0.00  0.00    +0.000 C 
ATOM     18  F   UNL     1      64.660  62.341  30.128  0.00  0.00    +0.000 F 
ATOM     19  F   UNL     1      66.533  61.586  29.221  0.00  0.00    +0.000 F 
ATOM     20  F   UNL     1      66.634  62.190  31.335  0.00  0.00    +0.000 F 
ENDBRANCH   5  17
BRANCH   1  21
ATOM     21  O   UNL     1      63.651  57.295  29.685  0.00  0.00    +0.000 OA
BRANCH  21  22
ATOM     22  C   UNL     1      63.354  57.370  28.332  0.00  0.00    +0.000 A 
ATOM     23  C   UNL     1      64.359  56.923  27.463  0.00  0.00    +0.000 A 
ATOM     24  C   UNL     1      64.079  56.990  26.085  0.00  0.00    +0.000 A 
ATOM     25  N   UNL     1      62.872  57.475  25.671  0.00  0.00    +0.000 NA
ATOM     26  C   UNL     1      61.939  57.893  26.560  0.00  0.00    +0.000 A 
ATOM     27  N   UNL     1      62.192  57.835  27.880  0.00  0.00    +0.000 NA
ATOM     28  N   UNL     1      60.673  58.400  26.102  0.00  0.00    +0.000 N 
ATOM     29  C   UNL     1      59.967  59.395  26.879  0.00  0.00    +0.000 C 
ATOM     30  C   UNL     1      58.528  59.509  26.607  0.00  0.00    +0.000 C 
ATOM     31  N   UNL     1      58.091  59.198  25.290  0.00  0.00    +0.000 NA
ATOM     32  C   UNL     1      59.171  58.978  24.352  0.00  0.00    +0.000 C 
ATOM     33  C   UNL     1      60.119  57.910  24.866  0.00  0.00    +0.000 C 
ATOM     34  H   UNL     1      57.518  58.343  25.331  0.00  0.00    +0.000 HD
ENDBRANCH  21  22
ENDBRANCH   1  21
TORSDOF 4
