REMARK  Name = 
REMARK  1 active torsions:
REMARK  status: ('A' for Active; 'I' for Inactive)
REMARK    1  A    between atoms: C_3  and  C_15
REMARK                            x       y       z     vdW  Elec       q    Type
REMARK                         _______ _______ _______ _____ _____    ______ ____
ROOT
ATOM      1  C   UNL     1      37.830  32.880  49.664  0.00  0.00    +0.000 A 
ATOM      2  C   UNL     1      38.641  33.111  48.547  0.00  0.00    +0.000 A 
ATOM      3  C   UNL     1      38.497  32.264  47.443  0.00  0.00    +0.000 A 
ATOM      4  N   UNL     1      37.578  31.247  47.491  0.00  0.00    +0.000 NA
ATOM      5  C   UNL     1      36.816  31.068  48.601  0.00  0.00    +0.000 A 
ATOM      6  N   UNL     1      36.935  31.871  49.681  0.00  0.00    +0.000 NA
ATOM      7  N   UNL     1      35.849  30.019  48.687  0.00  0.00    +0.000 N 
ATOM      8  C   UNL     1      34.897  30.173  47.729  0.00  0.00    +0.000 A 
ATOM      9  C   UNL     1      33.843  29.278  47.606  0.00  0.00    +0.000 A 
ATOM     10  C   UNL     1      33.825  28.226  48.518  0.00  0.00    +0.000 A 
ATOM     11  O   UNL     1      32.891  27.388  48.448  0.00  0.00    +0.000 OA
ATOM     12  N   UNL     1      34.782  28.107  49.450  0.00  0.00    +0.000 N 
ATOM     13  C   UNL     1      35.788  28.997  49.535  0.00  0.00    +0.000 A 
ATOM     14  O   UNL     1      36.735  28.979  50.371  0.00  0.00    +0.000 OA
ATOM     15  H   UNL     1      34.746  27.320  50.113  0.00  0.00    +0.000 HD
ENDROOT
BRANCH   3  16
ATOM     16  C   UNL     1      39.285  32.409  46.227  0.00  0.00    +0.000 A 
ATOM     17  N   UNL     1      40.198  33.350  45.860  0.00  0.00    +0.000 NA
ATOM     18  O   UNL     1      40.655  33.076  44.669  0.00  0.00    +0.000 OA
ATOM     19  C   UNL     1      40.063  31.987  44.260  0.00  0.00    +0.000 A 
ATOM     20  N   UNL     1      39.187  31.524  45.209  0.00  0.00    +0.000 NA
ATOM     21  N   UNL     1      40.241  31.295  43.009  0.00  0.00    +0.000 N 
ATOM     22  N   UNL     1      39.858  31.854  41.848  0.00  0.00    +0.000 NA
ATOM     23  C   UNL     1      40.139  30.995  40.842  0.00  0.00    +0.000 A 
ATOM     24  C   UNL     1      40.718  29.866  41.454  0.00  0.00    +0.000 A 
ATOM     25  C   UNL     1      40.770  30.085  42.818  0.00  0.00    +0.000 A 
ENDBRANCH   3  16
TORSDOF 1
