REMARK  Name = 
REMARK  3 active torsions:
REMARK  status: ('A' for Active; 'I' for Inactive)
REMARK    1  A    between atoms: C_3  and  N_17
REMARK    2  A    between atoms: C_5  and  C_7
REMARK    3  A    between atoms: C_19  and  C_20
REMARK                            x       y       z     vdW  Elec       q    Type
REMARK                         _______ _______ _______ _____ _____    ______ ____
ROOT
ATOM      1  C   UNL     1      33.691  26.822  47.718  0.00  0.00    +0.000 A 
ATOM      2  C   UNL     1      32.719  27.428  46.906  0.00  0.00    +0.000 A 
ATOM      3  C   UNL     1      32.718  28.806  46.927  0.00  0.00    +0.000 A 
ATOM      4  N   UNL     1      33.604  29.449  47.687  0.00  0.00    +0.000 NA
ATOM      5  C   UNL     1      34.523  28.906  48.457  0.00  0.00    +0.000 A 
ATOM      6  N   UNL     1      34.518  27.571  48.431  0.00  0.00    +0.000 NA
ENDROOT
BRANCH   5   7
ATOM      7  C   UNL     1      35.548  29.437  49.333  0.00  0.00    +0.000 A 
ATOM      8  C   UNL     1      35.627  29.159  50.704  0.00  0.00    +0.000 A 
ATOM      9  C   UNL     1      36.586  29.650  51.544  0.00  0.00    +0.000 A 
ATOM     10  C   UNL     1      37.553  30.474  51.051  0.00  0.00    +0.000 A 
ATOM     11  C   UNL     1      37.546  30.793  49.730  0.00  0.00    +0.000 A 
ATOM     12  C   UNL     1      38.543  31.627  49.281  0.00  0.00    +0.000 A 
ATOM     13  C   UNL     1      38.599  31.993  47.955  0.00  0.00    +0.000 A 
ATOM     14  C   UNL     1      37.622  31.489  47.110  0.00  0.00    +0.000 A 
ATOM     15  C   UNL     1      36.649  30.660  47.609  0.00  0.00    +0.000 A 
ATOM     16  C   UNL     1      36.560  30.277  48.910  0.00  0.00    +0.000 A 
ENDBRANCH   5   7
BRANCH   3  17
ATOM     17  N   UNL     1      31.810  29.604  46.173  0.00  0.00    +0.000 N 
ATOM     18  C   UNL     1      32.424  30.520  45.369  0.00  0.00    +0.000 A 
ATOM     19  C   UNL     1      31.610  31.347  44.591  0.00  0.00    +0.000 A 
ATOM     20  C   UNL     1      32.243  32.370  43.691  0.00  0.00    +0.000 C 
ATOM     21  C   UNL     1      30.215  31.244  44.630  0.00  0.00    +0.000 A 
ATOM     22  O   UNL     1      29.509  32.019  43.903  0.00  0.00    +0.000 OA
ATOM     23  N   UNL     1      29.696  30.320  45.444  0.00  0.00    +0.000 N 
ATOM     24  C   UNL     1      30.471  29.524  46.193  0.00  0.00    +0.000 A 
ATOM     25  O   UNL     1      30.006  28.645  46.970  0.00  0.00    +0.000 OA
ATOM     26  H   UNL     1      28.672  30.217  45.497  0.00  0.00    +0.000 HD
ENDBRANCH   3  17
TORSDOF 2
