REMARK  Name = 
REMARK  6 active torsions:
REMARK  status: ('A' for Active; 'I' for Inactive)
REMARK    1  A    between atoms: C_1  and  C_19
REMARK    2  A    between atoms: C_5  and  C_7
REMARK    3  A    between atoms: C_7  and  N_8
REMARK    4  A    between atoms: C_19  and  C_20
REMARK    5  A    between atoms: C_19  and  O_30
REMARK    6  A    between atoms: O_30  and  C_31
REMARK                            x       y       z     vdW  Elec       q    Type
REMARK                         _______ _______ _______ _____ _____    ______ ____
ROOT
ATOM      1  C   UNL     1      39.126  31.526  46.833  0.00  0.00    +0.000 A 
ATOM      2  C   UNL     1      40.118  32.460  46.440  0.00  0.00    +0.000 A 
ATOM      3  C   UNL     1      40.741  32.320  45.156  0.00  0.00    +0.000 A 
ATOM      4  N   UNL     1      40.333  31.306  44.419  0.00  0.00    +0.000 NA
ATOM      5  C   UNL     1      39.360  30.408  44.824  0.00  0.00    +0.000 A 
ATOM      6  N   UNL     1      38.796  30.547  46.002  0.00  0.00    +0.000 NA
ENDROOT
BRANCH   5   7
ATOM      7  C   UNL     1      38.933  29.297  43.954  0.00  0.00    +0.000 C 
BRANCH   7   8
ATOM      8  N   UNL     1      38.311  29.769  42.747  0.00  0.00    +0.000 N 
ATOM      9  C   UNL     1      38.665  29.136  41.585  0.00  0.00    +0.000 A 
ATOM     10  N   UNL     1      38.034  29.675  40.528  0.00  0.00    +0.000 NA
ATOM     11  C   UNL     1      37.246  30.682  40.982  0.00  0.00    +0.000 A 
ATOM     12  C   UNL     1      36.367  31.589  40.427  0.00  0.00    +0.000 A 
ATOM     13  O   UNL     1      36.194  31.556  39.182  0.00  0.00    +0.000 OA
ATOM     14  N   UNL     1      35.748  32.453  41.268  0.00  0.00    +0.000 N 
ATOM     15  C   UNL     1      35.968  32.447  42.595  0.00  0.00    +0.000 A 
ATOM     16  N   UNL     1      35.190  33.442  43.244  0.00  0.00    +0.000 N 
ATOM     17  N   UNL     1      36.832  31.563  43.174  0.00  0.00    +0.000 NA
ATOM     18  C   UNL     1      37.445  30.706  42.345  0.00  0.00    +0.000 A 
ATOM     19  H   UNL     1      35.086  33.138  40.877  0.00  0.00    +0.000 HD
ATOM     20  H   UNL     1      35.252  33.559  44.266  0.00  0.00    +0.000 HD
ATOM     21  H   UNL     1      34.564  34.047  42.693  0.00  0.00    +0.000 HD
ENDBRANCH   7   8
ENDBRANCH   5   7
BRANCH   1  22
ATOM     22  C   UNL     1      38.731  31.770  48.187  0.00  0.00    +0.000 C 
BRANCH  22  23
ATOM     23  C   UNL     1      37.897  31.035  49.127  0.00  0.00    +0.000 A 
ATOM     24  N   UNL     1      38.314  30.857  50.374  0.00  0.00    +0.000 NA
ATOM     25  C   UNL     1      37.603  30.174  51.288  0.00  0.00    +0.000 A 
ATOM     26  N   UNL     1      36.431  29.622  51.026  0.00  0.00    +0.000 NA
ATOM     27  C   UNL     1      35.883  29.728  49.793  0.00  0.00    +0.000 A 
ATOM     28  C   UNL     1      34.682  29.170  49.483  0.00  0.00    +0.000 A 
ATOM     29  C   UNL     1      34.144  29.281  48.244  0.00  0.00    +0.000 A 
ATOM     30  C   UNL     1      34.884  29.992  47.324  0.00  0.00    +0.000 A 
ATOM     31  C   UNL     1      36.095  30.544  47.669  0.00  0.00    +0.000 A 
ATOM     32  C   UNL     1      36.649  30.440  48.893  0.00  0.00    +0.000 A 
ENDBRANCH  22  23
BRANCH  22  33
ATOM     33  O   UNL     1      38.435  33.070  48.551  0.00  0.00    +0.000 OA
BRANCH  33  34
ATOM     34  C   UNL     1      39.243  34.027  49.128  0.00  0.00    +0.000 C 
ATOM     35  N   UNL     1      39.727  35.182  48.378  0.00  0.00    +0.000 N 
ATOM     36  O   UNL     1      39.598  33.948  50.333  0.00  0.00    +0.000 OA
ATOM     37  H   UNL     1      40.329  35.879  48.838  0.00  0.00    +0.000 HD
ATOM     38  H   UNL     1      39.466  35.300  47.389  0.00  0.00    +0.000 HD
ENDBRANCH  33  34
ENDBRANCH  22  33
ENDBRANCH   1  22
TORSDOF 6
