REMARK  Name = 
REMARK  3 active torsions:
REMARK  status: ('A' for Active; 'I' for Inactive)
REMARK    1  A    between atoms: C_3  and  C_7
REMARK    2  A    between atoms: C_5  and  C_20
REMARK    3  A    between atoms: C_17  and  S_23
REMARK                            x       y       z     vdW  Elec       q    Type
REMARK                         _______ _______ _______ _____ _____    ______ ____
ROOT
ATOM      1  C   UNL     1      37.945  32.603  49.698  0.00  0.00    +0.000 A 
ATOM      2  C   UNL     1      38.788  32.853  48.612  0.00  0.00    +0.000 A 
ATOM      3  C   UNL     1      38.520  32.149  47.439  0.00  0.00    +0.000 A 
ATOM      4  N   UNL     1      37.482  31.275  47.400  0.00  0.00    +0.000 NA
ATOM      5  C   UNL     1      36.695  31.068  48.480  0.00  0.00    +0.000 A 
ATOM      6  N   UNL     1      36.916  31.727  49.636  0.00  0.00    +0.000 NA
ENDROOT
BRANCH   3   7
ATOM      7  C   UNL     1      39.327  32.320  46.231  0.00  0.00    +0.000 A 
ATOM      8  N   UNL     1      40.275  33.230  45.882  0.00  0.00    +0.000 NA
ATOM      9  O   UNL     1      40.715  32.965  44.682  0.00  0.00    +0.000 OA
ATOM     10  C   UNL     1      40.081  31.908  44.240  0.00  0.00    +0.000 A 
ATOM     11  N   UNL     1      39.192  31.458  45.174  0.00  0.00    +0.000 NA
ATOM     12  N   UNL     1      40.241  31.261  42.971  0.00  0.00    +0.000 N 
ATOM     13  N   UNL     1      39.872  31.852  41.825  0.00  0.00    +0.000 NA
ATOM     14  C   UNL     1      40.142  31.007  40.806  0.00  0.00    +0.000 A 
ATOM     15  C   UNL     1      40.701  29.854  41.376  0.00  0.00    +0.000 A 
ATOM     16  C   UNL     1      40.755  30.036  42.749  0.00  0.00    +0.000 A 
ENDBRANCH   3   7
BRANCH   5  20
ATOM     17  C   UNL     1      33.476  28.261  48.302  0.00  0.00    +0.000 A 
ATOM     18  C   UNL     1      34.386  28.253  49.329  0.00  0.00    +0.000 A 
ATOM     19  C   UNL     1      35.426  29.163  49.381  0.00  0.00    +0.000 A 
ATOM     20  C   UNL     1      35.588  30.119  48.399  0.00  0.00    +0.000 A 
ATOM     21  C   UNL     1      34.696  30.167  47.345  0.00  0.00    +0.000 A 
ATOM     22  C   UNL     1      33.670  29.230  47.341  0.00  0.00    +0.000 A 
BRANCH  17  23
ATOM     23  S   UNL     1      32.161  27.119  48.224  0.00  0.00    +0.000 S 
ATOM     24  O   UNL     1      32.688  25.811  47.655  0.00  0.00    +0.000 OA
ATOM     25  O   UNL     1      31.074  27.560  47.306  0.00  0.00    +0.000 OA
ATOM     26  H   UNL     1      31.663  26.997  49.494  0.00  0.00    +0.000 HD
ENDBRANCH  17  23
ENDBRANCH   5  20
TORSDOF 3
