REMARK  Name = 
REMARK  4 active torsions:
REMARK  status: ('A' for Active; 'I' for Inactive)
REMARK    1  A    between atoms: C_1  and  C_15
REMARK    2  A    between atoms: C_4  and  O_21
REMARK    3  A    between atoms: C_13  and  C_17
REMARK    4  A    between atoms: O_21  and  C_22
REMARK                            x       y       z     vdW  Elec       q    Type
REMARK                         _______ _______ _______ _____ _____    ______ ____
ROOT
ATOM      1  C   UNL     1      36.334  30.312  46.795  0.00  0.00    +0.000 A 
ATOM      2  C   UNL     1      35.053  30.006  46.319  0.00  0.00    +0.000 A 
ATOM      3  C   UNL     1      34.030  29.510  47.084  0.00  0.00    +0.000 A 
ATOM      4  C   UNL     1      34.222  29.280  48.409  0.00  0.00    +0.000 A 
ATOM      5  C   UNL     1      35.441  29.553  48.941  0.00  0.00    +0.000 A 
ATOM      6  C   UNL     1      35.619  29.315  50.282  0.00  0.00    +0.000 A 
ATOM      7  C   UNL     1      36.818  29.563  50.902  0.00  0.00    +0.000 A 
ATOM      8  C   UNL     1      37.851  30.066  50.121  0.00  0.00    +0.000 A 
ATOM      9  C   UNL     1      37.618  30.284  48.786  0.00  0.00    +0.000 A 
ATOM     10  C   UNL     1      36.462  30.054  48.150  0.00  0.00    +0.000 A 
ENDROOT
BRANCH   1  15
ATOM     11  C   UNL     1      38.284  30.568  43.810  0.00  0.00    +0.000 A 
ATOM     12  C   UNL     1      39.262  31.536  44.027  0.00  0.00    +0.000 A 
ATOM     13  C   UNL     1      39.251  32.135  45.273  0.00  0.00    +0.000 A 
ATOM     14  N   UNL     1      38.317  31.736  46.136  0.00  0.00    +0.000 NA
ATOM     15  C   UNL     1      37.385  30.831  45.964  0.00  0.00    +0.000 A 
ATOM     16  N   UNL     1      37.420  30.275  44.765  0.00  0.00    +0.000 NA
BRANCH  13  17
ATOM     17  C   UNL     1      40.206  33.188  45.706  0.00  0.00    +0.000 C 
ATOM     18  F   UNL     1      40.092  34.298  44.886  0.00  0.00    +0.000 F 
ATOM     19  F   UNL     1      41.501  32.737  45.550  0.00  0.00    +0.000 F 
ATOM     20  F   UNL     1      40.026  33.609  46.990  0.00  0.00    +0.000 F 
ENDBRANCH  13  17
ENDBRANCH   1  15
BRANCH   4  21
ATOM     21  O   UNL     1      33.171  28.779  49.155  0.00  0.00    +0.000 OA
BRANCH  21  22
ATOM     22  C   UNL     1      32.282  27.852  48.615  0.00  0.00    +0.000 C 
ATOM     23  F   UNL     1      32.828  26.656  48.262  0.00  0.00    +0.000 F 
ATOM     24  F   UNL     1      31.320  27.580  49.603  0.00  0.00    +0.000 F 
ATOM     25  F   UNL     1      31.682  28.480  47.520  0.00  0.00    +0.000 F 
ENDBRANCH  21  22
ENDBRANCH   4  21
TORSDOF 4
