REMARK  Name = 
REMARK  5 active torsions:
REMARK  status: ('A' for Active; 'I' for Inactive)
REMARK    1  A    between atoms: C_1  and  C_15
REMARK    2  A    between atoms: C_4  and  O_26
REMARK    3  A    between atoms: C_12  and  C_22
REMARK    4  A    between atoms: C_13  and  N_17
REMARK    5  A    between atoms: O_26  and  C_27
REMARK                            x       y       z     vdW  Elec       q    Type
REMARK                         _______ _______ _______ _____ _____    ______ ____
ROOT
ATOM      1  C   UNL     1      36.132  31.369  42.610  0.00  0.00    +0.000 A 
ATOM      2  C   UNL     1      37.315  31.036  41.918  0.00  0.00    +0.000 A 
ATOM      3  C   UNL     1      38.375  30.611  42.652  0.00  0.00    +0.000 A 
ATOM      4  N   UNL     1      38.185  30.551  43.971  0.00  0.00    +0.000 NA
ATOM      5  C   UNL     1      37.150  30.832  44.682  0.00  0.00    +0.000 A 
ATOM      6  N   UNL     1      36.124  31.247  43.940  0.00  0.00    +0.000 NA
ENDROOT
BRANCH   5   7
ATOM      7  C   UNL     1      36.846  30.803  46.094  0.00  0.00    +0.000 A 
ATOM      8  C   UNL     1      35.816  30.033  46.643  0.00  0.00    +0.000 A 
ATOM      9  C   UNL     1      35.512  29.989  47.968  0.00  0.00    +0.000 A 
ATOM     10  C   UNL     1      36.230  30.727  48.868  0.00  0.00    +0.000 A 
ATOM     11  C   UNL     1      37.235  31.488  48.401  0.00  0.00    +0.000 A 
ATOM     12  C   UNL     1      37.957  32.230  49.313  0.00  0.00    +0.000 A 
ATOM     13  C   UNL     1      38.989  33.026  48.924  0.00  0.00    +0.000 A 
ATOM     14  C   UNL     1      39.307  33.077  47.574  0.00  0.00    +0.000 A 
ATOM     15  C   UNL     1      38.569  32.328  46.702  0.00  0.00    +0.000 A 
ATOM     16  C   UNL     1      37.540  31.529  47.050  0.00  0.00    +0.000 A 
BRANCH  10  17
ATOM     17  O   UNL     1      35.899  30.662  50.206  0.00  0.00    +0.000 OA
BRANCH  17  18
ATOM     18  C   UNL     1      36.419  29.628  51.024  0.00  0.00    +0.000 C 
ATOM     19  F   UNL     1      37.230  28.731  50.400  0.00  0.00    +0.000 F 
ATOM     20  F   UNL     1      37.197  30.227  52.006  0.00  0.00    +0.000 F 
ATOM     21  F   UNL     1      35.312  28.982  51.583  0.00  0.00    +0.000 F 
ENDBRANCH  17  18
ENDBRANCH  10  17
ENDBRANCH   5   7
BRANCH   3  22
ATOM     22  N   UNL     1      39.626  30.238  42.112  0.00  0.00    +0.000 N 
ATOM     23  C   UNL     1      40.749  29.926  42.912  0.00  0.00    +0.000 C 
ATOM     24  N   UNL     1      40.962  30.652  43.966  0.00  0.00    +0.000 NA
ATOM     25  N   UNL     1      41.606  28.857  42.570  0.00  0.00    +0.000 N 
ATOM     26  H   UNL     1      41.701  30.535  44.651  0.00  0.00    +0.000 HD
ATOM     27  H   UNL     1      39.724  30.191  41.088  0.00  0.00    +0.000 HD
ATOM     28  H   UNL     1      42.421  28.640  43.162  0.00  0.00    +0.000 HD
ATOM     29  H   UNL     1      41.416  28.294  41.729  0.00  0.00    +0.000 HD
ENDBRANCH   3  22
BRANCH   2  30
ATOM     30  C   UNL     1      37.438  31.133  40.439  0.00  0.00    +0.000 C 
ATOM     31  F   UNL     1      36.310  31.629  39.832  0.00  0.00    +0.000 F 
ATOM     32  F   UNL     1      38.431  32.085  40.202  0.00  0.00    +0.000 F 
ATOM     33  F   UNL     1      37.894  29.957  39.876  0.00  0.00    +0.000 F 
ENDBRANCH   2  30
TORSDOF 5
