REMARK  Name = 
REMARK  3 active torsions:
REMARK  status: ('A' for Active; 'I' for Inactive)
REMARK    1  A    between atoms: C_1  and  C_2
REMARK    2  A    between atoms: C_1  and  C_12
REMARK    3  A    between atoms: C_1  and  O_24
REMARK                            x       y       z     vdW  Elec       q    Type
REMARK                         _______ _______ _______ _____ _____    ______ ____
ROOT
ATOM      1  C   UNL     1      38.576  32.259  48.080  0.00  0.00    +0.000 C 
ENDROOT
BRANCH   1   2
ATOM      2  C   UNL     1      39.091  32.181  46.742  0.00  0.00    +0.000 A 
ATOM      3  C   UNL     1      39.819  33.339  46.418  0.00  0.00    +0.000 A 
ATOM      4  C   UNL     1      40.538  33.400  45.175  0.00  0.00    +0.000 A 
ATOM      5  N   UNL     1      40.447  32.296  44.392  0.00  0.00    +0.000 NA
ATOM      6  C   UNL     1      39.729  31.197  44.742  0.00  0.00    +0.000 A 
ATOM      7  N   UNL     1      39.068  31.140  45.884  0.00  0.00    +0.000 NA
ATOM      8  N   UNL     1      39.707  30.096  43.834  0.00  0.00    +0.000 N 
ATOM      9  C   UNL     1      40.659  29.995  42.744  0.00  0.00    +0.000 C 
ATOM     10  C   UNL     1      39.881  29.591  41.489  0.00  0.00    +0.000 C 
ATOM     11  C   UNL     1      39.360  28.186  41.689  0.00  0.00    +0.000 C 
ATOM     12  C   UNL     1      39.157  27.845  43.132  0.00  0.00    +0.000 C 
ATOM     13  C   UNL     1      38.731  29.029  43.959  0.00  0.00    +0.000 C 
ENDBRANCH   1   2
BRANCH   1  14
ATOM     14  C   UNL     1      37.923  31.297  48.962  0.00  0.00    +0.000 A 
ATOM     15  N   UNL     1      38.413  31.112  50.186  0.00  0.00    +0.000 NA
ATOM     16  C   UNL     1      37.880  30.234  51.073  0.00  0.00    +0.000 A 
ATOM     17  N   UNL     1      36.817  29.486  50.778  0.00  0.00    +0.000 NA
ATOM     18  C   UNL     1      36.237  29.597  49.557  0.00  0.00    +0.000 A 
ATOM     19  C   UNL     1      35.147  28.840  49.219  0.00  0.00    +0.000 A 
ATOM     20  C   UNL     1      34.561  28.941  47.994  0.00  0.00    +0.000 A 
ATOM     21  C   UNL     1      35.122  29.842  47.121  0.00  0.00    +0.000 A 
ATOM     22  C   UNL     1      36.217  30.587  47.489  0.00  0.00    +0.000 A 
ATOM     23  C   UNL     1      36.824  30.502  48.712  0.00  0.00    +0.000 A 
ENDBRANCH   1  14
BRANCH   1  24
ATOM     24  O   UNL     1      38.194  33.429  48.593  0.00  0.00    +0.000 OA
ATOM     25  H   UNL     1      38.211  33.377  49.581  0.00  0.00    +0.000 HD
ENDBRANCH   1  24
TORSDOF 3
