REMARK  Name = 
REMARK  5 active torsions:
REMARK  status: ('A' for Active; 'I' for Inactive)
REMARK    1  A    between atoms: C_2  and  N_27
REMARK    2  A    between atoms: C_3  and  N_22
REMARK    3  A    between atoms: C_5  and  C_7
REMARK    4  A    between atoms: C_10  and  O_17
REMARK    5  A    between atoms: O_17  and  C_18
REMARK                            x       y       z     vdW  Elec       q    Type
REMARK                         _______ _______ _______ _____ _____    ______ ____
ROOT
ATOM      1  C   UNL     1      36.231  31.256  42.565  0.00  0.00    +0.000 A 
ATOM      2  C   UNL     1      37.439  31.010  41.895  0.00  0.00    +0.000 A 
ATOM      3  C   UNL     1      38.518  30.687  42.663  0.00  0.00    +0.000 A 
ATOM      4  N   UNL     1      38.321  30.638  43.972  0.00  0.00    +0.000 NA
ATOM      5  C   UNL     1      37.246  30.849  44.665  0.00  0.00    +0.000 A 
ATOM      6  N   UNL     1      36.205  31.162  43.900  0.00  0.00    +0.000 NA
ENDROOT
BRANCH   5   7
ATOM      7  C   UNL     1      36.927  30.821  46.073  0.00  0.00    +0.000 A 
ATOM      8  C   UNL     1      35.902  30.045  46.610  0.00  0.00    +0.000 A 
ATOM      9  C   UNL     1      35.573  29.994  47.928  0.00  0.00    +0.000 A 
ATOM     10  C   UNL     1      36.273  30.743  48.837  0.00  0.00    +0.000 A 
ATOM     11  C   UNL     1      37.274  31.512  48.378  0.00  0.00    +0.000 A 
ATOM     12  C   UNL     1      37.977  32.267  49.303  0.00  0.00    +0.000 A 
ATOM     13  C   UNL     1      39.007  33.075  48.926  0.00  0.00    +0.000 A 
ATOM     14  C   UNL     1      39.339  33.125  47.581  0.00  0.00    +0.000 A 
ATOM     15  C   UNL     1      38.622  32.366  46.702  0.00  0.00    +0.000 A 
ATOM     16  C   UNL     1      37.599  31.556  47.034  0.00  0.00    +0.000 A 
BRANCH  10  17
ATOM     17  O   UNL     1      35.916  30.670  50.166  0.00  0.00    +0.000 OA
BRANCH  17  18
ATOM     18  C   UNL     1      36.429  29.640  50.996  0.00  0.00    +0.000 C 
ATOM     19  F   UNL     1      37.246  28.740  50.382  0.00  0.00    +0.000 F 
ATOM     20  F   UNL     1      37.211  30.253  51.973  0.00  0.00    +0.000 F 
ATOM     21  F   UNL     1      35.326  29.010  51.563  0.00  0.00    +0.000 F 
ENDBRANCH  17  18
ENDBRANCH  10  17
ENDBRANCH   5   7
BRANCH   3  22
ATOM     22  N   UNL     1      39.807  30.407  42.144  0.00  0.00    +0.000 N 
ATOM     23  C   UNL     1      40.879  29.967  42.952  0.00  0.00    +0.000 C 
ATOM     24  N   UNL     1      41.021  30.501  44.122  0.00  0.00    +0.000 NA
ATOM     25  N   UNL     1      41.767  28.966  42.482  0.00  0.00    +0.000 N 
ATOM     26  H   UNL     1      41.719  30.267  44.819  0.00  0.00    +0.000 HD
ATOM     27  H   UNL     1      39.969  30.530  41.134  0.00  0.00    +0.000 HD
ATOM     28  H   UNL     1      42.547  28.649  43.076  0.00  0.00    +0.000 HD
ATOM     29  H   UNL     1      41.632  28.556  41.547  0.00  0.00    +0.000 HD
ENDBRANCH   3  22
BRANCH   2  30
ATOM     30  N   UNL     1      37.573  31.084  40.484  0.00  0.00    +0.000 N 
ATOM     31  C   UNL     1      38.277  32.012  39.616  0.00  0.00    +0.000 C 
ATOM     32  C   UNL     1      39.240  31.230  38.751  0.00  0.00    +0.000 C 
ATOM     33  C   UNL     1      39.263  29.766  39.101  0.00  0.00    +0.000 C 
ATOM     34  C   UNL     1      37.914  29.133  39.142  0.00  0.00    +0.000 C 
ATOM     35  C   UNL     1      36.889  30.054  39.725  0.00  0.00    +0.000 C 
ENDBRANCH   2  30
TORSDOF 5
