REMARK  Name = 
REMARK  6 active torsions:
REMARK  status: ('A' for Active; 'I' for Inactive)
REMARK    1  A    between atoms: C_1  and  C_15
REMARK    2  A    between atoms: C_4  and  O_25
REMARK    3  A    between atoms: C_12  and  C_22
REMARK    4  A    between atoms: C_13  and  N_17
REMARK    5  A    between atoms: C_22  and  O_24
REMARK    6  A    between atoms: O_25  and  C_26
REMARK                            x       y       z     vdW  Elec       q    Type
REMARK                         _______ _______ _______ _____ _____    ______ ____
ROOT
ATOM      1  C   UNL     1      36.127  31.334  42.614  0.00  0.00    +0.000 A 
ATOM      2  C   UNL     1      37.297  31.012  41.928  0.00  0.00    +0.000 A 
ATOM      3  C   UNL     1      38.369  30.599  42.662  0.00  0.00    +0.000 A 
ATOM      4  N   UNL     1      38.189  30.548  43.968  0.00  0.00    +0.000 NA
ATOM      5  C   UNL     1      37.148  30.826  44.685  0.00  0.00    +0.000 A 
ATOM      6  N   UNL     1      36.123  31.224  43.942  0.00  0.00    +0.000 NA
ENDROOT
BRANCH   5   7
ATOM      7  C   UNL     1      36.854  30.802  46.098  0.00  0.00    +0.000 A 
ATOM      8  C   UNL     1      35.832  30.034  46.660  0.00  0.00    +0.000 A 
ATOM      9  C   UNL     1      35.520  29.981  47.981  0.00  0.00    +0.000 A 
ATOM     10  C   UNL     1      36.246  30.729  48.879  0.00  0.00    +0.000 A 
ATOM     11  C   UNL     1      37.244  31.490  48.405  0.00  0.00    +0.000 A 
ATOM     12  C   UNL     1      37.972  32.242  49.312  0.00  0.00    +0.000 A 
ATOM     13  C   UNL     1      39.000  33.040  48.917  0.00  0.00    +0.000 A 
ATOM     14  C   UNL     1      39.309  33.087  47.565  0.00  0.00    +0.000 A 
ATOM     15  C   UNL     1      38.571  32.333  46.699  0.00  0.00    +0.000 A 
ATOM     16  C   UNL     1      37.542  31.529  47.059  0.00  0.00    +0.000 A 
BRANCH  10  17
ATOM     17  O   UNL     1      35.917  30.662  50.214  0.00  0.00    +0.000 OA
BRANCH  17  18
ATOM     18  C   UNL     1      36.417  29.632  51.034  0.00  0.00    +0.000 C 
ATOM     19  F   UNL     1      37.233  28.733  50.408  0.00  0.00    +0.000 F 
ATOM     20  F   UNL     1      37.199  30.227  52.018  0.00  0.00    +0.000 F 
ATOM     21  F   UNL     1      35.315  28.992  51.587  0.00  0.00    +0.000 F 
ENDBRANCH  17  18
ENDBRANCH  10  17
ENDBRANCH   5   7
BRANCH   3  22
ATOM     22  N   UNL     1      39.616  30.232  42.114  0.00  0.00    +0.000 N 
ATOM     23  C   UNL     1      40.745  29.926  42.909  0.00  0.00    +0.000 C 
ATOM     24  N   UNL     1      40.959  30.652  43.967  0.00  0.00    +0.000 NA
ATOM     25  N   UNL     1      41.612  28.857  42.568  0.00  0.00    +0.000 N 
ATOM     26  H   UNL     1      41.697  30.537  44.649  0.00  0.00    +0.000 HD
ATOM     27  H   UNL     1      39.708  30.185  41.089  0.00  0.00    +0.000 HD
ATOM     28  H   UNL     1      42.430  28.648  43.159  0.00  0.00    +0.000 HD
ATOM     29  H   UNL     1      41.424  28.289  41.730  0.00  0.00    +0.000 HD
ENDBRANCH   3  22
BRANCH   2  30
ATOM     30  C   UNL     1      37.355  31.119  40.486  0.00  0.00    +0.000 C 
ATOM     31  O   UNL     1      37.967  30.512  39.614  0.00  0.00    +0.000 OA
BRANCH  30  32
ATOM     32  O   UNL     1      36.597  32.079  39.842  0.00  0.00    +0.000 OA
ATOM     33  H   UNL     1      36.632  32.158  38.856  0.00  0.00    +0.000 HD
ENDBRANCH  30  32
ENDBRANCH   2  30
TORSDOF 6
