REMARK  Name = 
REMARK  2 active torsions:
REMARK  status: ('A' for Active; 'I' for Inactive)
REMARK    1  A    between atoms: C_1  and  O_18
REMARK    2  A    between atoms: O_18  and  C_19
REMARK                            x       y       z     vdW  Elec       q    Type
REMARK                         _______ _______ _______ _____ _____    ______ ____
ROOT
ATOM      1  C   UNL     1      37.561  30.345  49.163  0.00  0.00    +0.000 A 
ATOM      2  C   UNL     1      37.809  31.447  50.014  0.00  0.00    +0.000 A 
ATOM      3  C   UNL     1      38.504  32.545  49.506  0.00  0.00    +0.000 A 
ATOM      4  N   UNL     1      38.915  32.504  48.212  0.00  0.00    +0.000 NA
ATOM      5  C   UNL     1      38.661  31.441  47.433  0.00  0.00    +0.000 A 
ATOM      6  N   UNL     1      37.999  30.373  47.883  0.00  0.00    +0.000 NA
ATOM      7  N   UNL     1      39.132  31.492  46.090  0.00  0.00    +0.000 N 
ATOM      8  C   UNL     1      40.409  31.093  45.822  0.00  0.00    +0.000 A 
ATOM      9  N   UNL     1      40.663  31.215  44.506  0.00  0.00    +0.000 NA
ATOM     10  C   UNL     1      39.574  31.687  43.912  0.00  0.00    +0.000 A 
ATOM     11  C   UNL     1      39.178  32.029  42.627  0.00  0.00    +0.000 A 
ATOM     12  O   UNL     1      40.058  31.869  41.727  0.00  0.00    +0.000 OA
ATOM     13  N   UNL     1      37.933  32.494  42.420  0.00  0.00    +0.000 N 
ATOM     14  C   UNL     1      37.052  32.640  43.416  0.00  0.00    +0.000 A 
ATOM     15  N   UNL     1      35.800  33.146  42.960  0.00  0.00    +0.000 N 
ATOM     16  N   UNL     1      37.393  32.317  44.693  0.00  0.00    +0.000 NA
ATOM     17  C   UNL     1      38.642  31.851  44.906  0.00  0.00    +0.000 A 
ATOM     18  H   UNL     1      37.648  32.746  41.463  0.00  0.00    +0.000 HD
ATOM     19  H   UNL     1      35.034  33.304  43.630  0.00  0.00    +0.000 HD
ATOM     20  H   UNL     1      35.661  33.353  41.961  0.00  0.00    +0.000 HD
ENDROOT
BRANCH   1  21
ATOM     21  O   UNL     1      36.877  29.273  49.670  0.00  0.00    +0.000 OA
BRANCH  21  22
ATOM     22  C   UNL     1      35.583  29.315  50.200  0.00  0.00    +0.000 C 
ATOM     23  F   UNL     1      35.554  29.286  51.579  0.00  0.00    +0.000 F 
ATOM     24  F   UNL     1      34.818  30.353  49.721  0.00  0.00    +0.000 F 
ATOM     25  F   UNL     1      34.952  28.145  49.765  0.00  0.00    +0.000 F 
ENDBRANCH  21  22
ENDBRANCH   1  21
TORSDOF 2
