REMARK  Name = 
REMARK  1 active torsions:
REMARK  status: ('A' for Active; 'I' for Inactive)
REMARK    1  A    between atoms: C_1  and  C_13
REMARK                            x       y       z     vdW  Elec       q    Type
REMARK                         _______ _______ _______ _____ _____    ______ ____
ROOT
ATOM      1  C   UNL     1      35.503  29.178  49.433  0.00  0.00    +0.000 A 
ATOM      2  C   UNL     1      35.625  30.184  48.479  0.00  0.00    +0.000 A 
ATOM      3  C   UNL     1      34.657  30.243  47.483  0.00  0.00    +0.000 A 
ATOM      4  N   UNL     1      33.652  29.336  47.477  0.00  0.00    +0.000 NA
ATOM      5  C   UNL     1      33.562  28.363  48.426  0.00  0.00    +0.000 A 
ATOM      6  N   UNL     1      34.484  28.283  49.400  0.00  0.00    +0.000 NA
ATOM      7  N   UNL     1      32.488  27.431  48.379  0.00  0.00    +0.000 N 
ATOM      8  C   UNL     1      31.219  27.650  49.047  0.00  0.00    +0.000 C 
ATOM      9  C   UNL     1      30.169  27.644  47.934  0.00  0.00    +0.000 C 
ATOM     10  N   UNL     1      30.208  26.313  47.364  0.00  0.00    +0.000 NA
ATOM     11  C   UNL     1      31.459  26.114  46.669  0.00  0.00    +0.000 C 
ATOM     12  C   UNL     1      32.634  26.194  47.638  0.00  0.00    +0.000 C 
ATOM     13  H   UNL     1      30.121  25.616  48.117  0.00  0.00    +0.000 HD
ENDROOT
BRANCH   2  14
ATOM     14  C   UNL     1      36.743  31.103  48.582  0.00  0.00    +0.000 A 
ATOM     15  C   UNL     1      36.977  31.843  49.712  0.00  0.00    +0.000 A 
ATOM     16  C   UNL     1      38.087  32.691  49.684  0.00  0.00    +0.000 A 
ATOM     17  N   UNL     1      38.902  32.801  48.625  0.00  0.00    +0.000 NA
ATOM     18  C   UNL     1      38.626  32.054  47.541  0.00  0.00    +0.000 A 
ATOM     19  N   UNL     1      37.554  31.210  47.520  0.00  0.00    +0.000 NA
ATOM     20  N   UNL     1      39.463  32.136  46.389  0.00  0.00    +0.000 N 
ATOM     21  C   UNL     1      39.982  33.128  45.637  0.00  0.00    +0.000 A 
ATOM     22  N   UNL     1      40.712  32.576  44.658  0.00  0.00    +0.000 NA
ATOM     23  C   UNL     1      40.633  31.215  44.822  0.00  0.00    +0.000 A 
ATOM     24  N   UNL     1      39.848  30.947  45.909  0.00  0.00    +0.000 NA
ENDBRANCH   2  14
TORSDOF 1
