REMARK  Name = 
REMARK  6 active torsions:
REMARK  status: ('A' for Active; 'I' for Inactive)
REMARK    1  A    between atoms: C_1  and  C_5
REMARK    2  A    between atoms: C_1  and  C_13
REMARK    3  A    between atoms: C_1  and  C_14
REMARK    4  A    between atoms: C_2  and  C_11
REMARK    5  A    between atoms: C_14  and  O_15
REMARK    6  A    between atoms: O_15  and  C_16
REMARK                            x       y       z     vdW  Elec       q    Type
REMARK                         _______ _______ _______ _____ _____    ______ ____
ROOT
ATOM      1  C   UNL     1      32.413  27.865  47.844  0.00  0.00    +0.000 C 
ATOM      2  C   UNL     1      31.790  28.610  46.748  0.00  0.00    +0.000 C 
ENDROOT
BRANCH   1   6
ATOM      3  C   UNL     1      35.750  30.120  48.490  0.00  0.00    +0.000 A 
ATOM      4  C   UNL     1      35.630  29.022  49.358  0.00  0.00    +0.000 A 
ATOM      5  C   UNL     1      34.548  28.238  49.199  0.00  0.00    +0.000 A 
ATOM      6  C   UNL     1      33.669  28.530  48.259  0.00  0.00    +0.000 A 
ATOM      7  S   UNL     1      34.292  30.033  47.431  0.00  0.00    +0.000 S 
BRANCH   3  12
ATOM      8  C   UNL     1      37.966  32.883  49.498  0.00  0.00    +0.000 A 
ATOM      9  C   UNL     1      38.864  32.971  48.425  0.00  0.00    +0.000 A 
ATOM     10  C   UNL     1      38.693  32.088  47.379  0.00  0.00    +0.000 A 
ATOM     11  N   UNL     1      37.678  31.185  47.434  0.00  0.00    +0.000 NA
ATOM     12  C   UNL     1      36.854  31.129  48.455  0.00  0.00    +0.000 A 
ATOM     13  N   UNL     1      36.957  31.966  49.525  0.00  0.00    +0.000 NA
ENDBRANCH   3  12
ENDBRANCH   1   6
BRANCH   1  14
ATOM     14  C   UNL     1      31.538  27.685  49.064  0.00  0.00    +0.000 C 
BRANCH  14  15
ATOM     15  O   UNL     1      30.222  27.985  48.802  0.00  0.00    +0.000 OA
BRANCH  15  16
ATOM     16  C   UNL     1      29.172  27.796  49.678  0.00  0.00    +0.000 A 
ATOM     17  N   UNL     1      29.158  27.071  50.809  0.00  0.00    +0.000 NA
ATOM     18  C   UNL     1      28.043  26.988  51.557  0.00  0.00    +0.000 A 
ATOM     19  N   UNL     1      26.874  27.600  51.259  0.00  0.00    +0.000 NA
ATOM     20  C   UNL     1      26.853  28.332  50.136  0.00  0.00    +0.000 A 
ATOM     21  C   UNL     1      25.679  28.988  49.773  0.00  0.00    +0.000 A 
ATOM     22  C   UNL     1      25.602  29.756  48.628  0.00  0.00    +0.000 A 
ATOM     23  C   UNL     1      26.725  29.867  47.829  0.00  0.00    +0.000 A 
ATOM     24  C   UNL     1      27.873  29.204  48.219  0.00  0.00    +0.000 A 
ATOM     25  C   UNL     1      27.997  28.431  49.348  0.00  0.00    +0.000 A 
ENDBRANCH  15  16
ENDBRANCH  14  15
ENDBRANCH   1  14
TORSDOF 5
