REMARK  Name = 
REMARK  6 active torsions:
REMARK  status: ('A' for Active; 'I' for Inactive)
REMARK    1  A    between atoms: C_1  and  C_11
REMARK    2  A    between atoms: C_6  and  C_17
REMARK    3  A    between atoms: C_8  and  C_13
REMARK    4  A    between atoms: C_17  and  C_18
REMARK    5  A    between atoms: C_18  and  C_19
REMARK    6  A    between atoms: N_22  and  C_24
REMARK                            x       y       z     vdW  Elec       q    Type
REMARK                         _______ _______ _______ _____ _____    ______ ____
ROOT
ATOM      1  C   UNL     1      31.738  26.233  47.609  0.00  0.00    +0.000 A 
ATOM      2  C   UNL     1      31.460  25.099  46.933  0.00  0.00    +0.000 A 
ATOM      3  C   UNL     1      32.423  24.299  46.349  0.00  0.00    +0.000 A 
ATOM      4  C   UNL     1      33.732  24.726  46.492  0.00  0.00    +0.000 A 
ATOM      5  C   UNL     1      34.035  25.877  47.177  0.00  0.00    +0.000 A 
ATOM      6  C   UNL     1      33.045  26.647  47.745  0.00  0.00    +0.000 A 
ENDROOT
BRANCH   1  11
ATOM      7  C   UNL     1      29.346  27.683  50.013  0.00  0.00    +0.000 A 
ATOM      8  C   UNL     1      28.677  28.653  49.221  0.00  0.00    +0.000 A 
ATOM      9  C   UNL     1      29.073  28.772  47.890  0.00  0.00    +0.000 A 
ATOM     10  N   UNL     1      30.076  27.959  47.415  0.00  0.00    +0.000 NA
ATOM     11  C   UNL     1      30.684  27.049  48.212  0.00  0.00    +0.000 A 
ATOM     12  N   UNL     1      30.312  26.928  49.485  0.00  0.00    +0.000 NA
BRANCH   8  13
ATOM     13  C   UNL     1      27.601  29.511  49.765  0.00  0.00    +0.000 C 
ATOM     14  F   UNL     1      28.066  30.605  50.440  0.00  0.00    +0.000 F 
ATOM     15  F   UNL     1      26.777  28.811  50.634  0.00  0.00    +0.000 F 
ATOM     16  F   UNL     1      26.805  29.976  48.707  0.00  0.00    +0.000 F 
ENDBRANCH   8  13
ENDBRANCH   1  11
BRANCH   6  17
ATOM     17  C   UNL     1      33.330  27.890  48.488  0.00  0.00    +0.000 C 
BRANCH  17  18
ATOM     18  C   UNL     1      33.837  29.012  47.656  0.00  0.00    +0.000 C 
BRANCH  18  19
ATOM     19  C   UNL     1      35.084  29.540  48.209  0.00  0.00    +0.000 A 
ATOM     20  C   UNL     1      35.764  28.949  49.257  0.00  0.00    +0.000 A 
ATOM     21  C   UNL     1      36.896  29.687  49.542  0.00  0.00    +0.000 A 
ATOM     22  N   UNL     1      36.861  30.724  48.637  0.00  0.00    +0.000 N 
ATOM     23  N   UNL     1      35.799  30.637  47.857  0.00  0.00    +0.000 NA
BRANCH  22  24
ATOM     24  C   UNL     1      37.802  31.784  48.496  0.00  0.00    +0.000 A 
ATOM     25  C   UNL     1      38.481  31.810  47.294  0.00  0.00    +0.000 A 
ATOM     26  C   UNL     1      39.420  32.773  47.012  0.00  0.00    +0.000 A 
ATOM     27  C   UNL     1      39.674  33.734  47.981  0.00  0.00    +0.000 A 
ATOM     28  C   UNL     1      38.987  33.704  49.194  0.00  0.00    +0.000 A 
ATOM     29  C   UNL     1      38.036  32.726  49.476  0.00  0.00    +0.000 A 
ENDBRANCH  22  24
ENDBRANCH  18  19
ENDBRANCH  17  18
ENDBRANCH   6  17
TORSDOF 6
