REMARK  Name = 
REMARK  4 active torsions:
REMARK  status: ('A' for Active; 'I' for Inactive)
REMARK    1  A    between atoms: C_2  and  C_7
REMARK    2  A    between atoms: C_5  and  C_17
REMARK    3  A    between atoms: C_19  and  S_20
REMARK    4  A    between atoms: S_20  and  C_21
REMARK                            x       y       z     vdW  Elec       q    Type
REMARK                         _______ _______ _______ _____ _____    ______ ____
ROOT
ATOM      1  C   UNL     1      35.477  30.332  47.215  0.00  0.00    +0.000 A 
ATOM      2  C   UNL     1      36.538  30.540  48.081  0.00  0.00    +0.000 A 
ATOM      3  C   UNL     1      36.616  29.602  49.154  0.00  0.00    +0.000 A 
ATOM      4  N   UNL     1      35.690  28.609  49.258  0.00  0.00    +0.000 NA
ATOM      5  C   UNL     1      34.694  28.472  48.383  0.00  0.00    +0.000 A 
ATOM      6  N   UNL     1      34.593  29.336  47.365  0.00  0.00    +0.000 NA
ENDROOT
BRANCH   2   7
ATOM      7  C   UNL     1      37.568  31.555  48.066  0.00  0.00    +0.000 A 
ATOM      8  C   UNL     1      37.506  32.346  49.184  0.00  0.00    +0.000 A 
ATOM      9  C   UNL     1      38.408  33.394  49.380  0.00  0.00    +0.000 A 
ATOM     10  C   UNL     1      39.380  33.639  48.432  0.00  0.00    +0.000 A 
ATOM     11  C   UNL     1      39.429  32.832  47.312  0.00  0.00    +0.000 A 
ATOM     12  C   UNL     1      40.371  32.991  46.291  0.00  0.00    +0.000 A 
ATOM     13  C   UNL     1      40.367  32.156  45.204  0.00  0.00    +0.000 A 
ATOM     14  C   UNL     1      39.456  31.144  45.066  0.00  0.00    +0.000 A 
ATOM     15  C   UNL     1      38.515  30.974  46.069  0.00  0.00    +0.000 A 
ATOM     16  C   UNL     1      38.536  31.816  47.147  0.00  0.00    +0.000 A 
ENDBRANCH   2   7
BRANCH   5  17
ATOM     17  C   UNL     1      33.722  27.356  48.560  0.00  0.00    +0.000 C 
ATOM     18  C   UNL     1      32.268  27.705  48.698  0.00  0.00    +0.000 C 
ATOM     19  C   UNL     1      32.780  27.024  47.459  0.00  0.00    +0.000 C 
BRANCH  19  20
ATOM     20  S   UNL     1      32.404  25.309  47.122  0.00  0.00    +0.000 S 
BRANCH  20  21
ATOM     21  C   UNL     1      33.882  24.315  46.899  0.00  0.00    +0.000 A 
ATOM     22  C   UNL     1      34.116  23.387  47.899  0.00  0.00    +0.000 A 
ATOM     23  C   UNL     1      35.208  22.575  47.839  0.00  0.00    +0.000 A 
ATOM     24  C   UNL     1      36.050  22.722  46.756  0.00  0.00    +0.000 A 
ATOM     25  C   UNL     1      35.852  23.628  45.745  0.00  0.00    +0.000 A 
ATOM     26  C   UNL     1      36.714  23.755  44.666  0.00  0.00    +0.000 A 
ATOM     27  C   UNL     1      36.424  24.697  43.705  0.00  0.00    +0.000 A 
ATOM     28  C   UNL     1      35.297  25.511  43.799  0.00  0.00    +0.000 A 
ATOM     29  C   UNL     1      34.429  25.401  44.861  0.00  0.00    +0.000 A 
ATOM     30  C   UNL     1      34.733  24.456  45.811  0.00  0.00    +0.000 A 
ENDBRANCH  20  21
ENDBRANCH  19  20
ENDBRANCH   5  17
TORSDOF 4
