REMARK  Name = 
REMARK  6 active torsions:
REMARK  status: ('A' for Active; 'I' for Inactive)
REMARK    1  A    between atoms: C_1  and  C_11
REMARK    2  A    between atoms: C_6  and  C_17
REMARK    3  A    between atoms: C_8  and  C_13
REMARK    4  A    between atoms: C_17  and  C_18
REMARK    5  A    between atoms: C_18  and  C_19
REMARK    6  A    between atoms: N_22  and  C_27
REMARK                            x       y       z     vdW  Elec       q    Type
REMARK                         _______ _______ _______ _____ _____    ______ ____
ROOT
ATOM      1  C   UNL     1      31.706  26.247  47.580  0.00  0.00    +0.000 A 
ATOM      2  C   UNL     1      31.434  25.148  46.840  0.00  0.00    +0.000 A 
ATOM      3  C   UNL     1      32.401  24.376  46.239  0.00  0.00    +0.000 A 
ATOM      4  C   UNL     1      33.710  24.781  46.429  0.00  0.00    +0.000 A 
ATOM      5  C   UNL     1      34.009  25.887  47.173  0.00  0.00    +0.000 A 
ATOM      6  C   UNL     1      33.016  26.639  47.760  0.00  0.00    +0.000 A 
ENDROOT
BRANCH   1  11
ATOM      7  C   UNL     1      29.297  27.582  50.027  0.00  0.00    +0.000 A 
ATOM      8  C   UNL     1      28.630  28.586  49.277  0.00  0.00    +0.000 A 
ATOM      9  C   UNL     1      29.037  28.770  47.949  0.00  0.00    +0.000 A 
ATOM     10  N   UNL     1      30.044  27.981  47.447  0.00  0.00    +0.000 NA
ATOM     11  C   UNL     1      30.644  27.041  48.203  0.00  0.00    +0.000 A 
ATOM     12  N   UNL     1      30.264  26.858  49.466  0.00  0.00    +0.000 NA
BRANCH   8  13
ATOM     13  C   UNL     1      27.547  29.419  49.847  0.00  0.00    +0.000 C 
ATOM     14  F   UNL     1      27.987  30.604  50.364  0.00  0.00    +0.000 F 
ATOM     15  F   UNL     1      26.859  28.748  50.839  0.00  0.00    +0.000 F 
ATOM     16  F   UNL     1      26.625  29.735  48.827  0.00  0.00    +0.000 F 
ENDBRANCH   8  13
ENDBRANCH   1  11
BRANCH   6  17
ATOM     17  C   UNL     1      33.294  27.841  48.572  0.00  0.00    +0.000 C 
BRANCH  17  18
ATOM     18  C   UNL     1      33.815  29.001  47.803  0.00  0.00    +0.000 C 
BRANCH  18  19
ATOM     19  C   UNL     1      35.091  29.456  48.356  0.00  0.00    +0.000 A 
ATOM     20  C   UNL     1      35.701  28.864  49.446  0.00  0.00    +0.000 A 
ATOM     21  C   UNL     1      36.883  29.520  49.720  0.00  0.00    +0.000 A 
ATOM     22  N   UNL     1      36.953  30.511  48.768  0.00  0.00    +0.000 N 
ATOM     23  N   UNL     1      35.898  30.465  47.972  0.00  0.00    +0.000 NA
BRANCH  22  27
ATOM     24  N   UNL     1      39.612  33.639  47.971  0.00  0.00    +0.000 NA
ATOM     25  C   UNL     1      39.288  32.725  46.946  0.00  0.00    +0.000 C 
ATOM     26  C   UNL     1      38.036  31.951  47.102  0.00  0.00    +0.000 C 
ATOM     27  C   UNL     1      37.981  31.510  48.568  0.00  0.00    +0.000 C 
ATOM     28  C   UNL     1      37.722  32.766  49.339  0.00  0.00    +0.000 C 
ATOM     29  C   UNL     1      38.902  33.669  49.171  0.00  0.00    +0.000 C 
ATOM     30  H   UNL     1      39.527  34.579  47.559  0.00  0.00    +0.000 HD
ENDBRANCH  22  27
ENDBRANCH  18  19
ENDBRANCH  17  18
ENDBRANCH   6  17
TORSDOF 6
