REMARK  Name = 
REMARK  3 active torsions:
REMARK  status: ('A' for Active; 'I' for Inactive)
REMARK    1  A    between atoms: C_1  and  C_17
REMARK    2  A    between atoms: C_17  and  C_18
REMARK    3  A    between atoms: C_17  and  O_28
REMARK                            x       y       z     vdW  Elec       q    Type
REMARK                         _______ _______ _______ _____ _____    ______ ____
ROOT
ATOM      1  C   UNL     1      39.065  31.890  46.629  0.00  0.00    +0.000 A 
ATOM      2  C   UNL     1      39.873  32.972  46.243  0.00  0.00    +0.000 A 
ATOM      3  C   UNL     1      40.613  32.906  45.011  0.00  0.00    +0.000 A 
ATOM      4  N   UNL     1      40.460  31.762  44.301  0.00  0.00    +0.000 NA
ATOM      5  C   UNL     1      39.663  30.737  44.707  0.00  0.00    +0.000 A 
ATOM      6  N   UNL     1      38.988  30.804  45.837  0.00  0.00    +0.000 NA
ATOM      7  N   UNL     1      39.571  29.578  43.878  0.00  0.00    +0.000 N 
ATOM      8  C   UNL     1      38.771  28.507  44.092  0.00  0.00    +0.000 A 
ATOM      9  N   UNL     1      38.933  27.578  43.106  0.00  0.00    +0.000 NA
ATOM     10  C   UNL     1      39.861  28.072  42.241  0.00  0.00    +0.000 A 
ATOM     11  C   UNL     1      40.384  27.537  41.082  0.00  0.00    +0.000 A 
ATOM     12  N   UNL     1      41.304  28.254  40.412  0.00  0.00    +0.000 NA
ATOM     13  C   UNL     1      41.663  29.470  40.920  0.00  0.00    +0.000 A 
ATOM     14  N   UNL     1      41.155  30.009  42.062  0.00  0.00    +0.000 NA
ATOM     15  C   UNL     1      40.245  29.316  42.737  0.00  0.00    +0.000 A 
ATOM     16  N   UNL     1      39.952  26.265  40.627  0.00  0.00    +0.000 N 
ATOM     17  H   UNL     1      40.344  25.867  39.761  0.00  0.00    +0.000 HD
ATOM     18  H   UNL     1      39.246  25.739  41.162  0.00  0.00    +0.000 HD
ENDROOT
BRANCH   1  19
ATOM     19  C   UNL     1      38.533  32.086  47.945  0.00  0.00    +0.000 C 
BRANCH  19  20
ATOM     20  C   UNL     1      37.865  31.205  48.900  0.00  0.00    +0.000 A 
ATOM     21  N   UNL     1      38.377  31.081  50.126  0.00  0.00    +0.000 NA
ATOM     22  C   UNL     1      37.830  30.277  51.071  0.00  0.00    +0.000 A 
ATOM     23  N   UNL     1      36.737  29.549  50.848  0.00  0.00    +0.000 NA
ATOM     24  C   UNL     1      36.140  29.605  49.639  0.00  0.00    +0.000 A 
ATOM     25  C   UNL     1      35.016  28.864  49.363  0.00  0.00    +0.000 A 
ATOM     26  C   UNL     1      34.409  28.906  48.144  0.00  0.00    +0.000 A 
ATOM     27  C   UNL     1      34.982  29.731  47.204  0.00  0.00    +0.000 A 
ATOM     28  C   UNL     1      36.106  30.460  47.508  0.00  0.00    +0.000 A 
ATOM     29  C   UNL     1      36.733  30.434  48.722  0.00  0.00    +0.000 A 
ENDBRANCH  19  20
BRANCH  19  30
ATOM     30  O   UNL     1      38.148  33.295  48.353  0.00  0.00    +0.000 OA
ATOM     31  H   UNL     1      38.139  33.322  49.343  0.00  0.00    +0.000 HD
ENDBRANCH  19  30
ENDBRANCH   1  19
TORSDOF 3
