REMARK  Name = 
REMARK  3 active torsions:
REMARK  status: ('A' for Active; 'I' for Inactive)
REMARK    1  A    between atoms: C_3  and  C_7
REMARK    2  A    between atoms: C_5  and  C_23
REMARK    3  A    between atoms: C_17  and  N_22
REMARK                            x       y       z     vdW  Elec       q    Type
REMARK                         _______ _______ _______ _____ _____    ______ ____
ROOT
ATOM      1  C   UNL     1      32.703  25.776  46.856  0.00  0.00    +0.000 A 
ATOM      2  C   UNL     1      33.707  25.043  47.463  0.00  0.00    +0.000 A 
ATOM      3  C   UNL     1      33.525  23.674  47.489  0.00  0.00    +0.000 A 
ATOM      4  N   UNL     1      32.433  23.087  46.954  0.00  0.00    +0.000 NA
ATOM      5  C   UNL     1      31.469  23.837  46.366  0.00  0.00    +0.000 A 
ATOM      6  N   UNL     1      31.638  25.178  46.335  0.00  0.00    +0.000 NA
ATOM      7  N   UNL     1      30.275  23.344  45.767  0.00  0.00    +0.000 N 
ATOM      8  C   UNL     1      29.566  24.089  44.888  0.00  0.00    +0.000 A 
ATOM      9  N   UNL     1      28.477  23.391  44.468  0.00  0.00    +0.000 NA
ATOM     10  C   UNL     1      28.505  22.207  45.085  0.00  0.00    +0.000 A 
ATOM     11  C   UNL     1      27.731  21.065  45.113  0.00  0.00    +0.000 A 
ATOM     12  N   UNL     1      28.039  19.993  45.874  0.00  0.00    +0.000 NA
ATOM     13  C   UNL     1      29.153  20.010  46.654  0.00  0.00    +0.000 A 
ATOM     14  N   UNL     1      29.931  21.108  46.653  0.00  0.00    +0.000 NA
ATOM     15  C   UNL     1      29.623  22.172  45.897  0.00  0.00    +0.000 A 
ENDROOT
BRANCH   1  18
ATOM     16  C   UNL     1      31.944  29.368  46.227  0.00  0.00    +0.000 A 
ATOM     17  C   UNL     1      31.788  27.979  46.271  0.00  0.00    +0.000 A 
ATOM     18  C   UNL     1      32.840  27.226  46.797  0.00  0.00    +0.000 A 
ATOM     19  N   UNL     1      33.946  27.850  47.236  0.00  0.00    +0.000 NA
ATOM     20  C   UNL     1      34.074  29.208  47.182  0.00  0.00    +0.000 A 
ATOM     21  N   UNL     1      33.080  29.953  46.682  0.00  0.00    +0.000 NA
BRANCH  20  22
ATOM     22  C   UNL     1      35.309  29.782  47.680  0.00  0.00    +0.000 A 
ATOM     23  C   UNL     1      36.224  30.461  46.872  0.00  0.00    +0.000 A 
ATOM     24  N   UNL     1      37.261  30.872  47.619  0.00  0.00    +0.000 N 
ATOM     25  C   UNL     1      37.046  30.478  48.899  0.00  0.00    +0.000 A 
ATOM     26  C   UNL     1      37.800  30.646  50.052  0.00  0.00    +0.000 A 
ATOM     27  C   UNL     1      37.307  30.118  51.242  0.00  0.00    +0.000 A 
ATOM     28  C   UNL     1      36.100  29.450  51.251  0.00  0.00    +0.000 A 
ATOM     29  C   UNL     1      35.330  29.273  50.101  0.00  0.00    +0.000 A 
ATOM     30  C   UNL     1      35.838  29.804  48.940  0.00  0.00    +0.000 A 
ATOM     31  H   UNL     1      38.080  31.396  47.279  0.00  0.00    +0.000 HD
ENDBRANCH  20  22
ENDBRANCH   1  18
BRANCH  11  32
ATOM     32  N   UNL     1      26.561  21.018  44.305  0.00  0.00    +0.000 N 
ATOM     33  H   UNL     1      25.966  20.177  44.308  0.00  0.00    +0.000 HD
ATOM     34  H   UNL     1      26.308  21.825  43.717  0.00  0.00    +0.000 HD
ENDBRANCH  11  32
TORSDOF 3
