REMARK  Name = 
REMARK  1 active torsions:
REMARK  status: ('A' for Active; 'I' for Inactive)
REMARK    1  A    between atoms: C_1  and  C_13
REMARK                            x       y       z     vdW  Elec       q    Type
REMARK                         _______ _______ _______ _____ _____    ______ ____
ROOT
ATOM      1  C   UNL     1      36.830  31.124  48.533  0.00  0.00    +0.000 A 
ATOM      2  C   UNL     1      37.000  31.889  49.662  0.00  0.00    +0.000 A 
ATOM      3  C   UNL     1      38.075  32.786  49.653  0.00  0.00    +0.000 A 
ATOM      4  N   UNL     1      38.919  32.923  48.616  0.00  0.00    +0.000 NA
ATOM      5  C   UNL     1      38.698  32.144  47.537  0.00  0.00    +0.000 A 
ATOM      6  N   UNL     1      37.661  31.251  47.498  0.00  0.00    +0.000 NA
ATOM      7  N   UNL     1      39.565  32.244  46.396  0.00  0.00    +0.000 N 
ATOM      8  C   UNL     1      40.051  33.256  45.647  0.00  0.00    +0.000 A 
ATOM      9  N   UNL     1      40.826  32.694  44.703  0.00  0.00    +0.000 NA
ATOM     10  C   UNL     1      40.805  31.348  44.884  0.00  0.00    +0.000 A 
ATOM     11  N   UNL     1      40.008  31.069  45.954  0.00  0.00    +0.000 NA
ENDROOT
BRANCH   1  13
ATOM     12  C   UNL     1      35.764  29.049  49.244  0.00  0.00    +0.000 A 
ATOM     13  C   UNL     1      35.750  30.157  48.422  0.00  0.00    +0.000 A 
ATOM     14  C   UNL     1      34.690  30.289  47.521  0.00  0.00    +0.000 A 
ATOM     15  N   UNL     1      33.734  29.331  47.498  0.00  0.00    +0.000 NA
ATOM     16  C   UNL     1      33.782  28.247  48.328  0.00  0.00    +0.000 A 
ATOM     17  N   UNL     1      34.796  28.107  49.200  0.00  0.00    +0.000 NA
ATOM     18  N   UNL     1      32.723  27.303  48.217  0.00  0.00    +0.000 N 
ATOM     19  C   UNL     1      31.527  27.691  48.741  0.00  0.00    +0.000 A 
ATOM     20  C   UNL     1      30.635  26.660  48.542  0.00  0.00    +0.000 A 
ATOM     21  N   UNL     1      31.309  25.664  47.899  0.00  0.00    +0.000 NA
ATOM     22  C   UNL     1      32.590  26.079  47.709  0.00  0.00    +0.000 A 
ENDBRANCH   1  13
TORSDOF 1
