REMARK  Name = 
REMARK  1 active torsions:
REMARK  status: ('A' for Active; 'I' for Inactive)
REMARK    1  A    between atoms: C_1  and  C_18
REMARK                            x       y       z     vdW  Elec       q    Type
REMARK                         _______ _______ _______ _____ _____    ______ ____
ROOT
ATOM      1  C   UNL     1      37.547  30.885  49.017  0.00  0.00    +0.000 A 
ATOM      2  C   UNL     1      37.636  32.056  49.758  0.00  0.00    +0.000 A 
ATOM      3  C   UNL     1      38.376  33.122  49.253  0.00  0.00    +0.000 A 
ATOM      4  N   UNL     1      38.982  32.961  48.044  0.00  0.00    +0.000 NA
ATOM      5  C   UNL     1      38.880  31.809  47.340  0.00  0.00    +0.000 A 
ATOM      6  N   UNL     1      38.168  30.781  47.825  0.00  0.00    +0.000 NA
ATOM      7  N   UNL     1      39.505  31.618  46.076  0.00  0.00    +0.000 N 
ATOM      8  C   UNL     1      40.741  31.166  45.747  0.00  0.00    +0.000 A 
ATOM      9  N   UNL     1      40.853  31.171  44.391  0.00  0.00    +0.000 NA
ATOM     10  C   UNL     1      39.692  31.624  43.869  0.00  0.00    +0.000 A 
ATOM     11  C   UNL     1      39.263  31.828  42.576  0.00  0.00    +0.000 A 
ATOM     12  O   UNL     1      39.998  31.588  41.590  0.00  0.00    +0.000 OA
ATOM     13  N   UNL     1      38.029  32.300  42.331  0.00  0.00    +0.000 N 
ATOM     14  C   UNL     1      37.213  32.570  43.373  0.00  0.00    +0.000 A 
ATOM     15  N   UNL     1      35.874  33.074  43.284  0.00  0.00    +0.000 N 
ATOM     16  N   UNL     1      37.620  32.375  44.621  0.00  0.00    +0.000 NA
ATOM     17  C   UNL     1      38.860  31.900  44.928  0.00  0.00    +0.000 A 
ATOM     18  H   UNL     1      37.710  32.453  41.364  0.00  0.00    +0.000 HD
ATOM     19  H   UNL     1      35.331  33.248  44.142  0.00  0.00    +0.000 HD
ATOM     20  H   UNL     1      35.455  33.262  42.362  0.00  0.00    +0.000 HD
ENDROOT
BRANCH   1  21
ATOM     21  C   UNL     1      36.751  29.730  49.553  0.00  0.00    +0.000 C 
ATOM     22  F   UNL     1      36.128  29.060  48.510  0.00  0.00    +0.000 F 
ATOM     23  F   UNL     1      37.591  28.949  50.289  0.00  0.00    +0.000 F 
ATOM     24  F   UNL     1      35.753  30.271  50.359  0.00  0.00    +0.000 F 
ENDBRANCH   1  21
TORSDOF 1
