REMARK  Name = 
REMARK  2 active torsions:
REMARK  status: ('A' for Active; 'I' for Inactive)
REMARK    1  A    between atoms: C_3  and  N_17
REMARK    2  A    between atoms: C_5  and  C_7
REMARK                            x       y       z     vdW  Elec       q    Type
REMARK                         _______ _______ _______ _____ _____    ______ ____
ROOT
ATOM      1  C   UNL     1      33.607  26.770  47.703  0.00  0.00    +0.000 A 
ATOM      2  C   UNL     1      32.685  27.348  46.845  0.00  0.00    +0.000 A 
ATOM      3  C   UNL     1      32.713  28.726  46.786  0.00  0.00    +0.000 A 
ATOM      4  N   UNL     1      33.608  29.378  47.543  0.00  0.00    +0.000 NA
ATOM      5  C   UNL     1      34.487  28.853  48.360  0.00  0.00    +0.000 A 
ATOM      6  N   UNL     1      34.446  27.517  48.405  0.00  0.00    +0.000 NA
ENDROOT
BRANCH   3   7
ATOM      7  N   UNL     1      31.860  29.535  45.975  0.00  0.00    +0.000 N 
ATOM      8  C   UNL     1      32.293  30.290  44.941  0.00  0.00    +0.000 A 
ATOM      9  N   UNL     1      31.250  30.937  44.375  0.00  0.00    +0.000 NA
ATOM     10  C   UNL     1      30.142  30.593  45.050  0.00  0.00    +0.000 A 
ATOM     11  C   UNL     1      28.789  30.910  44.961  0.00  0.00    +0.000 A 
ATOM     12  O   UNL     1      28.416  31.708  44.057  0.00  0.00    +0.000 OA
ATOM     13  N   UNL     1      27.938  30.349  45.849  0.00  0.00    +0.000 N 
ATOM     14  C   UNL     1      28.336  29.499  46.813  0.00  0.00    +0.000 A 
ATOM     15  N   UNL     1      27.290  29.017  47.647  0.00  0.00    +0.000 N 
ATOM     16  N   UNL     1      29.647  29.146  46.956  0.00  0.00    +0.000 NA
ATOM     17  C   UNL     1      30.509  29.711  46.061  0.00  0.00    +0.000 A 
ATOM     18  H   UNL     1      26.937  30.584  45.785  0.00  0.00    +0.000 HD
ATOM     19  H   UNL     1      27.502  28.361  48.412  0.00  0.00    +0.000 HD
ATOM     20  H   UNL     1      26.320  29.324  47.486  0.00  0.00    +0.000 HD
ENDBRANCH   3   7
BRANCH   5  21
ATOM     21  C   UNL     1      35.496  29.404  49.226  0.00  0.00    +0.000 A 
ATOM     22  C   UNL     1      35.563  29.147  50.607  0.00  0.00    +0.000 A 
ATOM     23  C   UNL     1      36.516  29.662  51.448  0.00  0.00    +0.000 A 
ATOM     24  C   UNL     1      37.483  30.484  50.956  0.00  0.00    +0.000 A 
ATOM     25  C   UNL     1      37.488  30.787  49.609  0.00  0.00    +0.000 A 
ATOM     26  C   UNL     1      38.482  31.619  49.162  0.00  0.00    +0.000 A 
ATOM     27  C   UNL     1      38.544  31.956  47.845  0.00  0.00    +0.000 A 
ATOM     28  C   UNL     1      37.580  31.434  47.002  0.00  0.00    +0.000 A 
ATOM     29  C   UNL     1      36.608  30.605  47.505  0.00  0.00    +0.000 A 
ATOM     30  C   UNL     1      36.513  30.246  48.807  0.00  0.00    +0.000 A 
ENDBRANCH   5  21
TORSDOF 2
