REMARK  Name = 
REMARK  4 active torsions:
REMARK  status: ('A' for Active; 'I' for Inactive)
REMARK    1  A    between atoms: C_1  and  C_11
REMARK    2  A    between atoms: C_11  and  C_12
REMARK    3  A    between atoms: C_11  and  O_19
REMARK    4  A    between atoms: C_16  and  O_18
REMARK                            x       y       z     vdW  Elec       q    Type
REMARK                         _______ _______ _______ _____ _____    ______ ____
ROOT
ATOM      1  C   UNL     1      38.394  32.011  48.298  0.00  0.00    +0.000 C 
ENDROOT
BRANCH   1   2
ATOM      2  C   UNL     1      37.685  31.145  49.237  0.00  0.00    +0.000 A 
ATOM      3  N   UNL     1      38.164  30.999  50.468  0.00  0.00    +0.000 NA
ATOM      4  C   UNL     1      37.577  30.213  51.405  0.00  0.00    +0.000 A 
ATOM      5  N   UNL     1      36.464  29.525  51.156  0.00  0.00    +0.000 NA
ATOM      6  C   UNL     1      35.886  29.602  49.930  0.00  0.00    +0.000 A 
ATOM      7  C   UNL     1      34.752  28.902  49.654  0.00  0.00    +0.000 A 
ATOM      8  C   UNL     1      34.166  28.968  48.426  0.00  0.00    +0.000 A 
ATOM      9  C   UNL     1      34.784  29.779  47.483  0.00  0.00    +0.000 A 
ATOM     10  C   UNL     1      35.924  30.464  47.808  0.00  0.00    +0.000 A 
ATOM     11  C   UNL     1      36.533  30.413  49.037  0.00  0.00    +0.000 A 
ENDBRANCH   1   2
BRANCH   1  12
ATOM     12  C   UNL     1      38.920  31.814  46.978  0.00  0.00    +0.000 A 
ATOM     13  C   UNL     1      39.616  32.954  46.543  0.00  0.00    +0.000 A 
ATOM     14  C   UNL     1      40.347  32.895  45.300  0.00  0.00    +0.000 A 
ATOM     15  N   UNL     1      40.299  31.714  44.637  0.00  0.00    +0.000 NA
ATOM     16  C   UNL     1      39.607  30.642  45.101  0.00  0.00    +0.000 A 
ATOM     17  N   UNL     1      38.930  30.679  46.241  0.00  0.00    +0.000 NA
BRANCH  16  18
ATOM     18  O   UNL     1      39.664  29.513  44.293  0.00  0.00    +0.000 OA
ATOM     19  H   UNL     1      39.186  28.688  44.560  0.00  0.00    +0.000 HD
ENDBRANCH  16  18
ENDBRANCH   1  12
BRANCH   1  20
ATOM     20  O   UNL     1      38.055  33.230  48.717  0.00  0.00    +0.000 OA
ATOM     21  H   UNL     1      38.050  33.249  49.707  0.00  0.00    +0.000 HD
ENDBRANCH   1  20
TORSDOF 4
