REMARK  Name = 
REMARK  2 active torsions:
REMARK  status: ('A' for Active; 'I' for Inactive)
REMARK    1  A    between atoms: C_3  and  C_16
REMARK    2  A    between atoms: C_9  and  C_10
REMARK                            x       y       z     vdW  Elec       q    Type
REMARK                         _______ _______ _______ _____ _____    ______ ____
ROOT
ATOM      1  C   UNL     1      37.824  32.717  49.762  0.00  0.00    +0.000 A 
ATOM      2  C   UNL     1      38.671  32.979  48.667  0.00  0.00    +0.000 A 
ATOM      3  C   UNL     1      38.454  32.234  47.516  0.00  0.00    +0.000 A 
ATOM      4  N   UNL     1      37.466  31.311  47.497  0.00  0.00    +0.000 NA
ATOM      5  C   UNL     1      36.671  31.083  48.566  0.00  0.00    +0.000 A 
ATOM      6  N   UNL     1      36.849  31.787  49.701  0.00  0.00    +0.000 NA
ATOM      7  N   UNL     1      35.659  30.091  48.447  0.00  0.00    +0.000 N 
ATOM      8  C   UNL     1      34.714  30.091  47.485  0.00  0.00    +0.000 A 
ATOM      9  C   UNL     1      33.764  29.091  47.437  0.00  0.00    +0.000 A 
ATOM     10  C   UNL     1      32.717  29.092  46.368  0.00  0.00    +0.000 C 
ATOM     11  C   UNL     1      33.773  28.085  48.372  0.00  0.00    +0.000 A 
ATOM     12  O   UNL     1      32.918  27.161  48.350  0.00  0.00    +0.000 OA
ATOM     13  N   UNL     1      34.708  28.068  49.339  0.00  0.00    +0.000 N 
ATOM     14  C   UNL     1      35.594  29.076  49.315  0.00  0.00    +0.000 A 
ATOM     15  O   UNL     1      36.474  29.056  50.230  0.00  0.00    +0.000 OA
ATOM     16  H   UNL     1      34.742  27.327  50.054  0.00  0.00    +0.000 HD
ENDROOT
BRANCH   3  17
ATOM     17  C   UNL     1      39.272  32.415  46.305  0.00  0.00    +0.000 A 
ATOM     18  N   UNL     1      40.185  33.333  45.947  0.00  0.00    +0.000 NA
ATOM     19  O   UNL     1      40.643  33.064  44.754  0.00  0.00    +0.000 OA
ATOM     20  C   UNL     1      40.043  31.986  44.330  0.00  0.00    +0.000 A 
ATOM     21  N   UNL     1      39.163  31.526  45.266  0.00  0.00    +0.000 NA
ATOM     22  N   UNL     1      40.226  31.320  43.074  0.00  0.00    +0.000 N 
ATOM     23  N   UNL     1      39.847  31.864  41.915  0.00  0.00    +0.000 NA
ATOM     24  C   UNL     1      40.146  31.013  40.917  0.00  0.00    +0.000 A 
ATOM     25  C   UNL     1      40.736  29.899  41.500  0.00  0.00    +0.000 A 
ATOM     26  C   UNL     1      40.784  30.101  42.881  0.00  0.00    +0.000 A 
ENDBRANCH   3  17
TORSDOF 1
