REMARK  Name = 
REMARK  5 active torsions:
REMARK  status: ('A' for Active; 'I' for Inactive)
REMARK    1  A    between atoms: C_1  and  C_15
REMARK    2  A    between atoms: C_4  and  O_27
REMARK    3  A    between atoms: C_12  and  C_22
REMARK    4  A    between atoms: C_13  and  N_17
REMARK    5  A    between atoms: O_27  and  C_28
REMARK                            x       y       z     vdW  Elec       q    Type
REMARK                         _______ _______ _______ _____ _____    ______ ____
ROOT
ATOM      1  C   UNL     1      36.156  31.366  42.603  0.00  0.00    +0.000 A 
ATOM      2  C   UNL     1      37.328  31.043  41.918  0.00  0.00    +0.000 A 
ATOM      3  C   UNL     1      38.394  30.621  42.659  0.00  0.00    +0.000 A 
ATOM      4  N   UNL     1      38.203  30.564  43.958  0.00  0.00    +0.000 NA
ATOM      5  C   UNL     1      37.160  30.842  44.674  0.00  0.00    +0.000 A 
ATOM      6  N   UNL     1      36.142  31.248  43.925  0.00  0.00    +0.000 NA
ENDROOT
BRANCH   5   7
ATOM      7  C   UNL     1      36.856  30.811  46.084  0.00  0.00    +0.000 A 
ATOM      8  C   UNL     1      35.830  30.047  46.638  0.00  0.00    +0.000 A 
ATOM      9  C   UNL     1      35.513  29.991  47.957  0.00  0.00    +0.000 A 
ATOM     10  C   UNL     1      36.230  30.727  48.859  0.00  0.00    +0.000 A 
ATOM     11  C   UNL     1      37.237  31.491  48.398  0.00  0.00    +0.000 A 
ATOM     12  C   UNL     1      37.955  32.230  49.314  0.00  0.00    +0.000 A 
ATOM     13  C   UNL     1      38.989  33.027  48.928  0.00  0.00    +0.000 A 
ATOM     14  C   UNL     1      39.307  33.079  47.580  0.00  0.00    +0.000 A 
ATOM     15  C   UNL     1      38.572  32.333  46.705  0.00  0.00    +0.000 A 
ATOM     16  C   UNL     1      37.546  31.535  47.052  0.00  0.00    +0.000 A 
BRANCH  10  17
ATOM     17  O   UNL     1      35.888  30.653  50.192  0.00  0.00    +0.000 OA
BRANCH  17  18
ATOM     18  C   UNL     1      36.409  29.631  51.017  0.00  0.00    +0.000 C 
ATOM     19  F   UNL     1      37.226  28.729  50.392  0.00  0.00    +0.000 F 
ATOM     20  F   UNL     1      37.189  30.234  51.991  0.00  0.00    +0.000 F 
ATOM     21  F   UNL     1      35.309  28.974  51.579  0.00  0.00    +0.000 F 
ENDBRANCH  17  18
ENDBRANCH  10  17
ENDBRANCH   5   7
BRANCH   3  22
ATOM     22  N   UNL     1      39.640  30.252  42.114  0.00  0.00    +0.000 N 
ATOM     23  C   UNL     1      40.760  29.924  42.914  0.00  0.00    +0.000 C 
ATOM     24  N   UNL     1      40.977  30.632  43.982  0.00  0.00    +0.000 NA
ATOM     25  N   UNL     1      41.614  28.850  42.561  0.00  0.00    +0.000 N 
ATOM     26  H   UNL     1      41.707  30.495  44.668  0.00  0.00    +0.000 HD
ATOM     27  H   UNL     1      39.740  30.220  41.089  0.00  0.00    +0.000 HD
ATOM     28  H   UNL     1      42.426  28.622  43.152  0.00  0.00    +0.000 HD
ATOM     29  H   UNL     1      41.423  28.297  41.713  0.00  0.00    +0.000 HD
ENDBRANCH   3  22
BRANCH   2  30
ATOM     30  C   UNL     1      37.405  31.155  40.470  0.00  0.00    +0.000 A 
ATOM     31  N   UNL     1      37.922  30.177  39.710  0.00  0.00    +0.000 NA
ATOM     32  O   UNL     1      37.900  30.466  38.448  0.00  0.00    +0.000 OA
ATOM     33  C   UNL     1      37.365  31.654  38.307  0.00  0.00    +0.000 A 
ATOM     34  N   UNL     1      37.069  32.061  39.548  0.00  0.00    +0.000 NA
ENDBRANCH   2  30
TORSDOF 5
