REMARK  Name = 
REMARK  4 active torsions:
REMARK  status: ('A' for Active; 'I' for Inactive)
REMARK    1  A    between atoms: C_1  and  C_2
REMARK    2  A    between atoms: C_1  and  C_12
REMARK    3  A    between atoms: C_1  and  O_27
REMARK    4  A    between atoms: C_16  and  C_18
REMARK                            x       y       z     vdW  Elec       q    Type
REMARK                         _______ _______ _______ _____ _____    ______ ____
ROOT
ATOM      1  C   UNL     1      38.943  32.073  46.705  0.00  0.00    +0.000 A 
ATOM      2  C   UNL     1      39.933  33.025  46.416  0.00  0.00    +0.000 A 
ATOM      3  C   UNL     1      40.622  32.964  45.157  0.00  0.00    +0.000 A 
ATOM      4  N   UNL     1      40.250  31.965  44.323  0.00  0.00    +0.000 NA
ATOM      5  C   UNL     1      39.279  31.063  44.642  0.00  0.00    +0.000 A 
ATOM      6  N   UNL     1      38.650  31.120  45.796  0.00  0.00    +0.000 NA
ENDROOT
BRANCH   5   7
ATOM      7  C   UNL     1      38.915  30.003  43.701  0.00  0.00    +0.000 A 
ATOM      8  C   UNL     1      37.699  29.359  43.573  0.00  0.00    +0.000 A 
ATOM      9  N   UNL     1      37.766  28.445  42.591  0.00  0.00    +0.000 N 
ATOM     10  C   UNL     1      39.010  28.487  42.078  0.00  0.00    +0.000 A 
ATOM     11  C   UNL     1      39.590  27.765  41.065  0.00  0.00    +0.000 A 
ATOM     12  C   UNL     1      40.902  27.976  40.696  0.00  0.00    +0.000 A 
ATOM     13  C   UNL     1      41.679  28.938  41.352  0.00  0.00    +0.000 A 
ATOM     14  C   UNL     1      41.063  29.644  42.364  0.00  0.00    +0.000 A 
ATOM     15  C   UNL     1      39.746  29.446  42.748  0.00  0.00    +0.000 A 
ATOM     16  H   UNL     1      37.003  27.824  42.285  0.00  0.00    +0.000 HD
ENDBRANCH   5   7
BRANCH   1  17
ATOM     17  C   UNL     1      38.488  32.212  48.062  0.00  0.00    +0.000 C 
BRANCH  17  18
ATOM     18  C   UNL     1      37.862  31.284  49.003  0.00  0.00    +0.000 A 
ATOM     19  N   UNL     1      38.399  31.139  50.213  0.00  0.00    +0.000 NA
ATOM     20  C   UNL     1      37.903  30.280  51.146  0.00  0.00    +0.000 A 
ATOM     21  N   UNL     1      36.832  29.510  50.916  0.00  0.00    +0.000 NA
ATOM     22  C   UNL     1      36.221  29.585  49.727  0.00  0.00    +0.000 A 
ATOM     23  C   UNL     1      35.118  28.825  49.416  0.00  0.00    +0.000 A 
ATOM     24  C   UNL     1      34.480  28.883  48.226  0.00  0.00    +0.000 A 
ATOM     25  C   UNL     1      34.999  29.761  47.321  0.00  0.00    +0.000 A 
ATOM     26  C   UNL     1      36.101  30.520  47.625  0.00  0.00    +0.000 A 
ATOM     27  C   UNL     1      36.762  30.475  48.816  0.00  0.00    +0.000 A 
ENDBRANCH  17  18
BRANCH  17  28
ATOM     28  O   UNL     1      38.149  33.397  48.552  0.00  0.00    +0.000 OA
ATOM     29  H   UNL     1      38.160  33.360  49.541  0.00  0.00    +0.000 HD
ENDBRANCH  17  28
ENDBRANCH   1  17
TORSDOF 4
