REMARK  Name = 
REMARK  1 active torsions:
REMARK  status: ('A' for Active; 'I' for Inactive)
REMARK    1  A    between atoms: C_1  and  C_13
REMARK                            x       y       z     vdW  Elec       q    Type
REMARK                         _______ _______ _______ _____ _____    ______ ____
ROOT
ATOM      1  C   UNL     1      35.732  29.030  49.242  0.00  0.00    +0.000 A 
ATOM      2  C   UNL     1      35.704  30.152  48.408  0.00  0.00    +0.000 A 
ATOM      3  C   UNL     1      34.654  30.285  47.510  0.00  0.00    +0.000 A 
ATOM      4  N   UNL     1      33.706  29.302  47.499  0.00  0.00    +0.000 NA
ATOM      5  C   UNL     1      33.753  28.229  48.310  0.00  0.00    +0.000 A 
ATOM      6  N   UNL     1      34.764  28.090  49.183  0.00  0.00    +0.000 NA
ATOM      7  N   UNL     1      32.718  27.261  48.222  0.00  0.00    +0.000 N 
ATOM      8  C   UNL     1      32.985  25.991  47.574  0.00  0.00    +0.000 C 
ATOM      9  C   UNL     1      31.675  25.233  47.574  0.00  0.00    +0.000 C 
ATOM     10  O   UNL     1      30.609  25.959  47.085  0.00  0.00    +0.000 OA
ATOM     11  C   UNL     1      30.347  27.117  47.776  0.00  0.00    +0.000 C 
ATOM     12  C   UNL     1      31.400  27.515  48.769  0.00  0.00    +0.000 C 
ENDROOT
BRANCH   2  13
ATOM     13  C   UNL     1      36.782  31.111  48.537  0.00  0.00    +0.000 A 
ATOM     14  C   UNL     1      36.962  31.874  49.675  0.00  0.00    +0.000 A 
ATOM     15  C   UNL     1      38.047  32.762  49.664  0.00  0.00    +0.000 A 
ATOM     16  N   UNL     1      38.884  32.894  48.626  0.00  0.00    +0.000 NA
ATOM     17  C   UNL     1      38.667  32.126  47.535  0.00  0.00    +0.000 A 
ATOM     18  N   UNL     1      37.619  31.243  47.501  0.00  0.00    +0.000 NA
ATOM     19  N   UNL     1      39.532  32.237  46.415  0.00  0.00    +0.000 N 
ATOM     20  C   UNL     1      40.033  33.240  45.679  0.00  0.00    +0.000 A 
ATOM     21  N   UNL     1      40.818  32.687  44.725  0.00  0.00    +0.000 NA
ATOM     22  C   UNL     1      40.785  31.343  44.894  0.00  0.00    +0.000 A 
ATOM     23  N   UNL     1      39.973  31.061  45.962  0.00  0.00    +0.000 NA
ENDBRANCH   2  13
TORSDOF 1
