REMARK  Name = 
REMARK  1 active torsions:
REMARK  status: ('A' for Active; 'I' for Inactive)
REMARK    1  A    between atoms: C_3  and  C_16
REMARK                            x       y       z     vdW  Elec       q    Type
REMARK                         _______ _______ _______ _____ _____    ______ ____
ROOT
ATOM      1  C   UNL     1      37.540  32.985  49.824  0.00  0.00    +0.000 A 
ATOM      2  C   UNL     1      38.396  33.186  48.740  0.00  0.00    +0.000 A 
ATOM      3  C   UNL     1      38.364  32.269  47.690  0.00  0.00    +0.000 A 
ATOM      4  N   UNL     1      37.505  31.211  47.751  0.00  0.00    +0.000 NA
ATOM      5  C   UNL     1      36.689  31.056  48.829  0.00  0.00    +0.000 A 
ATOM      6  N   UNL     1      36.705  31.932  49.855  0.00  0.00    +0.000 NA
ATOM      7  N   UNL     1      35.832  29.918  48.793  0.00  0.00    +0.000 N 
ATOM      8  C   UNL     1      35.934  28.781  49.496  0.00  0.00    +0.000 A 
ATOM      9  N   UNL     1      34.923  27.921  49.189  0.00  0.00    +0.000 NA
ATOM     10  C   UNL     1      34.146  28.523  48.260  0.00  0.00    +0.000 A 
ATOM     11  C   UNL     1      32.990  28.152  47.573  0.00  0.00    +0.000 A 
ATOM     12  N   UNL     1      32.506  29.063  46.702  0.00  0.00    +0.000 NA
ATOM     13  C   UNL     1      33.080  30.261  46.485  0.00  0.00    +0.000 A 
ATOM     14  N   UNL     1      34.196  30.612  47.153  0.00  0.00    +0.000 NA
ATOM     15  C   UNL     1      34.731  29.753  48.036  0.00  0.00    +0.000 A 
ENDROOT
BRANCH   3  16
ATOM     16  C   UNL     1      39.225  32.402  46.517  0.00  0.00    +0.000 A 
ATOM     17  N   UNL     1      40.209  33.280  46.200  0.00  0.00    +0.000 NA
ATOM     18  O   UNL     1      40.691  32.989  45.027  0.00  0.00    +0.000 OA
ATOM     19  C   UNL     1      40.054  31.951  44.569  0.00  0.00    +0.000 A 
ATOM     20  N   UNL     1      39.123  31.549  45.473  0.00  0.00    +0.000 NA
ATOM     21  N   UNL     1      40.244  31.280  43.321  0.00  0.00    +0.000 N 
ATOM     22  N   UNL     1      39.951  31.866  42.151  0.00  0.00    +0.000 NA
ATOM     23  C   UNL     1      40.233  30.994  41.155  0.00  0.00    +0.000 A 
ATOM     24  C   UNL     1      40.722  29.828  41.774  0.00  0.00    +0.000 A 
ATOM     25  C   UNL     1      40.720  30.028  43.136  0.00  0.00    +0.000 A 
ENDBRANCH   3  16
TORSDOF 1
