REMARK  Name = 
REMARK  4 active torsions:
REMARK  status: ('A' for Active; 'I' for Inactive)
REMARK    1  A    between atoms: C_1  and  S_17
REMARK    2  A    between atoms: C_4  and  C_11
REMARK    3  A    between atoms: C_9  and  C_13
REMARK    4  A    between atoms: S_17  and  C_20
REMARK                            x       y       z     vdW  Elec       q    Type
REMARK                         _______ _______ _______ _____ _____    ______ ____
ROOT
ATOM      1  C   UNL     1      32.389  28.316  47.507  0.00  0.00    +0.000 A 
ATOM      2  C   UNL     1      32.989  29.324  46.793  0.00  0.00    +0.000 A 
ATOM      3  C   UNL     1      34.133  29.886  47.317  0.00  0.00    +0.000 A 
ATOM      4  C   UNL     1      34.730  29.527  48.496  0.00  0.00    +0.000 A 
ATOM      5  C   UNL     1      34.074  28.506  49.168  0.00  0.00    +0.000 A 
ATOM      6  C   UNL     1      32.923  27.893  48.706  0.00  0.00    +0.000 A 
ENDROOT
BRANCH   4  11
ATOM      7  C   UNL     1      37.334  30.533  50.821  0.00  0.00    +0.000 A 
ATOM      8  C   UNL     1      38.220  31.266  49.991  0.00  0.00    +0.000 A 
ATOM      9  C   UNL     1      37.894  31.400  48.628  0.00  0.00    +0.000 A 
ATOM     10  N   UNL     1      36.747  30.823  48.167  0.00  0.00    +0.000 NA
ATOM     11  C   UNL     1      35.930  30.128  49.011  0.00  0.00    +0.000 A 
ATOM     12  N   UNL     1      36.222  29.989  50.307  0.00  0.00    +0.000 NA
BRANCH   9  13
ATOM     13  C   UNL     1      38.754  32.148  47.668  0.00  0.00    +0.000 C 
ATOM     14  F   UNL     1      38.064  32.667  46.611  0.00  0.00    +0.000 F 
ATOM     15  F   UNL     1      39.367  33.229  48.306  0.00  0.00    +0.000 F 
ATOM     16  F   UNL     1      39.708  31.286  47.140  0.00  0.00    +0.000 F 
ENDBRANCH   9  13
ENDBRANCH   4  11
BRANCH   1  17
ATOM     17  S   UNL     1      30.922  27.534  46.981  0.00  0.00    +0.000 S 
ATOM     18  O   UNL     1      30.936  26.111  47.406  0.00  0.00    +0.000 OA
ATOM     19  O   UNL     1      30.860  27.583  45.462  0.00  0.00    +0.000 OA
BRANCH  17  20
ATOM     20  C   UNL     1      29.508  28.308  47.643  0.00  0.00    +0.000 A 
ATOM     21  N   UNL     1      28.892  29.239  46.854  0.00  0.00    +0.000 NA
ATOM     22  C   UNL     1      27.801  29.912  47.216  0.00  0.00    +0.000 A 
ATOM     23  N   UNL     1      27.193  29.736  48.414  0.00  0.00    +0.000 NA
ATOM     24  C   UNL     1      27.758  28.834  49.225  0.00  0.00    +0.000 A 
ATOM     25  C   UNL     1      27.245  28.530  50.491  0.00  0.00    +0.000 A 
ATOM     26  C   UNL     1      27.810  27.593  51.340  0.00  0.00    +0.000 A 
ATOM     27  C   UNL     1      28.949  26.921  50.904  0.00  0.00    +0.000 A 
ATOM     28  C   UNL     1      29.461  27.209  49.667  0.00  0.00    +0.000 A 
ATOM     29  C   UNL     1      28.881  28.143  48.847  0.00  0.00    +0.000 A 
ENDBRANCH  17  20
ENDBRANCH   1  17
TORSDOF 4
