REMARK  Name = 
REMARK  3 active torsions:
REMARK  status: ('A' for Active; 'I' for Inactive)
REMARK    1  A    between atoms: C_2  and  C_7
REMARK    2  A    between atoms: C_5  and  C_17
REMARK    3  A    between atoms: C_19  and  C_20
REMARK                            x       y       z     vdW  Elec       q    Type
REMARK                         _______ _______ _______ _____ _____    ______ ____
ROOT
ATOM      1  C   UNL     1      35.342  30.358  47.226  0.00  0.00    +0.000 A 
ATOM      2  C   UNL     1      36.388  30.534  48.114  0.00  0.00    +0.000 A 
ATOM      3  C   UNL     1      36.458  29.556  49.155  0.00  0.00    +0.000 A 
ATOM      4  N   UNL     1      35.535  28.554  49.211  0.00  0.00    +0.000 NA
ATOM      5  C   UNL     1      34.556  28.447  48.325  0.00  0.00    +0.000 A 
ATOM      6  N   UNL     1      34.464  29.347  47.339  0.00  0.00    +0.000 NA
ENDROOT
BRANCH   2   7
ATOM      7  C   UNL     1      37.422  31.551  48.157  0.00  0.00    +0.000 A 
ATOM      8  C   UNL     1      37.424  32.223  49.342  0.00  0.00    +0.000 A 
ATOM      9  C   UNL     1      38.341  33.245  49.595  0.00  0.00    +0.000 A 
ATOM     10  C   UNL     1      39.266  33.585  48.626  0.00  0.00    +0.000 A 
ATOM     11  C   UNL     1      39.247  32.894  47.436  0.00  0.00    +0.000 A 
ATOM     12  C   UNL     1      40.144  33.168  46.399  0.00  0.00    +0.000 A 
ATOM     13  C   UNL     1      40.077  32.434  45.211  0.00  0.00    +0.000 A 
ATOM     14  C   UNL     1      39.151  31.439  45.022  0.00  0.00    +0.000 A 
ATOM     15  C   UNL     1      38.264  31.169  46.052  0.00  0.00    +0.000 A 
ATOM     16  C   UNL     1      38.346  31.898  47.206  0.00  0.00    +0.000 A 
ENDBRANCH   2   7
BRANCH   5  17
ATOM     17  C   UNL     1      33.571  27.347  48.428  0.00  0.00    +0.000 C 
ATOM     18  C   UNL     1      32.141  27.652  48.697  0.00  0.00    +0.000 C 
ATOM     19  C   UNL     1      32.570  27.118  47.329  0.00  0.00    +0.000 C 
BRANCH  19  20
ATOM     20  C   UNL     1      32.151  25.754  46.998  0.00  0.00    +0.000 A 
ATOM     21  C   UNL     1      33.173  24.840  47.264  0.00  0.00    +0.000 A 
ATOM     22  C   UNL     1      33.028  23.483  46.986  0.00  0.00    +0.000 A 
ATOM     23  C   UNL     1      31.834  23.043  46.432  0.00  0.00    +0.000 A 
ATOM     24  C   UNL     1      30.823  23.929  46.168  0.00  0.00    +0.000 A 
ATOM     25  C   UNL     1      29.585  23.583  45.626  0.00  0.00    +0.000 A 
ATOM     26  C   UNL     1      28.604  24.549  45.399  0.00  0.00    +0.000 A 
ATOM     27  C   UNL     1      28.820  25.876  45.702  0.00  0.00    +0.000 A 
ATOM     28  C   UNL     1      30.042  26.228  46.239  0.00  0.00    +0.000 A 
ATOM     29  C   UNL     1      30.995  25.256  46.452  0.00  0.00    +0.000 A 
ENDBRANCH  19  20
ENDBRANCH   5  17
TORSDOF 3
