REMARK  Name = 
REMARK  2 active torsions:
REMARK  status: ('A' for Active; 'I' for Inactive)
REMARK    1  A    between atoms: C_3  and  C_7
REMARK    2  A    between atoms: C_5  and  C_17
REMARK                            x       y       z     vdW  Elec       q    Type
REMARK                         _______ _______ _______ _____ _____    ______ ____
ROOT
ATOM      1  C   UNL     1      37.251  30.226  51.177  0.00  0.00    +0.000 A 
ATOM      2  C   UNL     1      38.073  30.944  50.307  0.00  0.00    +0.000 A 
ATOM      3  C   UNL     1      37.673  31.011  48.984  0.00  0.00    +0.000 A 
ATOM      4  N   UNL     1      36.532  30.388  48.622  0.00  0.00    +0.000 NA
ATOM      5  C   UNL     1      35.756  29.700  49.482  0.00  0.00    +0.000 A 
ATOM      6  N   UNL     1      36.131  29.626  50.771  0.00  0.00    +0.000 NA
ENDROOT
BRANCH   3   7
ATOM      7  C   UNL     1      38.438  31.731  47.957  0.00  0.00    +0.000 A 
ATOM      8  N   UNL     1      39.199  32.850  48.012  0.00  0.00    +0.000 NA
ATOM      9  O   UNL     1      39.681  33.101  46.825  0.00  0.00    +0.000 OA
ATOM     10  C   UNL     1      39.252  32.174  46.003  0.00  0.00    +0.000 A 
ATOM     11  N   UNL     1      38.457  31.276  46.661  0.00  0.00    +0.000 NA
ATOM     12  N   UNL     1      39.532  32.058  44.608  0.00  0.00    +0.000 N 
ATOM     13  N   UNL     1      39.095  32.918  43.700  0.00  0.00    +0.000 NA
ATOM     14  C   UNL     1      39.505  32.567  42.477  0.00  0.00    +0.000 A 
ATOM     15  C   UNL     1      40.245  31.408  42.662  0.00  0.00    +0.000 A 
ATOM     16  C   UNL     1      40.264  31.081  44.018  0.00  0.00    +0.000 A 
ENDBRANCH   3   7
BRANCH   5  17
ATOM     17  C   UNL     1      34.580  29.138  48.805  0.00  0.00    +0.000 A 
ATOM     18  C   UNL     1      33.611  28.448  49.500  0.00  0.00    +0.000 A 
ATOM     19  C   UNL     1      32.492  27.902  48.927  0.00  0.00    +0.000 A 
ATOM     20  C   UNL     1      32.273  28.017  47.587  0.00  0.00    +0.000 A 
ATOM     21  C   UNL     1      33.206  28.695  46.846  0.00  0.00    +0.000 A 
ATOM     22  C   UNL     1      32.993  28.821  45.490  0.00  0.00    +0.000 A 
ATOM     23  C   UNL     1      33.891  29.493  44.685  0.00  0.00    +0.000 A 
ATOM     24  C   UNL     1      35.021  30.039  45.304  0.00  0.00    +0.000 A 
ATOM     25  C   UNL     1      35.181  29.882  46.662  0.00  0.00    +0.000 A 
ATOM     26  C   UNL     1      34.300  29.217  47.476  0.00  0.00    +0.000 A 
ENDBRANCH   5  17
TORSDOF 2
