REMARK  Name = 
REMARK  2 active torsions:
REMARK  status: ('A' for Active; 'I' for Inactive)
REMARK    1  A    between atoms: C_3  and  C_7
REMARK    2  A    between atoms: C_5  and  C_24
REMARK                            x       y       z     vdW  Elec       q    Type
REMARK                         _______ _______ _______ _____ _____    ______ ____
ROOT
ATOM      1  C   UNL     1      32.930  26.001  46.792  0.00  0.00    +0.000 A 
ATOM      2  C   UNL     1      33.957  25.230  47.262  0.00  0.00    +0.000 A 
ATOM      3  C   UNL     1      33.734  23.880  47.241  0.00  0.00    +0.000 A 
ATOM      4  N   UNL     1      32.590  23.331  46.792  0.00  0.00    +0.000 NA
ATOM      5  C   UNL     1      31.571  24.120  46.324  0.00  0.00    +0.000 A 
ATOM      6  N   UNL     1      31.790  25.460  46.344  0.00  0.00    +0.000 NA
ATOM      7  N   UNL     1      30.331  23.627  45.832  0.00  0.00    +0.000 N 
ATOM      8  C   UNL     1      29.326  24.170  45.122  0.00  0.00    +0.000 A 
ATOM      9  N   UNL     1      28.387  23.220  44.940  0.00  0.00    +0.000 NA
ATOM     10  C   UNL     1      28.804  22.079  45.538  0.00  0.00    +0.000 A 
ATOM     11  C   UNL     1      28.182  20.871  45.611  0.00  0.00    +0.000 A 
ATOM     12  O   UNL     1      27.058  20.661  45.086  0.00  0.00    +0.000 OA
ATOM     13  N   UNL     1      28.766  19.839  46.262  0.00  0.00    +0.000 N 
ATOM     14  C   UNL     1      29.974  20.110  46.809  0.00  0.00    +0.000 A 
ATOM     15  N   UNL     1      30.627  19.046  47.507  0.00  0.00    +0.000 N 
ATOM     16  N   UNL     1      30.617  21.282  46.761  0.00  0.00    +0.000 NA
ATOM     17  C   UNL     1      30.052  22.321  46.118  0.00  0.00    +0.000 A 
ATOM     18  H   UNL     1      28.323  18.912  46.336  0.00  0.00    +0.000 HD
ATOM     19  H   UNL     1      31.548  19.203  47.940  0.00  0.00    +0.000 HD
ATOM     20  H   UNL     1      30.176  18.122  47.576  0.00  0.00    +0.000 HD
ENDROOT
BRANCH   1  23
ATOM     21  C   UNL     1      32.223  29.632  46.225  0.00  0.00    +0.000 A 
ATOM     22  C   UNL     1      32.036  28.243  46.225  0.00  0.00    +0.000 A 
ATOM     23  C   UNL     1      33.073  27.454  46.769  0.00  0.00    +0.000 A 
ATOM     24  N   UNL     1      34.175  28.051  47.257  0.00  0.00    +0.000 NA
ATOM     25  C   UNL     1      34.322  29.404  47.239  0.00  0.00    +0.000 A 
ATOM     26  N   UNL     1      33.349  30.186  46.726  0.00  0.00    +0.000 NA
BRANCH  25  27
ATOM     27  C   UNL     1      35.548  29.947  47.788  0.00  0.00    +0.000 A 
ATOM     28  C   UNL     1      36.501  30.630  47.038  0.00  0.00    +0.000 A 
ATOM     29  N   UNL     1      37.521  31.012  47.807  0.00  0.00    +0.000 N 
ATOM     30  C   UNL     1      37.255  30.586  49.075  0.00  0.00    +0.000 A 
ATOM     31  C   UNL     1      37.970  30.712  50.256  0.00  0.00    +0.000 A 
ATOM     32  C   UNL     1      37.433  30.162  51.419  0.00  0.00    +0.000 A 
ATOM     33  C   UNL     1      36.214  29.513  51.369  0.00  0.00    +0.000 A 
ATOM     34  C   UNL     1      35.476  29.374  50.191  0.00  0.00    +0.000 A 
ATOM     35  C   UNL     1      36.041  29.930  49.066  0.00  0.00    +0.000 A 
ATOM     36  H   UNL     1      38.355  31.532  47.500  0.00  0.00    +0.000 HD
ENDBRANCH  25  27
ENDBRANCH   1  23
TORSDOF 2
