REMARK  Name = 
REMARK  2 active torsions:
REMARK  status: ('A' for Active; 'I' for Inactive)
REMARK    1  A    between atoms: C_1  and  C_22
REMARK    2  A    between atoms: C_5  and  C_12
REMARK                            x       y       z     vdW  Elec       q    Type
REMARK                         _______ _______ _______ _____ _____    ______ ____
ROOT
ATOM      1  C   UNL     1      36.806  29.961  49.774  0.00  0.00    +0.000 A 
ATOM      2  C   UNL     1      37.947  30.507  49.227  0.00  0.00    +0.000 A 
ATOM      3  C   UNL     1      37.900  30.934  47.901  0.00  0.00    +0.000 A 
ATOM      4  N   UNL     1      36.761  30.797  47.224  0.00  0.00    +0.000 NA
ATOM      5  C   UNL     1      35.633  30.253  47.778  0.00  0.00    +0.000 A 
ATOM      6  N   UNL     1      35.699  29.846  49.064  0.00  0.00    +0.000 NA
ATOM      7  N   UNL     1      39.016  31.497  47.269  0.00  0.00    +0.000 N 
ATOM      8  C   UNL     1      38.926  32.282  46.114  0.00  0.00    +0.000 C 
ATOM      9  N   UNL     1      37.788  32.410  45.551  0.00  0.00    +0.000 NA
ATOM     10  N   UNL     1      40.065  32.924  45.572  0.00  0.00    +0.000 N 
ATOM     11  H   UNL     1      37.728  32.821  44.581  0.00  0.00    +0.000 HD
ATOM     12  H   UNL     1      39.947  31.325  47.674  0.00  0.00    +0.000 HD
ATOM     13  H   UNL     1      39.977  33.497  44.721  0.00  0.00    +0.000 HD
ATOM     14  H   UNL     1      40.982  32.818  46.029  0.00  0.00    +0.000 HD
ENDROOT
BRANCH   5  15
ATOM     15  C   UNL     1      34.304  29.958  47.220  0.00  0.00    +0.000 A 
ATOM     16  N   UNL     1      33.562  30.891  46.609  0.00  0.00    +0.000 NA
ATOM     17  C   UNL     1      32.373  30.696  46.102  0.00  0.00    +0.000 A 
ATOM     18  N   UNL     1      31.768  29.500  46.153  0.00  0.00    +0.000 NA
ATOM     19  C   UNL     1      32.410  28.463  46.747  0.00  0.00    +0.000 A 
ATOM     20  C   UNL     1      31.811  27.229  46.831  0.00  0.00    +0.000 A 
ATOM     21  C   UNL     1      32.455  26.182  47.454  0.00  0.00    +0.000 A 
ATOM     22  C   UNL     1      33.725  26.432  47.986  0.00  0.00    +0.000 A 
ATOM     23  C   UNL     1      34.256  27.694  47.861  0.00  0.00    +0.000 A 
ATOM     24  C   UNL     1      33.652  28.751  47.254  0.00  0.00    +0.000 A 
ENDBRANCH   5  15
BRANCH   1  25
ATOM     25  C   UNL     1      36.833  29.481  51.202  0.00  0.00    +0.000 C 
ATOM     26  F   UNL     1      35.552  29.137  51.599  0.00  0.00    +0.000 F 
ATOM     27  F   UNL     1      37.722  28.453  51.294  0.00  0.00    +0.000 F 
ATOM     28  F   UNL     1      37.258  30.551  51.973  0.00  0.00    +0.000 F 
ENDBRANCH   1  25
TORSDOF 2
