REMARK  Name = 
REMARK  7 active torsions:
REMARK  status: ('A' for Active; 'I' for Inactive)
REMARK    1  A    between atoms: C_1  and  C_2
REMARK    2  A    between atoms: C_1  and  C_12
REMARK    3  A    between atoms: C_1  and  O_29
REMARK    4  A    between atoms: C_16  and  C_18
REMARK    5  A    between atoms: C_18  and  N_19
REMARK    6  A    between atoms: C_23  and  N_28
REMARK    7  A    between atoms: O_29  and  C_30
REMARK                            x       y       z     vdW  Elec       q    Type
REMARK                         _______ _______ _______ _____ _____    ______ ____
ROOT
ATOM      1  C   UNL     1      38.943  31.229  46.647  0.00  0.00    +0.000 A 
ATOM      2  C   UNL     1      40.202  31.771  46.290  0.00  0.00    +0.000 A 
ATOM      3  C   UNL     1      40.759  31.472  45.002  0.00  0.00    +0.000 A 
ATOM      4  N   UNL     1      40.024  30.684  44.222  0.00  0.00    +0.000 NA
ATOM      5  C   UNL     1      38.812  30.181  44.598  0.00  0.00    +0.000 A 
ATOM      6  N   UNL     1      38.303  30.456  45.780  0.00  0.00    +0.000 NA
ENDROOT
BRANCH   1   7
ATOM      7  C   UNL     1      38.631  31.557  48.006  0.00  0.00    +0.000 C 
BRANCH   7   8
ATOM      8  C   UNL     1      37.841  30.897  49.034  0.00  0.00    +0.000 A 
ATOM      9  N   UNL     1      38.334  30.773  50.259  0.00  0.00    +0.000 NA
ATOM     10  C   UNL     1      37.663  30.158  51.249  0.00  0.00    +0.000 A 
ATOM     11  N   UNL     1      36.462  29.625  51.089  0.00  0.00    +0.000 NA
ATOM     12  C   UNL     1      35.842  29.682  49.892  0.00  0.00    +0.000 A 
ATOM     13  C   UNL     1      34.609  29.143  49.689  0.00  0.00    +0.000 A 
ATOM     14  C   UNL     1      33.998  29.208  48.487  0.00  0.00    +0.000 A 
ATOM     15  C   UNL     1      34.693  29.852  47.479  0.00  0.00    +0.000 A 
ATOM     16  C   UNL     1      35.938  30.385  47.720  0.00  0.00    +0.000 A 
ATOM     17  C   UNL     1      36.567  30.325  48.910  0.00  0.00    +0.000 A 
ENDBRANCH   7   8
BRANCH   7  18
ATOM     18  O   UNL     1      38.380  32.884  48.308  0.00  0.00    +0.000 OA
BRANCH  18  19
ATOM     19  C   UNL     1      39.216  33.838  48.844  0.00  0.00    +0.000 C 
ATOM     20  N   UNL     1      39.951  34.778  48.003  0.00  0.00    +0.000 N 
ATOM     21  O   UNL     1      39.382  33.942  50.086  0.00  0.00    +0.000 OA
ATOM     22  H   UNL     1      40.569  35.480  48.434  0.00  0.00    +0.000 HD
ATOM     23  H   UNL     1      39.852  34.739  46.978  0.00  0.00    +0.000 HD
ENDBRANCH  18  19
ENDBRANCH   7  18
ENDBRANCH   1   7
BRANCH   5  24
ATOM     24  C   UNL     1      37.998  29.345  43.679  0.00  0.00    +0.000 C 
BRANCH  24  25
ATOM     25  N   UNL     1      36.711  29.986  43.543  0.00  0.00    +0.000 N 
ATOM     26  C   UNL     1      35.607  29.294  43.965  0.00  0.00    +0.000 A 
ATOM     27  N   UNL     1      34.467  29.994  43.781  0.00  0.00    +0.000 NA
ATOM     28  C   UNL     1      34.822  31.158  43.234  0.00  0.00    +0.000 A 
ATOM     29  C   UNL     1      34.137  32.282  42.820  0.00  0.00    +0.000 A 
ATOM     30  N   UNL     1      34.843  33.304  42.302  0.00  0.00    +0.000 NA
ATOM     31  C   UNL     1      36.189  33.235  42.188  0.00  0.00    +0.000 A 
ATOM     32  N   UNL     1      36.919  32.147  42.581  0.00  0.00    +0.000 NA
ATOM     33  C   UNL     1      36.195  31.137  43.096  0.00  0.00    +0.000 A 
BRANCH  29  34
ATOM     34  N   UNL     1      32.720  32.348  42.942  0.00  0.00    +0.000 N 
ATOM     35  H   UNL     1      32.215  33.190  42.631  0.00  0.00    +0.000 HD
ATOM     36  H   UNL     1      32.200  31.554  43.341  0.00  0.00    +0.000 HD
ENDBRANCH  29  34
ENDBRANCH  24  25
ENDBRANCH   5  24
TORSDOF 7
