REMARK  Name = 
REMARK  3 active torsions:
REMARK  status: ('A' for Active; 'I' for Inactive)
REMARK    1  A    between atoms: C_1  and  C_21
REMARK    2  A    between atoms: C_6  and  C_7
REMARK    3  A    between atoms: C_17  and  C_23
REMARK                            x       y       z     vdW  Elec       q    Type
REMARK                         _______ _______ _______ _____ _____    ______ ____
ROOT
ATOM      1  C   UNL     1      35.911  30.376  46.380  0.00  0.00    +0.000 A 
ATOM      2  C   UNL     1      34.632  29.847  46.580  0.00  0.00    +0.000 A 
ATOM      3  C   UNL     1      33.778  29.558  45.531  0.00  0.00    +0.000 A 
ATOM      4  C   UNL     1      34.178  29.788  44.252  0.00  0.00    +0.000 A 
ATOM      5  C   UNL     1      35.436  30.309  44.034  0.00  0.00    +0.000 A 
ATOM      6  C   UNL     1      36.302  30.603  45.087  0.00  0.00    +0.000 A 
ENDROOT
BRANCH   6   7
ATOM      7  C   UNL     1      37.607  31.163  44.756  0.00  0.00    +0.000 A 
ATOM      8  C   UNL     1      38.010  32.446  45.079  0.00  0.00    +0.000 A 
ATOM      9  C   UNL     1      39.243  32.978  44.774  0.00  0.00    +0.000 A 
ATOM     10  C   UNL     1      40.158  32.197  44.099  0.00  0.00    +0.000 A 
ATOM     11  C   UNL     1      39.824  30.903  43.744  0.00  0.00    +0.000 A 
ATOM     12  C   UNL     1      40.745  30.115  43.065  0.00  0.00    +0.000 A 
ATOM     13  C   UNL     1      40.451  28.833  42.700  0.00  0.00    +0.000 A 
ATOM     14  C   UNL     1      39.208  28.336  43.023  0.00  0.00    +0.000 A 
ATOM     15  C   UNL     1      38.283  29.117  43.699  0.00  0.00    +0.000 A 
ATOM     16  C   UNL     1      38.572  30.417  44.074  0.00  0.00    +0.000 A 
ENDBRANCH   6   7
BRANCH   1  21
ATOM     17  C   UNL     1      37.364  30.206  49.730  0.00  0.00    +0.000 A 
ATOM     18  C   UNL     1      38.370  31.169  49.677  0.00  0.00    +0.000 A 
ATOM     19  C   UNL     1      38.554  31.884  48.485  0.00  0.00    +0.000 A 
ATOM     20  N   UNL     1      37.735  31.589  47.458  0.00  0.00    +0.000 NA
ATOM     21  C   UNL     1      36.763  30.653  47.525  0.00  0.00    +0.000 A 
ATOM     22  N   UNL     1      36.604  29.980  48.670  0.00  0.00    +0.000 NA
BRANCH  17  23
ATOM     23  C   UNL     1      37.175  29.445  51.015  0.00  0.00    +0.000 C 
ATOM     24  F   UNL     1      35.831  29.193  51.199  0.00  0.00    +0.000 F 
ATOM     25  F   UNL     1      37.939  28.332  50.963  0.00  0.00    +0.000 F 
ATOM     26  F   UNL     1      37.592  30.278  52.055  0.00  0.00    +0.000 F 
ENDBRANCH  17  23
ENDBRANCH   1  21
TORSDOF 3
