REMARK  Name = 
REMARK  1 active torsions:
REMARK  status: ('A' for Active; 'I' for Inactive)
REMARK    1  A    between atoms: C_3  and  C_13
REMARK                            x       y       z     vdW  Elec       q    Type
REMARK                         _______ _______ _______ _____ _____    ______ ____
ROOT
ATOM      1  C   UNL     1      37.862  32.773  49.829  0.00  0.00    +0.000 A 
ATOM      2  C   UNL     1      38.695  33.020  48.737  0.00  0.00    +0.000 A 
ATOM      3  C   UNL     1      38.461  32.263  47.574  0.00  0.00    +0.000 A 
ATOM      4  N   UNL     1      37.455  31.344  47.564  0.00  0.00    +0.000 NA
ATOM      5  C   UNL     1      36.681  31.153  48.662  0.00  0.00    +0.000 A 
ATOM      6  N   UNL     1      36.873  31.857  49.794  0.00  0.00    +0.000 NA
ATOM      7  N   UNL     1      35.640  30.187  48.620  0.00  0.00    +0.000 N 
ATOM      8  C   UNL     1      34.549  30.264  47.676  0.00  0.00    +0.000 C 
ATOM      9  C   UNL     1      34.283  28.936  47.006  0.00  0.00    +0.000 C 
ATOM     10  C   UNL     1      34.291  27.792  47.993  0.00  0.00    +0.000 C 
ATOM     11  C   UNL     1      34.332  28.313  49.431  0.00  0.00    +0.000 C 
ATOM     12  C   UNL     1      35.640  29.066  49.546  0.00  0.00    +0.000 C 
ENDROOT
BRANCH   3  13
ATOM     13  C   UNL     1      39.262  32.428  46.370  0.00  0.00    +0.000 A 
ATOM     14  N   UNL     1      40.179  33.364  46.003  0.00  0.00    +0.000 NA
ATOM     15  O   UNL     1      40.628  33.072  44.807  0.00  0.00    +0.000 OA
ATOM     16  C   UNL     1      40.042  31.995  44.391  0.00  0.00    +0.000 A 
ATOM     17  N   UNL     1      39.164  31.541  45.344  0.00  0.00    +0.000 NA
ATOM     18  N   UNL     1      40.224  31.314  43.144  0.00  0.00    +0.000 N 
ATOM     19  N   UNL     1      39.852  31.850  41.984  0.00  0.00    +0.000 NA
ATOM     20  C   UNL     1      40.144  30.990  40.985  0.00  0.00    +0.000 A 
ATOM     21  C   UNL     1      40.722  29.880  41.591  0.00  0.00    +0.000 A 
ATOM     22  C   UNL     1      40.771  30.091  42.963  0.00  0.00    +0.000 A 
ENDBRANCH   3  13
TORSDOF 1
