REMARK  Name = 
REMARK  4 active torsions:
REMARK  status: ('A' for Active; 'I' for Inactive)
REMARK    1  A    between atoms: C_1  and  C_2
REMARK    2  A    between atoms: C_1  and  C_12
REMARK    3  A    between atoms: C_1  and  O_23
REMARK    4  A    between atoms: C_16  and  C_18
REMARK                            x       y       z     vdW  Elec       q    Type
REMARK                         _______ _______ _______ _____ _____    ______ ____
ROOT
ATOM      1  C   UNL     1      38.535  32.088  48.002  0.00  0.00    +0.000 C 
ENDROOT
BRANCH   1   2
ATOM      2  C   UNL     1      37.864  31.196  48.941  0.00  0.00    +0.000 A 
ATOM      3  N   UNL     1      38.367  31.061  50.170  0.00  0.00    +0.000 NA
ATOM      4  C   UNL     1      37.816  30.251  51.108  0.00  0.00    +0.000 A 
ATOM      5  N   UNL     1      36.725  29.525  50.870  0.00  0.00    +0.000 NA
ATOM      6  C   UNL     1      36.131  29.591  49.650  0.00  0.00    +0.000 A 
ATOM      7  C   UNL     1      35.013  28.856  49.373  0.00  0.00    +0.000 A 
ATOM      8  C   UNL     1      34.408  28.909  48.155  0.00  0.00    +0.000 A 
ATOM      9  C   UNL     1      34.987  29.743  47.222  0.00  0.00    +0.000 A 
ATOM     10  C   UNL     1      36.112  30.467  47.534  0.00  0.00    +0.000 A 
ATOM     11  C   UNL     1      36.736  30.428  48.751  0.00  0.00    +0.000 A 
ENDBRANCH   1   2
BRANCH   1  12
ATOM     12  C   UNL     1      39.040  31.920  46.669  0.00  0.00    +0.000 A 
ATOM     13  C   UNL     1      39.881  32.985  46.308  0.00  0.00    +0.000 A 
ATOM     14  C   UNL     1      40.592  32.929  45.055  0.00  0.00    +0.000 A 
ATOM     15  N   UNL     1      40.381  31.817  44.307  0.00  0.00    +0.000 NA
ATOM     16  C   UNL     1      39.554  30.812  44.697  0.00  0.00    +0.000 A 
ATOM     17  N   UNL     1      38.901  30.858  45.844  0.00  0.00    +0.000 NA
BRANCH  16  18
ATOM     18  C   UNL     1      39.402  29.663  43.809  0.00  0.00    +0.000 A 
ATOM     19  C   UNL     1      38.219  29.025  43.492  0.00  0.00    +0.000 A 
ATOM     20  N   UNL     1      38.460  28.008  42.645  0.00  0.00    +0.000 NA
ATOM     21  C   UNL     1      39.803  27.999  42.423  0.00  0.00    +0.000 A 
ATOM     22  N   UNL     1      40.351  28.996  43.127  0.00  0.00    +0.000 N 
ATOM     23  H   UNL     1      41.356  29.221  43.145  0.00  0.00    +0.000 HD
ENDBRANCH  16  18
ENDBRANCH   1  12
BRANCH   1  24
ATOM     24  O   UNL     1      38.190  33.297  48.448  0.00  0.00    +0.000 OA
ATOM     25  H   UNL     1      38.190  33.296  49.438  0.00  0.00    +0.000 HD
ENDBRANCH   1  24
TORSDOF 4
