REMARK  Name = 
REMARK  5 active torsions:
REMARK  status: ('A' for Active; 'I' for Inactive)
REMARK    1  A    between atoms: C_2  and  C_27
REMARK    2  A    between atoms: C_3  and  N_22
REMARK    3  A    between atoms: C_5  and  C_7
REMARK    4  A    between atoms: C_10  and  O_17
REMARK    5  A    between atoms: O_17  and  C_18
REMARK                            x       y       z     vdW  Elec       q    Type
REMARK                         _______ _______ _______ _____ _____    ______ ____
ROOT
ATOM      1  C   UNL     1      36.158  31.428  42.615  0.00  0.00    +0.000 A 
ATOM      2  C   UNL     1      37.323  31.093  41.927  0.00  0.00    +0.000 A 
ATOM      3  C   UNL     1      38.382  30.644  42.657  0.00  0.00    +0.000 A 
ATOM      4  N   UNL     1      38.194  30.572  43.963  0.00  0.00    +0.000 NA
ATOM      5  C   UNL     1      37.159  30.860  44.683  0.00  0.00    +0.000 A 
ATOM      6  N   UNL     1      36.143  31.294  43.940  0.00  0.00    +0.000 NA
ENDROOT
BRANCH   5   7
ATOM      7  C   UNL     1      36.856  30.819  46.099  0.00  0.00    +0.000 A 
ATOM      8  C   UNL     1      35.823  30.046  46.638  0.00  0.00    +0.000 A 
ATOM      9  C   UNL     1      35.504  29.986  47.958  0.00  0.00    +0.000 A 
ATOM     10  C   UNL     1      36.228  30.725  48.871  0.00  0.00    +0.000 A 
ATOM     11  C   UNL     1      37.232  31.486  48.404  0.00  0.00    +0.000 A 
ATOM     12  C   UNL     1      37.957  32.229  49.328  0.00  0.00    +0.000 A 
ATOM     13  C   UNL     1      38.991  33.027  48.949  0.00  0.00    +0.000 A 
ATOM     14  C   UNL     1      39.312  33.085  47.600  0.00  0.00    +0.000 A 
ATOM     15  C   UNL     1      38.573  32.338  46.723  0.00  0.00    +0.000 A 
ATOM     16  C   UNL     1      37.546  31.539  47.065  0.00  0.00    +0.000 A 
BRANCH  10  17
ATOM     17  O   UNL     1      35.891  30.651  50.203  0.00  0.00    +0.000 OA
BRANCH  17  18
ATOM     18  C   UNL     1      36.407  29.618  51.019  0.00  0.00    +0.000 C 
ATOM     19  F   UNL     1      37.228  28.727  50.391  0.00  0.00    +0.000 F 
ATOM     20  F   UNL     1      37.188  30.223  51.996  0.00  0.00    +0.000 F 
ATOM     21  F   UNL     1      35.313  28.967  51.581  0.00  0.00    +0.000 F 
ENDBRANCH  17  18
ENDBRANCH  10  17
ENDBRANCH   5   7
BRANCH   3  22
ATOM     22  N   UNL     1      39.622  30.250  42.116  0.00  0.00    +0.000 N 
ATOM     23  C   UNL     1      40.747  29.927  42.910  0.00  0.00    +0.000 C 
ATOM     24  N   UNL     1      40.973  30.643  43.973  0.00  0.00    +0.000 NA
ATOM     25  N   UNL     1      41.606  28.848  42.569  0.00  0.00    +0.000 N 
ATOM     26  H   UNL     1      41.704  30.509  44.660  0.00  0.00    +0.000 HD
ATOM     27  H   UNL     1      39.714  30.195  41.092  0.00  0.00    +0.000 HD
ATOM     28  H   UNL     1      42.420  28.631  43.162  0.00  0.00    +0.000 HD
ATOM     29  H   UNL     1      41.415  28.283  41.729  0.00  0.00    +0.000 HD
ENDBRANCH   3  22
BRANCH   2  30
ATOM     30  C   UNL     1      37.386  31.231  40.492  0.00  0.00    +0.000 A 
ATOM     31  C   UNL     1      36.780  32.295  39.875  0.00  0.00    +0.000 A 
ATOM     32  C   UNL     1      36.768  32.539  38.513  0.00  0.00    +0.000 A 
ATOM     33  C   UNL     1      37.410  31.662  37.664  0.00  0.00    +0.000 A 
ATOM     34  C   UNL     1      38.019  30.593  38.280  0.00  0.00    +0.000 A 
ATOM     35  N   UNL     1      37.975  30.444  39.598  0.00  0.00    +0.000 NA
ENDBRANCH   2  30
TORSDOF 5
