REMARK  Name = 
REMARK  2 active torsions:
REMARK  status: ('A' for Active; 'I' for Inactive)
REMARK    1  A    between atoms: C_3  and  C_17
REMARK    2  A    between atoms: C_5  and  C_7
REMARK                            x       y       z     vdW  Elec       q    Type
REMARK                         _______ _______ _______ _____ _____    ______ ____
ROOT
ATOM      1  C   UNL     1      36.537  29.721  50.854  0.00  0.00    +0.000 A 
ATOM      2  C   UNL     1      35.560  29.013  50.167  0.00  0.00    +0.000 A 
ATOM      3  C   UNL     1      35.429  29.308  48.805  0.00  0.00    +0.000 A 
ATOM      4  N   UNL     1      36.265  30.228  48.373  0.00  0.00    +0.000 NA
ATOM      5  C   UNL     1      37.189  30.922  48.949  0.00  0.00    +0.000 A 
ATOM      6  N   UNL     1      37.286  30.619  50.228  0.00  0.00    +0.000 NA
ENDROOT
BRANCH   5   7
ATOM      7  C   UNL     1      38.114  31.932  48.527  0.00  0.00    +0.000 A 
ATOM      8  C   UNL     1      38.393  33.101  49.273  0.00  0.00    +0.000 A 
ATOM      9  C   UNL     1      39.273  34.075  48.910  0.00  0.00    +0.000 A 
ATOM     10  C   UNL     1      39.963  33.941  47.731  0.00  0.00    +0.000 A 
ATOM     11  C   UNL     1      39.755  32.847  46.954  0.00  0.00    +0.000 A 
ATOM     12  C   UNL     1      40.477  32.772  45.790  0.00  0.00    +0.000 A 
ATOM     13  C   UNL     1      40.319  31.698  44.960  0.00  0.00    +0.000 A 
ATOM     14  C   UNL     1      39.417  30.704  45.332  0.00  0.00    +0.000 A 
ATOM     15  C   UNL     1      38.727  30.845  46.514  0.00  0.00    +0.000 A 
ATOM     16  C   UNL     1      38.852  31.890  47.366  0.00  0.00    +0.000 A 
ENDBRANCH   5   7
BRANCH   3  17
ATOM     17  C   UNL     1      34.404  28.555  48.119  0.00  0.00    +0.000 A 
ATOM     18  N   UNL     1      34.268  27.233  48.315  0.00  0.00    +0.000 NA
ATOM     19  C   UNL     1      33.334  26.503  47.699  0.00  0.00    +0.000 A 
ATOM     20  N   UNL     1      32.440  27.000  46.829  0.00  0.00    +0.000 NA
ATOM     21  C   UNL     1      32.511  28.326  46.577  0.00  0.00    +0.000 A 
ATOM     22  C   UNL     1      31.622  28.897  45.694  0.00  0.00    +0.000 A 
ATOM     23  C   UNL     1      31.655  30.232  45.407  0.00  0.00    +0.000 A 
ATOM     24  C   UNL     1      32.625  30.972  46.051  0.00  0.00    +0.000 A 
ATOM     25  C   UNL     1      33.501  30.385  46.928  0.00  0.00    +0.000 A 
ATOM     26  C   UNL     1      33.484  29.057  47.225  0.00  0.00    +0.000 A 
ENDBRANCH   3  17
TORSDOF 2
