REMARK  Name = 
REMARK  5 active torsions:
REMARK  status: ('A' for Active; 'I' for Inactive)
REMARK    1  A    between atoms: C_1  and  C_15
REMARK    2  A    between atoms: C_4  and  O_27
REMARK    3  A    between atoms: C_12  and  C_22
REMARK    4  A    between atoms: C_13  and  N_17
REMARK    5  A    between atoms: O_27  and  C_28
REMARK                            x       y       z     vdW  Elec       q    Type
REMARK                         _______ _______ _______ _____ _____    ______ ____
ROOT
ATOM      1  C   UNL     1      36.121  31.299  42.615  0.00  0.00    +0.000 A 
ATOM      2  C   UNL     1      37.297  30.983  41.923  0.00  0.00    +0.000 A 
ATOM      3  C   UNL     1      38.363  30.586  42.664  0.00  0.00    +0.000 A 
ATOM      4  N   UNL     1      38.184  30.536  43.965  0.00  0.00    +0.000 NA
ATOM      5  C   UNL     1      37.144  30.807  44.685  0.00  0.00    +0.000 A 
ATOM      6  N   UNL     1      36.113  31.194  43.951  0.00  0.00    +0.000 NA
ENDROOT
BRANCH   5   7
ATOM      7  C   UNL     1      36.849  30.789  46.102  0.00  0.00    +0.000 A 
ATOM      8  C   UNL     1      35.825  30.024  46.664  0.00  0.00    +0.000 A 
ATOM      9  C   UNL     1      35.516  29.982  47.987  0.00  0.00    +0.000 A 
ATOM     10  C   UNL     1      36.243  30.734  48.878  0.00  0.00    +0.000 A 
ATOM     11  C   UNL     1      37.245  31.493  48.398  0.00  0.00    +0.000 A 
ATOM     12  C   UNL     1      37.969  32.247  49.303  0.00  0.00    +0.000 A 
ATOM     13  C   UNL     1      39.002  33.046  48.904  0.00  0.00    +0.000 A 
ATOM     14  C   UNL     1      39.311  33.085  47.553  0.00  0.00    +0.000 A 
ATOM     15  C   UNL     1      38.571  32.325  46.692  0.00  0.00    +0.000 A 
ATOM     16  C   UNL     1      37.546  31.527  47.059  0.00  0.00    +0.000 A 
BRANCH  10  17
ATOM     17  O   UNL     1      35.915  30.678  50.216  0.00  0.00    +0.000 OA
BRANCH  17  18
ATOM     18  C   UNL     1      36.418  29.638  51.035  0.00  0.00    +0.000 C 
ATOM     19  F   UNL     1      37.238  28.742  50.417  0.00  0.00    +0.000 F 
ATOM     20  F   UNL     1      37.196  30.236  52.026  0.00  0.00    +0.000 F 
ATOM     21  F   UNL     1      35.315  29.004  51.591  0.00  0.00    +0.000 F 
ENDBRANCH  17  18
ENDBRANCH  10  17
ENDBRANCH   5   7
BRANCH   3  22
ATOM     22  N   UNL     1      39.610  30.221  42.115  0.00  0.00    +0.000 N 
ATOM     23  C   UNL     1      40.743  29.924  42.910  0.00  0.00    +0.000 C 
ATOM     24  N   UNL     1      40.955  30.649  43.967  0.00  0.00    +0.000 NA
ATOM     25  N   UNL     1      41.617  28.862  42.566  0.00  0.00    +0.000 N 
ATOM     26  H   UNL     1      41.691  30.535  44.651  0.00  0.00    +0.000 HD
ATOM     27  H   UNL     1      39.700  30.168  41.090  0.00  0.00    +0.000 HD
ATOM     28  H   UNL     1      42.437  28.659  43.155  0.00  0.00    +0.000 HD
ATOM     29  H   UNL     1      41.432  28.294  41.727  0.00  0.00    +0.000 HD
ENDBRANCH   3  22
BRANCH   2  30
ATOM     30  C   UNL     1      37.369  31.087  40.452  0.00  0.00    +0.000 A 
ATOM     31  C   UNL     1      36.496  31.916  39.781  0.00  0.00    +0.000 A 
ATOM     32  S   UNL     1      36.903  31.757  38.051  0.00  0.00    +0.000 S 
ATOM     33  C   UNL     1      38.287  30.511  38.476  0.00  0.00    +0.000 A 
ATOM     34  N   UNL     1      38.122  30.533  39.568  0.00  0.00    +0.000 NA
ENDBRANCH   2  30
TORSDOF 5
