REMARK  Name = 
REMARK  2 active torsions:
REMARK  status: ('A' for Active; 'I' for Inactive)
REMARK    1  A    between atoms: C_2  and  C_16
REMARK    2  A    between atoms: C_9  and  C_10
REMARK                            x       y       z     vdW  Elec       q    Type
REMARK                         _______ _______ _______ _____ _____    ______ ____
ROOT
ATOM      1  C   UNL     1      35.302  29.285  49.372  0.00  0.00    +0.000 A 
ATOM      2  C   UNL     1      35.574  30.238  48.415  0.00  0.00    +0.000 A 
ATOM      3  C   UNL     1      34.702  30.338  47.327  0.00  0.00    +0.000 A 
ATOM      4  N   UNL     1      33.636  29.484  47.283  0.00  0.00    +0.000 NA
ATOM      5  C   UNL     1      33.405  28.566  48.240  0.00  0.00    +0.000 A 
ATOM      6  N   UNL     1      34.241  28.454  49.305  0.00  0.00    +0.000 NA
ATOM      7  N   UNL     1      32.233  27.823  47.934  0.00  0.00    +0.000 N 
ATOM      8  C   UNL     1      31.189  27.746  48.778  0.00  0.00    +0.000 A 
ATOM      9  C   UNL     1      30.070  27.009  48.427  0.00  0.00    +0.000 A 
ATOM     10  C   UNL     1      28.911  26.923  49.362  0.00  0.00    +0.000 C 
ATOM     11  C   UNL     1      30.072  26.369  47.203  0.00  0.00    +0.000 A 
ATOM     12  O   UNL     1      29.075  25.684  46.838  0.00  0.00    +0.000 OA
ATOM     13  N   UNL     1      31.110  26.439  46.352  0.00  0.00    +0.000 N 
ATOM     14  C   UNL     1      32.174  27.168  46.737  0.00  0.00    +0.000 A 
ATOM     15  O   UNL     1      33.181  27.264  45.966  0.00  0.00    +0.000 OA
ATOM     16  H   UNL     1      31.092  25.955  45.443  0.00  0.00    +0.000 HD
ENDROOT
BRANCH   2  17
ATOM     17  C   UNL     1      36.737  31.085  48.574  0.00  0.00    +0.000 A 
ATOM     18  C   UNL     1      37.008  31.742  49.757  0.00  0.00    +0.000 A 
ATOM     19  C   UNL     1      38.175  32.532  49.768  0.00  0.00    +0.000 A 
ATOM     20  N   UNL     1      39.000  32.671  48.719  0.00  0.00    +0.000 NA
ATOM     21  C   UNL     1      38.681  32.005  47.591  0.00  0.00    +0.000 A 
ATOM     22  N   UNL     1      37.567  31.225  47.518  0.00  0.00    +0.000 NA
ATOM     23  N   UNL     1      39.524  32.117  46.449  0.00  0.00    +0.000 N 
ATOM     24  C   UNL     1      40.092  33.136  45.769  0.00  0.00    +0.000 A 
ATOM     25  N   UNL     1      40.799  32.581  44.749  0.00  0.00    +0.000 NA
ATOM     26  C   UNL     1      40.643  31.236  44.835  0.00  0.00    +0.000 A 
ATOM     27  N   UNL     1      39.846  30.942  45.898  0.00  0.00    +0.000 NA
ENDBRANCH   2  17
TORSDOF 1
