REMARK  Name = 
REMARK  6 active torsions:
REMARK  status: ('A' for Active; 'I' for Inactive)
REMARK    1  A    between atoms: C_1  and  C_11
REMARK    2  A    between atoms: C_6  and  C_17
REMARK    3  A    between atoms: C_8  and  C_13
REMARK    4  A    between atoms: C_17  and  C_18
REMARK    5  A    between atoms: C_18  and  C_19
REMARK    6  A    between atoms: N_22  and  C_24
REMARK                            x       y       z     vdW  Elec       q    Type
REMARK                         _______ _______ _______ _____ _____    ______ ____
ROOT
ATOM      1  C   UNL     1      31.696  26.370  47.741  0.00  0.00    +0.000 A 
ATOM      2  C   UNL     1      31.479  25.205  47.091  0.00  0.00    +0.000 A 
ATOM      3  C   UNL     1      32.497  24.418  46.575  0.00  0.00    +0.000 A 
ATOM      4  C   UNL     1      33.784  24.890  46.759  0.00  0.00    +0.000 A 
ATOM      5  C   UNL     1      34.029  26.076  47.419  0.00  0.00    +0.000 A 
ATOM      6  C   UNL     1      32.987  26.827  47.916  0.00  0.00    +0.000 A 
ENDROOT
BRANCH   1  11
ATOM      7  C   UNL     1      29.147  27.816  49.978  0.00  0.00    +0.000 A 
ATOM      8  C   UNL     1      28.495  28.744  49.131  0.00  0.00    +0.000 A 
ATOM      9  C   UNL     1      28.956  28.845  47.812  0.00  0.00    +0.000 A 
ATOM     10  N   UNL     1      30.000  28.048  47.416  0.00  0.00    +0.000 NA
ATOM     11  C   UNL     1      30.593  27.171  48.271  0.00  0.00    +0.000 A 
ATOM     12  N   UNL     1      30.155  27.081  49.508  0.00  0.00    +0.000 NA
BRANCH   8  13
ATOM     13  C   UNL     1      27.367  29.591  49.583  0.00  0.00    +0.000 C 
ATOM     14  F   UNL     1      27.765  30.734  50.220  0.00  0.00    +0.000 F 
ATOM     15  F   UNL     1      26.534  28.907  50.447  0.00  0.00    +0.000 F 
ATOM     16  F   UNL     1      26.598  29.976  48.465  0.00  0.00    +0.000 F 
ENDBRANCH   8  13
ENDBRANCH   1  11
BRANCH   6  17
ATOM     17  C   UNL     1      33.197  28.103  48.631  0.00  0.00    +0.000 C 
BRANCH  17  18
ATOM     18  C   UNL     1      33.914  29.142  47.847  0.00  0.00    +0.000 C 
BRANCH  18  19
ATOM     19  C   UNL     1      35.174  29.503  48.495  0.00  0.00    +0.000 A 
ATOM     20  C   UNL     1      35.685  28.836  49.592  0.00  0.00    +0.000 A 
ATOM     21  C   UNL     1      36.875  29.421  49.962  0.00  0.00    +0.000 A 
ATOM     22  N   UNL     1      37.048  30.444  49.059  0.00  0.00    +0.000 N 
ATOM     23  N   UNL     1      36.049  30.493  48.196  0.00  0.00    +0.000 NA
BRANCH  22  24
ATOM     24  C   UNL     1      38.180  31.370  49.035  0.00  0.00    +0.000 C 
ATOM     25  C   UNL     1      38.679  31.632  47.645  0.00  0.00    +0.000 C 
ATOM     26  C   UNL     1      39.256  33.011  47.709  0.00  0.00    +0.000 C 
ATOM     27  C   UNL     1      38.901  33.586  49.046  0.00  0.00    +0.000 C 
ATOM     28  C   UNL     1      37.847  32.686  49.654  0.00  0.00    +0.000 C 
ENDBRANCH  22  24
ENDBRANCH  18  19
ENDBRANCH  17  18
ENDBRANCH   6  17
TORSDOF 6
