REMARK  Name = 
REMARK  4 active torsions:
REMARK  status: ('A' for Active; 'I' for Inactive)
REMARK    1  A    between atoms: C_1  and  C_15
REMARK    2  A    between atoms: C_4  and  O_18
REMARK    3  A    between atoms: C_13  and  O_17
REMARK    4  A    between atoms: O_18  and  C_19
REMARK                            x       y       z     vdW  Elec       q    Type
REMARK                         _______ _______ _______ _____ _____    ______ ____
ROOT
ATOM      1  C   UNL     1      37.367  31.013  46.762  0.00  0.00    +0.000 A 
ATOM      2  C   UNL     1      36.249  30.571  46.043  0.00  0.00    +0.000 A 
ATOM      3  C   UNL     1      35.136  30.021  46.604  0.00  0.00    +0.000 A 
ATOM      4  C   UNL     1      35.047  29.865  47.956  0.00  0.00    +0.000 A 
ATOM      5  C   UNL     1      36.093  30.273  48.706  0.00  0.00    +0.000 A 
ATOM      6  C   UNL     1      35.988  30.110  50.070  0.00  0.00    +0.000 A 
ATOM      7  C   UNL     1      36.992  30.489  50.925  0.00  0.00    +0.000 A 
ATOM      8  C   UNL     1      38.127  31.050  50.348  0.00  0.00    +0.000 A 
ATOM      9  C   UNL     1      38.188  31.194  48.988  0.00  0.00    +0.000 A 
ATOM     10  C   UNL     1      37.214  30.827  48.135  0.00  0.00    +0.000 A 
ENDROOT
BRANCH   1  15
ATOM     11  C   UNL     1      40.697  30.977  45.445  0.00  0.00    +0.000 A 
ATOM     12  C   UNL     1      40.994  32.273  45.007  0.00  0.00    +0.000 A 
ATOM     13  C   UNL     1      39.993  33.200  45.179  0.00  0.00    +0.000 A 
ATOM     14  N   UNL     1      38.851  32.787  45.734  0.00  0.00    +0.000 NA
ATOM     15  C   UNL     1      38.537  31.593  46.153  0.00  0.00    +0.000 A 
ATOM     16  N   UNL     1      39.514  30.715  45.982  0.00  0.00    +0.000 NA
BRANCH  13  17
ATOM     17  O   UNL     1      40.090  34.532  44.812  0.00  0.00    +0.000 OA
ATOM     18  H   UNL     1      39.328  35.145  44.966  0.00  0.00    +0.000 HD
ENDBRANCH  13  17
ENDBRANCH   1  15
BRANCH   4  19
ATOM     19  O   UNL     1      33.905  29.305  48.492  0.00  0.00    +0.000 OA
BRANCH  19  20
ATOM     20  C   UNL     1      33.724  27.922  48.510  0.00  0.00    +0.000 C 
ATOM     21  F   UNL     1      34.688  27.212  49.190  0.00  0.00    +0.000 F 
ATOM     22  F   UNL     1      32.514  27.679  49.164  0.00  0.00    +0.000 F 
ATOM     23  F   UNL     1      33.663  27.500  47.179  0.00  0.00    +0.000 F 
ENDBRANCH  19  20
ENDBRANCH   4  19
TORSDOF 4
