REMARK  Name = 
REMARK  1 active torsions:
REMARK  status: ('A' for Active; 'I' for Inactive)
REMARK    1  A    between atoms: C_1  and  C_17
REMARK                            x       y       z     vdW  Elec       q    Type
REMARK                         _______ _______ _______ _____ _____    ______ ____
ROOT
ATOM      1  C   UNL     1      36.938  29.954  49.853  0.00  0.00    +0.000 A 
ATOM      2  C   UNL     1      38.022  30.704  49.433  0.00  0.00    +0.000 A 
ATOM      3  C   UNL     1      38.045  31.176  48.123  0.00  0.00    +0.000 A 
ATOM      4  N   UNL     1      37.003  30.875  47.328  0.00  0.00    +0.000 NA
ATOM      5  C   UNL     1      35.947  30.134  47.768  0.00  0.00    +0.000 A 
ATOM      6  N   UNL     1      35.949  29.697  49.017  0.00  0.00    +0.000 NA
ATOM      7  N   UNL     1      39.134  31.950  47.657  0.00  0.00    +0.000 N 
ATOM      8  C   UNL     1      39.048  32.658  46.427  0.00  0.00    +0.000 C 
ATOM      9  N   UNL     1      37.988  32.518  45.706  0.00  0.00    +0.000 NA
ATOM     10  N   UNL     1      40.128  33.493  46.039  0.00  0.00    +0.000 N 
ATOM     11  H   UNL     1      37.950  33.025  44.790  0.00  0.00    +0.000 HD
ATOM     12  N   UNL     1      34.906  29.886  46.838  0.00  0.00    +0.000 N 
ATOM     13  C   UNL     1      33.586  29.720  47.306  0.00  0.00    +0.000 C 
ATOM     14  N   UNL     1      33.334  29.094  48.396  0.00  0.00    +0.000 NA
ATOM     15  N   UNL     1      32.466  30.251  46.569  0.00  0.00    +0.000 N 
ATOM     16  H   UNL     1      34.011  28.659  49.032  0.00  0.00    +0.000 HD
ATOM     17  H   UNL     1      39.998  32.001  48.215  0.00  0.00    +0.000 HD
ATOM     18  H   UNL     1      40.083  34.014  45.151  0.00  0.00    +0.000 HD
ATOM     19  H   UNL     1      40.956  33.578  46.645  0.00  0.00    +0.000 HD
ATOM     20  H   UNL     1      35.112  29.828  45.830  0.00  0.00    +0.000 HD
ATOM     21  H   UNL     1      31.508  30.121  46.924  0.00  0.00    +0.000 HD
ATOM     22  H   UNL     1      32.624  30.760  45.688  0.00  0.00    +0.000 HD
ENDROOT
BRANCH   1  23
ATOM     23  C   UNL     1      36.900  29.437  51.261  0.00  0.00    +0.000 C 
ATOM     24  F   UNL     1      35.600  29.142  51.618  0.00  0.00    +0.000 F 
ATOM     25  F   UNL     1      37.781  28.404  51.370  0.00  0.00    +0.000 F 
ATOM     26  F   UNL     1      37.337  30.495  52.083  0.00  0.00    +0.000 F 
ENDBRANCH   1  23
TORSDOF 1
