REMARK  Name = 
REMARK  7 active torsions:
REMARK  status: ('A' for Active; 'I' for Inactive)
REMARK    1  A    between atoms: C_1  and  C_15
REMARK    2  A    between atoms: C_4  and  O_25
REMARK    3  A    between atoms: C_12  and  C_22
REMARK    4  A    between atoms: C_13  and  N_17
REMARK    5  A    between atoms: C_22  and  C_23
REMARK    6  A    between atoms: C_22  and  C_24
REMARK    7  A    between atoms: O_25  and  C_26
REMARK                            x       y       z     vdW  Elec       q    Type
REMARK                         _______ _______ _______ _____ _____    ______ ____
ROOT
ATOM      1  C   UNL     1      36.208  31.245  42.577  0.00  0.00    +0.000 A 
ATOM      2  C   UNL     1      37.416  30.993  41.904  0.00  0.00    +0.000 A 
ATOM      3  C   UNL     1      38.493  30.666  42.673  0.00  0.00    +0.000 A 
ATOM      4  N   UNL     1      38.296  30.619  43.972  0.00  0.00    +0.000 NA
ATOM      5  C   UNL     1      37.232  30.832  44.673  0.00  0.00    +0.000 A 
ATOM      6  N   UNL     1      36.187  31.150  43.909  0.00  0.00    +0.000 NA
ENDROOT
BRANCH   5   7
ATOM      7  C   UNL     1      36.914  30.808  46.079  0.00  0.00    +0.000 A 
ATOM      8  C   UNL     1      35.887  30.034  46.626  0.00  0.00    +0.000 A 
ATOM      9  C   UNL     1      35.557  29.983  47.943  0.00  0.00    +0.000 A 
ATOM     10  C   UNL     1      36.268  30.743  48.847  0.00  0.00    +0.000 A 
ATOM     11  C   UNL     1      37.272  31.513  48.380  0.00  0.00    +0.000 A 
ATOM     12  C   UNL     1      37.976  32.269  49.300  0.00  0.00    +0.000 A 
ATOM     13  C   UNL     1      39.005  33.074  48.916  0.00  0.00    +0.000 A 
ATOM     14  C   UNL     1      39.334  33.117  47.570  0.00  0.00    +0.000 A 
ATOM     15  C   UNL     1      38.613  32.353  46.695  0.00  0.00    +0.000 A 
ATOM     16  C   UNL     1      37.588  31.547  47.044  0.00  0.00    +0.000 A 
BRANCH  10  17
ATOM     17  O   UNL     1      35.911  30.671  50.173  0.00  0.00    +0.000 OA
BRANCH  17  18
ATOM     18  C   UNL     1      36.429  29.644  51.007  0.00  0.00    +0.000 C 
ATOM     19  F   UNL     1      37.238  28.740  50.392  0.00  0.00    +0.000 F 
ATOM     20  F   UNL     1      37.211  30.261  51.975  0.00  0.00    +0.000 F 
ATOM     21  F   UNL     1      35.330  29.019  51.582  0.00  0.00    +0.000 F 
ENDBRANCH  17  18
ENDBRANCH  10  17
ENDBRANCH   5   7
BRANCH   3  22
ATOM     22  N   UNL     1      39.763  30.380  42.129  0.00  0.00    +0.000 N 
ATOM     23  C   UNL     1      40.864  29.982  42.949  0.00  0.00    +0.000 C 
ATOM     24  N   UNL     1      41.009  30.590  44.084  0.00  0.00    +0.000 NA
ATOM     25  N   UNL     1      41.765  28.962  42.544  0.00  0.00    +0.000 N 
ATOM     26  H   UNL     1      41.732  30.426  44.774  0.00  0.00    +0.000 HD
ATOM     27  H   UNL     1      39.901  30.460  41.111  0.00  0.00    +0.000 HD
ATOM     28  H   UNL     1      42.550  28.696  43.156  0.00  0.00    +0.000 HD
ATOM     29  H   UNL     1      41.634  28.488  41.639  0.00  0.00    +0.000 HD
ENDBRANCH   3  22
BRANCH   2  30
ATOM     30  C   UNL     1      37.510  31.077  40.434  0.00  0.00    +0.000 C 
ATOM     31  C   UNL     1      37.822  29.663  39.953  0.00  0.00    +0.000 C 
ATOM     32  C   UNL     1      38.651  31.922  39.944  0.00  0.00    +0.000 C 
ENDBRANCH   2  30
TORSDOF 5
