REMARK  Name = 
REMARK  5 active torsions:
REMARK  status: ('A' for Active; 'I' for Inactive)
REMARK    1  A    between atoms: C_1  and  C_15
REMARK    2  A    between atoms: C_4  and  O_23
REMARK    3  A    between atoms: C_12  and  N_22
REMARK    4  A    between atoms: C_13  and  N_17
REMARK    5  A    between atoms: O_23  and  C_24
REMARK                            x       y       z     vdW  Elec       q    Type
REMARK                         _______ _______ _______ _____ _____    ______ ____
ROOT
ATOM      1  C   UNL     1      36.112  31.325  42.613  0.00  0.00    +0.000 A 
ATOM      2  C   UNL     1      37.295  31.007  41.917  0.00  0.00    +0.000 A 
ATOM      3  C   UNL     1      38.365  30.599  42.647  0.00  0.00    +0.000 A 
ATOM      4  N   UNL     1      38.182  30.541  43.968  0.00  0.00    +0.000 NA
ATOM      5  C   UNL     1      37.149  30.810  44.683  0.00  0.00    +0.000 A 
ATOM      6  N   UNL     1      36.115  31.208  43.942  0.00  0.00    +0.000 NA
ENDROOT
BRANCH   5   7
ATOM      7  C   UNL     1      36.848  30.785  46.097  0.00  0.00    +0.000 A 
ATOM      8  C   UNL     1      35.840  30.028  46.661  0.00  0.00    +0.000 A 
ATOM      9  C   UNL     1      35.527  29.978  47.980  0.00  0.00    +0.000 A 
ATOM     10  C   UNL     1      36.247  30.728  48.876  0.00  0.00    +0.000 A 
ATOM     11  C   UNL     1      37.248  31.493  48.399  0.00  0.00    +0.000 A 
ATOM     12  C   UNL     1      37.972  32.246  49.300  0.00  0.00    +0.000 A 
ATOM     13  C   UNL     1      39.001  33.045  48.901  0.00  0.00    +0.000 A 
ATOM     14  C   UNL     1      39.309  33.086  47.550  0.00  0.00    +0.000 A 
ATOM     15  C   UNL     1      38.570  32.326  46.687  0.00  0.00    +0.000 A 
ATOM     16  C   UNL     1      37.541  31.522  47.053  0.00  0.00    +0.000 A 
BRANCH  10  17
ATOM     17  O   UNL     1      35.926  30.675  50.214  0.00  0.00    +0.000 OA
BRANCH  17  18
ATOM     18  C   UNL     1      36.422  29.645  51.033  0.00  0.00    +0.000 C 
ATOM     19  F   UNL     1      37.237  28.737  50.409  0.00  0.00    +0.000 F 
ATOM     20  F   UNL     1      37.195  30.237  52.021  0.00  0.00    +0.000 F 
ATOM     21  F   UNL     1      35.311  28.997  51.580  0.00  0.00    +0.000 F 
ENDBRANCH  17  18
ENDBRANCH  10  17
ENDBRANCH   5   7
BRANCH   3  22
ATOM     22  N   UNL     1      39.618  30.238  42.107  0.00  0.00    +0.000 N 
ATOM     23  C   UNL     1      40.748  29.924  42.903  0.00  0.00    +0.000 C 
ATOM     24  N   UNL     1      40.957  30.654  43.955  0.00  0.00    +0.000 NA
ATOM     25  N   UNL     1      41.603  28.859  42.563  0.00  0.00    +0.000 N 
ATOM     26  H   UNL     1      41.697  30.536  44.639  0.00  0.00    +0.000 HD
ATOM     27  H   UNL     1      39.716  30.201  41.082  0.00  0.00    +0.000 HD
ATOM     28  H   UNL     1      42.419  28.645  43.153  0.00  0.00    +0.000 HD
ATOM     29  H   UNL     1      41.412  28.293  41.724  0.00  0.00    +0.000 HD
ENDBRANCH   3  22
BRANCH   2  30
ATOM     30  N   UNL     1      37.408  31.094  40.501  0.00  0.00    +0.000 N 
ATOM     31  H   UNL     1      38.296  30.850  40.039  0.00  0.00    +0.000 HD
ATOM     32  H   UNL     1      36.602  31.401  39.938  0.00  0.00    +0.000 HD
ENDBRANCH   2  30
TORSDOF 5
