REMARK  Name = 
REMARK  3 active torsions:
REMARK  status: ('A' for Active; 'I' for Inactive)
REMARK    1  A    between atoms: C_3  and  C_16
REMARK    2  A    between atoms: C_5  and  C_7
REMARK    3  A    between atoms: C_20  and  C_22
REMARK                            x       y       z     vdW  Elec       q    Type
REMARK                         _______ _______ _______ _____ _____    ______ ____
ROOT
ATOM      1  C   UNL     1      31.761  29.846  46.026  0.00  0.00    +0.000 A 
ATOM      2  C   UNL     1      31.416  28.494  46.000  0.00  0.00    +0.000 A 
ATOM      3  C   UNL     1      32.324  27.569  46.519  0.00  0.00    +0.000 A 
ATOM      4  N   UNL     1      33.496  28.018  47.024  0.00  0.00    +0.000 NA
ATOM      5  C   UNL     1      33.800  29.346  47.035  0.00  0.00    +0.000 A 
ATOM      6  N   UNL     1      32.943  30.246  46.542  0.00  0.00    +0.000 NA
ENDROOT
BRANCH   5   7
ATOM      7  C   UNL     1      35.086  29.721  47.601  0.00  0.00    +0.000 A 
ATOM      8  C   UNL     1      36.129  30.265  46.842  0.00  0.00    +0.000 A 
ATOM      9  N   UNL     1      37.180  30.512  47.632  0.00  0.00    +0.000 N 
ATOM     10  C   UNL     1      36.855  30.144  48.895  0.00  0.00    +0.000 A 
ATOM     11  C   UNL     1      37.583  30.195  50.068  0.00  0.00    +0.000 A 
ATOM     12  C   UNL     1      36.966  29.735  51.234  0.00  0.00    +0.000 A 
ATOM     13  C   UNL     1      35.667  29.249  51.191  0.00  0.00    +0.000 A 
ATOM     14  C   UNL     1      34.928  29.195  50.010  0.00  0.00    +0.000 A 
ATOM     15  C   UNL     1      35.558  29.652  48.881  0.00  0.00    +0.000 A 
ATOM     16  H   UNL     1      38.080  30.913  47.332  0.00  0.00    +0.000 HD
ENDBRANCH   5   7
BRANCH   3  17
ATOM     17  C   UNL     1      32.002  26.157  46.511  0.00  0.00    +0.000 A 
ATOM     18  C   UNL     1      32.771  25.289  47.239  0.00  0.00    +0.000 A 
ATOM     19  C   UNL     1      32.404  23.969  47.196  0.00  0.00    +0.000 A 
ATOM     20  N   UNL     1      31.332  23.545  46.468  0.00  0.00    +0.000 NA
ATOM     21  C   UNL     1      30.584  24.430  45.754  0.00  0.00    +0.000 A 
ATOM     22  N   UNL     1      30.974  25.706  45.821  0.00  0.00    +0.000 NA
BRANCH  21  23
ATOM     23  C   UNL     1      29.491  23.825  45.040  0.00  0.00    +0.000 A 
ATOM     24  C   UNL     1      28.938  24.491  43.966  0.00  0.00    +0.000 A 
ATOM     25  C   UNL     1      27.893  24.004  43.216  0.00  0.00    +0.000 A 
ATOM     26  C   UNL     1      27.321  22.793  43.499  0.00  0.00    +0.000 A 
ATOM     27  C   UNL     1      27.827  22.080  44.558  0.00  0.00    +0.000 A 
ATOM     28  C   UNL     1      27.283  20.856  44.880  0.00  0.00    +0.000 A 
ATOM     29  C   UNL     1      27.758  20.101  45.934  0.00  0.00    +0.000 A 
ATOM     30  C   UNL     1      28.822  20.634  46.669  0.00  0.00    +0.000 A 
ATOM     31  C   UNL     1      29.330  21.858  46.311  0.00  0.00    +0.000 A 
ATOM     32  C   UNL     1      28.872  22.622  45.268  0.00  0.00    +0.000 A 
ENDBRANCH  21  23
ENDBRANCH   3  17
TORSDOF 3
