REMARK  Name = 
REMARK  5 active torsions:
REMARK  status: ('A' for Active; 'I' for Inactive)
REMARK    1  A    between atoms: C_1  and  C_7
REMARK    2  A    between atoms: C_1  and  C_18
REMARK    3  A    between atoms: C_2  and  C_12
REMARK    4  A    between atoms: C_9  and  C_14
REMARK    5  A    between atoms: C_18  and  C_19
REMARK                            x       y       z     vdW  Elec       q    Type
REMARK                         _______ _______ _______ _____ _____    ______ ____
ROOT
ATOM      1  C   UNL     1      33.314  27.822  48.522  0.00  0.00    +0.000 C 
ENDROOT
BRANCH   1   7
ATOM      2  C   UNL     1      31.704  26.217  47.586  0.00  0.00    +0.000 A 
ATOM      3  C   UNL     1      31.413  25.102  46.880  0.00  0.00    +0.000 A 
ATOM      4  C   UNL     1      32.369  24.302  46.295  0.00  0.00    +0.000 A 
ATOM      5  C   UNL     1      33.684  24.694  46.462  0.00  0.00    +0.000 A 
ATOM      6  C   UNL     1      33.998  25.824  47.176  0.00  0.00    +0.000 A 
ATOM      7  C   UNL     1      33.018  26.602  47.747  0.00  0.00    +0.000 A 
BRANCH   2  12
ATOM      8  C   UNL     1      29.326  27.660  50.007  0.00  0.00    +0.000 A 
ATOM      9  C   UNL     1      28.665  28.644  49.225  0.00  0.00    +0.000 A 
ATOM     10  C   UNL     1      29.061  28.777  47.892  0.00  0.00    +0.000 A 
ATOM     11  N   UNL     1      30.058  27.958  47.408  0.00  0.00    +0.000 NA
ATOM     12  C   UNL     1      30.655  27.040  48.192  0.00  0.00    +0.000 A 
ATOM     13  N   UNL     1      30.282  26.909  49.465  0.00  0.00    +0.000 NA
BRANCH   9  14
ATOM     14  C   UNL     1      27.593  29.509  49.771  0.00  0.00    +0.000 C 
ATOM     15  F   UNL     1      28.065  30.604  50.440  0.00  0.00    +0.000 F 
ATOM     16  F   UNL     1      26.770  28.808  50.640  0.00  0.00    +0.000 F 
ATOM     17  F   UNL     1      26.794  29.980  48.715  0.00  0.00    +0.000 F 
ENDBRANCH   9  14
ENDBRANCH   2  12
ENDBRANCH   1   7
BRANCH   1  18
ATOM     18  C   UNL     1      33.860  28.952  47.723  0.00  0.00    +0.000 C 
BRANCH  18  19
ATOM     19  C   UNL     1      35.091  29.461  48.326  0.00  0.00    +0.000 A 
ATOM     20  C   UNL     1      35.650  28.933  49.475  0.00  0.00    +0.000 A 
ATOM     21  C   UNL     1      36.802  29.630  49.786  0.00  0.00    +0.000 A 
ATOM     22  N   UNL     1      36.906  30.577  48.794  0.00  0.00    +0.000 N 
ATOM     23  N   UNL     1      35.899  30.471  47.942  0.00  0.00    +0.000 NA
ATOM     24  C   UNL     1      37.834  31.616  48.494  0.00  0.00    +0.000 A 
ATOM     25  N   UNL     1      37.899  32.551  49.475  0.00  0.00    +0.000 NA
ATOM     26  C   UNL     1      38.742  33.614  49.342  0.00  0.00    +0.000 A 
ATOM     27  N   UNL     1      39.516  33.746  48.236  0.00  0.00    +0.000 NA
ATOM     28  C   UNL     1      39.451  32.825  47.267  0.00  0.00    +0.000 A 
ATOM     29  C   UNL     1      40.208  32.889  46.111  0.00  0.00    +0.000 A 
ATOM     30  C   UNL     1      40.110  31.916  45.135  0.00  0.00    +0.000 A 
ATOM     31  C   UNL     1      39.250  30.844  45.286  0.00  0.00    +0.000 A 
ATOM     32  C   UNL     1      38.465  30.728  46.430  0.00  0.00    +0.000 A 
ATOM     33  C   UNL     1      38.610  31.723  47.354  0.00  0.00    +0.000 A 
ENDBRANCH  18  19
ENDBRANCH   1  18
TORSDOF 5
