REMARK  Name = 
REMARK  3 active torsions:
REMARK  status: ('A' for Active; 'I' for Inactive)
REMARK    1  A    between atoms: C_1  and  C_17
REMARK    2  A    between atoms: C_6  and  C_7
REMARK    3  A    between atoms: C_13  and  C_19
REMARK                            x       y       z     vdW  Elec       q    Type
REMARK                         _______ _______ _______ _____ _____    ______ ____
ROOT
ATOM      1  C   UNL     1      36.436  30.531  46.506  0.00  0.00    +0.000 A 
ATOM      2  C   UNL     1      35.151  30.027  46.471  0.00  0.00    +0.000 A 
ATOM      3  C   UNL     1      34.491  29.701  45.307  0.00  0.00    +0.000 A 
ATOM      4  C   UNL     1      35.127  29.879  44.103  0.00  0.00    +0.000 A 
ATOM      5  C   UNL     1      36.412  30.382  44.126  0.00  0.00    +0.000 A 
ATOM      6  C   UNL     1      37.072  30.710  45.306  0.00  0.00    +0.000 A 
ENDROOT
BRANCH   6   7
ATOM      7  C   UNL     1      38.431  31.240  45.305  0.00  0.00    +0.000 A 
ATOM      8  C   UNL     1      38.477  32.565  44.910  0.00  0.00    +0.000 A 
ATOM      9  C   UNL     1      39.714  33.209  44.859  0.00  0.00    +0.000 A 
ATOM     10  C   UNL     1      40.830  32.479  45.211  0.00  0.00    +0.000 A 
ATOM     11  C   UNL     1      40.789  31.165  45.604  0.00  0.00    +0.000 A 
ATOM     12  C   UNL     1      39.555  30.528  45.652  0.00  0.00    +0.000 A 
ENDBRANCH   6   7
BRANCH   1  17
ATOM     13  C   UNL     1      37.429  30.323  50.023  0.00  0.00    +0.000 A 
ATOM     14  C   UNL     1      38.210  31.465  50.193  0.00  0.00    +0.000 A 
ATOM     15  C   UNL     1      38.395  32.308  49.096  0.00  0.00    +0.000 A 
ATOM     16  N   UNL     1      37.806  31.968  47.929  0.00  0.00    +0.000 NA
ATOM     17  C   UNL     1      37.048  30.844  47.794  0.00  0.00    +0.000 A 
ATOM     18  N   UNL     1      36.874  30.045  48.840  0.00  0.00    +0.000 NA
BRANCH  13  19
ATOM     19  C   UNL     1      37.234  29.418  51.215  0.00  0.00    +0.000 C 
ATOM     20  F   UNL     1      35.874  29.175  51.381  0.00  0.00    +0.000 F 
ATOM     21  F   UNL     1      37.961  28.296  51.005  0.00  0.00    +0.000 F 
ATOM     22  F   UNL     1      37.679  30.112  52.340  0.00  0.00    +0.000 F 
ENDBRANCH  13  19
ENDBRANCH   1  17
TORSDOF 3
