REMARK  Name = 
REMARK  3 active torsions:
REMARK  status: ('A' for Active; 'I' for Inactive)
REMARK    1  A    between atoms: C_1  and  C_2
REMARK    2  A    between atoms: C_1  and  C_13
REMARK    3  A    between atoms: C_1  and  O_23
REMARK                            x       y       z     vdW  Elec       q    Type
REMARK                         _______ _______ _______ _____ _____    ______ ____
ROOT
ATOM      1  C   UNL     1      38.971  31.708  46.669  0.00  0.00    +0.000 A 
ATOM      2  C   UNL     1      39.771  32.758  46.188  0.00  0.00    +0.000 A 
ATOM      3  C   UNL     1      40.434  32.614  44.915  0.00  0.00    +0.000 A 
ATOM      4  N   UNL     1      40.219  31.441  44.273  0.00  0.00    +0.000 NA
ATOM      5  C   UNL     1      39.434  30.451  44.773  0.00  0.00    +0.000 A 
ATOM      6  N   UNL     1      38.829  30.585  45.938  0.00  0.00    +0.000 NA
ATOM      7  N   UNL     1      39.279  29.259  44.003  0.00  0.00    +0.000 N 
ATOM      8  C   UNL     1      40.174  29.000  42.927  0.00  0.00    +0.000 C 
ATOM      9  N   UNL     1      41.301  29.590  42.814  0.00  0.00    +0.000 NA
ATOM     10  N   UNL     1      39.797  28.051  41.947  0.00  0.00    +0.000 N 
ATOM     11  H   UNL     1      41.974  29.414  42.031  0.00  0.00    +0.000 HD
ATOM     12  H   UNL     1      38.526  28.592  44.224  0.00  0.00    +0.000 HD
ATOM     13  H   UNL     1      40.428  27.846  41.159  0.00  0.00    +0.000 HD
ATOM     14  H   UNL     1      38.892  27.565  42.022  0.00  0.00    +0.000 HD
ENDROOT
BRANCH   1  15
ATOM     15  C   UNL     1      38.525  31.976  48.005  0.00  0.00    +0.000 C 
BRANCH  15  16
ATOM     16  C   UNL     1      37.836  31.176  49.013  0.00  0.00    +0.000 A 
ATOM     17  N   UNL     1      38.390  31.048  50.219  0.00  0.00    +0.000 NA
ATOM     18  C   UNL     1      37.826  30.320  51.214  0.00  0.00    +0.000 A 
ATOM     19  N   UNL     1      36.668  29.670  51.066  0.00  0.00    +0.000 NA
ATOM     20  C   UNL     1      36.035  29.741  49.884  0.00  0.00    +0.000 A 
ATOM     21  C   UNL     1      34.850  29.070  49.681  0.00  0.00    +0.000 A 
ATOM     22  C   UNL     1      34.197  29.114  48.466  0.00  0.00    +0.000 A 
ATOM     23  C   UNL     1      34.789  29.861  47.479  0.00  0.00    +0.000 A 
ATOM     24  C   UNL     1      35.970  30.516  47.721  0.00  0.00    +0.000 A 
ATOM     25  C   UNL     1      36.643  30.492  48.908  0.00  0.00    +0.000 A 
ENDBRANCH  15  16
BRANCH  15  26
ATOM     26  O   UNL     1      38.264  33.222  48.399  0.00  0.00    +0.000 OA
ATOM     27  H   UNL     1      38.256  33.260  49.388  0.00  0.00    +0.000 HD
ENDBRANCH  15  26
ENDBRANCH   1  15
TORSDOF 3
