REMARK  Name = 
REMARK  1 active torsions:
REMARK  status: ('A' for Active; 'I' for Inactive)
REMARK    1  A    between atoms: C_1  and  C_21
REMARK                            x       y       z     vdW  Elec       q    Type
REMARK                         _______ _______ _______ _____ _____    ______ ____
ROOT
ATOM      1  C   UNL     1      36.946  29.894  49.897  0.00  0.00    +0.000 A 
ATOM      2  C   UNL     1      38.002  30.673  49.456  0.00  0.00    +0.000 A 
ATOM      3  C   UNL     1      37.988  31.128  48.132  0.00  0.00    +0.000 A 
ATOM      4  N   UNL     1      36.948  30.782  47.359  0.00  0.00    +0.000 NA
ATOM      5  C   UNL     1      35.928  30.019  47.817  0.00  0.00    +0.000 A 
ATOM      6  N   UNL     1      35.951  29.588  49.084  0.00  0.00    +0.000 NA
ATOM      7  N   UNL     1      39.053  31.933  47.663  0.00  0.00    +0.000 N 
ATOM      8  C   UNL     1      38.940  32.619  46.422  0.00  0.00    +0.000 C 
ATOM      9  N   UNL     1      37.891  32.404  45.687  0.00  0.00    +0.000 NA
ATOM     10  N   UNL     1      39.968  33.511  46.025  0.00  0.00    +0.000 N 
ATOM     11  H   UNL     1      37.864  32.847  44.741  0.00  0.00    +0.000 HD
ATOM     12  N   UNL     1      34.834  29.658  46.995  0.00  0.00    +0.000 N 
ATOM     13  C   UNL     1      34.702  29.915  45.677  0.00  0.00    +0.000 A 
ATOM     14  N   UNL     1      33.516  29.396  45.303  0.00  0.00    +0.000 NA
ATOM     15  C   UNL     1      32.893  28.816  46.363  0.00  0.00    +0.000 A 
ATOM     16  C   UNL     1      31.680  28.175  46.430  0.00  0.00    +0.000 A 
ATOM     17  N   UNL     1      31.347  27.708  47.634  0.00  0.00    +0.000 NA
ATOM     18  C   UNL     1      32.152  27.859  48.704  0.00  0.00    +0.000 A 
ATOM     19  N   UNL     1      33.357  28.497  48.627  0.00  0.00    +0.000 NA
ATOM     20  C   UNL     1      33.748  28.990  47.439  0.00  0.00    +0.000 A 
ATOM     21  H   UNL     1      39.913  32.023  48.222  0.00  0.00    +0.000 HD
ATOM     22  H   UNL     1      39.897  34.013  45.128  0.00  0.00    +0.000 HD
ATOM     23  H   UNL     1      40.786  33.657  46.633  0.00  0.00    +0.000 HD
ENDROOT
BRANCH   1  24
ATOM     24  C   UNL     1      36.960  29.412  51.316  0.00  0.00    +0.000 C 
ATOM     25  F   UNL     1      35.652  29.133  51.719  0.00  0.00    +0.000 F 
ATOM     26  F   UNL     1      37.804  28.373  51.427  0.00  0.00    +0.000 F 
ATOM     27  F   UNL     1      37.389  30.499  52.105  0.00  0.00    +0.000 F 
ENDBRANCH   1  24
TORSDOF 1
