REMARK  Name = 
REMARK  2 active torsions:
REMARK  status: ('A' for Active; 'I' for Inactive)
REMARK    1  A    between atoms: C_1  and  C_15
REMARK    2  A    between atoms: C_13  and  N_26
REMARK                            x       y       z     vdW  Elec       q    Type
REMARK                         _______ _______ _______ _____ _____    ______ ____
ROOT
ATOM      1  C   UNL     1      33.607  27.105  47.368  0.00  0.00    +0.000 A 
ATOM      2  C   UNL     1      32.818  27.798  46.443  0.00  0.00    +0.000 A 
ATOM      3  C   UNL     1      32.959  29.184  46.455  0.00  0.00    +0.000 A 
ATOM      4  N   UNL     1      33.810  29.734  47.321  0.00  0.00    +0.000 NA
ATOM      5  C   UNL     1      34.561  29.096  48.199  0.00  0.00    +0.000 A 
ATOM      6  N   UNL     1      34.420  27.767  48.181  0.00  0.00    +0.000 NA
ENDROOT
BRANCH   5   7
ATOM      7  C   UNL     1      35.524  29.541  49.197  0.00  0.00    +0.000 A 
ATOM      8  C   UNL     1      35.468  29.139  50.537  0.00  0.00    +0.000 A 
ATOM      9  C   UNL     1      36.362  29.543  51.498  0.00  0.00    +0.000 A 
ATOM     10  C   UNL     1      37.382  30.390  51.158  0.00  0.00    +0.000 A 
ATOM     11  C   UNL     1      37.490  30.818  49.865  0.00  0.00    +0.000 A 
ATOM     12  C   UNL     1      38.537  31.669  49.579  0.00  0.00    +0.000 A 
ATOM     13  C   UNL     1      38.707  32.138  48.303  0.00  0.00    +0.000 A 
ATOM     14  C   UNL     1      37.804  31.730  47.333  0.00  0.00    +0.000 A 
ATOM     15  C   UNL     1      36.777  30.876  47.681  0.00  0.00    +0.000 A 
ATOM     16  C   UNL     1      36.573  30.389  48.932  0.00  0.00    +0.000 A 
ENDBRANCH   5   7
BRANCH   3  17
ATOM     17  N   UNL     1      32.259  30.084  45.607  0.00  0.00    +0.000 N 
ATOM     18  C   UNL     1      32.981  31.084  45.074  0.00  0.00    +0.000 A 
ATOM     19  C   UNL     1      32.310  31.962  44.251  0.00  0.00    +0.000 A 
ATOM     20  C   UNL     1      30.968  31.721  44.059  0.00  0.00    +0.000 A 
ATOM     21  N   UNL     1      30.192  32.570  43.231  0.00  0.00    +0.000 N 
ATOM     22  N   UNL     1      30.283  30.686  44.627  0.00  0.00    +0.000 NA
ATOM     23  C   UNL     1      30.951  29.826  45.438  0.00  0.00    +0.000 A 
ATOM     24  O   UNL     1      30.393  28.850  45.998  0.00  0.00    +0.000 OA
ATOM     25  H   UNL     1      29.617  33.332  42.848  0.00  0.00    +0.000 HD
ATOM     26  H   UNL     1      29.707  32.900  42.370  0.00  0.00    +0.000 HD
ENDBRANCH   3  17
TORSDOF 2
