REMARK  Name = 
REMARK  4 active torsions:
REMARK  status: ('A' for Active; 'I' for Inactive)
REMARK    1  A    between atoms: C_1  and  C_2
REMARK    2  A    between atoms: C_1  and  C_12
REMARK    3  A    between atoms: C_1  and  O_23
REMARK    4  A    between atoms: C_16  and  C_18
REMARK                            x       y       z     vdW  Elec       q    Type
REMARK                         _______ _______ _______ _____ _____    ______ ____
ROOT
ATOM      1  C   UNL     1      38.607  32.150  47.965  0.00  0.00    +0.000 C 
ENDROOT
BRANCH   1   2
ATOM      2  C   UNL     1      37.929  31.246  48.889  0.00  0.00    +0.000 A 
ATOM      3  N   UNL     1      38.423  31.098  50.118  0.00  0.00    +0.000 NA
ATOM      4  C   UNL     1      37.867  30.273  51.041  0.00  0.00    +0.000 A 
ATOM      5  N   UNL     1      36.778  29.549  50.786  0.00  0.00    +0.000 NA
ATOM      6  C   UNL     1      36.193  29.628  49.565  0.00  0.00    +0.000 A 
ATOM      7  C   UNL     1      35.078  28.892  49.267  0.00  0.00    +0.000 A 
ATOM      8  C   UNL     1      34.487  28.960  48.041  0.00  0.00    +0.000 A 
ATOM      9  C   UNL     1      35.071  29.806  47.126  0.00  0.00    +0.000 A 
ATOM     10  C   UNL     1      36.189  30.529  47.459  0.00  0.00    +0.000 A 
ATOM     11  C   UNL     1      36.803  30.478  48.681  0.00  0.00    +0.000 A 
ENDBRANCH   1   2
BRANCH   1  12
ATOM     12  C   UNL     1      39.108  32.002  46.628  0.00  0.00    +0.000 A 
ATOM     13  C   UNL     1      39.831  33.141  46.234  0.00  0.00    +0.000 A 
ATOM     14  C   UNL     1      40.535  33.123  44.988  0.00  0.00    +0.000 A 
ATOM     15  N   UNL     1      40.448  31.983  44.267  0.00  0.00    +0.000 NA
ATOM     16  C   UNL     1      39.735  30.902  44.683  0.00  0.00    +0.000 A 
ATOM     17  N   UNL     1      39.081  30.910  45.833  0.00  0.00    +0.000 NA
BRANCH  16  18
ATOM     18  C   UNL     1      39.712  29.722  43.814  0.00  0.00    +0.000 A 
ATOM     19  C   UNL     1      40.492  29.612  42.667  0.00  0.00    +0.000 A 
ATOM     20  C   UNL     1      40.247  28.376  42.058  0.00  0.00    +0.000 A 
ATOM     21  C   UNL     1      39.308  27.808  42.902  0.00  0.00    +0.000 A 
ATOM     22  O   UNL     1      39.018  28.602  43.905  0.00  0.00    +0.000 OA
ENDBRANCH  16  18
ENDBRANCH   1  12
BRANCH   1  23
ATOM     23  O   UNL     1      38.265  33.350  48.430  0.00  0.00    +0.000 OA
ATOM     24  H   UNL     1      38.270  33.334  49.420  0.00  0.00    +0.000 HD
ENDBRANCH   1  23
TORSDOF 4
