REMARK  Name = 
REMARK  3 active torsions:
REMARK  status: ('A' for Active; 'I' for Inactive)
REMARK    1  A    between atoms: C_2  and  N_7
REMARK    2  A    between atoms: C_5  and  C_16
REMARK    3  A    between atoms: C_18  and  C_19
REMARK                            x       y       z     vdW  Elec       q    Type
REMARK                         _______ _______ _______ _____ _____    ______ ____
ROOT
ATOM      1  C   UNL     1      35.030  30.428  47.461  0.00  0.00    +0.000 A 
ATOM      2  C   UNL     1      36.180  30.264  48.233  0.00  0.00    +0.000 A 
ATOM      3  C   UNL     1      36.157  29.308  49.221  0.00  0.00    +0.000 A 
ATOM      4  N   UNL     1      35.001  28.575  49.385  0.00  0.00    +0.000 NA
ATOM      5  C   UNL     1      33.925  28.756  48.634  0.00  0.00    +0.000 A 
ATOM      6  N   UNL     1      33.929  29.684  47.664  0.00  0.00    +0.000 NA
ENDROOT
BRANCH   2   7
ATOM      7  N   UNL     1      37.306  31.051  47.994  0.00  0.00    +0.000 N 
ATOM      8  C   UNL     1      37.773  32.028  48.793  0.00  0.00    +0.000 A 
ATOM      9  N   UNL     1      38.869  32.607  48.300  0.00  0.00    +0.000 NA
ATOM     10  C   UNL     1      39.138  31.983  47.122  0.00  0.00    +0.000 A 
ATOM     11  C   UNL     1      40.098  32.110  46.165  0.00  0.00    +0.000 A 
ATOM     12  N   UNL     1      40.149  31.352  45.059  0.00  0.00    +0.000 NA
ATOM     13  C   UNL     1      39.172  30.413  44.914  0.00  0.00    +0.000 A 
ATOM     14  N   UNL     1      38.231  30.291  45.853  0.00  0.00    +0.000 NA
ATOM     15  C   UNL     1      38.141  31.011  46.954  0.00  0.00    +0.000 A 
ENDBRANCH   2   7
BRANCH   5  16
ATOM     16  C   UNL     1      32.708  27.910  48.893  0.00  0.00    +0.000 C 
ATOM     17  C   UNL     1      32.541  26.775  47.832  0.00  0.00    +0.000 C 
ATOM     18  C   UNL     1      31.582  27.908  47.946  0.00  0.00    +0.000 C 
BRANCH  18  19
ATOM     19  C   UNL     1      30.209  27.667  48.445  0.00  0.00    +0.000 A 
ATOM     20  N   UNL     1      30.259  27.247  49.742  0.00  0.00    +0.000 NA
ATOM     21  C   UNL     1      29.132  27.002  50.455  0.00  0.00    +0.000 A 
ATOM     22  N   UNL     1      27.928  27.179  49.852  0.00  0.00    +0.000 NA
ATOM     23  C   UNL     1      27.817  27.585  48.587  0.00  0.00    +0.000 A 
ATOM     24  C   UNL     1      26.649  27.783  47.884  0.00  0.00    +0.000 A 
ATOM     25  C   UNL     1      26.667  28.200  46.550  0.00  0.00    +0.000 A 
ATOM     26  C   UNL     1      27.861  28.433  45.874  0.00  0.00    +0.000 A 
ATOM     27  C   UNL     1      29.031  28.237  46.577  0.00  0.00    +0.000 A 
ATOM     28  C   UNL     1      28.967  27.831  47.878  0.00  0.00    +0.000 A 
ENDBRANCH  18  19
ENDBRANCH   5  16
TORSDOF 3
