REMARK  Name = 
REMARK  4 active torsions:
REMARK  status: ('A' for Active; 'I' for Inactive)
REMARK    1  A    between atoms: C_1  and  C_2
REMARK    2  A    between atoms: C_1  and  C_12
REMARK    3  A    between atoms: C_1  and  O_23
REMARK    4  A    between atoms: C_16  and  C_18
REMARK                            x       y       z     vdW  Elec       q    Type
REMARK                         _______ _______ _______ _____ _____    ______ ____
ROOT
ATOM      1  C   UNL     1      38.471  32.019  48.124  0.00  0.00    +0.000 C 
ENDROOT
BRANCH   1   2
ATOM      2  C   UNL     1      37.766  31.167  49.078  0.00  0.00    +0.000 A 
ATOM      3  N   UNL     1      38.266  31.024  50.302  0.00  0.00    +0.000 NA
ATOM      4  C   UNL     1      37.685  30.246  51.254  0.00  0.00    +0.000 A 
ATOM      5  N   UNL     1      36.563  29.566  51.026  0.00  0.00    +0.000 NA
ATOM      6  C   UNL     1      35.978  29.643  49.827  0.00  0.00    +0.000 A 
ATOM      7  C   UNL     1      34.819  28.951  49.531  0.00  0.00    +0.000 A 
ATOM      8  C   UNL     1      34.218  29.017  48.311  0.00  0.00    +0.000 A 
ATOM      9  C   UNL     1      34.825  29.813  47.381  0.00  0.00    +0.000 A 
ATOM     10  C   UNL     1      35.977  30.494  47.685  0.00  0.00    +0.000 A 
ATOM     11  C   UNL     1      36.604  30.446  48.898  0.00  0.00    +0.000 A 
ENDBRANCH   1   2
BRANCH   1  12
ATOM     12  C   UNL     1      38.983  31.800  46.801  0.00  0.00    +0.000 A 
ATOM     13  C   UNL     1      39.864  32.826  46.427  0.00  0.00    +0.000 A 
ATOM     14  C   UNL     1      40.593  32.710  45.193  0.00  0.00    +0.000 A 
ATOM     15  N   UNL     1      40.366  31.588  44.466  0.00  0.00    +0.000 NA
ATOM     16  C   UNL     1      39.499  30.621  44.869  0.00  0.00    +0.000 A 
ATOM     17  N   UNL     1      38.825  30.721  46.003  0.00  0.00    +0.000 NA
BRANCH  16  18
ATOM     18  C   UNL     1      39.369  29.457  43.947  0.00  0.00    +0.000 C 
ATOM     19  C   UNL     1      40.191  29.650  42.699  0.00  0.00    +0.000 C 
ATOM     20  C   UNL     1      39.242  29.690  41.524  0.00  0.00    +0.000 C 
ATOM     21  C   UNL     1      37.940  29.091  42.009  0.00  0.00    +0.000 C 
ATOM     22  C   UNL     1      37.939  29.264  43.495  0.00  0.00    +0.000 C 
ENDBRANCH  16  18
ENDBRANCH   1  12
BRANCH   1  23
ATOM     23  O   UNL     1      38.161  33.245  48.537  0.00  0.00    +0.000 OA
ATOM     24  H   UNL     1      38.155  33.268  49.527  0.00  0.00    +0.000 HD
ENDBRANCH   1  23
TORSDOF 4
