REMARK  Name = 
REMARK  1 active torsions:
REMARK  status: ('A' for Active; 'I' for Inactive)
REMARK    1  A    between atoms: C_5  and  C_7
REMARK                            x       y       z     vdW  Elec       q    Type
REMARK                         _______ _______ _______ _____ _____    ______ ____
ROOT
ATOM      1  C   UNL     1      37.066  30.047  51.350  0.00  0.00    +0.000 A 
ATOM      2  C   UNL     1      36.042  29.246  50.831  0.00  0.00    +0.000 A 
ATOM      3  C   UNL     1      35.794  29.428  49.488  0.00  0.00    +0.000 A 
ATOM      4  N   UNL     1      36.515  30.318  48.803  0.00  0.00    +0.000 NA
ATOM      5  C   UNL     1      37.479  31.075  49.278  0.00  0.00    +0.000 A 
ATOM      6  N   UNL     1      37.723  30.903  50.579  0.00  0.00    +0.000 NA
ATOM      7  N   UNL     1      34.786  28.694  48.800  0.00  0.00    +0.000 N 
ATOM      8  C   UNL     1      34.409  27.409  48.926  0.00  0.00    +0.000 A 
ATOM      9  N   UNL     1      33.413  27.166  48.063  0.00  0.00    +0.000 NA
ATOM     10  C   UNL     1      33.141  28.280  47.382  0.00  0.00    +0.000 A 
ATOM     11  C   UNL     1      32.251  28.660  46.385  0.00  0.00    +0.000 A 
ATOM     12  N   UNL     1      32.197  29.907  45.860  0.00  0.00    +0.000 NA
ATOM     13  C   UNL     1      33.055  30.817  46.338  0.00  0.00    +0.000 A 
ATOM     14  N   UNL     1      33.913  30.476  47.290  0.00  0.00    +0.000 NA
ATOM     15  C   UNL     1      34.014  29.252  47.850  0.00  0.00    +0.000 A 
ENDROOT
BRANCH   5  16
ATOM     16  C   UNL     1      38.343  32.069  48.685  0.00  0.00    +0.000 A 
ATOM     17  C   UNL     1      38.678  33.284  49.315  0.00  0.00    +0.000 A 
ATOM     18  C   UNL     1      39.489  34.244  48.786  0.00  0.00    +0.000 A 
ATOM     19  C   UNL     1      40.041  34.053  47.550  0.00  0.00    +0.000 A 
ATOM     20  C   UNL     1      39.765  32.903  46.873  0.00  0.00    +0.000 A 
ATOM     21  C   UNL     1      40.339  32.747  45.630  0.00  0.00    +0.000 A 
ATOM     22  C   UNL     1      40.111  31.622  44.891  0.00  0.00    +0.000 A 
ATOM     23  C   UNL     1      39.283  30.651  45.441  0.00  0.00    +0.000 A 
ATOM     24  C   UNL     1      38.736  30.852  46.679  0.00  0.00    +0.000 A 
ATOM     25  C   UNL     1      38.938  31.954  47.445  0.00  0.00    +0.000 A 
ENDBRANCH   5  16
TORSDOF 1
