REMARK  Name = 
REMARK  5 active torsions:
REMARK  status: ('A' for Active; 'I' for Inactive)
REMARK    1  A    between atoms: C_1  and  C_15
REMARK    2  A    between atoms: C_4  and  O_24
REMARK    3  A    between atoms: C_12  and  C_22
REMARK    4  A    between atoms: C_13  and  N_17
REMARK    5  A    between atoms: O_24  and  C_25
REMARK                            x       y       z     vdW  Elec       q    Type
REMARK                         _______ _______ _______ _____ _____    ______ ____
ROOT
ATOM      1  C   UNL     1      36.112  31.296  42.610  0.00  0.00    +0.000 A 
ATOM      2  C   UNL     1      37.286  30.983  41.933  0.00  0.00    +0.000 A 
ATOM      3  C   UNL     1      38.366  30.591  42.665  0.00  0.00    +0.000 A 
ATOM      4  N   UNL     1      38.188  30.544  43.979  0.00  0.00    +0.000 NA
ATOM      5  C   UNL     1      37.142  30.814  44.692  0.00  0.00    +0.000 A 
ATOM      6  N   UNL     1      36.112  31.193  43.941  0.00  0.00    +0.000 NA
ENDROOT
BRANCH   5   7
ATOM      7  C   UNL     1      36.850  30.796  46.100  0.00  0.00    +0.000 A 
ATOM      8  C   UNL     1      35.827  30.030  46.665  0.00  0.00    +0.000 A 
ATOM      9  C   UNL     1      35.522  29.985  47.989  0.00  0.00    +0.000 A 
ATOM     10  C   UNL     1      36.245  30.733  48.881  0.00  0.00    +0.000 A 
ATOM     11  C   UNL     1      37.242  31.491  48.404  0.00  0.00    +0.000 A 
ATOM     12  C   UNL     1      37.969  32.243  49.313  0.00  0.00    +0.000 A 
ATOM     13  C   UNL     1      38.998  33.039  48.914  0.00  0.00    +0.000 A 
ATOM     14  C   UNL     1      39.307  33.082  47.563  0.00  0.00    +0.000 A 
ATOM     15  C   UNL     1      38.569  32.328  46.697  0.00  0.00    +0.000 A 
ATOM     16  C   UNL     1      37.541  31.525  47.058  0.00  0.00    +0.000 A 
BRANCH  10  17
ATOM     17  O   UNL     1      35.918  30.672  50.217  0.00  0.00    +0.000 OA
BRANCH  17  18
ATOM     18  C   UNL     1      36.419  29.634  51.039  0.00  0.00    +0.000 C 
ATOM     19  F   UNL     1      37.237  28.736  50.418  0.00  0.00    +0.000 F 
ATOM     20  F   UNL     1      37.188  30.228  52.027  0.00  0.00    +0.000 F 
ATOM     21  F   UNL     1      35.316  28.997  51.592  0.00  0.00    +0.000 F 
ENDBRANCH  17  18
ENDBRANCH  10  17
ENDBRANCH   5   7
BRANCH   3  22
ATOM     22  N   UNL     1      39.615  30.239  42.116  0.00  0.00    +0.000 N 
ATOM     23  C   UNL     1      40.743  29.930  42.913  0.00  0.00    +0.000 C 
ATOM     24  N   UNL     1      40.956  30.652  43.972  0.00  0.00    +0.000 NA
ATOM     25  N   UNL     1      41.612  28.862  42.566  0.00  0.00    +0.000 N 
ATOM     26  H   UNL     1      41.691  30.532  44.656  0.00  0.00    +0.000 HD
ATOM     27  H   UNL     1      39.711  30.205  41.091  0.00  0.00    +0.000 HD
ATOM     28  H   UNL     1      42.429  28.650  43.157  0.00  0.00    +0.000 HD
ATOM     29  H   UNL     1      41.426  28.299  41.724  0.00  0.00    +0.000 HD
ENDBRANCH   3  22
BRANCH   2  30
ATOM     30  C   UNL     1      37.326  31.080  40.516  0.00  0.00    +0.000 C 
ATOM     31  O   UNL     1      37.988  30.577  39.603  0.00  0.00    +0.000 OA
ENDBRANCH   2  30
TORSDOF 5
