REMARK  Name = 
REMARK  5 active torsions:
REMARK  status: ('A' for Active; 'I' for Inactive)
REMARK    1  A    between atoms: C_1  and  C_7
REMARK    2  A    between atoms: C_1  and  C_18
REMARK    3  A    between atoms: C_2  and  C_12
REMARK    4  A    between atoms: C_9  and  C_14
REMARK    5  A    between atoms: C_18  and  C_19
REMARK                            x       y       z     vdW  Elec       q    Type
REMARK                         _______ _______ _______ _____ _____    ______ ____
ROOT
ATOM      1  C   UNL     1      33.260  27.873  48.519  0.00  0.00    +0.000 C 
ENDROOT
BRANCH   1   7
ATOM      2  C   UNL     1      31.621  26.279  47.617  0.00  0.00    +0.000 A 
ATOM      3  C   UNL     1      31.313  25.138  46.958  0.00  0.00    +0.000 A 
ATOM      4  C   UNL     1      32.256  24.272  46.438  0.00  0.00    +0.000 A 
ATOM      5  C   UNL     1      33.576  24.638  46.630  0.00  0.00    +0.000 A 
ATOM      6  C   UNL     1      33.916  25.789  47.294  0.00  0.00    +0.000 A 
ATOM      7  C   UNL     1      32.946  26.626  47.797  0.00  0.00    +0.000 A 
BRANCH   2  12
ATOM      8  C   UNL     1      29.225  27.940  49.875  0.00  0.00    +0.000 A 
ATOM      9  C   UNL     1      28.624  28.898  49.023  0.00  0.00    +0.000 A 
ATOM     10  C   UNL     1      29.065  28.938  47.704  0.00  0.00    +0.000 A 
ATOM     11  N   UNL     1      30.043  28.064  47.296  0.00  0.00    +0.000 NA
ATOM     12  C   UNL     1      30.588  27.165  48.148  0.00  0.00    +0.000 A 
ATOM     13  N   UNL     1      30.173  27.118  49.414  0.00  0.00    +0.000 NA
BRANCH   9  14
ATOM     14  C   UNL     1      27.571  29.827  49.490  0.00  0.00    +0.000 C 
ATOM     15  F   UNL     1      27.992  30.681  50.472  0.00  0.00    +0.000 F 
ATOM     16  F   UNL     1      26.469  29.144  49.981  0.00  0.00    +0.000 F 
ATOM     17  F   UNL     1      27.136  30.614  48.409  0.00  0.00    +0.000 F 
ENDBRANCH   9  14
ENDBRANCH   2  12
ENDBRANCH   1   7
BRANCH   1  18
ATOM     18  C   UNL     1      33.754  28.980  47.658  0.00  0.00    +0.000 C 
BRANCH  18  19
ATOM     19  C   UNL     1      35.010  29.520  48.181  0.00  0.00    +0.000 A 
ATOM     20  C   UNL     1      35.743  28.905  49.181  0.00  0.00    +0.000 A 
ATOM     21  C   UNL     1      36.866  29.654  49.455  0.00  0.00    +0.000 A 
ATOM     22  N   UNL     1      36.782  30.724  48.595  0.00  0.00    +0.000 N 
ATOM     23  N   UNL     1      35.692  30.637  47.852  0.00  0.00    +0.000 NA
ATOM     24  N   UNL     1      39.781  33.239  46.047  0.00  0.00    +0.000 N 
ATOM     25  C   UNL     1      39.183  32.274  45.334  0.00  0.00    +0.000 A 
ATOM     26  N   UNL     1      38.306  31.535  46.071  0.00  0.00    +0.000 NA
ATOM     27  C   UNL     1      38.375  32.085  47.310  0.00  0.00    +0.000 A 
ATOM     28  C   UNL     1      37.735  31.795  48.502  0.00  0.00    +0.000 A 
ATOM     29  N   UNL     1      37.981  32.505  49.615  0.00  0.00    +0.000 NA
ATOM     30  C   UNL     1      38.878  33.533  49.582  0.00  0.00    +0.000 A 
ATOM     31  N   UNL     1      39.518  33.839  48.428  0.00  0.00    +0.000 NA
ATOM     32  C   UNL     1      39.280  33.132  47.296  0.00  0.00    +0.000 A 
ATOM     33  H   UNL     1      40.477  33.920  45.712  0.00  0.00    +0.000 HD
ENDBRANCH  18  19
ENDBRANCH   1  18
TORSDOF 5
