REMARK  Name = 
REMARK  2 active torsions:
REMARK  status: ('A' for Active; 'I' for Inactive)
REMARK    1  A    between atoms: C_2  and  C_7
REMARK    2  A    between atoms: C_5  and  C_18
REMARK                            x       y       z     vdW  Elec       q    Type
REMARK                         _______ _______ _______ _____ _____    ______ ____
ROOT
ATOM      1  C   UNL     1      35.851  29.271  49.472  0.00  0.00    +0.000 A 
ATOM      2  C   UNL     1      35.860  30.315  48.574  0.00  0.00    +0.000 A 
ATOM      3  C   UNL     1      34.840  30.362  47.644  0.00  0.00    +0.000 A 
ATOM      4  N   UNL     1      33.899  29.369  47.686  0.00  0.00    +0.000 NA
ATOM      5  C   UNL     1      33.907  28.361  48.566  0.00  0.00    +0.000 A 
ATOM      6  N   UNL     1      34.893  28.339  49.445  0.00  0.00    +0.000 NA
ENDROOT
BRANCH   2   7
ATOM      7  C   UNL     1      36.933  31.295  48.641  0.00  0.00    +0.000 A 
ATOM      8  C   UNL     1      37.136  32.085  49.736  0.00  0.00    +0.000 A 
ATOM      9  C   UNL     1      38.214  32.978  49.663  0.00  0.00    +0.000 A 
ATOM     10  N   UNL     1      39.027  33.085  48.598  0.00  0.00    +0.000 NA
ATOM     11  C   UNL     1      38.779  32.275  47.538  0.00  0.00    +0.000 A 
ATOM     12  N   UNL     1      37.743  31.387  47.558  0.00  0.00    +0.000 NA
ATOM     13  N   UNL     1      39.617  32.348  46.386  0.00  0.00    +0.000 N 
ATOM     14  C   UNL     1      40.082  33.332  45.593  0.00  0.00    +0.000 A 
ATOM     15  N   UNL     1      40.850  32.743  44.642  0.00  0.00    +0.000 NA
ATOM     16  C   UNL     1      40.835  31.399  44.881  0.00  0.00    +0.000 A 
ATOM     17  N   UNL     1      40.061  31.144  45.977  0.00  0.00    +0.000 NA
ENDBRANCH   2   7
BRANCH   5  18
ATOM     18  C   UNL     1      32.775  27.472  48.348  0.00  0.00    +0.000 A 
ATOM     19  C   UNL     1      31.520  27.734  48.831  0.00  0.00    +0.000 A 
ATOM     20  C   UNL     1      30.424  26.923  48.649  0.00  0.00    +0.000 A 
ATOM     21  C   UNL     1      30.543  25.750  47.938  0.00  0.00    +0.000 A 
ATOM     22  C   UNL     1      31.769  25.432  47.431  0.00  0.00    +0.000 A 
ATOM     23  C   UNL     1      31.863  24.266  46.730  0.00  0.00    +0.000 A 
ATOM     24  C   UNL     1      33.065  23.869  46.184  0.00  0.00    +0.000 A 
ATOM     25  C   UNL     1      34.164  24.713  46.383  0.00  0.00    +0.000 A 
ATOM     26  C   UNL     1      34.006  25.864  47.091  0.00  0.00    +0.000 A 
ATOM     27  C   UNL     1      32.823  26.288  47.649  0.00  0.00    +0.000 A 
ENDBRANCH   5  18
TORSDOF 2
