REMARK  Name = 
REMARK  6 active torsions:
REMARK  status: ('A' for Active; 'I' for Inactive)
REMARK    1  A    between atoms: C_1  and  C_2
REMARK    2  A    between atoms: C_1  and  C_12
REMARK    3  A    between atoms: C_1  and  O_25
REMARK    4  A    between atoms: C_16  and  C_18
REMARK    5  A    between atoms: C_18  and  C_19
REMARK    6  A    between atoms: O_25  and  C_26
REMARK                            x       y       z     vdW  Elec       q    Type
REMARK                         _______ _______ _______ _____ _____    ______ ____
ROOT
ATOM      1  C   UNL     1      38.684  31.807  48.170  0.00  0.00    +0.000 C 
ENDROOT
BRANCH   1   2
ATOM      2  C   UNL     1      37.879  31.055  49.120  0.00  0.00    +0.000 A 
ATOM      3  N   UNL     1      38.313  30.885  50.362  0.00  0.00    +0.000 NA
ATOM      4  C   UNL     1      37.621  30.193  51.284  0.00  0.00    +0.000 A 
ATOM      5  N   UNL     1      36.454  29.622  51.034  0.00  0.00    +0.000 NA
ATOM      6  C   UNL     1      35.891  29.717  49.810  0.00  0.00    +0.000 A 
ATOM      7  C   UNL     1      34.698  29.139  49.517  0.00  0.00    +0.000 A 
ATOM      8  C   UNL     1      34.146  29.235  48.290  0.00  0.00    +0.000 A 
ATOM      9  C   UNL     1      34.863  29.958  47.351  0.00  0.00    +0.000 A 
ATOM     10  C   UNL     1      36.068  30.531  47.681  0.00  0.00    +0.000 A 
ATOM     11  C   UNL     1      36.636  30.440  48.900  0.00  0.00    +0.000 A 
ENDBRANCH   1   2
BRANCH   1  12
ATOM     12  C   UNL     1      39.031  31.594  46.798  0.00  0.00    +0.000 A 
ATOM     13  C   UNL     1      39.759  32.705  46.302  0.00  0.00    +0.000 A 
ATOM     14  C   UNL     1      40.310  32.644  44.980  0.00  0.00    +0.000 A 
ATOM     15  N   UNL     1      40.093  31.536  44.306  0.00  0.00    +0.000 NA
ATOM     16  C   UNL     1      39.378  30.475  44.814  0.00  0.00    +0.000 A 
ATOM     17  N   UNL     1      38.873  30.525  46.026  0.00  0.00    +0.000 NA
BRANCH  16  18
ATOM     18  C   UNL     1      39.121  29.240  44.013  0.00  0.00    +0.000 C 
BRANCH  18  19
ATOM     19  C   UNL     1      37.758  29.241  43.471  0.00  0.00    +0.000 A 
ATOM     20  C   UNL     1      36.801  30.083  44.046  0.00  0.00    +0.000 A 
ATOM     21  C   UNL     1      35.482  30.146  43.592  0.00  0.00    +0.000 A 
ATOM     22  C   UNL     1      35.086  29.341  42.520  0.00  0.00    +0.000 A 
ATOM     23  C   UNL     1      36.066  28.530  41.987  0.00  0.00    +0.000 A 
ATOM     24  C   UNL     1      37.380  28.429  42.397  0.00  0.00    +0.000 A 
ENDBRANCH  18  19
ENDBRANCH  16  18
ENDBRANCH   1  12
BRANCH   1  25
ATOM     25  O   UNL     1      38.418  33.102  48.577  0.00  0.00    +0.000 OA
BRANCH  25  26
ATOM     26  C   UNL     1      39.257  34.035  49.147  0.00  0.00    +0.000 C 
ATOM     27  N   UNL     1      39.724  35.205  48.406  0.00  0.00    +0.000 N 
ATOM     28  O   UNL     1      39.657  33.923  50.333  0.00  0.00    +0.000 OA
ATOM     29  H   UNL     1      40.351  35.885  48.859  0.00  0.00    +0.000 HD
ATOM     30  H   UNL     1      39.426  35.349  47.431  0.00  0.00    +0.000 HD
ENDBRANCH  25  26
ENDBRANCH   1  25
TORSDOF 6
