REMARK  Name = 
REMARK  2 active torsions:
REMARK  status: ('A' for Active; 'I' for Inactive)
REMARK    1  A    between atoms: C_1  and  C_21
REMARK    2  A    between atoms: C_5  and  C_12
REMARK                            x       y       z     vdW  Elec       q    Type
REMARK                         _______ _______ _______ _____ _____    ______ ____
ROOT
ATOM      1  C   UNL     1      36.961  29.905  49.917  0.00  0.00    +0.000 A 
ATOM      2  C   UNL     1      38.020  30.667  49.458  0.00  0.00    +0.000 A 
ATOM      3  C   UNL     1      37.990  31.108  48.134  0.00  0.00    +0.000 A 
ATOM      4  N   UNL     1      36.934  30.770  47.372  0.00  0.00    +0.000 NA
ATOM      5  C   UNL     1      35.914  30.023  47.853  0.00  0.00    +0.000 A 
ATOM      6  N   UNL     1      35.936  29.598  49.118  0.00  0.00    +0.000 NA
ATOM      7  N   UNL     1      39.042  31.886  47.617  0.00  0.00    +0.000 N 
ATOM      8  C   UNL     1      38.914  32.579  46.384  0.00  0.00    +0.000 C 
ATOM      9  N   UNL     1      37.861  32.369  45.679  0.00  0.00    +0.000 NA
ATOM     10  N   UNL     1      39.955  33.471  45.987  0.00  0.00    +0.000 N 
ATOM     11  H   UNL     1      37.765  32.908  44.778  0.00  0.00    +0.000 HD
ATOM     12  H   UNL     1      39.924  31.954  48.144  0.00  0.00    +0.000 HD
ATOM     13  H   UNL     1      39.882  33.984  45.097  0.00  0.00    +0.000 HD
ATOM     14  H   UNL     1      40.779  33.602  46.591  0.00  0.00    +0.000 HD
ENDROOT
BRANCH   5  15
ATOM     15  C   UNL     1      34.809  29.705  46.952  0.00  0.00    +0.000 A 
ATOM     16  C   UNL     1      34.747  30.110  45.630  0.00  0.00    +0.000 A 
ATOM     17  N   UNL     1      33.582  29.627  45.128  0.00  0.00    +0.000 N 
ATOM     18  C   UNL     1      32.941  28.945  46.095  0.00  0.00    +0.000 A 
ATOM     19  C   UNL     1      31.745  28.275  46.099  0.00  0.00    +0.000 A 
ATOM     20  C   UNL     1      31.303  27.642  47.254  0.00  0.00    +0.000 A 
ATOM     21  C   UNL     1      32.038  27.656  48.444  0.00  0.00    +0.000 A 
ATOM     22  C   UNL     1      33.238  28.338  48.413  0.00  0.00    +0.000 A 
ATOM     23  C   UNL     1      33.682  28.969  47.269  0.00  0.00    +0.000 A 
ATOM     24  H   UNL     1      33.244  29.761  44.164  0.00  0.00    +0.000 HD
ENDBRANCH   5  15
BRANCH   1  25
ATOM     25  C   UNL     1      36.984  29.424  51.351  0.00  0.00    +0.000 C 
ATOM     26  F   UNL     1      35.672  29.154  51.759  0.00  0.00    +0.000 F 
ATOM     27  F   UNL     1      37.836  28.391  51.456  0.00  0.00    +0.000 F 
ATOM     28  F   UNL     1      37.414  30.521  52.123  0.00  0.00    +0.000 F 
ENDBRANCH   1  25
TORSDOF 2
