REMARK  Name = 
REMARK  4 active torsions:
REMARK  status: ('A' for Active; 'I' for Inactive)
REMARK    1  A    between atoms: C_1  and  C_2
REMARK    2  A    between atoms: C_1  and  C_12
REMARK    3  A    between atoms: C_1  and  O_24
REMARK    4  A    between atoms: C_16  and  C_18
REMARK                            x       y       z     vdW  Elec       q    Type
REMARK                         _______ _______ _______ _____ _____    ______ ____
ROOT
ATOM      1  C   UNL     1      38.603  32.299  48.068  0.00  0.00    +0.000 C 
ENDROOT
BRANCH   1   2
ATOM      2  C   UNL     1      37.950  31.317  48.930  0.00  0.00    +0.000 A 
ATOM      3  N   UNL     1      38.435  31.113  50.158  0.00  0.00    +0.000 NA
ATOM      4  C   UNL     1      37.894  30.221  51.024  0.00  0.00    +0.000 A 
ATOM      5  N   UNL     1      36.832  29.478  50.713  0.00  0.00    +0.000 NA
ATOM      6  C   UNL     1      36.260  29.609  49.491  0.00  0.00    +0.000 A 
ATOM      7  C   UNL     1      35.184  28.849  49.159  0.00  0.00    +0.000 A 
ATOM      8  C   UNL     1      34.603  28.963  47.917  0.00  0.00    +0.000 A 
ATOM      9  C   UNL     1      35.171  29.882  47.040  0.00  0.00    +0.000 A 
ATOM     10  C   UNL     1      36.257  30.620  47.435  0.00  0.00    +0.000 A 
ATOM     11  C   UNL     1      36.853  30.524  48.665  0.00  0.00    +0.000 A 
ENDBRANCH   1   2
BRANCH   1  12
ATOM     12  C   UNL     1      39.101  32.250  46.724  0.00  0.00    +0.000 A 
ATOM     13  C   UNL     1      39.690  33.474  46.364  0.00  0.00    +0.000 A 
ATOM     14  C   UNL     1      40.383  33.582  45.115  0.00  0.00    +0.000 A 
ATOM     15  N   UNL     1      40.414  32.461  44.361  0.00  0.00    +0.000 NA
ATOM     16  C   UNL     1      39.830  31.295  44.742  0.00  0.00    +0.000 A 
ATOM     17  N   UNL     1      39.185  31.185  45.897  0.00  0.00    +0.000 NA
BRANCH  16  18
ATOM     18  C   UNL     1      39.902  30.114  43.867  0.00  0.00    +0.000 A 
ATOM     19  C   UNL     1      39.018  29.060  43.974  0.00  0.00    +0.000 A 
ATOM     20  C   UNL     1      39.015  27.936  43.209  0.00  0.00    +0.000 A 
ATOM     21  C   UNL     1      40.007  27.879  42.241  0.00  0.00    +0.000 A 
ATOM     22  C   UNL     1      40.894  28.923  42.125  0.00  0.00    +0.000 A 
ATOM     23  N   UNL     1      40.844  30.006  42.911  0.00  0.00    +0.000 NA
ENDBRANCH  16  18
ENDBRANCH   1  12
BRANCH   1  24
ATOM     24  O   UNL     1      38.245  33.455  48.626  0.00  0.00    +0.000 OA
ATOM     25  H   UNL     1      38.272  33.368  49.612  0.00  0.00    +0.000 HD
ENDBRANCH   1  24
TORSDOF 4
