REMARK  Name = 
REMARK  4 active torsions:
REMARK  status: ('A' for Active; 'I' for Inactive)
REMARK    1  A    between atoms: C_1  and  S_18
REMARK    2  A    between atoms: C_4  and  N_10
REMARK    3  A    between atoms: C_7  and  C_16
REMARK    4  A    between atoms: S_18  and  C_21
REMARK                            x       y       z     vdW  Elec       q    Type
REMARK                         _______ _______ _______ _____ _____    ______ ____
ROOT
ATOM      1  C   UNL     1      30.787  27.941  47.094  0.00  0.00    +0.000 A 
ATOM      2  C   UNL     1      31.568  28.747  46.335  0.00  0.00    +0.000 A 
ATOM      3  C   UNL     1      32.822  29.165  46.758  0.00  0.00    +0.000 A 
ATOM      4  C   UNL     1      33.293  28.756  47.975  0.00  0.00    +0.000 A 
ATOM      5  C   UNL     1      32.485  27.935  48.737  0.00  0.00    +0.000 A 
ATOM      6  C   UNL     1      31.241  27.508  48.342  0.00  0.00    +0.000 A 
ENDROOT
BRANCH   4  10
ATOM      7  C   UNL     1      36.268  30.452  48.719  0.00  0.00    +0.000 A 
ATOM      8  C   UNL     1      36.431  29.369  49.590  0.00  0.00    +0.000 A 
ATOM      9  C   UNL     1      35.345  28.534  49.471  0.00  0.00    +0.000 A 
ATOM     10  N   UNL     1      34.552  29.090  48.561  0.00  0.00    +0.000 N 
ATOM     11  N   UNL     1      35.087  30.208  48.122  0.00  0.00    +0.000 NA
BRANCH   7  16
ATOM     12  C   UNL     1      38.406  33.402  49.368  0.00  0.00    +0.000 A 
ATOM     13  C   UNL     1      39.210  33.376  48.238  0.00  0.00    +0.000 A 
ATOM     14  C   UNL     1      39.015  32.375  47.294  0.00  0.00    +0.000 A 
ATOM     15  N   UNL     1      38.034  31.458  47.525  0.00  0.00    +0.000 NA
ATOM     16  C   UNL     1      37.269  31.506  48.629  0.00  0.00    +0.000 A 
ATOM     17  N   UNL     1      37.430  32.469  49.570  0.00  0.00    +0.000 NA
ENDBRANCH   7  16
ENDBRANCH   4  10
BRANCH   1  18
ATOM     18  S   UNL     1      29.203  27.396  46.580  0.00  0.00    +0.000 S 
ATOM     19  O   UNL     1      29.340  26.384  45.514  0.00  0.00    +0.000 OA
ATOM     20  O   UNL     1      28.547  26.766  47.803  0.00  0.00    +0.000 OA
BRANCH  18  21
ATOM     21  C   UNL     1      28.203  28.764  46.169  0.00  0.00    +0.000 A 
ATOM     22  N   UNL     1      27.897  29.042  44.867  0.00  0.00    +0.000 NA
ATOM     23  C   UNL     1      27.127  30.084  44.515  0.00  0.00    +0.000 A 
ATOM     24  N   UNL     1      26.590  30.947  45.416  0.00  0.00    +0.000 NA
ATOM     25  C   UNL     1      26.854  30.729  46.732  0.00  0.00    +0.000 A 
ATOM     26  C   UNL     1      26.334  31.565  47.698  0.00  0.00    +0.000 A 
ATOM     27  C   UNL     1      26.586  31.357  49.057  0.00  0.00    +0.000 A 
ATOM     28  C   UNL     1      27.388  30.265  49.407  0.00  0.00    +0.000 A 
ATOM     29  C   UNL     1      27.873  29.473  48.388  0.00  0.00    +0.000 A 
ATOM     30  C   UNL     1      27.638  29.662  47.044  0.00  0.00    +0.000 A 
ENDBRANCH  18  21
ENDBRANCH   1  18
TORSDOF 4
