REMARK  Name = 
REMARK  2 active torsions:
REMARK  status: ('A' for Active; 'I' for Inactive)
REMARK    1  A    between atoms: C_1  and  C_15
REMARK    2  A    between atoms: C_13  and  N_17
REMARK                            x       y       z     vdW  Elec       q    Type
REMARK                         _______ _______ _______ _____ _____    ______ ____
ROOT
ATOM      1  C   UNL     1      33.675  26.760  47.722  0.00  0.00    +0.000 A 
ATOM      2  C   UNL     1      32.714  27.346  46.903  0.00  0.00    +0.000 A 
ATOM      3  C   UNL     1      32.700  28.736  46.883  0.00  0.00    +0.000 A 
ATOM      4  N   UNL     1      33.595  29.394  47.639  0.00  0.00    +0.000 NA
ATOM      5  C   UNL     1      34.513  28.845  48.421  0.00  0.00    +0.000 A 
ATOM      6  N   UNL     1      34.500  27.526  48.418  0.00  0.00    +0.000 NA
ENDROOT
BRANCH   5   7
ATOM      7  C   UNL     1      35.531  29.409  49.281  0.00  0.00    +0.000 A 
ATOM      8  C   UNL     1      35.605  29.151  50.660  0.00  0.00    +0.000 A 
ATOM      9  C   UNL     1      36.554  29.669  51.500  0.00  0.00    +0.000 A 
ATOM     10  C   UNL     1      37.515  30.500  50.995  0.00  0.00    +0.000 A 
ATOM     11  C   UNL     1      37.511  30.798  49.668  0.00  0.00    +0.000 A 
ATOM     12  C   UNL     1      38.496  31.638  49.206  0.00  0.00    +0.000 A 
ATOM     13  C   UNL     1      38.554  31.979  47.888  0.00  0.00    +0.000 A 
ATOM     14  C   UNL     1      37.586  31.452  47.033  0.00  0.00    +0.000 A 
ATOM     15  C   UNL     1      36.623  30.617  47.547  0.00  0.00    +0.000 A 
ATOM     16  C   UNL     1      36.530  30.250  48.856  0.00  0.00    +0.000 A 
ENDBRANCH   5   7
BRANCH   3  17
ATOM     17  N   UNL     1      31.826  29.578  46.136  0.00  0.00    +0.000 N 
ATOM     18  C   UNL     1      32.449  30.459  45.333  0.00  0.00    +0.000 A 
ATOM     19  C   UNL     1      31.673  31.322  44.565  0.00  0.00    +0.000 A 
ATOM     20  C   UNL     1      30.279  31.245  44.654  0.00  0.00    +0.000 A 
ATOM     21  O   UNL     1      29.525  32.008  43.978  0.00  0.00    +0.000 OA
ATOM     22  N   UNL     1      29.709  30.345  45.476  0.00  0.00    +0.000 N 
ATOM     23  C   UNL     1      30.471  29.506  46.221  0.00  0.00    +0.000 A 
ATOM     24  O   UNL     1      30.013  28.628  47.019  0.00  0.00    +0.000 OA
ATOM     25  H   UNL     1      28.682  30.293  45.540  0.00  0.00    +0.000 HD
ENDBRANCH   3  17
TORSDOF 2
