REMARK  Name = 
REMARK  5 active torsions:
REMARK  status: ('A' for Active; 'I' for Inactive)
REMARK    1  A    between atoms: C_1  and  C_11
REMARK    2  A    between atoms: C_6  and  C_17
REMARK    3  A    between atoms: C_8  and  C_13
REMARK    4  A    between atoms: C_17  and  C_18
REMARK    5  A    between atoms: C_18  and  C_19
REMARK                            x       y       z     vdW  Elec       q    Type
REMARK                         _______ _______ _______ _____ _____    ______ ____
ROOT
ATOM      1  C   UNL     1      31.723  26.276  47.617  0.00  0.00    +0.000 A 
ATOM      2  C   UNL     1      31.475  25.138  46.931  0.00  0.00    +0.000 A 
ATOM      3  C   UNL     1      32.458  24.373  46.346  0.00  0.00    +0.000 A 
ATOM      4  C   UNL     1      33.758  24.828  46.492  0.00  0.00    +0.000 A 
ATOM      5  C   UNL     1      34.031  25.982  47.186  0.00  0.00    +0.000 A 
ATOM      6  C   UNL     1      33.020  26.721  47.757  0.00  0.00    +0.000 A 
ENDROOT
BRANCH   1  11
ATOM      7  C   UNL     1      29.280  27.628  50.027  0.00  0.00    +0.000 A 
ATOM      8  C   UNL     1      28.601  28.603  49.250  0.00  0.00    +0.000 A 
ATOM      9  C   UNL     1      29.007  28.763  47.922  0.00  0.00    +0.000 A 
ATOM     10  N   UNL     1      30.033  27.975  47.442  0.00  0.00    +0.000 NA
ATOM     11  C   UNL     1      30.645  27.061  48.225  0.00  0.00    +0.000 A 
ATOM     12  N   UNL     1      30.262  26.906  49.490  0.00  0.00    +0.000 NA
BRANCH   8  13
ATOM     13  C   UNL     1      27.502  29.434  49.794  0.00  0.00    +0.000 C 
ATOM     14  F   UNL     1      27.921  30.641  50.278  0.00  0.00    +0.000 F 
ATOM     15  F   UNL     1      26.832  28.782  50.814  0.00  0.00    +0.000 F 
ATOM     16  F   UNL     1      26.570  29.695  48.768  0.00  0.00    +0.000 F 
ENDBRANCH   8  13
ENDBRANCH   1  11
BRANCH   6  17
ATOM     17  C   UNL     1      33.272  27.965  48.509  0.00  0.00    +0.000 C 
BRANCH  17  18
ATOM     18  C   UNL     1      33.803  29.089  47.692  0.00  0.00    +0.000 C 
BRANCH  18  19
ATOM     19  C   UNL     1      35.071  29.570  48.239  0.00  0.00    +0.000 A 
ATOM     20  C   UNL     1      35.751  28.930  49.261  0.00  0.00    +0.000 A 
ATOM     21  C   UNL     1      36.905  29.628  49.549  0.00  0.00    +0.000 A 
ATOM     22  N   UNL     1      36.889  30.690  48.677  0.00  0.00    +0.000 N 
ATOM     23  N   UNL     1      35.814  30.652  47.910  0.00  0.00    +0.000 NA
ATOM     24  C   UNL     1      37.777  31.779  48.449  0.00  0.00    +0.000 A 
ATOM     25  C   UNL     1      38.039  32.613  49.521  0.00  0.00    +0.000 A 
ATOM     26  C   UNL     1      38.923  33.591  49.059  0.00  0.00    +0.000 A 
ATOM     27  N   UNL     1      39.160  33.318  47.743  0.00  0.00    +0.000 N 
ATOM     28  N   UNL     1      38.476  32.240  47.389  0.00  0.00    +0.000 NA
ATOM     29  H   UNL     1      39.774  33.864  47.122  0.00  0.00    +0.000 HD
ENDBRANCH  18  19
ENDBRANCH  17  18
ENDBRANCH   6  17
TORSDOF 5
