REMARK  Name = 
REMARK  4 active torsions:
REMARK  status: ('A' for Active; 'I' for Inactive)
REMARK    1  A    between atoms: C_1  and  C_2
REMARK    2  A    between atoms: C_1  and  C_12
REMARK    3  A    between atoms: C_1  and  O_23
REMARK    4  A    between atoms: C_16  and  C_18
REMARK                            x       y       z     vdW  Elec       q    Type
REMARK                         _______ _______ _______ _____ _____    ______ ____
ROOT
ATOM      1  C   UNL     1      38.613  32.150  47.958  0.00  0.00    +0.000 C 
ENDROOT
BRANCH   1   2
ATOM      2  C   UNL     1      37.927  31.251  48.884  0.00  0.00    +0.000 A 
ATOM      3  N   UNL     1      38.414  31.107  50.116  0.00  0.00    +0.000 NA
ATOM      4  C   UNL     1      37.855  30.290  51.042  0.00  0.00    +0.000 A 
ATOM      5  N   UNL     1      36.766  29.563  50.790  0.00  0.00    +0.000 NA
ATOM      6  C   UNL     1      36.197  29.639  49.577  0.00  0.00    +0.000 A 
ATOM      7  C   UNL     1      35.074  28.901  49.255  0.00  0.00    +0.000 A 
ATOM      8  C   UNL     1      34.489  28.958  48.029  0.00  0.00    +0.000 A 
ATOM      9  C   UNL     1      35.078  29.798  47.117  0.00  0.00    +0.000 A 
ATOM     10  C   UNL     1      36.194  30.525  47.452  0.00  0.00    +0.000 A 
ATOM     11  C   UNL     1      36.801  30.483  48.673  0.00  0.00    +0.000 A 
ENDBRANCH   1   2
BRANCH   1  12
ATOM     12  C   UNL     1      39.103  31.993  46.619  0.00  0.00    +0.000 A 
ATOM     13  C   UNL     1      39.831  33.122  46.215  0.00  0.00    +0.000 A 
ATOM     14  C   UNL     1      40.533  33.117  44.962  0.00  0.00    +0.000 A 
ATOM     15  N   UNL     1      40.424  31.972  44.244  0.00  0.00    +0.000 NA
ATOM     16  C   UNL     1      39.706  30.898  44.666  0.00  0.00    +0.000 A 
ATOM     17  N   UNL     1      39.064  30.908  45.818  0.00  0.00    +0.000 NA
BRANCH  16  18
ATOM     18  C   UNL     1      39.697  29.741  43.755  0.00  0.00    +0.000 A 
ATOM     19  C   UNL     1      38.931  28.631  43.757  0.00  0.00    +0.000 A 
ATOM     20  C   UNL     1      39.087  27.664  42.807  0.00  0.00    +0.000 A 
ATOM     21  C   UNL     1      40.167  27.987  41.814  0.00  0.00    +0.000 A 
ATOM     22  S   UNL     1      40.783  29.665  42.438  0.00  0.00    +0.000 S 
ENDBRANCH  16  18
ENDBRANCH   1  12
BRANCH   1  23
ATOM     23  O   UNL     1      38.276  33.349  48.421  0.00  0.00    +0.000 OA
ATOM     24  H   UNL     1      38.280  33.334  49.411  0.00  0.00    +0.000 HD
ENDBRANCH   1  23
TORSDOF 4
