./init_pose/1_3.pdbqt
 OpenBabel03252514103D

  6  6  0  0  0  0  0  0  0  0999 V2000
   39.8120   23.2230   36.4110 C   0  0  0  0  0  0  0  0  0  0  0  0
   39.7850   22.8600   37.7750 C   0  0  0  0  0  0  0  0  0  0  0  0
   38.7480   23.3740   38.5670 C   0  0  0  0  0  0  0  0  0  0  0  0
   37.8300   24.1950   37.9760 N   0  0  0  0  0  0  0  0  0  0  0  0
   37.8890   24.5190   36.6650 C   0  0  0  0  0  0  0  0  0  0  0  0
   38.8740   24.0310   35.8890 N   0  0  0  0  0  0  0  0  0  0  0  0
  1  2  1  0  0  0  0
  2  3  2  0  0  0  0
  4  3  1  0  0  0  0
  5  4  2  0  0  0  0
  6  1  2  0  0  0  0
  6  5  1  0  0  0  0
M  END
>  <MODEL>
4

>  <REMARK>
 minimizedAffinity -2.36751866REMARK  Name = 7
  0 active torsions:
  status: ('A' for Active; 'I' for Inactive)
                            x       y       z     vdW  Elec       q    Type
                         _______ _______ _______ _____ _____    ______ ____

>  <TORSDO>
F 0

$$$$
