./init_pose/1_3.pdbqt
     RDKit          3D

 10 10  0  0  0  0  0  0  0  0999 V2000
   39.8120   23.2230   36.4110 C   0  0  0  0  0  0  0  0  0  0  0  0
   39.7850   22.8600   37.7750 C   0  0  0  0  0  0  0  0  0  0  0  0
   38.7480   23.3740   38.5670 C   0  0  0  0  0  0  0  0  0  0  0  0
   37.8300   24.1950   37.9760 N   0  0  0  0  0  0  0  0  0  0  0  0
   37.8890   24.5190   36.6650 C   0  0  0  0  0  0  0  0  0  0  0  0
   38.8740   24.0310   35.8890 N   0  0  0  0  0  0  0  0  0  0  0  0
   40.6145   22.8379   35.7647 H   0  0  0  0  0  0  0  0  0  0  0  0
   40.5514   22.1965   38.2021 H   0  0  0  0  0  0  0  0  0  0  0  0
   38.6758   23.1228   39.6355 H   0  0  0  0  0  0  0  0  0  0  0  0
   37.1285   25.1845   36.2306 H   0  0  0  0  0  0  0  0  0  0  0  0
  1  2  2  0
  2  3  1  0
  4  3  2  0
  5  4  1  0
  6  1  1  0
  6  5  2  0
  1  7  1  0
  2  8  1  0
  3  9  1  0
  5 10  1  0
M  END
>  <MODEL>  (1) 
4

>  <REMARK>  (1) 
 minimizedAffinity -2.36751866REMARK  Name = 7
  0 active torsions:
  status: ('A' for Active; 'I' for Inactive)
                            x       y       z     vdW  Elec       q    Type
                         _______ _______ _______ _____ _____    ______ ____

>  <TORSDO>  (1) 
F 0

$$$$
