MODEL 5
REMARK minimizedAffinity -2.35947132REMARK  Name = 7
REMARK  0 active torsions:
REMARK  status: ('A' for Active; 'I' for Inactive)
REMARK                            x       y       z     vdW  Elec       q    Type
REMARK                         _______ _______ _______ _____ _____    ______ ____
ROOT
ATOM      1  C   UNL     1      38.833  24.275  36.003  0.00  0.00    +0.000 A 
ATOM      2  C   UNL     1      37.913  24.726  36.973  0.00  0.00    +0.000 A 
ATOM      3  C   UNL     1      38.003  24.181  38.263  0.00  0.00    +0.000 A 
ATOM      4  N   UNL     1      38.970  23.247  38.502  0.00  0.00    +0.000 NA
ATOM      5  C   UNL     1      39.836  22.840  37.546  0.00  0.00    +0.000 A 
ATOM      6  N   UNL     1      39.766  23.356  36.305  0.00  0.00    +0.000 NA
ENDROOT
TORSDOF 0
ENDMDL
