./init_pose/1_6.pdbqt
     RDKit          3D

 10 10  0  0  0  0  0  0  0  0999 V2000
   34.1240   30.3680   34.9380 C   0  0  0  0  0  0  0  0  0  0  0  0
   35.4940   30.7100   34.9350 C   0  0  0  0  0  0  0  0  0  0  0  0
   35.9550   31.5680   35.9450 C   0  0  0  0  0  0  0  0  0  0  0  0
   35.0560   32.0230   36.8660 N   0  0  0  0  0  0  0  0  0  0  0  0
   33.7500   31.6720   36.8370 C   0  0  0  0  0  0  0  0  0  0  0  0
   33.2910   30.8460   35.8780 N   0  0  0  0  0  0  0  0  0  0  0  0
   33.7320   29.6990   34.1577 H   0  0  0  0  0  0  0  0  0  0  0  0
   36.1766   30.3172   34.1670 H   0  0  0  0  0  0  0  0  0  0  0  0
   37.0127   31.8661   35.9934 H   0  0  0  0  0  0  0  0  0  0  0  0
   33.0604   32.0629   37.5997 H   0  0  0  0  0  0  0  0  0  0  0  0
  1  6  2  0
  2  1  1  0
  2  3  2  0
  3  4  1  0
  5  4  2  0
  6  5  1  0
  1  7  1  0
  2  8  1  0
  3  9  1  0
  5 10  1  0
M  END
>  <MODEL>  (1) 
7

>  <REMARK>  (1) 
 minimizedAffinity -2.06926155REMARK  Name = 7
  0 active torsions:
  status: ('A' for Active; 'I' for Inactive)
                            x       y       z     vdW  Elec       q    Type
                         _______ _______ _______ _____ _____    ______ ____

>  <TORSDO>  (1) 
F 0

$$$$
