./init_pose/1_8.pdbqt
 OpenBabel03252514103D

  6  6  0  0  0  0  0  0  0  0999 V2000
   38.7800   27.2190   35.7870 C   0  0  0  0  0  0  0  0  0  0  0  0
   37.5190   27.4340   35.1900 C   0  0  0  0  0  0  0  0  0  0  0  0
   37.4410   27.3840   33.7900 C   0  0  0  0  0  0  0  0  0  0  0  0
   38.5870   27.1360   33.0890 N   0  0  0  0  0  0  0  0  0  0  0  0
   39.7780   26.9340   33.6970 C   0  0  0  0  0  0  0  0  0  0  0  0
   39.8700   26.9730   35.0390 N   0  0  0  0  0  0  0  0  0  0  0  0
  2  1  1  0  0  0  0
  3  2  2  0  0  0  0
  4  5  2  0  0  0  0
  4  3  1  0  0  0  0
  5  6  1  0  0  0  0
  6  1  2  0  0  0  0
M  END
>  <MODEL>
9

>  <REMARK>
 minimizedAffinity -2.03457427REMARK  Name = 7
  0 active torsions:
  status: ('A' for Active; 'I' for Inactive)
                            x       y       z     vdW  Elec       q    Type
                         _______ _______ _______ _____ _____    ______ ____

>  <TORSDO>
F 0

$$$$
