./init_pose/1_8.pdbqt
     RDKit          3D

 10 10  0  0  0  0  0  0  0  0999 V2000
   38.7800   27.2190   35.7870 C   0  0  0  0  0  0  0  0  0  0  0  0
   37.5190   27.4340   35.1900 C   0  0  0  0  0  0  0  0  0  0  0  0
   37.4410   27.3840   33.7900 C   0  0  0  0  0  0  0  0  0  0  0  0
   38.5870   27.1360   33.0890 N   0  0  0  0  0  0  0  0  0  0  0  0
   39.7780   26.9340   33.6970 C   0  0  0  0  0  0  0  0  0  0  0  0
   39.8700   26.9730   35.0390 N   0  0  0  0  0  0  0  0  0  0  0  0
   38.8725   27.2533   36.8826 H   0  0  0  0  0  0  0  0  0  0  0  0
   36.6272   27.6341   35.8021 H   0  0  0  0  0  0  0  0  0  0  0  0
   36.4836   27.5402   33.2713 H   0  0  0  0  0  0  0  0  0  0  0  0
   40.6753   26.7370   33.0920 H   0  0  0  0  0  0  0  0  0  0  0  0
  2  1  2  0
  3  2  1  0
  4  5  1  0
  4  3  2  0
  5  6  2  0
  6  1  1  0
  1  7  1  0
  2  8  1  0
  3  9  1  0
  5 10  1  0
M  END
>  <MODEL>  (1) 
9

>  <REMARK>  (1) 
 minimizedAffinity -2.03457427REMARK  Name = 7
  0 active torsions:
  status: ('A' for Active; 'I' for Inactive)
                            x       y       z     vdW  Elec       q    Type
                         _______ _______ _______ _____ _____    ______ ____

>  <TORSDO>  (1) 
F 0

$$$$
