
     RDKit          3D

 55 58  0  0  0  0  0  0  0  0999 V2000
   37.3190   26.6190   41.0680 C   0  0  0  0  0  0  0  0  0  0  0  0
   38.3540   26.3290   41.9740 C   0  0  0  0  0  0  0  0  0  0  0  0
   38.8240   27.3500   42.8090 C   0  0  0  0  0  0  0  0  0  0  0  0
   38.2410   28.5840   42.6910 N   0  0  0  0  0  0  0  0  0  0  0  0
   37.2470   28.8480   41.8160 C   0  0  0  0  0  0  0  0  0  0  0  0
   36.7790   27.8730   41.0000 N   0  0  0  0  0  0  0  0  0  0  0  0
   39.8440   27.0990   43.7130 N   0  0  0  0  0  0  0  0  0  0  0  0
   36.8050   25.6590   40.2100 N   0  0  0  0  0  0  0  0  0  0  0  0
   36.7580   30.1390   41.8110 O   0  0  0  0  0  0  0  0  0  0  0  0
   37.0230   31.0460   40.8030 C   0  0  0  0  0  0  0  0  0  0  0  0
   36.6310   31.3380   39.5580 N   0  0  0  0  0  0  0  0  0  0  0  0
   37.2910   32.3600   39.1160 O   0  0  0  0  0  0  0  0  0  0  0  0
   38.1270   32.7770   40.0250 C   0  0  0  0  0  0  0  0  0  0  0  0
   37.9780   31.9650   41.1020 N   0  0  0  0  0  0  0  0  0  0  0  0
   39.0640   33.9160   39.9230 C   0  0  0  0  0  0  0  0  0  0  0  0
   38.7660   35.1920   40.3470 C   0  0  0  0  0  0  0  0  0  0  0  0
   39.7090   36.1980   40.2120 C   0  0  0  0  0  0  0  0  0  0  0  0
   40.9490   35.9530   39.6600 C   0  0  0  0  0  0  0  0  0  0  0  0
   41.2400   34.6860   39.2410 C   0  0  0  0  0  0  0  0  0  0  0  0
   40.3100   33.6790   39.3710 C   0  0  0  0  0  0  0  0  0  0  0  0
   40.7480   32.4090   38.8930 N   0  0  0  0  0  0  0  0  0  0  0  0
   40.5940   31.9940   37.4940 C   0  0  0  0  0  0  0  0  0  0  0  0
   41.9860   31.5800   37.0060 C   0  0  0  0  0  0  0  0  0  0  0  0
   42.3190   30.4290   37.6950 O   0  0  0  0  0  0  0  0  0  0  0  0
   42.5530   30.7230   39.0310 C   0  0  0  0  0  0  0  0  0  0  0  0
   41.3820   31.3980   39.6930 C   0  0  0  0  0  0  0  0  0  0  0  0
   38.8370   24.9560   41.9440 C   0  0  0  0  0  0  0  0  0  0  0  0
   37.7120   23.9490   41.7200 C   0  0  0  0  0  0  0  0  0  0  0  0
   39.6160   24.5050   43.1320 C   0  0  0  0  0  0  0  0  0  0  0  0
   39.7770   24.8460   40.7490 C   0  0  0  0  0  0  0  0  0  0  0  0
   40.1866   27.8531   44.3253 H   0  0  0  0  0  0  0  0  0  0  0  0
   40.2595   26.1584   43.7726 H   0  0  0  0  0  0  0  0  0  0  0  0
   36.0463   25.9043   39.5580 H   0  0  0  0  0  0  0  0  0  0  0  0
   37.1818   24.7005   40.2246 H   0  0  0  0  0  0  0  0  0  0  0  0
   37.7837   35.4114   40.7908 H   0  0  0  0  0  0  0  0  0  0  0  0
   39.4633   37.2147   40.5526 H   0  0  0  0  0  0  0  0  0  0  0  0
   41.6883   36.7613   39.5593 H   0  0  0  0  0  0  0  0  0  0  0  0
   42.2228   34.4689   38.7972 H   0  0  0  0  0  0  0  0  0  0  0  0
   39.8988   31.1444   37.4242 H   0  0  0  0  0  0  0  0  0  0  0  0
   40.1843   32.8099   36.8804 H   0  0  0  0  0  0  0  0  0  0  0  0
   41.9658   31.3825   35.9241 H   0  0  0  0  0  0  0  0  0  0  0  0
   42.7227   32.3770   37.1849 H   0  0  0  0  0  0  0  0  0  0  0  0
   42.7663   29.7853   39.5652 H   0  0  0  0  0  0  0  0  0  0  0  0
   43.4038   31.4190   39.0730 H   0  0  0  0  0  0  0  0  0  0  0  0
   41.7363   31.8673   40.6227 H   0  0  0  0  0  0  0  0  0  0  0  0
   40.6272   30.6169   39.8666 H   0  0  0  0  0  0  0  0  0  0  0  0
   37.3284   23.6056   42.6921 H   0  0  0  0  0  0  0  0  0  0  0  0
   36.8994   24.4271   41.1533 H   0  0  0  0  0  0  0  0  0  0  0  0
   38.0975   23.0886   41.1533 H   0  0  0  0  0  0  0  0  0  0  0  0
   39.0923   24.8082   44.0506 H   0  0  0  0  0  0  0  0  0  0  0  0
   39.7153   23.4097   43.1111 H   0  0  0  0  0  0  0  0  0  0  0  0
   40.6153   24.9642   43.1111 H   0  0  0  0  0  0  0  0  0  0  0  0
   40.8106   24.7250   41.1054 H   0  0  0  0  0  0  0  0  0  0  0  0
   39.4950   23.9747   40.1396 H   0  0  0  0  0  0  0  0  0  0  0  0
   39.7037   25.7588   40.1396 H   0  0  0  0  0  0  0  0  0  0  0  0
  1  2  2  0
  2  3  1  0
  3  7  1  0
  4  3  2  0
  5  4  1  0
  6  1  1  0
  6  5  2  0
  8  1  1  0
  9  5  1  0
 10 14  1  0
 10  9  1  0
 11 10  2  0
 12 11  1  0
 12 13  1  0
 13 14  2  0
 15 13  1  0
 15 16  2  0
 17 16  1  0
 18 17  2  0
 19 20  2  0
 19 18  1  0
 20 15  1  0
 21 20  1  0
 21 26  1  0
 22 21  1  0
 23 22  1  0
 23 24  1  0
 24 25  1  0
 25 26  1  0
 27  2  1  0
 27 29  1  0
 28 27  1  0
 30 27  1  0
  7 31  1  0
  7 32  1  0
  8 33  1  0
  8 34  1  0
 16 35  1  0
 17 36  1  0
 18 37  1  0
 19 38  1  0
 22 39  1  0
 22 40  1  0
 23 41  1  0
 23 42  1  0
 25 43  1  0
 25 44  1  0
 26 45  1  0
 26 46  1  0
 28 47  1  0
 28 48  1  0
 28 49  1  0
 29 50  1  0
 29 51  1  0
 29 52  1  0
 30 53  1  0
 30 54  1  0
 30 55  1  0
M  END
>  <Score>  (1) 
-7.10051

$$$$
