
     RDKit          3D

 42 46  0  0  0  0  0  0  0  0999 V2000
   40.4630   28.0620   43.1310 C   0  0  0  0  0  0  0  0  0  0  0  0
   39.6600   27.1030   43.7990 C   0  0  0  0  0  0  0  0  0  0  0  0
   38.2580   27.2060   43.6790 C   0  0  0  0  0  0  0  0  0  0  0  0
   37.7640   28.2320   42.9180 N   0  0  0  0  0  0  0  0  0  0  0  0
   38.5590   29.1180   42.3020 C   0  0  0  0  0  0  0  0  0  0  0  0
   39.9110   29.0540   42.3930 N   0  0  0  0  0  0  0  0  0  0  0  0
   37.8740   30.1310   41.5450 N   0  0  0  0  0  0  0  0  0  0  0  0
   36.5860   29.9150   41.2160 C   0  0  0  0  0  0  0  0  0  0  0  0
   36.1660   30.9880   40.5200 N   0  0  0  0  0  0  0  0  0  0  0  0
   37.1500   31.8830   40.3940 C   0  0  0  0  0  0  0  0  0  0  0  0
   37.3850   33.1230   39.8350 C   0  0  0  0  0  0  0  0  0  0  0  0
   38.5770   33.7440   39.9220 N   0  0  0  0  0  0  0  0  0  0  0  0
   39.5940   33.1400   40.5810 C   0  0  0  0  0  0  0  0  0  0  0  0
   39.4080   31.9320   41.1400 N   0  0  0  0  0  0  0  0  0  0  0  0
   38.2280   31.3240   41.0510 C   0  0  0  0  0  0  0  0  0  0  0  0
   40.8750   33.7340   40.7130 N   0  0  0  0  0  0  0  0  0  0  0  0
   41.4590   34.8860   40.3460 C   0  0  0  0  0  0  0  0  0  0  0  0
   42.7380   34.9030   40.7570 N   0  0  0  0  0  0  0  0  0  0  0  0
   42.9540   33.7470   41.3870 C   0  0  0  0  0  0  0  0  0  0  0  0
   41.8120   33.0170   41.3660 N   0  0  0  0  0  0  0  0  0  0  0  0
   44.1810   33.3880   41.9620 N   0  0  0  0  0  0  0  0  0  0  0  0
   44.2460   32.2860   42.8900 C   0  0  0  0  0  0  0  0  0  0  0  0
   45.5500   32.4000   43.6490 C   0  0  0  0  0  0  0  0  0  0  0  0
   45.8030   33.8370   44.0900 C   0  0  0  0  0  0  0  0  0  0  0  0
   45.8070   34.8070   42.9440 C   0  0  0  0  0  0  0  0  0  0  0  0
   45.4290   34.0970   41.6550 C   0  0  0  0  0  0  0  0  0  0  0  0
   41.5580   27.9987   43.2141 H   0  0  0  0  0  0  0  0  0  0  0  0
   40.1181   26.2999   44.3950 H   0  0  0  0  0  0  0  0  0  0  0  0
   37.5877   26.4901   44.1773 H   0  0  0  0  0  0  0  0  0  0  0  0
   35.9883   29.0269   41.4690 H   0  0  0  0  0  0  0  0  0  0  0  0
   36.5664   33.6238   39.2972 H   0  0  0  0  0  0  0  0  0  0  0  0
   40.9635   35.6961   39.7909 H   0  0  0  0  0  0  0  0  0  0  0  0
   43.3993   32.3356   43.5904 H   0  0  0  0  0  0  0  0  0  0  0  0
   44.1951   31.3270   42.3535 H   0  0  0  0  0  0  0  0  0  0  0  0
   45.5062   31.7536   44.5379 H   0  0  0  0  0  0  0  0  0  0  0  0
   46.3697   32.0883   42.9850 H   0  0  0  0  0  0  0  0  0  0  0  0
   45.0132   34.1316   44.7966 H   0  0  0  0  0  0  0  0  0  0  0  0
   46.7998   33.8696   44.5539 H   0  0  0  0  0  0  0  0  0  0  0  0
   45.0807   35.6086   43.1438 H   0  0  0  0  0  0  0  0  0  0  0  0
   46.8157   35.2325   42.8372 H   0  0  0  0  0  0  0  0  0  0  0  0
   46.2150   33.3859   41.3608 H   0  0  0  0  0  0  0  0  0  0  0  0
   45.3091   34.7994   40.8170 H   0  0  0  0  0  0  0  0  0  0  0  0
  1  2  2  0
  3  2  1  0
  4  3  2  0
  5  6  2  0
  5  4  1  0
  6  1  1  0
  7  5  1  0
  8  7  1  0
  9  8  2  0
 10  9  1  0
 10 15  2  0
 11 12  2  0
 11 10  1  0
 12 13  1  0
 13 16  1  0
 13 14  2  0
 15 14  1  0
 15  7  1  0
 16 20  1  0
 17 16  1  0
 17 18  2  0
 18 19  1  0
 19 21  1  0
 20 19  2  0
 21 22  1  0
 22 23  1  0
 23 24  1  0
 25 24  1  0
 26 21  1  0
 26 25  1  0
  1 27  1  0
  2 28  1  0
  3 29  1  0
  8 30  1  0
 11 31  1  0
 17 32  1  0
 22 33  1  0
 22 34  1  0
 23 35  1  0
 23 36  1  0
 24 37  1  0
 24 38  1  0
 25 39  1  0
 25 40  1  0
 26 41  1  0
 26 42  1  0
M  END
>  <Score>  (1) 
-7.07778

$$$$
