
     RDKit          3D

 35 38  0  0  0  0  0  0  0  0999 V2000
   37.8090   33.6620   40.5810 N   0  0  0  0  0  0  0  0  0  0  0  0
   38.4500   34.7490   40.1940 N   0  0  0  0  0  0  0  0  0  0  0  0
   39.7750   34.5190   40.2460 C   0  0  0  0  0  0  0  0  0  0  0  0
   39.8710   33.2230   40.6900 C   0  0  0  0  0  0  0  0  0  0  0  0
   38.6030   32.6700   40.9060 C   0  0  0  0  0  0  0  0  0  0  0  0
   38.4750   31.3310   41.3900 C   0  0  0  0  0  0  0  0  0  0  0  0
   39.4350   30.8250   42.1960 N   0  0  0  0  0  0  0  0  0  0  0  0
   39.4530   29.6170   42.7220 C   0  0  0  0  0  0  0  0  0  0  0  0
   38.4690   28.7380   42.4950 N   0  0  0  0  0  0  0  0  0  0  0  0
   37.4490   29.1320   41.7010 C   0  0  0  0  0  0  0  0  0  0  0  0
   36.4070   28.2800   41.4350 C   0  0  0  0  0  0  0  0  0  0  0  0
   35.3470   28.6380   40.6410 C   0  0  0  0  0  0  0  0  0  0  0  0
   35.3880   29.9260   40.1140 C   0  0  0  0  0  0  0  0  0  0  0  0
   36.4530   30.7390   40.4100 C   0  0  0  0  0  0  0  0  0  0  0  0
   37.5080   30.3990   41.1960 C   0  0  0  0  0  0  0  0  0  0  0  0
   41.2080   35.5260   39.8910 S   0  0  0  0  0  0  0  0  0  0  0  0
   44.0920   33.9400   42.1190 C   0  0  0  0  0  0  0  0  0  0  0  0
   44.3360   34.8910   43.1020 C   0  0  0  0  0  0  0  0  0  0  0  0
   43.5960   36.0600   43.0940 C   0  0  0  0  0  0  0  0  0  0  0  0
   42.6630   36.2210   42.1150 N   0  0  0  0  0  0  0  0  0  0  0  0
   42.4560   35.2570   41.1650 C   0  0  0  0  0  0  0  0  0  0  0  0
   43.1680   34.1390   41.1810 N   0  0  0  0  0  0  0  0  0  0  0  0
   43.7460   37.1630   44.0780 C   0  0  0  0  0  0  0  0  0  0  0  0
   43.0310   38.2560   43.6350 F   0  0  0  0  0  0  0  0  0  0  0  0
   43.1780   36.7710   45.2640 F   0  0  0  0  0  0  0  0  0  0  0  0
   45.0680   37.4890   44.2020 F   0  0  0  0  0  0  0  0  0  0  0  0
   36.7818   33.5988   40.6237 H   0  0  0  0  0  0  0  0  0  0  0  0
   40.8190   32.6898   40.8543 H   0  0  0  0  0  0  0  0  0  0  0  0
   40.2972   29.3236   43.3633 H   0  0  0  0  0  0  0  0  0  0  0  0
   36.4220   27.2719   41.8749 H   0  0  0  0  0  0  0  0  0  0  0  0
   34.5150   27.9491   40.4333 H   0  0  0  0  0  0  0  0  0  0  0  0
   34.5752   30.2880   39.4672 H   0  0  0  0  0  0  0  0  0  0  0  0
   36.4527   31.7494   39.9751 H   0  0  0  0  0  0  0  0  0  0  0  0
   44.6726   33.0057   42.1155 H   0  0  0  0  0  0  0  0  0  0  0  0
   45.1026   34.7179   43.8717 H   0  0  0  0  0  0  0  0  0  0  0  0
  1  5  1  0
  2  3  2  0
  2  1  1  0
  3  4  1  0
  4  5  2  0
  5  6  1  0
  6  7  2  0
  7  8  1  0
  9  8  2  0
 10  9  1  0
 11 10  2  0
 12 11  1  0
 13 14  1  0
 13 12  2  0
 14 15  2  0
 15  6  1  0
 15 10  1  0
 16  3  1  0
 16 21  1  0
 17 18  2  0
 19 18  1  0
 19 23  1  0
 20 19  2  0
 21 22  2  0
 21 20  1  0
 22 17  1  0
 23 26  1  0
 23 25  1  0
 24 23  1  0
  1 27  1  0
  4 28  1  0
  8 29  1  0
 11 30  1  0
 12 31  1  0
 13 32  1  0
 14 33  1  0
 17 34  1  0
 18 35  1  0
M  END
>  <Score>  (1) 
-7.27634

$$$$
