
     RDKit          3D

 48 52  0  0  1  0  0  0  0  0999 V2000
   40.0240   32.2300   41.1140 C   0  0  0  0  0  0  0  0  0  0  0  0
   39.6440   30.9500   41.5930 C   0  0  0  0  0  0  0  0  0  0  0  0
   38.3290   30.5770   41.4610 C   0  0  0  0  0  0  0  0  0  0  0  0
   37.4400   31.4360   40.8840 N   0  0  0  0  0  0  0  0  0  0  0  0
   37.8240   32.6650   40.4300 C   0  0  0  0  0  0  0  0  0  0  0  0
   39.1230   33.0580   40.5480 N   0  0  0  0  0  0  0  0  0  0  0  0
   36.8530   33.5150   39.8370 N   0  0  0  0  0  0  0  0  0  0  0  0
   37.8690   29.3150   41.9130 N   0  0  0  0  0  0  0  0  0  0  0  0
   38.0070   28.9540   43.2930 C   0  0  0  0  0  0  0  0  0  0  0  0
   36.9560   27.8720   43.5860 C   0  0  0  0  0  0  0  0  0  0  0  0
   37.0820   26.7240   42.7470 N   0  0  0  0  0  0  0  0  0  0  0  0
   37.5970   26.9830   41.4430 C   0  0  0  0  0  0  0  0  0  0  0  0
   37.2560   28.3790   40.9960 C   0  0  2  0  0  0  0  0  0  0  0  0
   37.5670   28.6210   39.5730 C   0  0  0  0  0  0  0  0  0  0  0  0
   36.5500   28.6730   38.6290 C   0  0  0  0  0  0  0  0  0  0  0  0
   36.7450   28.8940   37.2890 C   0  0  0  0  0  0  0  0  0  0  0  0
   38.0250   29.0620   36.9220 N   0  0  0  0  0  0  0  0  0  0  0  0
   39.0450   29.0180   37.8120 C   0  0  0  0  0  0  0  0  0  0  0  0
   38.8380   28.8000   39.1390 N   0  0  0  0  0  0  0  0  0  0  0  0
   40.3690   29.2090   37.3200 N   0  0  0  0  0  0  0  0  0  0  0  0
   41.1020   28.1390   36.8990 C   0  0  0  0  0  0  0  0  0  0  0  0
   42.3160   28.5130   36.4730 N   0  0  0  0  0  0  0  0  0  0  0  0
   42.3850   29.8360   36.6140 C   0  0  0  0  0  0  0  0  0  0  0  0
   43.3260   30.8320   36.3740 C   0  0  0  0  0  0  0  0  0  0  0  0
   44.4300   30.4500   35.8950 O   0  0  0  0  0  0  0  0  0  0  0  0
   43.0260   32.1140   36.6540 N   0  0  0  0  0  0  0  0  0  0  0  0
   41.8320   32.4820   37.1660 C   0  0  0  0  0  0  0  0  0  0  0  0
   41.6970   33.8790   37.3970 N   0  0  0  0  0  0  0  0  0  0  0  0
   40.8800   31.5380   37.4180 N   0  0  0  0  0  0  0  0  0  0  0  0
   41.1860   30.2600   37.1350 C   0  0  0  0  0  0  0  0  0  0  0  0
   41.0716   32.5525   41.2059 H   0  0  0  0  0  0  0  0  0  0  0  0
   40.3803   30.2767   42.0561 H   0  0  0  0  0  0  0  0  0  0  0  0
   35.8751   33.2018   39.7558 H   0  0  0  0  0  0  0  0  0  0  0  0
   37.1266   34.4447   39.4881 H   0  0  0  0  0  0  0  0  0  0  0  0
   39.0166   28.5595   43.4804 H   0  0  0  0  0  0  0  0  0  0  0  0
   37.8586   29.8292   43.9427 H   0  0  0  0  0  0  0  0  0  0  0  0
   37.0648   27.5534   44.6332 H   0  0  0  0  0  0  0  0  0  0  0  0
   35.9681   28.3140   43.3892 H   0  0  0  0  0  0  0  0  0  0  0  0
   37.7128   26.0559   43.2125 H   0  0  0  0  0  0  0  0  0  0  0  0
   38.6908   26.8674   41.4587 H   0  0  0  0  0  0  0  0  0  0  0  0
   37.1441   26.2692   40.7392 H   0  0  0  0  0  0  0  0  0  0  0  0
   36.1667   28.5266   41.0375 H   0  0  0  0  0  0  0  0  0  0  0  0
   35.5176   28.5271   38.9794 H   0  0  0  0  0  0  0  0  0  0  0  0
   35.9141   28.9308   36.5691 H   0  0  0  0  0  0  0  0  0  0  0  0
   40.7419   27.0996   36.9080 H   0  0  0  0  0  0  0  0  0  0  0  0
   43.7328   32.8405   36.4711 H   0  0  0  0  0  0  0  0  0  0  0  0
   40.8204   34.2543   37.7863 H   0  0  0  0  0  0  0  0  0  0  0  0
   42.4759   34.5153   37.1749 H   0  0  0  0  0  0  0  0  0  0  0  0
  1  2  2  0
  3  2  1  0
  3  8  1  0
  4  3  2  0
  5  6  2  0
  5  4  1  0
  6  1  1  0
  7  5  1  0
  8  9  1  0
  9 10  1  0
 11 10  1  0
 12 11  1  0
 13 12  1  0
 13  8  1  0
 14 13  1  0
 15 14  2  0
 16 15  1  0
 17 16  2  0
 17 18  1  0
 18 19  2  0
 19 14  1  0
 20 18  1  0
 21 20  1  0
 22 23  1  0
 22 21  2  0
 23 30  2  0
 24 23  1  0
 24 26  1  0
 25 24  2  0
 26 27  1  0
 27 28  1  0
 27 29  2  0
 30 20  1  0
 30 29  1  0
  1 31  1  0
  2 32  1  0
  7 33  1  0
  7 34  1  0
  9 35  1  0
  9 36  1  0
 10 37  1  0
 10 38  1  0
 11 39  1  0
 12 40  1  0
 12 41  1  0
 13 42  1  6
 15 43  1  0
 16 44  1  0
 21 45  1  0
 26 46  1  0
 28 47  1  0
 28 48  1  0
M  END
>  <Score>  (1) 
-7.83771

$$$$
