
     RDKit          3D

 40 45  0  0  0  0  0  0  0  0999 V2000
   40.3970   27.8890   43.0000 C   0  0  0  0  0  0  0  0  0  0  0  0
   39.6680   26.9690   43.7920 C   0  0  0  0  0  0  0  0  0  0  0  0
   38.2590   27.0560   43.7880 C   0  0  0  0  0  0  0  0  0  0  0  0
   37.6670   28.0260   43.0200 N   0  0  0  0  0  0  0  0  0  0  0  0
   38.4080   28.8780   42.2830 C   0  0  0  0  0  0  0  0  0  0  0  0
   39.7710   28.8320   42.2550 N   0  0  0  0  0  0  0  0  0  0  0  0
   37.6700   29.8370   41.5290 N   0  0  0  0  0  0  0  0  0  0  0  0
   36.3400   29.6170   41.3360 C   0  0  0  0  0  0  0  0  0  0  0  0
   35.8630   30.6440   40.6030 N   0  0  0  0  0  0  0  0  0  0  0  0
   36.8360   31.5110   40.3220 C   0  0  0  0  0  0  0  0  0  0  0  0
   37.0070   32.6950   39.6560 C   0  0  0  0  0  0  0  0  0  0  0  0
   38.2030   33.3190   39.5760 N   0  0  0  0  0  0  0  0  0  0  0  0
   39.2790   32.7510   40.1800 C   0  0  0  0  0  0  0  0  0  0  0  0
   39.1490   31.5930   40.8410 N   0  0  0  0  0  0  0  0  0  0  0  0
   37.9620   30.9860   40.9140 C   0  0  0  0  0  0  0  0  0  0  0  0
   40.5640   33.3500   40.1380 N   0  0  0  0  0  0  0  0  0  0  0  0
   41.1330   34.4040   39.5170 C   0  0  0  0  0  0  0  0  0  0  0  0
   42.4260   34.4880   39.8720 N   0  0  0  0  0  0  0  0  0  0  0  0
   42.6660   33.4740   40.7250 C   0  0  0  0  0  0  0  0  0  0  0  0
   41.5200   32.7680   40.8930 N   0  0  0  0  0  0  0  0  0  0  0  0
   43.9550   33.2820   41.2890 N   0  0  0  0  0  0  0  0  0  0  0  0
   44.7900   32.2350   41.2940 C   0  0  0  0  0  0  0  0  0  0  0  0
   45.9160   32.5330   41.9700 N   0  0  0  0  0  0  0  0  0  0  0  0
   45.7930   33.8020   42.4040 C   0  0  0  0  0  0  0  0  0  0  0  0
   46.6550   34.5920   43.1410 C   0  0  0  0  0  0  0  0  0  0  0  0
   46.2840   35.8590   43.4520 N   0  0  0  0  0  0  0  0  0  0  0  0
   45.0760   36.2960   43.0220 C   0  0  0  0  0  0  0  0  0  0  0  0
   44.2170   35.5480   42.3050 N   0  0  0  0  0  0  0  0  0  0  0  0
   44.5530   34.2920   41.9800 C   0  0  0  0  0  0  0  0  0  0  0  0
   47.9120   34.1410   43.5880 N   0  0  0  0  0  0  0  0  0  0  0  0
   41.4957   27.8370   42.9893 H   0  0  0  0  0  0  0  0  0  0  0  0
   40.1854   26.2074   44.3939 H   0  0  0  0  0  0  0  0  0  0  0  0
   37.6503   26.3623   44.3866 H   0  0  0  0  0  0  0  0  0  0  0  0
   35.7611   28.7594   41.7093 H   0  0  0  0  0  0  0  0  0  0  0  0
   36.1365   33.1565   39.1668 H   0  0  0  0  0  0  0  0  0  0  0  0
   40.6180   35.0885   38.8269 H   0  0  0  0  0  0  0  0  0  0  0  0
   44.5849   31.2671   40.8133 H   0  0  0  0  0  0  0  0  0  0  0  0
   44.7791   37.3247   43.2742 H   0  0  0  0  0  0  0  0  0  0  0  0
   48.5194   34.7678   44.1348 H   0  0  0  0  0  0  0  0  0  0  0  0
   48.2239   33.1843   43.3681 H   0  0  0  0  0  0  0  0  0  0  0  0
  1  2  2  0
  3  2  1  0
  4  3  2  0
  5  4  1  0
  6  5  2  0
  6  1  1  0
  7  5  1  0
  8  7  1  0
  9  8  2  0
 10  9  1  0
 10 15  2  0
 11 10  1  0
 12 11  2  0
 12 13  1  0
 13 14  2  0
 14 15  1  0
 15  7  1  0
 16 13  1  0
 16 20  1  0
 17 18  2  0
 17 16  1  0
 18 19  1  0
 19 20  2  0
 19 21  1  0
 21 22  1  0
 21 29  1  0
 22 23  2  0
 23 24  1  0
 24 25  2  0
 25 26  1  0
 25 30  1  0
 27 26  2  0
 28 27  1  0
 29 28  2  0
 29 24  1  0
  1 31  1  0
  2 32  1  0
  3 33  1  0
  8 34  1  0
 11 35  1  0
 17 36  1  0
 22 37  1  0
 27 38  1  0
 30 39  1  0
 30 40  1  0
M  END
>  <Score>  (1) 
-7.79428

$$$$
