MODEL 1
REMARK minimizedAffinity -2.81124425REMARK  Name = 7
REMARK  0 active torsions:
REMARK  status: ('A' for Active; 'I' for Inactive)
REMARK                            x       y       z     vdW  Elec       q    Type
REMARK                         _______ _______ _______ _____ _____    ______ ____
ROOT
ATOM      1  C   UNL     1      37.298  30.182  51.417  0.00  0.00    +0.000 A 
ATOM      2  C   UNL     1      38.070  30.681  50.346  0.00  0.00    +0.000 A 
ATOM      3  C   UNL     1      37.675  30.343  49.043  0.00  0.00    +0.000 A 
ATOM      4  N   UNL     1      36.574  29.551  48.887  0.00  0.00    +0.000 NA
ATOM      5  C   UNL     1      35.858  29.093  49.939  0.00  0.00    +0.000 A 
ATOM      6  N   UNL     1      36.219  29.411  51.196  0.00  0.00    +0.000 NA
ENDROOT
TORSDOF 0
ENDMDL
