MODEL 2
REMARK minimizedAffinity -2.77796936REMARK  Name = 7
REMARK  0 active torsions:
REMARK  status: ('A' for Active; 'I' for Inactive)
REMARK                            x       y       z     vdW  Elec       q    Type
REMARK                         _______ _______ _______ _____ _____    ______ ____
ROOT
ATOM      1  C   UNL     1      37.430  30.165  48.956  0.00  0.00    +0.000 A 
ATOM      2  C   UNL     1      37.990  30.544  50.195  0.00  0.00    +0.000 A 
ATOM      3  C   UNL     1      37.318  30.155  51.363  0.00  0.00    +0.000 A 
ATOM      4  N   UNL     1      36.163  29.437  51.234  0.00  0.00    +0.000 NA
ATOM      5  C   UNL     1      35.658  29.091  50.028  0.00  0.00    +0.000 A 
ATOM      6  N   UNL     1      36.292  29.452  48.897  0.00  0.00    +0.000 NA
ENDROOT
TORSDOF 0
ENDMDL
