./init_pose/1_1.pdbqt
     RDKit          3D

 10 10  0  0  0  0  0  0  0  0999 V2000
   37.4300   30.1650   48.9560 C   0  0  0  0  0  0  0  0  0  0  0  0
   37.9900   30.5440   50.1950 C   0  0  0  0  0  0  0  0  0  0  0  0
   37.3180   30.1550   51.3630 C   0  0  0  0  0  0  0  0  0  0  0  0
   36.1630   29.4370   51.2340 N   0  0  0  0  0  0  0  0  0  0  0  0
   35.6580   29.0910   50.0280 C   0  0  0  0  0  0  0  0  0  0  0  0
   36.2920   29.4520   48.8970 N   0  0  0  0  0  0  0  0  0  0  0  0
   37.9334   30.4581   48.0229 H   0  0  0  0  0  0  0  0  0  0  0  0
   38.9227   31.1253   50.2429 H   0  0  0  0  0  0  0  0  0  0  0  0
   37.7102   30.4208   52.3557 H   0  0  0  0  0  0  0  0  0  0  0  0
   34.7246   28.5117   49.9712 H   0  0  0  0  0  0  0  0  0  0  0  0
  1  2  2  0
  2  3  1  0
  4  3  2  0
  5  4  1  0
  6  1  1  0
  6  5  2  0
  1  7  1  0
  2  8  1  0
  3  9  1  0
  5 10  1  0
M  END
>  <MODEL>  (1) 
2

>  <REMARK>  (1) 
 minimizedAffinity -2.77796936REMARK  Name = 7
  0 active torsions:
  status: ('A' for Active; 'I' for Inactive)
                            x       y       z     vdW  Elec       q    Type
                         _______ _______ _______ _____ _____    ______ ____

>  <TORSDO>  (1) 
F 0

$$$$
