./init_pose/1_2.pdbqt
 OpenBabel03262520053D

  6  6  0  0  0  0  0  0  0  0999 V2000
   37.3510   30.2830   51.3170 C   0  0  0  0  0  0  0  0  0  0  0  0
   36.3110   29.4110   50.9300 C   0  0  0  0  0  0  0  0  0  0  0  0
   36.1210   29.1870   49.5580 C   0  0  0  0  0  0  0  0  0  0  0  0
   36.9480   29.8270   48.6800 N   0  0  0  0  0  0  0  0  0  0  0  0
   37.9360   30.6550   49.0880 C   0  0  0  0  0  0  0  0  0  0  0  0
   38.1350   30.8780   50.4010 N   0  0  0  0  0  0  0  0  0  0  0  0
  2  1  1  0  0  0  0
  3  2  2  0  0  0  0
  4  5  2  0  0  0  0
  4  3  1  0  0  0  0
  5  6  1  0  0  0  0
  6  1  2  0  0  0  0
M  END
>  <MODEL>
3

>  <REMARK>
 minimizedAffinity -2.75909901REMARK  Name = 7
  0 active torsions:
  status: ('A' for Active; 'I' for Inactive)
                            x       y       z     vdW  Elec       q    Type
                         _______ _______ _______ _____ _____    ______ ____

>  <TORSDO>
F 0

$$$$
