./init_pose/1_3.pdbqt
 OpenBabel03262520053D

  6  6  0  0  0  0  0  0  0  0999 V2000
   36.2950   29.2490   49.3990 C   0  0  0  0  0  0  0  0  0  0  0  0
   36.4180   29.3810   50.7990 C   0  0  0  0  0  0  0  0  0  0  0  0
   37.3890   30.2660   51.2900 C   0  0  0  0  0  0  0  0  0  0  0  0
   38.1590   30.9440   50.3880 N   0  0  0  0  0  0  0  0  0  0  0  0
   38.0110   30.7930   49.0530 C   0  0  0  0  0  0  0  0  0  0  0  0
   37.0810   29.9510   48.5640 N   0  0  0  0  0  0  0  0  0  0  0  0
  1  2  1  0  0  0  0
  2  3  2  0  0  0  0
  4  3  1  0  0  0  0
  5  4  2  0  0  0  0
  6  5  1  0  0  0  0
  6  1  2  0  0  0  0
M  END
>  <MODEL>
4

>  <REMARK>
 minimizedAffinity -2.74049568REMARK  Name = 7
  0 active torsions:
  status: ('A' for Active; 'I' for Inactive)
                            x       y       z     vdW  Elec       q    Type
                         _______ _______ _______ _____ _____    ______ ____

>  <TORSDO>
F 0

$$$$
