MODEL 4
REMARK minimizedAffinity -2.74049568REMARK  Name = 7
REMARK  0 active torsions:
REMARK  status: ('A' for Active; 'I' for Inactive)
REMARK                            x       y       z     vdW  Elec       q    Type
REMARK                         _______ _______ _______ _____ _____    ______ ____
ROOT
ATOM      1  C   UNL     1      36.295  29.249  49.399  0.00  0.00    +0.000 A 
ATOM      2  C   UNL     1      36.418  29.381  50.799  0.00  0.00    +0.000 A 
ATOM      3  C   UNL     1      37.389  30.266  51.290  0.00  0.00    +0.000 A 
ATOM      4  N   UNL     1      38.159  30.944  50.388  0.00  0.00    +0.000 NA
ATOM      5  C   UNL     1      38.011  30.793  49.053  0.00  0.00    +0.000 A 
ATOM      6  N   UNL     1      37.081  29.951  48.564  0.00  0.00    +0.000 NA
ENDROOT
TORSDOF 0
ENDMDL
