./init_pose/1_3.pdbqt
     RDKit          3D

 10 10  0  0  0  0  0  0  0  0999 V2000
   36.2950   29.2490   49.3990 C   0  0  0  0  0  0  0  0  0  0  0  0
   36.4180   29.3810   50.7990 C   0  0  0  0  0  0  0  0  0  0  0  0
   37.3890   30.2660   51.2900 C   0  0  0  0  0  0  0  0  0  0  0  0
   38.1590   30.9440   50.3880 N   0  0  0  0  0  0  0  0  0  0  0  0
   38.0110   30.7930   49.0530 C   0  0  0  0  0  0  0  0  0  0  0  0
   37.0810   29.9510   48.5640 N   0  0  0  0  0  0  0  0  0  0  0  0
   35.5439   28.5606   48.9844 H   0  0  0  0  0  0  0  0  0  0  0  0
   35.7735   28.8086   51.4824 H   0  0  0  0  0  0  0  0  0  0  0  0
   37.5267   30.4102   52.3718 H   0  0  0  0  0  0  0  0  0  0  0  0
   38.6530   31.3604   48.3631 H   0  0  0  0  0  0  0  0  0  0  0  0
  1  2  2  0
  2  3  1  0
  4  3  2  0
  5  4  1  0
  6  5  2  0
  6  1  1  0
  1  7  1  0
  2  8  1  0
  3  9  1  0
  5 10  1  0
M  END
>  <MODEL>  (1) 
4

>  <REMARK>  (1) 
 minimizedAffinity -2.74049568REMARK  Name = 7
  0 active torsions:
  status: ('A' for Active; 'I' for Inactive)
                            x       y       z     vdW  Elec       q    Type
                         _______ _______ _______ _____ _____    ______ ____

>  <TORSDO>  (1) 
F 0

$$$$
