./init_pose/1_4.pdbqt
 OpenBabel03262520053D

  6  6  0  0  0  0  0  0  0  0999 V2000
   36.6700   29.6770   48.8130 C   0  0  0  0  0  0  0  0  0  0  0  0
   37.7490   30.5780   48.9340 C   0  0  0  0  0  0  0  0  0  0  0  0
   38.1740   30.9200   50.2270 C   0  0  0  0  0  0  0  0  0  0  0  0
   37.5190   30.3650   51.2890 N   0  0  0  0  0  0  0  0  0  0  0  0
   36.4890   29.5020   51.1330 C   0  0  0  0  0  0  0  0  0  0  0  0
   36.0710   29.1600   49.9000 N   0  0  0  0  0  0  0  0  0  0  0  0
  1  2  2  0  0  0  0
  1  6  1  0  0  0  0
  2  3  1  0  0  0  0
  3  4  2  0  0  0  0
  5  4  1  0  0  0  0
  6  5  2  0  0  0  0
M  END
>  <MODEL>
5

>  <REMARK>
 minimizedAffinity -2.71193266REMARK  Name = 7
  0 active torsions:
  status: ('A' for Active; 'I' for Inactive)
                            x       y       z     vdW  Elec       q    Type
                         _______ _______ _______ _____ _____    ______ ____

>  <TORSDO>
F 0

$$$$
