./init_pose/1_4.pdbqt
     RDKit          3D

 10 10  0  0  0  0  0  0  0  0999 V2000
   36.6700   29.6770   48.8130 C   0  0  0  0  0  0  0  0  0  0  0  0
   37.7490   30.5780   48.9340 C   0  0  0  0  0  0  0  0  0  0  0  0
   38.1740   30.9200   50.2270 C   0  0  0  0  0  0  0  0  0  0  0  0
   37.5190   30.3650   51.2890 N   0  0  0  0  0  0  0  0  0  0  0  0
   36.4890   29.5020   51.1330 C   0  0  0  0  0  0  0  0  0  0  0  0
   36.0710   29.1600   49.9000 N   0  0  0  0  0  0  0  0  0  0  0  0
   36.3127   29.3927   47.8122 H   0  0  0  0  0  0  0  0  0  0  0  0
   38.2408   30.9984   48.0444 H   0  0  0  0  0  0  0  0  0  0  0  0
   39.0118   31.6160   50.3808 H   0  0  0  0  0  0  0  0  0  0  0  0
   35.9910   29.0780   52.0174 H   0  0  0  0  0  0  0  0  0  0  0  0
  1  2  2  0
  1  6  1  0
  2  3  1  0
  3  4  2  0
  5  4  1  0
  6  5  2  0
  1  7  1  0
  2  8  1  0
  3  9  1  0
  5 10  1  0
M  END
>  <MODEL>  (1) 
5

>  <REMARK>  (1) 
 minimizedAffinity -2.71193266REMARK  Name = 7
  0 active torsions:
  status: ('A' for Active; 'I' for Inactive)
                            x       y       z     vdW  Elec       q    Type
                         _______ _______ _______ _____ _____    ______ ____

>  <TORSDO>  (1) 
F 0

$$$$
