MODEL 6
REMARK minimizedAffinity -2.70532775REMARK  Name = 7
REMARK  0 active torsions:
REMARK  status: ('A' for Active; 'I' for Inactive)
REMARK                            x       y       z     vdW  Elec       q    Type
REMARK                         _______ _______ _______ _____ _____    ______ ____
ROOT
ATOM      1  C   UNL     1      27.417  28.948  50.010  0.00  0.00    +0.000 A 
ATOM      2  C   UNL     1      26.893  28.028  50.943  0.00  0.00    +0.000 A 
ATOM      3  C   UNL     1      27.737  27.002  51.395  0.00  0.00    +0.000 A 
ATOM      4  N   UNL     1      29.010  26.952  50.904  0.00  0.00    +0.000 NA
ATOM      5  C   UNL     1      29.478  27.853  50.012  0.00  0.00    +0.000 A 
ATOM      6  N   UNL     1      28.684  28.846  49.571  0.00  0.00    +0.000 NA
ENDROOT
TORSDOF 0
ENDMDL
