./init_pose/1_5.pdbqt
     RDKit          3D

 10 10  0  0  0  0  0  0  0  0999 V2000
   27.4170   28.9480   50.0100 C   0  0  0  0  0  0  0  0  0  0  0  0
   26.8930   28.0280   50.9430 C   0  0  0  0  0  0  0  0  0  0  0  0
   27.7370   27.0020   51.3950 C   0  0  0  0  0  0  0  0  0  0  0  0
   29.0100   26.9520   50.9040 N   0  0  0  0  0  0  0  0  0  0  0  0
   29.4780   27.8530   50.0120 C   0  0  0  0  0  0  0  0  0  0  0  0
   28.6840   28.8460   49.5710 N   0  0  0  0  0  0  0  0  0  0  0  0
   26.7786   29.7619   49.6357 H   0  0  0  0  0  0  0  0  0  0  0  0
   25.8573   28.1123   51.3040 H   0  0  0  0  0  0  0  0  0  0  0  0
   27.3828   26.2588   52.1245 H   0  0  0  0  0  0  0  0  0  0  0  0
   30.5120   27.7744   49.6450 H   0  0  0  0  0  0  0  0  0  0  0  0
  1  2  2  0
  2  3  1  0
  4  3  2  0
  5  4  1  0
  6  1  1  0
  6  5  2  0
  1  7  1  0
  2  8  1  0
  3  9  1  0
  5 10  1  0
M  END
>  <MODEL>  (1) 
6

>  <REMARK>  (1) 
 minimizedAffinity -2.70532775REMARK  Name = 7
  0 active torsions:
  status: ('A' for Active; 'I' for Inactive)
                            x       y       z     vdW  Elec       q    Type
                         _______ _______ _______ _____ _____    ______ ____

>  <TORSDO>  (1) 
F 0

$$$$
