./init_pose/1_6.pdbqt
 OpenBabel03262520053D

  6  6  0  0  0  0  0  0  0  0999 V2000
   27.7500   27.0220   51.3620 C   0  0  0  0  0  0  0  0  0  0  0  0
   26.8720   28.0420   50.9370 C   0  0  0  0  0  0  0  0  0  0  0  0
   27.3610   28.9850   50.0200 C   0  0  0  0  0  0  0  0  0  0  0  0
   28.6530   28.8630   49.5970 N   0  0  0  0  0  0  0  0  0  0  0  0
   29.4650   27.8700   50.0260 C   0  0  0  0  0  0  0  0  0  0  0  0
   29.0110   26.9540   50.9020 N   0  0  0  0  0  0  0  0  0  0  0  0
  2  1  1  0  0  0  0
  3  2  2  0  0  0  0
  4  3  1  0  0  0  0
  4  5  2  0  0  0  0
  5  6  1  0  0  0  0
  6  1  2  0  0  0  0
M  END
>  <MODEL>
7

>  <REMARK>
 minimizedAffinity -2.69716382REMARK  Name = 7
  0 active torsions:
  status: ('A' for Active; 'I' for Inactive)
                            x       y       z     vdW  Elec       q    Type
                         _______ _______ _______ _____ _____    ______ ____

>  <TORSDO>
F 0

$$$$
