./init_pose/1_7.pdbqt
 OpenBabel03262520053D

  6  6  0  0  0  0  0  0  0  0999 V2000
   27.5860   27.0770   51.2360 C   0  0  0  0  0  0  0  0  0  0  0  0
   28.9400   26.9890   50.8470 C   0  0  0  0  0  0  0  0  0  0  0  0
   29.4310   27.9630   49.9650 C   0  0  0  0  0  0  0  0  0  0  0  0
   28.5730   28.9340   49.5340 N   0  0  0  0  0  0  0  0  0  0  0  0
   27.2810   28.9870   49.9310 C   0  0  0  0  0  0  0  0  0  0  0  0
   26.7950   28.0630   50.7800 N   0  0  0  0  0  0  0  0  0  0  0  0
  2  1  1  0  0  0  0
  3  2  2  0  0  0  0
  4  5  2  0  0  0  0
  4  3  1  0  0  0  0
  5  6  1  0  0  0  0
  6  1  2  0  0  0  0
M  END
>  <MODEL>
8

>  <REMARK>
 minimizedAffinity -2.65339541REMARK  Name = 7
  0 active torsions:
  status: ('A' for Active; 'I' for Inactive)
                            x       y       z     vdW  Elec       q    Type
                         _______ _______ _______ _____ _____    ______ ____

>  <TORSDO>
F 0

$$$$
