./init_pose/1_7.pdbqt
     RDKit          3D

 10 10  0  0  0  0  0  0  0  0999 V2000
   27.5860   27.0770   51.2360 C   0  0  0  0  0  0  0  0  0  0  0  0
   28.9400   26.9890   50.8470 C   0  0  0  0  0  0  0  0  0  0  0  0
   29.4310   27.9630   49.9650 C   0  0  0  0  0  0  0  0  0  0  0  0
   28.5730   28.9340   49.5340 N   0  0  0  0  0  0  0  0  0  0  0  0
   27.2810   28.9870   49.9310 C   0  0  0  0  0  0  0  0  0  0  0  0
   26.7950   28.0630   50.7800 N   0  0  0  0  0  0  0  0  0  0  0  0
   27.1713   26.3257   51.9241 H   0  0  0  0  0  0  0  0  0  0  0  0
   29.5883   26.1837   51.2228 H   0  0  0  0  0  0  0  0  0  0  0  0
   30.4785   27.9451   49.6297 H   0  0  0  0  0  0  0  0  0  0  0  0
   26.6255   29.7880   49.5586 H   0  0  0  0  0  0  0  0  0  0  0  0
  2  1  2  0
  3  2  1  0
  4  5  1  0
  4  3  2  0
  5  6  2  0
  6  1  1  0
  1  7  1  0
  2  8  1  0
  3  9  1  0
  5 10  1  0
M  END
>  <MODEL>  (1) 
8

>  <REMARK>  (1) 
 minimizedAffinity -2.65339541REMARK  Name = 7
  0 active torsions:
  status: ('A' for Active; 'I' for Inactive)
                            x       y       z     vdW  Elec       q    Type
                         _______ _______ _______ _____ _____    ______ ____

>  <TORSDO>  (1) 
F 0

$$$$
