MODEL 9
REMARK minimizedAffinity -2.63811445REMARK  Name = 7
REMARK  0 active torsions:
REMARK  status: ('A' for Active; 'I' for Inactive)
REMARK                            x       y       z     vdW  Elec       q    Type
REMARK                         _______ _______ _______ _____ _____    ______ ____
ROOT
ATOM      1  C   UNL     1      25.259  31.038  48.869  0.00  0.00    +0.000 A 
ATOM      2  C   UNL     1      24.632  29.808  49.164  0.00  0.00    +0.000 A 
ATOM      3  C   UNL     1      25.449  28.732  49.545  0.00  0.00    +0.000 A 
ATOM      4  N   UNL     1      26.798  28.937  49.604  0.00  0.00    +0.000 NA
ATOM      5  C   UNL     1      27.362  30.131  49.315  0.00  0.00    +0.000 A 
ATOM      6  N   UNL     1      26.593  31.175  48.952  0.00  0.00    +0.000 NA
ENDROOT
TORSDOF 0
ENDMDL
