
 OpenBabel03272514373D

 30 35  0  0  1  0  0  0  0  0999 V2000
   37.6440   25.2030   33.9060 C   0  0  0  0  0  3  0  0  0  0  0  0
   38.1090   25.4350   35.1900 C   0  0  0  0  0  0  0  0  0  0  0  0
   38.0430   26.8000   35.6040 C   0  0  0  0  0  3  0  0  0  0  0  0
   37.5510   27.7450   34.7560 N   0  0  0  0  0  0  0  0  0  0  0  0
   37.1200   27.4440   33.5310 C   0  0  0  0  0  0  0  0  0  0  0  0
   37.1690   26.1730   33.1120 N   0  0  0  0  0  0  0  0  0  0  0  0
   38.6500   24.5150   36.1660 C   0  0  0  0  0  0  0  0  0  0  0  0
   37.8380   24.4200   37.2670 C   0  0  0  0  0  3  0  0  0  0  0  0
   38.1650   23.5860   38.3380 C   0  0  0  0  0  3  0  0  0  0  0  0
   39.3270   22.8430   38.2890 C   0  0  0  0  0  3  0  0  0  0  0  0
   40.1330   22.9500   37.1720 C   0  0  0  0  0  0  0  0  0  0  0  0
   41.3290   22.2430   37.0180 C   0  0  0  0  0  3  0  0  0  0  0  0
   42.0850   22.3930   35.8850 C   0  0  0  0  0  3  0  0  0  0  0  0
   41.7130   23.2270   34.8660 C   0  0  0  0  0  3  0  0  0  0  0  0
   40.5300   23.9350   35.0040 C   0  0  0  0  0  3  0  0  0  0  0  0
   39.7880   23.7710   36.1410 C   0  0  0  0  0  0  0  0  0  0  0  0
   36.5910   28.5330   32.6610 C   0  0  1  0  0  3  0  0  0  0  0  0
   35.9970   28.1490   31.3360 C   0  0  0  0  0  2  0  0  0  0  0  0
   35.1240   28.6540   32.4510 C   0  0  2  0  0  3  0  0  0  0  0  0
   34.3850   30.2800   32.3850 S   0  0  0  0  0  0  0  0  0  0  0  0
   34.7970   31.2790   33.8190 C   0  0  0  0  0  0  0  0  0  0  0  0
   35.8870   32.1160   33.6520 C   0  0  0  0  0  3  0  0  0  0  0  0
   36.2950   32.9220   34.6710 C   0  0  0  0  0  3  0  0  0  0  0  0
   35.5840   32.8620   35.8520 C   0  0  0  0  0  3  0  0  0  0  0  0
   34.5000   32.0470   36.0560 C   0  0  0  0  0  0  0  0  0  0  0  0
   33.8020   32.0060   37.2540 C   0  0  0  0  0  3  0  0  0  0  0  0
   32.7270   31.1510   37.3550 C   0  0  0  0  0  3  0  0  0  0  0  0
   32.3380   30.3410   36.2910 C   0  0  0  0  0  3  0  0  0  0  0  0
   33.0160   30.3660   35.0940 C   0  0  0  0  0  3  0  0  0  0  0  0
   34.0860   31.2250   35.0100 C   0  0  0  0  0  0  0  0  0  0  0  0
  1  2  1  0  0  0  0
  2  3  2  0  0  0  0
  2  7  1  0  0  0  0
  4  3  1  0  0  0  0
  5  4  2  0  0  0  0
  6  5  1  0  0  0  0
  6  1  2  0  0  0  0
  7  8  1  0  0  0  0
  8  9  2  0  0  0  0
 10  9  1  0  0  0  0
 11 10  2  0  0  0  0
 12 11  1  0  0  0  0
 13 12  2  0  0  0  0
 14 15  2  0  0  0  0
 14 13  1  0  0  0  0
 15 16  1  0  0  0  0
 16  7  2  0  0  0  0
 16 11  1  0  0  0  0
 17  5  1  1  0  0  0
 18 19  1  0  0  0  0
 18 17  1  0  0  0  0
 19 20  1  6  0  0  0
 19 17  1  0  0  0  0
 20 21  1  0  0  0  0
 21 30  1  0  0  0  0
 22 21  2  0  0  0  0
 22 23  1  0  0  0  0
 23 24  2  0  0  0  0
 24 25  1  0  0  0  0
 25 26  1  0  0  0  0
 26 27  2  0  0  0  0
 28 27  1  0  0  0  0
 29 28  2  0  0  0  0
 30 29  1  0  0  0  0
 30 25  2  0  0  0  0
M  END
>  <minimizedAffinity>
-7.55554247

$$$$

 OpenBabel03272514373D

 30 35  0  0  1  0  0  0  0  0999 V2000
   37.5710   25.2610   33.9650 C   0  0  0  0  0  3  0  0  0  0  0  0
   38.0950   25.4890   35.2260 C   0  0  0  0  0  0  0  0  0  0  0  0
   38.0460   26.8510   35.6480 C   0  0  0  0  0  3  0  0  0  0  0  0
   37.5130   27.7980   34.8280 N   0  0  0  0  0  0  0  0  0  0  0  0
   37.0260   27.5020   33.6230 C   0  0  0  0  0  0  0  0  0  0  0  0
   37.0580   26.2330   33.1980 N   0  0  0  0  0  0  0  0  0  0  0  0
   38.6830   24.5660   36.1720 C   0  0  0  0  0  0  0  0  0  0  0  0
   37.8790   24.3940   37.2690 C   0  0  0  0  0  3  0  0  0  0  0  0
   38.2500   23.5430   38.3120 C   0  0  0  0  0  3  0  0  0  0  0  0
   39.4470   22.8620   38.2390 C   0  0  0  0  0  3  0  0  0  0  0  0
   40.2450   23.0460   37.1270 C   0  0  0  0  0  0  0  0  0  0  0  0
   41.4760   22.4060   36.9500 C   0  0  0  0  0  3  0  0  0  0  0  0
   42.2220   22.6300   35.8220 C   0  0  0  0  0  3  0  0  0  0  0  0
   41.8060   23.4780   34.8310 C   0  0  0  0  0  3  0  0  0  0  0  0
   40.5890   24.1200   34.9910 C   0  0  0  0  0  3  0  0  0  0  0  0
   39.8580   23.8820   36.1230 C   0  0  0  0  0  0  0  0  0  0  0  0
   36.4530   28.5930   32.7840 C   0  0  1  0  0  3  0  0  0  0  0  0
   36.0990   28.2730   31.3600 C   0  0  0  0  0  2  0  0  0  0  0  0
   35.0240   28.5320   32.3790 C   0  0  2  0  0  3  0  0  0  0  0  0
   34.0630   30.0390   32.3490 S   0  0  0  0  0  0  0  0  0  0  0  0
   33.1860   30.3230   33.8900 C   0  0  0  0  0  0  0  0  0  0  0  0
   31.8840   29.8540   33.9140 C   0  0  0  0  0  3  0  0  0  0  0  0
   31.1190   30.0120   35.0290 C   0  0  0  0  0  3  0  0  0  0  0  0
   31.6940   30.6500   36.1090 C   0  0  0  0  0  3  0  0  0  0  0  0
   32.9800   31.1270   36.1250 C   0  0  0  0  0  0  0  0  0  0  0  0
   33.5350   31.7640   37.2250 C   0  0  0  0  0  3  0  0  0  0  0  0
   34.8360   32.2060   37.1360 C   0  0  0  0  0  3  0  0  0  0  0  0
   35.5900   32.0270   35.9780 C   0  0  0  0  0  3  0  0  0  0  0  0
   35.0580   31.3980   34.8760 C   0  0  0  0  0  3  0  0  0  0  0  0
   33.7590   30.9620   34.9810 C   0  0  0  0  0  0  0  0  0  0  0  0
  1  2  1  0  0  0  0
  2  3  2  0  0  0  0
  2  7  1  0  0  0  0
  4  3  1  0  0  0  0
  5  4  2  0  0  0  0
  6  5  1  0  0  0  0
  6  1  2  0  0  0  0
  7  8  1  0  0  0  0
  8  9  2  0  0  0  0
 10  9  1  0  0  0  0
 11 10  2  0  0  0  0
 12 11  1  0  0  0  0
 13 12  2  0  0  0  0
 14 15  2  0  0  0  0
 14 13  1  0  0  0  0
 15 16  1  0  0  0  0
 16  7  2  0  0  0  0
 16 11  1  0  0  0  0
 17  5  1  1  0  0  0
 18 19  1  0  0  0  0
 18 17  1  0  0  0  0
 19 20  1  6  0  0  0
 19 17  1  0  0  0  0
 20 21  1  0  0  0  0
 21 22  2  0  0  0  0
 21 30  1  0  0  0  0
 22 23  1  0  0  0  0
 23 24  2  0  0  0  0
 24 25  1  0  0  0  0
 25 26  1  0  0  0  0
 27 26  2  0  0  0  0
 28 27  1  0  0  0  0
 29 30  1  0  0  0  0
 29 28  2  0  0  0  0
 30 25  2  0  0  0  0
M  END
>  <minimizedAffinity>
-7.51958084

$$$$

 OpenBabel03272514373D

 30 35  0  0  1  0  0  0  0  0999 V2000
   37.3430   26.0410   33.3270 C   0  0  0  0  0  3  0  0  0  0  0  0
   38.1170   26.0270   34.4750 C   0  0  0  0  0  0  0  0  0  0  0  0
   38.0230   27.2130   35.2640 C   0  0  0  0  0  3  0  0  0  0  0  0
   37.2200   28.2360   34.8610 N   0  0  0  0  0  0  0  0  0  0  0  0
   36.5030   28.1760   33.7390 C   0  0  0  0  0  0  0  0  0  0  0  0
   36.5690   27.0770   32.9770 N   0  0  0  0  0  0  0  0  0  0  0  0
   39.0000   25.0050   34.9920 C   0  0  0  0  0  0  0  0  0  0  0  0
   39.9740   24.6800   34.0830 C   0  0  0  0  0  3  0  0  0  0  0  0
   40.9390   23.7120   34.3720 C   0  0  0  0  0  3  0  0  0  0  0  0
   40.9130   23.0710   35.5930 C   0  0  0  0  0  3  0  0  0  0  0  0
   39.9260   23.4110   36.4970 C   0  0  0  0  0  0  0  0  0  0  0  0
   39.8070   22.8260   37.7620 C   0  0  0  0  0  3  0  0  0  0  0  0
   38.8040   23.2070   38.6140 C   0  0  0  0  0  3  0  0  0  0  0  0
   37.8850   24.1630   38.2760 C   0  0  0  0  0  3  0  0  0  0  0  0
   37.9880   24.7520   37.0260 C   0  0  0  0  0  3  0  0  0  0  0  0
   38.9970   24.3590   36.1890 C   0  0  0  0  0  0  0  0  0  0  0  0
   35.6420   29.3350   33.3670 C   0  0  1  0  0  3  0  0  0  0  0  0
   35.5760   29.7240   31.9180 C   0  0  0  0  0  2  0  0  0  0  0  0
   34.3900   29.1000   32.6010 C   0  0  2  0  0  3  0  0  0  0  0  0
   32.9350   30.0620   32.9940 S   0  0  0  0  0  0  0  0  0  0  0  0
   32.7030   30.2590   34.7630 C   0  0  0  0  0  0  0  0  0  0  0  0
   33.3000   31.3830   35.3070 C   0  0  0  0  0  3  0  0  0  0  0  0
   33.1920   31.6390   36.6400 C   0  0  0  0  0  3  0  0  0  0  0  0
   32.4750   30.7420   37.4040 C   0  0  0  0  0  3  0  0  0  0  0  0
   31.8680   29.6180   36.9020 C   0  0  0  0  0  0  0  0  0  0  0  0
   31.1510   28.7310   37.6920 C   0  0  0  0  0  3  0  0  0  0  0  0
   30.5810   27.6330   37.0890 C   0  0  0  0  0  3  0  0  0  0  0  0
   30.7120   27.4030   35.7210 C   0  0  0  0  0  3  0  0  0  0  0  0
   31.4180   28.2700   34.9200 C   0  0  0  0  0  3  0  0  0  0  0  0
   31.9810   29.3610   35.5370 C   0  0  0  0  0  0  0  0  0  0  0  0
  1  2  1  0  0  0  0
  2  7  1  0  0  0  0
  2  3  2  0  0  0  0
  4  3  1  0  0  0  0
  5  4  2  0  0  0  0
  6  1  2  0  0  0  0
  6  5  1  0  0  0  0
  7 16  1  0  0  0  0
  8  9  1  0  0  0  0
  8  7  2  0  0  0  0
  9 10  2  0  0  0  0
 10 11  1  0  0  0  0
 11 12  1  0  0  0  0
 12 13  2  0  0  0  0
 14 13  1  0  0  0  0
 15 14  2  0  0  0  0
 16 11  2  0  0  0  0
 16 15  1  0  0  0  0
 17  5  1  6  0  0  0
 18 19  1  0  0  0  0
 18 17  1  0  0  0  0
 19 20  1  1  0  0  0
 19 17  1  0  0  0  0
 20 21  1  0  0  0  0
 21 22  2  0  0  0  0
 21 30  1  0  0  0  0
 22 23  1  0  0  0  0
 23 24  2  0  0  0  0
 25 24  1  0  0  0  0
 25 26  1  0  0  0  0
 27 26  2  0  0  0  0
 28 27  1  0  0  0  0
 29 30  1  0  0  0  0
 29 28  2  0  0  0  0
 30 25  2  0  0  0  0
M  END
>  <minimizedAffinity>
-7.44633245

$$$$

 OpenBabel03272514373D

 30 35  0  0  1  0  0  0  0  0999 V2000
   35.2170   29.2950   32.5610 C   0  0  0  0  0  3  0  0  0  0  0  0
   35.4570   29.3540   33.9240 C   0  0  0  0  0  0  0  0  0  0  0  0
   36.3110   28.3220   34.4180 C   0  0  0  0  0  3  0  0  0  0  0  0
   36.8130   27.3880   33.5640 N   0  0  0  0  0  0  0  0  0  0  0  0
   36.5370   27.3960   32.2600 C   0  0  0  0  0  0  0  0  0  0  0  0
   35.7390   28.3510   31.7650 N   0  0  0  0  0  0  0  0  0  0  0  0
   34.9770   30.2920   34.9150 C   0  0  0  0  0  0  0  0  0  0  0  0
   35.9430   31.2060   35.2470 C   0  0  0  0  0  3  0  0  0  0  0  0
   35.6980   32.2080   36.1880 C   0  0  0  0  0  3  0  0  0  0  0  0
   34.4610   32.2820   36.7950 C   0  0  0  0  0  3  0  0  0  0  0  0
   33.4980   31.3540   36.4470 C   0  0  0  0  0  0  0  0  0  0  0  0
   32.2140   31.3360   36.9990 C   0  0  0  0  0  3  0  0  0  0  0  0
   31.3030   30.3870   36.6120 C   0  0  0  0  0  3  0  0  0  0  0  0
   31.6010   29.4270   35.6840 C   0  0  0  0  0  3  0  0  0  0  0  0
   32.8710   29.4310   35.1280 C   0  0  0  0  0  3  0  0  0  0  0  0
   33.7650   30.3860   35.5260 C   0  0  0  0  0  0  0  0  0  0  0  0
   37.1290   26.3430   31.3870 C   0  0  1  0  0  3  0  0  0  0  0  0
   38.2920   26.7230   30.5170 C   0  0  0  0  0  2  0  0  0  0  0  0
   38.4810   25.8100   31.6970 C   0  0  2  0  0  3  0  0  0  0  0  0
   38.8020   24.0650   31.4770 S   0  0  0  0  0  0  0  0  0  0  0  0
   38.1460   23.0730   32.8220 C   0  0  0  0  0  0  0  0  0  0  0  0
   38.7910   23.2400   34.0360 C   0  0  0  0  0  3  0  0  0  0  0  0
   38.3820   22.5400   35.1310 C   0  0  0  0  0  3  0  0  0  0  0  0
   37.3190   21.6760   34.9720 C   0  0  0  0  0  3  0  0  0  0  0  0
   36.6540   21.4840   33.7870 C   0  0  0  0  0  0  0  0  0  0  0  0
   35.5860   20.6090   33.6540 C   0  0  0  0  0  3  0  0  0  0  0  0
   34.9890   20.4900   32.4200 C   0  0  0  0  0  3  0  0  0  0  0  0
   35.4330   21.2220   31.3210 C   0  0  0  0  0  3  0  0  0  0  0  0
   36.4900   22.0960   31.4320 C   0  0  0  0  0  3  0  0  0  0  0  0
   37.0750   22.2030   32.6700 C   0  0  0  0  0  0  0  0  0  0  0  0
  1  2  1  0  0  0  0
  2  3  2  0  0  0  0
  2  7  1  0  0  0  0
  4  3  1  0  0  0  0
  5  4  2  0  0  0  0
  6  5  1  0  0  0  0
  6  1  2  0  0  0  0
  7  8  2  0  0  0  0
  7 16  1  0  0  0  0
  8  9  1  0  0  0  0
  9 10  2  0  0  0  0
 11 10  1  0  0  0  0
 11 12  1  0  0  0  0
 13 12  2  0  0  0  0
 14 13  1  0  0  0  0
 15 16  1  0  0  0  0
 15 14  2  0  0  0  0
 16 11  2  0  0  0  0
 17 19  1  0  0  0  0
 17  5  1  1  0  0  0
 18 17  1  0  0  0  0
 18 19  1  0  0  0  0
 19 20  1  6  0  0  0
 20 21  1  0  0  0  0
 21 22  1  0  0  0  0
 22 23  2  0  0  0  0
 24 23  1  0  0  0  0
 25 24  2  0  0  0  0
 26 25  1  0  0  0  0
 27 26  2  0  0  0  0
 28 29  2  0  0  0  0
 28 27  1  0  0  0  0
 29 30  1  0  0  0  0
 30 21  2  0  0  0  0
 30 25  1  0  0  0  0
M  END
>  <minimizedAffinity>
-7.37753725

$$$$

 OpenBabel03272514373D

 30 35  0  0  1  0  0  0  0  0999 V2000
   37.6880   25.1690   33.9180 C   0  0  0  0  0  3  0  0  0  0  0  0
   38.1200   25.4250   35.2090 C   0  0  0  0  0  0  0  0  0  0  0  0
   38.0940   26.8040   35.5770 C   0  0  0  0  0  3  0  0  0  0  0  0
   37.6690   27.7380   34.6820 N   0  0  0  0  0  0  0  0  0  0  0  0
   37.2680   27.4150   33.4530 C   0  0  0  0  0  0  0  0  0  0  0  0
   37.2800   26.1290   33.0770 N   0  0  0  0  0  0  0  0  0  0  0  0
   38.5900   24.5170   36.2320 C   0  0  0  0  0  0  0  0  0  0  0  0
   37.7310   24.4790   37.3000 C   0  0  0  0  0  3  0  0  0  0  0  0
   37.9880   23.6670   38.4060 C   0  0  0  0  0  3  0  0  0  0  0  0
   39.1260   22.8870   38.4270 C   0  0  0  0  0  3  0  0  0  0  0  0
   39.9800   22.9370   37.3420 C   0  0  0  0  0  0  0  0  0  0  0  0
   41.1590   22.1900   37.2580 C   0  0  0  0  0  3  0  0  0  0  0  0
   41.9650   22.2830   36.1530 C   0  0  0  0  0  3  0  0  0  0  0  0
   41.6620   23.0990   35.0970 C   0  0  0  0  0  3  0  0  0  0  0  0
   40.4970   23.8460   35.1650 C   0  0  0  0  0  3  0  0  0  0  0  0
   39.7050   23.7380   36.2750 C   0  0  0  0  0  0  0  0  0  0  0  0
   36.8110   28.4940   32.5320 C   0  0  1  0  0  3  0  0  0  0  0  0
   36.5030   28.1210   31.1100 C   0  0  0  0  0  2  0  0  0  0  0  0
   35.4020   28.5060   32.0600 C   0  0  2  0  0  3  0  0  0  0  0  0
   34.5490   30.0690   31.9040 S   0  0  0  0  0  0  0  0  0  0  0  0
   35.4940   31.4350   32.5840 C   0  0  0  0  0  0  0  0  0  0  0  0
   36.2910   32.1030   31.6700 C   0  0  0  0  0  3  0  0  0  0  0  0
   37.0550   33.1580   32.0690 C   0  0  0  0  0  3  0  0  0  0  0  0
   36.9960   33.5180   33.4000 C   0  0  0  0  0  3  0  0  0  0  0  0
   36.2180   32.8830   34.3350 C   0  0  0  0  0  0  0  0  0  0  0  0
   36.1760   33.2650   35.6670 C   0  0  0  0  0  3  0  0  0  0  0  0
   35.3620   32.5600   36.5240 C   0  0  0  0  0  3  0  0  0  0  0  0
   34.5940   31.4850   36.0810 C   0  0  0  0  0  3  0  0  0  0  0  0
   34.6210   31.0900   34.7630 C   0  0  0  0  0  3  0  0  0  0  0  0
   35.4380   31.8040   33.9210 C   0  0  0  0  0  0  0  0  0  0  0  0
  1  2  1  0  0  0  0
  2  3  2  0  0  0  0
  2  7  1  0  0  0  0
  4  3  1  0  0  0  0
  5  4  2  0  0  0  0
  6  5  1  0  0  0  0
  6  1  2  0  0  0  0
  7 16  2  0  0  0  0
  7  8  1  0  0  0  0
  8  9  2  0  0  0  0
  9 10  1  0  0  0  0
 11 10  2  0  0  0  0
 12 11  1  0  0  0  0
 13 12  2  0  0  0  0
 14 15  2  0  0  0  0
 14 13  1  0  0  0  0
 15 16  1  0  0  0  0
 16 11  1  0  0  0  0
 17  5  1  1  0  0  0
 18 19  1  0  0  0  0
 18 17  1  0  0  0  0
 19 20  1  6  0  0  0
 19 17  1  0  0  0  0
 20 21  1  0  0  0  0
 21 30  1  0  0  0  0
 22 23  1  0  0  0  0
 22 21  2  0  0  0  0
 23 24  2  0  0  0  0
 24 25  1  0  0  0  0
 25 26  1  0  0  0  0
 26 27  2  0  0  0  0
 28 27  1  0  0  0  0
 29 28  2  0  0  0  0
 30 25  2  0  0  0  0
 30 29  1  0  0  0  0
M  END
>  <minimizedAffinity>
-7.36739397

$$$$

 OpenBabel03272514373D

 30 35  0  0  1  0  0  0  0  0999 V2000
   37.6460   25.2760   33.9600 C   0  0  0  0  0  3  0  0  0  0  0  0
   38.2290   25.4630   35.2040 C   0  0  0  0  0  0  0  0  0  0  0  0
   38.1860   26.8080   35.6790 C   0  0  0  0  0  3  0  0  0  0  0  0
   37.6060   27.7790   34.9220 N   0  0  0  0  0  0  0  0  0  0  0  0
   37.0640   27.5230   33.7310 C   0  0  0  0  0  0  0  0  0  0  0  0
   37.0880   26.2710   33.2560 N   0  0  0  0  0  0  0  0  0  0  0  0
   38.8700   24.5110   36.0840 C   0  0  0  0  0  0  0  0  0  0  0  0
   38.1160   24.2830   37.2060 C   0  0  0  0  0  3  0  0  0  0  0  0
   38.5440   23.3960   38.1970 C   0  0  0  0  0  3  0  0  0  0  0  0
   39.7460   22.7380   38.0450 C   0  0  0  0  0  3  0  0  0  0  0  0
   40.4930   22.9790   36.9080 C   0  0  0  0  0  0  0  0  0  0  0  0
   41.7240   22.3670   36.6530 C   0  0  0  0  0  3  0  0  0  0  0  0
   42.4160   22.6480   35.5050 C   0  0  0  0  0  3  0  0  0  0  0  0
   41.9470   23.5280   34.5680 C   0  0  0  0  0  3  0  0  0  0  0  0
   40.7280   24.1440   34.8060 C   0  0  0  0  0  3  0  0  0  0  0  0
   40.0510   23.8490   35.9570 C   0  0  0  0  0  0  0  0  0  0  0  0
   36.4420   28.6380   32.9620 C   0  0  1  0  0  3  0  0  0  0  0  0
   35.8300   28.3170   31.6290 C   0  0  0  0  0  2  0  0  0  0  0  0
   34.9650   28.6820   32.8030 C   0  0  2  0  0  3  0  0  0  0  0  0
   34.1270   30.2600   32.8820 S   0  0  0  0  0  0  0  0  0  0  0  0
   34.7240   31.2850   34.2290 C   0  0  0  0  0  0  0  0  0  0  0  0
   34.1580   31.0130   35.4630 C   0  0  0  0  0  3  0  0  0  0  0  0
   34.5320   31.7260   36.5610 C   0  0  0  0  0  3  0  0  0  0  0  0
   35.4800   32.7120   36.3850 C   0  0  0  0  0  3  0  0  0  0  0  0
   36.0650   33.0110   35.1810 C   0  0  0  0  0  0  0  0  0  0  0  0
   37.0180   34.0080   35.0310 C   0  0  0  0  0  3  0  0  0  0  0  0
   37.5420   34.2280   33.7770 C   0  0  0  0  0  3  0  0  0  0  0  0
   37.1360   33.4780   32.6750 C   0  0  0  0  0  3  0  0  0  0  0  0
   36.1920   32.4850   32.8020 C   0  0  0  0  0  3  0  0  0  0  0  0
   35.6790   32.2780   34.0600 C   0  0  0  0  0  0  0  0  0  0  0  0
  1  2  1  0  0  0  0
  2  3  2  0  0  0  0
  2  7  1  0  0  0  0
  4  3  1  0  0  0  0
  5  4  2  0  0  0  0
  6  5  1  0  0  0  0
  6  1  2  0  0  0  0
  7  8  1  0  0  0  0
  8  9  2  0  0  0  0
 10  9  1  0  0  0  0
 11 10  2  0  0  0  0
 12 11  1  0  0  0  0
 13 12  2  0  0  0  0
 14 15  2  0  0  0  0
 14 13  1  0  0  0  0
 15 16  1  0  0  0  0
 16  7  2  0  0  0  0
 16 11  1  0  0  0  0
 17  5  1  1  0  0  0
 18 19  1  0  0  0  0
 18 17  1  0  0  0  0
 19 20  1  6  0  0  0
 19 17  1  0  0  0  0
 20 21  1  0  0  0  0
 21 22  1  0  0  0  0
 22 23  2  0  0  0  0
 24 23  1  0  0  0  0
 25 24  2  0  0  0  0
 26 25  1  0  0  0  0
 27 26  2  0  0  0  0
 28 29  2  0  0  0  0
 28 27  1  0  0  0  0
 29 30  1  0  0  0  0
 30 21  2  0  0  0  0
 30 25  1  0  0  0  0
M  END
>  <minimizedAffinity>
-7.33862829

$$$$

 OpenBabel03272514373D

 30 35  0  0  1  0  0  0  0  0999 V2000
   36.5530   27.8740   34.4230 C   0  0  0  0  0  3  0  0  0  0  0  0
   35.9880   28.7560   33.5170 C   0  0  0  0  0  0  0  0  0  0  0  0
   36.6170   28.7680   32.2350 C   0  0  0  0  0  3  0  0  0  0  0  0
   37.6820   27.9540   31.9930 N   0  0  0  0  0  0  0  0  0  0  0  0
   38.1710   27.1300   32.9180 C   0  0  0  0  0  0  0  0  0  0  0  0
   37.6030   27.0940   34.1300 N   0  0  0  0  0  0  0  0  0  0  0  0
   34.8690   29.6590   33.6690 C   0  0  0  0  0  0  0  0  0  0  0  0
   33.8500   29.3420   32.8090 C   0  0  0  0  0  3  0  0  0  0  0  0
   32.6670   30.0840   32.7840 C   0  0  0  0  0  3  0  0  0  0  0  0
   32.5200   31.1570   33.6390 C   0  0  0  0  0  3  0  0  0  0  0  0
   33.5570   31.4620   34.4990 C   0  0  0  0  0  0  0  0  0  0  0  0
   33.5150   32.5260   35.4060 C   0  0  0  0  0  3  0  0  0  0  0  0
   34.5780   32.7770   36.2340 C   0  0  0  0  0  3  0  0  0  0  0  0
   35.7130   32.0140   36.2140 C   0  0  0  0  0  3  0  0  0  0  0  0
   35.7710   30.9570   35.3200 C   0  0  0  0  0  3  0  0  0  0  0  0
   34.7000   30.7200   34.5030 C   0  0  0  0  0  0  0  0  0  0  0  0
   39.3360   26.2650   32.5760 C   0  0  1  0  0  3  0  0  0  0  0  0
   40.7100   26.8620   32.6800 C   0  0  0  0  0  2  0  0  0  0  0  0
   40.2530   25.8110   33.6540 C   0  0  2  0  0  3  0  0  0  0  0  0
   40.9080   24.1480   33.5980 S   0  0  0  0  0  0  0  0  0  0  0  0
   40.8920   23.3510   35.2060 C   0  0  0  0  0  0  0  0  0  0  0  0
   41.9580   22.5030   35.4460 C   0  0  0  0  0  3  0  0  0  0  0  0
   42.0540   21.8410   36.6330 C   0  0  0  0  0  3  0  0  0  0  0  0
   41.0560   22.0530   37.5610 C   0  0  0  0  0  3  0  0  0  0  0  0
   39.9850   22.8860   37.3610 C   0  0  0  0  0  0  0  0  0  0  0  0
   38.9940   23.0840   38.3120 C   0  0  0  0  0  3  0  0  0  0  0  0
   37.9600   23.9410   38.0110 C   0  0  0  0  0  3  0  0  0  0  0  0
   37.8950   24.6020   36.7860 C   0  0  0  0  0  3  0  0  0  0  0  0
   38.8670   24.4200   35.8300 C   0  0  0  0  0  3  0  0  0  0  0  0
   39.8920   23.5620   36.1460 C   0  0  0  0  0  0  0  0  0  0  0  0
  2  7  1  0  0  0  0
  2  1  2  0  0  0  0
  3  2  1  0  0  0  0
  4  3  2  0  0  0  0
  4  5  1  0  0  0  0
  5  6  2  0  0  0  0
  6  1  1  0  0  0  0
  7 16  1  0  0  0  0
  8  7  2  0  0  0  0
  9  8  1  0  0  0  0
  9 10  2  0  0  0  0
 10 11  1  0  0  0  0
 11 16  2  0  0  0  0
 11 12  1  0  0  0  0
 12 13  2  0  0  0  0
 14 13  1  0  0  0  0
 15 14  2  0  0  0  0
 16 15  1  0  0  0  0
 17 18  1  0  0  0  0
 17  5  1  1  0  0  0
 17 19  1  0  0  0  0
 18 19  1  0  0  0  0
 19 20  1  6  0  0  0
 20 21  1  0  0  0  0
 21 22  2  0  0  0  0
 21 30  1  0  0  0  0
 22 23  1  0  0  0  0
 23 24  2  0  0  0  0
 25 24  1  0  0  0  0
 25 26  1  0  0  0  0
 27 26  2  0  0  0  0
 28 27  1  0  0  0  0
 29 30  1  0  0  0  0
 29 28  2  0  0  0  0
 30 25  2  0  0  0  0
M  END
>  <minimizedAffinity>
-7.33666134

$$$$

 OpenBabel03272514373D

 30 35  0  0  1  0  0  0  0  0999 V2000
   37.3390   25.9200   33.4550 C   0  0  0  0  0  3  0  0  0  0  0  0
   38.1800   25.9310   34.5560 C   0  0  0  0  0  0  0  0  0  0  0  0
   38.1430   27.1400   35.3140 C   0  0  0  0  0  3  0  0  0  0  0  0
   37.3250   28.1580   34.9300 N   0  0  0  0  0  0  0  0  0  0  0  0
   36.5410   28.0740   33.8550 C   0  0  0  0  0  0  0  0  0  0  0  0
   36.5530   26.9530   33.1230 N   0  0  0  0  0  0  0  0  0  0  0  0
   39.0850   24.9160   35.0490 C   0  0  0  0  0  0  0  0  0  0  0  0
   40.0620   24.6290   34.1310 C   0  0  0  0  0  3  0  0  0  0  0  0
   41.0470   23.6760   34.3960 C   0  0  0  0  0  3  0  0  0  0  0  0
   41.0380   23.0080   35.6030 C   0  0  0  0  0  3  0  0  0  0  0  0
   40.0470   23.3090   36.5170 C   0  0  0  0  0  0  0  0  0  0  0  0
   39.9430   22.6950   37.7690 C   0  0  0  0  0  3  0  0  0  0  0  0
   38.9360   23.0390   38.6320 C   0  0  0  0  0  3  0  0  0  0  0  0
   37.9960   23.9830   38.3160 C   0  0  0  0  0  3  0  0  0  0  0  0
   38.0840   24.6000   37.0790 C   0  0  0  0  0  3  0  0  0  0  0  0
   39.0980   24.2450   36.2320 C   0  0  0  0  0  0  0  0  0  0  0  0
   35.6680   29.2290   33.5020 C   0  0  1  0  0  3  0  0  0  0  0  0
   35.6890   29.7170   32.0820 C   0  0  0  0  0  2  0  0  0  0  0  0
   34.4820   29.0110   32.6330 C   0  0  2  0  0  3  0  0  0  0  0  0
   32.9700   29.8980   32.9850 S   0  0  0  0  0  0  0  0  0  0  0  0
   32.7610   30.2270   34.7370 C   0  0  0  0  0  0  0  0  0  0  0  0
   32.0740   29.2500   35.4360 C   0  0  0  0  0  3  0  0  0  0  0  0
   31.8530   29.3890   36.7720 C   0  0  0  0  0  3  0  0  0  0  0  0
   32.3380   30.5280   37.3810 C   0  0  0  0  0  3  0  0  0  0  0  0
   33.0250   31.5180   36.7250 C   0  0  0  0  0  0  0  0  0  0  0  0
   33.5030   32.6530   37.3610 C   0  0  0  0  0  3  0  0  0  0  0  0
   34.1800   33.5870   36.6100 C   0  0  0  0  0  3  0  0  0  0  0  0
   34.3870   33.4120   35.2430 C   0  0  0  0  0  3  0  0  0  0  0  0
   33.9210   32.2920   34.5930 C   0  0  0  0  0  3  0  0  0  0  0  0
   33.2480   31.3700   35.3570 C   0  0  0  0  0  0  0  0  0  0  0  0
  1  2  1  0  0  0  0
  2  7  1  0  0  0  0
  2  3  2  0  0  0  0
  4  3  1  0  0  0  0
  5  4  2  0  0  0  0
  6  1  2  0  0  0  0
  6  5  1  0  0  0  0
  7 16  1  0  0  0  0
  8  9  1  0  0  0  0
  8  7  2  0  0  0  0
  9 10  2  0  0  0  0
 10 11  1  0  0  0  0
 11 12  1  0  0  0  0
 12 13  2  0  0  0  0
 14 13  1  0  0  0  0
 15 14  2  0  0  0  0
 16 11  2  0  0  0  0
 16 15  1  0  0  0  0
 17  5  1  6  0  0  0
 18 19  1  0  0  0  0
 18 17  1  0  0  0  0
 19 20  1  1  0  0  0
 19 17  1  0  0  0  0
 20 21  1  0  0  0  0
 21 30  2  0  0  0  0
 21 22  1  0  0  0  0
 22 23  2  0  0  0  0
 23 24  1  0  0  0  0
 25 26  1  0  0  0  0
 25 24  2  0  0  0  0
 27 26  2  0  0  0  0
 28 27  1  0  0  0  0
 29 28  2  0  0  0  0
 29 30  1  0  0  0  0
 30 25  1  0  0  0  0
M  END
>  <minimizedAffinity>
-7.22362471

$$$$

 OpenBabel03272514373D

 30 35  0  0  1  0  0  0  0  0999 V2000
   37.6020   25.4660   34.0500 C   0  0  0  0  0  3  0  0  0  0  0  0
   38.2270   25.5770   35.2810 C   0  0  0  0  0  0  0  0  0  0  0  0
   38.1710   26.8820   35.8560 C   0  0  0  0  0  3  0  0  0  0  0  0
   37.5390   27.8900   35.1930 N   0  0  0  0  0  0  0  0  0  0  0  0
   36.9580   27.7070   34.0080 C   0  0  0  0  0  0  0  0  0  0  0  0
   36.9940   26.4940   33.4420 N   0  0  0  0  0  0  0  0  0  0  0  0
   38.9240   24.5820   36.0660 C   0  0  0  0  0  0  0  0  0  0  0  0
   38.2150   24.2450   37.1890 C   0  0  0  0  0  3  0  0  0  0  0  0
   38.7000   23.2990   38.0950 C   0  0  0  0  0  3  0  0  0  0  0  0
   39.9160   22.6920   37.8560 C   0  0  0  0  0  3  0  0  0  0  0  0
   40.6170   23.0420   36.7190 C   0  0  0  0  0  0  0  0  0  0  0  0
   41.8560   22.4900   36.3790 C   0  0  0  0  0  3  0  0  0  0  0  0
   42.5020   22.8800   35.2350 C   0  0  0  0  0  3  0  0  0  0  0  0
   41.9760   23.8140   34.3840 C   0  0  0  0  0  3  0  0  0  0  0  0
   40.7490   24.3720   34.7070 C   0  0  0  0  0  3  0  0  0  0  0  0
   40.1190   23.9680   35.8520 C   0  0  0  0  0  0  0  0  0  0  0  0
   36.2810   28.8580   33.3460 C   0  0  1  0  0  3  0  0  0  0  0  0
   36.1580   28.8370   31.8500 C   0  0  0  0  0  2  0  0  0  0  0  0
   34.9460   28.6610   32.7220 C   0  0  2  0  0  3  0  0  0  0  0  0
   33.7170   29.9510   32.8700 S   0  0  0  0  0  0  0  0  0  0  0  0
   33.2150   30.2270   34.5710 C   0  0  0  0  0  0  0  0  0  0  0  0
   33.9270   31.2100   35.2360 C   0  0  0  0  0  3  0  0  0  0  0  0
   33.6370   31.5080   36.5330 C   0  0  0  0  0  3  0  0  0  0  0  0
   32.6210   30.7970   37.1360 C   0  0  0  0  0  3  0  0  0  0  0  0
   31.8910   29.8170   36.5110 C   0  0  0  0  0  0  0  0  0  0  0  0
   30.8730   29.1170   37.1410 C   0  0  0  0  0  3  0  0  0  0  0  0
   30.2030   28.1520   36.4230 C   0  0  0  0  0  3  0  0  0  0  0  0
   30.5270   27.8730   35.0970 C   0  0  0  0  0  3  0  0  0  0  0  0
   31.5340   28.5560   34.4540 C   0  0  0  0  0  3  0  0  0  0  0  0
   32.1920   29.5160   35.1840 C   0  0  0  0  0  0  0  0  0  0  0  0
  1  2  1  0  0  0  0
  2  3  2  0  0  0  0
  2  7  1  0  0  0  0
  4  3  1  0  0  0  0
  5  4  2  0  0  0  0
  6  5  1  0  0  0  0
  6  1  2  0  0  0  0
  7  8  1  0  0  0  0
  8  9  2  0  0  0  0
 10  9  1  0  0  0  0
 11 10  2  0  0  0  0
 12 11  1  0  0  0  0
 13 12  2  0  0  0  0
 14 15  2  0  0  0  0
 14 13  1  0  0  0  0
 15 16  1  0  0  0  0
 16  7  2  0  0  0  0
 16 11  1  0  0  0  0
 17  5  1  1  0  0  0
 18 19  1  0  0  0  0
 18 17  1  0  0  0  0
 19 20  1  6  0  0  0
 19 17  1  0  0  0  0
 20 21  1  0  0  0  0
 21 30  2  0  0  0  0
 21 22  1  0  0  0  0
 22 23  2  0  0  0  0
 23 24  1  0  0  0  0
 25 24  2  0  0  0  0
 25 26  1  0  0  0  0
 27 26  2  0  0  0  0
 28 27  1  0  0  0  0
 29 28  2  0  0  0  0
 29 30  1  0  0  0  0
 30 25  1  0  0  0  0
M  END
>  <minimizedAffinity>
-7.21685696

$$$$
