
 OpenBabel03272514383D

 34 39  0  0  0  0  0  0  0  0999 V2000
   37.0860   27.2310   32.2610 C   0  0  0  0  0  0  0  0  0  0  0  0
   37.2100   26.6040   31.0340 C   0  0  0  0  0  3  0  0  0  0  0  0
   37.7130   25.3180   31.0600 C   0  0  0  0  0  3  0  0  0  0  0  0
   38.0620   24.7090   32.2130 N   0  0  0  0  0  0  0  0  0  0  0  0
   37.9250   25.3530   33.3980 C   0  0  0  0  0  0  0  0  0  0  0  0
   37.4340   26.6120   33.3840 N   0  0  0  0  0  0  0  0  0  0  0  0
   38.2540   24.8260   34.6790 N   0  0  0  0  0  0  0  0  0  0  0  0
   37.7490   25.3610   35.8140 C   0  0  0  0  0  3  0  0  0  0  0  0
   38.2170   24.6770   36.8930 N   0  0  0  0  0  0  0  0  0  0  0  0
   39.0160   23.7120   36.4310 C   0  0  0  0  0  0  0  0  0  0  0  0
   39.7850   22.6970   36.9640 C   0  0  0  0  0  0  0  0  0  0  0  0
   40.5100   21.8520   36.2000 N   0  0  0  0  0  0  0  0  0  0  0  0
   40.5000   21.9820   34.8460 C   0  0  0  0  0  3  0  0  0  0  0  0
   39.7620   22.9610   34.2910 N   0  0  0  0  0  0  0  0  0  0  0  0
   39.0430   23.7990   35.0520 C   0  0  0  0  0  0  0  0  0  0  0  0
   36.0080   30.6260   31.1730 C   0  0  0  0  0  3  0  0  0  0  0  0
   36.5180   29.3260   31.1110 C   0  0  0  0  0  3  0  0  0  0  0  0
   36.5600   28.5900   32.2980 C   0  0  0  0  0  0  0  0  0  0  0  0
   36.1150   29.1450   33.4370 N   0  0  0  0  0  0  0  0  0  0  0  0
   35.6210   30.4170   33.4710 C   0  0  0  0  0  0  0  0  0  0  0  0
   35.5710   31.1440   32.3480 N   0  0  0  0  0  0  0  0  0  0  0  0
   35.1690   30.9230   34.7530 C   0  0  0  0  0  0  0  0  0  0  0  0
   36.0000   31.5930   35.6540 C   0  0  0  0  0  3  0  0  0  0  0  0
   35.2940   31.9350   36.7430 N   0  0  0  0  0  0  0  0  0  0  0  0
   34.0190   31.5050   36.5770 C   0  0  0  0  0  0  0  0  0  0  0  0
   32.9010   31.6020   37.3940 C   0  0  0  0  0  3  0  0  0  0  0  0
   31.7060   31.0530   36.9400 C   0  0  0  0  0  3  0  0  0  0  0  0
   31.6560   30.4340   35.7080 C   0  0  0  0  0  3  0  0  0  0  0  0
   32.7700   30.3290   34.8740 C   0  0  0  0  0  3  0  0  0  0  0  0
   33.9380   30.8790   35.3450 C   0  0  0  0  0  0  0  0  0  0  0  0
   35.6590   32.4370   37.5660 H   0  0  0  0  0  0  0  0  0  0  0  0
   39.8120   22.5370   38.3770 N   0  0  0  0  0  0  0  0  0  0  0  0
   40.3780   21.7870   38.8000 H   0  0  0  0  0  0  0  0  0  0  0  0
   39.2660   23.1700   38.9780 H   0  0  0  0  0  0  0  0  0  0  0  0
  1 18  1  0  0  0  0
  1  6  1  0  0  0  0
  2  3  1  0  0  0  0
  2  1  2  0  0  0  0
  3  4  2  0  0  0  0
  4  5  1  0  0  0  0
  5  7  1  0  0  0  0
  6  5  2  0  0  0  0
  7 15  1  0  0  0  0
  7  8  1  0  0  0  0
  8  9  2  0  0  0  0
 10  9  1  0  0  0  0
 10 11  1  0  0  0  0
 11 32  1  0  0  0  0
 12 11  2  0  0  0  0
 13 12  1  0  0  0  0
 14 13  2  0  0  0  0
 14 15  1  0  0  0  0
 15 10  2  0  0  0  0
 16 21  1  0  0  0  0
 17 16  2  0  0  0  0
 17 18  1  0  0  0  0
 18 19  2  0  0  0  0
 19 20  1  0  0  0  0
 20 22  1  0  0  0  0
 21 20  2  0  0  0  0
 22 30  1  0  0  0  0
 22 23  2  0  0  0  0
 23 24  1  0  0  0  0
 24 31  1  0  0  0  0
 25 24  1  0  0  0  0
 25 26  1  0  0  0  0
 27 26  2  0  0  0  0
 28 27  1  0  0  0  0
 29 30  1  0  0  0  0
 29 28  2  0  0  0  0
 30 25  2  0  0  0  0
 32 33  1  0  0  0  0
 32 34  1  0  0  0  0
M  END
>  <minimizedAffinity>
-7.93481827

$$$$

 OpenBabel03272514383D

 34 39  0  0  0  0  0  0  0  0999 V2000
   38.1440   27.2090   32.1530 C   0  0  0  0  0  0  0  0  0  0  0  0
   39.0860   26.8630   31.2010 C   0  0  0  0  0  3  0  0  0  0  0  0
   39.9240   25.8160   31.5320 C   0  0  0  0  0  3  0  0  0  0  0  0
   39.8290   25.1690   32.7140 N   0  0  0  0  0  0  0  0  0  0  0  0
   38.8920   25.5350   33.6230 C   0  0  0  0  0  0  0  0  0  0  0  0
   38.0670   26.5590   33.3090 N   0  0  0  0  0  0  0  0  0  0  0  0
   38.6880   24.9380   34.9000 N   0  0  0  0  0  0  0  0  0  0  0  0
   37.5260   25.0940   35.5750 C   0  0  0  0  0  3  0  0  0  0  0  0
   37.5900   24.4280   36.7590 N   0  0  0  0  0  0  0  0  0  0  0  0
   38.7940   23.8530   36.8240 C   0  0  0  0  0  0  0  0  0  0  0  0
   39.4870   23.0620   37.7170 C   0  0  0  0  0  0  0  0  0  0  0  0
   40.7440   22.6270   37.4830 N   0  0  0  0  0  0  0  0  0  0  0  0
   41.3770   22.9650   36.3280 C   0  0  0  0  0  3  0  0  0  0  0  0
   40.7310   23.7370   35.4340 N   0  0  0  0  0  0  0  0  0  0  0  0
   39.4830   24.1690   35.6680 C   0  0  0  0  0  0  0  0  0  0  0  0
   36.4650   30.0240   30.3830 C   0  0  0  0  0  3  0  0  0  0  0  0
   37.3550   28.9760   30.6410 C   0  0  0  0  0  3  0  0  0  0  0  0
   37.2300   28.3060   31.8600 C   0  0  0  0  0  0  0  0  0  0  0  0
   36.2760   28.6830   32.7280 N   0  0  0  0  0  0  0  0  0  0  0  0
   35.4200   29.7100   32.4530 C   0  0  0  0  0  0  0  0  0  0  0  0
   35.5180   30.3690   31.2910 N   0  0  0  0  0  0  0  0  0  0  0  0
   34.4280   30.0390   33.4580 C   0  0  0  0  0  0  0  0  0  0  0  0
   33.0840   29.6690   33.3650 C   0  0  0  0  0  3  0  0  0  0  0  0
   32.4210   30.1170   34.4430 N   0  0  0  0  0  0  0  0  0  0  0  0
   33.3010   30.7710   35.2420 C   0  0  0  0  0  0  0  0  0  0  0  0
   33.1340   31.4130   36.4610 C   0  0  0  0  0  3  0  0  0  0  0  0
   34.2480   32.0050   37.0490 C   0  0  0  0  0  3  0  0  0  0  0  0
   35.4740   31.9420   36.4200 C   0  0  0  0  0  3  0  0  0  0  0  0
   35.6590   31.3000   35.1950 C   0  0  0  0  0  3  0  0  0  0  0  0
   34.5440   30.7230   34.6360 C   0  0  0  0  0  0  0  0  0  0  0  0
   31.4170   29.9860   34.6320 H   0  0  0  0  0  0  0  0  0  0  0  0
   38.8490   22.6910   38.9330 N   0  0  0  0  0  0  0  0  0  0  0  0
   39.3450   22.1010   39.6160 H   0  0  0  0  0  0  0  0  0  0  0  0
   37.8900   23.0120   39.1310 H   0  0  0  0  0  0  0  0  0  0  0  0
  1  6  1  0  0  0  0
  2  3  1  0  0  0  0
  2  1  2  0  0  0  0
  3  4  2  0  0  0  0
  4  5  1  0  0  0  0
  5  7  1  0  0  0  0
  6  5  2  0  0  0  0
  7  8  1  0  0  0  0
  7 15  1  0  0  0  0
  8  9  2  0  0  0  0
  9 10  1  0  0  0  0
 10 11  1  0  0  0  0
 11 32  1  0  0  0  0
 12 11  2  0  0  0  0
 13 12  1  0  0  0  0
 14 15  1  0  0  0  0
 14 13  2  0  0  0  0
 15 10  2  0  0  0  0
 16 17  2  0  0  0  0
 16 21  1  0  0  0  0
 17 18  1  0  0  0  0
 18  1  1  0  0  0  0
 18 19  2  0  0  0  0
 20 19  1  0  0  0  0
 20 22  1  0  0  0  0
 21 20  2  0  0  0  0
 22 30  1  0  0  0  0
 23 22  2  0  0  0  0
 23 24  1  0  0  0  0
 24 31  1  0  0  0  0
 24 25  1  0  0  0  0
 25 26  1  0  0  0  0
 26 27  2  0  0  0  0
 28 27  1  0  0  0  0
 29 28  2  0  0  0  0
 30 29  1  0  0  0  0
 30 25  2  0  0  0  0
 32 34  1  0  0  0  0
 32 33  1  0  0  0  0
M  END
>  <minimizedAffinity>
-7.9066844

$$$$

 OpenBabel03272514383D

 34 39  0  0  0  0  0  0  0  0999 V2000
   37.7630   26.9960   32.8990 C   0  0  0  0  0  0  0  0  0  0  0  0
   37.3970   26.4160   31.6980 C   0  0  0  0  0  3  0  0  0  0  0  0
   36.1940   26.8360   31.1650 C   0  0  0  0  0  3  0  0  0  0  0  0
   35.4210   27.7570   31.7800 N   0  0  0  0  0  0  0  0  0  0  0  0
   35.8120   28.3060   32.9560 C   0  0  0  0  0  0  0  0  0  0  0  0
   36.9890   27.9020   33.4860 N   0  0  0  0  0  0  0  0  0  0  0  0
   35.0940   29.2830   33.7030 N   0  0  0  0  0  0  0  0  0  0  0  0
   35.7030   30.0430   34.6410 C   0  0  0  0  0  3  0  0  0  0  0  0
   34.8000   30.8900   35.2030 N   0  0  0  0  0  0  0  0  0  0  0  0
   33.6230   30.6590   34.6160 C   0  0  0  0  0  0  0  0  0  0  0  0
   32.3360   31.1470   34.7070 C   0  0  0  0  0  0  0  0  0  0  0  0
   31.3230   30.6850   33.9430 N   0  0  0  0  0  0  0  0  0  0  0  0
   31.5520   29.6980   33.0350 C   0  0  0  0  0  3  0  0  0  0  0  0
   32.7950   29.1970   32.9190 N   0  0  0  0  0  0  0  0  0  0  0  0
   33.8000   29.6570   33.6800 C   0  0  0  0  0  0  0  0  0  0  0  0
   41.3700   26.9280   33.8270 C   0  0  0  0  0  3  0  0  0  0  0  0
   40.1730   27.3340   33.2270 C   0  0  0  0  0  3  0  0  0  0  0  0
   39.0240   26.5940   33.5100 C   0  0  0  0  0  0  0  0  0  0  0  0
   39.1040   25.5360   34.3350 N   0  0  0  0  0  0  0  0  0  0  0  0
   40.2840   25.1600   34.9080 C   0  0  0  0  0  0  0  0  0  0  0  0
   41.4010   25.8530   34.6520 N   0  0  0  0  0  0  0  0  0  0  0  0
   40.2630   24.0020   35.7810 C   0  0  0  0  0  0  0  0  0  0  0  0
   39.1360   23.6040   36.5050 C   0  0  0  0  0  3  0  0  0  0  0  0
   39.4280   22.5040   37.2170 N   0  0  0  0  0  0  0  0  0  0  0  0
   40.7210   22.1720   36.9750 C   0  0  0  0  0  0  0  0  0  0  0  0
   41.5090   21.1330   37.4530 C   0  0  0  0  0  3  0  0  0  0  0  0
   42.8270   21.0530   37.0130 C   0  0  0  0  0  3  0  0  0  0  0  0
   43.3160   21.9910   36.1270 C   0  0  0  0  0  3  0  0  0  0  0  0
   42.5370   23.0400   35.6380 C   0  0  0  0  0  3  0  0  0  0  0  0
   41.2400   23.0970   36.0860 C   0  0  0  0  0  0  0  0  0  0  0  0
   38.7830   21.9990   37.8400 H   0  0  0  0  0  0  0  0  0  0  0  0
   32.0670   32.1820   35.6470 N   0  0  0  0  0  0  0  0  0  0  0  0
   31.1150   32.5630   35.7350 H   0  0  0  0  0  0  0  0  0  0  0  0
   32.8260   32.5490   36.2390 H   0  0  0  0  0  0  0  0  0  0  0  0
  1  6  1  0  0  0  0
  1 18  1  0  0  0  0
  2  1  2  0  0  0  0
  3  2  1  0  0  0  0
  3  4  2  0  0  0  0
  4  5  1  0  0  0  0
  5  6  2  0  0  0  0
  5  7  1  0  0  0  0
  7  8  1  0  0  0  0
  8  9  2  0  0  0  0
 10 11  1  0  0  0  0
 10  9  1  0  0  0  0
 11 32  1  0  0  0  0
 12 11  2  0  0  0  0
 13 12  1  0  0  0  0
 14 13  2  0  0  0  0
 14 15  1  0  0  0  0
 15  7  1  0  0  0  0
 15 10  2  0  0  0  0
 16 21  1  0  0  0  0
 17 18  1  0  0  0  0
 17 16  2  0  0  0  0
 18 19  2  0  0  0  0
 19 20  1  0  0  0  0
 20 22  1  0  0  0  0
 21 20  2  0  0  0  0
 22 30  1  0  0  0  0
 22 23  2  0  0  0  0
 23 24  1  0  0  0  0
 24 31  1  0  0  0  0
 25 24  1  0  0  0  0
 25 26  1  0  0  0  0
 27 26  2  0  0  0  0
 28 27  1  0  0  0  0
 29 30  1  0  0  0  0
 29 28  2  0  0  0  0
 30 25  2  0  0  0  0
 32 33  1  0  0  0  0
 32 34  1  0  0  0  0
M  END
>  <minimizedAffinity>
-6.99502993

$$$$

 OpenBabel03272514383D

 34 39  0  0  0  0  0  0  0  0999 V2000
   37.1220   26.6330   31.7500 C   0  0  0  0  0  0  0  0  0  0  0  0
   37.8500   27.0030   30.6330 C   0  0  0  0  0  3  0  0  0  0  0  0
   37.8290   28.3470   30.3150 C   0  0  0  0  0  3  0  0  0  0  0  0
   37.1400   29.2460   31.0510 N   0  0  0  0  0  0  0  0  0  0  0  0
   36.4380   28.8470   32.1400 C   0  0  0  0  0  0  0  0  0  0  0  0
   36.4520   27.5340   32.4590 N   0  0  0  0  0  0  0  0  0  0  0  0
   35.6730   29.6900   32.9960 N   0  0  0  0  0  0  0  0  0  0  0  0
   35.3240   29.3000   34.2430 C   0  0  0  0  0  3  0  0  0  0  0  0
   34.6010   30.2810   34.8460 N   0  0  0  0  0  0  0  0  0  0  0  0
   34.4980   31.2880   33.9750 C   0  0  0  0  0  0  0  0  0  0  0  0
   33.9190   32.5400   33.9420 C   0  0  0  0  0  0  0  0  0  0  0  0
   33.9940   33.3510   32.8660 N   0  0  0  0  0  0  0  0  0  0  0  0
   34.6640   32.9460   31.7540 C   0  0  0  0  0  3  0  0  0  0  0  0
   35.2400   31.7300   31.7490 N   0  0  0  0  0  0  0  0  0  0  0  0
   35.1640   30.9250   32.8190 C   0  0  0  0  0  0  0  0  0  0  0  0
   36.2710   23.0080   31.8350 C   0  0  0  0  0  3  0  0  0  0  0  0
   36.2660   24.3510   31.4470 C   0  0  0  0  0  3  0  0  0  0  0  0
   37.1070   25.2280   32.1350 C   0  0  0  0  0  0  0  0  0  0  0  0
   37.8810   24.7590   33.1290 N   0  0  0  0  0  0  0  0  0  0  0  0
   37.8680   23.4420   33.4890 C   0  0  0  0  0  0  0  0  0  0  0  0
   37.0700   22.5820   32.8450 N   0  0  0  0  0  0  0  0  0  0  0  0
   38.7400   23.0400   34.5760 C   0  0  0  0  0  0  0  0  0  0  0  0
   39.8970   22.2780   34.3940 C   0  0  0  0  0  3  0  0  0  0  0  0
   40.4860   22.0700   35.5830 N   0  0  0  0  0  0  0  0  0  0  0  0
   39.7410   22.6780   36.5390 C   0  0  0  0  0  0  0  0  0  0  0  0
   39.9050   22.7670   37.9150 C   0  0  0  0  0  3  0  0  0  0  0  0
   38.9550   23.4740   38.6450 C   0  0  0  0  0  3  0  0  0  0  0  0
   37.8880   24.0630   37.9990 C   0  0  0  0  0  3  0  0  0  0  0  0
   37.7090   23.9830   36.6170 C   0  0  0  0  0  3  0  0  0  0  0  0
   38.6600   23.2800   35.9190 C   0  0  0  0  0  0  0  0  0  0  0  0
   41.3540   21.5380   35.7410 H   0  0  0  0  0  0  0  0  0  0  0  0
   33.2140   32.9910   35.0930 N   0  0  0  0  0  0  0  0  0  0  0  0
   32.7730   33.9220   35.0940 H   0  0  0  0  0  0  0  0  0  0  0  0
   33.1450   32.3880   35.9250 H   0  0  0  0  0  0  0  0  0  0  0  0
  1 18  1  0  0  0  0
  1  6  1  0  0  0  0
  2  1  2  0  0  0  0
  3  2  1  0  0  0  0
  3  4  2  0  0  0  0
  4  5  1  0  0  0  0
  5  6  2  0  0  0  0
  5  7  1  0  0  0  0
  7  8  1  0  0  0  0
  8  9  2  0  0  0  0
 10  9  1  0  0  0  0
 11 10  1  0  0  0  0
 11 32  1  0  0  0  0
 12 11  2  0  0  0  0
 13 12  1  0  0  0  0
 14 13  2  0  0  0  0
 14 15  1  0  0  0  0
 15  7  1  0  0  0  0
 15 10  2  0  0  0  0
 16 21  1  0  0  0  0
 17 16  2  0  0  0  0
 17 18  1  0  0  0  0
 18 19  2  0  0  0  0
 19 20  1  0  0  0  0
 20 22  1  0  0  0  0
 21 20  2  0  0  0  0
 22 30  1  0  0  0  0
 23 22  2  0  0  0  0
 23 24  1  0  0  0  0
 24 31  1  0  0  0  0
 24 25  1  0  0  0  0
 25 26  1  0  0  0  0
 26 27  2  0  0  0  0
 28 27  1  0  0  0  0
 29 28  2  0  0  0  0
 30 25  2  0  0  0  0
 30 29  1  0  0  0  0
 32 33  1  0  0  0  0
 32 34  1  0  0  0  0
M  END
>  <minimizedAffinity>
-6.94623041

$$$$

 OpenBabel03272514383D

 34 39  0  0  0  0  0  0  0  0999 V2000
   36.4030   27.1780   32.2030 C   0  0  0  0  0  0  0  0  0  0  0  0
   36.4220   26.5030   30.9950 C   0  0  0  0  0  3  0  0  0  0  0  0
   36.9600   25.2300   31.0220 C   0  0  0  0  0  3  0  0  0  0  0  0
   37.4370   24.6790   32.1590 N   0  0  0  0  0  0  0  0  0  0  0  0
   37.4010   25.3700   33.3250 C   0  0  0  0  0  0  0  0  0  0  0  0
   36.8770   26.6160   33.3090 N   0  0  0  0  0  0  0  0  0  0  0  0
   37.8690   24.9050   34.5870 N   0  0  0  0  0  0  0  0  0  0  0  0
   37.4650   25.4770   35.7440 C   0  0  0  0  0  3  0  0  0  0  0  0
   38.0560   24.8510   36.7970 N   0  0  0  0  0  0  0  0  0  0  0  0
   38.8310   23.8850   36.2970 C   0  0  0  0  0  0  0  0  0  0  0  0
   39.6760   22.9120   36.7900 C   0  0  0  0  0  0  0  0  0  0  0  0
   40.3440   22.0520   35.9920 N   0  0  0  0  0  0  0  0  0  0  0  0
   40.1970   22.1230   34.6420 C   0  0  0  0  0  3  0  0  0  0  0  0
   39.3820   23.0610   34.1250 N   0  0  0  0  0  0  0  0  0  0  0  0
   38.7190   23.9140   34.9190 C   0  0  0  0  0  0  0  0  0  0  0  0
   36.0980   30.8770   31.8920 C   0  0  0  0  0  3  0  0  0  0  0  0
   36.6560   29.5950   31.8510 C   0  0  0  0  0  3  0  0  0  0  0  0
   35.8470   28.5250   32.2370 C   0  0  0  0  0  0  0  0  0  0  0  0
   34.5820   28.7570   32.6260 N   0  0  0  0  0  0  0  0  0  0  0  0
   34.0600   30.0180   32.6570 C   0  0  0  0  0  0  0  0  0  0  0  0
   34.8150   31.0620   32.2920 N   0  0  0  0  0  0  0  0  0  0  0  0
   32.6850   30.1610   33.0940 C   0  0  0  0  0  0  0  0  0  0  0  0
   31.6680   30.6730   32.2850 C   0  0  0  0  0  3  0  0  0  0  0  0
   30.5130   30.6790   32.9680 N   0  0  0  0  0  0  0  0  0  0  0  0
   30.7500   30.1820   34.2080 C   0  0  0  0  0  0  0  0  0  0  0  0
   29.9080   29.9750   35.2920 C   0  0  0  0  0  3  0  0  0  0  0  0
   30.4540   29.4390   36.4550 C   0  0  0  0  0  3  0  0  0  0  0  0
   31.7980   29.1280   36.5050 C   0  0  0  0  0  3  0  0  0  0  0  0
   32.6560   29.3290   35.4240 C   0  0  0  0  0  3  0  0  0  0  0  0
   32.0930   29.8590   34.2880 C   0  0  0  0  0  0  0  0  0  0  0  0
   29.6030   31.0060   32.6130 H   0  0  0  0  0  0  0  0  0  0  0  0
   39.8470   22.8130   38.1990 N   0  0  0  0  0  0  0  0  0  0  0  0
   40.4720   22.0950   38.5930 H   0  0  0  0  0  0  0  0  0  0  0  0
   39.3460   23.4590   38.8260 H   0  0  0  0  0  0  0  0  0  0  0  0
  1 18  1  0  0  0  0
  1  6  1  0  0  0  0
  2  3  1  0  0  0  0
  2  1  2  0  0  0  0
  3  4  2  0  0  0  0
  4  5  1  0  0  0  0
  5  7  1  0  0  0  0
  6  5  2  0  0  0  0
  7 15  1  0  0  0  0
  7  8  1  0  0  0  0
  8  9  2  0  0  0  0
 10 11  1  0  0  0  0
 10  9  1  0  0  0  0
 11 32  1  0  0  0  0
 12 11  2  0  0  0  0
 13 12  1  0  0  0  0
 14 13  2  0  0  0  0
 14 15  1  0  0  0  0
 15 10  2  0  0  0  0
 16 21  1  0  0  0  0
 17 16  2  0  0  0  0
 17 18  1  0  0  0  0
 18 19  2  0  0  0  0
 19 20  1  0  0  0  0
 20 22  1  0  0  0  0
 21 20  2  0  0  0  0
 22 30  1  0  0  0  0
 23 24  1  0  0  0  0
 23 22  2  0  0  0  0
 24 25  1  0  0  0  0
 25 30  2  0  0  0  0
 25 26  1  0  0  0  0
 26 27  2  0  0  0  0
 27 28  1  0  0  0  0
 29 28  2  0  0  0  0
 30 29  1  0  0  0  0
 31 24  1  0  0  0  0
 32 33  1  0  0  0  0
 32 34  1  0  0  0  0
M  END
>  <minimizedAffinity>
-6.88131094

$$$$

 OpenBabel03272514383D

 34 39  0  0  0  0  0  0  0  0999 V2000
   36.4720   28.0590   33.9760 C   0  0  0  0  0  0  0  0  0  0  0  0
   36.6810   28.0050   32.6100 C   0  0  0  0  0  3  0  0  0  0  0  0
   37.4340   26.9400   32.1540 C   0  0  0  0  0  3  0  0  0  0  0  0
   37.9350   26.0080   32.9920 N   0  0  0  0  0  0  0  0  0  0  0  0
   37.7090   26.0910   34.3260 C   0  0  0  0  0  0  0  0  0  0  0  0
   36.9730   27.1300   34.7820 N   0  0  0  0  0  0  0  0  0  0  0  0
   38.1780   25.1780   35.3120 N   0  0  0  0  0  0  0  0  0  0  0  0
   37.6130   25.1110   36.5400 C   0  0  0  0  0  3  0  0  0  0  0  0
   38.2430   24.1640   37.2850 N   0  0  0  0  0  0  0  0  0  0  0  0
   39.2050   23.6380   36.5230 C   0  0  0  0  0  0  0  0  0  0  0  0
   40.1800   22.6690   36.6530 C   0  0  0  0  0  0  0  0  0  0  0  0
   41.0360   22.3570   35.6570 N   0  0  0  0  0  0  0  0  0  0  0  0
   40.9570   23.0050   34.4640 C   0  0  0  0  0  3  0  0  0  0  0  0
   40.0190   23.9560   34.3010 N   0  0  0  0  0  0  0  0  0  0  0  0
   39.1700   24.2660   35.2920 C   0  0  0  0  0  0  0  0  0  0  0  0
   35.5510   31.1860   35.7780 C   0  0  0  0  0  3  0  0  0  0  0  0
   36.3300   30.1400   35.2720 C   0  0  0  0  0  3  0  0  0  0  0  0
   35.6840   29.1590   34.5160 C   0  0  0  0  0  0  0  0  0  0  0  0
   34.3610   29.2530   34.3030 N   0  0  0  0  0  0  0  0  0  0  0  0
   33.6230   30.2840   34.8080 C   0  0  0  0  0  0  0  0  0  0  0  0
   34.2180   31.2370   35.5360 N   0  0  0  0  0  0  0  0  0  0  0  0
   32.2010   30.2900   34.5210 C   0  0  0  0  0  0  0  0  0  0  0  0
   31.2390   29.7540   35.3810 C   0  0  0  0  0  3  0  0  0  0  0  0
   30.0200   29.9100   34.8410 N   0  0  0  0  0  0  0  0  0  0  0  0
   30.1610   30.5360   33.6460 C   0  0  0  0  0  0  0  0  0  0  0  0
   29.2270   30.9300   32.6980 C   0  0  0  0  0  3  0  0  0  0  0  0
   29.6870   31.5650   31.5470 C   0  0  0  0  0  3  0  0  0  0  0  0
   31.0370   31.7860   31.3760 C   0  0  0  0  0  3  0  0  0  0  0  0
   31.9890   31.3970   32.3190 C   0  0  0  0  0  3  0  0  0  0  0  0
   31.5100   30.7740   33.4460 C   0  0  0  0  0  0  0  0  0  0  0  0
   29.1300   29.6060   35.2610 H   0  0  0  0  0  0  0  0  0  0  0  0
   40.2840   21.9730   37.8900 N   0  0  0  0  0  0  0  0  0  0  0  0
   41.0030   21.2460   38.0120 H   0  0  0  0  0  0  0  0  0  0  0  0
   39.6410   22.1970   38.6620 H   0  0  0  0  0  0  0  0  0  0  0  0
  1 18  1  0  0  0  0
  1  6  1  0  0  0  0
  2  1  2  0  0  0  0
  3  2  1  0  0  0  0
  3  4  2  0  0  0  0
  4  5  1  0  0  0  0
  5  6  2  0  0  0  0
  5  7  1  0  0  0  0
  7  8  1  0  0  0  0
  8  9  2  0  0  0  0
 10 11  1  0  0  0  0
 10  9  1  0  0  0  0
 11 32  1  0  0  0  0
 12 11  2  0  0  0  0
 13 12  1  0  0  0  0
 14 13  2  0  0  0  0
 14 15  1  0  0  0  0
 15  7  1  0  0  0  0
 15 10  2  0  0  0  0
 17 16  2  0  0  0  0
 18 17  1  0  0  0  0
 19 18  2  0  0  0  0
 19 20  1  0  0  0  0
 20 21  2  0  0  0  0
 21 16  1  0  0  0  0
 22 20  1  0  0  0  0
 22 23  2  0  0  0  0
 24 31  1  0  0  0  0
 24 23  1  0  0  0  0
 25 24  1  0  0  0  0
 26 25  2  0  0  0  0
 27 26  1  0  0  0  0
 28 27  2  0  0  0  0
 28 29  1  0  0  0  0
 29 30  2  0  0  0  0
 30 25  1  0  0  0  0
 30 22  1  0  0  0  0
 32 33  1  0  0  0  0
 32 34  1  0  0  0  0
M  END
>  <minimizedAffinity>
-6.8522687

$$$$

 OpenBabel03272514383D

 34 39  0  0  0  0  0  0  0  0999 V2000
   36.5210   27.5250   33.1290 C   0  0  0  0  0  0  0  0  0  0  0  0
   36.5850   27.1610   31.7960 C   0  0  0  0  0  3  0  0  0  0  0  0
   37.2210   25.9650   31.5260 C   0  0  0  0  0  3  0  0  0  0  0  0
   37.7480   25.1970   32.5040 N   0  0  0  0  0  0  0  0  0  0  0  0
   37.6650   25.5850   33.8000 C   0  0  0  0  0  0  0  0  0  0  0  0
   37.0450   26.7540   34.0750 N   0  0  0  0  0  0  0  0  0  0  0  0
   38.1770   24.8710   34.9210 N   0  0  0  0  0  0  0  0  0  0  0  0
   37.7360   25.1170   36.1760 C   0  0  0  0  0  3  0  0  0  0  0  0
   38.3820   24.3050   37.0570 N   0  0  0  0  0  0  0  0  0  0  0  0
   39.2260   23.5500   36.3510 C   0  0  0  0  0  0  0  0  0  0  0  0
   40.1480   22.5560   36.6090 C   0  0  0  0  0  0  0  0  0  0  0  0
   40.8770   21.9660   35.6370 N   0  0  0  0  0  0  0  0  0  0  0  0
   40.7160   22.3460   34.3410 C   0  0  0  0  0  3  0  0  0  0  0  0
   39.8270   23.3130   34.0520 N   0  0  0  0  0  0  0  0  0  0  0  0
   39.1040   23.8980   35.0190 C   0  0  0  0  0  0  0  0  0  0  0  0
   35.5020   30.5700   35.0170 C   0  0  0  0  0  3  0  0  0  0  0  0
   36.1470   29.3680   34.7090 C   0  0  0  0  0  3  0  0  0  0  0  0
   35.8610   28.7770   33.4770 C   0  0  0  0  0  0  0  0  0  0  0  0
   34.9910   29.3720   32.6430 N   0  0  0  0  0  0  0  0  0  0  0  0
   34.3740   30.5460   32.9680 C   0  0  0  0  0  0  0  0  0  0  0  0
   34.6310   31.1330   34.1430 N   0  0  0  0  0  0  0  0  0  0  0  0
   33.4510   31.1040   31.9980 C   0  0  0  0  0  0  0  0  0  0  0  0
   33.8590   31.7460   30.8270 C   0  0  0  0  0  3  0  0  0  0  0  0
   32.7790   32.1510   30.1400 N   0  0  0  0  0  0  0  0  0  0  0  0
   31.6720   31.7890   30.8350 C   0  0  0  0  0  0  0  0  0  0  0  0
   30.3210   31.9650   30.5700 C   0  0  0  0  0  3  0  0  0  0  0  0
   29.4010   31.4730   31.4920 C   0  0  0  0  0  3  0  0  0  0  0  0
   29.8430   30.8320   32.6300 C   0  0  0  0  0  3  0  0  0  0  0  0
   31.1970   30.6460   32.9110 C   0  0  0  0  0  3  0  0  0  0  0  0
   32.0840   31.1400   31.9850 C   0  0  0  0  0  0  0  0  0  0  0  0
   32.7880   32.6520   29.2400 H   0  0  0  0  0  0  0  0  0  0  0  0
   40.3360   22.1370   37.9550 N   0  0  0  0  0  0  0  0  0  0  0  0
   41.0180   21.3970   38.1750 H   0  0  0  0  0  0  0  0  0  0  0  0
   39.7900   22.5740   38.7120 H   0  0  0  0  0  0  0  0  0  0  0  0
  1 18  1  0  0  0  0
  1  6  1  0  0  0  0
  2  1  2  0  0  0  0
  3  2  1  0  0  0  0
  3  4  2  0  0  0  0
  4  5  1  0  0  0  0
  5  6  2  0  0  0  0
  5  7  1  0  0  0  0
  7 15  1  0  0  0  0
  7  8  1  0  0  0  0
  8  9  2  0  0  0  0
 10 11  1  0  0  0  0
 10  9  1  0  0  0  0
 11 32  1  0  0  0  0
 12 11  2  0  0  0  0
 13 12  1  0  0  0  0
 14 13  2  0  0  0  0
 14 15  1  0  0  0  0
 15 10  2  0  0  0  0
 17 16  1  0  0  0  0
 18 17  2  0  0  0  0
 19 20  2  0  0  0  0
 19 18  1  0  0  0  0
 20 21  1  0  0  0  0
 21 16  2  0  0  0  0
 22 20  1  0  0  0  0
 23 22  2  0  0  0  0
 24 23  1  0  0  0  0
 24 25  1  0  0  0  0
 25 30  1  0  0  0  0
 26 25  2  0  0  0  0
 26 27  1  0  0  0  0
 27 28  2  0  0  0  0
 28 29  1  0  0  0  0
 30 22  1  0  0  0  0
 30 29  2  0  0  0  0
 31 24  1  0  0  0  0
 32 33  1  0  0  0  0
 32 34  1  0  0  0  0
M  END
>  <minimizedAffinity>
-6.84756994

$$$$

 OpenBabel03272514383D

 34 39  0  0  0  0  0  0  0  0999 V2000
   36.2680   26.9360   32.0140 C   0  0  0  0  0  0  0  0  0  0  0  0
   35.4350   26.1910   31.1980 C   0  0  0  0  0  3  0  0  0  0  0  0
   35.6790   24.8320   31.1630 C   0  0  0  0  0  3  0  0  0  0  0  0
   36.6710   24.2650   31.8830 N   0  0  0  0  0  0  0  0  0  0  0  0
   37.4680   25.0260   32.6730 C   0  0  0  0  0  0  0  0  0  0  0  0
   37.2370   26.3570   32.7140 N   0  0  0  0  0  0  0  0  0  0  0  0
   38.5430   24.5540   33.4780 N   0  0  0  0  0  0  0  0  0  0  0  0
   39.0340   25.2880   34.5030 C   0  0  0  0  0  3  0  0  0  0  0  0
   40.0500   24.6150   35.1060 N   0  0  0  0  0  0  0  0  0  0  0  0
   40.1960   23.4570   34.4570 C   0  0  0  0  0  0  0  0  0  0  0  0
   41.0100   22.3470   34.5440 C   0  0  0  0  0  0  0  0  0  0  0  0
   40.9040   21.2960   33.7030 N   0  0  0  0  0  0  0  0  0  0  0  0
   39.9640   21.3030   32.7200 C   0  0  0  0  0  3  0  0  0  0  0  0
   39.1530   22.3700   32.6040 N   0  0  0  0  0  0  0  0  0  0  0  0
   39.2600   23.4130   33.4400 C   0  0  0  0  0  0  0  0  0  0  0  0
   35.9850   30.5180   31.0310 C   0  0  0  0  0  3  0  0  0  0  0  0
   36.1930   29.1380   30.9300 C   0  0  0  0  0  3  0  0  0  0  0  0
   36.0580   28.3760   32.0920 C   0  0  0  0  0  0  0  0  0  0  0  0
   35.7360   28.9820   33.2470 N   0  0  0  0  0  0  0  0  0  0  0  0
   35.5380   30.3300   33.3210 C   0  0  0  0  0  0  0  0  0  0  0  0
   35.6620   31.0840   32.2210 N   0  0  0  0  0  0  0  0  0  0  0  0
   35.1970   30.8850   34.6160 C   0  0  0  0  0  0  0  0  0  0  0  0
   36.1020   31.5860   35.4170 C   0  0  0  0  0  3  0  0  0  0  0  0
   35.4920   31.9710   36.5490 N   0  0  0  0  0  0  0  0  0  0  0  0
   34.2070   31.5380   36.5080 C   0  0  0  0  0  0  0  0  0  0  0  0
   33.1630   31.6690   37.4140 C   0  0  0  0  0  3  0  0  0  0  0  0
   31.9330   31.1060   37.0850 C   0  0  0  0  0  3  0  0  0  0  0  0
   31.7790   30.4420   35.8850 C   0  0  0  0  0  3  0  0  0  0  0  0
   32.8180   30.3020   34.9640 C   0  0  0  0  0  3  0  0  0  0  0  0
   34.0210   30.8670   35.3120 C   0  0  0  0  0  0  0  0  0  0  0  0
   35.9250   32.5020   37.3180 H   0  0  0  0  0  0  0  0  0  0  0  0
   42.0010   22.3110   35.5640 N   0  0  0  0  0  0  0  0  0  0  0  0
   42.6230   21.4930   35.6500 H   0  0  0  0  0  0  0  0  0  0  0  0
   42.0990   23.1020   36.2160 H   0  0  0  0  0  0  0  0  0  0  0  0
  1 18  1  0  0  0  0
  1  6  1  0  0  0  0
  2  1  2  0  0  0  0
  3  2  1  0  0  0  0
  3  4  2  0  0  0  0
  4  5  1  0  0  0  0
  5  6  2  0  0  0  0
  5  7  1  0  0  0  0
  7  8  1  0  0  0  0
  8  9  2  0  0  0  0
 10 11  1  0  0  0  0
 10  9  1  0  0  0  0
 11 32  1  0  0  0  0
 12 11  2  0  0  0  0
 13 12  1  0  0  0  0
 14 13  2  0  0  0  0
 14 15  1  0  0  0  0
 15  7  1  0  0  0  0
 15 10  2  0  0  0  0
 16 21  1  0  0  0  0
 17 16  2  0  0  0  0
 17 18  1  0  0  0  0
 18 19  2  0  0  0  0
 19 20  1  0  0  0  0
 20 22  1  0  0  0  0
 21 20  2  0  0  0  0
 22 30  1  0  0  0  0
 22 23  2  0  0  0  0
 23 24  1  0  0  0  0
 24 31  1  0  0  0  0
 25 24  1  0  0  0  0
 25 26  1  0  0  0  0
 27 26  2  0  0  0  0
 28 27  1  0  0  0  0
 29 30  1  0  0  0  0
 29 28  2  0  0  0  0
 30 25  2  0  0  0  0
 32 33  1  0  0  0  0
 32 34  1  0  0  0  0
M  END
>  <minimizedAffinity>
-6.83453178

$$$$

 OpenBabel03272514383D

 34 39  0  0  0  0  0  0  0  0999 V2000
   37.2330   28.3410   31.8150 C   0  0  0  0  0  0  0  0  0  0  0  0
   37.4340   28.9810   30.6050 C   0  0  0  0  0  3  0  0  0  0  0  0
   36.4790   29.9130   30.2480 C   0  0  0  0  0  3  0  0  0  0  0  0
   35.4140   30.1830   31.0320 N   0  0  0  0  0  0  0  0  0  0  0  0
   35.2500   29.5370   32.2130 C   0  0  0  0  0  0  0  0  0  0  0  0
   36.1790   28.6230   32.5710 N   0  0  0  0  0  0  0  0  0  0  0  0
   34.1760   29.7280   33.1280 N   0  0  0  0  0  0  0  0  0  0  0  0
   34.2740   29.3430   34.4220 C   0  0  0  0  0  3  0  0  0  0  0  0
   33.1190   29.6370   35.0770 N   0  0  0  0  0  0  0  0  0  0  0  0
   32.2970   30.2070   34.1910 C   0  0  0  0  0  0  0  0  0  0  0  0
   31.0180   30.7260   34.1900 C   0  0  0  0  0  0  0  0  0  0  0  0
   30.4460   31.2520   33.0860 N   0  0  0  0  0  0  0  0  0  0  0  0
   31.1340   31.2870   31.9130 C   0  0  0  0  0  3  0  0  0  0  0  0
   32.3830   30.7890   31.8780 N   0  0  0  0  0  0  0  0  0  0  0  0
   32.9500   30.2660   32.9750 C   0  0  0  0  0  0  0  0  0  0  0  0
   40.2270   26.1260   31.8590 C   0  0  0  0  0  3  0  0  0  0  0  0
   39.3050   27.0820   31.4220 C   0  0  0  0  0  3  0  0  0  0  0  0
   38.2090   27.3470   32.2450 C   0  0  0  0  0  0  0  0  0  0  0  0
   38.0790   26.6880   33.4090 N   0  0  0  0  0  0  0  0  0  0  0  0
   38.9940   25.7580   33.8130 C   0  0  0  0  0  0  0  0  0  0  0  0
   40.0540   25.4850   33.0420 N   0  0  0  0  0  0  0  0  0  0  0  0
   38.7600   25.1020   35.0850 C   0  0  0  0  0  0  0  0  0  0  0  0
   37.6170   25.3100   35.8610 C   0  0  0  0  0  3  0  0  0  0  0  0
   37.6920   24.5650   36.9750 N   0  0  0  0  0  0  0  0  0  0  0  0
   38.8580   23.8720   36.9470 C   0  0  0  0  0  0  0  0  0  0  0  0
   39.4140   22.9700   37.8430 C   0  0  0  0  0  3  0  0  0  0  0  0
   40.6510   22.4130   37.5310 C   0  0  0  0  0  3  0  0  0  0  0  0
   41.2880   22.7620   36.3580 C   0  0  0  0  0  3  0  0  0  0  0  0
   40.7420   23.6660   35.4470 C   0  0  0  0  0  3  0  0  0  0  0  0
   39.5210   24.2020   35.7770 C   0  0  0  0  0  0  0  0  0  0  0  0
   36.9860   24.5260   37.7240 H   0  0  0  0  0  0  0  0  0  0  0  0
   30.2760   30.7040   35.4030 N   0  0  0  0  0  0  0  0  0  0  0  0
   29.3190   31.0850   35.4280 H   0  0  0  0  0  0  0  0  0  0  0  0
   30.6940   30.3080   36.2570 H   0  0  0  0  0  0  0  0  0  0  0  0
  1 18  1  0  0  0  0
  1  6  1  0  0  0  0
  2  1  2  0  0  0  0
  3  2  1  0  0  0  0
  3  4  2  0  0  0  0
  4  5  1  0  0  0  0
  5  6  2  0  0  0  0
  5  7  1  0  0  0  0
  7  8  1  0  0  0  0
  8  9  2  0  0  0  0
 10  9  1  0  0  0  0
 11 10  1  0  0  0  0
 11 32  1  0  0  0  0
 12 11  2  0  0  0  0
 13 12  1  0  0  0  0
 14 13  2  0  0  0  0
 14 15  1  0  0  0  0
 15  7  1  0  0  0  0
 15 10  2  0  0  0  0
 16 21  1  0  0  0  0
 17 16  2  0  0  0  0
 17 18  1  0  0  0  0
 18 19  2  0  0  0  0
 19 20  1  0  0  0  0
 20 22  1  0  0  0  0
 21 20  2  0  0  0  0
 22 30  1  0  0  0  0
 22 23  2  0  0  0  0
 23 24  1  0  0  0  0
 24 31  1  0  0  0  0
 25 24  1  0  0  0  0
 25 26  1  0  0  0  0
 27 26  2  0  0  0  0
 28 27  1  0  0  0  0
 29 30  1  0  0  0  0
 29 28  2  0  0  0  0
 30 25  2  0  0  0  0
 32 33  1  0  0  0  0
 32 34  1  0  0  0  0
M  END
>  <minimizedAffinity>
-6.79998732

$$$$
