
 OpenBabel03272514363D

 29 34  0  0  1  0  0  0  0  0999 V2000
   35.7760   25.5010   31.1110 C   0  0  0  0  0  3  0  0  0  0  0  0
   36.9150   24.7920   31.4480 C   0  0  0  0  0  0  0  0  0  0  0  0
   37.8140   25.4850   32.3190 C   0  0  0  0  0  3  0  0  0  0  0  0
   37.5120   26.7440   32.7460 N   0  0  0  0  0  0  0  0  0  0  0  0
   36.4010   27.3650   32.3800 C   0  0  0  0  0  0  0  0  0  0  0  0
   35.5400   26.7430   31.5670 N   0  0  0  0  0  0  0  0  0  0  0  0
   37.3410   23.4600   31.0600 C   0  0  0  0  0  0  0  0  0  0  0  0
   38.5200   23.4840   30.3770 C   0  0  0  0  0  3  0  0  0  0  0  0
   39.1120   22.3080   29.9100 C   0  0  0  0  0  3  0  0  0  0  0  0
   38.4920   21.0950   30.1430 C   0  0  0  0  0  3  0  0  0  0  0  0
   37.3020   21.0930   30.8350 C   0  0  0  0  0  0  0  0  0  0  0  0
   36.6040   19.9150   31.1170 C   0  0  0  0  0  3  0  0  0  0  0  0
   35.3990   19.9740   31.8230 C   0  0  0  0  0  3  0  0  0  0  0  0
   34.8670   21.1630   32.2560 C   0  0  0  0  0  3  0  0  0  0  0  0
   35.5620   22.3290   31.9760 C   0  0  0  0  0  3  0  0  0  0  0  0
   36.7390   22.2500   31.2850 C   0  0  0  0  0  0  0  0  0  0  0  0
   36.1170   28.7350   32.8630 C   0  0  1  0  0  3  0  0  0  0  0  0
   35.2500   29.6410   32.0630 C   0  0  0  0  0  2  0  0  0  0  0  0
   34.7560   29.0850   33.4000 C   0  0  2  0  0  3  0  0  0  0  0  0
   34.6320   30.0430   34.5010 C   0  0  0  0  0  0  0  0  0  0  0  0
   35.8610   30.6450   34.7790 C   0  0  0  0  0  3  0  0  0  0  0  0
   36.0060   31.5600   35.8190 C   0  0  0  0  0  3  0  0  0  0  0  0
   34.8940   31.8720   36.5880 C   0  0  0  0  0  3  0  0  0  0  0  0
   33.6820   31.2910   36.3240 C   0  0  0  0  0  0  0  0  0  0  0  0
   32.5070   31.5490   37.0300 C   0  0  0  0  0  3  0  0  0  0  0  0
   31.3090   30.9200   36.6870 C   0  0  0  0  0  3  0  0  0  0  0  0
   31.2430   30.0250   35.6410 C   0  0  0  0  0  3  0  0  0  0  0  0
   32.4000   29.7630   34.9370 C   0  0  0  0  0  3  0  0  0  0  0  0
   33.5710   30.3950   35.2960 C   0  0  0  0  0  0  0  0  0  0  0  0
  1  2  2  0  0  0  0
  1  6  1  0  0  0  0
  2  3  1  0  0  0  0
  3  4  2  0  0  0  0
  5  4  1  0  0  0  0
  6  5  2  0  0  0  0
  7 16  1  0  0  0  0
  7  2  1  0  0  0  0
  8  7  2  0  0  0  0
  9 10  2  0  0  0  0
  9  8  1  0  0  0  0
 10 11  1  0  0  0  0
 11 12  2  0  0  0  0
 11 16  1  0  0  0  0
 12 13  1  0  0  0  0
 13 14  2  0  0  0  0
 15 14  1  0  0  0  0
 16 15  2  0  0  0  0
 17  5  1  6  0  0  0
 17 19  1  0  0  0  0
 18 17  1  0  0  0  0
 18 19  1  0  0  0  0
 19 20  1  1  0  0  0
 20 21  2  0  0  0  0
 20 29  1  0  0  0  0
 21 22  1  0  0  0  0
 22 23  2  0  0  0  0
 24 23  1  0  0  0  0
 24 25  1  0  0  0  0
 26 25  2  0  0  0  0
 27 26  1  0  0  0  0
 28 29  1  0  0  0  0
 28 27  2  0  0  0  0
 29 24  2  0  0  0  0
M  END
>  <minimizedAffinity>
-7.61935472

$$$$

 OpenBabel03272514363D

 29 34  0  0  1  0  0  0  0  0999 V2000
   36.0960   26.0190   31.1960 C   0  0  0  0  0  3  0  0  0  0  0  0
   37.0140   25.1090   31.6870 C   0  0  0  0  0  0  0  0  0  0  0  0
   37.5950   25.4660   32.9440 C   0  0  0  0  0  3  0  0  0  0  0  0
   37.2290   26.6280   33.5580 N   0  0  0  0  0  0  0  0  0  0  0  0
   36.3420   27.4560   33.0270 C   0  0  0  0  0  0  0  0  0  0  0  0
   35.7810   27.1490   31.8520 N   0  0  0  0  0  0  0  0  0  0  0  0
   37.4800   23.8520   31.1310 C   0  0  0  0  0  0  0  0  0  0  0  0
   38.6550   24.0000   30.4580 C   0  0  0  0  0  3  0  0  0  0  0  0
   39.2810   22.9140   29.8440 C   0  0  0  0  0  3  0  0  0  0  0  0
   38.7000   21.6620   29.9180 C   0  0  0  0  0  3  0  0  0  0  0  0
   37.5140   21.5340   30.6040 C   0  0  0  0  0  0  0  0  0  0  0  0
   36.8540   20.3080   30.7320 C   0  0  0  0  0  3  0  0  0  0  0  0
   35.6490   20.2380   31.4390 C   0  0  0  0  0  3  0  0  0  0  0  0
   35.0830   21.3440   32.0210 C   0  0  0  0  0  3  0  0  0  0  0  0
   35.7400   22.5580   31.8940 C   0  0  0  0  0  3  0  0  0  0  0  0
   36.9170   22.6050   31.1980 C   0  0  0  0  0  0  0  0  0  0  0  0
   35.9800   28.7110   33.7240 C   0  0  1  0  0  3  0  0  0  0  0  0
   35.7430   29.9530   32.9430 C   0  0  0  0  0  2  0  0  0  0  0  0
   34.5780   29.2480   33.6410 C   0  0  2  0  0  3  0  0  0  0  0  0
   33.9920   29.9370   34.7930 C   0  0  0  0  0  0  0  0  0  0  0  0
   32.8260   29.2950   35.2170 C   0  0  0  0  0  3  0  0  0  0  0  0
   32.0630   29.7920   36.2710 C   0  0  0  0  0  3  0  0  0  0  0  0
   32.4830   30.9520   36.9060 C   0  0  0  0  0  3  0  0  0  0  0  0
   33.6260   31.5900   36.5010 C   0  0  0  0  0  0  0  0  0  0  0  0
   34.1360   32.7510   37.0820 C   0  0  0  0  0  3  0  0  0  0  0  0
   35.3160   33.3310   36.6140 C   0  0  0  0  0  3  0  0  0  0  0  0
   36.0200   32.7800   35.5650 C   0  0  0  0  0  3  0  0  0  0  0  0
   35.5220   31.6310   34.9840 C   0  0  0  0  0  3  0  0  0  0  0  0
   34.3550   31.0780   35.4630 C   0  0  0  0  0  0  0  0  0  0  0  0
  1  2  2  0  0  0  0
  1  6  1  0  0  0  0
  2  3  1  0  0  0  0
  3  4  2  0  0  0  0
  5  4  1  0  0  0  0
  6  5  2  0  0  0  0
  7 16  1  0  0  0  0
  7  2  1  0  0  0  0
  8  7  2  0  0  0  0
  9 10  2  0  0  0  0
  9  8  1  0  0  0  0
 10 11  1  0  0  0  0
 11 12  2  0  0  0  0
 11 16  1  0  0  0  0
 12 13  1  0  0  0  0
 13 14  2  0  0  0  0
 15 14  1  0  0  0  0
 16 15  2  0  0  0  0
 17  5  1  6  0  0  0
 18 19  1  0  0  0  0
 18 17  1  0  0  0  0
 19 17  1  0  0  0  0
 19 20  1  1  0  0  0
 20 21  2  0  0  0  0
 20 29  1  0  0  0  0
 21 22  1  0  0  0  0
 22 23  2  0  0  0  0
 24 23  1  0  0  0  0
 24 25  1  0  0  0  0
 26 25  2  0  0  0  0
 27 26  1  0  0  0  0
 28 29  1  0  0  0  0
 28 27  2  0  0  0  0
 29 24  2  0  0  0  0
M  END
>  <minimizedAffinity>
-7.32769775

$$$$

 OpenBabel03272514363D

 29 34  0  0  1  0  0  0  0  0999 V2000
   37.8490   24.6040   33.7370 C   0  0  0  0  0  3  0  0  0  0  0  0
   38.0320   25.0310   35.0390 C   0  0  0  0  0  0  0  0  0  0  0  0
   37.6850   26.3980   35.2740 C   0  0  0  0  0  3  0  0  0  0  0  0
   37.2150   27.1660   34.2500 N   0  0  0  0  0  0  0  0  0  0  0  0
   37.0660   26.6910   33.0220 C   0  0  0  0  0  0  0  0  0  0  0  0
   37.3830   25.4150   32.7720 N   0  0  0  0  0  0  0  0  0  0  0  0
   38.5210   24.3140   36.2030 C   0  0  0  0  0  0  0  0  0  0  0  0
   37.7730   24.5770   37.3110 C   0  0  0  0  0  3  0  0  0  0  0  0
   38.0700   23.9890   38.5420 C   0  0  0  0  0  3  0  0  0  0  0  0
   39.1430   23.1230   38.6420 C   0  0  0  0  0  3  0  0  0  0  0  0
   39.8840   22.8710   37.5110 C   0  0  0  0  0  0  0  0  0  0  0  0
   40.9860   22.0090   37.5160 C   0  0  0  0  0  3  0  0  0  0  0  0
   41.7030   21.7920   36.3360 C   0  0  0  0  0  3  0  0  0  0  0  0
   41.3620   22.4010   35.1550 C   0  0  0  0  0  3  0  0  0  0  0  0
   40.2690   23.2540   35.1520 C   0  0  0  0  0  3  0  0  0  0  0  0
   39.5800   23.4530   36.3170 C   0  0  0  0  0  0  0  0  0  0  0  0
   36.5600   27.5620   31.9380 C   0  0  1  0  0  3  0  0  0  0  0  0
   35.2990   28.3270   32.1270 C   0  0  0  0  0  2  0  0  0  0  0  0
   36.6410   29.0590   32.0660 C   0  0  2  0  0  3  0  0  0  0  0  0
   36.8860   29.8790   30.8780 C   0  0  0  0  0  0  0  0  0  0  0  0
   36.1840   31.0840   30.9500 C   0  0  0  0  0  3  0  0  0  0  0  0
   36.2210   32.0120   29.9120 C   0  0  0  0  0  3  0  0  0  0  0  0
   36.9790   31.7200   28.7870 C   0  0  0  0  0  3  0  0  0  0  0  0
   37.6740   30.5430   28.7050 C   0  0  0  0  0  0  0  0  0  0  0  0
   38.4720   30.1660   27.6250 C   0  0  0  0  0  3  0  0  0  0  0  0
   39.1580   28.9500   27.6270 C   0  0  0  0  0  3  0  0  0  0  0  0
   39.0740   28.0810   28.6930 C   0  0  0  0  0  3  0  0  0  0  0  0
   38.2870   28.4460   29.7670 C   0  0  0  0  0  3  0  0  0  0  0  0
   37.6180   29.6500   29.7400 C   0  0  0  0  0  0  0  0  0  0  0  0
  1  2  1  0  0  0  0
  2  3  2  0  0  0  0
  2  7  1  0  0  0  0
  4  3  1  0  0  0  0
  5  4  2  0  0  0  0
  6  5  1  0  0  0  0
  6  1  2  0  0  0  0
  7 16  2  0  0  0  0
  7  8  1  0  0  0  0
  8  9  2  0  0  0  0
  9 10  1  0  0  0  0
 11 12  1  0  0  0  0
 11 10  2  0  0  0  0
 13 12  2  0  0  0  0
 14 13  1  0  0  0  0
 15 14  2  0  0  0  0
 15 16  1  0  0  0  0
 16 11  1  0  0  0  0
 17 19  1  0  0  0  0
 17 18  1  0  0  0  0
 17  5  1  1  0  0  0
 19 20  1  6  0  0  0
 19 18  1  0  0  0  0
 20 21  1  0  0  0  0
 22 21  2  0  0  0  0
 23 22  1  0  0  0  0
 24 23  2  0  0  0  0
 24 29  1  0  0  0  0
 25 26  2  0  0  0  0
 25 24  1  0  0  0  0
 26 27  1  0  0  0  0
 27 28  2  0  0  0  0
 29 28  1  0  0  0  0
 29 20  2  0  0  0  0
M  END
>  <minimizedAffinity>
-7.13423395

$$$$

 OpenBabel03272514363D

 29 34  0  0  1  0  0  0  0  0999 V2000
   37.8010   24.4840   33.7130 C   0  0  0  0  0  3  0  0  0  0  0  0
   38.0360   24.9600   34.9900 C   0  0  0  0  0  0  0  0  0  0  0  0
   37.7610   26.3520   35.1680 C   0  0  0  0  0  3  0  0  0  0  0  0
   37.3050   27.0960   34.1200 N   0  0  0  0  0  0  0  0  0  0  0  0
   37.1030   26.5730   32.9200 C   0  0  0  0  0  0  0  0  0  0  0  0
   37.3510   25.2730   32.7220 N   0  0  0  0  0  0  0  0  0  0  0  0
   38.5160   24.2730   36.1740 C   0  0  0  0  0  0  0  0  0  0  0  0
   37.7720   24.5760   37.2740 C   0  0  0  0  0  3  0  0  0  0  0  0
   38.0620   24.0220   38.5220 C   0  0  0  0  0  3  0  0  0  0  0  0
   39.1260   23.1480   38.6480 C   0  0  0  0  0  3  0  0  0  0  0  0
   39.8650   22.8550   37.5250 C   0  0  0  0  0  0  0  0  0  0  0  0
   40.9570   21.9820   37.5560 C   0  0  0  0  0  3  0  0  0  0  0  0
   41.6720   21.7220   36.3840 C   0  0  0  0  0  3  0  0  0  0  0  0
   41.3370   22.2990   35.1840 C   0  0  0  0  0  3  0  0  0  0  0  0
   40.2530   23.1630   35.1560 C   0  0  0  0  0  3  0  0  0  0  0  0
   39.5670   23.4040   36.3140 C   0  0  0  0  0  0  0  0  0  0  0  0
   36.6140   27.4190   31.8080 C   0  0  1  0  0  3  0  0  0  0  0  0
   35.4770   28.3520   32.0280 C   0  0  0  0  0  2  0  0  0  0  0  0
   36.8890   28.8980   31.8010 C   0  0  2  0  0  3  0  0  0  0  0  0
   37.1270   29.5880   30.5320 C   0  0  0  0  0  0  0  0  0  0  0  0
   37.6110   28.7030   29.5660 C   0  0  0  0  0  3  0  0  0  0  0  0
   37.9570   29.1370   28.2880 C   0  0  0  0  0  3  0  0  0  0  0  0
   37.8120   30.4820   27.9820 C   0  0  0  0  0  3  0  0  0  0  0  0
   37.3360   31.3600   28.9200 C   0  0  0  0  0  0  0  0  0  0  0  0
   37.1430   32.7250   28.7040 C   0  0  0  0  0  3  0  0  0  0  0  0
   36.6410   33.5490   29.7130 C   0  0  0  0  0  3  0  0  0  0  0  0
   36.3190   33.0460   30.9550 C   0  0  0  0  0  3  0  0  0  0  0  0
   36.5070   31.6970   31.1780 C   0  0  0  0  0  3  0  0  0  0  0  0
   37.0040   30.9050   30.1660 C   0  0  0  0  0  0  0  0  0  0  0  0
  1  2  1  0  0  0  0
  2  3  2  0  0  0  0
  2  7  1  0  0  0  0
  4  3  1  0  0  0  0
  5  4  2  0  0  0  0
  6  5  1  0  0  0  0
  6  1  2  0  0  0  0
  7 16  2  0  0  0  0
  7  8  1  0  0  0  0
  8  9  2  0  0  0  0
  9 10  1  0  0  0  0
 11 12  1  0  0  0  0
 11 10  2  0  0  0  0
 13 12  2  0  0  0  0
 14 13  1  0  0  0  0
 15 14  2  0  0  0  0
 15 16  1  0  0  0  0
 16 11  1  0  0  0  0
 17 18  1  0  0  0  0
 17  5  1  1  0  0  0
 19 20  1  6  0  0  0
 19 17  1  0  0  0  0
 19 18  1  0  0  0  0
 21 20  2  0  0  0  0
 22 21  1  0  0  0  0
 23 22  2  0  0  0  0
 23 24  1  0  0  0  0
 24 29  1  0  0  0  0
 25 24  2  0  0  0  0
 25 26  1  0  0  0  0
 26 27  2  0  0  0  0
 27 28  1  0  0  0  0
 29 20  1  0  0  0  0
 29 28  2  0  0  0  0
M  END
>  <minimizedAffinity>
-7.09750795

$$$$

 OpenBabel03272514363D

 29 34  0  0  1  0  0  0  0  0999 V2000
   35.8390   25.8270   30.9900 C   0  0  0  0  0  3  0  0  0  0  0  0
   36.5780   24.8800   31.6770 C   0  0  0  0  0  0  0  0  0  0  0  0
   37.1510   25.3440   32.9020 C   0  0  0  0  0  3  0  0  0  0  0  0
   36.9460   26.6300   33.3060 N   0  0  0  0  0  0  0  0  0  0  0  0
   36.2260   27.4850   32.5960 C   0  0  0  0  0  0  0  0  0  0  0  0
   35.6770   27.0820   31.4450 N   0  0  0  0  0  0  0  0  0  0  0  0
   36.8650   23.4960   31.3500 C   0  0  0  0  0  0  0  0  0  0  0  0
   35.9450   22.6470   31.8890 C   0  0  0  0  0  3  0  0  0  0  0  0
   36.0320   21.2670   31.6970 C   0  0  0  0  0  3  0  0  0  0  0  0
   37.0700   20.7480   30.9470 C   0  0  0  0  0  3  0  0  0  0  0  0
   37.9880   21.6220   30.4110 C   0  0  0  0  0  0  0  0  0  0  0  0
   39.0700   21.1890   29.6390 C   0  0  0  0  0  3  0  0  0  0  0  0
   39.9720   22.1230   29.1210 C   0  0  0  0  0  3  0  0  0  0  0  0
   39.8330   23.4700   29.3450 C   0  0  0  0  0  3  0  0  0  0  0  0
   38.7590   23.8960   30.1100 C   0  0  0  0  0  3  0  0  0  0  0  0
   37.8880   22.9670   30.6070 C   0  0  0  0  0  0  0  0  0  0  0  0
   36.0360   28.8750   33.0690 C   0  0  1  0  0  3  0  0  0  0  0  0
   35.2740   29.8450   32.2390 C   0  0  0  0  0  2  0  0  0  0  0  0
   34.6890   29.3340   33.5570 C   0  0  2  0  0  3  0  0  0  0  0  0
   34.6020   30.3010   34.6530 C   0  0  0  0  0  0  0  0  0  0  0  0
   35.8690   30.7750   35.0020 C   0  0  0  0  0  3  0  0  0  0  0  0
   36.0480   31.6720   36.0520 C   0  0  0  0  0  3  0  0  0  0  0  0
   34.9330   32.0970   36.7600 C   0  0  0  0  0  3  0  0  0  0  0  0
   33.6840   31.6410   36.4270 C   0  0  0  0  0  0  0  0  0  0  0  0
   32.5040   32.0180   37.0680 C   0  0  0  0  0  3  0  0  0  0  0  0
   31.2700   31.5140   36.6560 C   0  0  0  0  0  3  0  0  0  0  0  0
   31.1700   30.6290   35.6050 C   0  0  0  0  0  3  0  0  0  0  0  0
   32.3330   30.2500   34.9640 C   0  0  0  0  0  3  0  0  0  0  0  0
   33.5400   30.7600   35.3900 C   0  0  0  0  0  0  0  0  0  0  0  0
  1  6  2  0  0  0  0
  1  2  1  0  0  0  0
  2  3  2  0  0  0  0
  3  4  1  0  0  0  0
  5  4  2  0  0  0  0
  6  5  1  0  0  0  0
  7  2  1  0  0  0  0
  7  8  1  0  0  0  0
  9  8  2  0  0  0  0
 10  9  1  0  0  0  0
 11 16  1  0  0  0  0
 11 10  2  0  0  0  0
 12 11  1  0  0  0  0
 13 14  1  0  0  0  0
 13 12  2  0  0  0  0
 14 15  2  0  0  0  0
 15 16  1  0  0  0  0
 16  7  2  0  0  0  0
 17  5  1  6  0  0  0
 17 19  1  0  0  0  0
 18 17  1  0  0  0  0
 18 19  1  0  0  0  0
 19 20  1  1  0  0  0
 20 21  2  0  0  0  0
 20 29  1  0  0  0  0
 21 22  1  0  0  0  0
 22 23  2  0  0  0  0
 24 23  1  0  0  0  0
 24 25  1  0  0  0  0
 26 25  2  0  0  0  0
 27 26  1  0  0  0  0
 28 29  1  0  0  0  0
 28 27  2  0  0  0  0
 29 24  2  0  0  0  0
M  END
>  <minimizedAffinity>
-7.09478188

$$$$

 OpenBabel03272514363D

 29 34  0  0  1  0  0  0  0  0999 V2000
   37.3170   26.2190   33.5550 C   0  0  0  0  0  3  0  0  0  0  0  0
   38.1500   26.0890   34.6530 C   0  0  0  0  0  0  0  0  0  0  0  0
   38.1540   27.2140   35.5350 C   0  0  0  0  0  3  0  0  0  0  0  0
   37.3750   28.2990   35.2590 N   0  0  0  0  0  0  0  0  0  0  0  0
   36.6010   28.3560   34.1850 C   0  0  0  0  0  0  0  0  0  0  0  0
   36.5760   27.3190   33.3410 N   0  0  0  0  0  0  0  0  0  0  0  0
   39.0170   24.9950   35.0490 C   0  0  0  0  0  0  0  0  0  0  0  0
   39.8940   24.6600   34.0610 C   0  0  0  0  0  3  0  0  0  0  0  0
   40.8220   23.6310   34.2340 C   0  0  0  0  0  3  0  0  0  0  0  0
   40.8530   22.9360   35.4280 C   0  0  0  0  0  3  0  0  0  0  0  0
   39.9590   23.2910   36.4130 C   0  0  0  0  0  0  0  0  0  0  0  0
   39.9180   22.6450   37.6520 C   0  0  0  0  0  3  0  0  0  0  0  0
   38.9870   23.0470   38.6140 C   0  0  0  0  0  3  0  0  0  0  0  0
   38.0990   24.0680   38.3840 C   0  0  0  0  0  3  0  0  0  0  0  0
   38.1430   24.7070   37.1550 C   0  0  0  0  0  3  0  0  0  0  0  0
   39.0610   24.2990   36.2280 C   0  0  0  0  0  0  0  0  0  0  0  0
   35.7770   29.5570   33.9200 C   0  0  1  0  0  3  0  0  0  0  0  0
   34.4100   29.6630   34.4940 C   0  0  0  0  0  2  0  0  0  0  0  0
   35.5320   30.5660   35.0090 C   0  0  2  0  0  3  0  0  0  0  0  0
   35.4330   31.9890   34.6740 C   0  0  0  0  0  0  0  0  0  0  0  0
   35.8570   32.2240   33.3650 C   0  0  0  0  0  3  0  0  0  0  0  0
   35.8980   33.5100   32.8320 C   0  0  0  0  0  3  0  0  0  0  0  0
   35.5050   34.5730   33.6330 C   0  0  0  0  0  3  0  0  0  0  0  0
   35.0860   34.3560   34.9180 C   0  0  0  0  0  0  0  0  0  0  0  0
   34.6600   35.3540   35.7950 C   0  0  0  0  0  3  0  0  0  0  0  0
   34.2360   35.0440   37.0870 C   0  0  0  0  0  3  0  0  0  0  0  0
   34.2210   33.7440   37.5450 C   0  0  0  0  0  3  0  0  0  0  0  0
   34.6400   32.7490   36.6850 C   0  0  0  0  0  3  0  0  0  0  0  0
   35.0560   33.0810   35.4140 C   0  0  0  0  0  0  0  0  0  0  0  0
  1  2  1  0  0  0  0
  2  7  1  0  0  0  0
  2  3  2  0  0  0  0
  4  3  1  0  0  0  0
  5  4  2  0  0  0  0
  6  1  2  0  0  0  0
  6  5  1  0  0  0  0
  7 16  1  0  0  0  0
  8  9  1  0  0  0  0
  8  7  2  0  0  0  0
  9 10  2  0  0  0  0
 10 11  1  0  0  0  0
 11 12  1  0  0  0  0
 12 13  2  0  0  0  0
 14 13  1  0  0  0  0
 15 14  2  0  0  0  0
 16 11  2  0  0  0  0
 16 15  1  0  0  0  0
 17  5  1  1  0  0  0
 17 18  1  0  0  0  0
 17 19  1  0  0  0  0
 18 19  1  0  0  0  0
 19 20  1  6  0  0  0
 20 29  1  0  0  0  0
 21 20  2  0  0  0  0
 22 21  1  0  0  0  0
 22 23  2  0  0  0  0
 23 24  1  0  0  0  0
 24 29  2  0  0  0  0
 24 25  1  0  0  0  0
 25 26  2  0  0  0  0
 26 27  1  0  0  0  0
 28 27  2  0  0  0  0
 29 28  1  0  0  0  0
M  END
>  <minimizedAffinity>
-6.96168041

$$$$

 OpenBabel03272514363D

 29 34  0  0  1  0  0  0  0  0999 V2000
   35.3620   29.3410   32.4450 C   0  0  0  0  0  3  0  0  0  0  0  0
   35.5370   29.3330   33.8180 C   0  0  0  0  0  0  0  0  0  0  0  0
   36.3620   28.2730   34.3080 C   0  0  0  0  0  3  0  0  0  0  0  0
   36.9030   27.3730   33.4390 N   0  0  0  0  0  0  0  0  0  0  0  0
   36.6920   27.4410   32.1330 C   0  0  0  0  0  0  0  0  0  0  0  0
   35.9250   28.4210   31.6430 N   0  0  0  0  0  0  0  0  0  0  0  0
   35.0160   30.2270   34.8350 C   0  0  0  0  0  0  0  0  0  0  0  0
   35.9510   31.1290   35.2450 C   0  0  0  0  0  3  0  0  0  0  0  0
   35.6590   32.0850   36.2200 C   0  0  0  0  0  3  0  0  0  0  0  0
   34.3980   32.1190   36.7840 C   0  0  0  0  0  3  0  0  0  0  0  0
   33.4680   31.1990   36.3560 C   0  0  0  0  0  0  0  0  0  0  0  0
   32.1680   31.1580   36.8690 C   0  0  0  0  0  3  0  0  0  0  0  0
   31.2660   30.1990   36.3970 C   0  0  0  0  0  3  0  0  0  0  0  0
   31.6130   29.2850   35.4350 C   0  0  0  0  0  3  0  0  0  0  0  0
   32.9020   29.3280   34.9280 C   0  0  0  0  0  3  0  0  0  0  0  0
   33.7690   30.2730   35.4020 C   0  0  0  0  0  0  0  0  0  0  0  0
   37.2950   26.4380   31.2250 C   0  0  1  0  0  3  0  0  0  0  0  0
   38.6470   26.6710   30.6530 C   0  0  0  0  0  2  0  0  0  0  0  0
   38.4310   25.5730   31.6960 C   0  0  2  0  0  3  0  0  0  0  0  0
   38.5380   24.1900   31.2230 C   0  0  0  0  0  0  0  0  0  0  0  0
   39.7820   23.9610   30.6320 C   0  0  0  0  0  3  0  0  0  0  0  0
   40.1030   22.7300   30.0640 C   0  0  0  0  0  3  0  0  0  0  0  0
   39.1540   21.7180   30.0940 C   0  0  0  0  0  3  0  0  0  0  0  0
   37.9310   21.9300   30.6720 C   0  0  0  0  0  0  0  0  0  0  0  0
   36.9190   20.9740   30.7630 C   0  0  0  0  0  3  0  0  0  0  0  0
   35.7030   21.2700   31.3810 C   0  0  0  0  0  3  0  0  0  0  0  0
   35.4580   22.5130   31.9240 C   0  0  0  0  0  3  0  0  0  0  0  0
   36.4540   23.4650   31.8390 C   0  0  0  0  0  3  0  0  0  0  0  0
   37.6450   23.1490   31.2220 C   0  0  0  0  0  0  0  0  0  0  0  0
  1  2  1  0  0  0  0
  2  3  2  0  0  0  0
  2  7  1  0  0  0  0
  4  3  1  0  0  0  0
  5  4  2  0  0  0  0
  6  5  1  0  0  0  0
  6  1  2  0  0  0  0
  7  8  2  0  0  0  0
  7 16  1  0  0  0  0
  8  9  1  0  0  0  0
  9 10  2  0  0  0  0
 11 10  1  0  0  0  0
 11 12  1  0  0  0  0
 13 12  2  0  0  0  0
 14 13  1  0  0  0  0
 15 16  1  0  0  0  0
 15 14  2  0  0  0  0
 16 11  2  0  0  0  0
 17 19  1  0  0  0  0
 17  5  1  1  0  0  0
 18 17  1  0  0  0  0
 18 19  1  0  0  0  0
 19 20  1  6  0  0  0
 21 20  2  0  0  0  0
 22 23  2  0  0  0  0
 22 21  1  0  0  0  0
 23 24  1  0  0  0  0
 24 25  2  0  0  0  0
 24 29  1  0  0  0  0
 25 26  1  0  0  0  0
 26 27  2  0  0  0  0
 28 27  1  0  0  0  0
 29 20  1  0  0  0  0
 29 28  2  0  0  0  0
M  END
>  <minimizedAffinity>
-6.93116713

$$$$

 OpenBabel03272514363D

 29 34  0  0  1  0  0  0  0  0999 V2000
   35.2870   25.2430   30.8490 C   0  0  0  0  0  3  0  0  0  0  0  0
   36.5710   24.8000   31.1110 C   0  0  0  0  0  0  0  0  0  0  0  0
   37.4320   25.7790   31.6980 C   0  0  0  0  0  3  0  0  0  0  0  0
   36.9620   27.0330   31.9530 N   0  0  0  0  0  0  0  0  0  0  0  0
   35.7180   27.3900   31.6750 C   0  0  0  0  0  0  0  0  0  0  0  0
   34.8880   26.4960   31.1250 N   0  0  0  0  0  0  0  0  0  0  0  0
   37.1810   23.5030   30.8850 C   0  0  0  0  0  0  0  0  0  0  0  0
   38.3560   23.6060   30.2030 C   0  0  0  0  0  3  0  0  0  0  0  0
   39.1100   22.4760   29.8800 C   0  0  0  0  0  3  0  0  0  0  0  0
   38.6570   21.2260   30.2570 C   0  0  0  0  0  3  0  0  0  0  0  0
   37.4680   21.1430   30.9450 C   0  0  0  0  0  0  0  0  0  0  0  0
   36.9330   19.9220   31.3670 C   0  0  0  0  0  3  0  0  0  0  0  0
   35.7200   19.8990   32.0610 C   0  0  0  0  0  3  0  0  0  0  0  0
   35.0250   21.0460   32.3500 C   0  0  0  0  0  3  0  0  0  0  0  0
   35.5580   22.2550   31.9310 C   0  0  0  0  0  3  0  0  0  0  0  0
   36.7460   22.2570   31.2530 C   0  0  0  0  0  0  0  0  0  0  0  0
   35.2520   28.7650   31.9620 C   0  0  1  0  0  3  0  0  0  0  0  0
   34.1140   28.9850   32.8950 C   0  0  0  0  0  2  0  0  0  0  0  0
   35.5310   29.3980   33.2980 C   0  0  2  0  0  3  0  0  0  0  0  0
   35.7950   30.8370   33.3810 C   0  0  0  0  0  0  0  0  0  0  0  0
   36.3120   31.3190   32.1770 C   0  0  0  0  0  3  0  0  0  0  0  0
   36.6860   32.6520   32.0260 C   0  0  0  0  0  3  0  0  0  0  0  0
   36.5350   33.5100   33.1070 C   0  0  0  0  0  3  0  0  0  0  0  0
   36.0270   33.0500   34.2930 C   0  0  0  0  0  0  0  0  0  0  0  0
   35.8260   33.8340   35.4290 C   0  0  0  0  0  3  0  0  0  0  0  0
   35.2910   33.2870   36.5960 C   0  0  0  0  0  3  0  0  0  0  0  0
   34.9420   31.9560   36.6690 C   0  0  0  0  0  3  0  0  0  0  0  0
   35.1380   31.1710   35.5500 C   0  0  0  0  0  3  0  0  0  0  0  0
   35.6690   31.7350   34.4100 C   0  0  0  0  0  0  0  0  0  0  0  0
  1  2  2  0  0  0  0
  1  6  1  0  0  0  0
  2  3  1  0  0  0  0
  3  4  2  0  0  0  0
  5  4  1  0  0  0  0
  6  5  2  0  0  0  0
  7  2  1  0  0  0  0
  7 16  1  0  0  0  0
  8  7  2  0  0  0  0
  9  8  1  0  0  0  0
  9 10  2  0  0  0  0
 10 11  1  0  0  0  0
 11 16  2  0  0  0  0
 11 12  1  0  0  0  0
 12 13  2  0  0  0  0
 13 14  1  0  0  0  0
 15 14  2  0  0  0  0
 16 15  1  0  0  0  0
 17  5  1  1  0  0  0
 17 18  1  0  0  0  0
 17 19  1  0  0  0  0
 18 19  1  0  0  0  0
 19 20  1  6  0  0  0
 20 29  1  0  0  0  0
 21 20  2  0  0  0  0
 22 21  1  0  0  0  0
 22 23  2  0  0  0  0
 23 24  1  0  0  0  0
 24 29  2  0  0  0  0
 24 25  1  0  0  0  0
 25 26  2  0  0  0  0
 26 27  1  0  0  0  0
 28 27  2  0  0  0  0
 29 28  1  0  0  0  0
M  END
>  <minimizedAffinity>
-6.87423468

$$$$

 OpenBabel03272514363D

 29 34  0  0  1  0  0  0  0  0999 V2000
   37.2330   26.1290   33.4340 C   0  0  0  0  0  3  0  0  0  0  0  0
   38.0610   26.1010   34.5410 C   0  0  0  0  0  0  0  0  0  0  0  0
   38.0020   27.2710   35.3610 C   0  0  0  0  0  3  0  0  0  0  0  0
   37.1740   28.2990   35.0210 N   0  0  0  0  0  0  0  0  0  0  0  0
   36.4060   28.2590   33.9420 C   0  0  0  0  0  0  0  0  0  0  0  0
   36.4390   27.1780   33.1550 N   0  0  0  0  0  0  0  0  0  0  0  0
   38.9780   25.0750   35.0020 C   0  0  0  0  0  0  0  0  0  0  0  0
   39.9370   24.7980   34.0740 C   0  0  0  0  0  3  0  0  0  0  0  0
   40.9230   23.8390   34.3140 C   0  0  0  0  0  3  0  0  0  0  0  0
   40.9300   23.1560   35.5150 C   0  0  0  0  0  3  0  0  0  0  0  0
   39.9530   23.4510   36.4390 C   0  0  0  0  0  0  0  0  0  0  0  0
   39.8810   22.8110   37.6800 C   0  0  0  0  0  3  0  0  0  0  0  0
   38.8650   23.1500   38.5780 C   0  0  0  0  0  3  0  0  0  0  0  0
   37.9230   24.1030   38.2840 C   0  0  0  0  0  3  0  0  0  0  0  0
   37.9970   24.7360   37.0530 C   0  0  0  0  0  3  0  0  0  0  0  0
   38.9990   24.3900   36.1890 C   0  0  0  0  0  0  0  0  0  0  0  0
   35.5270   29.4010   33.6070 C   0  0  1  0  0  3  0  0  0  0  0  0
   35.5280   29.9630   32.2310 C   0  0  0  0  0  2  0  0  0  0  0  0
   34.3090   29.1960   32.7480 C   0  0  2  0  0  3  0  0  0  0  0  0
   33.0990   29.9830   32.9990 C   0  0  0  0  0  0  0  0  0  0  0  0
   32.7430   30.7230   31.8700 C   0  0  0  0  0  3  0  0  0  0  0  0
   31.6500   31.5870   31.8800 C   0  0  0  0  0  3  0  0  0  0  0  0
   30.9080   31.7050   33.0460 C   0  0  0  0  0  3  0  0  0  0  0  0
   31.2460   30.9830   34.1600 C   0  0  0  0  0  0  0  0  0  0  0  0
   30.5560   31.0230   35.3720 C   0  0  0  0  0  3  0  0  0  0  0  0
   30.9630   30.2450   36.4570 C   0  0  0  0  0  3  0  0  0  0  0  0
   32.0560   29.4100   36.3710 C   0  0  0  0  0  3  0  0  0  0  0  0
   32.7440   29.3640   35.1760 C   0  0  0  0  0  3  0  0  0  0  0  0
   32.3250   30.1430   34.1200 C   0  0  0  0  0  0  0  0  0  0  0  0
  1  2  1  0  0  0  0
  2  7  1  0  0  0  0
  2  3  2  0  0  0  0
  4  3  1  0  0  0  0
  5  4  2  0  0  0  0
  6  1  2  0  0  0  0
  6  5  1  0  0  0  0
  7 16  1  0  0  0  0
  8  9  1  0  0  0  0
  8  7  2  0  0  0  0
  9 10  2  0  0  0  0
 10 11  1  0  0  0  0
 11 12  1  0  0  0  0
 12 13  2  0  0  0  0
 14 13  1  0  0  0  0
 15 14  2  0  0  0  0
 16 11  2  0  0  0  0
 16 15  1  0  0  0  0
 17  5  1  6  0  0  0
 18 19  1  0  0  0  0
 18 17  1  0  0  0  0
 19 20  1  1  0  0  0
 19 17  1  0  0  0  0
 20 29  1  0  0  0  0
 21 22  1  0  0  0  0
 21 20  2  0  0  0  0
 22 23  2  0  0  0  0
 23 24  1  0  0  0  0
 24 25  1  0  0  0  0
 25 26  2  0  0  0  0
 27 26  1  0  0  0  0
 28 27  2  0  0  0  0
 29 24  2  0  0  0  0
 29 28  1  0  0  0  0
M  END
>  <minimizedAffinity>
-6.85845423

$$$$
