
 OpenBabel03272514383D

 32 37  0  0  0  0  0  0  0  0999 V2000
   36.2950   23.3870   31.7750 C   0  0  0  0  0  3  0  0  0  0  0  0
   36.1220   24.7480   31.5090 C   0  0  0  0  0  3  0  0  0  0  0  0
   36.8870   25.6560   32.2770 C   0  0  0  0  0  0  0  0  0  0  0  0
   37.7350   25.1870   33.2150 N   0  0  0  0  0  0  0  0  0  0  0  0
   37.8730   23.8560   33.4390 C   0  0  0  0  0  0  0  0  0  0  0  0
   37.1630   22.9640   32.7300 N   0  0  0  0  0  0  0  0  0  0  0  0
   38.8150   23.4570   34.4730 C   0  0  0  0  0  0  0  0  0  0  0  0
   40.0790   22.9530   34.2240 C   0  0  0  0  0  3  0  0  0  0  0  0
   40.7050   22.6790   35.3700 N   0  0  0  0  0  0  0  0  0  0  0  0
   39.8640   22.9980   36.3880 C   0  0  0  0  0  0  0  0  0  0  0  0
   40.0020   22.9150   37.7740 C   0  0  0  0  0  3  0  0  0  0  0  0
   38.9530   23.3210   38.5780 C   0  0  0  0  0  3  0  0  0  0  0  0
   37.7990   23.7980   38.0000 C   0  0  0  0  0  3  0  0  0  0  0  0
   37.6290   23.8930   36.6170 C   0  0  0  0  0  3  0  0  0  0  0  0
   38.6950   23.4790   35.8410 C   0  0  0  0  0  0  0  0  0  0  0  0
   41.6550   22.2930   35.4660 H   0  0  0  0  0  0  0  0  0  0  0  0
   36.7430   27.0940   32.0350 C   0  0  0  0  0  0  0  0  0  0  0  0
   37.6110   27.7210   31.1880 C   0  0  0  0  0  3  0  0  0  0  0  0
   37.3890   29.0670   31.0260 C   0  0  0  0  0  3  0  0  0  0  0  0
   36.3980   29.7290   31.6450 N   0  0  0  0  0  0  0  0  0  0  0  0
   35.5500   29.0900   32.4770 C   0  0  0  0  0  0  0  0  0  0  0  0
   35.7640   27.7690   32.6400 N   0  0  0  0  0  0  0  0  0  0  0  0
   34.4030   29.5530   33.2780 C   0  0  0  0  0  0  0  0  0  0  0  0
   33.1080   29.2570   32.9690 N   0  0  0  0  0  0  0  0  0  0  0  0
   32.0610   29.6690   33.6820 C   0  0  0  0  0  3  0  0  0  0  0  0
   32.2120   30.4230   34.7820 N   0  0  0  0  0  0  0  0  0  0  0  0
   33.4580   30.7710   35.1710 C   0  0  0  0  0  0  0  0  0  0  0  0
   33.5960   31.5450   36.3020 C   0  0  0  0  0  3  0  0  0  0  0  0
   34.8500   31.9190   36.7280 C   0  0  0  0  0  3  0  0  0  0  0  0
   35.9370   31.4780   35.9680 C   0  0  0  0  0  3  0  0  0  0  0  0
   35.7280   30.7110   34.8540 C   0  0  0  0  0  3  0  0  0  0  0  0
   34.5050   30.3270   34.4100 C   0  0  0  0  0  0  0  0  0  0  0  0
  1  6  1  0  0  0  0
  2  1  2  0  0  0  0
  2  3  1  0  0  0  0
  3  4  2  0  0  0  0
  4  5  1  0  0  0  0
  5  7  1  0  0  0  0
  6  5  2  0  0  0  0
  7 15  1  0  0  0  0
  8  7  2  0  0  0  0
  8  9  1  0  0  0  0
  9 16  1  0  0  0  0
  9 10  1  0  0  0  0
 10 11  1  0  0  0  0
 11 12  2  0  0  0  0
 13 12  1  0  0  0  0
 14 13  2  0  0  0  0
 15 10  2  0  0  0  0
 15 14  1  0  0  0  0
 17  3  1  0  0  0  0
 17 22  1  0  0  0  0
 18 17  2  0  0  0  0
 19 18  1  0  0  0  0
 19 20  2  0  0  0  0
 20 21  1  0  0  0  0
 21 22  2  0  0  0  0
 21 23  1  0  0  0  0
 23 32  1  0  0  0  0
 24 23  2  0  0  0  0
 24 25  1  0  0  0  0
 25 26  2  0  0  0  0
 26 27  1  0  0  0  0
 27 28  1  0  0  0  0
 28 29  2  0  0  0  0
 30 29  1  0  0  0  0
 31 30  2  0  0  0  0
 32 31  1  0  0  0  0
 32 27  2  0  0  0  0
M  END
>  <minimizedAffinity>
-7.87248278

$$$$

 OpenBabel03272514383D

 32 37  0  0  0  0  0  0  0  0999 V2000
   37.1570   23.5670   31.8460 C   0  0  0  0  0  3  0  0  0  0  0  0
   36.8630   24.8860   31.4890 C   0  0  0  0  0  3  0  0  0  0  0  0
   37.0690   25.8800   32.4730 C   0  0  0  0  0  0  0  0  0  0  0  0
   37.5310   25.5270   33.6910 N   0  0  0  0  0  0  0  0  0  0  0  0
   37.8040   24.2340   33.9930 C   0  0  0  0  0  0  0  0  0  0  0  0
   37.6210   23.2630   33.0850 N   0  0  0  0  0  0  0  0  0  0  0  0
   38.2990   23.9620   35.3350 C   0  0  0  0  0  0  0  0  0  0  0  0
   37.7130   24.4390   36.4930 C   0  0  0  0  0  3  0  0  0  0  0  0
   38.3920   24.0210   37.5640 N   0  0  0  0  0  0  0  0  0  0  0  0
   39.4320   23.2660   37.1260 C   0  0  0  0  0  0  0  0  0  0  0  0
   40.4470   22.5910   37.8050 C   0  0  0  0  0  3  0  0  0  0  0  0
   41.3900   21.8900   37.0770 C   0  0  0  0  0  3  0  0  0  0  0  0
   41.3100   21.8680   35.7040 C   0  0  0  0  0  3  0  0  0  0  0  0
   40.3070   22.5320   34.9940 C   0  0  0  0  0  3  0  0  0  0  0  0
   39.3810   23.2250   35.7510 C   0  0  0  0  0  0  0  0  0  0  0  0
   38.1680   24.2350   38.5470 H   0  0  0  0  0  0  0  0  0  0  0  0
   36.7780   27.2780   32.1480 C   0  0  0  0  0  0  0  0  0  0  0  0
   37.5290   27.9180   31.2050 C   0  0  0  0  0  3  0  0  0  0  0  0
   37.1740   29.2240   30.9700 C   0  0  0  0  0  3  0  0  0  0  0  0
   36.1660   29.8380   31.6110 N   0  0  0  0  0  0  0  0  0  0  0  0
   35.4350   29.1880   32.5400 C   0  0  0  0  0  0  0  0  0  0  0  0
   35.7800   27.9060   32.7740 N   0  0  0  0  0  0  0  0  0  0  0  0
   34.3020   29.6040   33.3850 C   0  0  0  0  0  0  0  0  0  0  0  0
   33.0080   29.2660   33.1200 N   0  0  0  0  0  0  0  0  0  0  0  0
   31.9730   29.6350   33.8740 C   0  0  0  0  0  3  0  0  0  0  0  0
   32.1380   30.3840   34.9760 N   0  0  0  0  0  0  0  0  0  0  0  0
   33.3840   30.7720   35.3240 C   0  0  0  0  0  0  0  0  0  0  0  0
   33.5360   31.5400   36.4560 C   0  0  0  0  0  3  0  0  0  0  0  0
   34.7920   31.9540   36.8410 C   0  0  0  0  0  3  0  0  0  0  0  0
   35.8650   31.5570   36.0390 C   0  0  0  0  0  3  0  0  0  0  0  0
   35.6430   30.7930   34.9250 C   0  0  0  0  0  3  0  0  0  0  0  0
   34.4190   30.3710   34.5220 C   0  0  0  0  0  0  0  0  0  0  0  0
  1  6  1  0  0  0  0
  2  1  2  0  0  0  0
  2  3  1  0  0  0  0
  3  4  2  0  0  0  0
  4  5  1  0  0  0  0
  5  7  1  0  0  0  0
  6  5  2  0  0  0  0
  7 15  1  0  0  0  0
  7  8  2  0  0  0  0
  8  9  1  0  0  0  0
  9 16  1  0  0  0  0
 10  9  1  0  0  0  0
 10 11  1  0  0  0  0
 12 11  2  0  0  0  0
 13 12  1  0  0  0  0
 14 13  2  0  0  0  0
 14 15  1  0  0  0  0
 15 10  2  0  0  0  0
 17  3  1  0  0  0  0
 17 22  1  0  0  0  0
 18 17  2  0  0  0  0
 19 18  1  0  0  0  0
 19 20  2  0  0  0  0
 20 21  1  0  0  0  0
 21 22  2  0  0  0  0
 21 23  1  0  0  0  0
 23 32  1  0  0  0  0
 24 23  2  0  0  0  0
 24 25  1  0  0  0  0
 25 26  2  0  0  0  0
 26 27  1  0  0  0  0
 27 28  1  0  0  0  0
 28 29  2  0  0  0  0
 30 29  1  0  0  0  0
 31 30  2  0  0  0  0
 32 31  1  0  0  0  0
 32 27  2  0  0  0  0
M  END
>  <minimizedAffinity>
-7.59863949

$$$$

 OpenBabel03272514383D

 32 37  0  0  0  0  0  0  0  0999 V2000
   36.1590   28.9410   31.8330 C   0  0  0  0  0  3  0  0  0  0  0  0
   36.7030   27.7150   32.2260 C   0  0  0  0  0  3  0  0  0  0  0  0
   36.7630   27.4520   33.6140 C   0  0  0  0  0  0  0  0  0  0  0  0
   36.3050   28.3730   34.4870 N   0  0  0  0  0  0  0  0  0  0  0  0
   35.7830   29.5500   34.0610 C   0  0  0  0  0  0  0  0  0  0  0  0
   35.7090   29.8340   32.7520 N   0  0  0  0  0  0  0  0  0  0  0  0
   35.3160   30.4720   35.0860 C   0  0  0  0  0  0  0  0  0  0  0  0
   36.1380   31.3210   35.8040 C   0  0  0  0  0  3  0  0  0  0  0  0
   35.4210   32.0430   36.6690 N   0  0  0  0  0  0  0  0  0  0  0  0
   34.1190   31.6780   36.5320 C   0  0  0  0  0  0  0  0  0  0  0  0
   32.9580   32.1050   37.1770 C   0  0  0  0  0  3  0  0  0  0  0  0
   31.7480   31.5400   36.8220 C   0  0  0  0  0  3  0  0  0  0  0  0
   31.7090   30.5750   35.8420 C   0  0  0  0  0  3  0  0  0  0  0  0
   32.8530   30.1260   35.1780 C   0  0  0  0  0  3  0  0  0  0  0  0
   34.0470   30.7090   35.5570 C   0  0  0  0  0  0  0  0  0  0  0  0
   35.7890   32.7480   37.3230 H   0  0  0  0  0  0  0  0  0  0  0  0
   37.3230   26.1810   34.0770 C   0  0  0  0  0  0  0  0  0  0  0  0
   37.6450   26.0300   35.3950 C   0  0  0  0  0  3  0  0  0  0  0  0
   38.1590   24.8000   35.7280 C   0  0  0  0  0  3  0  0  0  0  0  0
   38.3350   23.8110   34.8360 N   0  0  0  0  0  0  0  0  0  0  0  0
   38.0100   23.9800   33.5380 C   0  0  0  0  0  0  0  0  0  0  0  0
   37.5060   25.1850   33.2070 N   0  0  0  0  0  0  0  0  0  0  0  0
   38.1000   23.0920   32.3660 C   0  0  0  0  0  0  0  0  0  0  0  0
   39.0790   23.1970   31.4220 N   0  0  0  0  0  0  0  0  0  0  0  0
   39.1730   22.4030   30.3570 C   0  0  0  0  0  3  0  0  0  0  0  0
   38.2870   21.4190   30.1330 N   0  0  0  0  0  0  0  0  0  0  0  0
   37.2780   21.2340   31.0110 C   0  0  0  0  0  0  0  0  0  0  0  0
   36.3780   20.2210   30.7670 C   0  0  0  0  0  3  0  0  0  0  0  0
   35.3360   20.0030   31.6410 C   0  0  0  0  0  3  0  0  0  0  0  0
   35.2540   20.8450   32.7530 C   0  0  0  0  0  3  0  0  0  0  0  0
   36.1830   21.8340   32.9340 C   0  0  0  0  0  3  0  0  0  0  0  0
   37.2180   22.0720   32.0920 C   0  0  0  0  0  0  0  0  0  0  0  0
  1  2  2  0  0  0  0
  1  6  1  0  0  0  0
  2  3  1  0  0  0  0
  3 17  1  0  0  0  0
  3  4  2  0  0  0  0
  5  4  1  0  0  0  0
  5  7  1  0  0  0  0
  6  5  2  0  0  0  0
  7 15  1  0  0  0  0
  7  8  2  0  0  0  0
  8  9  1  0  0  0  0
  9 16  1  0  0  0  0
 10  9  1  0  0  0  0
 10 11  1  0  0  0  0
 12 11  2  0  0  0  0
 13 12  1  0  0  0  0
 14 15  1  0  0  0  0
 14 13  2  0  0  0  0
 15 10  2  0  0  0  0
 17 18  1  0  0  0  0
 18 19  2  0  0  0  0
 20 19  1  0  0  0  0
 21 20  2  0  0  0  0
 22 21  1  0  0  0  0
 22 17  2  0  0  0  0
 23 21  1  0  0  0  0
 24 23  2  0  0  0  0
 25 24  1  0  0  0  0
 26 25  2  0  0  0  0
 26 27  1  0  0  0  0
 27 32  1  0  0  0  0
 28 27  2  0  0  0  0
 28 29  1  0  0  0  0
 29 30  2  0  0  0  0
 30 31  1  0  0  0  0
 32 23  1  0  0  0  0
 32 31  2  0  0  0  0
M  END
>  <minimizedAffinity>
-7.42292309

$$$$

 OpenBabel03272514383D

 32 37  0  0  0  0  0  0  0  0999 V2000
   38.3310   24.8720   34.8750 C   0  0  0  0  0  3  0  0  0  0  0  0
   37.8800   26.0900   34.3580 C   0  0  0  0  0  3  0  0  0  0  0  0
   37.3070   26.0670   33.0650 C   0  0  0  0  0  0  0  0  0  0  0  0
   37.2200   24.9000   32.3940 N   0  0  0  0  0  0  0  0  0  0  0  0
   37.6700   23.7410   32.9360 C   0  0  0  0  0  0  0  0  0  0  0  0
   38.2190   23.7230   34.1600 N   0  0  0  0  0  0  0  0  0  0  0  0
   37.5270   22.5390   32.1280 C   0  0  0  0  0  0  0  0  0  0  0  0
   38.1490   22.3400   30.9090 C   0  0  0  0  0  3  0  0  0  0  0  0
   37.8260   21.1440   30.4110 N   0  0  0  0  0  0  0  0  0  0  0  0
   36.9890   20.5400   31.2950 C   0  0  0  0  0  0  0  0  0  0  0  0
   36.3540   19.2980   31.2790 C   0  0  0  0  0  3  0  0  0  0  0  0
   35.5400   18.9480   32.3400 C   0  0  0  0  0  3  0  0  0  0  0  0
   35.3730   19.8250   33.3870 C   0  0  0  0  0  3  0  0  0  0  0  0
   35.9940   21.0750   33.4330 C   0  0  0  0  0  3  0  0  0  0  0  0
   36.8000   21.3960   32.3560 C   0  0  0  0  0  0  0  0  0  0  0  0
   38.1530   20.7500   29.5170 H   0  0  0  0  0  0  0  0  0  0  0  0
   36.8170   27.3170   32.4800 C   0  0  0  0  0  0  0  0  0  0  0  0
   37.3960   27.7960   31.3390 C   0  0  0  0  0  3  0  0  0  0  0  0
   36.8620   28.9700   30.8690 C   0  0  0  0  0  3  0  0  0  0  0  0
   35.8470   29.6110   31.4720 N   0  0  0  0  0  0  0  0  0  0  0  0
   35.2880   29.1210   32.5980 C   0  0  0  0  0  0  0  0  0  0  0  0
   35.8100   27.9690   33.0640 N   0  0  0  0  0  0  0  0  0  0  0  0
   34.1930   29.6040   33.4570 C   0  0  0  0  0  0  0  0  0  0  0  0
   32.8810   29.3050   33.2340 N   0  0  0  0  0  0  0  0  0  0  0  0
   31.8800   29.7340   34.0010 C   0  0  0  0  0  3  0  0  0  0  0  0
   32.1000   30.5110   35.0740 N   0  0  0  0  0  0  0  0  0  0  0  0
   33.3670   30.8630   35.3790 C   0  0  0  0  0  0  0  0  0  0  0  0
   33.5750   31.6600   36.4820 C   0  0  0  0  0  3  0  0  0  0  0  0
   34.8540   32.0400   36.8240 C   0  0  0  0  0  3  0  0  0  0  0  0
   35.8910   31.5800   36.0080 C   0  0  0  0  0  3  0  0  0  0  0  0
   35.6140   30.7900   34.9250 C   0  0  0  0  0  3  0  0  0  0  0  0
   34.3660   30.4010   34.5650 C   0  0  0  0  0  0  0  0  0  0  0  0
  2  1  1  0  0  0  0
  3  2  2  0  0  0  0
  4  5  2  0  0  0  0
  4  3  1  0  0  0  0
  5  6  1  0  0  0  0
  6  1  2  0  0  0  0
  7 15  1  0  0  0  0
  7  5  1  0  0  0  0
  8  7  2  0  0  0  0
  9  8  1  0  0  0  0
  9 10  1  0  0  0  0
 10 15  1  0  0  0  0
 11 10  2  0  0  0  0
 11 12  1  0  0  0  0
 12 13  2  0  0  0  0
 13 14  1  0  0  0  0
 15 14  2  0  0  0  0
 16  9  1  0  0  0  0
 17 22  1  0  0  0  0
 17  3  1  0  0  0  0
 18 17  2  0  0  0  0
 19 18  1  0  0  0  0
 19 20  2  0  0  0  0
 20 21  1  0  0  0  0
 21 22  2  0  0  0  0
 21 23  1  0  0  0  0
 23 32  1  0  0  0  0
 24 23  2  0  0  0  0
 24 25  1  0  0  0  0
 25 26  2  0  0  0  0
 26 27  1  0  0  0  0
 27 28  1  0  0  0  0
 28 29  2  0  0  0  0
 30 29  1  0  0  0  0
 31 30  2  0  0  0  0
 32 31  1  0  0  0  0
 32 27  2  0  0  0  0
M  END
>  <minimizedAffinity>
-7.36522293

$$$$

 OpenBabel03272514383D

 32 37  0  0  0  0  0  0  0  0999 V2000
   36.5850   29.9000   31.3700 C   0  0  0  0  0  3  0  0  0  0  0  0
   36.8920   28.5370   31.4060 C   0  0  0  0  0  3  0  0  0  0  0  0
   36.6640   27.8580   32.6250 C   0  0  0  0  0  0  0  0  0  0  0  0
   36.1710   28.5340   33.6830 N   0  0  0  0  0  0  0  0  0  0  0  0
   35.8860   29.8580   33.6030 C   0  0  0  0  0  0  0  0  0  0  0  0
   36.0890   30.5360   32.4630 N   0  0  0  0  0  0  0  0  0  0  0  0
   35.3570   30.4910   34.8020 C   0  0  0  0  0  0  0  0  0  0  0  0
   36.1080   31.2560   35.6750 C   0  0  0  0  0  3  0  0  0  0  0  0
   35.3460   31.7000   36.6780 N   0  0  0  0  0  0  0  0  0  0  0  0
   34.0860   31.2350   36.4770 C   0  0  0  0  0  0  0  0  0  0  0  0
   32.9070   31.3900   37.2070 C   0  0  0  0  0  3  0  0  0  0  0  0
   31.7510   30.7850   36.7500 C   0  0  0  0  0  3  0  0  0  0  0  0
   31.7840   30.0460   35.5900 C   0  0  0  0  0  3  0  0  0  0  0  0
   32.9470   29.8700   34.8380 C   0  0  0  0  0  3  0  0  0  0  0  0
   34.0850   30.4870   35.3220 C   0  0  0  0  0  0  0  0  0  0  0  0
   35.6580   32.2900   37.4620 H   0  0  0  0  0  0  0  0  0  0  0  0
   36.9670   26.4280   32.7130 C   0  0  0  0  0  0  0  0  0  0  0  0
   36.8340   25.6440   31.6030 C   0  0  0  0  0  3  0  0  0  0  0  0
   37.1470   24.3200   31.7890 C   0  0  0  0  0  3  0  0  0  0  0  0
   37.5540   23.8190   32.9670 N   0  0  0  0  0  0  0  0  0  0  0  0
   37.6790   24.6100   34.0520 C   0  0  0  0  0  0  0  0  0  0  0  0
   37.3730   25.9110   33.8740 N   0  0  0  0  0  0  0  0  0  0  0  0
   38.0890   24.3370   35.4410 C   0  0  0  0  0  0  0  0  0  0  0  0
   37.4530   24.8670   36.5250 N   0  0  0  0  0  0  0  0  0  0  0  0
   37.8120   24.6300   37.7860 C   0  0  0  0  0  3  0  0  0  0  0  0
   38.8510   23.8350   38.0840 N   0  0  0  0  0  0  0  0  0  0  0  0
   39.5480   23.2630   37.0780 C   0  0  0  0  0  0  0  0  0  0  0  0
   40.6110   22.4500   37.4000 C   0  0  0  0  0  3  0  0  0  0  0  0
   41.3440   21.8500   36.4010 C   0  0  0  0  0  3  0  0  0  0  0  0
   40.9530   22.1090   35.0840 C   0  0  0  0  0  3  0  0  0  0  0  0
   39.8850   22.9280   34.8340 C   0  0  0  0  0  3  0  0  0  0  0  0
   39.1460   23.5320   35.7980 C   0  0  0  0  0  0  0  0  0  0  0  0
  1  2  2  0  0  0  0
  1  6  1  0  0  0  0
  2  3  1  0  0  0  0
  3 17  1  0  0  0  0
  3  4  2  0  0  0  0
  5  4  1  0  0  0  0
  5  7  1  0  0  0  0
  6  5  2  0  0  0  0
  7 15  1  0  0  0  0
  7  8  2  0  0  0  0
  8  9  1  0  0  0  0
  9 16  1  0  0  0  0
 10  9  1  0  0  0  0
 10 11  1  0  0  0  0
 12 11  2  0  0  0  0
 13 12  1  0  0  0  0
 14 15  1  0  0  0  0
 14 13  2  0  0  0  0
 15 10  2  0  0  0  0
 17 22  1  0  0  0  0
 18 19  1  0  0  0  0
 18 17  2  0  0  0  0
 19 20  2  0  0  0  0
 20 21  1  0  0  0  0
 21 23  1  0  0  0  0
 22 21  2  0  0  0  0
 23 32  2  0  0  0  0
 23 24  1  0  0  0  0
 24 25  2  0  0  0  0
 25 26  1  0  0  0  0
 27 28  1  0  0  0  0
 27 26  2  0  0  0  0
 29 28  2  0  0  0  0
 30 29  1  0  0  0  0
 31 30  2  0  0  0  0
 31 32  1  0  0  0  0
 32 27  1  0  0  0  0
M  END
>  <minimizedAffinity>
-7.25606966

$$$$

 OpenBabel03272514383D

 32 37  0  0  0  0  0  0  0  0999 V2000
   38.6500   24.8200   34.1230 C   0  0  0  0  0  3  0  0  0  0  0  0
   38.2000   26.0700   33.6890 C   0  0  0  0  0  3  0  0  0  0  0  0
   37.2150   26.0820   32.6740 C   0  0  0  0  0  0  0  0  0  0  0  0
   36.7580   24.9160   32.1740 N   0  0  0  0  0  0  0  0  0  0  0  0
   37.2230   23.7240   32.6260 C   0  0  0  0  0  0  0  0  0  0  0  0
   38.1580   23.6730   33.5880 N   0  0  0  0  0  0  0  0  0  0  0  0
   36.6630   22.5260   32.0200 C   0  0  0  0  0  0  0  0  0  0  0  0
   35.3820   22.0600   32.2540 C   0  0  0  0  0  3  0  0  0  0  0  0
   35.1580   20.9440   31.5570 N   0  0  0  0  0  0  0  0  0  0  0  0
   36.2870   20.6600   30.8560 C   0  0  0  0  0  0  0  0  0  0  0  0
   36.6050   19.6230   29.9790 C   0  0  0  0  0  3  0  0  0  0  0  0
   37.8620   19.5930   29.4040 C   0  0  0  0  0  3  0  0  0  0  0  0
   38.7710   20.5810   29.7050 C   0  0  0  0  0  3  0  0  0  0  0  0
   38.4840   21.6310   30.5790 C   0  0  0  0  0  3  0  0  0  0  0  0
   37.2200   21.6320   31.1380 C   0  0  0  0  0  0  0  0  0  0  0  0
   34.2860   20.3950   31.5520 H   0  0  0  0  0  0  0  0  0  0  0  0
   36.7080   27.3670   32.1860 C   0  0  0  0  0  0  0  0  0  0  0  0
   37.2440   27.9140   31.0560 C   0  0  0  0  0  3  0  0  0  0  0  0
   36.6980   29.1160   30.6800 C   0  0  0  0  0  3  0  0  0  0  0  0
   35.7100   29.7200   31.3610 N   0  0  0  0  0  0  0  0  0  0  0  0
   35.1930   29.1630   32.4750 C   0  0  0  0  0  0  0  0  0  0  0  0
   35.7270   27.9830   32.8480 N   0  0  0  0  0  0  0  0  0  0  0  0
   34.1340   29.5940   33.4040 C   0  0  0  0  0  0  0  0  0  0  0  0
   32.8200   29.2630   33.2440 N   0  0  0  0  0  0  0  0  0  0  0  0
   31.8510   29.6460   34.0750 C   0  0  0  0  0  3  0  0  0  0  0  0
   32.1080   30.4020   35.1540 N   0  0  0  0  0  0  0  0  0  0  0  0
   33.3800   30.7820   35.4000 C   0  0  0  0  0  0  0  0  0  0  0  0
   33.6270   31.5570   36.5110 C   0  0  0  0  0  3  0  0  0  0  0  0
   34.9120   31.9630   36.7930 C   0  0  0  0  0  3  0  0  0  0  0  0
   35.9150   31.5520   35.9110 C   0  0  0  0  0  3  0  0  0  0  0  0
   35.6000   30.7830   34.8240 C   0  0  0  0  0  3  0  0  0  0  0  0
   34.3450   30.3670   34.5220 C   0  0  0  0  0  0  0  0  0  0  0  0
  2  1  1  0  0  0  0
  3  2  2  0  0  0  0
  4  5  2  0  0  0  0
  4  3  1  0  0  0  0
  5  6  1  0  0  0  0
  6  1  2  0  0  0  0
  7  8  2  0  0  0  0
  7  5  1  0  0  0  0
  9  8  1  0  0  0  0
 10 15  1  0  0  0  0
 10  9  1  0  0  0  0
 11 10  2  0  0  0  0
 12 13  2  0  0  0  0
 12 11  1  0  0  0  0
 13 14  1  0  0  0  0
 14 15  2  0  0  0  0
 15  7  1  0  0  0  0
 16  9  1  0  0  0  0
 17  3  1  0  0  0  0
 17 22  1  0  0  0  0
 18 17  2  0  0  0  0
 19 18  1  0  0  0  0
 19 20  2  0  0  0  0
 20 21  1  0  0  0  0
 21 22  2  0  0  0  0
 21 23  1  0  0  0  0
 23 32  1  0  0  0  0
 24 23  2  0  0  0  0
 24 25  1  0  0  0  0
 25 26  2  0  0  0  0
 26 27  1  0  0  0  0
 27 28  1  0  0  0  0
 28 29  2  0  0  0  0
 30 29  1  0  0  0  0
 31 30  2  0  0  0  0
 32 31  1  0  0  0  0
 32 27  2  0  0  0  0
M  END
>  <minimizedAffinity>
-7.14426613

$$$$

 OpenBabel03272514383D

 32 37  0  0  0  0  0  0  0  0999 V2000
   37.4240   24.7550   32.7800 C   0  0  0  0  0  3  0  0  0  0  0  0
   36.6800   25.9020   32.4920 C   0  0  0  0  0  3  0  0  0  0  0  0
   37.3140   27.1490   32.7000 C   0  0  0  0  0  0  0  0  0  0  0  0
   38.5820   27.1840   33.1580 N   0  0  0  0  0  0  0  0  0  0  0  0
   39.2680   26.0450   33.4240 C   0  0  0  0  0  0  0  0  0  0  0  0
   38.7000   24.8430   33.2390 N   0  0  0  0  0  0  0  0  0  0  0  0
   40.6300   26.1950   33.9130 C   0  0  0  0  0  0  0  0  0  0  0  0
   41.4330   27.2920   33.6600 C   0  0  0  0  0  3  0  0  0  0  0  0
   42.6260   27.1400   34.2400 N   0  0  0  0  0  0  0  0  0  0  0  0
   42.6240   25.9430   34.8830 C   0  0  0  0  0  0  0  0  0  0  0  0
   43.5960   25.2880   35.6400 C   0  0  0  0  0  3  0  0  0  0  0  0
   43.3030   24.0510   36.1810 C   0  0  0  0  0  3  0  0  0  0  0  0
   42.0650   23.4900   35.9660 C   0  0  0  0  0  3  0  0  0  0  0  0
   41.0710   24.1180   35.2130 C   0  0  0  0  0  3  0  0  0  0  0  0
   41.3950   25.3540   34.6850 C   0  0  0  0  0  0  0  0  0  0  0  0
   43.4070   27.8090   34.2060 H   0  0  0  0  0  0  0  0  0  0  0  0
   36.5770   28.3820   32.4110 C   0  0  0  0  0  0  0  0  0  0  0  0
   36.3310   28.7270   31.1140 C   0  0  0  0  0  3  0  0  0  0  0  0
   35.6300   29.8960   30.9490 C   0  0  0  0  0  3  0  0  0  0  0  0
   35.2110   30.6540   31.9770 N   0  0  0  0  0  0  0  0  0  0  0  0
   35.4650   30.2950   33.2520 C   0  0  0  0  0  0  0  0  0  0  0  0
   36.1520   29.1470   33.4180 N   0  0  0  0  0  0  0  0  0  0  0  0
   35.1400   30.9210   34.5460 C   0  0  0  0  0  0  0  0  0  0  0  0
   35.9470   31.8340   35.1570 N   0  0  0  0  0  0  0  0  0  0  0  0
   35.6670   32.4070   36.3270 C   0  0  0  0  0  3  0  0  0  0  0  0
   34.5430   32.1190   37.0010 N   0  0  0  0  0  0  0  0  0  0  0  0
   33.6770   31.2250   36.4770 C   0  0  0  0  0  0  0  0  0  0  0  0
   32.5280   30.9400   37.1810 C   0  0  0  0  0  3  0  0  0  0  0  0
   31.6230   30.0320   36.6780 C   0  0  0  0  0  3  0  0  0  0  0  0
   31.9320   29.4410   35.4500 C   0  0  0  0  0  3  0  0  0  0  0  0
   33.0930   29.7690   34.8030 C   0  0  0  0  0  3  0  0  0  0  0  0
   34.0020   30.6590   35.2740 C   0  0  0  0  0  0  0  0  0  0  0  0
  1  6  1  0  0  0  0
  2  3  1  0  0  0  0
  2  1  2  0  0  0  0
  3  4  2  0  0  0  0
  4  5  1  0  0  0  0
  5  7  1  0  0  0  0
  6  5  2  0  0  0  0
  7 15  1  0  0  0  0
  8  7  2  0  0  0  0
  8  9  1  0  0  0  0
  9 10  1  0  0  0  0
 10 11  1  0  0  0  0
 11 12  2  0  0  0  0
 13 12  1  0  0  0  0
 14 13  2  0  0  0  0
 15 10  2  0  0  0  0
 15 14  1  0  0  0  0
 16  9  1  0  0  0  0
 17  3  1  0  0  0  0
 17 22  1  0  0  0  0
 18 17  2  0  0  0  0
 19 18  1  0  0  0  0
 19 20  2  0  0  0  0
 20 21  1  0  0  0  0
 21 22  2  0  0  0  0
 21 23  1  0  0  0  0
 23 24  2  0  0  0  0
 23 32  1  0  0  0  0
 24 25  1  0  0  0  0
 25 26  2  0  0  0  0
 27 26  1  0  0  0  0
 27 28  1  0  0  0  0
 29 28  2  0  0  0  0
 30 29  1  0  0  0  0
 31 32  1  0  0  0  0
 31 30  2  0  0  0  0
 32 27  2  0  0  0  0
M  END
>  <minimizedAffinity>
-7.13651991

$$$$

 OpenBabel03272514383D

 32 37  0  0  0  0  0  0  0  0999 V2000
   38.3130   25.0180   35.1320 C   0  0  0  0  0  3  0  0  0  0  0  0
   37.7750   26.2340   34.7030 C   0  0  0  0  0  3  0  0  0  0  0  0
   37.1620   26.2530   33.4290 C   0  0  0  0  0  0  0  0  0  0  0  0
   37.1200   25.1240   32.6920 N   0  0  0  0  0  0  0  0  0  0  0  0
   37.6540   23.9630   33.1490 C   0  0  0  0  0  0  0  0  0  0  0  0
   38.2440   23.9070   34.3530 N   0  0  0  0  0  0  0  0  0  0  0  0
   37.5540   22.8040   32.2760 C   0  0  0  0  0  0  0  0  0  0  0  0
   38.1950   22.6880   31.0560 C   0  0  0  0  0  3  0  0  0  0  0  0
   37.9110   21.5130   30.4900 N   0  0  0  0  0  0  0  0  0  0  0  0
   37.0800   20.8400   31.3280 C   0  0  0  0  0  0  0  0  0  0  0  0
   36.4800   19.5840   31.2370 C   0  0  0  0  0  3  0  0  0  0  0  0
   35.6640   19.1550   32.2670 C   0  0  0  0  0  3  0  0  0  0  0  0
   35.4610   19.9690   33.3580 C   0  0  0  0  0  3  0  0  0  0  0  0
   36.0460   21.2300   33.4790 C   0  0  0  0  0  3  0  0  0  0  0  0
   36.8560   21.6310   32.4320 C   0  0  0  0  0  0  0  0  0  0  0  0
   38.2580   21.1780   29.5800 H   0  0  0  0  0  0  0  0  0  0  0  0
   36.5820   27.5030   32.9340 C   0  0  0  0  0  0  0  0  0  0  0  0
   36.5490   27.7420   31.5900 C   0  0  0  0  0  3  0  0  0  0  0  0
   35.9820   28.9390   31.2290 C   0  0  0  0  0  3  0  0  0  0  0  0
   35.4900   29.8180   32.1180 N   0  0  0  0  0  0  0  0  0  0  0  0
   35.5310   29.5630   33.4420 C   0  0  0  0  0  0  0  0  0  0  0  0
   36.0880   28.3890   33.8010 N   0  0  0  0  0  0  0  0  0  0  0  0
   35.0830   30.3300   34.6170 C   0  0  0  0  0  0  0  0  0  0  0  0
   35.9040   31.1580   35.3250 N   0  0  0  0  0  0  0  0  0  0  0  0
   35.5140   31.8570   36.3910 C   0  0  0  0  0  3  0  0  0  0  0  0
   34.2550   31.7930   36.8520 N   0  0  0  0  0  0  0  0  0  0  0  0
   33.3660   30.9980   36.2190 C   0  0  0  0  0  0  0  0  0  0  0  0
   32.0780   30.9430   36.7050 C   0  0  0  0  0  3  0  0  0  0  0  0
   31.1440   30.1430   36.0850 C   0  0  0  0  0  3  0  0  0  0  0  0
   31.5710   29.4180   34.9690 C   0  0  0  0  0  3  0  0  0  0  0  0
   32.8660   29.5190   34.5390 C   0  0  0  0  0  3  0  0  0  0  0  0
   33.8070   30.2970   35.1290 C   0  0  0  0  0  0  0  0  0  0  0  0
  2  1  1  0  0  0  0
  3  2  2  0  0  0  0
  4  5  2  0  0  0  0
  4  3  1  0  0  0  0
  5  6  1  0  0  0  0
  6  1  2  0  0  0  0
  7 15  1  0  0  0  0
  7  5  1  0  0  0  0
  8  7  2  0  0  0  0
  9  8  1  0  0  0  0
  9 10  1  0  0  0  0
 10 15  1  0  0  0  0
 11 10  2  0  0  0  0
 11 12  1  0  0  0  0
 12 13  2  0  0  0  0
 13 14  1  0  0  0  0
 15 14  2  0  0  0  0
 16  9  1  0  0  0  0
 17  3  1  0  0  0  0
 17 22  1  0  0  0  0
 18 17  2  0  0  0  0
 19 18  1  0  0  0  0
 19 20  2  0  0  0  0
 20 21  1  0  0  0  0
 21 22  2  0  0  0  0
 21 23  1  0  0  0  0
 23 32  2  0  0  0  0
 23 24  1  0  0  0  0
 24 25  2  0  0  0  0
 25 26  1  0  0  0  0
 27 28  1  0  0  0  0
 27 26  2  0  0  0  0
 29 28  2  0  0  0  0
 30 29  1  0  0  0  0
 31 30  2  0  0  0  0
 31 32  1  0  0  0  0
 32 27  1  0  0  0  0
M  END
>  <minimizedAffinity>
-7.13208723

$$$$

 OpenBabel03272514383D

 32 37  0  0  0  0  0  0  0  0999 V2000
   39.0260   25.9060   35.7280 C   0  0  0  0  0  3  0  0  0  0  0  0
   38.3570   26.9500   35.0840 C   0  0  0  0  0  3  0  0  0  0  0  0
   37.7520   26.6550   33.8400 C   0  0  0  0  0  0  0  0  0  0  0  0
   37.8400   25.4080   33.3340 N   0  0  0  0  0  0  0  0  0  0  0  0
   38.4990   24.4240   33.9960 C   0  0  0  0  0  0  0  0  0  0  0  0
   39.0860   24.6660   35.1780 N   0  0  0  0  0  0  0  0  0  0  0  0
   38.5340   23.1140   33.3630 C   0  0  0  0  0  0  0  0  0  0  0  0
   39.5920   22.2290   33.4590 C   0  0  0  0  0  3  0  0  0  0  0  0
   39.3310   21.1140   32.7730 N   0  0  0  0  0  0  0  0  0  0  0  0
   38.0980   21.2500   32.2170 C   0  0  0  0  0  0  0  0  0  0  0  0
   37.3400   20.4000   31.4110 C   0  0  0  0  0  3  0  0  0  0  0  0
   36.0930   20.8170   30.9860 C   0  0  0  0  0  3  0  0  0  0  0  0
   35.6230   22.0540   31.3640 C   0  0  0  0  0  3  0  0  0  0  0  0
   36.3570   22.9270   32.1690 C   0  0  0  0  0  3  0  0  0  0  0  0
   37.6010   22.4820   32.5770 C   0  0  0  0  0  0  0  0  0  0  0  0
   39.9520   20.2980   32.6810 H   0  0  0  0  0  0  0  0  0  0  0  0
   37.0370   27.7150   33.1250 C   0  0  0  0  0  0  0  0  0  0  0  0
   37.4480   28.0750   31.8740 C   0  0  0  0  0  3  0  0  0  0  0  0
   36.7100   29.0730   31.2880 C   0  0  0  0  0  3  0  0  0  0  0  0
   35.6600   29.6600   31.8860 N   0  0  0  0  0  0  0  0  0  0  0  0
   35.2690   29.2900   33.1220 C   0  0  0  0  0  0  0  0  0  0  0  0
   35.9910   28.3100   33.7020 N   0  0  0  0  0  0  0  0  0  0  0  0
   34.1830   29.7530   34.0040 C   0  0  0  0  0  0  0  0  0  0  0  0
   32.9000   29.3020   33.9090 N   0  0  0  0  0  0  0  0  0  0  0  0
   31.9070   29.7120   34.6980 C   0  0  0  0  0  3  0  0  0  0  0  0
   32.1080   30.6200   35.6660 N   0  0  0  0  0  0  0  0  0  0  0  0
   33.3470   31.1290   35.8400 C   0  0  0  0  0  0  0  0  0  0  0  0
   33.5360   32.0600   36.8370 C   0  0  0  0  0  3  0  0  0  0  0  0
   34.7860   32.6000   37.0430 C   0  0  0  0  0  3  0  0  0  0  0  0
   35.8140   32.1580   36.2070 C   0  0  0  0  0  3  0  0  0  0  0  0
   35.5570   31.2300   35.2340 C   0  0  0  0  0  3  0  0  0  0  0  0
   34.3380   30.6810   35.0080 C   0  0  0  0  0  0  0  0  0  0  0  0
  2  1  2  0  0  0  0
  3  2  1  0  0  0  0
  4  3  2  0  0  0  0
  4  5  1  0  0  0  0
  5  6  2  0  0  0  0
  6  1  1  0  0  0  0
  7  8  2  0  0  0  0
  7  5  1  0  0  0  0
  9  8  1  0  0  0  0
 10 15  1  0  0  0  0
 10  9  1  0  0  0  0
 11 10  2  0  0  0  0
 12 13  2  0  0  0  0
 12 11  1  0  0  0  0
 13 14  1  0  0  0  0
 14 15  2  0  0  0  0
 15  7  1  0  0  0  0
 16  9  1  0  0  0  0
 17 22  1  0  0  0  0
 17  3  1  0  0  0  0
 18 17  2  0  0  0  0
 19 18  1  0  0  0  0
 19 20  2  0  0  0  0
 20 21  1  0  0  0  0
 21 22  2  0  0  0  0
 21 23  1  0  0  0  0
 23 32  1  0  0  0  0
 24 23  2  0  0  0  0
 24 25  1  0  0  0  0
 25 26  2  0  0  0  0
 26 27  1  0  0  0  0
 27 28  1  0  0  0  0
 28 29  2  0  0  0  0
 30 29  1  0  0  0  0
 31 30  2  0  0  0  0
 32 31  1  0  0  0  0
 32 27  2  0  0  0  0
M  END
>  <minimizedAffinity>
-7.09320545

$$$$
