MODEL 1
REMARK minimizedAffinity -2.61461258REMARK  Name = 7
REMARK  0 active torsions:
REMARK  status: ('A' for Active; 'I' for Inactive)
REMARK                            x       y       z     vdW  Elec       q    Type
REMARK                         _______ _______ _______ _____ _____    ______ ____
ROOT
ATOM      1  C   UNL     1      44.638  35.995  44.382  0.00  0.00    +0.000 A 
ATOM      2  C   UNL     1      45.432  35.643  43.270  0.00  0.00    +0.000 A 
ATOM      3  C   UNL     1      46.224  34.489  43.371  0.00  0.00    +0.000 A 
ATOM      4  N   UNL     1      46.184  33.780  44.537  0.00  0.00    +0.000 NA
ATOM      5  C   UNL     1      45.408  34.148  45.582  0.00  0.00    +0.000 A 
ATOM      6  N   UNL     1      44.638  35.249  45.500  0.00  0.00    +0.000 NA
ENDROOT
TORSDOF 0
ENDMDL
