./init_pose/1_1.pdbqt
 OpenBabel03242510033D

  6  6  0  0  0  0  0  0  0  0999 V2000
   46.2210   34.4500   43.4010 C   0  0  0  0  0  0  0  0  0  0  0  0
   45.4360   35.6140   43.2500 C   0  0  0  0  0  0  0  0  0  0  0  0
   44.6280   36.0020   44.3290 C   0  0  0  0  0  0  0  0  0  0  0  0
   44.6450   35.2330   45.4570 N   0  0  0  0  0  0  0  0  0  0  0  0
   45.4120   34.1250   45.5660 C   0  0  0  0  0  0  0  0  0  0  0  0
   46.1970   33.7400   44.5420 N   0  0  0  0  0  0  0  0  0  0  0  0
  1  6  1  0  0  0  0
  2  1  2  0  0  0  0
  2  3  1  0  0  0  0
  3  4  2  0  0  0  0
  4  5  1  0  0  0  0
  6  5  2  0  0  0  0
M  END
>  <MODEL>
2

>  <REMARK>
 minimizedAffinity -2.59704185REMARK  Name = 7
  0 active torsions:
  status: ('A' for Active; 'I' for Inactive)
                            x       y       z     vdW  Elec       q    Type
                         _______ _______ _______ _____ _____    ______ ____

>  <TORSDO>
F 0

$$$$
