MODEL 4
REMARK minimizedAffinity -2.57023096REMARK  Name = 7
REMARK  0 active torsions:
REMARK  status: ('A' for Active; 'I' for Inactive)
REMARK                            x       y       z     vdW  Elec       q    Type
REMARK                         _______ _______ _______ _____ _____    ______ ____
ROOT
ATOM      1  C   UNL     1      45.433  34.094  45.629  0.00  0.00    +0.000 A 
ATOM      2  C   UNL     1      46.256  33.716  44.546  0.00  0.00    +0.000 A 
ATOM      3  C   UNL     1      46.233  34.520  43.397  0.00  0.00    +0.000 A 
ATOM      4  N   UNL     1      45.418  35.615  43.391  0.00  0.00    +0.000 NA
ATOM      5  C   UNL     1      44.644  35.946  44.449  0.00  0.00    +0.000 A 
ATOM      6  N   UNL     1      44.656  35.189  45.562  0.00  0.00    +0.000 NA
ENDROOT
TORSDOF 0
ENDMDL
