./init_pose/1_3.pdbqt
     RDKit          3D

 10 10  0  0  0  0  0  0  0  0999 V2000
   45.4330   34.0940   45.6290 C   0  0  0  0  0  0  0  0  0  0  0  0
   46.2560   33.7160   44.5460 C   0  0  0  0  0  0  0  0  0  0  0  0
   46.2330   34.5200   43.3970 C   0  0  0  0  0  0  0  0  0  0  0  0
   45.4180   35.6150   43.3910 N   0  0  0  0  0  0  0  0  0  0  0  0
   44.6440   35.9460   44.4490 C   0  0  0  0  0  0  0  0  0  0  0  0
   44.6560   35.1890   45.5620 N   0  0  0  0  0  0  0  0  0  0  0  0
   45.4274   33.4822   46.5431 H   0  0  0  0  0  0  0  0  0  0  0  0
   46.8936   32.8213   44.6014 H   0  0  0  0  0  0  0  0  0  0  0  0
   46.8553   34.2746   42.5238 H   0  0  0  0  0  0  0  0  0  0  0  0
   44.0017   36.8377   44.4000 H   0  0  0  0  0  0  0  0  0  0  0  0
  2  1  2  0
  3  2  1  0
  4  3  2  0
  4  5  1  0
  5  6  2  0
  6  1  1  0
  1  7  1  0
  2  8  1  0
  3  9  1  0
  5 10  1  0
M  END
>  <MODEL>  (1) 
4

>  <REMARK>  (1) 
 minimizedAffinity -2.57023096REMARK  Name = 7
  0 active torsions:
  status: ('A' for Active; 'I' for Inactive)
                            x       y       z     vdW  Elec       q    Type
                         _______ _______ _______ _____ _____    ______ ____

>  <TORSDO>  (1) 
F 0

$$$$
