./init_pose/1_4.pdbqt
     RDKit          3D

 10 10  0  0  0  0  0  0  0  0999 V2000
   48.6160   33.5620   40.6950 C   0  0  0  0  0  0  0  0  0  0  0  0
   48.3340   34.9450   40.6860 C   0  0  0  0  0  0  0  0  0  0  0  0
   49.0070   35.7560   41.6120 C   0  0  0  0  0  0  0  0  0  0  0  0
   49.8890   35.1610   42.4680 N   0  0  0  0  0  0  0  0  0  0  0  0
   50.1350   33.8310   42.4460 C   0  0  0  0  0  0  0  0  0  0  0  0
   49.5010   33.0390   41.5600 N   0  0  0  0  0  0  0  0  0  0  0  0
   48.1023   32.9010   39.9815 H   0  0  0  0  0  0  0  0  0  0  0  0
   47.6105   35.3728   39.9764 H   0  0  0  0  0  0  0  0  0  0  0  0
   48.8292   36.8409   41.6475 H   0  0  0  0  0  0  0  0  0  0  0  0
   50.8551   33.3949   43.1540 H   0  0  0  0  0  0  0  0  0  0  0  0
  1  6  2  0
  2  1  1  0
  2  3  2  0
  3  4  1  0
  5  4  2  0
  6  5  1  0
  1  7  1  0
  2  8  1  0
  3  9  1  0
  5 10  1  0
M  END
>  <MODEL>  (1) 
5

>  <REMARK>  (1) 
 minimizedAffinity -2.46987939REMARK  Name = 7
  0 active torsions:
  status: ('A' for Active; 'I' for Inactive)
                            x       y       z     vdW  Elec       q    Type
                         _______ _______ _______ _____ _____    ______ ____

>  <TORSDO>  (1) 
F 0

$$$$
