./init_pose/1_5.pdbqt
     RDKit          3D

 10 10  0  0  0  0  0  0  0  0999 V2000
   49.8040   35.0760   42.4650 C   0  0  0  0  0  0  0  0  0  0  0  0
   48.9070   35.6740   41.5540 C   0  0  0  0  0  0  0  0  0  0  0  0
   48.3000   34.8480   40.5950 C   0  0  0  0  0  0  0  0  0  0  0  0
   48.6150   33.5190   40.5980 N   0  0  0  0  0  0  0  0  0  0  0  0
   49.4790   32.9820   41.4890 C   0  0  0  0  0  0  0  0  0  0  0  0
   50.0660   33.7590   42.4180 N   0  0  0  0  0  0  0  0  0  0  0  0
   50.2969   35.6986   43.2262 H   0  0  0  0  0  0  0  0  0  0  0  0
   48.6907   36.7518   41.5942 H   0  0  0  0  0  0  0  0  0  0  0  0
   47.5907   35.2594   39.8618 H   0  0  0  0  0  0  0  0  0  0  0  0
   49.7030   31.9056   41.4543 H   0  0  0  0  0  0  0  0  0  0  0  0
  2  1  2  0
  3  4  2  0
  3  2  1  0
  4  5  1  0
  5  6  2  0
  6  1  1  0
  1  7  1  0
  2  8  1  0
  3  9  1  0
  5 10  1  0
M  END
>  <MODEL>  (1) 
6

>  <REMARK>  (1) 
 minimizedAffinity -2.46952271REMARK  Name = 7
  0 active torsions:
  status: ('A' for Active; 'I' for Inactive)
                            x       y       z     vdW  Elec       q    Type
                         _______ _______ _______ _____ _____    ______ ____

>  <TORSDO>  (1) 
F 0

$$$$
