./init_pose/1_6.pdbqt
 OpenBabel03242510033D

  6  6  0  0  0  0  0  0  0  0999 V2000
   48.3280   34.8840   40.5860 C   0  0  0  0  0  0  0  0  0  0  0  0
   48.9410   35.6870   41.5720 C   0  0  0  0  0  0  0  0  0  0  0  0
   49.8030   35.0580   42.4840 C   0  0  0  0  0  0  0  0  0  0  0  0
   49.9950   33.7120   42.3670 N   0  0  0  0  0  0  0  0  0  0  0  0
   49.3910   32.9750   41.4070 C   0  0  0  0  0  0  0  0  0  0  0  0
   48.5640   33.5620   40.5210 N   0  0  0  0  0  0  0  0  0  0  0  0
  1  2  1  0  0  0  0
  2  3  2  0  0  0  0
  4  3  1  0  0  0  0
  5  4  2  0  0  0  0
  6  1  2  0  0  0  0
  6  5  1  0  0  0  0
M  END
>  <MODEL>
7

>  <REMARK>
 minimizedAffinity -2.45917606REMARK  Name = 7
  0 active torsions:
  status: ('A' for Active; 'I' for Inactive)
                            x       y       z     vdW  Elec       q    Type
                         _______ _______ _______ _____ _____    ______ ____

>  <TORSDO>
F 0

$$$$
