MODEL 7
REMARK minimizedAffinity -2.45917606REMARK  Name = 7
REMARK  0 active torsions:
REMARK  status: ('A' for Active; 'I' for Inactive)
REMARK                            x       y       z     vdW  Elec       q    Type
REMARK                         _______ _______ _______ _____ _____    ______ ____
ROOT
ATOM      1  C   UNL     1      48.328  34.884  40.586  0.00  0.00    +0.000 A 
ATOM      2  C   UNL     1      48.941  35.687  41.572  0.00  0.00    +0.000 A 
ATOM      3  C   UNL     1      49.803  35.058  42.484  0.00  0.00    +0.000 A 
ATOM      4  N   UNL     1      49.995  33.712  42.367  0.00  0.00    +0.000 NA
ATOM      5  C   UNL     1      49.391  32.975  41.407  0.00  0.00    +0.000 A 
ATOM      6  N   UNL     1      48.564  33.562  40.521  0.00  0.00    +0.000 NA
ENDROOT
TORSDOF 0
ENDMDL
