./init_pose/1_6.pdbqt
     RDKit          3D

 10 10  0  0  0  0  0  0  0  0999 V2000
   48.3280   34.8840   40.5860 C   0  0  0  0  0  0  0  0  0  0  0  0
   48.9410   35.6870   41.5720 C   0  0  0  0  0  0  0  0  0  0  0  0
   49.8030   35.0580   42.4840 C   0  0  0  0  0  0  0  0  0  0  0  0
   49.9950   33.7120   42.3670 N   0  0  0  0  0  0  0  0  0  0  0  0
   49.3910   32.9750   41.4070 C   0  0  0  0  0  0  0  0  0  0  0  0
   48.5640   33.5620   40.5210 N   0  0  0  0  0  0  0  0  0  0  0  0
   47.6456   35.3478   39.8585 H   0  0  0  0  0  0  0  0  0  0  0  0
   48.7497   36.7690   41.6239 H   0  0  0  0  0  0  0  0  0  0  0  0
   50.3101   35.6345   43.2717 H   0  0  0  0  0  0  0  0  0  0  0  0
   49.5760   31.8922   41.3498 H   0  0  0  0  0  0  0  0  0  0  0  0
  1  2  2  0
  2  3  1  0
  4  3  2  0
  5  4  1  0
  6  1  1  0
  6  5  2  0
  1  7  1  0
  2  8  1  0
  3  9  1  0
  5 10  1  0
M  END
>  <MODEL>  (1) 
7

>  <REMARK>  (1) 
 minimizedAffinity -2.45917606REMARK  Name = 7
  0 active torsions:
  status: ('A' for Active; 'I' for Inactive)
                            x       y       z     vdW  Elec       q    Type
                         _______ _______ _______ _____ _____    ______ ____

>  <TORSDO>  (1) 
F 0

$$$$
