./init_pose/1_7.pdbqt
     RDKit          3D

 10 10  0  0  0  0  0  0  0  0999 V2000
   45.3400   34.4830   45.1570 C   0  0  0  0  0  0  0  0  0  0  0  0
   44.6870   35.6290   44.6540 C   0  0  0  0  0  0  0  0  0  0  0  0
   45.0630   36.0920   43.3840 C   0  0  0  0  0  0  0  0  0  0  0  0
   46.0370   35.4120   42.7120 N   0  0  0  0  0  0  0  0  0  0  0  0
   46.6400   34.3160   43.2260 C   0  0  0  0  0  0  0  0  0  0  0  0
   46.2890   33.8550   44.4410 N   0  0  0  0  0  0  0  0  0  0  0  0
   45.0680   34.0976   46.1507 H   0  0  0  0  0  0  0  0  0  0  0  0
   43.9091   36.1421   45.2384 H   0  0  0  0  0  0  0  0  0  0  0  0
   44.5857   36.9790   42.9419 H   0  0  0  0  0  0  0  0  0  0  0  0
   47.4207   33.7990   42.6487 H   0  0  0  0  0  0  0  0  0  0  0  0
  2  1  2  0
  3  2  1  0
  4  5  1  0
  4  3  2  0
  5  6  2  0
  6  1  1  0
  1  7  1  0
  2  8  1  0
  3  9  1  0
  5 10  1  0
M  END
>  <MODEL>  (1) 
8

>  <REMARK>  (1) 
 minimizedAffinity -2.4064827REMARK  Name = 7
  0 active torsions:
  status: ('A' for Active; 'I' for Inactive)
                            x       y       z     vdW  Elec       q    Type
                         _______ _______ _______ _____ _____    ______ ____

>  <TORSDO>  (1) 
F 0

$$$$
