./init_pose/1_7.pdbqt
 OpenBabel03242510033D

  6  6  0  0  0  0  0  0  0  0999 V2000
   45.3400   34.4830   45.1570 C   0  0  0  0  0  0  0  0  0  0  0  0
   44.6870   35.6290   44.6540 C   0  0  0  0  0  0  0  0  0  0  0  0
   45.0630   36.0920   43.3840 C   0  0  0  0  0  0  0  0  0  0  0  0
   46.0370   35.4120   42.7120 N   0  0  0  0  0  0  0  0  0  0  0  0
   46.6400   34.3160   43.2260 C   0  0  0  0  0  0  0  0  0  0  0  0
   46.2890   33.8550   44.4410 N   0  0  0  0  0  0  0  0  0  0  0  0
  2  1  1  0  0  0  0
  3  2  2  0  0  0  0
  4  5  2  0  0  0  0
  4  3  1  0  0  0  0
  5  6  1  0  0  0  0
  6  1  2  0  0  0  0
M  END
>  <MODEL>
8

>  <REMARK>
 minimizedAffinity -2.4064827REMARK  Name = 7
  0 active torsions:
  status: ('A' for Active; 'I' for Inactive)
                            x       y       z     vdW  Elec       q    Type
                         _______ _______ _______ _____ _____    ______ ____

>  <TORSDO>
F 0

$$$$
