REMARK  Name = 
REMARK  3 active torsions:
REMARK  status: ('A' for Active; 'I' for Inactive)
REMARK    1  A    between atoms: C_19  and  O_20
REMARK    2  A    between atoms: O_20  and  C_21
REMARK    3  A    between atoms: C_23  and  C_24
REMARK                            x       y       z     vdW  Elec       q    Type
REMARK                         _______ _______ _______ _____ _____    ______ ____
ROOT
ATOM      1  N   UNL     1      46.299  70.518  31.328  0.00  0.00    +0.000 N 
ATOM      2  C   UNL     1      47.278  69.960  32.023  0.00  0.00    +0.000 A 
ATOM      3  C   UNL     1      48.500  70.586  32.024  0.00  0.00    +0.000 A 
ATOM      4  C   UNL     1      48.592  71.757  31.287  0.00  0.00    +0.000 A 
ATOM      5  N   UNL     1      49.856  72.430  31.274  0.00  0.00    +0.000 N 
ATOM      6  N   UNL     1      47.557  72.294  30.588  0.00  0.00    +0.000 NA
ATOM      7  C   UNL     1      46.375  71.659  30.606  0.00  0.00    +0.000 A 
ATOM      8  O   UNL     1      45.386  72.126  29.968  0.00  0.00    +0.000 OA
ATOM      9  C   UNL     1      42.676  69.784  31.884  0.00  0.00    +0.000 A 
ATOM     10  C   UNL     1      43.887  70.456  31.951  0.00  0.00    +0.000 A 
ATOM     11  C   UNL     1      45.014  69.888  31.307  0.00  0.00    +0.000 A 
ATOM     12  N   UNL     1      44.834  68.704  30.658  0.00  0.00    +0.000 NA
ATOM     13  C   UNL     1      43.631  68.097  30.627  0.00  0.00    +0.000 A 
ATOM     14  N   UNL     1      42.569  68.621  31.226  0.00  0.00    +0.000 NA
ATOM     15  N   UNL     1      43.654  66.874  29.889  0.00  0.00    +0.000 N 
ATOM     16  N   UNL     1      44.239  67.021  28.685  0.00  0.00    +0.000 NA
ATOM     17  C   UNL     1      44.183  65.815  28.052  0.00  0.00    +0.000 A 
ATOM     18  C   UNL     1      43.557  64.937  28.888  0.00  0.00    +0.000 A 
ATOM     19  C   UNL     1      43.229  65.617  30.046  0.00  0.00    +0.000 A 
ATOM     20  H   UNL     1      49.969  73.303  30.739  0.00  0.00    +0.000 HD
ATOM     21  H   UNL     1      50.652  72.041  31.799  0.00  0.00    +0.000 HD
ENDROOT
BRANCH  19  22
ATOM     22  O   UNL     1      42.633  65.339  31.179  0.00  0.00    +0.000 OA
BRANCH  22  23
ATOM     23  C   UNL     1      42.685  64.005  31.720  0.00  0.00    +0.000 C 
ATOM     24  C   UNL     1      43.785  63.095  31.365  0.00  0.00    +0.000 C 
ATOM     25  C   UNL     1      42.346  62.869  30.878  0.00  0.00    +0.000 C 
BRANCH  25  26
ATOM     26  C   UNL     1      41.645  61.656  31.321  0.00  0.00    +0.000 A 
ATOM     27  C   UNL     1      42.369  60.786  32.141  0.00  0.00    +0.000 A 
ATOM     28  N   UNL     1      41.554  59.747  32.450  0.00  0.00    +0.000 N 
ATOM     29  C   UNL     1      40.340  59.913  31.863  0.00  0.00    +0.000 A 
ATOM     30  C   UNL     1      39.144  59.230  31.799  0.00  0.00    +0.000 A 
ATOM     31  C   UNL     1      38.068  59.701  31.078  0.00  0.00    +0.000 A 
ATOM     32  C   UNL     1      38.182  60.909  30.386  0.00  0.00    +0.000 A 
ATOM     33  C   UNL     1      39.376  61.596  30.447  0.00  0.00    +0.000 A 
ATOM     34  C   UNL     1      40.418  61.086  31.179  0.00  0.00    +0.000 A 
ATOM     35  H   UNL     1      41.817  58.948  33.044  0.00  0.00    +0.000 HD
ENDBRANCH  25  26
ENDBRANCH  22  23
ENDBRANCH  19  22
TORSDOF 3
