REMARK  Name = 
REMARK  4 active torsions:
REMARK  status: ('A' for Active; 'I' for Inactive)
REMARK    1  A    between atoms: C_2  and  C_7
REMARK    2  A    between atoms: C_5  and  C_16
REMARK    3  A    between atoms: C_16  and  C_17
REMARK    4  A    between atoms: N_20  and  C_22
REMARK                            x       y       z     vdW  Elec       q    Type
REMARK                         _______ _______ _______ _____ _____    ______ ____
ROOT
ATOM      1  C   UNL     1      46.793  73.321  30.268  0.00  0.00    +0.000 A 
ATOM      2  C   UNL     1      45.987  73.546  31.386  0.00  0.00    +0.000 A 
ATOM      3  C   UNL     1      46.035  72.598  32.419  0.00  0.00    +0.000 A 
ATOM      4  N   UNL     1      46.865  71.517  32.271  0.00  0.00    +0.000 NA
ATOM      5  C   UNL     1      47.617  71.344  31.186  0.00  0.00    +0.000 A 
ATOM      6  N   UNL     1      47.587  72.239  30.182  0.00  0.00    +0.000 NA
ENDROOT
BRANCH   2   7
ATOM      7  C   UNL     1      45.161  74.700  31.439  0.00  0.00    +0.000 A 
ATOM      8  C   UNL     1      45.640  76.022  31.357  0.00  0.00    +0.000 A 
ATOM      9  N   UNL     1      44.583  76.879  31.442  0.00  0.00    +0.000 N 
ATOM     10  C   UNL     1      43.451  76.154  31.575  0.00  0.00    +0.000 A 
ATOM     11  C   UNL     1      42.119  76.540  31.698  0.00  0.00    +0.000 A 
ATOM     12  C   UNL     1      41.121  75.577  31.823  0.00  0.00    +0.000 A 
ATOM     13  C   UNL     1      41.472  74.238  31.822  0.00  0.00    +0.000 A 
ATOM     14  C   UNL     1      42.797  73.918  31.697  0.00  0.00    +0.000 A 
ATOM     15  C   UNL     1      43.809  74.825  31.572  0.00  0.00    +0.000 A 
ATOM     16  H   UNL     1      44.638  77.907  31.410  0.00  0.00    +0.000 HD
ENDBRANCH   2   7
BRANCH   5  17
ATOM     17  C   UNL     1      48.478  70.151  31.119  0.00  0.00    +0.000 C 
BRANCH  17  18
ATOM     18  C   UNL     1      47.772  69.113  30.311  0.00  0.00    +0.000 A 
ATOM     19  C   UNL     1      46.435  69.320  29.946  0.00  0.00    +0.000 A 
ATOM     20  C   UNL     1      46.027  68.234  29.218  0.00  0.00    +0.000 A 
ATOM     21  N   UNL     1      47.069  67.407  29.147  0.00  0.00    +0.000 N 
ATOM     22  N   UNL     1      48.112  67.939  29.803  0.00  0.00    +0.000 NA
BRANCH  21  23
ATOM     23  C   UNL     1      47.059  66.154  28.473  0.00  0.00    +0.000 A 
ATOM     24  C   UNL     1      45.880  65.515  28.144  0.00  0.00    +0.000 A 
ATOM     25  C   UNL     1      45.764  64.305  27.494  0.00  0.00    +0.000 A 
ATOM     26  C   UNL     1      46.944  63.685  27.143  0.00  0.00    +0.000 A 
ATOM     27  C   UNL     1      48.159  64.270  27.441  0.00  0.00    +0.000 A 
ATOM     28  C   UNL     1      49.331  63.637  27.083  0.00  0.00    +0.000 A 
ATOM     29  C   UNL     1      50.578  64.162  27.349  0.00  0.00    +0.000 A 
ATOM     30  C   UNL     1      50.605  65.394  28.012  0.00  0.00    +0.000 A 
ATOM     31  C   UNL     1      49.430  66.056  28.385  0.00  0.00    +0.000 A 
ATOM     32  C   UNL     1      48.211  65.481  28.093  0.00  0.00    +0.000 A 
ENDBRANCH  21  23
ENDBRANCH  17  18
ENDBRANCH   5  17
TORSDOF 4
