REMARK  Name = 
REMARK  2 active torsions:
REMARK  status: ('A' for Active; 'I' for Inactive)
REMARK    1  A    between atoms: C_2  and  C_7
REMARK    2  A    between atoms: C_5  and  C_18
REMARK                            x       y       z     vdW  Elec       q    Type
REMARK                         _______ _______ _______ _____ _____    ______ ____
ROOT
ATOM      1  C   UNL     1      47.294  69.662  29.546  0.00  0.00    +0.000 A 
ATOM      2  N   UNL     1      48.596  69.344  29.345  0.00  0.00    +0.000 NA
ATOM      3  O   UNL     1      48.688  68.109  28.908  0.00  0.00    +0.000 OA
ATOM      4  C   UNL     1      47.470  67.597  28.814  0.00  0.00    +0.000 A 
ATOM      5  N   UNL     1      46.601  68.558  29.209  0.00  0.00    +0.000 NA
ATOM      6  N   UNL     1      46.992  66.321  28.402  0.00  0.00    +0.000 N 
ATOM      7  C   UNL     1      47.517  65.244  27.803  0.00  0.00    +0.000 A 
ATOM      8  N   UNL     1      46.563  64.294  27.658  0.00  0.00    +0.000 NA
ATOM      9  C   UNL     1      45.427  64.794  28.178  0.00  0.00    +0.000 A 
ATOM     10  C   UNL     1      44.192  64.196  28.259  0.00  0.00    +0.000 A 
ATOM     11  O   UNL     1      43.926  63.035  27.838  0.00  0.00    +0.000 OA
ATOM     12  N   UNL     1      43.157  64.855  28.819  0.00  0.00    +0.000 N 
ATOM     13  C   UNL     1      43.413  66.096  29.276  0.00  0.00    +0.000 A 
ATOM     14  N   UNL     1      42.453  66.948  29.897  0.00  0.00    +0.000 N 
ATOM     15  N   UNL     1      44.610  66.668  29.194  0.00  0.00    +0.000 NA
ATOM     16  C   UNL     1      45.695  66.054  28.640  0.00  0.00    +0.000 A 
ATOM     17  H   UNL     1      42.221  64.432  28.893  0.00  0.00    +0.000 HD
ATOM     18  H   UNL     1      42.730  67.886  30.220  0.00  0.00    +0.000 HD
ATOM     19  H   UNL     1      41.483  66.625  30.023  0.00  0.00    +0.000 HD
ENDROOT
BRANCH   1  24
ATOM     20  C   UNL     1      46.799  73.200  30.345  0.00  0.00    +0.000 A 
ATOM     21  C   UNL     1      45.532  73.167  30.965  0.00  0.00    +0.000 A 
ATOM     22  C   UNL     1      44.897  71.931  31.084  0.00  0.00    +0.000 A 
ATOM     23  N   UNL     1      45.516  70.823  30.605  0.00  0.00    +0.000 NA
ATOM     24  C   UNL     1      46.727  70.918  30.022  0.00  0.00    +0.000 A 
ATOM     25  N   UNL     1      47.343  72.080  29.901  0.00  0.00    +0.000 NA
BRANCH  21  26
ATOM     26  C   UNL     1      44.958  74.429  31.445  0.00  0.00    +0.000 A 
ATOM     27  C   UNL     1      45.701  75.630  31.361  0.00  0.00    +0.000 A 
ATOM     28  S   UNL     1      44.552  76.894  32.085  0.00  0.00    +0.000 S 
ATOM     29  C   UNL     1      43.265  75.547  32.372  0.00  0.00    +0.000 A 
ATOM     30  N   UNL     1      43.779  74.646  31.985  0.00  0.00    +0.000 NA
ATOM     31  N   UNL     1      41.961  75.739  32.960  0.00  0.00    +0.000 N 
ATOM     32  C   UNL     1      41.452  77.022  33.333  0.00  0.00    +0.000 C 
ATOM     33  C   UNL     1      40.255  76.768  34.234  0.00  0.00    +0.000 C 
ATOM     34  O   UNL     1      39.266  76.022  33.616  0.00  0.00    +0.000 OA
ATOM     35  C   UNL     1      39.707  74.980  32.849  0.00  0.00    +0.000 C 
ATOM     36  C   UNL     1      41.129  74.579  33.181  0.00  0.00    +0.000 C 
ENDBRANCH  21  26
ENDBRANCH   1  24
TORSDOF 2
