REMARK  Name = 
REMARK  5 active torsions:
REMARK  status: ('A' for Active; 'I' for Inactive)
REMARK    1  A    between atoms: C_1  and  C_7
REMARK    2  A    between atoms: C_5  and  C_16
REMARK    3  A    between atoms: C_16  and  C_17
REMARK    4  A    between atoms: C_16  and  C_18
REMARK    5  A    between atoms: C_18  and  N_19
REMARK                            x       y       z     vdW  Elec       q    Type
REMARK                         _______ _______ _______ _____ _____    ______ ____
ROOT
ATOM      1  C   UNL     1      41.710  72.331  32.647  0.00  0.00    +0.000 C 
ATOM      2  C   UNL     1      40.467  71.472  32.883  0.00  0.00    +0.000 C 
ENDROOT
BRANCH   1   7
ATOM      3  C   UNL     1      44.913  71.144  31.300  0.00  0.00    +0.000 A 
ATOM      4  C   UNL     1      44.727  69.744  31.214  0.00  0.00    +0.000 A 
ATOM      5  C   UNL     1      43.480  69.216  31.624  0.00  0.00    +0.000 A 
ATOM      6  N   UNL     1      42.527  70.085  32.078  0.00  0.00    +0.000 NA
ATOM      7  C   UNL     1      42.758  71.419  32.140  0.00  0.00    +0.000 A 
ATOM      8  N   UNL     1      43.935  71.925  31.754  0.00  0.00    +0.000 NA
BRANCH   3   9
ATOM      9  C   UNL     1      46.202  71.659  30.882  0.00  0.00    +0.000 A 
ATOM     10  C   UNL     1      46.585  72.307  29.737  0.00  0.00    +0.000 A 
ATOM     11  N   UNL     1      47.893  72.604  29.776  0.00  0.00    +0.000 N 
ATOM     12  C   UNL     1      48.387  72.150  30.957  0.00  0.00    +0.000 A 
ATOM     13  C   UNL     1      49.679  72.234  31.431  0.00  0.00    +0.000 A 
ATOM     14  C   UNL     1      49.973  71.696  32.688  0.00  0.00    +0.000 A 
ATOM     15  C   UNL     1      48.942  71.101  33.400  0.00  0.00    +0.000 A 
ATOM     16  C   UNL     1      47.666  71.030  32.912  0.00  0.00    +0.000 A 
ATOM     17  C   UNL     1      47.350  71.554  31.671  0.00  0.00    +0.000 A 
ATOM     18  H   UNL     1      48.427  73.090  29.041  0.00  0.00    +0.000 HD
ENDBRANCH   3   9
ENDBRANCH   1   7
BRANCH   1  19
ATOM     19  C   UNL     1      41.335  73.427  31.701  0.00  0.00    +0.000 C 
BRANCH  19  20
ATOM     20  N   UNL     1      41.163  74.701  32.370  0.00  0.00    +0.000 N 
ATOM     21  C   UNL     1      40.142  75.187  33.100  0.00  0.00    +0.000 A 
ATOM     22  N   UNL     1      40.452  76.421  33.510  0.00  0.00    +0.000 NA
ATOM     23  C   UNL     1      41.657  76.734  33.055  0.00  0.00    +0.000 A 
ATOM     24  C   UNL     1      42.460  77.865  33.173  0.00  0.00    +0.000 A 
ATOM     25  O   UNL     1      42.069  78.873  33.828  0.00  0.00    +0.000 OA
ATOM     26  N   UNL     1      43.679  77.934  32.598  0.00  0.00    +0.000 N 
ATOM     27  C   UNL     1      44.077  76.851  31.906  0.00  0.00    +0.000 A 
ATOM     28  N   UNL     1      45.342  76.737  31.225  0.00  0.00    +0.000 N 
ATOM     29  N   UNL     1      43.342  75.726  31.755  0.00  0.00    +0.000 NA
ATOM     30  C   UNL     1      42.119  75.663  32.336  0.00  0.00    +0.000 A 
ATOM     31  H   UNL     1      44.273  78.771  32.684  0.00  0.00    +0.000 HD
ATOM     32  H   UNL     1      45.576  75.874  30.715  0.00  0.00    +0.000 HD
ATOM     33  H   UNL     1      46.012  77.519  31.249  0.00  0.00    +0.000 HD
ENDBRANCH  19  20
ENDBRANCH   1  19
TORSDOF 4
