REMARK  Name = 
REMARK  2 active torsions:
REMARK  status: ('A' for Active; 'I' for Inactive)
REMARK    1  A    between atoms: C_1  and  C_19
REMARK    2  A    between atoms: C_6  and  C_7
REMARK                            x       y       z     vdW  Elec       q    Type
REMARK                         _______ _______ _______ _____ _____    ______ ____
ROOT
ATOM      1  C   UNL     1      44.736  70.128  31.136  0.00  0.00    +0.000 A 
ATOM      2  C   UNL     1      44.834  68.862  30.571  0.00  0.00    +0.000 A 
ATOM      3  C   UNL     1      43.752  67.967  30.651  0.00  0.00    +0.000 A 
ATOM      4  C   UNL     1      42.604  68.379  31.302  0.00  0.00    +0.000 A 
ATOM      5  C   UNL     1      42.488  69.646  31.875  0.00  0.00    +0.000 A 
ATOM      6  C   UNL     1      43.583  70.487  31.767  0.00  0.00    +0.000 A 
ENDROOT
BRANCH   1   9
ATOM      7  C   UNL     1      47.198  72.727  29.915  0.00  0.00    +0.000 A 
ATOM      8  C   UNL     1      46.018  71.937  29.983  0.00  0.00    +0.000 A 
ATOM      9  C   UNL     1      45.896  70.966  31.000  0.00  0.00    +0.000 A 
ATOM     10  N   UNL     1      46.923  70.827  31.882  0.00  0.00    +0.000 NA
ATOM     11  C   UNL     1      48.038  71.614  31.773  0.00  0.00    +0.000 A 
ATOM     12  N   UNL     1      48.173  72.528  30.828  0.00  0.00    +0.000 NA
ATOM     13  N   UNL     1      49.100  71.455  32.701  0.00  0.00    +0.000 N 
ATOM     14  C   UNL     1      50.411  71.997  32.486  0.00  0.00    +0.000 C 
ATOM     15  C   UNL     1      51.444  71.497  33.424  0.00  0.00    +0.000 C 
ATOM     16  O   UNL     1      51.329  70.211  33.862  0.00  0.00    +0.000 OA
ATOM     17  C   UNL     1      50.083  69.652  33.853  0.00  0.00    +0.000 C 
ATOM     18  C   UNL     1      49.048  70.751  33.965  0.00  0.00    +0.000 C 
ENDBRANCH   1   9
BRANCH   6  19
ATOM     19  C   UNL     1      43.442  71.802  32.370  0.00  0.00    +0.000 A 
ATOM     20  N   UNL     1      43.264  71.992  33.701  0.00  0.00    +0.000 NA
ATOM     21  O   UNL     1      43.164  73.252  34.010  0.00  0.00    +0.000 OA
ATOM     22  C   UNL     1      43.271  73.954  32.894  0.00  0.00    +0.000 A 
ATOM     23  N   UNL     1      43.438  73.069  31.921  0.00  0.00    +0.000 NA
ATOM     24  N   UNL     1      43.257  75.308  32.498  0.00  0.00    +0.000 N 
ATOM     25  C   UNL     1      44.121  75.795  31.419  0.00  0.00    +0.000 C 
ATOM     26  C   UNL     1      44.303  77.267  31.822  0.00  0.00    +0.000 C 
ATOM     27  C   UNL     1      42.841  77.596  32.110  0.00  0.00    +0.000 C 
ATOM     28  C   UNL     1      42.469  76.423  33.005  0.00  0.00    +0.000 C 
ENDBRANCH   6  19
TORSDOF 2
