REMARK  Name = 
REMARK  3 active torsions:
REMARK  status: ('A' for Active; 'I' for Inactive)
REMARK    1  A    between atoms: C_1  and  N_22
REMARK    2  A    between atoms: C_5  and  C_7
REMARK    3  A    between atoms: C_24  and  C_30
REMARK                            x       y       z     vdW  Elec       q    Type
REMARK                         _______ _______ _______ _____ _____    ______ ____
ROOT
ATOM      1  C   UNL     1      45.970  71.300  31.117  0.00  0.00    +0.000 A 
ATOM      2  C   UNL     1      46.060  72.230  30.073  0.00  0.00    +0.000 A 
ATOM      3  C   UNL     1      47.303  72.831  29.834  0.00  0.00    +0.000 A 
ATOM      4  N   UNL     1      48.358  72.480  30.628  0.00  0.00    +0.000 NA
ATOM      5  C   UNL     1      48.231  71.579  31.625  0.00  0.00    +0.000 A 
ATOM      6  N   UNL     1      47.037  71.008  31.847  0.00  0.00    +0.000 NA
ENDROOT
BRANCH   5   7
ATOM      7  C   UNL     1      49.357  71.209  32.466  0.00  0.00    +0.000 A 
ATOM      8  C   UNL     1      50.491  71.982  32.541  0.00  0.00    +0.000 A 
ATOM      9  C   UNL     1      51.585  71.645  33.344  0.00  0.00    +0.000 A 
ATOM     10  C   UNL     1      51.521  70.482  34.096  0.00  0.00    +0.000 A 
ATOM     11  C   UNL     1      50.362  69.729  33.994  0.00  0.00    +0.000 A 
ATOM     12  N   UNL     1      49.317  70.075  33.211  0.00  0.00    +0.000 NA
ATOM     13  N   UNL     1      50.124  68.499  34.698  0.00  0.00    +0.000 N 
ATOM     14  C   UNL     1      48.993  67.770  34.525  0.00  0.00    +0.000 A 
ATOM     15  N   UNL     1      48.977  66.652  35.285  0.00  0.00    +0.000 NA
ATOM     16  C   UNL     1      50.138  66.671  35.965  0.00  0.00    +0.000 A 
ATOM     17  C   UNL     1      50.766  65.874  36.891  0.00  0.00    +0.000 A 
ATOM     18  N   UNL     1      51.972  66.186  37.396  0.00  0.00    +0.000 NA
ATOM     19  C   UNL     1      52.631  67.300  37.024  0.00  0.00    +0.000 A 
ATOM     20  N   UNL     1      52.036  68.113  36.108  0.00  0.00    +0.000 NA
ATOM     21  C   UNL     1      50.837  67.803  35.603  0.00  0.00    +0.000 A 
ENDBRANCH   5   7
BRANCH   1  22
ATOM     22  N   UNL     1      44.727  70.673  31.389  0.00  0.00    +0.000 N 
ATOM     23  C   UNL     1      44.514  69.374  31.032  0.00  0.00    +0.000 A 
ATOM     24  C   UNL     1      43.283  68.780  31.310  0.00  0.00    +0.000 A 
ATOM     25  C   UNL     1      42.391  69.608  31.939  0.00  0.00    +0.000 A 
ATOM     26  O   UNL     1      41.259  69.093  32.205  0.00  0.00    +0.000 OA
ATOM     27  N   UNL     1      42.562  70.876  32.302  0.00  0.00    +0.000 N 
ATOM     28  C   UNL     1      43.785  71.404  32.004  0.00  0.00    +0.000 A 
ATOM     29  O   UNL     1      43.996  72.621  32.334  0.00  0.00    +0.000 OA
ATOM     30  C   UNL     1      42.963  67.380  30.960  0.00  0.00    +0.000 C 
ATOM     31  H   UNL     1      41.825  71.420  32.774  0.00  0.00    +0.000 HD
ENDBRANCH   1  22
TORSDOF 2
