REMARK  Name = 
REMARK  3 active torsions:
REMARK  status: ('A' for Active; 'I' for Inactive)
REMARK    1  A    between atoms: C_1  and  N_21
REMARK    2  A    between atoms: C_3  and  C_7
REMARK    3  A    between atoms: C_25  and  C_26
REMARK                            x       y       z     vdW  Elec       q    Type
REMARK                         _______ _______ _______ _____ _____    ______ ____
ROOT
ATOM      1  C   UNL     1      44.785  71.169  31.085  0.00  0.00    +0.000 A 
ATOM      2  C   UNL     1      44.305  72.442  31.455  0.00  0.00    +0.000 A 
ATOM      3  C   UNL     1      45.058  73.561  31.176  0.00  0.00    +0.000 A 
ATOM      4  N   UNL     1      46.250  73.394  30.546  0.00  0.00    +0.000 NA
ATOM      5  C   UNL     1      46.695  72.172  30.200  0.00  0.00    +0.000 A 
ATOM      6  N   UNL     1      45.961  71.083  30.473  0.00  0.00    +0.000 NA
ENDROOT
BRANCH   3   7
ATOM      7  C   UNL     1      44.580  74.872  31.553  0.00  0.00    +0.000 A 
ATOM      8  C   UNL     1      45.431  75.954  31.408  0.00  0.00    +0.000 A 
ATOM      9  C   UNL     1      44.854  77.155  31.806  0.00  0.00    +0.000 A 
ATOM     10  C   UNL     1      43.585  77.273  32.289  0.00  0.00    +0.000 A 
ATOM     11  C   UNL     1      42.802  76.154  32.403  0.00  0.00    +0.000 A 
ATOM     12  N   UNL     1      43.318  74.946  32.027  0.00  0.00    +0.000 NA
ATOM     13  N   UNL     1      41.450  76.114  32.889  0.00  0.00    +0.000 N 
ATOM     14  C   UNL     1      40.920  76.675  33.977  0.00  0.00    +0.000 A 
ATOM     15  C   UNL     1      39.590  76.503  34.231  0.00  0.00    +0.000 A 
ATOM     16  C   UNL     1      38.786  75.762  33.384  0.00  0.00    +0.000 A 
ATOM     17  O   UNL     1      37.550  75.618  33.648  0.00  0.00    +0.000 OA
ATOM     18  N   UNL     1      39.355  75.202  32.283  0.00  0.00    +0.000 N 
ATOM     19  C   UNL     1      40.666  75.381  32.049  0.00  0.00    +0.000 A 
ATOM     20  O   UNL     1      41.038  74.804  30.999  0.00  0.00    +0.000 OA
ATOM     21  H   UNL     1      38.784  74.644  31.632  0.00  0.00    +0.000 HD
ENDBRANCH   3   7
BRANCH   1  22
ATOM     22  N   UNL     1      44.000  70.000  31.323  0.00  0.00    +0.000 N 
ATOM     23  C   UNL     1      44.369  68.774  30.897  0.00  0.00    +0.000 A 
ATOM     24  C   UNL     1      43.284  67.958  31.304  0.00  0.00    +0.000 A 
ATOM     25  N   UNL     1      42.355  68.725  31.934  0.00  0.00    +0.000 NA
ATOM     26  C   UNL     1      42.809  70.021  31.947  0.00  0.00    +0.000 A 
BRANCH  26  27
ATOM     27  C   UNL     1      41.915  70.875  32.627  0.00  0.00    +0.000 A 
ATOM     28  C   UNL     1      40.624  70.893  32.051  0.00  0.00    +0.000 A 
ATOM     29  C   UNL     1      39.807  71.767  32.784  0.00  0.00    +0.000 A 
ATOM     30  C   UNL     1      40.703  72.210  33.764  0.00  0.00    +0.000 A 
ATOM     31  O   UNL     1      41.899  71.684  33.650  0.00  0.00    +0.000 OA
ENDBRANCH  26  27
ENDBRANCH   1  22
TORSDOF 3
