REMARK  Name = 
REMARK  8 active torsions:
REMARK  status: ('A' for Active; 'I' for Inactive)
REMARK    1  A    between atoms: C_5  and  O_18
REMARK    2  A    between atoms: C_7  and  C_10
REMARK    3  A    between atoms: C_10  and  C_11
REMARK    4  A    between atoms: C_11  and  C_12
REMARK    5  A    between atoms: O_18  and  C_19
REMARK    6  A    between atoms: C_19  and  C_25
REMARK    7  A    between atoms: C_23  and  N_27
REMARK    8  A    between atoms: C_29  and  C_30
REMARK                            x       y       z     vdW  Elec       q    Type
REMARK                         _______ _______ _______ _____ _____    ______ ____
ROOT
ATOM      1  O   UNL     1      50.423  72.429  32.676  0.00  0.00    +0.000 OA
ENDROOT
BRANCH   1   6
ATOM      2  N   UNL     1      54.753  72.961  34.190  0.00  0.00    +0.000 N 
ATOM      3  C   UNL     1      54.231  74.147  33.824  0.00  0.00    +0.000 A 
ATOM      4  N   UNL     1      52.979  73.898  33.400  0.00  0.00    +0.000 NA
ATOM      5  C   UNL     1      52.740  72.596  33.503  0.00  0.00    +0.000 A 
ATOM      6  C   UNL     1      51.597  71.886  33.188  0.00  0.00    +0.000 A 
ATOM      7  N   UNL     1      51.631  70.555  33.397  0.00  0.00    +0.000 NA
ATOM      8  C   UNL     1      52.722  69.936  33.889  0.00  0.00    +0.000 A 
ATOM      9  N   UNL     1      53.822  70.639  34.190  0.00  0.00    +0.000 NA
ATOM     10  C   UNL     1      53.862  71.981  34.007  0.00  0.00    +0.000 A 
ATOM     11  H   UNL     1      55.705  72.827  34.559  0.00  0.00    +0.000 HD
BRANCH   8  12
ATOM     12  C   UNL     1      52.603  68.451  34.064  0.00  0.00    +0.000 C 
BRANCH  12  13
ATOM     13  C   UNL     1      53.927  67.910  34.617  0.00  0.00    +0.000 C 
BRANCH  13  14
ATOM     14  C   UNL     1      54.596  67.185  33.518  0.00  0.00    +0.000 A 
ATOM     15  C   UNL     1      55.780  67.683  32.997  0.00  0.00    +0.000 A 
ATOM     16  C   UNL     1      56.319  66.915  31.967  0.00  0.00    +0.000 A 
ATOM     17  C   UNL     1      55.712  65.762  31.520  0.00  0.00    +0.000 A 
ATOM     18  C   UNL     1      54.529  65.319  32.084  0.00  0.00    +0.000 A 
ATOM     19  N   UNL     1      54.015  66.072  33.084  0.00  0.00    +0.000 NA
ENDBRANCH  13  14
ENDBRANCH  12  13
ENDBRANCH   8  12
ENDBRANCH   1   6
BRANCH   1  20
ATOM     20  C   UNL     1      49.222  71.749  32.712  0.00  0.00    +0.000 C 
ATOM     21  O   UNL     1      48.907  71.239  33.827  0.00  0.00    +0.000 OA
BRANCH  20  26
ATOM     22  C   UNL     1      47.081  72.639  29.906  0.00  0.00    +0.000 A 
ATOM     23  C   UNL     1      46.717  71.428  29.353  0.00  0.00    +0.000 A 
ATOM     24  C   UNL     1      47.219  70.271  29.959  0.00  0.00    +0.000 A 
ATOM     25  N   UNL     1      48.029  70.394  31.046  0.00  0.00    +0.000 NA
ATOM     26  C   UNL     1      48.361  71.616  31.557  0.00  0.00    +0.000 A 
ATOM     27  N   UNL     1      47.881  72.704  30.977  0.00  0.00    +0.000 NA
BRANCH  24  28
ATOM     28  N   UNL     1      46.905  68.984  29.470  0.00  0.00    +0.000 N 
ATOM     29  C   UNL     1      45.668  68.481  29.465  0.00  0.00    +0.000 A 
ATOM     30  C   UNL     1      45.423  67.214  28.973  0.00  0.00    +0.000 A 
ATOM     31  C   UNL     1      44.003  66.714  28.999  0.00  0.00    +0.000 C 
ATOM     32  C   UNL     1      46.435  66.415  28.470  0.00  0.00    +0.000 A 
ATOM     33  O   UNL     1      46.194  65.260  28.025  0.00  0.00    +0.000 OA
ATOM     34  N   UNL     1      47.674  66.965  28.495  0.00  0.00    +0.000 N 
ATOM     35  C   UNL     1      47.886  68.205  28.980  0.00  0.00    +0.000 A 
ATOM     36  O   UNL     1      49.059  68.670  28.981  0.00  0.00    +0.000 OA
ATOM     37  H   UNL     1      48.472  66.423  28.135  0.00  0.00    +0.000 HD
ENDBRANCH  24  28
ENDBRANCH  20  26
ENDBRANCH   1  20
TORSDOF 7
