REMARK  Name = 
REMARK  2 active torsions:
REMARK  status: ('A' for Active; 'I' for Inactive)
REMARK    1  A    between atoms: N_1  and  C_19
REMARK    2  A    between atoms: C_14  and  N_30
REMARK                            x       y       z     vdW  Elec       q    Type
REMARK                         _______ _______ _______ _____ _____    ______ ____
ROOT
ATOM      1  N   UNL     1      44.279  71.534  31.860  0.00  0.00    +0.000 N 
ATOM      2  C   UNL     1      43.399  72.269  32.541  0.00  0.00    +0.000 A 
ATOM      3  N   UNL     1      42.277  71.558  32.676  0.00  0.00    +0.000 NA
ATOM      4  C   UNL     1      42.456  70.390  32.083  0.00  0.00    +0.000 A 
ATOM      5  C   UNL     1      41.607  69.301  31.944  0.00  0.00    +0.000 C 
ATOM      6  N   UNL     1      42.072  68.245  31.267  0.00  0.00    +0.000 NA
ATOM      7  C   UNL     1      43.316  68.195  30.744  0.00  0.00    +0.000 C 
ATOM      8  N   UNL     1      44.159  69.234  30.875  0.00  0.00    +0.000 N 
ATOM      9  C   UNL     1      43.736  70.343  31.547  0.00  0.00    +0.000 A 
ATOM     10  N   UNL     1      43.550  66.951  30.075  0.00  0.00    +0.000 N 
ATOM     11  C   UNL     1      44.140  67.032  28.855  0.00  0.00    +0.000 A 
ATOM     12  N   UNL     1      44.296  65.778  28.348  0.00  0.00    +0.000 NA
ATOM     13  C   UNL     1      43.791  64.927  29.275  0.00  0.00    +0.000 A 
ATOM     14  C   UNL     1      43.621  63.564  29.432  0.00  0.00    +0.000 A 
ATOM     15  N   UNL     1      43.055  63.051  30.539  0.00  0.00    +0.000 NA
ATOM     16  C   UNL     1      42.624  63.832  31.552  0.00  0.00    +0.000 A 
ATOM     17  N   UNL     1      42.765  65.183  31.456  0.00  0.00    +0.000 NA
ATOM     18  C   UNL     1      43.328  65.671  30.352  0.00  0.00    +0.000 A 
ATOM     19  H   UNL     1      45.107  69.193  30.475  0.00  0.00    +0.000 HD
ENDROOT
BRANCH   1  20
ATOM     20  C   UNL     1      45.623  71.816  31.444  0.00  0.00    +0.000 A 
ATOM     21  C   UNL     1      45.845  72.600  30.298  0.00  0.00    +0.000 A 
ATOM     22  C   UNL     1      47.186  72.850  29.929  0.00  0.00    +0.000 A 
ATOM     23  N   UNL     1      48.168  72.319  30.701  0.00  0.00    +0.000 NA
ATOM     24  C   UNL     1      47.911  71.570  31.794  0.00  0.00    +0.000 A 
ATOM     25  N   UNL     1      46.632  71.320  32.164  0.00  0.00    +0.000 NA
ATOM     26  N   UNL     1      48.923  71.014  32.603  0.00  0.00    +0.000 N 
ATOM     27  C   UNL     1      50.075  71.710  32.658  0.00  0.00    +0.000 A 
ATOM     28  C   UNL     1      50.953  71.010  33.502  0.00  0.00    +0.000 A 
ATOM     29  N   UNL     1      50.289  69.908  33.928  0.00  0.00    +0.000 NA
ATOM     30  C   UNL     1      49.053  69.909  33.383  0.00  0.00    +0.000 A 
ENDBRANCH   1  20
BRANCH  14  31
ATOM     31  N   UNL     1      44.085  62.741  28.345  0.00  0.00    +0.000 N 
ATOM     32  H   UNL     1      43.989  61.717  28.397  0.00  0.00    +0.000 HD
ATOM     33  H   UNL     1      44.513  63.177  27.515  0.00  0.00    +0.000 HD
ENDBRANCH  14  31
TORSDOF 2
