REMARK  Name = 
REMARK  1 active torsions:
REMARK  status: ('A' for Active; 'I' for Inactive)
REMARK    1  A    between atoms: C_3  and  C_18
REMARK                            x       y       z     vdW  Elec       q    Type
REMARK                         _______ _______ _______ _____ _____    ______ ____
ROOT
ATOM      1  C   UNL     1      47.695  72.542  30.344  0.00  0.00    +0.000 A 
ATOM      2  C   UNL     1      46.739  71.630  29.929  0.00  0.00    +0.000 A 
ATOM      3  C   UNL     1      46.623  70.359  30.480  0.00  0.00    +0.000 A 
ATOM      4  N   UNL     1      47.543  70.112  31.459  0.00  0.00    +0.000 NA
ATOM      5  C   UNL     1      48.469  70.979  31.868  0.00  0.00    +0.000 A 
ATOM      6  N   UNL     1      48.539  72.186  31.309  0.00  0.00    +0.000 NA
ATOM      7  N   UNL     1      49.368  70.581  32.906  0.00  0.00    +0.000 N 
ATOM      8  C   UNL     1      49.131  69.522  33.733  0.00  0.00    +0.000 A 
ATOM      9  N   UNL     1      50.102  69.344  34.616  0.00  0.00    +0.000 NA
ATOM     10  C   UNL     1      51.015  70.303  34.382  0.00  0.00    +0.000 A 
ATOM     11  C   UNL     1      52.236  70.634  34.970  0.00  0.00    +0.000 A 
ATOM     12  O   UNL     1      52.660  69.953  35.925  0.00  0.00    +0.000 OA
ATOM     13  N   UNL     1      52.890  71.700  34.445  0.00  0.00    +0.000 N 
ATOM     14  C   UNL     1      52.430  72.432  33.414  0.00  0.00    +0.000 A 
ATOM     15  N   UNL     1      53.298  73.492  33.052  0.00  0.00    +0.000 N 
ATOM     16  N   UNL     1      51.236  72.116  32.832  0.00  0.00    +0.000 NA
ATOM     17  C   UNL     1      50.543  71.056  33.324  0.00  0.00    +0.000 A 
ATOM     18  H   UNL     1      53.794  71.965  34.861  0.00  0.00    +0.000 HD
ATOM     19  H   UNL     1      53.048  74.120  32.275  0.00  0.00    +0.000 HD
ATOM     20  H   UNL     1      54.179  73.635  33.566  0.00  0.00    +0.000 HD
ENDROOT
BRANCH   3  21
ATOM     21  C   UNL     1      45.700  69.294  30.186  0.00  0.00    +0.000 A 
ATOM     22  C   UNL     1      46.102  68.327  29.283  0.00  0.00    +0.000 A 
ATOM     23  C   UNL     1      45.336  67.250  28.909  0.00  0.00    +0.000 A 
ATOM     24  C   UNL     1      44.092  67.100  29.451  0.00  0.00    +0.000 A 
ATOM     25  C   UNL     1      43.628  68.018  30.352  0.00  0.00    +0.000 A 
ATOM     26  C   UNL     1      42.366  67.902  30.914  0.00  0.00    +0.000 A 
ATOM     27  C   UNL     1      41.858  68.811  31.818  0.00  0.00    +0.000 A 
ATOM     28  C   UNL     1      42.698  69.869  32.140  0.00  0.00    +0.000 A 
ATOM     29  C   UNL     1      43.933  69.971  31.581  0.00  0.00    +0.000 A 
ATOM     30  C   UNL     1      44.445  69.070  30.679  0.00  0.00    +0.000 A 
ENDBRANCH   3  21
TORSDOF 1
