REMARK  Name = 
REMARK  2 active torsions:
REMARK  status: ('A' for Active; 'I' for Inactive)
REMARK    1  A    between atoms: N_1  and  C_19
REMARK    2  A    between atoms: C_12  and  C_13
REMARK                            x       y       z     vdW  Elec       q    Type
REMARK                         _______ _______ _______ _____ _____    ______ ____
ROOT
ATOM      1  N   UNL     1      44.304  71.355  31.797  0.00  0.00    +0.000 N 
ATOM      2  C   UNL     1      43.373  72.013  32.513  0.00  0.00    +0.000 A 
ATOM      3  N   UNL     1      42.289  71.225  32.600  0.00  0.00    +0.000 NA
ATOM      4  C   UNL     1      42.552  70.095  31.944  0.00  0.00    +0.000 A 
ATOM      5  C   UNL     1      41.749  68.977  31.751  0.00  0.00    +0.000 C 
ATOM      6  N   UNL     1      42.300  67.979  31.035  0.00  0.00    +0.000 NA
ATOM      7  C   UNL     1      43.544  68.029  30.524  0.00  0.00    +0.000 C 
ATOM      8  N   UNL     1      44.318  69.118  30.715  0.00  0.00    +0.000 N 
ATOM      9  C   UNL     1      43.825  70.155  31.427  0.00  0.00    +0.000 A 
ATOM     10  N   UNL     1      43.867  66.826  29.807  0.00  0.00    +0.000 N 
ATOM     11  C   UNL     1      43.115  65.716  29.953  0.00  0.00    +0.000 A 
ATOM     12  C   UNL     1      43.474  64.573  29.232  0.00  0.00    +0.000 A 
ATOM     13  C   UNL     1      42.655  63.333  29.379  0.00  0.00    +0.000 C 
ATOM     14  C   UNL     1      44.592  64.653  28.402  0.00  0.00    +0.000 A 
ATOM     15  O   UNL     1      44.829  63.564  27.795  0.00  0.00    +0.000 OA
ATOM     16  N   UNL     1      45.313  65.787  28.289  0.00  0.00    +0.000 N 
ATOM     17  C   UNL     1      44.950  66.883  28.995  0.00  0.00    +0.000 A 
ATOM     18  O   UNL     1      45.644  67.938  28.872  0.00  0.00    +0.000 OA
ATOM     19  H   UNL     1      45.270  69.158  30.324  0.00  0.00    +0.000 HD
ATOM     20  H   UNL     1      46.135  65.819  27.669  0.00  0.00    +0.000 HD
ENDROOT
BRANCH   1  21
ATOM     21  C   UNL     1      45.636  71.741  31.411  0.00  0.00    +0.000 A 
ATOM     22  C   UNL     1      45.826  72.601  30.335  0.00  0.00    +0.000 A 
ATOM     23  C   UNL     1      47.156  72.946  30.001  0.00  0.00    +0.000 A 
ATOM     24  N   UNL     1      48.161  72.412  30.757  0.00  0.00    +0.000 NA
ATOM     25  C   UNL     1      47.924  71.582  31.793  0.00  0.00    +0.000 A 
ATOM     26  N   UNL     1      46.663  71.248  32.119  0.00  0.00    +0.000 NA
ATOM     27  N   UNL     1      48.959  71.031  32.578  0.00  0.00    +0.000 N 
ATOM     28  C   UNL     1      50.077  71.788  32.688  0.00  0.00    +0.000 A 
ATOM     29  C   UNL     1      50.981  71.080  33.498  0.00  0.00    +0.000 A 
ATOM     30  N   UNL     1      50.376  69.914  33.850  0.00  0.00    +0.000 NA
ATOM     31  C   UNL     1      49.142  69.889  33.285  0.00  0.00    +0.000 A 
ENDBRANCH   1  21
TORSDOF 1
