REMARK  Name = 
REMARK  3 active torsions:
REMARK  status: ('A' for Active; 'I' for Inactive)
REMARK    1  A    between atoms: C_1  and  N_21
REMARK    2  A    between atoms: C_3  and  C_7
REMARK    3  A    between atoms: C_25  and  C_26
REMARK                            x       y       z     vdW  Elec       q    Type
REMARK                         _______ _______ _______ _____ _____    ______ ____
ROOT
ATOM      1  C   UNL     1      44.777  71.144  31.043  0.00  0.00    +0.000 A 
ATOM      2  C   UNL     1      44.309  72.418  31.388  0.00  0.00    +0.000 A 
ATOM      3  C   UNL     1      45.076  73.531  31.111  0.00  0.00    +0.000 A 
ATOM      4  N   UNL     1      46.275  73.359  30.498  0.00  0.00    +0.000 NA
ATOM      5  C   UNL     1      46.714  72.129  30.168  0.00  0.00    +0.000 A 
ATOM      6  N   UNL     1      45.973  71.053  30.439  0.00  0.00    +0.000 NA
ENDROOT
BRANCH   3   7
ATOM      7  C   UNL     1      44.623  74.852  31.513  0.00  0.00    +0.000 A 
ATOM      8  C   UNL     1      45.503  75.916  31.397  0.00  0.00    +0.000 A 
ATOM      9  C   UNL     1      44.951  77.123  31.833  0.00  0.00    +0.000 A 
ATOM     10  C   UNL     1      43.688  77.255  32.320  0.00  0.00    +0.000 A 
ATOM     11  C   UNL     1      42.882  76.153  32.403  0.00  0.00    +0.000 A 
ATOM     12  N   UNL     1      43.363  74.943  31.992  0.00  0.00    +0.000 NA
ATOM     13  N   UNL     1      41.526  76.137  32.893  0.00  0.00    +0.000 N 
ATOM     14  C   UNL     1      41.010  76.680  33.999  0.00  0.00    +0.000 A 
ATOM     15  C   UNL     1      39.672  76.521  34.245  0.00  0.00    +0.000 A 
ATOM     16  C   UNL     1      38.856  75.819  33.385  0.00  0.00    +0.000 A 
ATOM     17  O   UNL     1      37.620  75.710  33.675  0.00  0.00    +0.000 OA
ATOM     18  N   UNL     1      39.420  75.290  32.285  0.00  0.00    +0.000 N 
ATOM     19  C   UNL     1      40.729  75.443  32.040  0.00  0.00    +0.000 A 
ATOM     20  O   UNL     1      41.088  74.882  30.966  0.00  0.00    +0.000 OA
ATOM     21  H   UNL     1      38.838  74.760  31.621  0.00  0.00    +0.000 HD
ENDBRANCH   3   7
BRANCH   1  22
ATOM     22  N   UNL     1      44.012  69.977  31.356  0.00  0.00    +0.000 N 
ATOM     23  C   UNL     1      44.328  68.740  30.887  0.00  0.00    +0.000 A 
ATOM     24  C   UNL     1      43.308  67.929  31.421  0.00  0.00    +0.000 A 
ATOM     25  N   UNL     1      42.464  68.706  32.158  0.00  0.00    +0.000 NA
ATOM     26  C   UNL     1      42.908  70.001  32.121  0.00  0.00    +0.000 A 
BRANCH  26  27
ATOM     27  C   UNL     1      42.081  70.846  32.923  0.00  0.00    +0.000 A 
ATOM     28  C   UNL     1      42.415  71.470  34.143  0.00  0.00    +0.000 A 
ATOM     29  C   UNL     1      41.697  72.290  34.942  0.00  0.00    +0.000 A 
ATOM     30  C   UNL     1      40.438  72.536  34.454  0.00  0.00    +0.000 A 
ATOM     31  C   UNL     1      39.945  72.013  33.281  0.00  0.00    +0.000 A 
ATOM     32  C   UNL     1      38.663  72.344  32.894  0.00  0.00    +0.000 A 
ATOM     33  C   UNL     1      38.161  71.837  31.715  0.00  0.00    +0.000 A 
ATOM     34  C   UNL     1      38.947  71.007  30.945  0.00  0.00    +0.000 A 
ATOM     35  C   UNL     1      40.220  70.712  31.385  0.00  0.00    +0.000 A 
ATOM     36  C   UNL     1      40.772  71.190  32.553  0.00  0.00    +0.000 A 
ENDBRANCH  26  27
ENDBRANCH   1  22
TORSDOF 3
