REMARK  Name = 
REMARK  2 active torsions:
REMARK  status: ('A' for Active; 'I' for Inactive)
REMARK    1  A    between atoms: C_1  and  C_19
REMARK    2  A    between atoms: C_6  and  C_7
REMARK                            x       y       z     vdW  Elec       q    Type
REMARK                         _______ _______ _______ _____ _____    ______ ____
ROOT
ATOM      1  C   UNL     1      44.735  70.136  31.137  0.00  0.00    +0.000 A 
ATOM      2  C   UNL     1      44.793  68.872  30.546  0.00  0.00    +0.000 A 
ATOM      3  C   UNL     1      43.714  67.995  30.690  0.00  0.00    +0.000 A 
ATOM      4  C   UNL     1      42.601  68.402  31.425  0.00  0.00    +0.000 A 
ATOM      5  C   UNL     1      42.539  69.653  32.013  0.00  0.00    +0.000 A 
ATOM      6  C   UNL     1      43.630  70.488  31.844  0.00  0.00    +0.000 A 
ENDROOT
BRANCH   1   9
ATOM      7  C   UNL     1      47.081  72.811  29.864  0.00  0.00    +0.000 A 
ATOM      8  C   UNL     1      45.912  72.032  30.011  0.00  0.00    +0.000 A 
ATOM      9  C   UNL     1      45.890  70.971  30.936  0.00  0.00    +0.000 A 
ATOM     10  N   UNL     1      47.019  70.741  31.662  0.00  0.00    +0.000 NA
ATOM     11  C   UNL     1      48.139  71.526  31.488  0.00  0.00    +0.000 A 
ATOM     12  N   UNL     1      48.151  72.519  30.616  0.00  0.00    +0.000 NA
ATOM     13  N   UNL     1      49.270  71.209  32.291  0.00  0.00    +0.000 N 
ATOM     14  C   UNL     1      50.342  71.994  32.500  0.00  0.00    +0.000 A 
ATOM     15  C   UNL     1      51.370  71.533  33.319  0.00  0.00    +0.000 A 
ATOM     16  C   UNL     1      51.343  70.291  33.935  0.00  0.00    +0.000 A 
ATOM     17  O   UNL     1      52.260  69.884  34.662  0.00  0.00    +0.000 OA
ATOM     18  N   UNL     1      50.244  69.560  33.682  0.00  0.00    +0.000 N 
ATOM     19  C   UNL     1      49.245  69.995  32.894  0.00  0.00    +0.000 A 
ATOM     20  O   UNL     1      48.264  69.190  32.747  0.00  0.00    +0.000 OA
ATOM     21  H   UNL     1      50.163  68.627  34.110  0.00  0.00    +0.000 HD
ENDBRANCH   1   9
BRANCH   6  22
ATOM     22  C   UNL     1      43.539  71.810  32.477  0.00  0.00    +0.000 A 
ATOM     23  N   UNL     1      43.627  71.980  33.818  0.00  0.00    +0.000 NA
ATOM     24  O   UNL     1      43.519  73.235  34.154  0.00  0.00    +0.000 OA
ATOM     25  C   UNL     1      43.358  73.935  33.060  0.00  0.00    +0.000 A 
ATOM     26  N   UNL     1      43.373  73.058  32.058  0.00  0.00    +0.000 NA
ATOM     27  N   UNL     1      43.185  75.287  32.674  0.00  0.00    +0.000 N 
ATOM     28  C   UNL     1      43.794  75.826  31.456  0.00  0.00    +0.000 C 
ATOM     29  C   UNL     1      43.968  77.308  31.833  0.00  0.00    +0.000 C 
ATOM     30  C   UNL     1      42.566  77.542  32.406  0.00  0.00    +0.000 C 
ATOM     31  C   UNL     1      42.432  76.345  33.337  0.00  0.00    +0.000 C 
ENDBRANCH   6  22
TORSDOF 2
