REMARK  Name = 
REMARK  7 active torsions:
REMARK  status: ('A' for Active; 'I' for Inactive)
REMARK    1  A    between atoms: C_5  and  O_18
REMARK    2  A    between atoms: C_7  and  C_10
REMARK    3  A    between atoms: C_10  and  C_11
REMARK    4  A    between atoms: C_11  and  C_12
REMARK    5  A    between atoms: O_18  and  C_19
REMARK    6  A    between atoms: C_19  and  C_25
REMARK    7  A    between atoms: C_23  and  N_27
REMARK                            x       y       z     vdW  Elec       q    Type
REMARK                         _______ _______ _______ _____ _____    ______ ____
ROOT
ATOM      1  N   UNL     1      54.894  72.929  34.130  0.00  0.00    +0.000 N 
ATOM      2  C   UNL     1      54.351  74.136  33.801  0.00  0.00    +0.000 A 
ATOM      3  N   UNL     1      53.078  73.881  33.432  0.00  0.00    +0.000 NA
ATOM      4  C   UNL     1      52.859  72.581  33.533  0.00  0.00    +0.000 A 
ATOM      5  C   UNL     1      51.705  71.866  33.261  0.00  0.00    +0.000 A 
ATOM      6  N   UNL     1      51.760  70.516  33.454  0.00  0.00    +0.000 NA
ATOM      7  C   UNL     1      52.872  69.901  33.886  0.00  0.00    +0.000 A 
ATOM      8  N   UNL     1      53.989  70.628  34.144  0.00  0.00    +0.000 NA
ATOM      9  C   UNL     1      54.001  71.956  33.975  0.00  0.00    +0.000 A 
ATOM     10  H   UNL     1      55.862  72.790  34.454  0.00  0.00    +0.000 HD
ENDROOT
BRANCH   7  11
ATOM     11  C   UNL     1      52.776  68.420  34.050  0.00  0.00    +0.000 C 
BRANCH  11  12
ATOM     12  C   UNL     1      54.128  67.885  34.536  0.00  0.00    +0.000 C 
BRANCH  12  13
ATOM     13  C   UNL     1      54.718  67.112  33.433  0.00  0.00    +0.000 A 
ATOM     14  C   UNL     1      55.893  67.547  32.835  0.00  0.00    +0.000 A 
ATOM     15  C   UNL     1      56.362  66.731  31.795  0.00  0.00    +0.000 A 
ATOM     16  C   UNL     1      55.688  65.592  31.417  0.00  0.00    +0.000 A 
ATOM     17  C   UNL     1      54.529  65.212  32.046  0.00  0.00    +0.000 A 
ATOM     18  N   UNL     1      54.076  66.005  33.056  0.00  0.00    +0.000 NA
ENDBRANCH  12  13
ENDBRANCH  11  12
ENDBRANCH   7  11
BRANCH   5  19
ATOM     19  O   UNL     1      50.507  72.394  32.814  0.00  0.00    +0.000 OA
BRANCH  19  20
ATOM     20  C   UNL     1      49.312  71.687  32.823  0.00  0.00    +0.000 C 
ATOM     21  O   UNL     1      49.032  71.140  33.922  0.00  0.00    +0.000 OA
BRANCH  20  26
ATOM     22  C   UNL     1      47.233  72.660  29.994  0.00  0.00    +0.000 A 
ATOM     23  C   UNL     1      46.799  71.456  29.474  0.00  0.00    +0.000 A 
ATOM     24  C   UNL     1      47.227  70.270  30.106  0.00  0.00    +0.000 A 
ATOM     25  N   UNL     1      48.049  70.361  31.198  0.00  0.00    +0.000 NA
ATOM     26  C   UNL     1      48.448  71.578  31.674  0.00  0.00    +0.000 A 
ATOM     27  N   UNL     1      48.039  72.698  31.070  0.00  0.00    +0.000 NA
BRANCH  24  28
ATOM     28  N   UNL     1      46.790  69.040  29.581  0.00  0.00    +0.000 N 
ATOM     29  C   UNL     1      45.494  68.637  29.636  0.00  0.00    +0.000 A 
ATOM     30  C   UNL     1      45.010  67.440  29.137  0.00  0.00    +0.000 A 
ATOM     31  C   UNL     1      45.909  66.595  28.539  0.00  0.00    +0.000 A 
ATOM     32  O   UNL     1      45.455  65.499  28.085  0.00  0.00    +0.000 OA
ATOM     33  N   UNL     1      47.190  66.972  28.474  0.00  0.00    +0.000 N 
ATOM     34  C   UNL     1      47.603  68.138  28.972  0.00  0.00    +0.000 A 
ATOM     35  O   UNL     1      48.819  68.435  28.879  0.00  0.00    +0.000 OA
ATOM     36  H   UNL     1      47.875  66.346  28.028  0.00  0.00    +0.000 HD
ENDBRANCH  24  28
ENDBRANCH  20  26
ENDBRANCH  19  20
ENDBRANCH   5  19
TORSDOF 7
