REMARK  Name = 
REMARK  3 active torsions:
REMARK  status: ('A' for Active; 'I' for Inactive)
REMARK    1  A    between atoms: C_1  and  N_21
REMARK    2  A    between atoms: C_3  and  C_7
REMARK    3  A    between atoms: C_25  and  C_26
REMARK                            x       y       z     vdW  Elec       q    Type
REMARK                         _______ _______ _______ _____ _____    ______ ____
ROOT
ATOM      1  C   UNL     1      44.799  71.115  31.046  0.00  0.00    +0.000 A 
ATOM      2  C   UNL     1      44.335  72.396  31.395  0.00  0.00    +0.000 A 
ATOM      3  C   UNL     1      45.125  73.499  31.132  0.00  0.00    +0.000 A 
ATOM      4  N   UNL     1      46.336  73.308  30.536  0.00  0.00    +0.000 NA
ATOM      5  C   UNL     1      46.761  72.078  30.209  0.00  0.00    +0.000 A 
ATOM      6  N   UNL     1      46.003  71.006  30.462  0.00  0.00    +0.000 NA
ENDROOT
BRANCH   3   7
ATOM      7  C   UNL     1      44.677  74.826  31.515  0.00  0.00    +0.000 A 
ATOM      8  C   UNL     1      45.552  75.888  31.377  0.00  0.00    +0.000 A 
ATOM      9  C   UNL     1      45.005  77.100  31.793  0.00  0.00    +0.000 A 
ATOM     10  C   UNL     1      43.744  77.241  32.285  0.00  0.00    +0.000 A 
ATOM     11  C   UNL     1      42.939  76.145  32.391  0.00  0.00    +0.000 A 
ATOM     12  N   UNL     1      43.420  74.926  31.999  0.00  0.00    +0.000 NA
ATOM     13  N   UNL     1      41.588  76.130  32.887  0.00  0.00    +0.000 N 
ATOM     14  C   UNL     1      41.081  76.701  33.993  0.00  0.00    +0.000 A 
ATOM     15  C   UNL     1      39.759  76.563  34.276  0.00  0.00    +0.000 A 
ATOM     16  C   UNL     1      38.931  75.836  33.425  0.00  0.00    +0.000 A 
ATOM     17  O   UNL     1      37.692  75.721  33.711  0.00  0.00    +0.000 OA
ATOM     18  N   UNL     1      39.477  75.273  32.316  0.00  0.00    +0.000 N 
ATOM     19  C   UNL     1      40.787  75.427  32.063  0.00  0.00    +0.000 A 
ATOM     20  O   UNL     1      41.133  74.845  30.999  0.00  0.00    +0.000 OA
ATOM     21  H   UNL     1      38.887  74.729  31.670  0.00  0.00    +0.000 HD
ENDBRANCH   3   7
BRANCH   1  22
ATOM     22  N   UNL     1      44.010  69.957  31.331  0.00  0.00    +0.000 N 
ATOM     23  C   UNL     1      44.332  68.716  30.917  0.00  0.00    +0.000 A 
ATOM     24  C   UNL     1      43.290  67.928  31.451  0.00  0.00    +0.000 A 
ATOM     25  N   UNL     1      42.423  68.719  32.138  0.00  0.00    +0.000 NA
ATOM     26  C   UNL     1      42.875  70.003  32.065  0.00  0.00    +0.000 A 
BRANCH  26  27
ATOM     27  C   UNL     1      41.999  70.853  32.817  0.00  0.00    +0.000 A 
ATOM     28  C   UNL     1      41.962  71.552  34.006  0.00  0.00    +0.000 A 
ATOM     29  N   UNL     1      40.791  72.154  34.219  0.00  0.00    +0.000 N 
ATOM     30  C   UNL     1      39.947  71.920  33.209  0.00  0.00    +0.000 A 
ATOM     31  C   UNL     1      38.667  72.293  32.943  0.00  0.00    +0.000 A 
ATOM     32  C   UNL     1      38.050  71.886  31.793  0.00  0.00    +0.000 A 
ATOM     33  C   UNL     1      38.722  71.091  30.888  0.00  0.00    +0.000 A 
ATOM     34  C   UNL     1      40.016  70.735  31.194  0.00  0.00    +0.000 A 
ATOM     35  C   UNL     1      40.681  71.135  32.366  0.00  0.00    +0.000 A 
ATOM     36  H   UNL     1      40.567  72.722  35.049  0.00  0.00    +0.000 HD
ENDBRANCH  26  27
ENDBRANCH   1  22
TORSDOF 3
