REMARK  Name = 
REMARK  4 active torsions:
REMARK  status: ('A' for Active; 'I' for Inactive)
REMARK    1  A    between atoms: C_2  and  C_7
REMARK    2  A    between atoms: C_5  and  C_16
REMARK    3  A    between atoms: C_16  and  C_17
REMARK    4  A    between atoms: N_20  and  C_22
REMARK                            x       y       z     vdW  Elec       q    Type
REMARK                         _______ _______ _______ _____ _____    ______ ____
ROOT
ATOM      1  C   UNL     1      46.777  73.385  30.382  0.00  0.00    +0.000 A 
ATOM      2  C   UNL     1      45.939  73.593  31.468  0.00  0.00    +0.000 A 
ATOM      3  C   UNL     1      45.968  72.653  32.489  0.00  0.00    +0.000 A 
ATOM      4  N   UNL     1      46.808  71.582  32.381  0.00  0.00    +0.000 NA
ATOM      5  C   UNL     1      47.602  71.426  31.306  0.00  0.00    +0.000 A 
ATOM      6  N   UNL     1      47.587  72.319  30.316  0.00  0.00    +0.000 NA
ENDROOT
BRANCH   2   7
ATOM      7  C   UNL     1      45.095  74.742  31.495  0.00  0.00    +0.000 A 
ATOM      8  C   UNL     1      45.565  76.072  31.390  0.00  0.00    +0.000 A 
ATOM      9  N   UNL     1      44.490  76.919  31.452  0.00  0.00    +0.000 N 
ATOM     10  C   UNL     1      43.369  76.176  31.592  0.00  0.00    +0.000 A 
ATOM     11  C   UNL     1      42.036  76.560  31.700  0.00  0.00    +0.000 A 
ATOM     12  C   UNL     1      41.055  75.581  31.837  0.00  0.00    +0.000 A 
ATOM     13  C   UNL     1      41.403  74.246  31.866  0.00  0.00    +0.000 A 
ATOM     14  C   UNL     1      42.744  73.930  31.754  0.00  0.00    +0.000 A 
ATOM     15  C   UNL     1      43.757  74.857  31.616  0.00  0.00    +0.000 A 
ATOM     16  H   UNL     1      44.529  77.947  31.401  0.00  0.00    +0.000 HD
ENDBRANCH   2   7
BRANCH   5  17
ATOM     17  C   UNL     1      48.485  70.233  31.267  0.00  0.00    +0.000 C 
BRANCH  17  18
ATOM     18  C   UNL     1      47.811  69.205  30.424  0.00  0.00    +0.000 A 
ATOM     19  C   UNL     1      46.474  69.379  30.039  0.00  0.00    +0.000 A 
ATOM     20  C   UNL     1      46.133  68.287  29.280  0.00  0.00    +0.000 A 
ATOM     21  N   UNL     1      47.209  67.504  29.217  0.00  0.00    +0.000 N 
ATOM     22  N   UNL     1      48.203  68.056  29.900  0.00  0.00    +0.000 NA
BRANCH  21  23
ATOM     23  C   UNL     1      47.176  66.279  28.494  0.00  0.00    +0.000 A 
ATOM     24  C   UNL     1      46.135  65.511  28.015  0.00  0.00    +0.000 A 
ATOM     25  N   UNL     1      46.601  64.419  27.383  0.00  0.00    +0.000 N 
ATOM     26  C   UNL     1      47.954  64.425  27.420  0.00  0.00    +0.000 A 
ATOM     27  C   UNL     1      48.954  63.611  26.966  0.00  0.00    +0.000 A 
ATOM     28  C   UNL     1      50.291  63.887  27.164  0.00  0.00    +0.000 A 
ATOM     29  C   UNL     1      50.687  65.023  27.845  0.00  0.00    +0.000 A 
ATOM     30  C   UNL     1      49.672  65.837  28.298  0.00  0.00    +0.000 A 
ATOM     31  C   UNL     1      48.316  65.573  28.107  0.00  0.00    +0.000 A 
ATOM     32  H   UNL     1      46.020  63.693  26.941  0.00  0.00    +0.000 HD
ENDBRANCH  21  23
ENDBRANCH  17  18
ENDBRANCH   5  17
TORSDOF 4
