REMARK  Name = 
REMARK  3 active torsions:
REMARK  status: ('A' for Active; 'I' for Inactive)
REMARK    1  A    between atoms: C_19  and  O_20
REMARK    2  A    between atoms: O_20  and  C_21
REMARK    3  A    between atoms: C_23  and  N_24
REMARK                            x       y       z     vdW  Elec       q    Type
REMARK                         _______ _______ _______ _____ _____    ______ ____
ROOT
ATOM      1  N   UNL     1      46.406  70.606  31.281  0.00  0.00    +0.000 N 
ATOM      2  C   UNL     1      47.378  70.050  31.982  0.00  0.00    +0.000 A 
ATOM      3  C   UNL     1      48.608  70.652  31.962  0.00  0.00    +0.000 A 
ATOM      4  C   UNL     1      48.722  71.805  31.198  0.00  0.00    +0.000 A 
ATOM      5  N   UNL     1      49.995  72.457  31.161  0.00  0.00    +0.000 N 
ATOM      6  N   UNL     1      47.692  72.342  30.492  0.00  0.00    +0.000 NA
ATOM      7  C   UNL     1      46.496  71.729  30.532  0.00  0.00    +0.000 A 
ATOM      8  O   UNL     1      45.509  72.197  29.888  0.00  0.00    +0.000 OA
ATOM      9  C   UNL     1      42.769  69.969  31.863  0.00  0.00    +0.000 A 
ATOM     10  C   UNL     1      43.995  70.614  31.908  0.00  0.00    +0.000 A 
ATOM     11  C   UNL     1      45.108  70.005  31.282  0.00  0.00    +0.000 A 
ATOM     12  N   UNL     1      44.900  68.807  30.668  0.00  0.00    +0.000 NA
ATOM     13  C   UNL     1      43.687  68.225  30.656  0.00  0.00    +0.000 A 
ATOM     14  N   UNL     1      42.635  68.791  31.240  0.00  0.00    +0.000 NA
ATOM     15  N   UNL     1      43.683  66.981  29.957  0.00  0.00    +0.000 N 
ATOM     16  N   UNL     1      44.267  67.076  28.749  0.00  0.00    +0.000 NA
ATOM     17  C   UNL     1      44.186  65.856  28.152  0.00  0.00    +0.000 A 
ATOM     18  C   UNL     1      43.542  65.015  29.017  0.00  0.00    +0.000 A 
ATOM     19  C   UNL     1      43.231  65.739  30.154  0.00  0.00    +0.000 A 
ATOM     20  H   UNL     1      50.118  73.315  30.605  0.00  0.00    +0.000 HD
ATOM     21  H   UNL     1      50.788  72.068  31.691  0.00  0.00    +0.000 HD
ENDROOT
BRANCH  19  22
ATOM     22  O   UNL     1      42.632  65.507  31.298  0.00  0.00    +0.000 OA
BRANCH  22  23
ATOM     23  C   UNL     1      42.641  64.202  31.883  0.00  0.00    +0.000 C 
ATOM     24  C   UNL     1      43.536  63.155  31.360  0.00  0.00    +0.000 C 
ATOM     25  C   UNL     1      42.039  63.080  31.166  0.00  0.00    +0.000 C 
BRANCH  25  26
ATOM     26  N   UNL     1      41.243  62.078  31.820  0.00  0.00    +0.000 N 
ATOM     27  C   UNL     1      40.327  61.184  31.158  0.00  0.00    +0.000 C 
ATOM     28  N   UNL     1      40.162  61.485  29.894  0.00  0.00    +0.000 NA
ATOM     29  N   UNL     1      39.846  60.201  32.084  0.00  0.00    +0.000 N 
ATOM     30  H   UNL     1      39.512  60.888  29.334  0.00  0.00    +0.000 HD
ATOM     31  H   UNL     1      41.334  61.992  32.842  0.00  0.00    +0.000 HD
ATOM     32  H   UNL     1      39.179  59.481  31.771  0.00  0.00    +0.000 HD
ATOM     33  H   UNL     1      40.168  60.214  33.062  0.00  0.00    +0.000 HD
ENDBRANCH  25  26
ENDBRANCH  22  23
ENDBRANCH  19  22
TORSDOF 3
