REMARK  Name = 
REMARK  7 active torsions:
REMARK  status: ('A' for Active; 'I' for Inactive)
REMARK    1  A    between atoms: C_5  and  O_18
REMARK    2  A    between atoms: C_7  and  C_10
REMARK    3  A    between atoms: C_10  and  C_11
REMARK    4  A    between atoms: C_11  and  C_12
REMARK    5  A    between atoms: O_18  and  C_19
REMARK    6  A    between atoms: C_19  and  C_25
REMARK    7  A    between atoms: C_23  and  C_27
REMARK                            x       y       z     vdW  Elec       q    Type
REMARK                         _______ _______ _______ _____ _____    ______ ____
ROOT
ATOM      1  O   UNL     1      49.942  71.469  34.033  0.00  0.00    +0.000 OA
ENDROOT
BRANCH   1   6
ATOM      2  N   UNL     1      54.287  72.964  33.621  0.00  0.00    +0.000 N 
ATOM      3  C   UNL     1      53.422  74.012  33.586  0.00  0.00    +0.000 A 
ATOM      4  N   UNL     1      52.190  73.486  33.712  0.00  0.00    +0.000 NA
ATOM      5  C   UNL     1      52.299  72.157  33.820  0.00  0.00    +0.000 A 
ATOM      6  C   UNL     1      51.302  71.208  33.967  0.00  0.00    +0.000 A 
ATOM      7  N   UNL     1      51.703  69.925  34.052  0.00  0.00    +0.000 NA
ATOM      8  C   UNL     1      52.998  69.565  34.000  0.00  0.00    +0.000 A 
ATOM      9  N   UNL     1      53.955  70.517  33.855  0.00  0.00    +0.000 NA
ATOM     10  C   UNL     1      53.626  71.816  33.763  0.00  0.00    +0.000 A 
ATOM     11  H   UNL     1      55.311  73.046  33.548  0.00  0.00    +0.000 HD
BRANCH   8  12
ATOM     12  C   UNL     1      53.280  68.104  34.109  0.00  0.00    +0.000 C 
BRANCH  12  13
ATOM     13  C   UNL     1      54.790  67.888  34.175  0.00  0.00    +0.000 C 
BRANCH  13  14
ATOM     14  C   UNL     1      55.148  66.950  33.084  0.00  0.00    +0.000 A 
ATOM     15  C   UNL     1      56.294  67.177  32.349  0.00  0.00    +0.000 A 
ATOM     16  C   UNL     1      56.534  66.231  31.347  0.00  0.00    +0.000 A 
ATOM     17  C   UNL     1      55.670  65.169  31.140  0.00  0.00    +0.000 A 
ATOM     18  C   UNL     1      54.544  65.000  31.907  0.00  0.00    +0.000 A 
ATOM     19  N   UNL     1      54.316  65.917  32.875  0.00  0.00    +0.000 NA
ENDBRANCH  13  14
ENDBRANCH  12  13
ENDBRANCH   8  12
ENDBRANCH   1   6
BRANCH   1  20
ATOM     20  C   UNL     1      48.997  70.628  33.500  0.00  0.00    +0.000 C 
ATOM     21  O   UNL     1      48.748  69.592  34.181  0.00  0.00    +0.000 OA
BRANCH  20  26
ATOM     22  C   UNL     1      47.980  72.271  30.407  0.00  0.00    +0.000 A 
ATOM     23  C   UNL     1      47.048  71.408  29.884  0.00  0.00    +0.000 A 
ATOM     24  C   UNL     1      46.737  70.234  30.567  0.00  0.00    +0.000 A 
ATOM     25  N   UNL     1      47.406  70.019  31.759  0.00  0.00    +0.000 NA
ATOM     26  C   UNL     1      48.320  70.888  32.251  0.00  0.00    +0.000 A 
ATOM     27  N   UNL     1      48.573  71.978  31.559  0.00  0.00    +0.000 NA
BRANCH  24  28
ATOM     28  C   UNL     1      45.756  69.222  30.259  0.00  0.00    +0.000 A 
ATOM     29  C   UNL     1      46.123  68.260  29.306  0.00  0.00    +0.000 A 
ATOM     30  C   UNL     1      45.317  67.231  28.881  0.00  0.00    +0.000 A 
ATOM     31  C   UNL     1      44.051  67.104  29.406  0.00  0.00    +0.000 A 
ATOM     32  C   UNL     1      43.628  68.016  30.344  0.00  0.00    +0.000 A 
ATOM     33  C   UNL     1      42.356  67.927  30.855  0.00  0.00    +0.000 A 
ATOM     34  C   UNL     1      41.858  68.849  31.781  0.00  0.00    +0.000 A 
ATOM     35  C   UNL     1      42.746  69.863  32.147  0.00  0.00    +0.000 A 
ATOM     36  C   UNL     1      44.011  69.917  31.614  0.00  0.00    +0.000 A 
ATOM     37  C   UNL     1      44.488  69.014  30.715  0.00  0.00    +0.000 A 
ENDBRANCH  24  28
ENDBRANCH  20  26
ENDBRANCH   1  20
TORSDOF 7
