REMARK  Name = 
REMARK  3 active torsions:
REMARK  status: ('A' for Active; 'I' for Inactive)
REMARK    1  A    between atoms: C_1  and  C_19
REMARK    2  A    between atoms: C_6  and  C_7
REMARK    3  A    between atoms: C_25  and  C_26
REMARK                            x       y       z     vdW  Elec       q    Type
REMARK                         _______ _______ _______ _____ _____    ______ ____
ROOT
ATOM      1  C   UNL     1      44.745  70.131  31.135  0.00  0.00    +0.000 A 
ATOM      2  C   UNL     1      44.796  68.873  30.548  0.00  0.00    +0.000 A 
ATOM      3  C   UNL     1      43.712  67.987  30.706  0.00  0.00    +0.000 A 
ATOM      4  C   UNL     1      42.620  68.390  31.443  0.00  0.00    +0.000 A 
ATOM      5  C   UNL     1      42.555  69.639  32.032  0.00  0.00    +0.000 A 
ATOM      6  C   UNL     1      43.635  70.490  31.861  0.00  0.00    +0.000 A 
ENDROOT
BRANCH   1   9
ATOM      7  C   UNL     1      47.057  72.826  29.865  0.00  0.00    +0.000 A 
ATOM      8  C   UNL     1      45.888  72.036  30.011  0.00  0.00    +0.000 A 
ATOM      9  C   UNL     1      45.886  70.975  30.929  0.00  0.00    +0.000 A 
ATOM     10  N   UNL     1      47.007  70.751  31.636  0.00  0.00    +0.000 NA
ATOM     11  C   UNL     1      48.132  71.531  31.477  0.00  0.00    +0.000 A 
ATOM     12  N   UNL     1      48.142  72.532  30.615  0.00  0.00    +0.000 NA
ATOM     13  N   UNL     1      49.245  71.176  32.295  0.00  0.00    +0.000 N 
ATOM     14  C   UNL     1      50.300  71.992  32.482  0.00  0.00    +0.000 A 
ATOM     15  C   UNL     1      51.304  71.515  33.299  0.00  0.00    +0.000 A 
ATOM     16  C   UNL     1      52.496  72.368  33.545  0.00  0.00    +0.000 C 
ATOM     17  C   UNL     1      51.273  70.279  33.912  0.00  0.00    +0.000 A 
ATOM     18  O   UNL     1      52.228  69.911  34.645  0.00  0.00    +0.000 OA
ATOM     19  N   UNL     1      50.186  69.507  33.684  0.00  0.00    +0.000 N 
ATOM     20  C   UNL     1      49.182  69.964  32.877  0.00  0.00    +0.000 A 
ATOM     21  O   UNL     1      48.251  69.124  32.772  0.00  0.00    +0.000 OA
ATOM     22  H   UNL     1      50.115  68.576  34.118  0.00  0.00    +0.000 HD
ENDBRANCH   1   9
BRANCH   6  23
ATOM     23  C   UNL     1      43.539  71.794  32.491  0.00  0.00    +0.000 A 
ATOM     24  N   UNL     1      43.600  71.978  33.827  0.00  0.00    +0.000 NA
ATOM     25  O   UNL     1      43.492  73.229  34.166  0.00  0.00    +0.000 OA
ATOM     26  C   UNL     1      43.354  73.929  33.057  0.00  0.00    +0.000 A 
ATOM     27  N   UNL     1      43.384  73.055  32.071  0.00  0.00    +0.000 NA
ATOM     28  N   UNL     1      43.193  75.286  32.677  0.00  0.00    +0.000 N 
ATOM     29  C   UNL     1      43.803  75.818  31.447  0.00  0.00    +0.000 C 
ATOM     30  C   UNL     1      43.980  77.294  31.814  0.00  0.00    +0.000 C 
ATOM     31  C   UNL     1      42.603  77.546  32.409  0.00  0.00    +0.000 C 
ATOM     32  C   UNL     1      42.459  76.356  33.349  0.00  0.00    +0.000 C 
ENDBRANCH   6  23
TORSDOF 2
