REMARK  Name = 
REMARK  4 active torsions:
REMARK  status: ('A' for Active; 'I' for Inactive)
REMARK    1  A    between atoms: C_2  and  C_7
REMARK    2  A    between atoms: C_5  and  C_17
REMARK    3  A    between atoms: C_17  and  C_18
REMARK    4  A    between atoms: C_18  and  C_19
REMARK                            x       y       z     vdW  Elec       q    Type
REMARK                         _______ _______ _______ _____ _____    ______ ____
ROOT
ATOM      1  C   UNL     1      47.402  69.755  31.317  0.00  0.00    +0.000 C 
ATOM      2  C   UNL     1      46.879  70.384  30.241  0.00  0.00    +0.000 C 
ATOM      3  C   UNL     1      47.088  69.769  29.031  0.00  0.00    +0.000 C 
ATOM      4  N   UNL     1      47.780  68.608  28.984  0.00  0.00    +0.000 NA
ATOM      5  C   UNL     1      48.274  68.026  30.052  0.00  0.00    +0.000 C 
ATOM      6  N   UNL     1      48.098  68.581  31.229  0.00  0.00    +0.000 N 
ATOM      7  H   UNL     1      48.480  68.137  32.076  0.00  0.00    +0.000 HD
ENDROOT
BRANCH   2   8
ATOM      8  C   UNL     1      46.139  71.628  30.467  0.00  0.00    +0.000 C 
ATOM      9  N   UNL     1      46.947  72.720  30.391  0.00  0.00    +0.000 NA
ATOM     10  C   UNL     1      46.517  73.956  30.691  0.00  0.00    +0.000 C 
ATOM     11  N   UNL     1      45.261  74.154  31.247  0.00  0.00    +0.000 N 
ATOM     12  C   UNL     1      44.506  73.050  31.482  0.00  0.00    +0.000 A 
ATOM     13  C   UNL     1      43.282  73.145  32.071  0.00  0.00    +0.000 A 
ATOM     14  C   UNL     1      42.540  71.996  32.357  0.00  0.00    +0.000 A 
ATOM     15  C   UNL     1      43.045  70.740  32.043  0.00  0.00    +0.000 A 
ATOM     16  C   UNL     1      44.297  70.653  31.441  0.00  0.00    +0.000 A 
ATOM     17  C   UNL     1      44.977  71.811  31.182  0.00  0.00    +0.000 A 
ATOM     18  H   UNL     1      44.916  75.098  31.472  0.00  0.00    +0.000 HD
ENDBRANCH   2   8
BRANCH   5  19
ATOM     19  C   UNL     1      49.012  66.746  29.928  0.00  0.00    +0.000 C 
BRANCH  19  20
ATOM     20  C   UNL     1      49.284  66.394  28.471  0.00  0.00    +0.000 C 
BRANCH  20  21
ATOM     21  C   UNL     1      48.301  65.441  27.936  0.00  0.00    +0.000 A 
ATOM     22  C   UNL     1      48.697  64.682  26.831  0.00  0.00    +0.000 A 
ATOM     23  C   UNL     1      47.784  63.776  26.309  0.00  0.00    +0.000 A 
ATOM     24  N   UNL     1      46.572  63.656  26.870  0.00  0.00    +0.000 NA
ATOM     25  C   UNL     1      46.184  64.376  27.927  0.00  0.00    +0.000 A 
ATOM     26  N   UNL     1      47.079  65.267  28.440  0.00  0.00    +0.000 NA
ATOM     27  N   UNL     1      44.882  64.197  28.471  0.00  0.00    +0.000 N 
ATOM     28  C   UNL     1      44.044  65.249  28.671  0.00  0.00    +0.000 A 
ATOM     29  N   UNL     1      42.894  64.830  29.185  0.00  0.00    +0.000 NA
ATOM     30  C   UNL     1      42.946  63.514  29.335  0.00  0.00    +0.000 A 
ATOM     31  C   UNL     1      42.108  62.502  29.803  0.00  0.00    +0.000 A 
ATOM     32  N   UNL     1      42.544  61.225  29.794  0.00  0.00    +0.000 NA
ATOM     33  C   UNL     1      43.762  60.864  29.353  0.00  0.00    +0.000 A 
ATOM     34  N   UNL     1      44.605  61.834  28.890  0.00  0.00    +0.000 NA
ATOM     35  C   UNL     1      44.192  63.120  28.888  0.00  0.00    +0.000 A 
ENDBRANCH  20  21
ENDBRANCH  19  20
ENDBRANCH   5  19
TORSDOF 4
