REMARK  Name = 
REMARK  2 active torsions:
REMARK  status: ('A' for Active; 'I' for Inactive)
REMARK    1  A    between atoms: C_5  and  C_12
REMARK    2  A    between atoms: C_11  and  C_23
REMARK                            x       y       z     vdW  Elec       q    Type
REMARK                         _______ _______ _______ _____ _____    ______ ____
ROOT
ATOM      1  C   UNL     1      42.658  76.159  31.545  0.00  0.00    +0.000 A 
ATOM      2  C   UNL     1      41.641  75.776  32.441  0.00  0.00    +0.000 A 
ATOM      3  C   UNL     1      41.687  74.431  32.894  0.00  0.00    +0.000 A 
ATOM      4  N   UNL     1      42.661  73.658  32.448  0.00  0.00    +0.000 NA
ATOM      5  C   UNL     1      43.621  74.051  31.590  0.00  0.00    +0.000 A 
ATOM      6  N   UNL     1      43.591  75.316  31.154  0.00  0.00    +0.000 NA
ATOM      7  N   UNL     1      40.811  73.797  33.794  0.00  0.00    +0.000 N 
ATOM      8  N   UNL     1      40.589  74.396  34.964  0.00  0.00    +0.000 NA
ATOM      9  C   UNL     1      39.733  73.683  35.696  0.00  0.00    +0.000 A 
ATOM     10  C   UNL     1      39.424  72.592  34.924  0.00  0.00    +0.000 A 
ATOM     11  C   UNL     1      40.109  72.657  33.705  0.00  0.00    +0.000 A 
ENDROOT
BRANCH   5  12
ATOM     12  C   UNL     1      44.684  73.192  31.098  0.00  0.00    +0.000 A 
ATOM     13  N   UNL     1      45.081  72.810  29.836  0.00  0.00    +0.000 NA
ATOM     14  O   UNL     1      46.113  72.013  29.965  0.00  0.00    +0.000 OA
ATOM     15  C   UNL     1      46.417  71.848  31.219  0.00  0.00    +0.000 A 
ATOM     16  N   UNL     1      45.555  72.563  31.952  0.00  0.00    +0.000 NA
ATOM     17  N   UNL     1      47.486  71.042  31.700  0.00  0.00    +0.000 N 
ATOM     18  C   UNL     1      48.371  71.549  32.739  0.00  0.00    +0.000 C 
ATOM     19  C   UNL     1      48.245  70.478  33.816  0.00  0.00    +0.000 C 
ATOM     20  O   UNL     1      48.871  69.357  33.323  0.00  0.00    +0.000 OA
ATOM     21  C   UNL     1      48.327  68.786  32.206  0.00  0.00    +0.000 C 
ATOM     22  C   UNL     1      47.746  69.727  31.206  0.00  0.00    +0.000 C 
ENDBRANCH   5  12
BRANCH  11  23
ATOM     23  C   UNL     1      39.963  71.666  32.660  0.00  0.00    +0.000 A 
ATOM     24  C   UNL     1      38.974  71.560  31.708  0.00  0.00    +0.000 A 
ATOM     25  C   UNL     1      38.845  70.601  30.751  0.00  0.00    +0.000 A 
ATOM     26  C   UNL     1      39.796  69.607  30.699  0.00  0.00    +0.000 A 
ATOM     27  C   UNL     1      40.827  69.629  31.612  0.00  0.00    +0.000 A 
ATOM     28  C   UNL     1      41.735  68.600  31.498  0.00  0.00    +0.000 A 
ATOM     29  C   UNL     1      42.790  68.542  32.373  0.00  0.00    +0.000 A 
ATOM     30  C   UNL     1      42.918  69.509  33.341  0.00  0.00    +0.000 A 
ATOM     31  C   UNL     1      41.973  70.508  33.393  0.00  0.00    +0.000 A 
ATOM     32  C   UNL     1      40.900  70.630  32.558  0.00  0.00    +0.000 A 
ENDBRANCH  11  23
TORSDOF 2
