REMARK  Name = 
REMARK  5 active torsions:
REMARK  status: ('A' for Active; 'I' for Inactive)
REMARK    1  A    between atoms: C_2  and  C_7
REMARK    2  A    between atoms: C_5  and  C_17
REMARK    3  A    between atoms: C_17  and  C_18
REMARK    4  A    between atoms: C_18  and  C_19
REMARK    5  A    between atoms: C_27  and  C_28
REMARK                            x       y       z     vdW  Elec       q    Type
REMARK                         _______ _______ _______ _____ _____    ______ ____
ROOT
ATOM      1  C   UNL     1      47.587  69.449  31.153  0.00  0.00    +0.000 C 
ATOM      2  C   UNL     1      47.023  70.103  30.113  0.00  0.00    +0.000 C 
ATOM      3  C   UNL     1      47.192  69.518  28.883  0.00  0.00    +0.000 C 
ATOM      4  N   UNL     1      47.886  68.362  28.782  0.00  0.00    +0.000 NA
ATOM      5  C   UNL     1      48.419  67.755  29.818  0.00  0.00    +0.000 C 
ATOM      6  N   UNL     1      48.281  68.280  31.009  0.00  0.00    +0.000 N 
ATOM      7  H   UNL     1      48.692  67.816  31.831  0.00  0.00    +0.000 HD
ENDROOT
BRANCH   2   8
ATOM      8  C   UNL     1      46.286  71.338  30.391  0.00  0.00    +0.000 C 
ATOM      9  N   UNL     1      47.095  72.430  30.361  0.00  0.00    +0.000 NA
ATOM     10  C   UNL     1      46.674  73.652  30.721  0.00  0.00    +0.000 C 
ATOM     11  N   UNL     1      45.423  73.830  31.294  0.00  0.00    +0.000 N 
ATOM     12  C   UNL     1      44.664  72.717  31.482  0.00  0.00    +0.000 A 
ATOM     13  C   UNL     1      43.445  72.789  32.085  0.00  0.00    +0.000 A 
ATOM     14  C   UNL     1      42.701  71.632  32.323  0.00  0.00    +0.000 A 
ATOM     15  C   UNL     1      43.200  70.389  31.946  0.00  0.00    +0.000 A 
ATOM     16  C   UNL     1      44.442  70.328  31.331  0.00  0.00    +0.000 A 
ATOM     17  C   UNL     1      45.128  71.492  31.120  0.00  0.00    +0.000 A 
ATOM     18  H   UNL     1      45.084  74.764  31.565  0.00  0.00    +0.000 HD
ENDBRANCH   2   8
BRANCH   5  19
ATOM     19  C   UNL     1      49.159  66.482  29.641  0.00  0.00    +0.000 C 
BRANCH  19  20
ATOM     20  C   UNL     1      49.140  66.020  28.186  0.00  0.00    +0.000 C 
BRANCH  20  21
ATOM     21  C   UNL     1      48.018  65.137  27.882  0.00  0.00    +0.000 A 
ATOM     22  C   UNL     1      48.061  64.449  26.672  0.00  0.00    +0.000 A 
ATOM     23  C   UNL     1      46.996  63.596  26.358  0.00  0.00    +0.000 A 
ATOM     24  N   UNL     1      45.980  63.469  27.219  0.00  0.00    +0.000 NA
ATOM     25  C   UNL     1      45.930  64.130  28.390  0.00  0.00    +0.000 A 
ATOM     26  N   UNL     1      46.968  64.951  28.678  0.00  0.00    +0.000 NA
ATOM     27  N   UNL     1      44.812  63.916  29.213  0.00  0.00    +0.000 N 
ATOM     28  C   UNL     1      44.889  62.774  29.941  0.00  0.00    +0.000 A 
ATOM     29  C   UNL     1      43.892  62.390  30.806  0.00  0.00    +0.000 A 
ATOM     30  C   UNL     1      43.917  61.154  31.629  0.00  0.00    +0.000 C 
ATOM     31  C   UNL     1      42.772  63.196  30.937  0.00  0.00    +0.000 A 
ATOM     32  O   UNL     1      41.828  62.873  31.729  0.00  0.00    +0.000 OA
ATOM     33  N   UNL     1      42.723  64.317  30.208  0.00  0.00    +0.000 N 
ATOM     34  C   UNL     1      43.711  64.668  29.370  0.00  0.00    +0.000 A 
ATOM     35  O   UNL     1      43.704  65.718  28.663  0.00  0.00    +0.000 OA
ATOM     36  H   UNL     1      41.900  64.931  30.293  0.00  0.00    +0.000 HD
ENDBRANCH  20  21
ENDBRANCH  19  20
ENDBRANCH   5  19
TORSDOF 4
