REMARK  Name = 
REMARK  7 active torsions:
REMARK  status: ('A' for Active; 'I' for Inactive)
REMARK    1  A    between atoms: C_5  and  O_18
REMARK    2  A    between atoms: C_7  and  C_10
REMARK    3  A    between atoms: C_10  and  C_11
REMARK    4  A    between atoms: C_11  and  C_12
REMARK    5  A    between atoms: O_18  and  C_19
REMARK    6  A    between atoms: C_19  and  C_25
REMARK    7  A    between atoms: C_23  and  N_27
REMARK                            x       y       z     vdW  Elec       q    Type
REMARK                         _______ _______ _______ _____ _____    ______ ____
ROOT
ATOM      1  N   UNL     1      54.544  73.047  34.260  0.00  0.00    +0.000 N 
ATOM      2  C   UNL     1      54.038  74.232  33.847  0.00  0.00    +0.000 A 
ATOM      3  N   UNL     1      52.815  73.970  33.353  0.00  0.00    +0.000 NA
ATOM      4  C   UNL     1      52.578  72.670  33.457  0.00  0.00    +0.000 A 
ATOM      5  C   UNL     1      51.455  71.942  33.081  0.00  0.00    +0.000 A 
ATOM      6  N   UNL     1      51.495  70.617  33.313  0.00  0.00    +0.000 NA
ATOM      7  C   UNL     1      52.556  70.013  33.876  0.00  0.00    +0.000 A 
ATOM      8  N   UNL     1      53.633  70.735  34.232  0.00  0.00    +0.000 NA
ATOM      9  C   UNL     1      53.669  72.058  34.035  0.00  0.00    +0.000 A 
ATOM     10  H   UNL     1      55.473  72.923  34.688  0.00  0.00    +0.000 HD
ENDROOT
BRANCH   7  11
ATOM     11  C   UNL     1      52.434  68.534  34.060  0.00  0.00    +0.000 C 
BRANCH  11  12
ATOM     12  C   UNL     1      53.735  68.006  34.673  0.00  0.00    +0.000 C 
BRANCH  12  13
ATOM     13  C   UNL     1      54.488  67.309  33.614  0.00  0.00    +0.000 A 
ATOM     14  C   UNL     1      55.677  67.845  33.181  0.00  0.00    +0.000 A 
ATOM     15  C   UNL     1      56.308  67.099  32.173  0.00  0.00    +0.000 A 
ATOM     16  C   UNL     1      55.760  65.938  31.680  0.00  0.00    +0.000 A 
ATOM     17  C   UNL     1      54.556  65.452  32.161  0.00  0.00    +0.000 A 
ATOM     18  N   UNL     1      53.964  66.186  33.134  0.00  0.00    +0.000 NA
ENDBRANCH  12  13
ENDBRANCH  11  12
ENDBRANCH   7  11
BRANCH   5  19
ATOM     19  O   UNL     1      50.318  72.466  32.498  0.00  0.00    +0.000 OA
BRANCH  19  20
ATOM     20  C   UNL     1      49.074  71.852  32.590  0.00  0.00    +0.000 C 
ATOM     21  O   UNL     1      48.652  71.696  33.754  0.00  0.00    +0.000 OA
BRANCH  20  26
ATOM     22  C   UNL     1      46.839  71.952  29.712  0.00  0.00    +0.000 A 
ATOM     23  C   UNL     1      46.887  70.671  29.219  0.00  0.00    +0.000 A 
ATOM     24  C   UNL     1      47.698  69.741  29.876  0.00  0.00    +0.000 A 
ATOM     25  N   UNL     1      48.415  70.132  30.982  0.00  0.00    +0.000 NA
ATOM     26  C   UNL     1      48.328  71.427  31.432  0.00  0.00    +0.000 A 
ATOM     27  N   UNL     1      47.558  72.296  30.801  0.00  0.00    +0.000 NA
BRANCH  24  28
ATOM     28  N   UNL     1      47.748  68.423  29.370  0.00  0.00    +0.000 N 
ATOM     29  C   UNL     1      48.841  67.653  29.105  0.00  0.00    +0.000 A 
ATOM     30  N   UNL     1      48.458  66.447  28.629  0.00  0.00    +0.000 NA
ATOM     31  C   UNL     1      47.120  66.411  28.577  0.00  0.00    +0.000 A 
ATOM     32  C   UNL     1      46.269  65.410  28.167  0.00  0.00    +0.000 A 
ATOM     33  N   UNL     1      44.945  65.654  28.222  0.00  0.00    +0.000 NA
ATOM     34  C   UNL     1      44.500  66.851  28.671  0.00  0.00    +0.000 A 
ATOM     35  N   UNL     1      45.346  67.816  29.067  0.00  0.00    +0.000 NA
ATOM     36  C   UNL     1      46.684  67.646  29.040  0.00  0.00    +0.000 A 
ENDBRANCH  24  28
ENDBRANCH  20  26
ENDBRANCH  19  20
ENDBRANCH   5  19
TORSDOF 7
