REMARK  Name = 
REMARK  2 active torsions:
REMARK  status: ('A' for Active; 'I' for Inactive)
REMARK    1  A    between atoms: C_1  and  C_17
REMARK    2  A    between atoms: C_15  and  N_21
REMARK                            x       y       z     vdW  Elec       q    Type
REMARK                         _______ _______ _______ _____ _____    ______ ____
ROOT
ATOM      1  C   UNL     1      44.692  71.059  31.144  0.00  0.00    +0.000 A 
ATOM      2  C   UNL     1      44.223  72.351  31.455  0.00  0.00    +0.000 A 
ATOM      3  C   UNL     1      45.029  73.444  31.198  0.00  0.00    +0.000 A 
ATOM      4  N   UNL     1      46.255  73.236  30.650  0.00  0.00    +0.000 NA
ATOM      5  C   UNL     1      46.686  71.999  30.359  0.00  0.00    +0.000 A 
ATOM      6  N   UNL     1      45.913  70.933  30.605  0.00  0.00    +0.000 NA
ENDROOT
BRANCH   3   7
ATOM      7  C   UNL     1      44.572  74.781  31.548  0.00  0.00    +0.000 A 
ATOM      8  C   UNL     1      45.454  75.838  31.372  0.00  0.00    +0.000 A 
ATOM      9  C   UNL     1      44.903  77.062  31.760  0.00  0.00    +0.000 A 
ATOM     10  C   UNL     1      43.650  77.216  32.255  0.00  0.00    +0.000 A 
ATOM     11  C   UNL     1      42.839  76.118  32.398  0.00  0.00    +0.000 A 
ATOM     12  N   UNL     1      43.326  74.892  32.033  0.00  0.00    +0.000 NA
ATOM     13  N   UNL     1      41.495  76.117  32.905  0.00  0.00    +0.000 N 
ATOM     14  C   UNL     1      41.002  76.723  34.001  0.00  0.00    +0.000 A 
ATOM     15  C   UNL     1      39.671  76.576  34.280  0.00  0.00    +0.000 A 
ATOM     16  C   UNL     1      38.845  75.828  33.466  0.00  0.00    +0.000 A 
ATOM     17  O   UNL     1      37.615  75.725  33.775  0.00  0.00    +0.000 OA
ATOM     18  N   UNL     1      39.382  75.229  32.365  0.00  0.00    +0.000 N 
ATOM     19  C   UNL     1      40.691  75.380  32.100  0.00  0.00    +0.000 A 
ATOM     20  O   UNL     1      41.032  74.769  31.051  0.00  0.00    +0.000 OA
ATOM     21  H   UNL     1      38.788  74.665  31.741  0.00  0.00    +0.000 HD
ENDBRANCH   3   7
BRANCH   1  22
ATOM     22  N   UNL     1      43.878  69.917  31.408  0.00  0.00    +0.000 N 
ATOM     23  C   UNL     1      44.165  68.680  30.970  0.00  0.00    +0.000 A 
ATOM     24  C   UNL     1      43.080  67.898  31.466  0.00  0.00    +0.000 A 
ATOM     25  N   UNL     1      42.234  68.716  32.156  0.00  0.00    +0.000 NA
ATOM     26  C   UNL     1      42.731  69.969  32.120  0.00  0.00    +0.000 A 
ATOM     27  N   UNL     1      41.947  70.908  32.817  0.00  0.00    +0.000 N 
ATOM     28  C   UNL     1      40.735  71.333  32.341  0.00  0.00    +0.000 A 
ATOM     29  N   UNL     1      40.168  72.227  33.205  0.00  0.00    +0.000 NA
ATOM     30  C   UNL     1      41.040  72.354  34.223  0.00  0.00    +0.000 A 
ATOM     31  N   UNL     1      42.079  71.573  33.980  0.00  0.00    +0.000 NA
ENDBRANCH   1  22
TORSDOF 2
