REMARK  Name = 
REMARK  4 active torsions:
REMARK  status: ('A' for Active; 'I' for Inactive)
REMARK    1  A    between atoms: C_1  and  C_3
REMARK    2  A    between atoms: C_1  and  C_17
REMARK    3  A    between atoms: C_10  and  C_16
REMARK    4  A    between atoms: C_19  and  C_20
REMARK                            x       y       z     vdW  Elec       q    Type
REMARK                         _______ _______ _______ _____ _____    ______ ____
ROOT
ATOM      1  C   UNL     1      44.451  75.996  31.599  0.00  0.00    +0.000 C 
ATOM      2  C   UNL     1      44.628  77.375  32.028  0.00  0.00    +0.000 C 
ATOM      3  C   UNL     1      43.287  77.011  31.614  0.00  0.00    +0.000 C 
ENDROOT
BRANCH   3   4
ATOM      4  C   UNL     1      42.163  76.805  32.545  0.00  0.00    +0.000 A 
ATOM      5  N   UNL     1      41.919  77.305  33.795  0.00  0.00    +0.000 NA
ATOM      6  O   UNL     1      40.805  76.832  34.233  0.00  0.00    +0.000 OA
ATOM      7  C   UNL     1      40.278  76.027  33.329  0.00  0.00    +0.000 A 
ATOM      8  N   UNL     1      41.120  76.000  32.265  0.00  0.00    +0.000 NA
ATOM      9  N   UNL     1      39.073  75.246  33.288  0.00  0.00    +0.000 N 
ATOM     10  C   UNL     1      39.138  73.966  32.863  0.00  0.00    +0.000 A 
ATOM     11  C   UNL     1      37.936  73.252  32.843  0.00  0.00    +0.000 A 
ATOM     12  C   UNL     1      36.734  73.809  33.234  0.00  0.00    +0.000 A 
ATOM     13  N   UNL     1      35.521  73.056  33.204  0.00  0.00    +0.000 N 
ATOM     14  N   UNL     1      36.753  75.101  33.649  0.00  0.00    +0.000 NA
ATOM     15  C   UNL     1      37.903  75.820  33.679  0.00  0.00    +0.000 A 
ATOM     16  O   UNL     1      37.930  77.026  34.064  0.00  0.00    +0.000 OA
ATOM     17  H   UNL     1      34.636  73.493  33.500  0.00  0.00    +0.000 HD
ATOM     18  H   UNL     1      35.531  72.076  32.886  0.00  0.00    +0.000 HD
ENDBRANCH   3   4
BRANCH   1  19
ATOM     19  C   UNL     1      44.415  74.860  32.549  0.00  0.00    +0.000 C 
BRANCH  19  21
ATOM     20  C   UNL     1      45.894  72.795  32.795  0.00  0.00    +0.000 A 
ATOM     21  C   UNL     1      45.074  73.673  32.081  0.00  0.00    +0.000 A 
ATOM     22  C   UNL     1      44.853  73.384  30.747  0.00  0.00    +0.000 A 
ATOM     23  N   UNL     1      45.448  72.267  30.213  0.00  0.00    +0.000 NA
ATOM     24  C   UNL     1      46.237  71.439  30.931  0.00  0.00    +0.000 A 
ATOM     25  N   UNL     1      46.451  71.719  32.227  0.00  0.00    +0.000 NA
ATOM     26  N   UNL     1      46.808  70.307  30.285  0.00  0.00    +0.000 N 
ATOM     27  C   UNL     1      46.022  69.298  29.897  0.00  0.00    +0.000 A 
ATOM     28  C   UNL     1      46.448  68.148  29.262  0.00  0.00    +0.000 A 
ATOM     29  C   UNL     1      47.809  68.050  29.014  0.00  0.00    +0.000 A 
ATOM     30  O   UNL     1      48.261  67.043  28.447  0.00  0.00    +0.000 OA
ATOM     31  N   UNL     1      48.601  69.080  29.412  0.00  0.00    +0.000 N 
ATOM     32  C   UNL     1      48.131  70.197  30.036  0.00  0.00    +0.000 A 
ATOM     33  O   UNL     1      48.906  71.122  30.385  0.00  0.00    +0.000 OA
ATOM     34  C   UNL     1      45.485  67.098  28.879  0.00  0.00    +0.000 C 
ATOM     35  H   UNL     1      49.613  69.013  29.232  0.00  0.00    +0.000 HD
ENDBRANCH  19  21
ENDBRANCH   1  19
TORSDOF 3
