REMARK  Name = 
REMARK  2 active torsions:
REMARK  status: ('A' for Active; 'I' for Inactive)
REMARK    1  A    between atoms: C_1  and  C_19
REMARK    2  A    between atoms: C_6  and  C_7
REMARK                            x       y       z     vdW  Elec       q    Type
REMARK                         _______ _______ _______ _____ _____    ______ ____
ROOT
ATOM      1  C   UNL     1      44.739  70.136  31.142  0.00  0.00    +0.000 A 
ATOM      2  C   UNL     1      44.812  68.879  30.554  0.00  0.00    +0.000 A 
ATOM      3  C   UNL     1      43.722  67.997  30.638  0.00  0.00    +0.000 A 
ATOM      4  C   UNL     1      42.583  68.416  31.322  0.00  0.00    +0.000 A 
ATOM      5  C   UNL     1      42.496  69.663  31.912  0.00  0.00    +0.000 A 
ATOM      6  C   UNL     1      43.599  70.493  31.799  0.00  0.00    +0.000 A 
ENDROOT
BRANCH   1   9
ATOM      7  C   UNL     1      47.171  72.775  29.948  0.00  0.00    +0.000 A 
ATOM      8  C   UNL     1      46.000  71.988  30.046  0.00  0.00    +0.000 A 
ATOM      9  C   UNL     1      45.903  70.962  31.001  0.00  0.00    +0.000 A 
ATOM     10  N   UNL     1      46.969  70.765  31.812  0.00  0.00    +0.000 NA
ATOM     11  C   UNL     1      48.092  71.546  31.690  0.00  0.00    +0.000 A 
ATOM     12  N   UNL     1      48.181  72.511  30.791  0.00  0.00    +0.000 NA
ATOM     13  N   UNL     1      49.225  71.334  32.553  0.00  0.00    +0.000 N 
ATOM     14  N   UNL     1      50.238  72.101  32.173  0.00  0.00    +0.000 NA
ATOM     15  C   UNL     1      51.304  71.904  32.982  0.00  0.00    +0.000 A 
ATOM     16  C   UNL     1      50.911  70.947  33.923  0.00  0.00    +0.000 A 
ATOM     17  C   UNL     1      49.588  70.604  33.625  0.00  0.00    +0.000 A 
ENDBRANCH   1   9
BRANCH   6  18
ATOM     18  C   UNL     1      43.484  71.807  32.432  0.00  0.00    +0.000 A 
ATOM     19  N   UNL     1      43.490  71.972  33.774  0.00  0.00    +0.000 NA
ATOM     20  O   UNL     1      43.377  73.219  34.109  0.00  0.00    +0.000 OA
ATOM     21  C   UNL     1      43.291  73.934  33.003  0.00  0.00    +0.000 A 
ATOM     22  N   UNL     1      43.357  73.061  31.998  0.00  0.00    +0.000 NA
ATOM     23  N   UNL     1      43.156  75.288  32.624  0.00  0.00    +0.000 N 
ATOM     24  C   UNL     1      43.833  75.832  31.429  0.00  0.00    +0.000 C 
ATOM     25  C   UNL     1      44.019  77.301  31.822  0.00  0.00    +0.000 C 
ATOM     26  C   UNL     1      42.620  77.563  32.368  0.00  0.00    +0.000 C 
ATOM     27  C   UNL     1      42.397  76.360  33.254  0.00  0.00    +0.000 C 
ENDBRANCH   6  18
TORSDOF 2
