REMARK  Name = 
REMARK  3 active torsions:
REMARK  status: ('A' for Active; 'I' for Inactive)
REMARK    1  A    between atoms: C_1  and  C_8
REMARK    2  A    between atoms: C_4  and  C_13
REMARK    3  A    between atoms: C_16  and  C_18
REMARK                            x       y       z     vdW  Elec       q    Type
REMARK                         _______ _______ _______ _____ _____    ______ ____
ROOT
ATOM      1  C   UNL     1      46.402  65.046  28.189  0.00  0.00    +0.000 A 
ATOM      2  C   UNL     1      46.700  64.362  27.004  0.00  0.00    +0.000 A 
ATOM      3  S   UNL     1      45.455  63.053  27.023  0.00  0.00    +0.000 S 
ATOM      4  C   UNL     1      44.712  63.629  28.640  0.00  0.00    +0.000 A 
ATOM      5  N   UNL     1      45.399  64.515  28.826  0.00  0.00    +0.000 NA
ENDROOT
BRANCH   4   6
ATOM      6  C   UNL     1      43.588  63.198  29.542  0.00  0.00    +0.000 A 
ATOM      7  C   UNL     1      43.583  63.612  30.856  0.00  0.00    +0.000 A 
ATOM      8  C   UNL     1      42.538  63.194  31.632  0.00  0.00    +0.000 A 
ATOM      9  C   UNL     1      41.520  62.406  31.193  0.00  0.00    +0.000 A 
ATOM     10  C   UNL     1      41.547  62.006  29.882  0.00  0.00    +0.000 A 
ATOM     11  C   UNL     1      40.513  61.208  29.443  0.00  0.00    +0.000 A 
ATOM     12  C   UNL     1      40.457  60.762  28.142  0.00  0.00    +0.000 A 
ATOM     13  C   UNL     1      41.505  61.166  27.318  0.00  0.00    +0.000 A 
ATOM     14  C   UNL     1      42.507  61.959  27.805  0.00  0.00    +0.000 A 
ATOM     15  C   UNL     1      42.587  62.413  29.078  0.00  0.00    +0.000 A 
ENDBRANCH   4   6
BRANCH   1  19
ATOM     16  C   UNL     1      47.807  68.228  29.118  0.00  0.00    +0.000 A 
ATOM     17  C   UNL     1      48.964  67.497  29.012  0.00  0.00    +0.000 A 
ATOM     18  C   UNL     1      48.636  66.219  28.655  0.00  0.00    +0.000 A 
ATOM     19  C   UNL     1      47.228  66.230  28.556  0.00  0.00    +0.000 A 
ATOM     20  O   UNL     1      46.798  67.416  28.835  0.00  0.00    +0.000 OA
BRANCH  16  23
ATOM     21  C   UNL     1      46.459  71.695  29.718  0.00  0.00    +0.000 A 
ATOM     22  C   UNL     1      46.497  70.339  29.346  0.00  0.00    +0.000 A 
ATOM     23  C   UNL     1      47.668  69.634  29.474  0.00  0.00    +0.000 A 
ATOM     24  N   UNL     1      48.743  70.309  29.964  0.00  0.00    +0.000 NA
ATOM     25  C   UNL     1      48.708  71.595  30.316  0.00  0.00    +0.000 A 
ATOM     26  N   UNL     1      47.565  72.275  30.189  0.00  0.00    +0.000 NA
ATOM     27  N   UNL     1      49.923  72.123  30.803  0.00  0.00    +0.000 N 
ATOM     28  H   UNL     1      49.976  73.109  31.095  0.00  0.00    +0.000 HD
ATOM     29  H   UNL     1      50.757  71.522  30.866  0.00  0.00    +0.000 HD
ENDBRANCH  16  23
ENDBRANCH   1  19
TORSDOF 3
