REMARK  Name = 
REMARK  4 active torsions:
REMARK  status: ('A' for Active; 'I' for Inactive)
REMARK    1  A    between atoms: C_2  and  C_7
REMARK    2  A    between atoms: C_5  and  C_17
REMARK    3  A    between atoms: C_17  and  C_18
REMARK    4  A    between atoms: C_18  and  C_19
REMARK                            x       y       z     vdW  Elec       q    Type
REMARK                         _______ _______ _______ _____ _____    ______ ____
ROOT
ATOM      1  C   UNL     1      47.631  69.469  31.168  0.00  0.00    +0.000 C 
ATOM      2  C   UNL     1      47.007  70.073  30.133  0.00  0.00    +0.000 C 
ATOM      3  C   UNL     1      47.112  69.433  28.926  0.00  0.00    +0.000 C 
ATOM      4  N   UNL     1      47.807  68.275  28.841  0.00  0.00    +0.000 NA
ATOM      5  C   UNL     1      48.398  67.719  29.871  0.00  0.00    +0.000 C 
ATOM      6  N   UNL     1      48.324  68.298  31.048  0.00  0.00    +0.000 N 
ATOM      7  H   UNL     1      48.782  67.875  31.868  0.00  0.00    +0.000 HD
ENDROOT
BRANCH   2   8
ATOM      8  C   UNL     1      46.277  71.315  30.397  0.00  0.00    +0.000 C 
ATOM      9  N   UNL     1      47.093  72.402  30.351  0.00  0.00    +0.000 NA
ATOM     10  C   UNL     1      46.684  73.631  30.697  0.00  0.00    +0.000 C 
ATOM     11  N   UNL     1      45.433  73.823  31.273  0.00  0.00    +0.000 N 
ATOM     12  C   UNL     1      44.669  72.718  31.476  0.00  0.00    +0.000 A 
ATOM     13  C   UNL     1      43.453  72.805  32.083  0.00  0.00    +0.000 A 
ATOM     14  C   UNL     1      42.700  71.663  32.339  0.00  0.00    +0.000 A 
ATOM     15  C   UNL     1      43.185  70.410  31.974  0.00  0.00    +0.000 A 
ATOM     16  C   UNL     1      44.428  70.331  31.355  0.00  0.00    +0.000 A 
ATOM     17  C   UNL     1      45.121  71.485  31.127  0.00  0.00    +0.000 A 
ATOM     18  H   UNL     1      45.100  74.762  31.534  0.00  0.00    +0.000 HD
ENDBRANCH   2   8
BRANCH   5  19
ATOM     19  C   UNL     1      49.132  66.440  29.709  0.00  0.00    +0.000 C 
BRANCH  19  20
ATOM     20  C   UNL     1      49.192  65.998  28.268  0.00  0.00    +0.000 C 
BRANCH  20  21
ATOM     21  C   UNL     1      48.114  65.069  27.908  0.00  0.00    +0.000 A 
ATOM     22  C   UNL     1      48.156  64.509  26.627  0.00  0.00    +0.000 A 
ATOM     23  C   UNL     1      47.142  63.630  26.274  0.00  0.00    +0.000 A 
ATOM     24  N   UNL     1      46.162  63.338  27.145  0.00  0.00    +0.000 NA
ATOM     25  C   UNL     1      46.117  63.873  28.377  0.00  0.00    +0.000 A 
ATOM     26  N   UNL     1      47.113  64.738  28.725  0.00  0.00    +0.000 NA
ATOM     27  N   UNL     1      45.119  63.619  29.360  0.00  0.00    +0.000 N 
ATOM     28  C   UNL     1      45.159  62.615  30.283  0.00  0.00    +0.000 A 
ATOM     29  C   UNL     1      44.132  62.461  31.192  0.00  0.00    +0.000 A 
ATOM     30  C   UNL     1      43.101  63.373  31.092  0.00  0.00    +0.000 A 
ATOM     31  O   UNL     1      42.129  63.270  31.914  0.00  0.00    +0.000 OA
ATOM     32  N   UNL     1      43.037  64.372  30.192  0.00  0.00    +0.000 N 
ATOM     33  C   UNL     1      44.059  64.481  29.328  0.00  0.00    +0.000 A 
ATOM     34  O   UNL     1      43.969  65.425  28.498  0.00  0.00    +0.000 OA
ATOM     35  H   UNL     1      42.240  65.024  30.167  0.00  0.00    +0.000 HD
ENDBRANCH  20  21
ENDBRANCH  19  20
ENDBRANCH   5  19
TORSDOF 4
