REMARK  Name = 
REMARK  2 active torsions:
REMARK  status: ('A' for Active; 'I' for Inactive)
REMARK    1  A    between atoms: C_2  and  N_18
REMARK    2  A    between atoms: C_22  and  N_27
REMARK                            x       y       z     vdW  Elec       q    Type
REMARK                         _______ _______ _______ _____ _____    ______ ____
ROOT
ATOM      1  C   UNL     1      46.968  73.272  30.594  0.00  0.00    +0.000 A 
ATOM      2  C   UNL     1      45.632  73.419  30.983  0.00  0.00    +0.000 A 
ATOM      3  C   UNL     1      44.822  72.264  31.076  0.00  0.00    +0.000 A 
ATOM      4  N   UNL     1      45.415  71.072  30.775  0.00  0.00    +0.000 NA
ATOM      5  C   UNL     1      46.711  70.958  30.402  0.00  0.00    +0.000 A 
ATOM      6  N   UNL     1      47.479  72.059  30.313  0.00  0.00    +0.000 NA
ATOM      7  N   UNL     1      47.278  69.688  30.099  0.00  0.00    +0.000 N 
ATOM      8  C   UNL     1      47.138  69.125  28.876  0.00  0.00    +0.000 A 
ATOM      9  N   UNL     1      47.756  67.932  28.834  0.00  0.00    +0.000 NA
ATOM     10  C   UNL     1      48.306  67.709  30.028  0.00  0.00    +0.000 A 
ATOM     11  C   UNL     1      49.052  66.727  30.650  0.00  0.00    +0.000 A 
ATOM     12  O   UNL     1      49.349  65.705  29.961  0.00  0.00    +0.000 OA
ATOM     13  N   UNL     1      49.451  66.851  31.937  0.00  0.00    +0.000 N 
ATOM     14  C   UNL     1      49.134  67.938  32.665  0.00  0.00    +0.000 A 
ATOM     15  N   UNL     1      49.605  67.963  34.009  0.00  0.00    +0.000 N 
ATOM     16  N   UNL     1      48.400  68.940  32.106  0.00  0.00    +0.000 NA
ATOM     17  C   UNL     1      48.005  68.805  30.811  0.00  0.00    +0.000 A 
ATOM     18  H   UNL     1      50.008  66.099  32.368  0.00  0.00    +0.000 HD
ATOM     19  H   UNL     1      49.393  68.769  34.614  0.00  0.00    +0.000 HD
ATOM     20  H   UNL     1      50.157  67.175  34.376  0.00  0.00    +0.000 HD
ENDROOT
BRANCH   2  21
ATOM     21  N   UNL     1      45.023  74.666  31.295  0.00  0.00    +0.000 N 
ATOM     22  C   UNL     1      45.758  75.804  31.387  0.00  0.00    +0.000 A 
ATOM     23  N   UNL     1      44.999  76.890  31.692  0.00  0.00    +0.000 NA
ATOM     24  C   UNL     1      43.729  76.425  31.799  0.00  0.00    +0.000 A 
ATOM     25  C   UNL     1      42.476  76.970  32.082  0.00  0.00    +0.000 C 
ATOM     26  N   UNL     1      41.361  76.196  32.112  0.00  0.00    +0.000 NA
ATOM     27  C   UNL     1      41.470  74.877  31.862  0.00  0.00    +0.000 C 
ATOM     28  N   UNL     1      42.670  74.301  31.581  0.00  0.00    +0.000 N 
ATOM     29  C   UNL     1      43.764  75.063  31.553  0.00  0.00    +0.000 A 
ATOM     30  H   UNL     1      42.733  73.290  31.392  0.00  0.00    +0.000 HD
BRANCH  25  31
ATOM     31  N   UNL     1      42.516  78.379  32.327  0.00  0.00    +0.000 NA
ATOM     32  H   UNL     1      42.521  78.551  33.343  0.00  0.00    +0.000 HD
ATOM     33  H   UNL     1      43.369  78.776  31.907  0.00  0.00    +0.000 HD
ENDBRANCH  25  31
ENDBRANCH   2  21
TORSDOF 2
