REMARK  Name = 
REMARK  3 active torsions:
REMARK  status: ('A' for Active; 'I' for Inactive)
REMARK    1  A    between atoms: C_1  and  C_19
REMARK    2  A    between atoms: C_6  and  C_7
REMARK    3  A    between atoms: C_21  and  C_23
REMARK                            x       y       z     vdW  Elec       q    Type
REMARK                         _______ _______ _______ _____ _____    ______ ____
ROOT
ATOM      1  C   UNL     1      44.628  69.981  31.184  0.00  0.00    +0.000 A 
ATOM      2  C   UNL     1      44.608  68.729  30.598  0.00  0.00    +0.000 A 
ATOM      3  C   UNL     1      43.447  67.939  30.657  0.00  0.00    +0.000 A 
ATOM      4  C   UNL     1      42.338  68.446  31.312  0.00  0.00    +0.000 A 
ATOM      5  C   UNL     1      42.335  69.698  31.905  0.00  0.00    +0.000 A 
ATOM      6  C   UNL     1      43.505  70.438  31.820  0.00  0.00    +0.000 A 
ENDROOT
BRANCH   6   7
ATOM      7  C   UNL     1      43.481  71.751  32.455  0.00  0.00    +0.000 A 
ATOM      8  N   UNL     1      43.604  71.913  33.786  0.00  0.00    +0.000 NA
ATOM      9  O   UNL     1      43.557  73.168  34.133  0.00  0.00    +0.000 OA
ATOM     10  C   UNL     1      43.401  73.883  33.033  0.00  0.00    +0.000 A 
ATOM     11  N   UNL     1      43.356  73.012  32.022  0.00  0.00    +0.000 NA
ATOM     12  N   UNL     1      43.275  75.243  32.661  0.00  0.00    +0.000 N 
ATOM     13  C   UNL     1      43.868  75.769  31.418  0.00  0.00    +0.000 C 
ATOM     14  C   UNL     1      44.119  77.238  31.797  0.00  0.00    +0.000 C 
ATOM     15  C   UNL     1      42.759  77.533  32.427  0.00  0.00    +0.000 C 
ATOM     16  C   UNL     1      42.600  76.340  33.347  0.00  0.00    +0.000 C 
ENDBRANCH   6   7
BRANCH   1  19
ATOM     17  C   UNL     1      47.286  72.462  30.193  0.00  0.00    +0.000 A 
ATOM     18  C   UNL     1      46.024  71.821  30.215  0.00  0.00    +0.000 A 
ATOM     19  C   UNL     1      45.870  70.723  31.069  0.00  0.00    +0.000 A 
ATOM     20  N   UNL     1      46.933  70.357  31.804  0.00  0.00    +0.000 NA
ATOM     21  C   UNL     1      48.143  70.983  31.773  0.00  0.00    +0.000 A 
ATOM     22  N   UNL     1      48.272  72.017  30.964  0.00  0.00    +0.000 NA
BRANCH  21  23
ATOM     23  C   UNL     1      49.094  70.353  32.684  0.00  0.00    +0.000 A 
ATOM     24  C   UNL     1      48.902  69.081  33.178  0.00  0.00    +0.000 A 
ATOM     25  C   UNL     1      49.767  68.443  34.038  0.00  0.00    +0.000 A 
ATOM     26  C   UNL     1      50.912  69.074  34.461  0.00  0.00    +0.000 A 
ATOM     27  C   UNL     1      51.160  70.348  34.002  0.00  0.00    +0.000 A 
ATOM     28  C   UNL     1      52.310  70.975  34.429  0.00  0.00    +0.000 A 
ATOM     29  C   UNL     1      52.615  72.251  34.006  0.00  0.00    +0.000 A 
ATOM     30  C   UNL     1      51.710  72.864  33.133  0.00  0.00    +0.000 A 
ATOM     31  C   UNL     1      50.575  72.192  32.736  0.00  0.00    +0.000 A 
ATOM     32  C   UNL     1      50.254  70.924  33.146  0.00  0.00    +0.000 A 
ENDBRANCH  21  23
ENDBRANCH   1  19
TORSDOF 3
