REMARK  Name = 
REMARK  1 active torsions:
REMARK  status: ('A' for Active; 'I' for Inactive)
REMARK    1  A    between atoms: N_1  and  C_21
REMARK                            x       y       z     vdW  Elec       q    Type
REMARK                         _______ _______ _______ _____ _____    ______ ____
ROOT
ATOM      1  N   UNL     1      44.341  71.223  31.831  0.00  0.00    +0.000 N 
ATOM      2  C   UNL     1      43.422  71.799  32.622  0.00  0.00    +0.000 A 
ATOM      3  N   UNL     1      42.381  70.956  32.727  0.00  0.00    +0.000 NA
ATOM      4  C   UNL     1      42.661  69.867  32.000  0.00  0.00    +0.000 A 
ATOM      5  C   UNL     1      41.902  68.718  31.793  0.00  0.00    +0.000 C 
ATOM      6  N   UNL     1      42.461  67.779  31.000  0.00  0.00    +0.000 NA
ATOM      7  C   UNL     1      43.674  67.919  30.431  0.00  0.00    +0.000 C 
ATOM      8  N   UNL     1      44.400  69.035  30.638  0.00  0.00    +0.000 N 
ATOM      9  C   UNL     1      43.897  70.020  31.427  0.00  0.00    +0.000 A 
ATOM     10  N   UNL     1      44.013  66.776  29.645  0.00  0.00    +0.000 N 
ATOM     11  C   UNL     1      44.787  66.740  28.550  0.00  0.00    +0.000 A 
ATOM     12  N   UNL     1      44.859  65.467  28.104  0.00  0.00    +0.000 NA
ATOM     13  C   UNL     1      44.119  64.729  28.942  0.00  0.00    +0.000 A 
ATOM     14  C   UNL     1      43.867  63.369  28.924  0.00  0.00    +0.000 A 
ATOM     15  O   UNL     1      44.380  62.657  28.013  0.00  0.00    +0.000 OA
ATOM     16  N   UNL     1      43.084  62.860  29.884  0.00  0.00    +0.000 N 
ATOM     17  C   UNL     1      42.544  63.649  30.857  0.00  0.00    +0.000 A 
ATOM     18  N   UNL     1      41.735  62.981  31.808  0.00  0.00    +0.000 N 
ATOM     19  N   UNL     1      42.802  64.979  30.854  0.00  0.00    +0.000 NA
ATOM     20  C   UNL     1      43.580  65.531  29.914  0.00  0.00    +0.000 A 
ATOM     21  H   UNL     1      45.327  69.140  30.202  0.00  0.00    +0.000 HD
ATOM     22  H   UNL     1      42.885  61.849  29.888  0.00  0.00    +0.000 HD
ATOM     23  H   UNL     1      41.294  63.512  32.572  0.00  0.00    +0.000 HD
ATOM     24  H   UNL     1      41.588  61.964  31.735  0.00  0.00    +0.000 HD
ENDROOT
BRANCH   1  25
ATOM     25  C   UNL     1      45.626  71.687  31.394  0.00  0.00    +0.000 A 
ATOM     26  C   UNL     1      45.719  72.538  30.277  0.00  0.00    +0.000 A 
ATOM     27  C   UNL     1      47.010  72.964  29.892  0.00  0.00    +0.000 A 
ATOM     28  N   UNL     1      48.062  72.529  30.617  0.00  0.00    +0.000 NA
ATOM     29  C   UNL     1      47.929  71.715  31.679  0.00  0.00    +0.000 A 
ATOM     30  N   UNL     1      46.703  71.293  32.068  0.00  0.00    +0.000 NA
ATOM     31  N   UNL     1      49.030  71.247  32.459  0.00  0.00    +0.000 N 
ATOM     32  C   UNL     1      50.082  72.103  32.523  0.00  0.00    +0.000 A 
ATOM     33  C   UNL     1      51.049  71.492  33.316  0.00  0.00    +0.000 A 
ATOM     34  N   UNL     1      50.555  70.279  33.711  0.00  0.00    +0.000 NA
ATOM     35  C   UNL     1      49.320  70.152  33.176  0.00  0.00    +0.000 A 
ENDBRANCH   1  25
TORSDOF 1
