REMARK  Name = 
REMARK  3 active torsions:
REMARK  status: ('A' for Active; 'I' for Inactive)
REMARK    1  A    between atoms: C_1  and  C_17
REMARK    2  A    between atoms: C_15  and  N_21
REMARK    3  A    between atoms: C_40  and  N_41
REMARK                            x       y       z     vdW  Elec       q    Type
REMARK                         _______ _______ _______ _____ _____    ______ ____
ROOT
ATOM      1  C   UNL     1      44.660  71.098  31.156  0.00  0.00    +0.000 A 
ATOM      2  C   UNL     1      44.214  72.389  31.472  0.00  0.00    +0.000 A 
ATOM      3  C   UNL     1      45.030  73.475  31.233  0.00  0.00    +0.000 A 
ATOM      4  N   UNL     1      46.258  73.265  30.689  0.00  0.00    +0.000 NA
ATOM      5  C   UNL     1      46.674  72.017  30.389  0.00  0.00    +0.000 A 
ATOM      6  N   UNL     1      45.885  70.963  30.622  0.00  0.00    +0.000 NA
ENDROOT
BRANCH   3   7
ATOM      7  C   UNL     1      44.581  74.811  31.574  0.00  0.00    +0.000 A 
ATOM      8  C   UNL     1      45.451  75.872  31.371  0.00  0.00    +0.000 A 
ATOM      9  C   UNL     1      44.901  77.098  31.748  0.00  0.00    +0.000 A 
ATOM     10  C   UNL     1      43.651  77.253  32.260  0.00  0.00    +0.000 A 
ATOM     11  C   UNL     1      42.851  76.151  32.429  0.00  0.00    +0.000 A 
ATOM     12  N   UNL     1      43.334  74.924  32.078  0.00  0.00    +0.000 NA
ATOM     13  N   UNL     1      41.509  76.155  32.954  0.00  0.00    +0.000 N 
ATOM     14  C   UNL     1      41.025  76.766  34.044  0.00  0.00    +0.000 A 
ATOM     15  C   UNL     1      39.691  76.623  34.327  0.00  0.00    +0.000 A 
ATOM     16  C   UNL     1      38.854  75.869  33.513  0.00  0.00    +0.000 A 
ATOM     17  O   UNL     1      37.634  75.779  33.833  0.00  0.00    +0.000 OA
ATOM     18  N   UNL     1      39.391  75.273  32.426  0.00  0.00    +0.000 N 
ATOM     19  C   UNL     1      40.694  75.414  32.153  0.00  0.00    +0.000 A 
ATOM     20  O   UNL     1      41.029  74.794  31.109  0.00  0.00    +0.000 OA
ATOM     21  H   UNL     1      38.710  74.735  31.852  0.00  0.00    +0.000 HD
ENDBRANCH   3   7
BRANCH   1  22
ATOM     22  N   UNL     1      43.833  69.959  31.395  0.00  0.00    +0.000 N 
ATOM     23  C   UNL     1      44.171  68.711  31.006  0.00  0.00    +0.000 A 
ATOM     24  C   UNL     1      43.079  67.929  31.440  0.00  0.00    +0.000 A 
ATOM     25  N   UNL     1      42.175  68.731  32.048  0.00  0.00    +0.000 NA
ATOM     26  C   UNL     1      42.656  70.021  32.018  0.00  0.00    +0.000 A 
ATOM     27  N   UNL     1      41.737  70.822  32.658  0.00  0.00    +0.000 N 
ATOM     28  C   UNL     1      41.705  71.498  33.854  0.00  0.00    +0.000 A 
ATOM     29  N   UNL     1      40.520  72.079  34.091  0.00  0.00    +0.000 NA
ATOM     30  C   UNL     1      39.703  71.817  33.063  0.00  0.00    +0.000 A 
ATOM     31  C   UNL     1      38.418  72.029  32.620  0.00  0.00    +0.000 A 
ATOM     32  N   UNL     1      37.917  71.559  31.465  0.00  0.00    +0.000 NA
ATOM     33  C   UNL     1      38.664  70.825  30.639  0.00  0.00    +0.000 A 
ATOM     34  N   UNL     1      39.911  70.594  31.031  0.00  0.00    +0.000 NA
ATOM     35  C   UNL     1      40.455  71.055  32.197  0.00  0.00    +0.000 A 
BRANCH  31  36
ATOM     36  N   UNL     1      37.563  72.767  33.465  0.00  0.00    +0.000 N 
ATOM     37  H   UNL     1      36.820  72.138  33.880  0.00  0.00    +0.000 HD
ATOM     38  H   UNL     1      36.760  72.841  34.102  0.00  0.00    +0.000 HD
ENDBRANCH  31  36
ENDBRANCH   1  22
TORSDOF 3
