REMARK  Name = 
REMARK  3 active torsions:
REMARK  status: ('A' for Active; 'I' for Inactive)
REMARK    1  A    between atoms: C_1  and  C_9
REMARK    2  A    between atoms: C_3  and  N_23
REMARK    3  A    between atoms: C_17  and  N_22
REMARK                            x       y       z     vdW  Elec       q    Type
REMARK                         _______ _______ _______ _____ _____    ______ ____
ROOT
ATOM      1  C   UNL     1      47.259  72.796  30.371  0.00  0.00    +0.000 A 
ATOM      2  C   UNL     1      46.055  72.061  30.383  0.00  0.00    +0.000 A 
ATOM      3  C   UNL     1      45.993  70.920  31.180  0.00  0.00    +0.000 A 
ATOM      4  N   UNL     1      47.087  70.574  31.902  0.00  0.00    +0.000 NA
ATOM      5  C   UNL     1      48.238  71.300  31.874  0.00  0.00    +0.000 A 
ATOM      6  N   UNL     1      48.318  72.408  31.107  0.00  0.00    +0.000 NA
ATOM      7  N   UNL     1      49.249  70.747  32.709  0.00  0.00    +0.000 N 
ATOM      8  C   UNL     1      49.252  69.520  33.267  0.00  0.00    +0.000 A 
ATOM      9  N   UNL     1      50.390  69.398  33.980  0.00  0.00    +0.000 NA
ATOM     10  C   UNL     1      51.096  70.526  33.877  0.00  0.00    +0.000 A 
ATOM     11  C   UNL     1      52.332  70.872  34.434  0.00  0.00    +0.000 A 
ATOM     12  N   UNL     1      52.781  72.113  34.131  0.00  0.00    +0.000 NA
ATOM     13  C   UNL     1      52.081  72.956  33.344  0.00  0.00    +0.000 A 
ATOM     14  N   UNL     1      50.877  72.602  32.808  0.00  0.00    +0.000 NA
ATOM     15  C   UNL     1      50.378  71.386  33.071  0.00  0.00    +0.000 A 
ENDROOT
BRANCH   3  16
ATOM     16  C   UNL     1      44.759  70.132  31.218  0.00  0.00    +0.000 A 
ATOM     17  C   UNL     1      44.808  68.847  30.726  0.00  0.00    +0.000 A 
ATOM     18  C   UNL     1      43.606  68.171  30.797  0.00  0.00    +0.000 A 
ATOM     19  N   UNL     1      42.490  68.697  31.295  0.00  0.00    +0.000 NA
ATOM     20  C   UNL     1      42.531  69.980  31.762  0.00  0.00    +0.000 A 
ATOM     21  N   UNL     1      43.663  70.698  31.726  0.00  0.00    +0.000 NA
BRANCH  18  22
ATOM     22  N   UNL     1      43.430  66.826  30.343  0.00  0.00    +0.000 N 
ATOM     23  C   UNL     1      42.897  66.031  31.304  0.00  0.00    +0.000 A 
ATOM     24  C   UNL     1      42.657  64.686  31.031  0.00  0.00    +0.000 A 
ATOM     25  C   UNL     1      42.974  64.183  29.761  0.00  0.00    +0.000 A 
ATOM     26  N   UNL     1      42.732  62.807  29.471  0.00  0.00    +0.000 N 
ATOM     27  N   UNL     1      43.503  65.043  28.857  0.00  0.00    +0.000 NA
ATOM     28  C   UNL     1      43.725  66.320  29.129  0.00  0.00    +0.000 A 
ATOM     29  O   UNL     1      44.210  67.156  28.337  0.00  0.00    +0.000 OA
ATOM     30  H   UNL     1      42.962  62.429  28.541  0.00  0.00    +0.000 HD
ATOM     31  H   UNL     1      42.328  62.192  30.192  0.00  0.00    +0.000 HD
ENDBRANCH  18  22
ENDBRANCH   3  16
BRANCH  11  32
ATOM     32  N   UNL     1      53.057  69.970  35.263  0.00  0.00    +0.000 N 
ATOM     33  H   UNL     1      53.965  70.251  35.660  0.00  0.00    +0.000 HD
ATOM     34  H   UNL     1      52.674  69.036  35.466  0.00  0.00    +0.000 HD
ENDBRANCH  11  32
TORSDOF 3
