REMARK  Name = 
REMARK  2 active torsions:
REMARK  status: ('A' for Active; 'I' for Inactive)
REMARK    1  A    between atoms: C_1  and  N_21
REMARK    2  A    between atoms: C_3  and  C_7
REMARK                            x       y       z     vdW  Elec       q    Type
REMARK                         _______ _______ _______ _____ _____    ______ ____
ROOT
ATOM      1  C   UNL     1      44.689  71.082  31.153  0.00  0.00    +0.000 A 
ATOM      2  C   UNL     1      44.225  72.376  31.482  0.00  0.00    +0.000 A 
ATOM      3  C   UNL     1      45.023  73.469  31.221  0.00  0.00    +0.000 A 
ATOM      4  N   UNL     1      46.243  73.254  30.647  0.00  0.00    +0.000 NA
ATOM      5  C   UNL     1      46.664  72.017  30.343  0.00  0.00    +0.000 A 
ATOM      6  N   UNL     1      45.888  70.957  30.598  0.00  0.00    +0.000 NA
ENDROOT
BRANCH   3   7
ATOM      7  C   UNL     1      44.577  74.796  31.565  0.00  0.00    +0.000 A 
ATOM      8  C   UNL     1      45.450  75.854  31.384  0.00  0.00    +0.000 A 
ATOM      9  C   UNL     1      44.896  77.079  31.765  0.00  0.00    +0.000 A 
ATOM     10  C   UNL     1      43.636  77.230  32.264  0.00  0.00    +0.000 A 
ATOM     11  C   UNL     1      42.835  76.128  32.412  0.00  0.00    +0.000 A 
ATOM     12  N   UNL     1      43.324  74.907  32.056  0.00  0.00    +0.000 NA
ATOM     13  N   UNL     1      41.483  76.126  32.923  0.00  0.00    +0.000 N 
ATOM     14  C   UNL     1      40.995  76.721  34.016  0.00  0.00    +0.000 A 
ATOM     15  C   UNL     1      39.666  76.577  34.287  0.00  0.00    +0.000 A 
ATOM     16  C   UNL     1      38.823  75.833  33.455  0.00  0.00    +0.000 A 
ATOM     17  O   UNL     1      37.600  75.739  33.764  0.00  0.00    +0.000 OA
ATOM     18  N   UNL     1      39.376  75.258  32.369  0.00  0.00    +0.000 N 
ATOM     19  C   UNL     1      40.676  75.396  32.104  0.00  0.00    +0.000 A 
ATOM     20  O   UNL     1      41.026  74.786  31.047  0.00  0.00    +0.000 OA
ATOM     21  H   UNL     1      38.785  74.703  31.733  0.00  0.00    +0.000 HD
ENDBRANCH   3   7
BRANCH   1  22
ATOM     22  N   UNL     1      43.864  69.939  31.392  0.00  0.00    +0.000 N 
ATOM     23  C   UNL     1      44.198  68.707  30.999  0.00  0.00    +0.000 A 
ATOM     24  C   UNL     1      43.098  67.924  31.406  0.00  0.00    +0.000 A 
ATOM     25  N   UNL     1      42.188  68.720  32.007  0.00  0.00    +0.000 NA
ATOM     26  C   UNL     1      42.673  69.980  31.996  0.00  0.00    +0.000 A 
ATOM     27  N   UNL     1      41.766  70.835  32.610  0.00  0.00    +0.000 N 
ATOM     28  N   UNL     1      41.724  71.608  33.715  0.00  0.00    +0.000 NA
ATOM     29  C   UNL     1      40.543  72.183  33.858  0.00  0.00    +0.000 A 
ATOM     30  C   UNL     1      39.692  71.822  32.826  0.00  0.00    +0.000 A 
ATOM     31  C   UNL     1      40.502  70.988  32.083  0.00  0.00    +0.000 A 
ENDBRANCH   1  22
TORSDOF 2
