REMARK  Name = 
REMARK  2 active torsions:
REMARK  status: ('A' for Active; 'I' for Inactive)
REMARK    1  A    between atoms: C_1  and  C_19
REMARK    2  A    between atoms: C_6  and  C_7
REMARK                            x       y       z     vdW  Elec       q    Type
REMARK                         _______ _______ _______ _____ _____    ______ ____
ROOT
ATOM      1  C   UNL     1      44.624  70.167  31.209  0.00  0.00    +0.000 A 
ATOM      2  C   UNL     1      44.755  68.896  30.677  0.00  0.00    +0.000 A 
ATOM      3  C   UNL     1      43.684  67.988  30.745  0.00  0.00    +0.000 A 
ATOM      4  C   UNL     1      42.513  68.403  31.352  0.00  0.00    +0.000 A 
ATOM      5  C   UNL     1      42.366  69.669  31.888  0.00  0.00    +0.000 A 
ATOM      6  C   UNL     1      43.453  70.534  31.799  0.00  0.00    +0.000 A 
ENDROOT
BRANCH   1   9
ATOM      7  C   UNL     1      47.176  72.630  29.891  0.00  0.00    +0.000 A 
ATOM      8  C   UNL     1      46.027  71.812  29.949  0.00  0.00    +0.000 A 
ATOM      9  C   UNL     1      45.781  71.024  31.090  0.00  0.00    +0.000 A 
ATOM     10  N   UNL     1      46.676  71.090  32.097  0.00  0.00    +0.000 NA
ATOM     11  C   UNL     1      47.790  71.892  32.027  0.00  0.00    +0.000 A 
ATOM     12  N   UNL     1      48.006  72.634  30.931  0.00  0.00    +0.000 NA
ATOM     13  N   UNL     1      48.694  71.916  33.125  0.00  0.00    +0.000 N 
ATOM     14  C   UNL     1      50.084  71.844  32.877  0.00  0.00    +0.000 C 
ATOM     15  N   UNL     1      50.609  72.081  31.729  0.00  0.00    +0.000 NA
ATOM     16  N   UNL     1      50.918  71.492  33.964  0.00  0.00    +0.000 N 
ATOM     17  H   UNL     1      51.621  72.041  31.503  0.00  0.00    +0.000 HD
ATOM     18  H   UNL     1      48.340  71.985  34.090  0.00  0.00    +0.000 HD
ATOM     19  H   UNL     1      51.937  71.427  33.831  0.00  0.00    +0.000 HD
ATOM     20  H   UNL     1      50.506  71.301  34.888  0.00  0.00    +0.000 HD
ENDBRANCH   1   9
BRANCH   6  21
ATOM     21  C   UNL     1      43.275  71.854  32.367  0.00  0.00    +0.000 A 
ATOM     22  N   UNL     1      42.958  72.062  33.671  0.00  0.00    +0.000 NA
ATOM     23  O   UNL     1      42.850  73.327  33.953  0.00  0.00    +0.000 OA
ATOM     24  C   UNL     1      43.088  74.016  32.852  0.00  0.00    +0.000 A 
ATOM     25  N   UNL     1      43.340  73.115  31.917  0.00  0.00    +0.000 NA
ATOM     26  N   UNL     1      43.143  75.364  32.433  0.00  0.00    +0.000 N 
ATOM     27  C   UNL     1      44.120  75.818  31.441  0.00  0.00    +0.000 C 
ATOM     28  C   UNL     1      44.294  77.295  31.848  0.00  0.00    +0.000 C 
ATOM     29  C   UNL     1      42.832  77.657  31.999  0.00  0.00    +0.000 C 
ATOM     30  C   UNL     1      42.328  76.502  32.843  0.00  0.00    +0.000 C 
ENDBRANCH   6  21
TORSDOF 2
