REMARK  Name = 
REMARK  3 active torsions:
REMARK  status: ('A' for Active; 'I' for Inactive)
REMARK    1  A    between atoms: C_1  and  N_21
REMARK    2  A    between atoms: C_3  and  C_7
REMARK    3  A    between atoms: C_28  and  C_29
REMARK                            x       y       z     vdW  Elec       q    Type
REMARK                         _______ _______ _______ _____ _____    ______ ____
ROOT
ATOM      1  C   UNL     1      44.742  71.013  31.223  0.00  0.00    +0.000 A 
ATOM      2  C   UNL     1      44.256  72.310  31.496  0.00  0.00    +0.000 A 
ATOM      3  C   UNL     1      45.092  73.395  31.351  0.00  0.00    +0.000 A 
ATOM      4  N   UNL     1      46.371  73.180  30.946  0.00  0.00    +0.000 NA
ATOM      5  C   UNL     1      46.821  71.936  30.691  0.00  0.00    +0.000 A 
ATOM      6  N   UNL     1      46.010  70.882  30.831  0.00  0.00    +0.000 NA
ENDROOT
BRANCH   3   7
ATOM      7  C   UNL     1      44.605  74.729  31.634  0.00  0.00    +0.000 A 
ATOM      8  C   UNL     1      45.458  75.801  31.418  0.00  0.00    +0.000 A 
ATOM      9  C   UNL     1      44.873  77.027  31.731  0.00  0.00    +0.000 A 
ATOM     10  C   UNL     1      43.598  77.170  32.200  0.00  0.00    +0.000 A 
ATOM     11  C   UNL     1      42.813  76.055  32.388  0.00  0.00    +0.000 A 
ATOM     12  N   UNL     1      43.343  74.831  32.095  0.00  0.00    +0.000 NA
ATOM     13  N   UNL     1      41.464  76.047  32.867  0.00  0.00    +0.000 N 
ATOM     14  C   UNL     1      40.935  76.681  33.918  0.00  0.00    +0.000 A 
ATOM     15  C   UNL     1      39.598  76.518  34.158  0.00  0.00    +0.000 A 
ATOM     16  C   UNL     1      38.798  75.727  33.348  0.00  0.00    +0.000 A 
ATOM     17  O   UNL     1      37.558  75.610  33.619  0.00  0.00    +0.000 OA
ATOM     18  N   UNL     1      39.374  75.105  32.296  0.00  0.00    +0.000 N 
ATOM     19  C   UNL     1      40.685  75.267  32.067  0.00  0.00    +0.000 A 
ATOM     20  O   UNL     1      41.063  74.618  31.049  0.00  0.00    +0.000 OA
ATOM     21  H   UNL     1      38.809  74.510  31.674  0.00  0.00    +0.000 HD
ENDBRANCH   3   7
BRANCH   1  22
ATOM     22  N   UNL     1      43.885  69.878  31.323  0.00  0.00    +0.000 N 
ATOM     23  C   UNL     1      44.218  68.665  30.837  0.00  0.00    +0.000 A 
ATOM     24  C   UNL     1      43.061  67.887  31.114  0.00  0.00    +0.000 A 
ATOM     25  N   UNL     1      42.133  68.668  31.736  0.00  0.00    +0.000 NA
ATOM     26  C   UNL     1      42.663  69.921  31.865  0.00  0.00    +0.000 A 
ATOM     27  N   UNL     1      41.761  70.724  32.520  0.00  0.00    +0.000 N 
ATOM     28  C   UNL     1      42.295  71.370  33.608  0.00  0.00    +0.000 A 
ATOM     29  C   UNL     1      41.558  72.172  34.441  0.00  0.00    +0.000 A 
ATOM     30  C   UNL     1      42.147  72.866  35.615  0.00  0.00    +0.000 C 
ATOM     31  C   UNL     1      40.221  72.306  34.134  0.00  0.00    +0.000 A 
ATOM     32  O   UNL     1      39.513  73.031  34.873  0.00  0.00    +0.000 OA
ATOM     33  N   UNL     1      39.753  71.652  33.059  0.00  0.00    +0.000 N 
ATOM     34  C   UNL     1      40.452  70.872  32.241  0.00  0.00    +0.000 A 
ATOM     35  O   UNL     1      40.002  70.267  31.238  0.00  0.00    +0.000 OA
ATOM     36  H   UNL     1      38.752  71.766  32.847  0.00  0.00    +0.000 HD
ENDBRANCH   1  22
TORSDOF 2
