REMARK  Name = 
REMARK  2 active torsions:
REMARK  status: ('A' for Active; 'I' for Inactive)
REMARK    1  A    between atoms: C_1  and  N_21
REMARK    2  A    between atoms: C_3  and  C_7
REMARK                            x       y       z     vdW  Elec       q    Type
REMARK                         _______ _______ _______ _____ _____    ______ ____
ROOT
ATOM      1  C   UNL     1      44.710  71.016  31.226  0.00  0.00    +0.000 A 
ATOM      2  C   UNL     1      44.261  72.308  31.543  0.00  0.00    +0.000 A 
ATOM      3  C   UNL     1      45.052  73.398  31.234  0.00  0.00    +0.000 A 
ATOM      4  N   UNL     1      46.252  73.190  30.626  0.00  0.00    +0.000 NA
ATOM      5  C   UNL     1      46.664  71.940  30.329  0.00  0.00    +0.000 A 
ATOM      6  N   UNL     1      45.903  70.879  30.626  0.00  0.00    +0.000 NA
ENDROOT
BRANCH   3   7
ATOM      7  C   UNL     1      44.600  74.735  31.559  0.00  0.00    +0.000 A 
ATOM      8  C   UNL     1      45.469  75.799  31.366  0.00  0.00    +0.000 A 
ATOM      9  C   UNL     1      44.924  77.025  31.718  0.00  0.00    +0.000 A 
ATOM     10  C   UNL     1      43.659  77.189  32.209  0.00  0.00    +0.000 A 
ATOM     11  C   UNL     1      42.863  76.097  32.372  0.00  0.00    +0.000 A 
ATOM     12  N   UNL     1      43.347  74.862  32.042  0.00  0.00    +0.000 NA
ATOM     13  N   UNL     1      41.505  76.100  32.877  0.00  0.00    +0.000 N 
ATOM     14  C   UNL     1      41.015  76.727  33.961  0.00  0.00    +0.000 A 
ATOM     15  C   UNL     1      39.692  76.590  34.256  0.00  0.00    +0.000 A 
ATOM     16  C   UNL     1      38.856  75.819  33.455  0.00  0.00    +0.000 A 
ATOM     17  O   UNL     1      37.630  75.717  33.764  0.00  0.00    +0.000 OA
ATOM     18  N   UNL     1      39.393  75.199  32.364  0.00  0.00    +0.000 N 
ATOM     19  C   UNL     1      40.703  75.348  32.092  0.00  0.00    +0.000 A 
ATOM     20  O   UNL     1      41.052  74.722  31.060  0.00  0.00    +0.000 OA
ATOM     21  H   UNL     1      38.799  74.621  31.752  0.00  0.00    +0.000 HD
ENDBRANCH   3   7
BRANCH   1  22
ATOM     22  N   UNL     1      43.910  69.876  31.541  0.00  0.00    +0.000 N 
ATOM     23  C   UNL     1      43.987  68.706  30.885  0.00  0.00    +0.000 A 
ATOM     24  C   UNL     1      43.044  67.889  31.543  0.00  0.00    +0.000 A 
ATOM     25  N   UNL     1      42.465  68.599  32.537  0.00  0.00    +0.000 NA
ATOM     26  C   UNL     1      43.011  69.855  32.538  0.00  0.00    +0.000 A 
ATOM     27  N   UNL     1      42.463  70.648  33.545  0.00  0.00    +0.000 N 
ATOM     28  C   UNL     1      41.914  71.952  33.123  0.00  0.00    +0.000 C 
ATOM     29  C   UNL     1      40.396  71.678  33.100  0.00  0.00    +0.000 C 
ATOM     30  O   UNL     1      40.037  70.901  34.199  0.00  0.00    +0.000 OA
ATOM     31  C   UNL     1      40.907  71.003  35.279  0.00  0.00    +0.000 C 
ATOM     32  C   UNL     1      42.283  70.432  34.997  0.00  0.00    +0.000 C 
ENDBRANCH   1  22
TORSDOF 2
