REMARK  Name = 
REMARK  2 active torsions:
REMARK  status: ('A' for Active; 'I' for Inactive)
REMARK    1  A    between atoms: C_1  and  C_9
REMARK    2  A    between atoms: C_3  and  N_21
REMARK                            x       y       z     vdW  Elec       q    Type
REMARK                         _______ _______ _______ _____ _____    ______ ____
ROOT
ATOM      1  C   UNL     1      44.407  70.144  31.226  0.00  0.00    +0.000 A 
ATOM      2  C   UNL     1      44.564  68.873  30.717  0.00  0.00    +0.000 A 
ATOM      3  C   UNL     1      43.431  68.092  30.814  0.00  0.00    +0.000 A 
ATOM      4  N   UNL     1      42.280  68.503  31.345  0.00  0.00    +0.000 NA
ATOM      5  C   UNL     1      42.215  69.781  31.826  0.00  0.00    +0.000 A 
ATOM      6  N   UNL     1      43.269  70.599  31.768  0.00  0.00    +0.000 NA
ENDROOT
BRANCH   1   9
ATOM      7  C   UNL     1      46.578  73.097  30.391  0.00  0.00    +0.000 A 
ATOM      8  C   UNL     1      45.458  72.237  30.437  0.00  0.00    +0.000 A 
ATOM      9  C   UNL     1      45.553  71.045  31.167  0.00  0.00    +0.000 A 
ATOM     10  N   UNL     1      46.713  70.784  31.789  0.00  0.00    +0.000 NA
ATOM     11  C   UNL     1      47.790  71.613  31.745  0.00  0.00    +0.000 A 
ATOM     12  N   UNL     1      47.702  72.762  31.043  0.00  0.00    +0.000 NA
ATOM     13  N   UNL     1      49.015  71.304  32.422  0.00  0.00    +0.000 N 
ATOM     14  C   UNL     1      50.056  72.128  32.204  0.00  0.00    +0.000 A 
ATOM     15  C   UNL     1      51.226  71.801  32.874  0.00  0.00    +0.000 A 
ATOM     16  C   UNL     1      51.223  70.693  33.681  0.00  0.00    +0.000 A 
ATOM     17  N   UNL     1      52.456  70.420  34.334  0.00  0.00    +0.000 N 
ATOM     18  N   UNL     1      50.142  69.907  33.855  0.00  0.00    +0.000 NA
ATOM     19  C   UNL     1      48.991  70.212  33.208  0.00  0.00    +0.000 A 
ATOM     20  O   UNL     1      47.950  69.519  33.329  0.00  0.00    +0.000 OA
ATOM     21  H   UNL     1      52.539  69.605  34.959  0.00  0.00    +0.000 HD
ATOM     22  H   UNL     1      53.267  71.037  34.182  0.00  0.00    +0.000 HD
ENDBRANCH   1   9
BRANCH   3  23
ATOM     23  N   UNL     1      43.372  66.745  30.350  0.00  0.00    +0.000 N 
ATOM     24  C   UNL     1      42.877  65.897  31.281  0.00  0.00    +0.000 A 
ATOM     25  C   UNL     1      42.753  64.546  30.987  0.00  0.00    +0.000 A 
ATOM     26  C   UNL     1      43.138  64.078  29.744  0.00  0.00    +0.000 A 
ATOM     27  N   UNL     1      43.013  62.688  29.435  0.00  0.00    +0.000 N 
ATOM     28  N   UNL     1      43.621  64.968  28.867  0.00  0.00    +0.000 NA
ATOM     29  C   UNL     1      43.745  66.274  29.139  0.00  0.00    +0.000 A 
ATOM     30  O   UNL     1      44.185  67.139  28.364  0.00  0.00    +0.000 OA
ATOM     31  H   UNL     1      43.300  62.338  28.509  0.00  0.00    +0.000 HD
ATOM     32  H   UNL     1      42.636  62.036  30.138  0.00  0.00    +0.000 HD
ENDBRANCH   3  23
TORSDOF 2
