REMARK  Name = 
REMARK  4 active torsions:
REMARK  status: ('A' for Active; 'I' for Inactive)
REMARK    1  A    between atoms: C_1  and  N_23
REMARK    2  A    between atoms: C_5  and  C_7
REMARK    3  A    between atoms: C_17  and  N_22
REMARK    4  A    between atoms: C_25  and  C_31
REMARK                            x       y       z     vdW  Elec       q    Type
REMARK                         _______ _______ _______ _____ _____    ______ ____
ROOT
ATOM      1  C   UNL     1      49.347  71.317  32.434  0.00  0.00    +0.000 A 
ATOM      2  C   UNL     1      50.467  72.116  32.479  0.00  0.00    +0.000 A 
ATOM      3  C   UNL     1      51.573  71.830  33.295  0.00  0.00    +0.000 A 
ATOM      4  C   UNL     1      51.514  70.688  34.082  0.00  0.00    +0.000 A 
ATOM      5  C   UNL     1      50.382  69.914  34.012  0.00  0.00    +0.000 A 
ATOM      6  N   UNL     1      49.330  70.198  33.227  0.00  0.00    +0.000 NA
ATOM      7  N   UNL     1      50.282  68.729  34.809  0.00  0.00    +0.000 N 
ATOM      8  C   UNL     1      49.255  67.869  34.879  0.00  0.00    +0.000 A 
ATOM      9  N   UNL     1      49.527  66.868  35.741  0.00  0.00    +0.000 NA
ATOM     10  C   UNL     1      50.761  67.135  36.204  0.00  0.00    +0.000 A 
ATOM     11  C   UNL     1      51.618  66.525  37.096  0.00  0.00    +0.000 A 
ATOM     12  N   UNL     1      52.835  67.008  37.395  0.00  0.00    +0.000 NA
ATOM     13  C   UNL     1      53.278  68.155  36.809  0.00  0.00    +0.000 A 
ATOM     14  N   UNL     1      52.470  68.780  35.933  0.00  0.00    +0.000 NA
ATOM     15  C   UNL     1      51.254  68.294  35.636  0.00  0.00    +0.000 A 
ENDROOT
BRANCH   1  20
ATOM     16  C   UNL     1      45.954  71.299  31.078  0.00  0.00    +0.000 A 
ATOM     17  C   UNL     1      46.037  72.187  29.998  0.00  0.00    +0.000 A 
ATOM     18  C   UNL     1      47.272  72.798  29.732  0.00  0.00    +0.000 A 
ATOM     19  N   UNL     1      48.332  72.497  30.540  0.00  0.00    +0.000 NA
ATOM     20  C   UNL     1      48.211  71.625  31.585  0.00  0.00    +0.000 A 
ATOM     21  N   UNL     1      47.036  71.057  31.822  0.00  0.00    +0.000 NA
BRANCH  16  22
ATOM     22  N   UNL     1      44.728  70.668  31.374  0.00  0.00    +0.000 N 
ATOM     23  C   UNL     1      44.509  69.390  31.017  0.00  0.00    +0.000 A 
ATOM     24  C   UNL     1      43.288  68.774  31.316  0.00  0.00    +0.000 A 
ATOM     25  C   UNL     1      42.405  69.610  31.981  0.00  0.00    +0.000 A 
ATOM     26  O   UNL     1      41.280  69.079  32.270  0.00  0.00    +0.000 OA
ATOM     27  N   UNL     1      42.591  70.875  32.348  0.00  0.00    +0.000 N 
ATOM     28  C   UNL     1      43.798  71.401  32.023  0.00  0.00    +0.000 A 
ATOM     29  O   UNL     1      44.011  72.609  32.358  0.00  0.00    +0.000 OA
ATOM     30  C   UNL     1      42.951  67.386  30.970  0.00  0.00    +0.000 C 
ATOM     31  H   UNL     1      41.869  71.417  32.844  0.00  0.00    +0.000 HD
ENDBRANCH  16  22
ENDBRANCH   1  20
BRANCH  11  32
ATOM     32  N   UNL     1      51.182  65.324  37.724  0.00  0.00    +0.000 N 
ATOM     33  H   UNL     1      51.796  64.842  38.396  0.00  0.00    +0.000 HD
ATOM     34  H   UNL     1      50.252  64.937  37.507  0.00  0.00    +0.000 HD
ENDBRANCH  11  32
TORSDOF 3
