REMARK  Name = 
REMARK  6 active torsions:
REMARK  status: ('A' for Active; 'I' for Inactive)
REMARK    1  A    between atoms: C_1  and  C_6
REMARK    2  A    between atoms: C_1  and  C_17
REMARK    3  A    between atoms: C_1  and  C_18
REMARK    4  A    between atoms: C_2  and  C_8
REMARK    5  A    between atoms: C_18  and  C_19
REMARK    6  A    between atoms: N_22  and  C_24
REMARK                            x       y       z     vdW  Elec       q    Type
REMARK                         _______ _______ _______ _____ _____    ______ ____
ROOT
ATOM      1  C   UNL     1      41.848  71.274  32.945  0.00  0.00    +0.000 C 
ATOM      2  C   UNL     1      40.843  70.224  33.354  0.00  0.00    +0.000 C 
ENDROOT
BRANCH   1   7
ATOM      3  C   UNL     1      45.019  70.637  31.195  0.00  0.00    +0.000 A 
ATOM      4  C   UNL     1      44.900  69.280  30.785  0.00  0.00    +0.000 A 
ATOM      5  C   UNL     1      43.707  68.596  31.131  0.00  0.00    +0.000 A 
ATOM      6  N   UNL     1      42.754  69.279  31.831  0.00  0.00    +0.000 NA
ATOM      7  C   UNL     1      42.932  70.599  32.201  0.00  0.00    +0.000 A 
ATOM      8  N   UNL     1      44.033  71.226  31.880  0.00  0.00    +0.000 NA
BRANCH   3   9
ATOM      9  C   UNL     1      46.243  71.311  30.821  0.00  0.00    +0.000 A 
ATOM     10  C   UNL     1      46.548  72.073  29.708  0.00  0.00    +0.000 A 
ATOM     11  N   UNL     1      47.803  72.518  29.750  0.00  0.00    +0.000 N 
ATOM     12  C   UNL     1      48.352  72.044  30.915  0.00  0.00    +0.000 A 
ATOM     13  C   UNL     1      49.624  72.238  31.399  0.00  0.00    +0.000 A 
ATOM     14  C   UNL     1      49.985  71.659  32.626  0.00  0.00    +0.000 A 
ATOM     15  C   UNL     1      49.025  70.913  33.293  0.00  0.00    +0.000 A 
ATOM     16  C   UNL     1      47.758  70.738  32.779  0.00  0.00    +0.000 A 
ATOM     17  C   UNL     1      47.395  71.298  31.584  0.00  0.00    +0.000 A 
ATOM     18  H   UNL     1      48.271  73.105  29.044  0.00  0.00    +0.000 HD
ENDBRANCH   3   9
ENDBRANCH   1   7
BRANCH   1  19
ATOM     19  C   UNL     1      41.115  72.298  32.109  0.00  0.00    +0.000 C 
BRANCH  19  20
ATOM     20  C   UNL     1      41.822  73.621  32.107  0.00  0.00    +0.000 A 
ATOM     21  C   UNL     1      41.105  74.642  31.475  0.00  0.00    +0.000 A 
ATOM     22  C   UNL     1      41.895  75.788  31.563  0.00  0.00    +0.000 A 
ATOM     23  N   UNL     1      42.993  75.453  32.202  0.00  0.00    +0.000 N 
ATOM     24  N   UNL     1      42.976  74.181  32.536  0.00  0.00    +0.000 NA
BRANCH  23  25
ATOM     25  C   UNL     1      44.096  76.294  32.530  0.00  0.00    +0.000 A 
ATOM     26  C   UNL     1      45.161  76.451  31.648  0.00  0.00    +0.000 A 
ATOM     27  N   UNL     1      46.073  77.302  32.202  0.00  0.00    +0.000 N 
ATOM     28  C   UNL     1      45.609  77.687  33.413  0.00  0.00    +0.000 A 
ATOM     29  C   UNL     1      46.088  78.524  34.419  0.00  0.00    +0.000 A 
ATOM     30  C   UNL     1      45.334  78.686  35.541  0.00  0.00    +0.000 A 
ATOM     31  C   UNL     1      44.101  78.076  35.778  0.00  0.00    +0.000 A 
ATOM     32  C   UNL     1      43.639  77.248  34.771  0.00  0.00    +0.000 A 
ATOM     33  C   UNL     1      44.390  77.074  33.630  0.00  0.00    +0.000 A 
ATOM     34  H   UNL     1      46.961  77.600  31.773  0.00  0.00    +0.000 HD
ENDBRANCH  23  25
ENDBRANCH  19  20
ENDBRANCH   1  19
TORSDOF 5
