REMARK  Name = 
REMARK  3 active torsions:
REMARK  status: ('A' for Active; 'I' for Inactive)
REMARK    1  A    between atoms: C_1  and  N_21
REMARK    2  A    between atoms: C_3  and  C_7
REMARK    3  A    between atoms: C_25  and  C_26
REMARK                            x       y       z     vdW  Elec       q    Type
REMARK                         _______ _______ _______ _____ _____    ______ ____
ROOT
ATOM      1  C   UNL     1      44.957  71.165  30.959  0.00  0.00    +0.000 A 
ATOM      2  C   UNL     1      44.489  72.429  31.329  0.00  0.00    +0.000 A 
ATOM      3  C   UNL     1      45.243  73.548  31.060  0.00  0.00    +0.000 A 
ATOM      4  N   UNL     1      46.444  73.389  30.422  0.00  0.00    +0.000 NA
ATOM      5  C   UNL     1      46.875  72.177  30.073  0.00  0.00    +0.000 A 
ATOM      6  N   UNL     1      46.147  71.083  30.338  0.00  0.00    +0.000 NA
ENDROOT
BRANCH   3   7
ATOM      7  C   UNL     1      44.790  74.863  31.488  0.00  0.00    +0.000 A 
ATOM      8  C   UNL     1      45.674  75.929  31.435  0.00  0.00    +0.000 A 
ATOM      9  C   UNL     1      45.119  77.112  31.882  0.00  0.00    +0.000 A 
ATOM     10  C   UNL     1      43.832  77.252  32.335  0.00  0.00    +0.000 A 
ATOM     11  C   UNL     1      43.028  76.148  32.354  0.00  0.00    +0.000 A 
ATOM     12  N   UNL     1      43.517  74.951  31.928  0.00  0.00    +0.000 NA
ATOM     13  N   UNL     1      41.657  76.120  32.797  0.00  0.00    +0.000 N 
ATOM     14  C   UNL     1      41.122  76.658  33.917  0.00  0.00    +0.000 A 
ATOM     15  C   UNL     1      39.793  76.508  34.158  0.00  0.00    +0.000 A 
ATOM     16  C   UNL     1      38.978  75.804  33.258  0.00  0.00    +0.000 A 
ATOM     17  O   UNL     1      37.744  75.685  33.517  0.00  0.00    +0.000 OA
ATOM     18  N   UNL     1      39.570  75.290  32.159  0.00  0.00    +0.000 N 
ATOM     19  C   UNL     1      40.877  75.447  31.940  0.00  0.00    +0.000 A 
ATOM     20  O   UNL     1      41.263  74.903  30.867  0.00  0.00    +0.000 OA
ATOM     21  H   UNL     1      39.002  74.767  31.477  0.00  0.00    +0.000 HD
ENDBRANCH   3   7
BRANCH   1  22
ATOM     22  N   UNL     1      44.189  69.990  31.250  0.00  0.00    +0.000 N 
ATOM     23  C   UNL     1      44.507  68.769  30.742  0.00  0.00    +0.000 A 
ATOM     24  C   UNL     1      43.474  67.941  31.217  0.00  0.00    +0.000 A 
ATOM     25  N   UNL     1      42.631  68.697  31.957  0.00  0.00    +0.000 NA
ATOM     26  C   UNL     1      43.055  69.994  32.004  0.00  0.00    +0.000 A 
BRANCH  26  27
ATOM     27  C   UNL     1      42.353  70.954  32.792  0.00  0.00    +0.000 A 
ATOM     28  N   UNL     1      42.217  71.800  33.647  0.00  0.00    +0.000 NA
ATOM     29  C   UNL     1      41.981  72.665  34.477  0.00  0.00    +0.000 A 
ATOM     30  N   UNL     1      40.732  72.847  34.098  0.00  0.00    +0.000 NA
ATOM     31  C   UNL     1      40.173  72.149  33.079  0.00  0.00    +0.000 A 
ATOM     32  C   UNL     1      38.829  72.323  32.631  0.00  0.00    +0.000 A 
ATOM     33  C   UNL     1      38.299  71.641  31.620  0.00  0.00    +0.000 A 
ATOM     34  C   UNL     1      38.990  70.704  30.913  0.00  0.00    +0.000 A 
ATOM     35  C   UNL     1      40.297  70.572  31.391  0.00  0.00    +0.000 A 
ATOM     36  C   UNL     1      41.012  71.220  32.457  0.00  0.00    +0.000 A 
ENDBRANCH  26  27
ENDBRANCH   1  22
TORSDOF 3
