REMARK  Name = 
REMARK  1 active torsions:
REMARK  status: ('A' for Active; 'I' for Inactive)
REMARK    1  A    between atoms: N_1  and  C_19
REMARK                            x       y       z     vdW  Elec       q    Type
REMARK                         _______ _______ _______ _____ _____    ______ ____
ROOT
ATOM      1  N   UNL     1      44.270  71.505  31.889  0.00  0.00    +0.000 N 
ATOM      2  C   UNL     1      43.400  72.252  32.589  0.00  0.00    +0.000 A 
ATOM      3  N   UNL     1      42.264  71.547  32.699  0.00  0.00    +0.000 NA
ATOM      4  C   UNL     1      42.430  70.384  32.076  0.00  0.00    +0.000 A 
ATOM      5  C   UNL     1      41.555  69.329  31.917  0.00  0.00    +0.000 C 
ATOM      6  N   UNL     1      42.017  68.268  31.227  0.00  0.00    +0.000 NA
ATOM      7  C   UNL     1      43.262  68.211  30.711  0.00  0.00    +0.000 C 
ATOM      8  N   UNL     1      44.114  69.237  30.866  0.00  0.00    +0.000 N 
ATOM      9  C   UNL     1      43.693  70.338  31.557  0.00  0.00    +0.000 A 
ATOM     10  N   UNL     1      43.576  66.994  30.006  0.00  0.00    +0.000 N 
ATOM     11  C   UNL     1      44.200  66.982  28.815  0.00  0.00    +0.000 A 
ATOM     12  N   UNL     1      44.376  65.717  28.370  0.00  0.00    +0.000 NA
ATOM     13  C   UNL     1      43.842  64.928  29.320  0.00  0.00    +0.000 A 
ATOM     14  C   UNL     1      43.725  63.564  29.426  0.00  0.00    +0.000 A 
ATOM     15  N   UNL     1      43.133  63.034  30.509  0.00  0.00    +0.000 NA
ATOM     16  C   UNL     1      42.662  63.845  31.478  0.00  0.00    +0.000 A 
ATOM     17  N   UNL     1      42.752  65.196  31.422  0.00  0.00    +0.000 NA
ATOM     18  C   UNL     1      43.351  65.731  30.327  0.00  0.00    +0.000 A 
ATOM     19  H   UNL     1      45.065  69.195  30.472  0.00  0.00    +0.000 HD
ENDROOT
BRANCH   1  20
ATOM     20  C   UNL     1      45.624  71.779  31.487  0.00  0.00    +0.000 A 
ATOM     21  C   UNL     1      45.859  72.590  30.371  0.00  0.00    +0.000 A 
ATOM     22  C   UNL     1      47.207  72.829  30.015  0.00  0.00    +0.000 A 
ATOM     23  N   UNL     1      48.177  72.258  30.777  0.00  0.00    +0.000 NA
ATOM     24  C   UNL     1      47.897  71.480  31.850  0.00  0.00    +0.000 A 
ATOM     25  N   UNL     1      46.619  71.242  32.203  0.00  0.00    +0.000 NA
ATOM     26  N   UNL     1      48.904  70.881  32.657  0.00  0.00    +0.000 N 
ATOM     27  C   UNL     1      50.066  71.576  32.715  0.00  0.00    +0.000 A 
ATOM     28  C   UNL     1      50.928  70.837  33.550  0.00  0.00    +0.000 A 
ATOM     29  N   UNL     1      50.246  69.737  33.954  0.00  0.00    +0.000 NA
ATOM     30  C   UNL     1      49.011  69.774  33.403  0.00  0.00    +0.000 A 
ENDBRANCH   1  20
TORSDOF 1
