REMARK  Name = 
REMARK  3 active torsions:
REMARK  status: ('A' for Active; 'I' for Inactive)
REMARK    1  A    between atoms: C_2  and  C_7
REMARK    2  A    between atoms: C_5  and  C_18
REMARK    3  A    between atoms: C_21  and  C_23
REMARK                            x       y       z     vdW  Elec       q    Type
REMARK                         _______ _______ _______ _____ _____    ______ ____
ROOT
ATOM      1  C   UNL     1      46.773  73.282  30.395  0.00  0.00    +0.000 A 
ATOM      2  C   UNL     1      45.513  73.250  31.031  0.00  0.00    +0.000 A 
ATOM      3  C   UNL     1      44.857  72.017  31.164  0.00  0.00    +0.000 A 
ATOM      4  N   UNL     1      45.469  70.908  30.671  0.00  0.00    +0.000 NA
ATOM      5  C   UNL     1      46.674  70.999  30.072  0.00  0.00    +0.000 A 
ATOM      6  N   UNL     1      47.314  72.171  29.937  0.00  0.00    +0.000 NA
ENDROOT
BRANCH   2   7
ATOM      7  C   UNL     1      44.949  74.519  31.521  0.00  0.00    +0.000 A 
ATOM      8  C   UNL     1      45.685  75.706  31.399  0.00  0.00    +0.000 A 
ATOM      9  S   UNL     1      44.565  76.982  32.142  0.00  0.00    +0.000 S 
ATOM     10  C   UNL     1      43.278  75.624  32.486  0.00  0.00    +0.000 A 
ATOM     11  N   UNL     1      43.790  74.727  32.088  0.00  0.00    +0.000 NA
ATOM     12  N   UNL     1      42.004  75.854  33.110  0.00  0.00    +0.000 N 
ATOM     13  C   UNL     1      41.437  77.149  33.339  0.00  0.00    +0.000 C 
ATOM     14  C   UNL     1      40.362  76.952  34.403  0.00  0.00    +0.000 C 
ATOM     15  O   UNL     1      39.372  76.075  34.000  0.00  0.00    +0.000 OA
ATOM     16  C   UNL     1      39.801  74.991  33.291  0.00  0.00    +0.000 C 
ATOM     17  C   UNL     1      41.265  74.683  33.525  0.00  0.00    +0.000 C 
ENDBRANCH   2   7
BRANCH   5  18
ATOM     18  C   UNL     1      47.259  69.763  29.563  0.00  0.00    +0.000 A 
ATOM     19  N   UNL     1      48.505  69.446  29.211  0.00  0.00    +0.000 NA
ATOM     20  O   UNL     1      48.574  68.214  28.804  0.00  0.00    +0.000 OA
ATOM     21  C   UNL     1      47.367  67.671  28.875  0.00  0.00    +0.000 A 
ATOM     22  N   UNL     1      46.584  68.637  29.341  0.00  0.00    +0.000 NA
BRANCH  21  23
ATOM     23  C   UNL     1      47.165  66.291  28.475  0.00  0.00    +0.000 A 
ATOM     24  N   UNL     1      45.933  65.790  28.312  0.00  0.00    +0.000 NA
ATOM     25  C   UNL     1      45.648  64.534  27.947  0.00  0.00    +0.000 A 
ATOM     26  N   UNL     1      46.656  63.648  27.707  0.00  0.00    +0.000 NA
ATOM     27  C   UNL     1      47.953  64.057  27.845  0.00  0.00    +0.000 A 
ATOM     28  C   UNL     1      49.001  63.192  27.613  0.00  0.00    +0.000 A 
ATOM     29  C   UNL     1      50.311  63.590  27.748  0.00  0.00    +0.000 A 
ATOM     30  C   UNL     1      50.531  64.916  28.132  0.00  0.00    +0.000 A 
ATOM     31  C   UNL     1      49.451  65.737  28.352  0.00  0.00    +0.000 A 
ATOM     32  C   UNL     1      48.150  65.366  28.225  0.00  0.00    +0.000 A 
ENDBRANCH  21  23
ENDBRANCH   5  18
TORSDOF 3
