REMARK  Name = 
REMARK  7 active torsions:
REMARK  status: ('A' for Active; 'I' for Inactive)
REMARK    1  A    between atoms: C_5  and  O_18
REMARK    2  A    between atoms: C_7  and  C_10
REMARK    3  A    between atoms: C_10  and  C_11
REMARK    4  A    between atoms: C_11  and  C_12
REMARK    5  A    between atoms: O_18  and  C_19
REMARK    6  A    between atoms: C_19  and  C_25
REMARK    7  A    between atoms: C_23  and  N_27
REMARK                            x       y       z     vdW  Elec       q    Type
REMARK                         _______ _______ _______ _____ _____    ______ ____
ROOT
ATOM      1  O   UNL     1      50.596  72.206  32.866  0.00  0.00    +0.000 OA
ENDROOT
BRANCH   1   6
ATOM      2  N   UNL     1      55.008  72.718  34.117  0.00  0.00    +0.000 N 
ATOM      3  C   UNL     1      54.472  73.916  33.783  0.00  0.00    +0.000 A 
ATOM      4  N   UNL     1      53.193  73.672  33.435  0.00  0.00    +0.000 NA
ATOM      5  C   UNL     1      52.959  72.366  33.553  0.00  0.00    +0.000 A 
ATOM      6  C   UNL     1      51.794  71.658  33.304  0.00  0.00    +0.000 A 
ATOM      7  N   UNL     1      51.833  70.320  33.509  0.00  0.00    +0.000 NA
ATOM      8  C   UNL     1      52.954  69.706  33.934  0.00  0.00    +0.000 A 
ATOM      9  N   UNL     1      54.075  70.406  34.170  0.00  0.00    +0.000 NA
ATOM     10  C   UNL     1      54.105  71.742  33.986  0.00  0.00    +0.000 A 
ATOM     11  H   UNL     1      55.980  72.578  34.429  0.00  0.00    +0.000 HD
BRANCH   8  12
ATOM     12  C   UNL     1      52.841  68.223  34.113  0.00  0.00    +0.000 C 
BRANCH  12  13
ATOM     13  C   UNL     1      54.206  67.672  34.543  0.00  0.00    +0.000 C 
BRANCH  13  14
ATOM     14  C   UNL     1      54.784  66.951  33.384  0.00  0.00    +0.000 A 
ATOM     15  C   UNL     1      55.919  67.445  32.790  0.00  0.00    +0.000 A 
ATOM     16  C   UNL     1      56.361  66.667  31.705  0.00  0.00    +0.000 A 
ATOM     17  C   UNL     1      55.702  65.528  31.301  0.00  0.00    +0.000 A 
ATOM     18  C   UNL     1      54.572  65.093  31.944  0.00  0.00    +0.000 A 
ATOM     19  N   UNL     1      54.142  65.843  32.993  0.00  0.00    +0.000 NA
ENDBRANCH  13  14
ENDBRANCH  12  13
ENDBRANCH   8  12
ENDBRANCH   1   6
BRANCH   1  20
ATOM     20  C   UNL     1      49.383  71.526  32.966  0.00  0.00    +0.000 C 
ATOM     21  O   UNL     1      49.219  70.878  34.023  0.00  0.00    +0.000 OA
BRANCH  20  26
ATOM     22  C   UNL     1      47.452  72.690  30.106  0.00  0.00    +0.000 A 
ATOM     23  C   UNL     1      46.511  71.703  29.913  0.00  0.00    +0.000 A 
ATOM     24  C   UNL     1      46.535  70.611  30.782  0.00  0.00    +0.000 A 
ATOM     25  N   UNL     1      47.474  70.565  31.770  0.00  0.00    +0.000 NA
ATOM     26  C   UNL     1      48.387  71.564  31.926  0.00  0.00    +0.000 A 
ATOM     27  N   UNL     1      48.351  72.598  31.090  0.00  0.00    +0.000 NA
BRANCH  24  28
ATOM     28  N   UNL     1      45.574  69.605  30.583  0.00  0.00    +0.000 N 
ATOM     29  C   UNL     1      44.441  69.624  31.310  0.00  0.00    +0.000 A 
ATOM     30  C   UNL     1      43.530  68.605  31.071  0.00  0.00    +0.000 A 
ATOM     31  C   UNL     1      43.833  67.645  30.116  0.00  0.00    +0.000 A 
ATOM     32  N   UNL     1      42.899  66.601  29.871  0.00  0.00    +0.000 N 
ATOM     33  N   UNL     1      45.004  67.687  29.415  0.00  0.00    +0.000 NA
ATOM     34  C   UNL     1      45.881  68.678  29.653  0.00  0.00    +0.000 A 
ATOM     35  O   UNL     1      46.961  68.717  29.006  0.00  0.00    +0.000 OA
ATOM     36  H   UNL     1      43.106  65.879  29.166  0.00  0.00    +0.000 HD
ATOM     37  H   UNL     1      42.015  66.567  30.399  0.00  0.00    +0.000 HD
ENDBRANCH  24  28
ENDBRANCH  20  26
ENDBRANCH   1  20
TORSDOF 7
