REMARK  Name = 
REMARK  2 active torsions:
REMARK  status: ('A' for Active; 'I' for Inactive)
REMARK    1  A    between atoms: C_1  and  C_9
REMARK    2  A    between atoms: C_6  and  C_24
REMARK                            x       y       z     vdW  Elec       q    Type
REMARK                         _______ _______ _______ _____ _____    ______ ____
ROOT
ATOM      1  C   UNL     1      47.359  72.354  30.103  0.00  0.00    +0.000 A 
ATOM      2  C   UNL     1      46.101  71.707  30.154  0.00  0.00    +0.000 A 
ATOM      3  C   UNL     1      45.906  70.657  31.074  0.00  0.00    +0.000 A 
ATOM      4  N   UNL     1      46.932  70.308  31.874  0.00  0.00    +0.000 NA
ATOM      5  C   UNL     1      48.138  70.960  31.796  0.00  0.00    +0.000 A 
ATOM      6  N   UNL     1      48.331  71.948  30.933  0.00  0.00    +0.000 NA
ATOM      7  N   UNL     1      49.153  70.509  32.689  0.00  0.00    +0.000 N 
ATOM      8  C   UNL     1      49.001  69.314  33.327  0.00  0.00    +0.000 A 
ATOM      9  N   UNL     1      50.055  69.052  34.128  0.00  0.00    +0.000 NA
ATOM     10  C   UNL     1      50.906  70.097  34.007  0.00  0.00    +0.000 A 
ATOM     11  C   UNL     1      52.133  70.491  34.512  0.00  0.00    +0.000 A 
ATOM     12  O   UNL     1      52.690  69.693  35.339  0.00  0.00    +0.000 OA
ATOM     13  N   UNL     1      52.710  71.658  34.149  0.00  0.00    +0.000 N 
ATOM     14  C   UNL     1      52.099  72.494  33.267  0.00  0.00    +0.000 A 
ATOM     15  N   UNL     1      52.797  73.693  32.959  0.00  0.00    +0.000 N 
ATOM     16  N   UNL     1      50.889  72.144  32.745  0.00  0.00    +0.000 NA
ATOM     17  C   UNL     1      50.329  70.968  33.123  0.00  0.00    +0.000 A 
ATOM     18  H   UNL     1      53.624  71.918  34.545  0.00  0.00    +0.000 HD
ATOM     19  H   UNL     1      52.390  74.370  32.298  0.00  0.00    +0.000 HD
ATOM     20  H   UNL     1      53.709  73.885  33.397  0.00  0.00    +0.000 HD
ENDROOT
BRANCH   3  21
ATOM     21  C   UNL     1      44.648  69.948  31.186  0.00  0.00    +0.000 A 
ATOM     22  C   UNL     1      44.610  68.689  30.597  0.00  0.00    +0.000 A 
ATOM     23  C   UNL     1      43.436  67.923  30.653  0.00  0.00    +0.000 A 
ATOM     24  C   UNL     1      42.328  68.455  31.307  0.00  0.00    +0.000 A 
ATOM     25  C   UNL     1      42.351  69.709  31.899  0.00  0.00    +0.000 A 
ATOM     26  C   UNL     1      43.534  70.432  31.819  0.00  0.00    +0.000 A 
BRANCH  26  27
ATOM     27  C   UNL     1      43.541  71.738  32.442  0.00  0.00    +0.000 A 
ATOM     28  N   UNL     1      43.642  71.911  33.780  0.00  0.00    +0.000 NA
ATOM     29  O   UNL     1      43.628  73.171  34.118  0.00  0.00    +0.000 OA
ATOM     30  C   UNL     1      43.516  73.889  33.013  0.00  0.00    +0.000 A 
ATOM     31  N   UNL     1      43.465  73.013  32.020  0.00  0.00    +0.000 NA
ATOM     32  N   UNL     1      43.442  75.243  32.645  0.00  0.00    +0.000 N 
ATOM     33  C   UNL     1      44.058  75.733  31.395  0.00  0.00    +0.000 C 
ATOM     34  C   UNL     1      44.342  77.201  31.779  0.00  0.00    +0.000 C 
ATOM     35  C   UNL     1      42.978  77.537  32.370  0.00  0.00    +0.000 C 
ATOM     36  C   UNL     1      42.811  76.373  33.325  0.00  0.00    +0.000 C 
ENDBRANCH  26  27
ENDBRANCH   3  21
TORSDOF 2
