REMARK  Name = 
REMARK  2 active torsions:
REMARK  status: ('A' for Active; 'I' for Inactive)
REMARK    1  A    between atoms: C_1  and  C_17
REMARK    2  A    between atoms: C_15  and  N_21
REMARK                            x       y       z     vdW  Elec       q    Type
REMARK                         _______ _______ _______ _____ _____    ______ ____
ROOT
ATOM      1  C   UNL     1      44.687  71.062  31.165  0.00  0.00    +0.000 A 
ATOM      2  C   UNL     1      44.238  72.356  31.502  0.00  0.00    +0.000 A 
ATOM      3  C   UNL     1      45.049  73.443  31.256  0.00  0.00    +0.000 A 
ATOM      4  N   UNL     1      46.267  73.229  30.692  0.00  0.00    +0.000 NA
ATOM      5  C   UNL     1      46.677  71.986  30.379  0.00  0.00    +0.000 A 
ATOM      6  N   UNL     1      45.890  70.929  30.617  0.00  0.00    +0.000 NA
ENDROOT
BRANCH   3   7
ATOM      7  C   UNL     1      44.596  74.777  31.588  0.00  0.00    +0.000 A 
ATOM      8  C   UNL     1      45.465  75.836  31.392  0.00  0.00    +0.000 A 
ATOM      9  C   UNL     1      44.900  77.062  31.746  0.00  0.00    +0.000 A 
ATOM     10  C   UNL     1      43.640  77.218  32.231  0.00  0.00    +0.000 A 
ATOM     11  C   UNL     1      42.844  76.126  32.395  0.00  0.00    +0.000 A 
ATOM     12  N   UNL     1      43.338  74.894  32.067  0.00  0.00    +0.000 NA
ATOM     13  N   UNL     1      41.494  76.122  32.896  0.00  0.00    +0.000 N 
ATOM     14  C   UNL     1      40.999  76.734  33.980  0.00  0.00    +0.000 A 
ATOM     15  C   UNL     1      39.670  76.586  34.260  0.00  0.00    +0.000 A 
ATOM     16  C   UNL     1      38.841  75.830  33.458  0.00  0.00    +0.000 A 
ATOM     17  O   UNL     1      37.611  75.732  33.774  0.00  0.00    +0.000 OA
ATOM     18  N   UNL     1      39.380  75.232  32.378  0.00  0.00    +0.000 N 
ATOM     19  C   UNL     1      40.689  75.382  32.109  0.00  0.00    +0.000 A 
ATOM     20  O   UNL     1      41.040  74.758  31.063  0.00  0.00    +0.000 OA
ATOM     21  H   UNL     1      38.789  74.660  31.758  0.00  0.00    +0.000 HD
ENDBRANCH   3   7
BRANCH   1  22
ATOM     22  N   UNL     1      43.849  69.925  31.374  0.00  0.00    +0.000 N 
ATOM     23  C   UNL     1      44.179  68.691  30.973  0.00  0.00    +0.000 A 
ATOM     24  C   UNL     1      43.055  67.914  31.353  0.00  0.00    +0.000 A 
ATOM     25  N   UNL     1      42.137  68.717  31.948  0.00  0.00    +0.000 NA
ATOM     26  C   UNL     1      42.639  69.984  31.961  0.00  0.00    +0.000 A 
ATOM     27  N   UNL     1      41.764  70.869  32.563  0.00  0.00    +0.000 N 
ATOM     28  C   UNL     1      40.426  70.772  32.288  0.00  0.00    +0.000 A 
ATOM     29  C   UNL     1      39.704  71.742  32.946  0.00  0.00    +0.000 A 
ATOM     30  N   UNL     1      40.634  72.433  33.629  0.00  0.00    +0.000 NA
ATOM     31  C   UNL     1      41.866  71.936  33.418  0.00  0.00    +0.000 A 
ENDBRANCH   1  22
TORSDOF 2
