REMARK  Name = 
REMARK  1 active torsions:
REMARK  status: ('A' for Active; 'I' for Inactive)
REMARK    1  A    between atoms: C_17  and  C_18
REMARK                            x       y       z     vdW  Elec       q    Type
REMARK                         _______ _______ _______ _____ _____    ______ ____
ROOT
ATOM      1  N   UNL     1      46.277  70.476  31.119  0.00  0.00    +0.000 N 
ATOM      2  C   UNL     1      47.293  69.961  31.848  0.00  0.00    +0.000 A 
ATOM      3  C   UNL     1      48.510  70.623  31.744  0.00  0.00    +0.000 A 
ATOM      4  C   UNL     1      48.564  71.730  30.914  0.00  0.00    +0.000 A 
ATOM      5  N   UNL     1      49.790  72.433  30.781  0.00  0.00    +0.000 N 
ATOM      6  N   UNL     1      47.498  72.193  30.208  0.00  0.00    +0.000 NA
ATOM      7  C   UNL     1      46.322  71.543  30.317  0.00  0.00    +0.000 A 
ATOM      8  O   UNL     1      45.310  71.942  29.678  0.00  0.00    +0.000 OA
ATOM      9  C   UNL     1      42.695  69.727  31.866  0.00  0.00    +0.000 A 
ATOM     10  C   UNL     1      43.902  70.448  31.839  0.00  0.00    +0.000 A 
ATOM     11  C   UNL     1      45.008  69.826  31.198  0.00  0.00    +0.000 A 
ATOM     12  N   UNL     1      44.820  68.603  30.670  0.00  0.00    +0.000 NA
ATOM     13  C   UNL     1      43.642  67.945  30.719  0.00  0.00    +0.000 A 
ATOM     14  N   UNL     1      42.581  68.520  31.322  0.00  0.00    +0.000 NA
ATOM     15  N   UNL     1      43.489  66.651  30.146  0.00  0.00    +0.000 N 
ATOM     16  C   UNL     1      42.910  65.758  31.000  0.00  0.00    +0.000 A 
ATOM     17  C   UNL     1      42.708  64.448  30.549  0.00  0.00    +0.000 A 
ATOM     18  C   UNL     1      42.084  63.406  31.408  0.00  0.00    +0.000 C 
ATOM     19  C   UNL     1      43.106  64.136  29.264  0.00  0.00    +0.000 A 
ATOM     20  O   UNL     1      42.972  63.006  28.766  0.00  0.00    +0.000 OA
ATOM     21  N   UNL     1      43.679  65.050  28.440  0.00  0.00    +0.000 N 
ATOM     22  C   UNL     1      43.869  66.308  28.887  0.00  0.00    +0.000 A 
ATOM     23  O   UNL     1      44.398  67.233  28.189  0.00  0.00    +0.000 OA
ATOM     24  H   UNL     1      49.846  73.258  30.168  0.00  0.00    +0.000 HD
ATOM     25  H   UNL     1      50.623  72.118  31.298  0.00  0.00    +0.000 HD
ATOM     26  H   UNL     1      43.965  64.786  27.486  0.00  0.00    +0.000 HD
ENDROOT
TORSDOF 0
