REMARK  Name = 
REMARK  7 active torsions:
REMARK  status: ('A' for Active; 'I' for Inactive)
REMARK    1  A    between atoms: C_5  and  O_18
REMARK    2  A    between atoms: C_7  and  C_10
REMARK    3  A    between atoms: C_10  and  C_11
REMARK    4  A    between atoms: C_11  and  C_12
REMARK    5  A    between atoms: O_18  and  C_19
REMARK    6  A    between atoms: C_19  and  C_25
REMARK    7  A    between atoms: C_23  and  C_27
REMARK                            x       y       z     vdW  Elec       q    Type
REMARK                         _______ _______ _______ _____ _____    ______ ____
ROOT
ATOM      1  O   UNL     1      50.527  72.216  33.117  0.00  0.00    +0.000 OA
ENDROOT
BRANCH   1   6
ATOM      2  N   UNL     1      55.036  72.668  34.007  0.00  0.00    +0.000 N 
ATOM      3  C   UNL     1      54.483  73.880  33.750  0.00  0.00    +0.000 A 
ATOM      4  N   UNL     1      53.176  73.655  33.503  0.00  0.00    +0.000 NA
ATOM      5  C   UNL     1      52.939  72.342  33.607  0.00  0.00    +0.000 A 
ATOM      6  C   UNL     1      51.751  71.661  33.439  0.00  0.00    +0.000 A 
ATOM      7  N   UNL     1      51.799  70.322  33.604  0.00  0.00    +0.000 NA
ATOM      8  C   UNL     1      52.934  69.674  33.917  0.00  0.00    +0.000 A 
ATOM      9  N   UNL     1      54.085  70.369  34.077  0.00  0.00    +0.000 NA
ATOM     10  C   UNL     1      54.109  71.696  33.927  0.00  0.00    +0.000 A 
ATOM     11  H   UNL     1      56.029  72.513  34.232  0.00  0.00    +0.000 HD
BRANCH   8  12
ATOM     12  C   UNL     1      52.817  68.186  34.066  0.00  0.00    +0.000 C 
BRANCH  12  13
ATOM     13  C   UNL     1      54.169  67.626  34.509  0.00  0.00    +0.000 C 
BRANCH  13  14
ATOM     14  C   UNL     1      54.759  66.913  33.354  0.00  0.00    +0.000 A 
ATOM     15  C   UNL     1      55.914  67.411  32.760  0.00  0.00    +0.000 A 
ATOM     16  C   UNL     1      56.370  66.649  31.683  0.00  0.00    +0.000 A 
ATOM     17  C   UNL     1      55.722  65.515  31.265  0.00  0.00    +0.000 A 
ATOM     18  C   UNL     1      54.573  65.074  31.904  0.00  0.00    +0.000 A 
ATOM     19  N   UNL     1      54.129  65.808  32.946  0.00  0.00    +0.000 NA
ENDBRANCH  13  14
ENDBRANCH  12  13
ENDBRANCH   8  12
ENDBRANCH   1   6
BRANCH   1  20
ATOM     20  C   UNL     1      49.352  71.502  33.091  0.00  0.00    +0.000 C 
ATOM     21  O   UNL     1      49.097  70.873  34.163  0.00  0.00    +0.000 OA
BRANCH  20  26
ATOM     22  C   UNL     1      47.608  72.519  30.072  0.00  0.00    +0.000 A 
ATOM     23  C   UNL     1      46.789  71.446  29.802  0.00  0.00    +0.000 A 
ATOM     24  C   UNL     1      46.812  70.319  30.653  0.00  0.00    +0.000 A 
ATOM     25  N   UNL     1      47.682  70.392  31.717  0.00  0.00    +0.000 NA
ATOM     26  C   UNL     1      48.469  71.460  31.953  0.00  0.00    +0.000 A 
ATOM     27  N   UNL     1      48.415  72.490  31.131  0.00  0.00    +0.000 NA
BRANCH  24  28
ATOM     28  C   UNL     1      45.913  69.281  30.257  0.00  0.00    +0.000 A 
ATOM     29  N   UNL     1      46.240  68.353  29.342  0.00  0.00    +0.000 NA
ATOM     30  C   UNL     1      45.448  67.370  28.938  0.00  0.00    +0.000 A 
ATOM     31  N   UNL     1      44.214  67.198  29.407  0.00  0.00    +0.000 NA
ATOM     32  C   UNL     1      43.778  68.063  30.323  0.00  0.00    +0.000 A 
ATOM     33  C   UNL     1      42.508  67.922  30.837  0.00  0.00    +0.000 A 
ATOM     34  C   UNL     1      42.022  68.796  31.787  0.00  0.00    +0.000 A 
ATOM     35  C   UNL     1      42.860  69.832  32.212  0.00  0.00    +0.000 A 
ATOM     36  C   UNL     1      44.117  69.920  31.662  0.00  0.00    +0.000 A 
ATOM     37  C   UNL     1      44.633  69.069  30.717  0.00  0.00    +0.000 A 
ENDBRANCH  24  28
ENDBRANCH  20  26
ENDBRANCH   1  20
TORSDOF 7
