REMARK  Name = 
REMARK  2 active torsions:
REMARK  status: ('A' for Active; 'I' for Inactive)
REMARK    1  A    between atoms: C_1  and  C_9
REMARK    2  A    between atoms: C_3  and  N_21
REMARK                            x       y       z     vdW  Elec       q    Type
REMARK                         _______ _______ _______ _____ _____    ______ ____
ROOT
ATOM      1  C   UNL     1      43.889  70.182  31.386  0.00  0.00    +0.000 A 
ATOM      2  C   UNL     1      44.235  68.951  30.842  0.00  0.00    +0.000 A 
ATOM      3  C   UNL     1      43.201  68.036  30.864  0.00  0.00    +0.000 A 
ATOM      4  N   UNL     1      41.987  68.283  31.351  0.00  0.00    +0.000 NA
ATOM      5  C   UNL     1      41.732  69.518  31.865  0.00  0.00    +0.000 A 
ATOM      6  N   UNL     1      42.679  70.470  31.885  0.00  0.00    +0.000 NA
ENDROOT
BRANCH   1   9
ATOM      7  C   UNL     1      45.607  73.479  30.883  0.00  0.00    +0.000 A 
ATOM      8  C   UNL     1      44.618  72.475  30.865  0.00  0.00    +0.000 A 
ATOM      9  C   UNL     1      44.912  71.208  31.407  0.00  0.00    +0.000 A 
ATOM     10  N   UNL     1      46.133  71.012  31.920  0.00  0.00    +0.000 NA
ATOM     11  C   UNL     1      47.086  71.992  31.932  0.00  0.00    +0.000 A 
ATOM     12  N   UNL     1      46.817  73.205  31.418  0.00  0.00    +0.000 NA
ATOM     13  N   UNL     1      48.387  71.793  32.474  0.00  0.00    +0.000 N 
ATOM     14  C   UNL     1      48.662  71.564  33.780  0.00  0.00    +0.000 A 
ATOM     15  C   UNL     1      49.964  71.384  34.205  0.00  0.00    +0.000 A 
ATOM     16  C   UNL     1      51.012  71.436  33.284  0.00  0.00    +0.000 A 
ATOM     17  O   UNL     1      52.193  71.274  33.662  0.00  0.00    +0.000 OA
ATOM     18  N   UNL     1      50.685  71.667  31.991  0.00  0.00    +0.000 N 
ATOM     19  C   UNL     1      49.399  71.845  31.572  0.00  0.00    +0.000 A 
ATOM     20  O   UNL     1      49.297  72.048  30.336  0.00  0.00    +0.000 OA
ATOM     21  H   UNL     1      51.441  71.710  31.292  0.00  0.00    +0.000 HD
ENDBRANCH   1   9
BRANCH   3  22
ATOM     22  N   UNL     1      43.332  66.697  30.353  0.00  0.00    +0.000 N 
ATOM     23  C   UNL     1      42.879  65.770  31.230  0.00  0.00    +0.000 A 
ATOM     24  C   UNL     1      42.931  64.421  30.896  0.00  0.00    +0.000 A 
ATOM     25  C   UNL     1      43.455  64.058  29.652  0.00  0.00    +0.000 A 
ATOM     26  N   UNL     1      43.511  62.666  29.305  0.00  0.00    +0.000 N 
ATOM     27  N   UNL     1      43.885  65.025  28.836  0.00  0.00    +0.000 NA
ATOM     28  C   UNL     1      43.835  66.318  29.156  0.00  0.00    +0.000 A 
ATOM     29  O   UNL     1      44.217  67.265  28.443  0.00  0.00    +0.000 OA
ATOM     30  H   UNL     1      43.894  62.377  28.393  0.00  0.00    +0.000 HD
ATOM     31  H   UNL     1      43.169  61.956  29.968  0.00  0.00    +0.000 HD
ENDBRANCH   3  22
TORSDOF 2
