REMARK  Name = 
REMARK  3 active torsions:
REMARK  status: ('A' for Active; 'I' for Inactive)
REMARK    1  A    between atoms: C_2  and  C_7
REMARK    2  A    between atoms: C_5  and  C_18
REMARK    3  A    between atoms: C_27  and  N_32
REMARK                            x       y       z     vdW  Elec       q    Type
REMARK                         _______ _______ _______ _____ _____    ______ ____
ROOT
ATOM      1  C   UNL     1      46.683  72.078  29.638  0.00  0.00    +0.000 A 
ATOM      2  C   UNL     1      45.658  72.114  30.637  0.00  0.00    +0.000 A 
ATOM      3  C   UNL     1      45.165  70.914  31.152  0.00  0.00    +0.000 A 
ATOM      4  N   UNL     1      45.684  69.756  30.677  0.00  0.00    +0.000 NA
ATOM      5  C   UNL     1      46.650  69.766  29.733  0.00  0.00    +0.000 A 
ATOM      6  N   UNL     1      47.134  70.900  29.231  0.00  0.00    +0.000 NA
ENDROOT
BRANCH   5   7
ATOM      7  C   UNL     1      47.132  68.462  29.290  0.00  0.00    +0.000 A 
ATOM      8  N   UNL     1      48.381  67.968  29.236  0.00  0.00    +0.000 NA
ATOM      9  O   UNL     1      48.359  66.742  28.766  0.00  0.00    +0.000 OA
ATOM     10  C   UNL     1      47.086  66.409  28.500  0.00  0.00    +0.000 A 
ATOM     11  N   UNL     1      46.338  67.465  28.822  0.00  0.00    +0.000 NA
ATOM     12  N   UNL     1      46.585  65.185  27.978  0.00  0.00    +0.000 N 
ATOM     13  C   UNL     1      47.277  64.354  27.166  0.00  0.00    +0.000 A 
ATOM     14  N   UNL     1      46.543  63.296  26.849  0.00  0.00    +0.000 NA
ATOM     15  C   UNL     1      45.341  63.423  27.459  0.00  0.00    +0.000 A 
ATOM     16  C   UNL     1      44.206  62.614  27.471  0.00  0.00    +0.000 A 
ATOM     17  N   UNL     1      43.139  63.016  28.189  0.00  0.00    +0.000 NA
ATOM     18  C   UNL     1      43.211  64.195  28.873  0.00  0.00    +0.000 A 
ATOM     19  N   UNL     1      44.316  64.971  28.855  0.00  0.00    +0.000 NA
ATOM     20  C   UNL     1      45.387  64.605  28.157  0.00  0.00    +0.000 A 
BRANCH  16  21
ATOM     21  N   UNL     1      44.247  61.398  26.715  0.00  0.00    +0.000 N 
ATOM     22  H   UNL     1      43.428  60.774  26.699  0.00  0.00    +0.000 HD
ATOM     23  H   UNL     1      45.096  61.148  26.187  0.00  0.00    +0.000 HD
ENDBRANCH  16  21
ENDBRANCH   5   7
BRANCH   2  24
ATOM     24  C   UNL     1      45.179  73.442  31.063  0.00  0.00    +0.000 A 
ATOM     25  C   UNL     1      46.027  74.560  31.015  0.00  0.00    +0.000 A 
ATOM     26  S   UNL     1      44.967  75.939  31.638  0.00  0.00    +0.000 S 
ATOM     27  C   UNL     1      43.530  74.717  31.857  0.00  0.00    +0.000 A 
ATOM     28  N   UNL     1      43.995  73.771  31.514  0.00  0.00    +0.000 NA
ATOM     29  N   UNL     1      42.223  75.066  32.350  0.00  0.00    +0.000 N 
ATOM     30  C   UNL     1      41.760  76.405  32.527  0.00  0.00    +0.000 C 
ATOM     31  C   UNL     1      40.585  76.309  33.499  0.00  0.00    +0.000 C 
ATOM     32  O   UNL     1      39.560  75.539  32.994  0.00  0.00    +0.000 OA
ATOM     33  C   UNL     1      39.945  74.404  32.341  0.00  0.00    +0.000 C 
ATOM     34  C   UNL     1      41.338  73.967  32.682  0.00  0.00    +0.000 C 
ENDBRANCH   2  24
TORSDOF 3
