REMARK  Name = 
REMARK  2 active torsions:
REMARK  status: ('A' for Active; 'I' for Inactive)
REMARK    1  A    between atoms: C_2  and  C_7
REMARK    2  A    between atoms: C_5  and  C_18
REMARK                            x       y       z     vdW  Elec       q    Type
REMARK                         _______ _______ _______ _____ _____    ______ ____
ROOT
ATOM      1  C   UNL     1      46.609  71.992  29.546  0.00  0.00    +0.000 A 
ATOM      2  C   UNL     1      45.667  72.050  30.605  0.00  0.00    +0.000 A 
ATOM      3  C   UNL     1      45.233  70.856  31.178  0.00  0.00    +0.000 A 
ATOM      4  N   UNL     1      45.726  69.686  30.707  0.00  0.00    +0.000 NA
ATOM      5  C   UNL     1      46.619  69.684  29.700  0.00  0.00    +0.000 A 
ATOM      6  N   UNL     1      47.048  70.811  29.136  0.00  0.00    +0.000 NA
ENDROOT
BRANCH   5   7
ATOM      7  C   UNL     1      47.095  68.378  29.255  0.00  0.00    +0.000 A 
ATOM      8  N   UNL     1      48.352  67.876  29.209  0.00  0.00    +0.000 NA
ATOM      9  O   UNL     1      48.335  66.655  28.739  0.00  0.00    +0.000 OA
ATOM     10  C   UNL     1      47.064  66.329  28.466  0.00  0.00    +0.000 A 
ATOM     11  N   UNL     1      46.303  67.382  28.782  0.00  0.00    +0.000 NA
ATOM     12  N   UNL     1      46.591  65.091  27.936  0.00  0.00    +0.000 N 
ATOM     13  C   UNL     1      47.249  64.224  27.143  0.00  0.00    +0.000 A 
ATOM     14  N   UNL     1      46.447  63.187  26.873  0.00  0.00    +0.000 NA
ATOM     15  C   UNL     1      45.291  63.399  27.490  0.00  0.00    +0.000 A 
ATOM     16  C   UNL     1      44.092  62.704  27.591  0.00  0.00    +0.000 A 
ATOM     17  N   UNL     1      43.091  63.209  28.316  0.00  0.00    +0.000 NA
ATOM     18  C   UNL     1      43.202  64.372  28.956  0.00  0.00    +0.000 A 
ATOM     19  N   UNL     1      44.326  65.105  28.910  0.00  0.00    +0.000 NA
ATOM     20  C   UNL     1      45.341  64.601  28.179  0.00  0.00    +0.000 A 
ENDBRANCH   5   7
BRANCH   2  21
ATOM     21  C   UNL     1      45.200  73.377  31.033  0.00  0.00    +0.000 A 
ATOM     22  C   UNL     1      46.063  74.492  30.978  0.00  0.00    +0.000 A 
ATOM     23  S   UNL     1      45.016  75.876  31.610  0.00  0.00    +0.000 S 
ATOM     24  C   UNL     1      43.575  74.678  31.838  0.00  0.00    +0.000 A 
ATOM     25  N   UNL     1      44.022  73.725  31.494  0.00  0.00    +0.000 NA
ATOM     26  N   UNL     1      42.272  75.034  32.342  0.00  0.00    +0.000 N 
ATOM     27  C   UNL     1      41.840  76.378  32.546  0.00  0.00    +0.000 C 
ATOM     28  C   UNL     1      40.626  76.295  33.465  0.00  0.00    +0.000 C 
ATOM     29  O   UNL     1      39.602  75.538  32.954  0.00  0.00    +0.000 OA
ATOM     30  C   UNL     1      39.971  74.410  32.268  0.00  0.00    +0.000 C 
ATOM     31  C   UNL     1      41.364  73.952  32.652  0.00  0.00    +0.000 C 
ENDBRANCH   2  21
TORSDOF 2
