REMARK  Name = 
REMARK  5 active torsions:
REMARK  status: ('A' for Active; 'I' for Inactive)
REMARK    1  A    between atoms: C_1  and  C_7
REMARK    2  A    between atoms: N_4  and  C_22
REMARK    3  A    between atoms: C_24  and  C_25
REMARK    4  A    between atoms: C_30  and  C_31
REMARK    5  A    between atoms: C_31  and  O_33
REMARK                            x       y       z     vdW  Elec       q    Type
REMARK                         _______ _______ _______ _____ _____    ______ ____
ROOT
ATOM      1  C   UNL     1      44.868  73.164  31.214  0.00  0.00    +0.000 A 
ATOM      2  C   UNL     1      45.352  73.950  32.217  0.00  0.00    +0.000 A 
ATOM      3  C   UNL     1      44.517  75.026  32.443  0.00  0.00    +0.000 A 
ATOM      4  N   UNL     1      43.519  74.855  31.541  0.00  0.00    +0.000 N 
ATOM      5  N   UNL     1      43.735  73.786  30.847  0.00  0.00    +0.000 NA
ENDROOT
BRANCH   1   7
ATOM      6  C   UNL     1      46.478  72.014  29.708  0.00  0.00    +0.000 A 
ATOM      7  C   UNL     1      45.495  71.967  30.722  0.00  0.00    +0.000 A 
ATOM      8  C   UNL     1      45.171  70.717  31.203  0.00  0.00    +0.000 A 
ATOM      9  N   UNL     1      45.797  69.627  30.687  0.00  0.00    +0.000 NA
ATOM     10  C   UNL     1      46.741  69.737  29.704  0.00  0.00    +0.000 A 
ATOM     11  N   UNL     1      47.075  70.926  29.221  0.00  0.00    +0.000 NA
ATOM     12  N   UNL     1      47.297  68.491  29.278  0.00  0.00    +0.000 N 
ATOM     13  C   UNL     1      48.541  67.974  29.112  0.00  0.00    +0.000 A 
ATOM     14  N   UNL     1      48.420  66.708  28.673  0.00  0.00    +0.000 NA
ATOM     15  C   UNL     1      47.134  66.404  28.556  0.00  0.00    +0.000 A 
ATOM     16  C   UNL     1      46.560  65.218  28.140  0.00  0.00    +0.000 A 
ATOM     17  N   UNL     1      45.205  65.173  28.112  0.00  0.00    +0.000 NA
ATOM     18  C   UNL     1      44.484  66.239  28.473  0.00  0.00    +0.000 A 
ATOM     19  N   UNL     1      45.055  67.369  28.869  0.00  0.00    +0.000 NA
ATOM     20  C   UNL     1      46.410  67.518  28.934  0.00  0.00    +0.000 A 
ATOM     21  N   UNL     1      47.331  64.084  27.756  0.00  0.00    +0.000 N 
ATOM     22  H   UNL     1      46.860  63.220  27.452  0.00  0.00    +0.000 HD
ATOM     23  H   UNL     1      48.360  64.128  27.782  0.00  0.00    +0.000 HD
ENDBRANCH   1   7
BRANCH   4  24
ATOM     24  C   UNL     1      42.421  75.721  31.385  0.00  0.00    +0.000 C 
ATOM     25  C   UNL     1      41.278  75.341  30.508  0.00  0.00    +0.000 C 
ATOM     26  C   UNL     1      40.995  75.359  31.906  0.00  0.00    +0.000 C 
BRANCH  26  27
ATOM     27  C   UNL     1      40.790  74.099  32.680  0.00  0.00    +0.000 A 
ATOM     28  C   UNL     1      40.375  73.028  31.835  0.00  0.00    +0.000 A 
ATOM     29  C   UNL     1      40.068  71.776  32.392  0.00  0.00    +0.000 A 
ATOM     30  C   UNL     1      40.163  71.568  33.750  0.00  0.00    +0.000 A 
ATOM     31  C   UNL     1      40.566  72.636  34.521  0.00  0.00    +0.000 A 
ATOM     32  C   UNL     1      40.867  73.854  34.004  0.00  0.00    +0.000 A 
BRANCH  32  33
ATOM     33  C   UNL     1      41.287  74.973  34.827  0.00  0.00    +0.000 C 
ATOM     34  O   UNL     1      40.581  75.903  35.279  0.00  0.00    +0.000 OA
BRANCH  33  35
ATOM     35  O   UNL     1      42.610  75.086  35.191  0.00  0.00    +0.000 OA
ATOM     36  H   UNL     1      42.906  75.846  35.752  0.00  0.00    +0.000 HD
ENDBRANCH  33  35
ENDBRANCH  32  33
ENDBRANCH  26  27
ENDBRANCH   4  24
TORSDOF 5
