REMARK  Name = 
REMARK  5 active torsions:
REMARK  status: ('A' for Active; 'I' for Inactive)
REMARK    1  A    between atoms: C_1  and  C_3
REMARK    2  A    between atoms: C_1  and  C_17
REMARK    3  A    between atoms: C_10  and  C_16
REMARK    4  A    between atoms: C_19  and  C_20
REMARK    5  A    between atoms: C_29  and  N_34
REMARK                            x       y       z     vdW  Elec       q    Type
REMARK                         _______ _______ _______ _____ _____    ______ ____
ROOT
ATOM      1  C   UNL     1      44.396  75.982  31.629  0.00  0.00    +0.000 C 
ATOM      2  C   UNL     1      44.469  77.373  32.048  0.00  0.00    +0.000 C 
ATOM      3  C   UNL     1      43.172  76.924  31.572  0.00  0.00    +0.000 C 
ENDROOT
BRANCH   3   4
ATOM      4  C   UNL     1      42.022  76.659  32.460  0.00  0.00    +0.000 A 
ATOM      5  N   UNL     1      41.707  77.133  33.706  0.00  0.00    +0.000 NA
ATOM      6  O   UNL     1      40.600  76.600  34.088  0.00  0.00    +0.000 OA
ATOM      7  C   UNL     1      40.142  75.785  33.169  0.00  0.00    +0.000 A 
ATOM      8  N   UNL     1      41.024  75.812  32.140  0.00  0.00    +0.000 NA
ATOM      9  N   UNL     1      38.986  74.948  33.059  0.00  0.00    +0.000 N 
ATOM     10  C   UNL     1      39.132  73.643  32.757  0.00  0.00    +0.000 A 
ATOM     11  N   UNL     1      37.909  73.057  32.708  0.00  0.00    +0.000 NA
ATOM     12  C   UNL     1      36.976  73.996  32.982  0.00  0.00    +0.000 A 
ATOM     13  C   UNL     1      35.585  74.094  33.098  0.00  0.00    +0.000 A 
ATOM     14  N   UNL     1      35.001  75.267  33.401  0.00  0.00    +0.000 NA
ATOM     15  C   UNL     1      35.715  76.396  33.606  0.00  0.00    +0.000 A 
ATOM     16  N   UNL     1      37.073  76.354  33.505  0.00  0.00    +0.000 NA
ATOM     17  C   UNL     1      37.669  75.174  33.200  0.00  0.00    +0.000 A 
BRANCH  13  18
ATOM     18  N   UNL     1      34.859  72.888  32.876  0.00  0.00    +0.000 N 
ATOM     19  H   UNL     1      33.831  72.885  32.945  0.00  0.00    +0.000 HD
ATOM     20  H   UNL     1      35.362  72.019  32.647  0.00  0.00    +0.000 HD
ENDBRANCH  13  18
ENDBRANCH   3   4
BRANCH   1  21
ATOM     21  C   UNL     1      44.384  74.851  32.583  0.00  0.00    +0.000 C 
BRANCH  21  23
ATOM     22  C   UNL     1      45.869  72.787  32.826  0.00  0.00    +0.000 A 
ATOM     23  C   UNL     1      45.050  73.666  32.102  0.00  0.00    +0.000 A 
ATOM     24  C   UNL     1      44.842  73.393  30.773  0.00  0.00    +0.000 A 
ATOM     25  N   UNL     1      45.440  72.286  30.225  0.00  0.00    +0.000 NA
ATOM     26  C   UNL     1      46.229  71.449  30.949  0.00  0.00    +0.000 A 
ATOM     27  N   UNL     1      46.432  71.717  32.250  0.00  0.00    +0.000 NA
ATOM     28  N   UNL     1      46.808  70.324  30.300  0.00  0.00    +0.000 N 
ATOM     29  C   UNL     1      46.020  69.309  29.906  0.00  0.00    +0.000 A 
ATOM     30  C   UNL     1      46.470  68.168  29.269  0.00  0.00    +0.000 A 
ATOM     31  C   UNL     1      47.822  68.074  29.023  0.00  0.00    +0.000 A 
ATOM     32  O   UNL     1      48.280  67.072  28.454  0.00  0.00    +0.000 OA
ATOM     33  N   UNL     1      48.604  69.106  29.426  0.00  0.00    +0.000 N 
ATOM     34  C   UNL     1      48.122  70.213  30.051  0.00  0.00    +0.000 A 
ATOM     35  O   UNL     1      48.899  71.145  30.404  0.00  0.00    +0.000 OA
ATOM     36  C   UNL     1      45.493  67.109  28.882  0.00  0.00    +0.000 C 
ATOM     37  H   UNL     1      49.617  69.048  29.249  0.00  0.00    +0.000 HD
ENDBRANCH  21  23
ENDBRANCH   1  21
TORSDOF 4
