REMARK  Name = 
REMARK  5 active torsions:
REMARK  status: ('A' for Active; 'I' for Inactive)
REMARK    1  A    between atoms: C_1  and  C_6
REMARK    2  A    between atoms: C_1  and  C_18
REMARK    3  A    between atoms: C_3  and  C_8
REMARK    4  A    between atoms: C_18  and  C_19
REMARK    5  A    between atoms: C_29  and  N_34
REMARK                            x       y       z     vdW  Elec       q    Type
REMARK                         _______ _______ _______ _____ _____    ______ ____
ROOT
ATOM      1  C   UNL     1      48.979  66.818  29.845  0.00  0.00    +0.000 C 
ENDROOT
BRANCH   1   6
ATOM      2  C   UNL     1      47.378  69.794  31.303  0.00  0.00    +0.000 C 
ATOM      3  C   UNL     1      46.828  70.437  30.251  0.00  0.00    +0.000 C 
ATOM      4  C   UNL     1      47.017  69.839  29.033  0.00  0.00    +0.000 C 
ATOM      5  N   UNL     1      47.715  68.684  28.954  0.00  0.00    +0.000 NA
ATOM      6  C   UNL     1      48.233  68.090  30.001  0.00  0.00    +0.000 C 
ATOM      7  N   UNL     1      48.079  68.628  31.193  0.00  0.00    +0.000 N 
ATOM      8  H   UNL     1      48.480  68.177  32.028  0.00  0.00    +0.000 HD
BRANCH   3   9
ATOM      9  C   UNL     1      46.078  71.667  30.508  0.00  0.00    +0.000 C 
ATOM     10  N   UNL     1      46.877  72.768  30.472  0.00  0.00    +0.000 NA
ATOM     11  C   UNL     1      46.432  73.993  30.788  0.00  0.00    +0.000 C 
ATOM     12  N   UNL     1      45.166  74.166  31.329  0.00  0.00    +0.000 N 
ATOM     13  C   UNL     1      44.416  73.050  31.536  0.00  0.00    +0.000 A 
ATOM     14  C   UNL     1      43.189  73.128  32.123  0.00  0.00    +0.000 A 
ATOM     15  C   UNL     1      42.468  71.973  32.388  0.00  0.00    +0.000 A 
ATOM     16  C   UNL     1      42.987  70.716  32.060  0.00  0.00    +0.000 A 
ATOM     17  C   UNL     1      44.242  70.653  31.459  0.00  0.00    +0.000 A 
ATOM     18  C   UNL     1      44.906  71.824  31.219  0.00  0.00    +0.000 A 
ATOM     19  H   UNL     1      44.808  75.103  31.565  0.00  0.00    +0.000 HD
ENDBRANCH   3   9
ENDBRANCH   1   6
BRANCH   1  20
ATOM     20  C   UNL     1      49.134  66.419  28.398  0.00  0.00    +0.000 C 
BRANCH  20  21
ATOM     21  C   UNL     1      48.124  65.452  27.972  0.00  0.00    +0.000 A 
ATOM     22  C   UNL     1      48.425  64.671  26.862  0.00  0.00    +0.000 A 
ATOM     23  C   UNL     1      47.474  63.731  26.425  0.00  0.00    +0.000 A 
ATOM     24  N   UNL     1      46.315  63.614  27.085  0.00  0.00    +0.000 NA
ATOM     25  C   UNL     1      46.016  64.373  28.169  0.00  0.00    +0.000 A 
ATOM     26  N   UNL     1      46.941  65.263  28.565  0.00  0.00    +0.000 NA
ATOM     27  N   UNL     1      44.786  64.271  28.896  0.00  0.00    +0.000 N 
ATOM     28  C   UNL     1      43.690  65.085  28.895  0.00  0.00    +0.000 A 
ATOM     29  N   UNL     1      42.802  64.547  29.754  0.00  0.00    +0.000 NA
ATOM     30  C   UNL     1      43.324  63.429  30.279  0.00  0.00    +0.000 A 
ATOM     31  C   UNL     1      42.874  62.493  31.190  0.00  0.00    +0.000 A 
ATOM     32  N   UNL     1      43.657  61.447  31.524  0.00  0.00    +0.000 NA
ATOM     33  C   UNL     1      44.866  61.262  31.013  0.00  0.00    +0.000 A 
ATOM     34  N   UNL     1      45.302  62.174  30.127  0.00  0.00    +0.000 NA
ATOM     35  C   UNL     1      44.568  63.234  29.756  0.00  0.00    +0.000 A 
BRANCH  31  36
ATOM     36  N   UNL     1      41.597  62.624  31.775  0.00  0.00    +0.000 N 
ATOM     37  H   UNL     1      41.267  61.923  32.454  0.00  0.00    +0.000 HD
ATOM     38  H   UNL     1      40.995  63.421  31.523  0.00  0.00    +0.000 HD
ENDBRANCH  31  36
ENDBRANCH  20  21
ENDBRANCH   1  20
TORSDOF 5
