REMARK  Name = 
REMARK  3 active torsions:
REMARK  status: ('A' for Active; 'I' for Inactive)
REMARK    1  A    between atoms: C_19  and  O_20
REMARK    2  A    between atoms: O_20  and  C_21
REMARK    3  A    between atoms: C_23  and  C_24
REMARK                            x       y       z     vdW  Elec       q    Type
REMARK                         _______ _______ _______ _____ _____    ______ ____
ROOT
ATOM      1  N   UNL     1      46.297  70.498  31.296  0.00  0.00    +0.000 N 
ATOM      2  C   UNL     1      47.268  69.950  31.999  0.00  0.00    +0.000 A 
ATOM      3  C   UNL     1      48.491  70.576  31.993  0.00  0.00    +0.000 A 
ATOM      4  C   UNL     1      48.590  71.734  31.242  0.00  0.00    +0.000 A 
ATOM      5  N   UNL     1      49.854  72.403  31.221  0.00  0.00    +0.000 N 
ATOM      6  N   UNL     1      47.559  72.264  30.532  0.00  0.00    +0.000 NA
ATOM      7  C   UNL     1      46.373  71.632  30.555  0.00  0.00    +0.000 A 
ATOM      8  O   UNL     1      45.390  72.087  29.911  0.00  0.00    +0.000 OA
ATOM      9  C   UNL     1      42.661  69.790  31.836  0.00  0.00    +0.000 A 
ATOM     10  C   UNL     1      43.875  70.457  31.900  0.00  0.00    +0.000 A 
ATOM     11  C   UNL     1      45.008  69.873  31.277  0.00  0.00    +0.000 A 
ATOM     12  N   UNL     1      44.826  68.681  30.647  0.00  0.00    +0.000 NA
ATOM     13  C   UNL     1      43.623  68.078  30.615  0.00  0.00    +0.000 A 
ATOM     14  N   UNL     1      42.557  68.618  31.196  0.00  0.00    +0.000 NA
ATOM     15  N   UNL     1      43.648  66.842  29.897  0.00  0.00    +0.000 N 
ATOM     16  N   UNL     1      44.237  66.969  28.696  0.00  0.00    +0.000 NA
ATOM     17  C   UNL     1      44.180  65.753  28.079  0.00  0.00    +0.000 A 
ATOM     18  C   UNL     1      43.545  64.892  28.927  0.00  0.00    +0.000 A 
ATOM     19  C   UNL     1      43.214  65.591  30.073  0.00  0.00    +0.000 A 
ATOM     20  H   UNL     1      49.970  73.268  30.674  0.00  0.00    +0.000 HD
ATOM     21  H   UNL     1      50.648  72.020  31.753  0.00  0.00    +0.000 HD
ENDROOT
BRANCH  19  22
ATOM     22  O   UNL     1      42.612  65.333  31.211  0.00  0.00    +0.000 OA
BRANCH  22  23
ATOM     23  C   UNL     1      42.572  64.000  31.732  0.00  0.00    +0.000 C 
ATOM     24  C   UNL     1      43.731  63.103  31.582  0.00  0.00    +0.000 C 
ATOM     25  C   UNL     1      42.438  62.864  30.826  0.00  0.00    +0.000 C 
BRANCH  25  26
ATOM     26  C   UNL     1      41.582  61.701  31.134  0.00  0.00    +0.000 A 
ATOM     27  C   UNL     1      40.214  61.791  31.094  0.00  0.00    +0.000 A 
ATOM     28  C   UNL     1      39.447  60.664  31.393  0.00  0.00    +0.000 A 
ATOM     29  C   UNL     1      40.065  59.457  31.729  0.00  0.00    +0.000 A 
ATOM     30  C   UNL     1      41.424  59.363  31.769  0.00  0.00    +0.000 A 
ATOM     31  C   UNL     1      42.038  58.164  32.103  0.00  0.00    +0.000 A 
ATOM     32  C   UNL     1      43.418  58.056  32.147  0.00  0.00    +0.000 A 
ATOM     33  C   UNL     1      44.178  59.165  31.854  0.00  0.00    +0.000 A 
ATOM     34  C   UNL     1      43.566  60.355  31.523  0.00  0.00    +0.000 A 
ATOM     35  C   UNL     1      42.194  60.493  31.470  0.00  0.00    +0.000 A 
ENDBRANCH  25  26
ENDBRANCH  22  23
ENDBRANCH  19  22
TORSDOF 3
