REMARK  Name = 
REMARK  3 active torsions:
REMARK  status: ('A' for Active; 'I' for Inactive)
REMARK    1  A    between atoms: C_2  and  C_7
REMARK    2  A    between atoms: C_5  and  C_18
REMARK    3  A    between atoms: C_21  and  C_23
REMARK                            x       y       z     vdW  Elec       q    Type
REMARK                         _______ _______ _______ _____ _____    ______ ____
ROOT
ATOM      1  C   UNL     1      46.638  71.715  29.420  0.00  0.00    +0.000 A 
ATOM      2  C   UNL     1      45.748  71.817  30.524  0.00  0.00    +0.000 A 
ATOM      3  C   UNL     1      45.290  70.649  31.147  0.00  0.00    +0.000 A 
ATOM      4  N   UNL     1      45.720  69.452  30.666  0.00  0.00    +0.000 NA
ATOM      5  C   UNL     1      46.564  69.403  29.618  0.00  0.00    +0.000 A 
ATOM      6  N   UNL     1      47.011  70.510  29.011  0.00  0.00    +0.000 NA
ENDROOT
BRANCH   2   7
ATOM      7  C   UNL     1      45.349  73.170  30.959  0.00  0.00    +0.000 A 
ATOM      8  C   UNL     1      46.288  74.220  30.952  0.00  0.00    +0.000 A 
ATOM      9  S   UNL     1      45.315  75.665  31.567  0.00  0.00    +0.000 S 
ATOM     10  C   UNL     1      43.785  74.548  31.723  0.00  0.00    +0.000 A 
ATOM     11  N   UNL     1      44.181  73.575  31.379  0.00  0.00    +0.000 NA
ATOM     12  N   UNL     1      42.504  75.003  32.186  0.00  0.00    +0.000 N 
ATOM     13  C   UNL     1      42.106  76.376  32.299  0.00  0.00    +0.000 C 
ATOM     14  C   UNL     1      40.939  76.373  33.308  0.00  0.00    +0.000 C 
ATOM     15  O   UNL     1      39.879  75.635  32.873  0.00  0.00    +0.000 OA
ATOM     16  C   UNL     1      40.188  74.473  32.230  0.00  0.00    +0.000 C 
ATOM     17  C   UNL     1      41.556  73.969  32.565  0.00  0.00    +0.000 C 
ENDBRANCH   2   7
BRANCH   5  18
ATOM     18  C   UNL     1      46.973  68.077  29.168  0.00  0.00    +0.000 A 
ATOM     19  N   UNL     1      48.159  67.470  29.169  0.00  0.00    +0.000 NA
ATOM     20  O   UNL     1      48.053  66.259  28.660  0.00  0.00    +0.000 OA
ATOM     21  C   UNL     1      46.796  66.038  28.312  0.00  0.00    +0.000 A 
ATOM     22  N   UNL     1      46.167  67.160  28.634  0.00  0.00    +0.000 NA
BRANCH  21  23
ATOM     23  C   UNL     1      46.453  64.761  27.729  0.00  0.00    +0.000 A 
ATOM     24  C   UNL     1      47.307  64.140  26.868  0.00  0.00    +0.000 A 
ATOM     25  C   UNL     1      47.025  62.903  26.275  0.00  0.00    +0.000 A 
ATOM     26  C   UNL     1      45.857  62.257  26.542  0.00  0.00    +0.000 A 
ATOM     27  C   UNL     1      44.971  62.845  27.400  0.00  0.00    +0.000 A 
ATOM     28  C   UNL     1      43.782  62.210  27.685  0.00  0.00    +0.000 A 
ATOM     29  C   UNL     1      42.846  62.751  28.542  0.00  0.00    +0.000 A 
ATOM     30  C   UNL     1      43.149  63.987  29.124  0.00  0.00    +0.000 A 
ATOM     31  C   UNL     1      44.349  64.582  28.808  0.00  0.00    +0.000 A 
ATOM     32  C   UNL     1      45.292  64.063  27.959  0.00  0.00    +0.000 A 
ENDBRANCH  21  23
ENDBRANCH   5  18
TORSDOF 3
