REMARK  Name = 
REMARK  3 active torsions:
REMARK  status: ('A' for Active; 'I' for Inactive)
REMARK    1  A    between atoms: C_1  and  C_19
REMARK    2  A    between atoms: C_6  and  C_7
REMARK    3  A    between atoms: C_21  and  C_23
REMARK                            x       y       z     vdW  Elec       q    Type
REMARK                         _______ _______ _______ _____ _____    ______ ____
ROOT
ATOM      1  C   UNL     1      44.771  70.105  31.097  0.00  0.00    +0.000 A 
ATOM      2  C   UNL     1      44.851  68.841  30.536  0.00  0.00    +0.000 A 
ATOM      3  C   UNL     1      43.776  67.952  30.626  0.00  0.00    +0.000 A 
ATOM      4  C   UNL     1      42.629  68.366  31.291  0.00  0.00    +0.000 A 
ATOM      5  C   UNL     1      42.517  69.622  31.863  0.00  0.00    +0.000 A 
ATOM      6  C   UNL     1      43.612  70.466  31.745  0.00  0.00    +0.000 A 
ENDROOT
BRANCH   6   7
ATOM      7  C   UNL     1      43.470  71.782  32.358  0.00  0.00    +0.000 A 
ATOM      8  N   UNL     1      43.311  71.958  33.685  0.00  0.00    +0.000 NA
ATOM      9  O   UNL     1      43.210  73.214  34.003  0.00  0.00    +0.000 OA
ATOM     10  C   UNL     1      43.297  73.927  32.893  0.00  0.00    +0.000 A 
ATOM     11  N   UNL     1      43.455  73.051  31.910  0.00  0.00    +0.000 NA
ATOM     12  N   UNL     1      43.270  75.284  32.507  0.00  0.00    +0.000 N 
ATOM     13  C   UNL     1      44.122  75.789  31.405  0.00  0.00    +0.000 C 
ATOM     14  C   UNL     1      44.309  77.257  31.815  0.00  0.00    +0.000 C 
ATOM     15  C   UNL     1      42.862  77.578  32.168  0.00  0.00    +0.000 C 
ATOM     16  C   UNL     1      42.493  76.392  33.031  0.00  0.00    +0.000 C 
ENDBRANCH   6   7
BRANCH   1  19
ATOM     17  C   UNL     1      47.198  72.733  29.923  0.00  0.00    +0.000 A 
ATOM     18  C   UNL     1      46.014  71.958  29.973  0.00  0.00    +0.000 A 
ATOM     19  C   UNL     1      45.918  70.951  30.944  0.00  0.00    +0.000 A 
ATOM     20  N   UNL     1      46.963  70.801  31.753  0.00  0.00    +0.000 NA
ATOM     21  C   UNL     1      48.106  71.528  31.726  0.00  0.00    +0.000 A 
ATOM     22  N   UNL     1      48.184  72.488  30.792  0.00  0.00    +0.000 NA
BRANCH  21  23
ATOM     23  C   UNL     1      49.287  71.435  32.564  0.00  0.00    +0.000 A 
ATOM     24  N   UNL     1      50.373  72.169  32.342  0.00  0.00    +0.000 NA
ATOM     25  C   UNL     1      51.482  72.117  33.087  0.00  0.00    +0.000 A 
ATOM     26  N   UNL     1      51.606  71.302  34.150  0.00  0.00    +0.000 NA
ATOM     27  C   UNL     1      50.547  70.511  34.457  0.00  0.00    +0.000 A 
ATOM     28  C   UNL     1      50.642  69.669  35.533  0.00  0.00    +0.000 A 
ATOM     29  C   UNL     1      49.590  68.851  35.878  0.00  0.00    +0.000 A 
ATOM     30  C   UNL     1      48.436  68.916  35.090  0.00  0.00    +0.000 A 
ATOM     31  C   UNL     1      48.412  69.784  34.024  0.00  0.00    +0.000 A 
ATOM     32  C   UNL     1      49.433  70.608  33.655  0.00  0.00    +0.000 A 
ENDBRANCH  21  23
ENDBRANCH   1  19
TORSDOF 3
