REMARK  Name = 
REMARK  4 active torsions:
REMARK  status: ('A' for Active; 'I' for Inactive)
REMARK    1  A    between atoms: C_1  and  C_10
REMARK    2  A    between atoms: C_4  and  C_21
REMARK    3  A    between atoms: C_8  and  N_12
REMARK    4  A    between atoms: N_24  and  C_26
REMARK                            x       y       z     vdW  Elec       q    Type
REMARK                         _______ _______ _______ _____ _____    ______ ____
ROOT
ATOM      1  C   UNL     1      49.440  71.061  32.568  0.00  0.00    +0.000 A 
ATOM      2  C   UNL     1      49.574  69.897  33.335  0.00  0.00    +0.000 A 
ATOM      3  C   UNL     1      50.717  69.847  34.115  0.00  0.00    +0.000 A 
ATOM      4  C   UNL     1      51.590  70.884  34.084  0.00  0.00    +0.000 A 
ATOM      5  S   UNL     1      50.924  72.058  32.962  0.00  0.00    +0.000 S 
ENDROOT
BRANCH   1  10
ATOM      6  C   UNL     1      47.176  72.568  30.035  0.00  0.00    +0.000 A 
ATOM      7  C   UNL     1      46.082  71.693  30.035  0.00  0.00    +0.000 A 
ATOM      8  C   UNL     1      46.140  70.626  30.884  0.00  0.00    +0.000 A 
ATOM      9  N   UNL     1      47.253  70.479  31.675  0.00  0.00    +0.000 NA
ATOM     10  C   UNL     1      48.278  71.330  31.651  0.00  0.00    +0.000 A 
ATOM     11  N   UNL     1      48.241  72.375  30.831  0.00  0.00    +0.000 NA
BRANCH   8  12
ATOM     12  N   UNL     1      45.040  69.706  30.916  0.00  0.00    +0.000 N 
ATOM     13  C   UNL     1      43.993  69.867  31.779  0.00  0.00    +0.000 A 
ATOM     14  N   UNL     1      43.121  68.853  31.574  0.00  0.00    +0.000 NA
ATOM     15  C   UNL     1      43.592  68.073  30.618  0.00  0.00    +0.000 A 
ATOM     16  C   UNL     1      43.217  66.902  29.952  0.00  0.00    +0.000 C 
ATOM     17  N   UNL     1      43.945  66.349  28.961  0.00  0.00    +0.000 NA
ATOM     18  C   UNL     1      45.111  66.917  28.599  0.00  0.00    +0.000 C 
ATOM     19  N   UNL     1      45.538  68.033  29.210  0.00  0.00    +0.000 N 
ATOM     20  C   UNL     1      44.800  68.599  30.193  0.00  0.00    +0.000 A 
ATOM     21  H   UNL     1      46.432  68.461  28.929  0.00  0.00    +0.000 HD
ENDBRANCH   8  12
ENDBRANCH   1  10
BRANCH   4  22
ATOM     22  C   UNL     1      52.825  71.047  34.800  0.00  0.00    +0.000 A 
ATOM     23  C   UNL     1      54.074  71.148  34.273  0.00  0.00    +0.000 A 
ATOM     24  C   UNL     1      54.965  71.295  35.336  0.00  0.00    +0.000 A 
ATOM     25  N   UNL     1      54.210  71.278  36.458  0.00  0.00    +0.000 N 
ATOM     26  N   UNL     1      52.925  71.128  36.139  0.00  0.00    +0.000 NA
BRANCH  25  27
ATOM     27  C   UNL     1      54.792  71.406  37.751  0.00  0.00    +0.000 A 
ATOM     28  C   UNL     1      55.506  72.564  38.056  0.00  0.00    +0.000 A 
ATOM     29  N   UNL     1      55.961  72.461  39.327  0.00  0.00    +0.000 N 
ATOM     30  C   UNL     1      55.563  71.278  39.853  0.00  0.00    +0.000 A 
ATOM     31  C   UNL     1      55.736  70.669  41.070  0.00  0.00    +0.000 A 
ATOM     32  C   UNL     1      55.176  69.419  41.271  0.00  0.00    +0.000 A 
ATOM     33  C   UNL     1      54.453  68.775  40.284  0.00  0.00    +0.000 A 
ATOM     34  C   UNL     1      54.273  69.392  39.041  0.00  0.00    +0.000 A 
ATOM     35  C   UNL     1      54.843  70.630  38.878  0.00  0.00    +0.000 A 
ATOM     36  H   UNL     1      56.522  73.172  39.818  0.00  0.00    +0.000 HD
ENDBRANCH  25  27
ENDBRANCH   4  22
TORSDOF 4
