REMARK  Name = 
REMARK  4 active torsions:
REMARK  status: ('A' for Active; 'I' for Inactive)
REMARK    1  A    between atoms: C_1  and  C_6
REMARK    2  A    between atoms: C_1  and  C_18
REMARK    3  A    between atoms: C_3  and  C_8
REMARK    4  A    between atoms: C_18  and  C_19
REMARK                            x       y       z     vdW  Elec       q    Type
REMARK                         _______ _______ _______ _____ _____    ______ ____
ROOT
ATOM      1  C   UNL     1      49.228  66.363  28.424  0.00  0.00    +0.000 C 
ENDROOT
BRANCH   1   2
ATOM      2  C   UNL     1      48.254  65.349  27.979  0.00  0.00    +0.000 A 
ATOM      3  C   UNL     1      48.570  64.633  26.832  0.00  0.00    +0.000 A 
ATOM      4  C   UNL     1      47.664  63.662  26.383  0.00  0.00    +0.000 A 
ATOM      5  N   UNL     1      46.534  63.455  27.065  0.00  0.00    +0.000 NA
ATOM      6  C   UNL     1      46.220  64.148  28.182  0.00  0.00    +0.000 A 
ATOM      7  N   UNL     1      47.101  65.076  28.597  0.00  0.00    +0.000 NA
ATOM      8  N   UNL     1      45.004  63.900  28.883  0.00  0.00    +0.000 N 
ATOM      9  C   UNL     1      43.839  64.516  28.554  0.00  0.00    +0.000 A 
ATOM     10  N   UNL     1      42.813  64.128  29.353  0.00  0.00    +0.000 NA
ATOM     11  C   UNL     1      43.340  63.238  30.219  0.00  0.00    +0.000 A 
ATOM     12  C   UNL     1      42.839  62.488  31.267  0.00  0.00    +0.000 A 
ATOM     13  O   UNL     1      41.621  62.570  31.582  0.00  0.00    +0.000 OA
ATOM     14  N   UNL     1      43.696  61.681  31.924  0.00  0.00    +0.000 N 
ATOM     15  C   UNL     1      45.002  61.550  31.637  0.00  0.00    +0.000 A 
ATOM     16  N   UNL     1      45.759  60.649  32.439  0.00  0.00    +0.000 N 
ATOM     17  N   UNL     1      45.521  62.277  30.610  0.00  0.00    +0.000 NA
ATOM     18  C   UNL     1      44.684  63.105  29.922  0.00  0.00    +0.000 A 
ATOM     19  H   UNL     1      43.322  61.123  32.705  0.00  0.00    +0.000 HD
ATOM     20  H   UNL     1      46.764  60.516  32.256  0.00  0.00    +0.000 HD
ATOM     21  H   UNL     1      45.302  60.130  33.202  0.00  0.00    +0.000 HD
ENDBRANCH   1   2
BRANCH   1  22
ATOM     22  C   UNL     1      49.021  66.744  29.891  0.00  0.00    +0.000 C 
BRANCH  22  27
ATOM     23  C   UNL     1      47.433  69.760  31.286  0.00  0.00    +0.000 C 
ATOM     24  C   UNL     1      46.874  70.373  30.219  0.00  0.00    +0.000 C 
ATOM     25  C   UNL     1      47.050  69.744  29.013  0.00  0.00    +0.000 C 
ATOM     26  N   UNL     1      47.747  68.586  28.960  0.00  0.00    +0.000 NA
ATOM     27  C   UNL     1      48.277  68.020  30.019  0.00  0.00    +0.000 C 
ATOM     28  N   UNL     1      48.133  68.590  31.192  0.00  0.00    +0.000 N 
ATOM     29  H   UNL     1      48.543  68.160  32.033  0.00  0.00    +0.000 HD
BRANCH  24  30
ATOM     30  C   UNL     1      46.134  71.617  30.448  0.00  0.00    +0.000 C 
ATOM     31  N   UNL     1      46.946  72.707  30.384  0.00  0.00    +0.000 NA
ATOM     32  C   UNL     1      46.521  73.943  30.692  0.00  0.00    +0.000 C 
ATOM     33  N   UNL     1      45.263  74.139  31.249  0.00  0.00    +0.000 N 
ATOM     34  C   UNL     1      44.505  73.033  31.476  0.00  0.00    +0.000 A 
ATOM     35  C   UNL     1      43.288  73.137  32.077  0.00  0.00    +0.000 A 
ATOM     36  C   UNL     1      42.548  71.985  32.365  0.00  0.00    +0.000 A 
ATOM     37  C   UNL     1      43.048  70.725  32.042  0.00  0.00    +0.000 A 
ATOM     38  C   UNL     1      44.292  70.642  31.428  0.00  0.00    +0.000 A 
ATOM     39  C   UNL     1      44.973  71.796  31.166  0.00  0.00    +0.000 A 
ATOM     40  H   UNL     1      44.919  75.082  31.480  0.00  0.00    +0.000 HD
ENDBRANCH  24  30
ENDBRANCH  22  27
ENDBRANCH   1  22
TORSDOF 4
