REMARK  Name = 
REMARK  2 active torsions:
REMARK  status: ('A' for Active; 'I' for Inactive)
REMARK    1  A    between atoms: C_1  and  N_21
REMARK    2  A    between atoms: C_3  and  C_7
REMARK                            x       y       z     vdW  Elec       q    Type
REMARK                         _______ _______ _______ _____ _____    ______ ____
ROOT
ATOM      1  C   UNL     1      44.697  71.026  31.228  0.00  0.00    +0.000 A 
ATOM      2  C   UNL     1      44.239  72.326  31.539  0.00  0.00    +0.000 A 
ATOM      3  C   UNL     1      45.037  73.413  31.216  0.00  0.00    +0.000 A 
ATOM      4  N   UNL     1      46.241  73.195  30.606  0.00  0.00    +0.000 NA
ATOM      5  C   UNL     1      46.650  71.949  30.321  0.00  0.00    +0.000 A 
ATOM      6  N   UNL     1      45.887  70.894  30.629  0.00  0.00    +0.000 NA
ENDROOT
BRANCH   3   7
ATOM      7  C   UNL     1      44.595  74.754  31.546  0.00  0.00    +0.000 A 
ATOM      8  C   UNL     1      45.476  75.806  31.345  0.00  0.00    +0.000 A 
ATOM      9  C   UNL     1      44.936  77.037  31.715  0.00  0.00    +0.000 A 
ATOM     10  C   UNL     1      43.684  77.206  32.219  0.00  0.00    +0.000 A 
ATOM     11  C   UNL     1      42.879  76.119  32.385  0.00  0.00    +0.000 A 
ATOM     12  N   UNL     1      43.346  74.881  32.043  0.00  0.00    +0.000 NA
ATOM     13  N   UNL     1      41.532  76.132  32.907  0.00  0.00    +0.000 N 
ATOM     14  C   UNL     1      41.057  76.751  34.002  0.00  0.00    +0.000 A 
ATOM     15  C   UNL     1      39.738  76.623  34.313  0.00  0.00    +0.000 A 
ATOM     16  C   UNL     1      38.892  75.868  33.522  0.00  0.00    +0.000 A 
ATOM     17  O   UNL     1      37.658  75.769  33.847  0.00  0.00    +0.000 OA
ATOM     18  N   UNL     1      39.406  75.251  32.417  0.00  0.00    +0.000 N 
ATOM     19  C   UNL     1      40.719  75.396  32.133  0.00  0.00    +0.000 A 
ATOM     20  O   UNL     1      41.039  74.770  31.085  0.00  0.00    +0.000 OA
ATOM     21  H   UNL     1      38.800  74.682  31.808  0.00  0.00    +0.000 HD
ENDBRANCH   3   7
BRANCH   1  22
ATOM     22  N   UNL     1      43.899  69.891  31.555  0.00  0.00    +0.000 N 
ATOM     23  C   UNL     1      44.015  68.700  30.932  0.00  0.00    +0.000 A 
ATOM     24  C   UNL     1      43.047  67.895  31.587  0.00  0.00    +0.000 A 
ATOM     25  N   UNL     1      42.422  68.637  32.541  0.00  0.00    +0.000 NA
ATOM     26  C   UNL     1      42.964  69.894  32.515  0.00  0.00    +0.000 A 
ATOM     27  N   UNL     1      42.373  70.699  33.465  0.00  0.00    +0.000 N 
ATOM     28  C   UNL     1      41.497  71.880  33.351  0.00  0.00    +0.000 C 
ATOM     29  C   UNL     1      40.108  71.379  33.705  0.00  0.00    +0.000 C 
ATOM     30  C   UNL     1      40.063  70.661  35.009  0.00  0.00    +0.000 C 
ATOM     31  C   UNL     1      41.266  69.881  35.389  0.00  0.00    +0.000 C 
ATOM     32  C   UNL     1      42.578  70.381  34.888  0.00  0.00    +0.000 C 
ENDBRANCH   1  22
TORSDOF 2
