REMARK  Name = 
REMARK  2 active torsions:
REMARK  status: ('A' for Active; 'I' for Inactive)
REMARK    1  A    between atoms: C_1  and  N_21
REMARK    2  A    between atoms: C_3  and  C_7
REMARK                            x       y       z     vdW  Elec       q    Type
REMARK                         _______ _______ _______ _____ _____    ______ ____
ROOT
ATOM      1  C   UNL     1      44.823  71.117  31.058  0.00  0.00    +0.000 A 
ATOM      2  C   UNL     1      44.384  72.406  31.390  0.00  0.00    +0.000 A 
ATOM      3  C   UNL     1      45.209  73.494  31.167  0.00  0.00    +0.000 A 
ATOM      4  N   UNL     1      46.439  73.279  30.622  0.00  0.00    +0.000 NA
ATOM      5  C   UNL     1      46.842  72.033  30.308  0.00  0.00    +0.000 A 
ATOM      6  N   UNL     1      46.048  70.980  30.524  0.00  0.00    +0.000 NA
ENDROOT
BRANCH   3   7
ATOM      7  C   UNL     1      44.774  74.827  31.533  0.00  0.00    +0.000 A 
ATOM      8  C   UNL     1      45.660  75.882  31.355  0.00  0.00    +0.000 A 
ATOM      9  C   UNL     1      45.123  77.107  31.752  0.00  0.00    +0.000 A 
ATOM     10  C   UNL     1      43.869  77.266  32.260  0.00  0.00    +0.000 A 
ATOM     11  C   UNL     1      43.056  76.172  32.404  0.00  0.00    +0.000 A 
ATOM     12  N   UNL     1      43.526  74.945  32.032  0.00  0.00    +0.000 NA
ATOM     13  N   UNL     1      41.712  76.181  32.917  0.00  0.00    +0.000 N 
ATOM     14  C   UNL     1      41.218  76.782  34.007  0.00  0.00    +0.000 A 
ATOM     15  C   UNL     1      39.886  76.655  34.284  0.00  0.00    +0.000 A 
ATOM     16  C   UNL     1      39.046  75.917  33.453  0.00  0.00    +0.000 A 
ATOM     17  O   UNL     1      37.810  75.824  33.748  0.00  0.00    +0.000 OA
ATOM     18  N   UNL     1      39.589  75.329  32.361  0.00  0.00    +0.000 N 
ATOM     19  C   UNL     1      40.895  75.459  32.102  0.00  0.00    +0.000 A 
ATOM     20  O   UNL     1      41.223  74.849  31.058  0.00  0.00    +0.000 OA
ATOM     21  H   UNL     1      38.993  74.778  31.726  0.00  0.00    +0.000 HD
ENDBRANCH   3   7
BRANCH   1  22
ATOM     22  N   UNL     1      43.991  69.985  31.312  0.00  0.00    +0.000 N 
ATOM     23  C   UNL     1      44.326  68.729  30.930  0.00  0.00    +0.000 A 
ATOM     24  C   UNL     1      43.249  67.954  31.406  0.00  0.00    +0.000 A 
ATOM     25  N   UNL     1      42.350  68.765  32.030  0.00  0.00    +0.000 NA
ATOM     26  C   UNL     1      42.826  70.051  31.969  0.00  0.00    +0.000 A 
ATOM     27  N   UNL     1      41.944  70.889  32.645  0.00  0.00    +0.000 N 
ATOM     28  C   UNL     1      42.035  71.586  33.827  0.00  0.00    +0.000 A 
ATOM     29  N   UNL     1      40.876  72.200  34.105  0.00  0.00    +0.000 NA
ATOM     30  C   UNL     1      39.972  71.949  33.144  0.00  0.00    +0.000 A 
ATOM     31  C   UNL     1      38.663  72.217  32.811  0.00  0.00    +0.000 A 
ATOM     32  N   UNL     1      38.052  71.749  31.709  0.00  0.00    +0.000 NA
ATOM     33  C   UNL     1      38.736  70.964  30.856  0.00  0.00    +0.000 A 
ATOM     34  N   UNL     1      40.016  70.681  31.150  0.00  0.00    +0.000 NA
ATOM     35  C   UNL     1      40.649  71.150  32.267  0.00  0.00    +0.000 A 
ENDBRANCH   1  22
TORSDOF 2
