REMARK  Name = 
REMARK  3 active torsions:
REMARK  status: ('A' for Active; 'I' for Inactive)
REMARK    1  A    between atoms: C_3  and  C_13
REMARK    2  A    between atoms: C_12  and  N_22
REMARK    3  A    between atoms: C_26  and  N_31
REMARK                            x       y       z     vdW  Elec       q    Type
REMARK                         _______ _______ _______ _____ _____    ______ ____
ROOT
ATOM      1  C   UNL     1      47.496  72.479  30.153  0.00  0.00    +0.000 A 
ATOM      2  C   UNL     1      46.995  71.286  29.604  0.00  0.00    +0.000 A 
ATOM      3  C   UNL     1      47.373  70.084  30.162  0.00  0.00    +0.000 A 
ATOM      4  N   UNL     1      48.229  70.102  31.238  0.00  0.00    +0.000 NA
ATOM      5  C   UNL     1      48.695  71.251  31.748  0.00  0.00    +0.000 A 
ATOM      6  N   UNL     1      48.341  72.437  31.222  0.00  0.00    +0.000 NA
ATOM      7  N   UNL     1      49.579  71.193  32.866  0.00  0.00    +0.000 N 
ATOM      8  C   UNL     1      50.596  72.207  33.064  0.00  0.00    +0.000 C 
ATOM      9  C   UNL     1      50.612  72.694  34.501  0.00  0.00    +0.000 C 
ATOM     10  N   UNL     1      50.344  71.671  35.453  0.00  0.00    +0.000 NA
ATOM     11  C   UNL     1      49.233  70.824  35.160  0.00  0.00    +0.000 C 
ATOM     12  C   UNL     1      49.496  70.131  33.834  0.00  0.00    +0.000 C 
ATOM     13  H   UNL     1      51.183  71.078  35.524  0.00  0.00    +0.000 HD
ENDROOT
BRANCH   3  14
ATOM     14  C   UNL     1      46.849  68.856  29.584  0.00  0.00    +0.000 A 
ATOM     15  C   UNL     1      45.527  68.526  29.365  0.00  0.00    +0.000 A 
ATOM     16  N   UNL     1      45.476  67.301  28.814  0.00  0.00    +0.000 N 
ATOM     17  C   UNL     1      46.727  66.796  28.656  0.00  0.00    +0.000 A 
ATOM     18  C   UNL     1      47.215  65.594  28.144  0.00  0.00    +0.000 A 
ATOM     19  C   UNL     1      48.572  65.346  28.107  0.00  0.00    +0.000 A 
ATOM     20  C   UNL     1      49.386  66.333  28.592  0.00  0.00    +0.000 A 
ATOM     21  C   UNL     1      48.909  67.521  29.098  0.00  0.00    +0.000 A 
ATOM     22  C   UNL     1      47.572  67.779  29.141  0.00  0.00    +0.000 A 
ATOM     23  H   UNL     1      44.609  66.813  28.549  0.00  0.00    +0.000 HD
ENDBRANCH   3  14
BRANCH  12  24
ATOM     24  N   UNL     1      50.605  69.242  33.870  0.00  0.00    +0.000 N 
ATOM     25  C   UNL     1      50.427  67.909  33.829  0.00  0.00    +0.000 A 
ATOM     26  N   UNL     1      51.631  67.327  33.877  0.00  0.00    +0.000 NA
ATOM     27  C   UNL     1      52.550  68.278  33.947  0.00  0.00    +0.000 A 
ATOM     28  C   UNL     1      53.947  68.250  34.017  0.00  0.00    +0.000 A 
ATOM     29  N   UNL     1      54.573  69.431  34.078  0.00  0.00    +0.000 NA
ATOM     30  C   UNL     1      53.965  70.624  34.075  0.00  0.00    +0.000 A 
ATOM     31  N   UNL     1      52.615  70.629  34.006  0.00  0.00    +0.000 NA
ATOM     32  C   UNL     1      51.911  69.504  33.943  0.00  0.00    +0.000 A 
BRANCH  28  33
ATOM     33  N   UNL     1      54.612  66.993  34.022  0.00  0.00    +0.000 N 
ATOM     34  H   UNL     1      55.640  66.954  34.073  0.00  0.00    +0.000 HD
ATOM     35  H   UNL     1      54.066  66.121  33.974  0.00  0.00    +0.000 HD
ENDBRANCH  28  33
ENDBRANCH  12  24
TORSDOF 3
