REMARK  Name = 
REMARK  2 active torsions:
REMARK  status: ('A' for Active; 'I' for Inactive)
REMARK    1  A    between atoms: C_5  and  C_12
REMARK    2  A    between atoms: C_11  and  C_23
REMARK                            x       y       z     vdW  Elec       q    Type
REMARK                         _______ _______ _______ _____ _____    ______ ____
ROOT
ATOM      1  C   UNL     1      42.090  75.555  30.794  0.00  0.00    +0.000 A 
ATOM      2  C   UNL     1      41.037  75.110  31.604  0.00  0.00    +0.000 A 
ATOM      3  C   UNL     1      41.232  73.885  32.288  0.00  0.00    +0.000 A 
ATOM      4  N   UNL     1      42.386  73.254  32.115  0.00  0.00    +0.000 NA
ATOM      5  C   UNL     1      43.380  73.704  31.328  0.00  0.00    +0.000 A 
ATOM      6  N   UNL     1      43.214  74.859  30.675  0.00  0.00    +0.000 NA
ATOM      7  N   UNL     1      40.335  73.240  33.161  0.00  0.00    +0.000 N 
ATOM      8  N   UNL     1      39.882  73.944  34.213  0.00  0.00    +0.000 NA
ATOM      9  C   UNL     1      39.074  73.177  34.958  0.00  0.00    +0.000 A 
ATOM     10  C   UNL     1      39.052  71.950  34.302  0.00  0.00    +0.000 A 
ATOM     11  C   UNL     1      39.849  71.994  33.166  0.00  0.00    +0.000 A 
ENDROOT
BRANCH   5  12
ATOM     12  C   UNL     1      44.632  72.998  31.110  0.00  0.00    +0.000 A 
ATOM     13  N   UNL     1      45.393  72.743  29.989  0.00  0.00    +0.000 NA
ATOM     14  O   UNL     1      46.448  72.056  30.371  0.00  0.00    +0.000 OA
ATOM     15  C   UNL     1      46.431  71.849  31.640  0.00  0.00    +0.000 A 
ATOM     16  N   UNL     1      45.321  72.418  32.135  0.00  0.00    +0.000 NA
ATOM     17  N   UNL     1      47.425  71.140  32.372  0.00  0.00    +0.000 N 
ATOM     18  C   UNL     1      47.913  71.657  33.645  0.00  0.00    +0.000 C 
ATOM     19  C   UNL     1      47.626  70.475  34.584  0.00  0.00    +0.000 C 
ATOM     20  O   UNL     1      48.511  69.485  34.234  0.00  0.00    +0.000 OA
ATOM     21  C   UNL     1      48.389  68.960  32.978  0.00  0.00    +0.000 C 
ATOM     22  C   UNL     1      47.980  69.907  31.901  0.00  0.00    +0.000 C 
ENDBRANCH   5  12
BRANCH  11  23
ATOM     23  C   UNL     1      40.052  70.905  32.260  0.00  0.00    +0.000 A 
ATOM     24  C   UNL     1      39.249  70.520  31.218  0.00  0.00    +0.000 A 
ATOM     25  N   UNL     1      39.712  69.490  30.514  0.00  0.00    +0.000 N 
ATOM     26  C   UNL     1      40.899  69.117  31.076  0.00  0.00    +0.000 A 
ATOM     27  C   UNL     1      41.795  68.120  30.748  0.00  0.00    +0.000 A 
ATOM     28  C   UNL     1      42.930  67.985  31.509  0.00  0.00    +0.000 A 
ATOM     29  C   UNL     1      43.166  68.827  32.571  0.00  0.00    +0.000 A 
ATOM     30  C   UNL     1      42.231  69.781  32.825  0.00  0.00    +0.000 A 
ATOM     31  C   UNL     1      41.071  70.008  32.141  0.00  0.00    +0.000 A 
ATOM     32  H   UNL     1      39.259  69.055  29.697  0.00  0.00    +0.000 HD
ENDBRANCH  11  23
TORSDOF 2
