REMARK  Name = 
REMARK  3 active torsions:
REMARK  status: ('A' for Active; 'I' for Inactive)
REMARK    1  A    between atoms: C_1  and  N_21
REMARK    2  A    between atoms: C_3  and  C_7
REMARK    3  A    between atoms: C_11  and  N_13
REMARK                            x       y       z     vdW  Elec       q    Type
REMARK                         _______ _______ _______ _____ _____    ______ ____
ROOT
ATOM      1  C   UNL     1      44.751  70.961  31.408  0.00  0.00    +0.000 A 
ATOM      2  C   UNL     1      44.240  72.261  31.541  0.00  0.00    +0.000 A 
ATOM      3  C   UNL     1      45.113  73.332  31.624  0.00  0.00    +0.000 A 
ATOM      4  N   UNL     1      46.454  73.094  31.572  0.00  0.00    +0.000 NA
ATOM      5  C   UNL     1      46.924  71.836  31.443  0.00  0.00    +0.000 A 
ATOM      6  N   UNL     1      46.085  70.795  31.364  0.00  0.00    +0.000 NA
ENDROOT
BRANCH   1   7
ATOM      7  N   UNL     1      43.874  69.840  31.336  0.00  0.00    +0.000 N 
ATOM      8  C   UNL     1      44.217  68.659  30.781  0.00  0.00    +0.000 A 
ATOM      9  C   UNL     1      43.049  67.869  30.953  0.00  0.00    +0.000 A 
ATOM     10  N   UNL     1      42.101  68.608  31.583  0.00  0.00    +0.000 NA
ATOM     11  C   UNL     1      42.621  69.854  31.826  0.00  0.00    +0.000 A 
ATOM     12  N   UNL     1      41.690  70.633  32.502  0.00  0.00    +0.000 N 
ATOM     13  C   UNL     1      42.207  71.193  33.643  0.00  0.00    +0.000 A 
ATOM     14  C   UNL     1      41.454  71.960  34.508  0.00  0.00    +0.000 A 
ATOM     15  C   UNL     1      40.133  72.143  34.169  0.00  0.00    +0.000 A 
ATOM     16  O   UNL     1      39.406  72.833  34.927  0.00  0.00    +0.000 OA
ATOM     17  N   UNL     1      39.676  71.573  33.041  0.00  0.00    +0.000 N 
ATOM     18  C   UNL     1      40.396  70.826  32.187  0.00  0.00    +0.000 A 
ATOM     19  O   UNL     1      39.991  70.297  31.146  0.00  0.00    +0.000 OA
ATOM     20  H   UNL     1      38.683  71.722  32.810  0.00  0.00    +0.000 HD
ENDBRANCH   1   7
BRANCH   3  21
ATOM     21  C   UNL     1      44.603  74.679  31.781  0.00  0.00    +0.000 A 
ATOM     22  C   UNL     1      45.436  75.746  31.479  0.00  0.00    +0.000 A 
ATOM     23  C   UNL     1      44.825  76.984  31.683  0.00  0.00    +0.000 A 
ATOM     24  C   UNL     1      43.550  77.145  32.129  0.00  0.00    +0.000 A 
ATOM     25  C   UNL     1      42.790  76.040  32.406  0.00  0.00    +0.000 A 
ATOM     26  N   UNL     1      43.332  74.799  32.226  0.00  0.00    +0.000 NA
BRANCH  25  27
ATOM     27  N   UNL     1      41.428  76.049  32.883  0.00  0.00    +0.000 N 
ATOM     28  C   UNL     1      40.882  76.761  33.873  0.00  0.00    +0.000 A 
ATOM     29  C   UNL     1      39.547  76.595  34.133  0.00  0.00    +0.000 A 
ATOM     30  C   UNL     1      38.769  75.718  33.403  0.00  0.00    +0.000 A 
ATOM     31  O   UNL     1      37.537  75.610  33.694  0.00  0.00    +0.000 OA
ATOM     32  N   UNL     1      39.371  75.017  32.407  0.00  0.00    +0.000 N 
ATOM     33  C   UNL     1      40.675  75.180  32.153  0.00  0.00    +0.000 A 
ATOM     34  O   UNL     1      41.065  74.459  31.208  0.00  0.00    +0.000 OA
ATOM     35  H   UNL     1      38.819  74.355  31.843  0.00  0.00    +0.000 HD
ENDBRANCH  25  27
ENDBRANCH   3  21
TORSDOF 3
