REMARK  Name = 
REMARK  5 active torsions:
REMARK  status: ('A' for Active; 'I' for Inactive)
REMARK    1  A    between atoms: C_1  and  C_3
REMARK    2  A    between atoms: C_1  and  C_17
REMARK    3  A    between atoms: C_10  and  C_16
REMARK    4  A    between atoms: C_19  and  C_20
REMARK    5  A    between atoms: C_23  and  C_25
REMARK                            x       y       z     vdW  Elec       q    Type
REMARK                         _______ _______ _______ _____ _____    ______ ____
ROOT
ATOM      1  C   UNL     1      44.308  75.995  31.635  0.00  0.00    +0.000 C 
ATOM      2  C   UNL     1      44.197  77.391  32.026  0.00  0.00    +0.000 C 
ATOM      3  C   UNL     1      42.994  76.794  31.476  0.00  0.00    +0.000 C 
ENDROOT
BRANCH   3   4
ATOM      4  C   UNL     1      41.815  76.413  32.280  0.00  0.00    +0.000 A 
ATOM      5  N   UNL     1      41.393  76.832  33.515  0.00  0.00    +0.000 NA
ATOM      6  O   UNL     1      40.307  76.197  33.813  0.00  0.00    +0.000 OA
ATOM      7  C   UNL     1      39.978  75.377  32.845  0.00  0.00    +0.000 A 
ATOM      8  N   UNL     1      40.915  75.496  31.870  0.00  0.00    +0.000 NA
BRANCH   7   9
ATOM      9  C   UNL     1      38.805  74.512  32.866  0.00  0.00    +0.000 A 
ATOM     10  C   UNL     1      38.878  73.140  32.744  0.00  0.00    +0.000 A 
ATOM     11  N   UNL     1      37.636  72.609  32.798  0.00  0.00    +0.000 N 
ATOM     12  C   UNL     1      36.796  73.643  32.954  0.00  0.00    +0.000 A 
ATOM     13  C   UNL     1      35.423  73.738  33.073  0.00  0.00    +0.000 A 
ATOM     14  C   UNL     1      34.711  74.909  33.231  0.00  0.00    +0.000 A 
ATOM     15  C   UNL     1      35.471  76.049  33.266  0.00  0.00    +0.000 A 
ATOM     16  C   UNL     1      36.846  76.069  33.157  0.00  0.00    +0.000 A 
ATOM     17  C   UNL     1      37.480  74.853  33.002  0.00  0.00    +0.000 A 
ATOM     18  H   UNL     1      37.385  71.612  32.733  0.00  0.00    +0.000 HD
ENDBRANCH   7   9
ENDBRANCH   3   4
BRANCH   1  19
ATOM     19  C   UNL     1      44.350  74.884  32.611  0.00  0.00    +0.000 C 
BRANCH  19  21
ATOM     20  C   UNL     1      45.842  72.827  32.853  0.00  0.00    +0.000 A 
ATOM     21  C   UNL     1      45.021  73.702  32.130  0.00  0.00    +0.000 A 
ATOM     22  C   UNL     1      44.813  73.428  30.804  0.00  0.00    +0.000 A 
ATOM     23  N   UNL     1      45.418  72.318  30.258  0.00  0.00    +0.000 NA
ATOM     24  C   UNL     1      46.207  71.488  30.979  0.00  0.00    +0.000 A 
ATOM     25  N   UNL     1      46.409  71.759  32.278  0.00  0.00    +0.000 NA
ATOM     26  N   UNL     1      46.790  70.366  30.326  0.00  0.00    +0.000 N 
ATOM     27  C   UNL     1      46.010  69.351  29.929  0.00  0.00    +0.000 A 
ATOM     28  C   UNL     1      46.458  68.213  29.289  0.00  0.00    +0.000 A 
ATOM     29  C   UNL     1      47.809  68.123  29.045  0.00  0.00    +0.000 A 
ATOM     30  O   UNL     1      48.276  67.123  28.471  0.00  0.00    +0.000 OA
ATOM     31  N   UNL     1      48.600  69.163  29.453  0.00  0.00    +0.000 N 
ATOM     32  C   UNL     1      48.102  70.257  30.079  0.00  0.00    +0.000 A 
ATOM     33  O   UNL     1      48.876  71.192  30.436  0.00  0.00    +0.000 OA
ATOM     34  C   UNL     1      45.491  67.152  28.895  0.00  0.00    +0.000 C 
ATOM     35  H   UNL     1      49.614  69.112  29.277  0.00  0.00    +0.000 HD
ENDBRANCH  19  21
ENDBRANCH   1  19
TORSDOF 4
