REMARK  Name = 
REMARK  2 active torsions:
REMARK  status: ('A' for Active; 'I' for Inactive)
REMARK    1  A    between atoms: C_1  and  N_21
REMARK    2  A    between atoms: C_3  and  C_7
REMARK                            x       y       z     vdW  Elec       q    Type
REMARK                         _______ _______ _______ _____ _____    ______ ____
ROOT
ATOM      1  C   UNL     1      44.704  71.045  31.180  0.00  0.00    +0.000 A 
ATOM      2  C   UNL     1      44.245  72.339  31.500  0.00  0.00    +0.000 A 
ATOM      3  C   UNL     1      45.042  73.433  31.215  0.00  0.00    +0.000 A 
ATOM      4  N   UNL     1      46.254  73.222  30.632  0.00  0.00    +0.000 NA
ATOM      5  C   UNL     1      46.678  71.977  30.333  0.00  0.00    +0.000 A 
ATOM      6  N   UNL     1      45.910  70.916  30.607  0.00  0.00    +0.000 NA
ENDROOT
BRANCH   3   7
ATOM      7  C   UNL     1      44.592  74.761  31.554  0.00  0.00    +0.000 A 
ATOM      8  C   UNL     1      45.473  75.824  31.367  0.00  0.00    +0.000 A 
ATOM      9  C   UNL     1      44.915  77.049  31.744  0.00  0.00    +0.000 A 
ATOM     10  C   UNL     1      43.659  77.203  32.239  0.00  0.00    +0.000 A 
ATOM     11  C   UNL     1      42.861  76.115  32.392  0.00  0.00    +0.000 A 
ATOM     12  N   UNL     1      43.343  74.884  32.041  0.00  0.00    +0.000 NA
ATOM     13  N   UNL     1      41.513  76.121  32.904  0.00  0.00    +0.000 N 
ATOM     14  C   UNL     1      41.020  76.728  33.993  0.00  0.00    +0.000 A 
ATOM     15  C   UNL     1      39.695  76.592  34.285  0.00  0.00    +0.000 A 
ATOM     16  C   UNL     1      38.864  75.836  33.467  0.00  0.00    +0.000 A 
ATOM     17  O   UNL     1      37.620  75.732  33.775  0.00  0.00    +0.000 OA
ATOM     18  N   UNL     1      39.394  75.235  32.375  0.00  0.00    +0.000 N 
ATOM     19  C   UNL     1      40.694  75.380  32.107  0.00  0.00    +0.000 A 
ATOM     20  O   UNL     1      41.037  74.766  31.069  0.00  0.00    +0.000 OA
ATOM     21  H   UNL     1      38.797  74.669  31.755  0.00  0.00    +0.000 HD
ENDBRANCH   3   7
BRANCH   1  22
ATOM     22  N   UNL     1      43.888  69.904  31.459  0.00  0.00    +0.000 N 
ATOM     23  C   UNL     1      44.093  68.689  30.892  0.00  0.00    +0.000 A 
ATOM     24  C   UNL     1      43.060  67.903  31.460  0.00  0.00    +0.000 A 
ATOM     25  N   UNL     1      42.323  68.670  32.310  0.00  0.00    +0.000 NA
ATOM     26  C   UNL     1      42.846  69.931  32.308  0.00  0.00    +0.000 A 
ATOM     27  N   UNL     1      42.174  70.792  33.163  0.00  0.00    +0.000 N 
ATOM     28  C   UNL     1      41.317  71.958  33.210  0.00  0.00    +0.000 C 
ATOM     29  C   UNL     1      40.109  71.331  33.934  0.00  0.00    +0.000 C 
ATOM     30  C   UNL     1      40.745  70.274  34.842  0.00  0.00    +0.000 C 
ATOM     31  C   UNL     1      42.239  70.580  34.622  0.00  0.00    +0.000 C 
ENDBRANCH   1  22
TORSDOF 2
