REMARK  Name = 
REMARK  1 active torsions:
REMARK  status: ('A' for Active; 'I' for Inactive)
REMARK    1  A    between atoms: C_2  and  C_18
REMARK                            x       y       z     vdW  Elec       q    Type
REMARK                         _______ _______ _______ _____ _____    ______ ____
ROOT
ATOM      1  C   UNL     1      46.556  71.964  29.245  0.00  0.00    +0.000 A 
ATOM      2  C   UNL     1      45.906  72.131  30.477  0.00  0.00    +0.000 A 
ATOM      3  C   UNL     1      45.605  70.992  31.218  0.00  0.00    +0.000 A 
ATOM      4  N   UNL     1      45.964  69.776  30.698  0.00  0.00    +0.000 NA
ATOM      5  C   UNL     1      46.584  69.659  29.517  0.00  0.00    +0.000 A 
ATOM      6  N   UNL     1      46.879  70.749  28.794  0.00  0.00    +0.000 NA
ATOM      7  N   UNL     1      46.877  68.317  29.142  0.00  0.00    +0.000 N 
ATOM      8  C   UNL     1      48.168  67.947  29.027  0.00  0.00    +0.000 A 
ATOM      9  N   UNL     1      48.230  66.639  28.664  0.00  0.00    +0.000 NA
ATOM     10  C   UNL     1      46.973  66.166  28.544  0.00  0.00    +0.000 A 
ATOM     11  C   UNL     1      46.333  64.980  28.219  0.00  0.00    +0.000 A 
ATOM     12  O   UNL     1      47.073  64.003  27.942  0.00  0.00    +0.000 OA
ATOM     13  N   UNL     1      44.972  64.903  28.211  0.00  0.00    +0.000 N 
ATOM     14  C   UNL     1      44.207  65.991  28.520  0.00  0.00    +0.000 A 
ATOM     15  N   UNL     1      42.821  65.684  28.448  0.00  0.00    +0.000 N 
ATOM     16  N   UNL     1      44.808  67.154  28.838  0.00  0.00    +0.000 NA
ATOM     17  C   UNL     1      46.144  67.227  28.846  0.00  0.00    +0.000 A 
ATOM     18  H   UNL     1      44.515  64.012  27.969  0.00  0.00    +0.000 HD
ATOM     19  H   UNL     1      42.121  66.410  28.656  0.00  0.00    +0.000 HD
ATOM     20  H   UNL     1      42.517  64.735  28.188  0.00  0.00    +0.000 HD
ENDROOT
BRANCH   2  21
ATOM     21  C   UNL     1      45.591  73.480  30.892  0.00  0.00    +0.000 A 
ATOM     22  C   UNL     1      46.486  74.531  30.982  0.00  0.00    +0.000 A 
ATOM     23  N   UNL     1      45.832  75.643  31.405  0.00  0.00    +0.000 N 
ATOM     24  C   UNL     1      44.512  75.326  31.595  0.00  0.00    +0.000 A 
ATOM     25  C   UNL     1      43.431  76.088  32.016  0.00  0.00    +0.000 A 
ATOM     26  C   UNL     1      42.168  75.500  32.123  0.00  0.00    +0.000 A 
ATOM     27  C   UNL     1      42.013  74.174  31.810  0.00  0.00    +0.000 A 
ATOM     28  C   UNL     1      43.110  73.449  31.395  0.00  0.00    +0.000 A 
ATOM     29  C   UNL     1      44.370  73.999  31.279  0.00  0.00    +0.000 A 
ATOM     30  H   UNL     1      46.256  76.569  31.558  0.00  0.00    +0.000 HD
ENDBRANCH   2  21
TORSDOF 1
