REMARK  Name = 
REMARK  5 active torsions:
REMARK  status: ('A' for Active; 'I' for Inactive)
REMARK    1  A    between atoms: C_1  and  C_7
REMARK    2  A    between atoms: N_4  and  C_23
REMARK    3  A    between atoms: C_25  and  C_26
REMARK    4  A    between atoms: C_31  and  C_32
REMARK    5  A    between atoms: C_32  and  O_34
REMARK                            x       y       z     vdW  Elec       q    Type
REMARK                         _______ _______ _______ _____ _____    ______ ____
ROOT
ATOM      1  C   UNL     1      45.728  71.272  31.436  0.00  0.00    +0.000 A 
ATOM      2  C   UNL     1      45.573  72.374  30.567  0.00  0.00    +0.000 A 
ATOM      3  C   UNL     1      46.008  72.189  29.266  0.00  0.00    +0.000 A 
ATOM      4  N   UNL     1      46.543  70.993  28.912  0.00  0.00    +0.000 NA
ATOM      5  C   UNL     1      46.665  69.967  29.802  0.00  0.00    +0.000 A 
ATOM      6  N   UNL     1      46.261  70.108  31.048  0.00  0.00    +0.000 NA
ATOM      7  N   UNL     1      47.234  68.730  29.388  0.00  0.00    +0.000 N 
ATOM      8  C   UNL     1      48.545  68.512  29.347  0.00  0.00    +0.000 A 
ATOM      9  N   UNL     1      48.742  67.237  28.910  0.00  0.00    +0.000 NA
ATOM     10  C   UNL     1      47.554  66.660  28.681  0.00  0.00    +0.000 A 
ATOM     11  C   UNL     1      47.175  65.414  28.240  0.00  0.00    +0.000 A 
ATOM     12  O   UNL     1      48.082  64.560  27.966  0.00  0.00    +0.000 OA
ATOM     13  N   UNL     1      45.864  65.137  28.110  0.00  0.00    +0.000 N 
ATOM     14  C   UNL     1      44.914  66.067  28.408  0.00  0.00    +0.000 A 
ATOM     15  N   UNL     1      43.564  65.651  28.230  0.00  0.00    +0.000 N 
ATOM     16  N   UNL     1      45.309  67.297  28.843  0.00  0.00    +0.000 NA
ATOM     17  C   UNL     1      46.598  67.614  28.986  0.00  0.00    +0.000 A 
ATOM     18  H   UNL     1      45.574  64.206  27.779  0.00  0.00    +0.000 HD
ATOM     19  H   UNL     1      42.793  66.302  28.436  0.00  0.00    +0.000 HD
ATOM     20  H   UNL     1      43.358  64.699  27.895  0.00  0.00    +0.000 HD
ENDROOT
BRANCH   2  21
ATOM     21  C   UNL     1      45.006  73.614  31.012  0.00  0.00    +0.000 A 
ATOM     22  C   UNL     1      45.686  74.593  31.677  0.00  0.00    +0.000 A 
ATOM     23  C   UNL     1      44.857  75.661  31.958  0.00  0.00    +0.000 A 
ATOM     24  N   UNL     1      43.662  75.286  31.441  0.00  0.00    +0.000 N 
ATOM     25  N   UNL     1      43.765  74.115  30.904  0.00  0.00    +0.000 NA
BRANCH  24  26
ATOM     26  C   UNL     1      42.491  76.066  31.479  0.00  0.00    +0.000 C 
ATOM     27  C   UNL     1      41.294  75.673  30.685  0.00  0.00    +0.000 C 
ATOM     28  C   UNL     1      41.159  75.542  32.100  0.00  0.00    +0.000 C 
BRANCH  28  29
ATOM     29  C   UNL     1      41.132  74.206  32.763  0.00  0.00    +0.000 A 
ATOM     30  C   UNL     1      40.532  73.220  31.930  0.00  0.00    +0.000 A 
ATOM     31  C   UNL     1      40.357  71.910  32.410  0.00  0.00    +0.000 A 
ATOM     32  C   UNL     1      40.759  71.567  33.679  0.00  0.00    +0.000 A 
ATOM     33  C   UNL     1      41.331  72.557  34.446  0.00  0.00    +0.000 A 
ATOM     34  C   UNL     1      41.509  73.829  34.003  0.00  0.00    +0.000 A 
BRANCH  34  35
ATOM     35  C   UNL     1      42.106  74.872  34.822  0.00  0.00    +0.000 C 
ATOM     36  O   UNL     1      41.527  75.778  35.466  0.00  0.00    +0.000 OA
BRANCH  35  37
ATOM     37  O   UNL     1      43.478  74.920  34.947  0.00  0.00    +0.000 OA
ATOM     38  H   UNL     1      43.900  75.624  35.501  0.00  0.00    +0.000 HD
ENDBRANCH  35  37
ENDBRANCH  34  35
ENDBRANCH  28  29
ENDBRANCH  24  26
ENDBRANCH   2  21
TORSDOF 5
