REMARK  Name = 
REMARK  2 active torsions:
REMARK  status: ('A' for Active; 'I' for Inactive)
REMARK    1  A    between atoms: C_1  and  C_19
REMARK    2  A    between atoms: C_6  and  C_7
REMARK                            x       y       z     vdW  Elec       q    Type
REMARK                         _______ _______ _______ _____ _____    ______ ____
ROOT
ATOM      1  C   UNL     1      44.737  70.118  31.134  0.00  0.00    +0.000 A 
ATOM      2  C   UNL     1      44.840  68.853  30.576  0.00  0.00    +0.000 A 
ATOM      3  C   UNL     1      43.759  67.957  30.683  0.00  0.00    +0.000 A 
ATOM      4  C   UNL     1      42.615  68.373  31.351  0.00  0.00    +0.000 A 
ATOM      5  C   UNL     1      42.505  69.633  31.911  0.00  0.00    +0.000 A 
ATOM      6  C   UNL     1      43.594  70.483  31.781  0.00  0.00    +0.000 A 
ENDROOT
BRANCH   1   9
ATOM      7  C   UNL     1      47.178  72.704  29.857  0.00  0.00    +0.000 A 
ATOM      8  C   UNL     1      46.006  71.910  29.932  0.00  0.00    +0.000 A 
ATOM      9  C   UNL     1      45.896  70.972  30.976  0.00  0.00    +0.000 A 
ATOM     10  N   UNL     1      46.912  70.868  31.861  0.00  0.00    +0.000 NA
ATOM     11  C   UNL     1      48.037  71.659  31.753  0.00  0.00    +0.000 A 
ATOM     12  N   UNL     1      48.152  72.544  30.779  0.00  0.00    +0.000 NA
ATOM     13  N   UNL     1      49.060  71.490  32.721  0.00  0.00    +0.000 N 
ATOM     14  C   UNL     1      50.382  72.052  32.465  0.00  0.00    +0.000 C 
ATOM     15  C   UNL     1      51.127  72.249  33.743  0.00  0.00    +0.000 C 
ATOM     16  C   UNL     1      50.247  72.641  34.898  0.00  0.00    +0.000 C 
ATOM     17  C   UNL     1      49.098  71.710  35.111  0.00  0.00    +0.000 C 
ATOM     18  C   UNL     1      48.835  70.775  33.961  0.00  0.00    +0.000 C 
ENDBRANCH   1   9
BRANCH   6  19
ATOM     19  C   UNL     1      43.455  71.802  32.378  0.00  0.00    +0.000 A 
ATOM     20  N   UNL     1      43.276  71.991  33.711  0.00  0.00    +0.000 NA
ATOM     21  O   UNL     1      43.177  73.249  34.011  0.00  0.00    +0.000 OA
ATOM     22  C   UNL     1      43.284  73.956  32.907  0.00  0.00    +0.000 A 
ATOM     23  N   UNL     1      43.449  73.063  31.950  0.00  0.00    +0.000 NA
ATOM     24  N   UNL     1      43.270  75.311  32.496  0.00  0.00    +0.000 N 
ATOM     25  C   UNL     1      44.121  75.787  31.402  0.00  0.00    +0.000 C 
ATOM     26  C   UNL     1      44.312  77.261  31.815  0.00  0.00    +0.000 C 
ATOM     27  C   UNL     1      42.854  77.593  32.115  0.00  0.00    +0.000 C 
ATOM     28  C   UNL     1      42.487  76.428  33.015  0.00  0.00    +0.000 C 
ENDBRANCH   6  19
TORSDOF 2
