REMARK  Name = 
REMARK  3 active torsions:
REMARK  status: ('A' for Active; 'I' for Inactive)
REMARK    1  A    between atoms: C_1  and  C_19
REMARK    2  A    between atoms: C_6  and  C_7
REMARK    3  A    between atoms: C_27  and  N_32
REMARK                            x       y       z     vdW  Elec       q    Type
REMARK                         _______ _______ _______ _____ _____    ______ ____
ROOT
ATOM      1  C   UNL     1      47.273  72.444  30.214  0.00  0.00    +0.000 A 
ATOM      2  C   UNL     1      46.026  71.763  30.236  0.00  0.00    +0.000 A 
ATOM      3  C   UNL     1      45.854  70.687  31.125  0.00  0.00    +0.000 A 
ATOM      4  N   UNL     1      46.876  70.335  31.929  0.00  0.00    +0.000 NA
ATOM      5  C   UNL     1      48.070  71.015  31.884  0.00  0.00    +0.000 A 
ATOM      6  N   UNL     1      48.248  72.033  31.051  0.00  0.00    +0.000 NA
ATOM      7  N   UNL     1      49.149  70.668  32.710  0.00  0.00    +0.000 N 
ATOM      8  C   UNL     1      49.104  69.472  33.333  0.00  0.00    +0.000 A 
ATOM      9  N   UNL     1      50.211  69.323  34.070  0.00  0.00    +0.000 NA
ATOM     10  C   UNL     1      50.994  70.393  33.952  0.00  0.00    +0.000 A 
ATOM     11  C   UNL     1      52.211  70.872  34.412  0.00  0.00    +0.000 A 
ATOM     12  N   UNL     1      52.699  72.088  34.039  0.00  0.00    +0.000 NA
ATOM     13  C   UNL     1      51.960  72.830  33.199  0.00  0.00    +0.000 A 
ATOM     14  N   UNL     1      50.758  72.426  32.708  0.00  0.00    +0.000 NA
ATOM     15  C   UNL     1      50.309  71.213  33.101  0.00  0.00    +0.000 A 
ENDROOT
BRANCH   3  16
ATOM     16  C   UNL     1      44.606  69.947  31.199  0.00  0.00    +0.000 A 
ATOM     17  C   UNL     1      44.615  68.694  30.617  0.00  0.00    +0.000 A 
ATOM     18  C   UNL     1      43.446  67.900  30.639  0.00  0.00    +0.000 A 
ATOM     19  C   UNL     1      42.315  68.414  31.252  0.00  0.00    +0.000 A 
ATOM     20  C   UNL     1      42.299  69.665  31.836  0.00  0.00    +0.000 A 
ATOM     21  C   UNL     1      43.465  70.407  31.791  0.00  0.00    +0.000 A 
BRANCH  21  22
ATOM     22  C   UNL     1      43.422  71.721  32.413  0.00  0.00    +0.000 A 
ATOM     23  N   UNL     1      43.400  71.902  33.756  0.00  0.00    +0.000 NA
ATOM     24  O   UNL     1      43.362  73.163  34.082  0.00  0.00    +0.000 OA
ATOM     25  C   UNL     1      43.357  73.873  32.965  0.00  0.00    +0.000 A 
ATOM     26  N   UNL     1      43.393  72.993  31.985  0.00  0.00    +0.000 NA
ATOM     27  N   UNL     1      43.327  75.228  32.577  0.00  0.00    +0.000 N 
ATOM     28  C   UNL     1      44.076  75.711  31.405  0.00  0.00    +0.000 C 
ATOM     29  C   UNL     1      44.325  77.176  31.789  0.00  0.00    +0.000 C 
ATOM     30  C   UNL     1      42.933  77.530  32.277  0.00  0.00    +0.000 C 
ATOM     31  C   UNL     1      42.621  76.354  33.178  0.00  0.00    +0.000 C 
ENDBRANCH  21  22
ENDBRANCH   3  16
BRANCH  11  32
ATOM     32  N   UNL     1      52.926  70.003  35.306  0.00  0.00    +0.000 N 
ATOM     33  H   UNL     1      53.837  70.294  35.688  0.00  0.00    +0.000 HD
ATOM     34  H   UNL     1      52.527  69.090  35.565  0.00  0.00    +0.000 HD
ENDBRANCH  11  32
TORSDOF 3
