REMARK  Name = 
REMARK  4 active torsions:
REMARK  status: ('A' for Active; 'I' for Inactive)
REMARK    1  A    between atoms: C_1  and  C_3
REMARK    2  A    between atoms: C_1  and  C_17
REMARK    3  A    between atoms: C_10  and  C_16
REMARK    4  A    between atoms: C_19  and  C_20
REMARK                            x       y       z     vdW  Elec       q    Type
REMARK                         _______ _______ _______ _____ _____    ______ ____
ROOT
ATOM      1  C   UNL     1      44.481  74.891  32.601  0.00  0.00    +0.000 C 
ENDROOT
BRANCH   1   3
ATOM      2  C   UNL     1      45.934  72.803  32.835  0.00  0.00    +0.000 A 
ATOM      3  C   UNL     1      45.127  73.697  32.117  0.00  0.00    +0.000 A 
ATOM      4  C   UNL     1      44.901  73.430  30.781  0.00  0.00    +0.000 A 
ATOM      5  N   UNL     1      45.480  72.309  30.236  0.00  0.00    +0.000 NA
ATOM      6  C   UNL     1      46.258  71.460  30.951  0.00  0.00    +0.000 A 
ATOM      7  N   UNL     1      46.476  71.725  32.258  0.00  0.00    +0.000 NA
ATOM      8  N   UNL     1      46.814  70.326  30.298  0.00  0.00    +0.000 N 
ATOM      9  C   UNL     1      46.009  69.323  29.911  0.00  0.00    +0.000 A 
ATOM     10  C   UNL     1      46.423  68.172  29.271  0.00  0.00    +0.000 A 
ATOM     11  C   UNL     1      47.780  68.060  29.014  0.00  0.00    +0.000 A 
ATOM     12  O   UNL     1      48.226  67.053  28.440  0.00  0.00    +0.000 OA
ATOM     13  N   UNL     1      48.591  69.084  29.410  0.00  0.00    +0.000 N 
ATOM     14  C   UNL     1      48.134  70.201  30.040  0.00  0.00    +0.000 A 
ATOM     15  O   UNL     1      48.919  71.113  30.384  0.00  0.00    +0.000 OA
ATOM     16  C   UNL     1      45.445  67.134  28.892  0.00  0.00    +0.000 C 
ATOM     17  H   UNL     1      49.601  69.008  29.223  0.00  0.00    +0.000 HD
ENDBRANCH   1   3
BRANCH   1  18
ATOM     18  C   UNL     1      44.540  76.035  31.662  0.00  0.00    +0.000 C 
ATOM     19  C   UNL     1      44.576  77.419  32.105  0.00  0.00    +0.000 C 
ATOM     20  C   UNL     1      43.314  76.968  31.549  0.00  0.00    +0.000 C 
BRANCH  20  21
ATOM     21  C   UNL     1      42.112  76.681  32.358  0.00  0.00    +0.000 A 
ATOM     22  N   UNL     1      41.661  77.222  33.533  0.00  0.00    +0.000 NA
ATOM     23  O   UNL     1      40.563  76.636  33.867  0.00  0.00    +0.000 OA
ATOM     24  C   UNL     1      40.247  75.722  32.975  0.00  0.00    +0.000 A 
ATOM     25  N   UNL     1      41.209  75.738  32.022  0.00  0.00    +0.000 NA
ATOM     26  N   UNL     1      39.132  74.841  32.937  0.00  0.00    +0.000 N 
ATOM     27  C   UNL     1      39.296  73.540  32.625  0.00  0.00    +0.000 A 
ATOM     28  N   UNL     1      38.110  72.907  32.651  0.00  0.00    +0.000 NA
ATOM     29  C   UNL     1      37.161  73.790  32.981  0.00  0.00    +0.000 A 
ATOM     30  C   UNL     1      35.782  73.809  33.179  0.00  0.00    +0.000 A 
ATOM     31  N   UNL     1      35.158  74.959  33.523  0.00  0.00    +0.000 NA
ATOM     32  C   UNL     1      35.829  76.128  33.688  0.00  0.00    +0.000 A 
ATOM     33  N   UNL     1      37.181  76.133  33.498  0.00  0.00    +0.000 NA
ATOM     34  C   UNL     1      37.814  74.991  33.156  0.00  0.00    +0.000 A 
ENDBRANCH  20  21
ENDBRANCH   1  18
TORSDOF 3
