REMARK  Name = 
REMARK  2 active torsions:
REMARK  status: ('A' for Active; 'I' for Inactive)
REMARK    1  A    between atoms: C_1  and  C_21
REMARK    2  A    between atoms: C_4  and  C_6
REMARK                            x       y       z     vdW  Elec       q    Type
REMARK                         _______ _______ _______ _____ _____    ______ ____
ROOT
ATOM      1  C   UNL     1      46.348  65.096  28.241  0.00  0.00    +0.000 A 
ATOM      2  C   UNL     1      46.660  64.387  27.051  0.00  0.00    +0.000 A 
ATOM      3  S   UNL     1      45.434  63.075  27.007  0.00  0.00    +0.000 S 
ATOM      4  C   UNL     1      44.666  63.699  28.645  0.00  0.00    +0.000 A 
ATOM      5  N   UNL     1      45.324  64.602  28.896  0.00  0.00    +0.000 NA
ATOM      6  N   UNL     1      43.501  63.173  29.434  0.00  0.00    +0.000 N 
ATOM      7  C   UNL     1      43.583  63.492  30.714  0.00  0.00    +0.000 A 
ATOM      8  C   UNL     1      42.549  63.048  31.507  0.00  0.00    +0.000 A 
ATOM      9  C   UNL     1      41.568  62.330  30.863  0.00  0.00    +0.000 A 
ATOM     10  N   UNL     1      40.456  61.824  31.577  0.00  0.00    +0.000 N 
ATOM     11  N   UNL     1      41.590  62.063  29.544  0.00  0.00    +0.000 NA
ATOM     12  C   UNL     1      42.589  62.488  28.750  0.00  0.00    +0.000 A 
ATOM     13  O   UNL     1      42.737  62.314  27.516  0.00  0.00    +0.000 OA
ATOM     14  H   UNL     1      39.728  61.288  31.084  0.00  0.00    +0.000 HD
ATOM     15  H   UNL     1      40.375  61.992  32.590  0.00  0.00    +0.000 HD
ENDROOT
BRANCH   1  19
ATOM     16  C   UNL     1      47.817  68.265  29.121  0.00  0.00    +0.000 A 
ATOM     17  C   UNL     1      48.945  67.530  28.996  0.00  0.00    +0.000 A 
ATOM     18  C   UNL     1      48.606  66.242  28.652  0.00  0.00    +0.000 A 
ATOM     19  C   UNL     1      47.188  66.263  28.581  0.00  0.00    +0.000 A 
ATOM     20  O   UNL     1      46.802  67.455  28.861  0.00  0.00    +0.000 OA
BRANCH  16  23
ATOM     21  C   UNL     1      46.488  71.744  29.693  0.00  0.00    +0.000 A 
ATOM     22  C   UNL     1      46.494  70.390  29.319  0.00  0.00    +0.000 A 
ATOM     23  C   UNL     1      47.671  69.681  29.471  0.00  0.00    +0.000 A 
ATOM     24  N   UNL     1      48.766  70.330  29.974  0.00  0.00    +0.000 NA
ATOM     25  C   UNL     1      48.721  71.633  30.322  0.00  0.00    +0.000 A 
ATOM     26  N   UNL     1      47.607  72.320  30.184  0.00  0.00    +0.000 NA
ATOM     27  N   UNL     1      49.926  72.130  30.819  0.00  0.00    +0.000 N 
ATOM     28  H   UNL     1      49.995  73.115  31.113  0.00  0.00    +0.000 HD
ATOM     29  H   UNL     1      50.747  71.512  30.892  0.00  0.00    +0.000 HD
ENDBRANCH  16  23
ENDBRANCH   1  19
TORSDOF 2
