REMARK  Name = 
REMARK  3 active torsions:
REMARK  status: ('A' for Active; 'I' for Inactive)
REMARK    1  A    between atoms: C_1  and  C_19
REMARK    2  A    between atoms: C_6  and  C_7
REMARK    3  A    between atoms: C_21  and  C_23
REMARK                            x       y       z     vdW  Elec       q    Type
REMARK                         _______ _______ _______ _____ _____    ______ ____
ROOT
ATOM      1  C   UNL     1      44.591  69.950  31.197  0.00  0.00    +0.000 A 
ATOM      2  C   UNL     1      44.572  68.690  30.625  0.00  0.00    +0.000 A 
ATOM      3  C   UNL     1      43.420  67.906  30.652  0.00  0.00    +0.000 A 
ATOM      4  C   UNL     1      42.284  68.428  31.274  0.00  0.00    +0.000 A 
ATOM      5  C   UNL     1      42.279  69.684  31.852  0.00  0.00    +0.000 A 
ATOM      6  C   UNL     1      43.453  70.425  31.798  0.00  0.00    +0.000 A 
ENDROOT
BRANCH   6   7
ATOM      7  C   UNL     1      43.427  71.745  32.411  0.00  0.00    +0.000 A 
ATOM      8  N   UNL     1      43.447  71.914  33.761  0.00  0.00    +0.000 NA
ATOM      9  O   UNL     1      43.419  73.172  34.094  0.00  0.00    +0.000 OA
ATOM     10  C   UNL     1      43.379  73.883  32.985  0.00  0.00    +0.000 A 
ATOM     11  N   UNL     1      43.385  73.007  31.989  0.00  0.00    +0.000 NA
ATOM     12  N   UNL     1      43.335  75.240  32.604  0.00  0.00    +0.000 N 
ATOM     13  C   UNL     1      44.036  75.725  31.394  0.00  0.00    +0.000 C 
ATOM     14  C   UNL     1      44.314  77.188  31.790  0.00  0.00    +0.000 C 
ATOM     15  C   UNL     1      42.933  77.540  32.323  0.00  0.00    +0.000 C 
ATOM     16  C   UNL     1      42.661  76.365  33.243  0.00  0.00    +0.000 C 
ENDBRANCH   6   7
BRANCH   1  19
ATOM     17  C   UNL     1      47.279  72.425  30.221  0.00  0.00    +0.000 A 
ATOM     18  C   UNL     1      46.013  71.771  30.231  0.00  0.00    +0.000 A 
ATOM     19  C   UNL     1      45.834  70.676  31.112  0.00  0.00    +0.000 A 
ATOM     20  N   UNL     1      46.877  70.314  31.892  0.00  0.00    +0.000 NA
ATOM     21  C   UNL     1      48.079  70.970  31.851  0.00  0.00    +0.000 A 
ATOM     22  N   UNL     1      48.257  71.993  31.034  0.00  0.00    +0.000 NA
BRANCH  21  23
ATOM     23  C   UNL     1      49.132  70.489  32.741  0.00  0.00    +0.000 A 
ATOM     24  C   UNL     1      49.139  69.264  33.388  0.00  0.00    +0.000 A 
ATOM     25  N   UNL     1      50.266  69.184  34.110  0.00  0.00    +0.000 N 
ATOM     26  C   UNL     1      50.983  70.330  33.943  0.00  0.00    +0.000 A 
ATOM     27  C   UNL     1      52.203  70.773  34.447  0.00  0.00    +0.000 A 
ATOM     28  C   UNL     1      52.725  72.003  34.117  0.00  0.00    +0.000 A 
ATOM     29  C   UNL     1      52.031  72.855  33.250  0.00  0.00    +0.000 A 
ATOM     30  C   UNL     1      50.813  72.391  32.758  0.00  0.00    +0.000 A 
ATOM     31  C   UNL     1      50.284  71.167  33.081  0.00  0.00    +0.000 A 
ATOM     32  H   UNL     1      50.545  68.385  34.697  0.00  0.00    +0.000 HD
ENDBRANCH  21  23
ENDBRANCH   1  19
TORSDOF 3
