REMARK  Name = 
REMARK  3 active torsions:
REMARK  status: ('A' for Active; 'I' for Inactive)
REMARK    1  A    between atoms: C_1  and  C_9
REMARK    2  A    between atoms: C_3  and  N_22
REMARK    3  A    between atoms: C_15  and  C_16
REMARK                            x       y       z     vdW  Elec       q    Type
REMARK                         _______ _______ _______ _____ _____    ______ ____
ROOT
ATOM      1  C   UNL     1      44.514  70.119  31.242  0.00  0.00    +0.000 A 
ATOM      2  C   UNL     1      44.646  68.837  30.727  0.00  0.00    +0.000 A 
ATOM      3  C   UNL     1      43.479  68.102  30.810  0.00  0.00    +0.000 A 
ATOM      4  N   UNL     1      42.347  68.550  31.320  0.00  0.00    +0.000 NA
ATOM      5  C   UNL     1      42.313  69.826  31.803  0.00  0.00    +0.000 A 
ATOM      6  N   UNL     1      43.395  70.611  31.765  0.00  0.00    +0.000 NA
ENDROOT
BRANCH   1   9
ATOM      7  C   UNL     1      46.794  72.995  30.442  0.00  0.00    +0.000 A 
ATOM      8  C   UNL     1      45.642  72.174  30.477  0.00  0.00    +0.000 A 
ATOM      9  C   UNL     1      45.699  70.975  31.199  0.00  0.00    +0.000 A 
ATOM     10  N   UNL     1      46.851  70.671  31.821  0.00  0.00    +0.000 NA
ATOM     11  C   UNL     1      47.951  71.460  31.785  0.00  0.00    +0.000 A 
ATOM     12  N   UNL     1      47.915  72.625  31.091  0.00  0.00    +0.000 NA
ATOM     13  N   UNL     1      49.149  71.092  32.463  0.00  0.00    +0.000 N 
ATOM     14  C   UNL     1      50.019  72.142  32.512  0.00  0.00    +0.000 A 
ATOM     15  C   UNL     1      51.258  71.996  33.135  0.00  0.00    +0.000 A 
ATOM     16  C   UNL     1      52.245  73.110  33.218  0.00  0.00    +0.000 C 
ATOM     17  C   UNL     1      51.560  70.767  33.686  0.00  0.00    +0.000 A 
ATOM     18  O   UNL     1      52.652  70.557  34.260  0.00  0.00    +0.000 OA
ATOM     19  N   UNL     1      50.668  69.760  33.611  0.00  0.00    +0.000 N 
ATOM     20  C   UNL     1      49.475  69.908  33.008  0.00  0.00    +0.000 A 
ATOM     21  O   UNL     1      48.583  69.031  32.890  0.00  0.00    +0.000 OA
ATOM     22  H   UNL     1      50.907  68.849  34.028  0.00  0.00    +0.000 HD
ENDBRANCH   1   9
BRANCH   3  23
ATOM     23  N   UNL     1      43.380  66.747  30.338  0.00  0.00    +0.000 N 
ATOM     24  C   UNL     1      42.874  65.914  31.283  0.00  0.00    +0.000 A 
ATOM     25  C   UNL     1      42.709  64.562  30.999  0.00  0.00    +0.000 A 
ATOM     26  C   UNL     1      43.069  64.091  29.742  0.00  0.00    +0.000 A 
ATOM     27  N   UNL     1      42.910  62.710  29.423  0.00  0.00    +0.000 N 
ATOM     28  N   UNL     1      43.564  64.972  28.851  0.00  0.00    +0.000 NA
ATOM     29  C   UNL     1      43.721  66.265  29.127  0.00  0.00    +0.000 A 
ATOM     30  O   UNL     1      44.172  67.127  28.349  0.00  0.00    +0.000 OA
ATOM     31  H   UNL     1      43.177  62.363  28.491  0.00  0.00    +0.000 HD
ATOM     32  H   UNL     1      42.528  62.060  30.125  0.00  0.00    +0.000 HD
ENDBRANCH   3  23
TORSDOF 2
