REMARK  Name = 
REMARK  2 active torsions:
REMARK  status: ('A' for Active; 'I' for Inactive)
REMARK    1  A    between atoms: C_2  and  C_7
REMARK    2  A    between atoms: C_5  and  C_18
REMARK                            x       y       z     vdW  Elec       q    Type
REMARK                         _______ _______ _______ _____ _____    ______ ____
ROOT
ATOM      1  C   UNL     1      46.733  73.216  30.362  0.00  0.00    +0.000 A 
ATOM      2  C   UNL     1      45.485  73.227  31.033  0.00  0.00    +0.000 A 
ATOM      3  C   UNL     1      44.802  72.020  31.194  0.00  0.00    +0.000 A 
ATOM      4  N   UNL     1      45.372  70.889  30.697  0.00  0.00    +0.000 NA
ATOM      5  C   UNL     1      46.550  70.930  30.073  0.00  0.00    +0.000 A 
ATOM      6  N   UNL     1      47.220  72.079  29.908  0.00  0.00    +0.000 NA
ENDROOT
BRANCH   5   7
ATOM      7  C   UNL     1      47.074  69.657  29.576  0.00  0.00    +0.000 A 
ATOM      8  N   UNL     1      48.329  69.285  29.305  0.00  0.00    +0.000 NA
ATOM      9  O   UNL     1      48.375  68.055  28.877  0.00  0.00    +0.000 OA
ATOM     10  C   UNL     1      47.133  67.576  28.853  0.00  0.00    +0.000 A 
ATOM     11  N   UNL     1      46.345  68.572  29.285  0.00  0.00    +0.000 NA
ATOM     12  N   UNL     1      46.791  66.261  28.439  0.00  0.00    +0.000 N 
ATOM     13  C   UNL     1      47.685  65.279  28.240  0.00  0.00    +0.000 A 
ATOM     14  C   UNL     1      47.304  64.018  27.838  0.00  0.00    +0.000 A 
ATOM     15  C   UNL     1      45.970  63.747  27.633  0.00  0.00    +0.000 A 
ATOM     16  O   UNL     1      45.455  62.643  27.264  0.00  0.00    +0.000 OA
ATOM     17  N   UNL     1      45.041  64.718  27.827  0.00  0.00    +0.000 N 
ATOM     18  C   UNL     1      45.516  65.926  28.222  0.00  0.00    +0.000 A 
ATOM     19  O   UNL     1      44.646  66.844  28.406  0.00  0.00    +0.000 OA
ATOM     20  H   UNL     1      44.035  64.548  27.683  0.00  0.00    +0.000 HD
ENDBRANCH   5   7
BRANCH   2  21
ATOM     21  C   UNL     1      44.974  74.523  31.524  0.00  0.00    +0.000 A 
ATOM     22  C   UNL     1      45.748  75.687  31.405  0.00  0.00    +0.000 A 
ATOM     23  S   UNL     1      44.674  76.992  32.154  0.00  0.00    +0.000 S 
ATOM     24  C   UNL     1      43.343  75.691  32.499  0.00  0.00    +0.000 A 
ATOM     25  N   UNL     1      43.818  74.777  32.100  0.00  0.00    +0.000 NA
ATOM     26  N   UNL     1      42.077  75.950  33.126  0.00  0.00    +0.000 N 
ATOM     27  C   UNL     1      41.571  77.262  33.397  0.00  0.00    +0.000 C 
ATOM     28  C   UNL     1      40.456  77.086  34.417  0.00  0.00    +0.000 C 
ATOM     29  O   UNL     1      39.443  76.270  33.986  0.00  0.00    +0.000 OA
ATOM     30  C   UNL     1      39.825  75.176  33.249  0.00  0.00    +0.000 C 
ATOM     31  C   UNL     1      41.273  74.806  33.502  0.00  0.00    +0.000 C 
ENDBRANCH   2  21
TORSDOF 2
