REMARK  Name = 
REMARK  5 active torsions:
REMARK  status: ('A' for Active; 'I' for Inactive)
REMARK    1  A    between atoms: C_3  and  C_17
REMARK    2  A    between atoms: C_5  and  C_7
REMARK    3  A    between atoms: C_17  and  O_19
REMARK    4  A    between atoms: O_19  and  C_22
REMARK    5  A    between atoms: C_24  and  N_25
REMARK                            x       y       z     vdW  Elec       q    Type
REMARK                         _______ _______ _______ _____ _____    ______ ____
ROOT
ATOM      1  C   UNL     1      52.356  67.968  34.128  0.00  0.00    +0.000 A 
ATOM      2  C   UNL     1      51.999  69.316  34.063  0.00  0.00    +0.000 A 
ATOM      3  C   UNL     1      53.054  70.194  34.020  0.00  0.00    +0.000 A 
ATOM      4  N   UNL     1      54.277  69.698  34.044  0.00  0.00    +0.000 NA
ATOM      5  C   UNL     1      54.658  68.446  34.105  0.00  0.00    +0.000 A 
ATOM      6  N   UNL     1      53.638  67.613  34.146  0.00  0.00    +0.000 NA
ENDROOT
BRANCH   5   7
ATOM      7  C   UNL     1      55.930  67.779  34.138  0.00  0.00    +0.000 A 
ATOM      8  C   UNL     1      56.846  67.912  35.193  0.00  0.00    +0.000 A 
ATOM      9  C   UNL     1      58.065  67.284  35.244  0.00  0.00    +0.000 A 
ATOM     10  C   UNL     1      58.452  66.475  34.235  0.00  0.00    +0.000 A 
ATOM     11  C   UNL     1      57.610  66.297  33.171  0.00  0.00    +0.000 A 
ATOM     12  C   UNL     1      58.029  65.456  32.138  0.00  0.00    +0.000 A 
ATOM     13  C   UNL     1      57.246  65.232  31.050  0.00  0.00    +0.000 A 
ATOM     14  C   UNL     1      56.005  65.876  31.006  0.00  0.00    +0.000 A 
ATOM     15  C   UNL     1      55.633  66.688  32.034  0.00  0.00    +0.000 A 
ATOM     16  C   UNL     1      56.390  66.937  33.141  0.00  0.00    +0.000 A 
ENDBRANCH   5   7
BRANCH   3  17
ATOM     17  C   UNL     1      52.836  71.622  33.951  0.00  0.00    +0.000 C 
ATOM     18  O   UNL     1      53.314  72.443  34.785  0.00  0.00    +0.000 OA
BRANCH  17  19
ATOM     19  O   UNL     1      52.078  72.188  32.953  0.00  0.00    +0.000 OA
BRANCH  19  22
ATOM     20  N   UNL     1      48.600  72.193  33.710  0.00  0.00    +0.000 N 
ATOM     21  N   UNL     1      49.874  72.304  34.053  0.00  0.00    +0.000 NA
ATOM     22  C   UNL     1      50.682  72.143  32.993  0.00  0.00    +0.000 A 
ATOM     23  C   UNL     1      49.850  71.914  31.904  0.00  0.00    +0.000 A 
ATOM     24  C   UNL     1      48.575  71.953  32.385  0.00  0.00    +0.000 A 
ATOM     25  H   UNL     1      47.786  72.274  34.335  0.00  0.00    +0.000 HD
BRANCH  24  26
ATOM     26  N   UNL     1      47.384  71.771  31.628  0.00  0.00    +0.000 N 
ATOM     27  C   UNL     1      46.534  72.892  31.271  0.00  0.00    +0.000 C 
ATOM     28  C   UNL     1      45.816  72.526  29.985  0.00  0.00    +0.000 C 
ATOM     29  O   UNL     1      46.578  71.731  29.163  0.00  0.00    +0.000 OA
ATOM     30  C   UNL     1      46.935  70.509  29.672  0.00  0.00    +0.000 C 
ATOM     31  C   UNL     1      46.977  70.449  31.184  0.00  0.00    +0.000 C 
ENDBRANCH  24  26
ENDBRANCH  19  22
ENDBRANCH  17  19
ENDBRANCH   3  17
TORSDOF 5
