REMARK  Name = 
REMARK  3 active torsions:
REMARK  status: ('A' for Active; 'I' for Inactive)
REMARK    1  A    between atoms: C_1  and  C_17
REMARK    2  A    between atoms: C_3  and  N_7
REMARK    3  A    between atoms: C_19  and  C_21
REMARK                            x       y       z     vdW  Elec       q    Type
REMARK                         _______ _______ _______ _____ _____    ______ ____
ROOT
ATOM      1  C   UNL     1      44.714  70.139  31.279  0.00  0.00    +0.000 A 
ATOM      2  C   UNL     1      44.787  68.866  30.777  0.00  0.00    +0.000 A 
ATOM      3  C   UNL     1      43.592  68.178  30.812  0.00  0.00    +0.000 A 
ATOM      4  N   UNL     1      42.457  68.695  31.289  0.00  0.00    +0.000 NA
ATOM      5  C   UNL     1      42.464  69.969  31.771  0.00  0.00    +0.000 A 
ATOM      6  N   UNL     1      43.585  70.694  31.769  0.00  0.00    +0.000 NA
ENDROOT
BRANCH   3   7
ATOM      7  N   UNL     1      43.437  66.836  30.340  0.00  0.00    +0.000 N 
ATOM      8  C   UNL     1      42.906  66.027  31.277  0.00  0.00    +0.000 A 
ATOM      9  C   UNL     1      42.685  64.685  30.993  0.00  0.00    +0.000 A 
ATOM     10  C   UNL     1      43.021  64.196  29.723  0.00  0.00    +0.000 A 
ATOM     11  N   UNL     1      42.805  62.831  29.416  0.00  0.00    +0.000 N 
ATOM     12  N   UNL     1      43.552  65.068  28.829  0.00  0.00    +0.000 NA
ATOM     13  C   UNL     1      43.760  66.358  29.117  0.00  0.00    +0.000 A 
ATOM     14  O   UNL     1      44.243  67.207  28.340  0.00  0.00    +0.000 OA
ATOM     15  H   UNL     1      43.050  62.468  28.484  0.00  0.00    +0.000 HD
ATOM     16  H   UNL     1      42.402  62.201  30.125  0.00  0.00    +0.000 HD
ENDBRANCH   3   7
BRANCH   1  19
ATOM     17  C   UNL     1      47.174  72.893  30.680  0.00  0.00    +0.000 A 
ATOM     18  C   UNL     1      45.965  72.166  30.620  0.00  0.00    +0.000 A 
ATOM     19  C   UNL     1      45.933  70.952  31.277  0.00  0.00    +0.000 A 
ATOM     20  N   UNL     1      47.043  70.569  31.910  0.00  0.00    +0.000 NA
ATOM     21  C   UNL     1      48.211  71.252  31.978  0.00  0.00    +0.000 A 
ATOM     22  N   UNL     1      48.241  72.431  31.341  0.00  0.00    +0.000 NA
BRANCH  21  23
ATOM     23  C   UNL     1      49.217  70.540  32.755  0.00  0.00    +0.000 A 
ATOM     24  C   UNL     1      49.035  69.259  33.168  0.00  0.00    +0.000 A 
ATOM     25  C   UNL     1      49.956  68.545  33.903  0.00  0.00    +0.000 A 
ATOM     26  C   UNL     1      51.153  69.119  34.269  0.00  0.00    +0.000 A 
ATOM     27  C   UNL     1      51.379  70.419  33.871  0.00  0.00    +0.000 A 
ATOM     28  C   UNL     1      52.584  70.974  34.247  0.00  0.00    +0.000 A 
ATOM     29  C   UNL     1      52.878  72.270  33.881  0.00  0.00    +0.000 A 
ATOM     30  C   UNL     1      51.929  72.968  33.139  0.00  0.00    +0.000 A 
ATOM     31  C   UNL     1      50.746  72.352  32.798  0.00  0.00    +0.000 A 
ATOM     32  C   UNL     1      50.410  71.064  33.139  0.00  0.00    +0.000 A 
ENDBRANCH  21  23
ENDBRANCH   1  19
TORSDOF 3
