REMARK  Name = 
REMARK  3 active torsions:
REMARK  status: ('A' for Active; 'I' for Inactive)
REMARK    1  A    between atoms: C_2  and  C_7
REMARK    2  A    between atoms: C_5  and  C_16
REMARK    3  A    between atoms: C_16  and  C_17
REMARK                            x       y       z     vdW  Elec       q    Type
REMARK                         _______ _______ _______ _____ _____    ______ ____
ROOT
ATOM      1  C   UNL     1      46.600  73.676  30.131  0.00  0.00    +0.000 A 
ATOM      2  C   UNL     1      45.887  73.845  31.308  0.00  0.00    +0.000 A 
ATOM      3  C   UNL     1      46.114  72.908  32.333  0.00  0.00    +0.000 A 
ATOM      4  N   UNL     1      47.012  71.905  32.102  0.00  0.00    +0.000 NA
ATOM      5  C   UNL     1      47.670  71.789  30.952  0.00  0.00    +0.000 A 
ATOM      6  N   UNL     1      47.471  72.675  29.953  0.00  0.00    +0.000 NA
ENDROOT
BRANCH   2   7
ATOM      7  C   UNL     1      44.977  74.927  31.439  0.00  0.00    +0.000 A 
ATOM      8  C   UNL     1      45.353  76.286  31.406  0.00  0.00    +0.000 A 
ATOM      9  N   UNL     1      44.228  77.057  31.559  0.00  0.00    +0.000 N 
ATOM     10  C   UNL     1      43.169  76.231  31.685  0.00  0.00    +0.000 A 
ATOM     11  C   UNL     1      41.801  76.496  31.865  0.00  0.00    +0.000 A 
ATOM     12  C   UNL     1      40.904  75.462  31.967  0.00  0.00    +0.000 A 
ATOM     13  C   UNL     1      41.340  74.160  31.896  0.00  0.00    +0.000 A 
ATOM     14  C   UNL     1      42.697  73.948  31.719  0.00  0.00    +0.000 A 
ATOM     15  C   UNL     1      43.637  74.936  31.610  0.00  0.00    +0.000 A 
ATOM     16  H   UNL     1      44.198  78.086  31.575  0.00  0.00    +0.000 HD
ENDBRANCH   2   7
BRANCH   5  17
ATOM     17  C   UNL     1      48.625  70.665  30.798  0.00  0.00    +0.000 C 
BRANCH  17  18
ATOM     18  C   UNL     1      47.884  69.515  30.230  0.00  0.00    +0.000 A 
ATOM     19  C   UNL     1      46.495  69.444  30.361  0.00  0.00    +0.000 A 
ATOM     20  C   UNL     1      46.077  68.285  29.747  0.00  0.00    +0.000 A 
ATOM     21  N   UNL     1      47.168  67.690  29.271  0.00  0.00    +0.000 N 
ATOM     22  N   UNL     1      48.237  68.433  29.565  0.00  0.00    +0.000 NA
ATOM     23  C   UNL     1      47.098  66.452  28.570  0.00  0.00    +0.000 A 
ATOM     24  N   UNL     1      45.867  65.989  28.214  0.00  0.00    +0.000 NA
ATOM     25  C   UNL     1      45.678  64.834  27.550  0.00  0.00    +0.000 A 
ATOM     26  N   UNL     1      46.716  64.037  27.182  0.00  0.00    +0.000 NA
ATOM     27  C   UNL     1      47.958  64.468  27.521  0.00  0.00    +0.000 A 
ATOM     28  C   UNL     1      49.070  63.724  27.189  0.00  0.00    +0.000 A 
ATOM     29  C   UNL     1      50.376  64.113  27.508  0.00  0.00    +0.000 A 
ATOM     30  C   UNL     1      50.502  65.320  28.197  0.00  0.00    +0.000 A 
ATOM     31  C   UNL     1      49.411  66.110  28.556  0.00  0.00    +0.000 A 
ATOM     32  C   UNL     1      48.148  65.652  28.201  0.00  0.00    +0.000 A 
ENDBRANCH  17  18
ENDBRANCH   5  17
TORSDOF 3
