REMARK  Name = 
REMARK  3 active torsions:
REMARK  status: ('A' for Active; 'I' for Inactive)
REMARK    1  A    between atoms: C_1  and  N_21
REMARK    2  A    between atoms: C_3  and  C_7
REMARK    3  A    between atoms: C_25  and  C_26
REMARK                            x       y       z     vdW  Elec       q    Type
REMARK                         _______ _______ _______ _____ _____    ______ ____
ROOT
ATOM      1  C   UNL     1      44.722  71.060  31.092  0.00  0.00    +0.000 A 
ATOM      2  C   UNL     1      44.251  72.338  31.424  0.00  0.00    +0.000 A 
ATOM      3  C   UNL     1      45.055  73.442  31.198  0.00  0.00    +0.000 A 
ATOM      4  N   UNL     1      46.285  73.256  30.655  0.00  0.00    +0.000 NA
ATOM      5  C   UNL     1      46.722  72.017  30.341  0.00  0.00    +0.000 A 
ATOM      6  N   UNL     1      45.950  70.948  30.559  0.00  0.00    +0.000 NA
ENDROOT
BRANCH   3   7
ATOM      7  C   UNL     1      44.585  74.769  31.552  0.00  0.00    +0.000 A 
ATOM      8  C   UNL     1      45.451  75.841  31.390  0.00  0.00    +0.000 A 
ATOM      9  C   UNL     1      44.879  77.055  31.772  0.00  0.00    +0.000 A 
ATOM     10  C   UNL     1      43.607  77.190  32.254  0.00  0.00    +0.000 A 
ATOM     11  C   UNL     1      42.822  76.080  32.380  0.00  0.00    +0.000 A 
ATOM     12  N   UNL     1      43.324  74.861  32.023  0.00  0.00    +0.000 NA
ATOM     13  N   UNL     1      41.461  76.062  32.869  0.00  0.00    +0.000 N 
ATOM     14  C   UNL     1      40.943  76.655  33.948  0.00  0.00    +0.000 A 
ATOM     15  C   UNL     1      39.607  76.498  34.200  0.00  0.00    +0.000 A 
ATOM     16  C   UNL     1      38.794  75.737  33.356  0.00  0.00    +0.000 A 
ATOM     17  O   UNL     1      37.556  75.622  33.634  0.00  0.00    +0.000 OA
ATOM     18  N   UNL     1      39.375  75.165  32.285  0.00  0.00    +0.000 N 
ATOM     19  C   UNL     1      40.679  75.317  32.039  0.00  0.00    +0.000 A 
ATOM     20  O   UNL     1      41.045  74.715  31.008  0.00  0.00    +0.000 OA
ATOM     21  H   UNL     1      38.803  74.599  31.642  0.00  0.00    +0.000 HD
ENDBRANCH   3   7
BRANCH   1  22
ATOM     22  N   UNL     1      43.919  69.908  31.328  0.00  0.00    +0.000 N 
ATOM     23  C   UNL     1      44.255  68.673  30.915  0.00  0.00    +0.000 A 
ATOM     24  C   UNL     1      43.180  67.867  31.374  0.00  0.00    +0.000 A 
ATOM     25  N   UNL     1      42.281  68.652  32.019  0.00  0.00    +0.000 NA
ATOM     26  C   UNL     1      42.754  69.940  31.989  0.00  0.00    +0.000 A 
BRANCH  26  27
ATOM     27  C   UNL     1      41.835  70.776  32.687  0.00  0.00    +0.000 A 
ATOM     28  C   UNL     1      42.230  71.201  33.965  0.00  0.00    +0.000 A 
ATOM     29  C   UNL     1      41.337  71.946  34.706  0.00  0.00    +0.000 A 
ATOM     30  C   UNL     1      40.106  72.239  34.163  0.00  0.00    +0.000 A 
ATOM     31  C   UNL     1      39.739  71.802  32.884  0.00  0.00    +0.000 A 
ATOM     32  C   UNL     1      40.615  71.050  32.110  0.00  0.00    +0.000 A 
ENDBRANCH  26  27
ENDBRANCH   1  22
TORSDOF 3
