REMARK  Name = 
REMARK  3 active torsions:
REMARK  status: ('A' for Active; 'I' for Inactive)
REMARK    1  A    between atoms: C_2  and  C_7
REMARK    2  A    between atoms: C_5  and  C_18
REMARK    3  A    between atoms: C_25  and  C_26
REMARK                            x       y       z     vdW  Elec       q    Type
REMARK                         _______ _______ _______ _____ _____    ______ ____
ROOT
ATOM      1  C   UNL     1      46.773  73.177  30.349  0.00  0.00    +0.000 A 
ATOM      2  C   UNL     1      45.509  73.176  31.017  0.00  0.00    +0.000 A 
ATOM      3  C   UNL     1      44.820  71.964  31.177  0.00  0.00    +0.000 A 
ATOM      4  N   UNL     1      45.395  70.839  30.683  0.00  0.00    +0.000 NA
ATOM      5  C   UNL     1      46.591  70.888  30.058  0.00  0.00    +0.000 A 
ATOM      6  N   UNL     1      47.259  72.031  29.898  0.00  0.00    +0.000 NA
ENDROOT
BRANCH   5   7
ATOM      7  C   UNL     1      47.108  69.620  29.559  0.00  0.00    +0.000 A 
ATOM      8  N   UNL     1      48.373  69.250  29.268  0.00  0.00    +0.000 NA
ATOM      9  O   UNL     1      48.389  68.020  28.842  0.00  0.00    +0.000 OA
ATOM     10  C   UNL     1      47.129  67.547  28.843  0.00  0.00    +0.000 A 
ATOM     11  N   UNL     1      46.350  68.528  29.282  0.00  0.00    +0.000 NA
ATOM     12  N   UNL     1      46.590  66.281  28.477  0.00  0.00    +0.000 N 
ATOM     13  C   UNL     1      47.462  65.277  28.312  0.00  0.00    +0.000 A 
ATOM     14  C   UNL     1      46.978  64.018  27.954  0.00  0.00    +0.000 A 
ATOM     15  C   UNL     1      47.914  62.877  27.762  0.00  0.00    +0.000 C 
ATOM     16  C   UNL     1      45.613  63.846  27.779  0.00  0.00    +0.000 A 
ATOM     17  O   UNL     1      45.124  62.713  27.451  0.00  0.00    +0.000 OA
ATOM     18  N   UNL     1      44.752  64.873  27.951  0.00  0.00    +0.000 N 
ATOM     19  C   UNL     1      45.251  66.087  28.300  0.00  0.00    +0.000 A 
ATOM     20  O   UNL     1      44.493  67.092  28.475  0.00  0.00    +0.000 OA
ATOM     21  H   UNL     1      43.739  64.738  27.820  0.00  0.00    +0.000 HD
ENDBRANCH   5   7
BRANCH   2  22
ATOM     22  C   UNL     1      44.992  74.470  31.503  0.00  0.00    +0.000 A 
ATOM     23  C   UNL     1      45.768  75.627  31.374  0.00  0.00    +0.000 A 
ATOM     24  S   UNL     1      44.695  76.948  32.111  0.00  0.00    +0.000 S 
ATOM     25  C   UNL     1      43.363  75.637  32.462  0.00  0.00    +0.000 A 
ATOM     26  N   UNL     1      43.843  74.727  32.071  0.00  0.00    +0.000 NA
ATOM     27  N   UNL     1      42.097  75.914  33.085  0.00  0.00    +0.000 N 
ATOM     28  C   UNL     1      41.563  77.216  33.301  0.00  0.00    +0.000 C 
ATOM     29  C   UNL     1      40.496  77.066  34.378  0.00  0.00    +0.000 C 
ATOM     30  O   UNL     1      39.483  76.215  33.993  0.00  0.00    +0.000 OA
ATOM     31  C   UNL     1      39.866  75.111  33.279  0.00  0.00    +0.000 C 
ATOM     32  C   UNL     1      41.324  74.770  33.517  0.00  0.00    +0.000 C 
ENDBRANCH   2  22
TORSDOF 2
