REMARK  Name = 
REMARK  1 active torsions:
REMARK  status: ('A' for Active; 'I' for Inactive)
REMARK    1  A    between atoms: N_1  and  C_18
REMARK                            x       y       z     vdW  Elec       q    Type
REMARK                         _______ _______ _______ _____ _____    ______ ____
ROOT
ATOM      1  N   UNL     1      44.313  71.504  31.902  0.00  0.00    +0.000 N 
ATOM      2  C   UNL     1      43.443  72.182  32.654  0.00  0.00    +0.000 A 
ATOM      3  N   UNL     1      42.338  71.433  32.782  0.00  0.00    +0.000 NA
ATOM      4  C   UNL     1      42.537  70.300  32.107  0.00  0.00    +0.000 A 
ATOM      5  C   UNL     1      41.677  69.225  31.953  0.00  0.00    +0.000 C 
ATOM      6  N   UNL     1      42.174  68.203  31.206  0.00  0.00    +0.000 NA
ATOM      7  C   UNL     1      43.381  68.205  30.646  0.00  0.00    +0.000 C 
ATOM      8  N   UNL     1      44.208  69.266  30.804  0.00  0.00    +0.000 N 
ATOM      9  C   UNL     1      43.788  70.313  31.533  0.00  0.00    +0.000 A 
ATOM     10  N   UNL     1      43.689  67.011  29.901  0.00  0.00    +0.000 N 
ATOM     11  C   UNL     1      42.957  65.891  30.029  0.00  0.00    +0.000 A 
ATOM     12  C   UNL     1      43.195  64.718  29.350  0.00  0.00    +0.000 A 
ATOM     13  C   UNL     1      44.255  64.670  28.470  0.00  0.00    +0.000 A 
ATOM     14  N   UNL     1      44.613  63.525  27.706  0.00  0.00    +0.000 N 
ATOM     15  N   UNL     1      44.997  65.801  28.337  0.00  0.00    +0.000 NA
ATOM     16  C   UNL     1      44.699  66.906  29.038  0.00  0.00    +0.000 A 
ATOM     17  O   UNL     1      45.442  67.907  28.851  0.00  0.00    +0.000 OA
ATOM     18  H   UNL     1      45.143  69.270  30.372  0.00  0.00    +0.000 HD
ATOM     19  H   UNL     1      45.420  63.564  27.067  0.00  0.00    +0.000 HD
ATOM     20  H   UNL     1      44.065  62.657  27.791  0.00  0.00    +0.000 HD
ENDROOT
BRANCH   1  21
ATOM     21  C   UNL     1      45.644  71.850  31.456  0.00  0.00    +0.000 A 
ATOM     22  C   UNL     1      45.806  72.661  30.335  0.00  0.00    +0.000 A 
ATOM     23  C   UNL     1      47.128  72.960  29.946  0.00  0.00    +0.000 A 
ATOM     24  N   UNL     1      48.149  72.446  30.682  0.00  0.00    +0.000 NA
ATOM     25  C   UNL     1      47.937  71.665  31.762  0.00  0.00    +0.000 A 
ATOM     26  N   UNL     1      46.678  71.361  32.156  0.00  0.00    +0.000 NA
ATOM     27  N   UNL     1      48.990  71.120  32.548  0.00  0.00    +0.000 N 
ATOM     28  C   UNL     1      50.117  71.870  32.597  0.00  0.00    +0.000 A 
ATOM     29  C   UNL     1      51.020  71.188  33.408  0.00  0.00    +0.000 A 
ATOM     30  N   UNL     1      50.417  70.044  33.827  0.00  0.00    +0.000 NA
ATOM     31  C   UNL     1      49.171  70.021  33.290  0.00  0.00    +0.000 A 
ENDBRANCH   1  21
TORSDOF 1
