REMARK  Name = 
REMARK  2 active torsions:
REMARK  status: ('A' for Active; 'I' for Inactive)
REMARK    1  A    between atoms: N_1  and  C_10
REMARK    2  A    between atoms: C_7  and  C_21
REMARK                            x       y       z     vdW  Elec       q    Type
REMARK                         _______ _______ _______ _____ _____    ______ ____
ROOT
ATOM      1  N   UNL     1      44.307  71.463  31.870  0.00  0.00    +0.000 N 
ATOM      2  C   UNL     1      43.426  72.165  32.599  0.00  0.00    +0.000 A 
ATOM      3  N   UNL     1      42.311  71.426  32.717  0.00  0.00    +0.000 NA
ATOM      4  C   UNL     1      42.507  70.281  32.065  0.00  0.00    +0.000 A 
ATOM      5  C   UNL     1      41.660  69.208  31.898  0.00  0.00    +0.000 C 
ATOM      6  N   UNL     1      42.155  68.174  31.168  0.00  0.00    +0.000 NA
ATOM      7  C   UNL     1      43.383  68.156  30.628  0.00  0.00    +0.000 C 
ATOM      8  N   UNL     1      44.188  69.210  30.804  0.00  0.00    +0.000 N 
ATOM      9  C   UNL     1      43.765  70.273  31.515  0.00  0.00    +0.000 A 
ATOM     10  H   UNL     1      45.133  69.209  30.395  0.00  0.00    +0.000 HD
ENDROOT
BRANCH   1  11
ATOM     11  C   UNL     1      45.645  71.788  31.448  0.00  0.00    +0.000 A 
ATOM     12  C   UNL     1      45.845  72.596  30.333  0.00  0.00    +0.000 A 
ATOM     13  C   UNL     1      47.172  72.876  29.966  0.00  0.00    +0.000 A 
ATOM     14  N   UNL     1      48.178  72.349  30.709  0.00  0.00    +0.000 NA
ATOM     15  C   UNL     1      47.930  71.567  31.788  0.00  0.00    +0.000 A 
ATOM     16  N   UNL     1      46.669  71.283  32.161  0.00  0.00    +0.000 NA
ATOM     17  N   UNL     1      48.971  71.009  32.592  0.00  0.00    +0.000 N 
ATOM     18  C   UNL     1      50.099  71.751  32.647  0.00  0.00    +0.000 A 
ATOM     19  C   UNL     1      50.998  71.065  33.471  0.00  0.00    +0.000 A 
ATOM     20  N   UNL     1      50.366  69.925  33.881  0.00  0.00    +0.000 NA
ATOM     21  C   UNL     1      49.125  69.905  33.336  0.00  0.00    +0.000 A 
ENDBRANCH   1  11
BRANCH   7  22
ATOM     22  C   UNL     1      43.584  66.904  29.917  0.00  0.00    +0.000 A 
ATOM     23  C   UNL     1      44.132  66.717  28.653  0.00  0.00    +0.000 A 
ATOM     24  N   UNL     1      44.182  65.435  28.275  0.00  0.00    +0.000 N 
ATOM     25  C   UNL     1      43.667  64.709  29.273  0.00  0.00    +0.000 A 
ATOM     26  C   UNL     1      43.490  63.348  29.386  0.00  0.00    +0.000 A 
ATOM     27  C   UNL     1      42.932  62.798  30.521  0.00  0.00    +0.000 A 
ATOM     28  C   UNL     1      42.563  63.685  31.528  0.00  0.00    +0.000 A 
ATOM     29  C   UNL     1      42.764  65.034  31.361  0.00  0.00    +0.000 A 
ATOM     30  C   UNL     1      43.314  65.599  30.249  0.00  0.00    +0.000 A 
ATOM     31  H   UNL     1      44.548  65.075  27.383  0.00  0.00    +0.000 HD
ENDBRANCH   7  22
TORSDOF 2
