REMARK  Name = 
REMARK  4 active torsions:
REMARK  status: ('A' for Active; 'I' for Inactive)
REMARK    1  A    between atoms: C_2  and  C_7
REMARK    2  A    between atoms: C_5  and  C_17
REMARK    3  A    between atoms: C_17  and  C_18
REMARK    4  A    between atoms: C_25  and  C_26
REMARK                            x       y       z     vdW  Elec       q    Type
REMARK                         _______ _______ _______ _____ _____    ______ ____
ROOT
ATOM      1  C   UNL     1      45.697  74.920  31.389  0.00  0.00    +0.000 A 
ATOM      2  C   UNL     1      44.408  74.402  31.202  0.00  0.00    +0.000 A 
ATOM      3  C   UNL     1      44.330  73.191  30.525  0.00  0.00    +0.000 A 
ATOM      4  N   UNL     1      45.443  72.565  30.080  0.00  0.00    +0.000 NA
ATOM      5  C   UNL     1      46.647  73.107  30.287  0.00  0.00    +0.000 A 
ATOM      6  N   UNL     1      46.792  74.279  30.936  0.00  0.00    +0.000 NA
ENDROOT
BRANCH   2   7
ATOM      7  C   UNL     1      43.344  75.204  31.749  0.00  0.00    +0.000 A 
ATOM      8  C   UNL     1      43.705  76.559  31.904  0.00  0.00    +0.000 A 
ATOM      9  C   UNL     1      42.836  77.497  32.409  0.00  0.00    +0.000 A 
ATOM     10  C   UNL     1      41.557  77.129  32.786  0.00  0.00    +0.000 A 
ATOM     11  C   UNL     1      41.206  75.788  32.631  0.00  0.00    +0.000 A 
ATOM     12  C   UNL     1      39.960  75.315  32.974  0.00  0.00    +0.000 A 
ATOM     13  C   UNL     1      39.605  73.992  32.823  0.00  0.00    +0.000 A 
ATOM     14  C   UNL     1      40.527  73.105  32.310  0.00  0.00    +0.000 A 
ATOM     15  C   UNL     1      41.785  73.556  31.958  0.00  0.00    +0.000 A 
ATOM     16  C   UNL     1      42.074  74.870  32.130  0.00  0.00    +0.000 A 
ENDBRANCH   2   7
BRANCH   5  17
ATOM     17  C   UNL     1      47.849  72.362  29.770  0.00  0.00    +0.000 C 
BRANCH  17  18
ATOM     18  C   UNL     1      47.897  70.969  30.342  0.00  0.00    +0.000 A 
ATOM     19  C   UNL     1      47.985  70.718  31.739  0.00  0.00    +0.000 A 
ATOM     20  S   UNL     1      47.998  68.892  31.765  0.00  0.00    +0.000 S 
ATOM     21  C   UNL     1      47.886  68.772  29.927  0.00  0.00    +0.000 A 
ATOM     22  N   UNL     1      47.854  69.937  29.537  0.00  0.00    +0.000 NA
ATOM     23  N   UNL     1      47.849  67.536  29.195  0.00  0.00    +0.000 N 
ATOM     24  C   UNL     1      49.054  66.978  29.009  0.00  0.00    +0.000 A 
ATOM     25  C   UNL     1      49.128  65.773  28.309  0.00  0.00    +0.000 A 
ATOM     26  C   UNL     1      50.447  65.128  28.086  0.00  0.00    +0.000 C 
ATOM     27  C   UNL     1      47.945  65.206  27.834  0.00  0.00    +0.000 A 
ATOM     28  O   UNL     1      47.977  64.113  27.194  0.00  0.00    +0.000 OA
ATOM     29  N   UNL     1      46.781  65.842  28.069  0.00  0.00    +0.000 N 
ATOM     30  C   UNL     1      46.706  67.008  28.747  0.00  0.00    +0.000 A 
ATOM     31  O   UNL     1      45.634  67.622  28.982  0.00  0.00    +0.000 OA
ATOM     32  H   UNL     1      45.910  65.421  27.716  0.00  0.00    +0.000 HD
ENDBRANCH  17  18
ENDBRANCH   5  17
TORSDOF 3
