REMARK  Name = 
REMARK  4 active torsions:
REMARK  status: ('A' for Active; 'I' for Inactive)
REMARK    1  A    between atoms: C_1  and  N_7
REMARK    2  A    between atoms: C_5  and  C_16
REMARK    3  A    between atoms: C_9  and  C_15
REMARK    4  A    between atoms: C_20  and  C_22
REMARK                            x       y       z     vdW  Elec       q    Type
REMARK                         _______ _______ _______ _____ _____    ______ ____
ROOT
ATOM      1  C   UNL     1      45.774  71.368  31.230  0.00  0.00    +0.000 A 
ATOM      2  C   UNL     1      45.899  72.397  30.280  0.00  0.00    +0.000 A 
ATOM      3  C   UNL     1      47.170  72.962  30.085  0.00  0.00    +0.000 A 
ATOM      4  N   UNL     1      48.214  72.486  30.823  0.00  0.00    +0.000 NA
ATOM      5  C   UNL     1      48.043  71.480  31.739  0.00  0.00    +0.000 A 
ATOM      6  N   UNL     1      46.836  70.958  31.911  0.00  0.00    +0.000 NA
ENDROOT
BRANCH   1   7
ATOM      7  N   UNL     1      44.504  70.774  31.453  0.00  0.00    +0.000 N 
ATOM      8  C   UNL     1      44.277  69.499  31.086  0.00  0.00    +0.000 A 
ATOM      9  C   UNL     1      43.014  68.938  31.315  0.00  0.00    +0.000 A 
ATOM     10  C   UNL     1      42.111  69.802  31.920  0.00  0.00    +0.000 A 
ATOM     11  O   UNL     1      40.968  69.312  32.132  0.00  0.00    +0.000 OA
ATOM     12  N   UNL     1      42.318  71.075  32.292  0.00  0.00    +0.000 N 
ATOM     13  C   UNL     1      43.559  71.551  32.042  0.00  0.00    +0.000 A 
ATOM     14  O   UNL     1      43.789  72.742  32.380  0.00  0.00    +0.000 OA
ATOM     15  C   UNL     1      42.669  67.553  30.951  0.00  0.00    +0.000 C 
ATOM     16  H   UNL     1      41.585  71.647  32.735  0.00  0.00    +0.000 HD
ENDBRANCH   1   7
BRANCH   5  17
ATOM     17  C   UNL     1      49.172  70.986  32.526  0.00  0.00    +0.000 A 
ATOM     18  C   UNL     1      50.327  71.712  32.699  0.00  0.00    +0.000 A 
ATOM     19  C   UNL     1      51.410  71.259  33.451  0.00  0.00    +0.000 A 
ATOM     20  C   UNL     1      51.283  70.012  34.041  0.00  0.00    +0.000 A 
ATOM     21  C   UNL     1      50.113  69.283  33.861  0.00  0.00    +0.000 A 
ATOM     22  N   UNL     1      49.103  69.785  33.119  0.00  0.00    +0.000 NA
BRANCH  21  23
ATOM     23  C   UNL     1      50.160  67.997  34.550  0.00  0.00    +0.000 A 
ATOM     24  N   UNL     1      49.427  66.959  34.190  0.00  0.00    +0.000 NA
ATOM     25  C   UNL     1      49.433  65.765  34.785  0.00  0.00    +0.000 A 
ATOM     26  N   UNL     1      50.231  65.508  35.859  0.00  0.00    +0.000 NA
ATOM     27  C   UNL     1      51.018  66.509  36.303  0.00  0.00    +0.000 A 
ATOM     28  C   UNL     1      51.826  66.266  37.384  0.00  0.00    +0.000 A 
ATOM     29  C   UNL     1      52.648  67.259  37.873  0.00  0.00    +0.000 A 
ATOM     30  C   UNL     1      52.615  68.496  37.224  0.00  0.00    +0.000 A 
ATOM     31  C   UNL     1      51.786  68.661  36.158  0.00  0.00    +0.000 A 
ATOM     32  C   UNL     1      50.954  67.711  35.636  0.00  0.00    +0.000 A 
ENDBRANCH  21  23
ENDBRANCH   5  17
TORSDOF 3
