REMARK  Name = 
REMARK  2 active torsions:
REMARK  status: ('A' for Active; 'I' for Inactive)
REMARK    1  A    between atoms: C_1  and  C_19
REMARK    2  A    between atoms: C_6  and  C_7
REMARK                            x       y       z     vdW  Elec       q    Type
REMARK                         _______ _______ _______ _____ _____    ______ ____
ROOT
ATOM      1  C   UNL     1      44.715  70.156  31.154  0.00  0.00    +0.000 A 
ATOM      2  C   UNL     1      44.756  68.900  30.557  0.00  0.00    +0.000 A 
ATOM      3  C   UNL     1      43.655  68.030  30.662  0.00  0.00    +0.000 A 
ATOM      4  C   UNL     1      42.552  68.463  31.366  0.00  0.00    +0.000 A 
ATOM      5  C   UNL     1      42.481  69.713  31.975  0.00  0.00    +0.000 A 
ATOM      6  C   UNL     1      43.598  70.531  31.840  0.00  0.00    +0.000 A 
ENDROOT
BRANCH   1   9
ATOM      7  C   UNL     1      47.149  72.778  29.944  0.00  0.00    +0.000 A 
ATOM      8  C   UNL     1      45.951  72.028  30.046  0.00  0.00    +0.000 A 
ATOM      9  C   UNL     1      45.899  70.971  30.987  0.00  0.00    +0.000 A 
ATOM     10  N   UNL     1      46.985  70.718  31.747  0.00  0.00    +0.000 NA
ATOM     11  C   UNL     1      48.122  71.479  31.606  0.00  0.00    +0.000 A 
ATOM     12  N   UNL     1      48.184  72.471  30.729  0.00  0.00    +0.000 NA
ATOM     13  N   UNL     1      49.256  71.188  32.424  0.00  0.00    +0.000 N 
ATOM     14  C   UNL     1      50.205  72.138  32.317  0.00  0.00    +0.000 A 
ATOM     15  C   UNL     1      51.383  72.030  33.039  0.00  0.00    +0.000 A 
ATOM     16  C   UNL     1      51.492  70.908  33.843  0.00  0.00    +0.000 A 
ATOM     17  N   UNL     1      52.681  70.744  34.608  0.00  0.00    +0.000 N 
ATOM     18  N   UNL     1      50.538  69.988  33.927  0.00  0.00    +0.000 NA
ATOM     19  C   UNL     1      49.404  70.118  33.215  0.00  0.00    +0.000 A 
ATOM     20  O   UNL     1      48.453  69.294  33.238  0.00  0.00    +0.000 OA
ATOM     21  H   UNL     1      52.793  69.920  35.216  0.00  0.00    +0.000 HD
ATOM     22  H   UNL     1      53.430  71.449  34.554  0.00  0.00    +0.000 HD
ENDBRANCH   1   9
BRANCH   6  23
ATOM     23  C   UNL     1      43.522  71.838  32.475  0.00  0.00    +0.000 A 
ATOM     24  N   UNL     1      43.705  72.008  33.809  0.00  0.00    +0.000 NA
ATOM     25  O   UNL     1      43.596  73.250  34.165  0.00  0.00    +0.000 OA
ATOM     26  C   UNL     1      43.337  73.959  33.082  0.00  0.00    +0.000 A 
ATOM     27  N   UNL     1      43.298  73.085  32.079  0.00  0.00    +0.000 NA
ATOM     28  N   UNL     1      43.105  75.306  32.729  0.00  0.00    +0.000 N 
ATOM     29  C   UNL     1      43.589  75.865  31.460  0.00  0.00    +0.000 C 
ATOM     30  C   UNL     1      43.773  77.344  31.826  0.00  0.00    +0.000 C 
ATOM     31  C   UNL     1      42.449  77.554  32.566  0.00  0.00    +0.000 C 
ATOM     32  C   UNL     1      42.404  76.349  33.467  0.00  0.00    +0.000 C 
ENDBRANCH   6  23
TORSDOF 2
