REMARK  Name = 
REMARK  3 active torsions:
REMARK  status: ('A' for Active; 'I' for Inactive)
REMARK    1  A    between atoms: C_1  and  C_22
REMARK    2  A    between atoms: C_18  and  N_24
REMARK    3  A    between atoms: C_26  and  C_32
REMARK                            x       y       z     vdW  Elec       q    Type
REMARK                         _______ _______ _______ _____ _____    ______ ____
ROOT
ATOM      1  C   UNL     1      49.330  70.936  32.736  0.00  0.00    +0.000 A 
ATOM      2  C   UNL     1      50.305  71.814  33.163  0.00  0.00    +0.000 A 
ATOM      3  C   UNL     1      51.349  71.439  34.009  0.00  0.00    +0.000 A 
ATOM      4  C   UNL     1      51.378  70.104  34.427  0.00  0.00    +0.000 A 
ATOM      5  C   UNL     1      50.387  69.250  33.982  0.00  0.00    +0.000 A 
ATOM      6  N   UNL     1      49.394  69.646  33.164  0.00  0.00    +0.000 NA
ATOM      7  N   UNL     1      50.441  67.898  34.421  0.00  0.00    +0.000 N 
ATOM      8  C   UNL     1      49.969  66.907  33.607  0.00  0.00    +0.000 A 
ATOM      9  N   UNL     1      50.120  65.704  34.229  0.00  0.00    +0.000 NA
ATOM     10  C   UNL     1      50.687  65.937  35.434  0.00  0.00    +0.000 A 
ATOM     11  C   UNL     1      51.095  65.187  36.518  0.00  0.00    +0.000 A 
ATOM     12  O   UNL     1      50.937  63.928  36.465  0.00  0.00    +0.000 OA
ATOM     13  N   UNL     1      51.640  65.794  37.586  0.00  0.00    +0.000 N 
ATOM     14  C   UNL     1      51.822  67.124  37.677  0.00  0.00    +0.000 A 
ATOM     15  N   UNL     1      52.412  67.630  38.868  0.00  0.00    +0.000 N 
ATOM     16  N   UNL     1      51.422  67.873  36.609  0.00  0.00    +0.000 NA
ATOM     17  C   UNL     1      50.874  67.285  35.530  0.00  0.00    +0.000 A 
ATOM     18  H   UNL     1      51.935  65.208  38.380  0.00  0.00    +0.000 HD
ATOM     19  H   UNL     1      52.568  68.642  38.976  0.00  0.00    +0.000 HD
ATOM     20  H   UNL     1      52.684  66.984  39.623  0.00  0.00    +0.000 HD
ENDROOT
BRANCH   1  25
ATOM     21  C   UNL     1      46.012  71.194  31.218  0.00  0.00    +0.000 A 
ATOM     22  C   UNL     1      46.185  72.150  30.204  0.00  0.00    +0.000 A 
ATOM     23  C   UNL     1      47.465  72.714  30.042  0.00  0.00    +0.000 A 
ATOM     24  N   UNL     1      48.469  72.305  30.875  0.00  0.00    +0.000 NA
ATOM     25  C   UNL     1      48.254  71.370  31.848  0.00  0.00    +0.000 A 
ATOM     26  N   UNL     1      47.039  70.846  31.991  0.00  0.00    +0.000 NA
BRANCH  21  27
ATOM     27  N   UNL     1      44.746  70.607  31.413  0.00  0.00    +0.000 N 
ATOM     28  C   UNL     1      44.510  69.324  31.035  0.00  0.00    +0.000 A 
ATOM     29  C   UNL     1      43.249  68.765  31.237  0.00  0.00    +0.000 A 
ATOM     30  C   UNL     1      42.338  69.626  31.830  0.00  0.00    +0.000 A 
ATOM     31  O   UNL     1      41.183  69.133  32.022  0.00  0.00    +0.000 OA
ATOM     32  N   UNL     1      42.540  70.878  32.207  0.00  0.00    +0.000 N 
ATOM     33  C   UNL     1      43.789  71.373  31.987  0.00  0.00    +0.000 A 
ATOM     34  O   UNL     1      44.017  72.573  32.338  0.00  0.00    +0.000 OA
ATOM     35  C   UNL     1      42.913  67.374  30.853  0.00  0.00    +0.000 C 
ATOM     36  H   UNL     1      41.797  71.444  32.641  0.00  0.00    +0.000 HD
ENDBRANCH  21  27
ENDBRANCH   1  25
TORSDOF 2
