REMARK  Name = 
REMARK  4 active torsions:
REMARK  status: ('A' for Active; 'I' for Inactive)
REMARK    1  A    between atoms: C_19  and  O_20
REMARK    2  A    between atoms: O_20  and  C_21
REMARK    3  A    between atoms: C_23  and  N_24
REMARK    4  A    between atoms: C_26  and  C_27
REMARK                            x       y       z     vdW  Elec       q    Type
REMARK                         _______ _______ _______ _____ _____    ______ ____
ROOT
ATOM      1  N   UNL     1      46.319  70.528  31.312  0.00  0.00    +0.000 N 
ATOM      2  C   UNL     1      47.290  69.975  32.014  0.00  0.00    +0.000 A 
ATOM      3  C   UNL     1      48.511  70.595  32.014  0.00  0.00    +0.000 A 
ATOM      4  C   UNL     1      48.621  71.760  31.269  0.00  0.00    +0.000 A 
ATOM      5  N   UNL     1      49.879  72.425  31.250  0.00  0.00    +0.000 N 
ATOM      6  N   UNL     1      47.591  72.289  30.564  0.00  0.00    +0.000 NA
ATOM      7  C   UNL     1      46.399  71.663  30.578  0.00  0.00    +0.000 A 
ATOM      8  O   UNL     1      45.411  72.127  29.930  0.00  0.00    +0.000 OA
ATOM      9  C   UNL     1      42.684  69.827  31.848  0.00  0.00    +0.000 A 
ATOM     10  C   UNL     1      43.906  70.491  31.914  0.00  0.00    +0.000 A 
ATOM     11  C   UNL     1      45.029  69.907  31.291  0.00  0.00    +0.000 A 
ATOM     12  N   UNL     1      44.843  68.716  30.659  0.00  0.00    +0.000 NA
ATOM     13  C   UNL     1      43.638  68.115  30.625  0.00  0.00    +0.000 A 
ATOM     14  N   UNL     1      42.573  68.658  31.207  0.00  0.00    +0.000 NA
ATOM     15  N   UNL     1      43.659  66.882  29.906  0.00  0.00    +0.000 N 
ATOM     16  N   UNL     1      44.252  67.007  28.703  0.00  0.00    +0.000 NA
ATOM     17  C   UNL     1      44.195  65.798  28.086  0.00  0.00    +0.000 A 
ATOM     18  C   UNL     1      43.555  64.932  28.931  0.00  0.00    +0.000 A 
ATOM     19  C   UNL     1      43.224  65.630  30.078  0.00  0.00    +0.000 A 
ATOM     20  H   UNL     1      49.995  73.292  30.707  0.00  0.00    +0.000 HD
ATOM     21  H   UNL     1      50.674  72.039  31.779  0.00  0.00    +0.000 HD
ENDROOT
BRANCH  19  22
ATOM     22  O   UNL     1      42.621  65.374  31.214  0.00  0.00    +0.000 OA
BRANCH  22  23
ATOM     23  C   UNL     1      42.608  64.045  31.755  0.00  0.00    +0.000 C 
ATOM     24  C   UNL     1      43.723  63.119  31.481  0.00  0.00    +0.000 C 
ATOM     25  C   UNL     1      42.349  62.906  30.883  0.00  0.00    +0.000 C 
BRANCH  25  26
ATOM     26  N   UNL     1      41.529  61.792  31.249  0.00  0.00    +0.000 N 
ATOM     27  C   UNL     1      40.202  61.804  31.036  0.00  0.00    +0.000 A 
ATOM     28  C   UNL     1      39.390  60.766  31.369  0.00  0.00    +0.000 A 
ATOM     29  C   UNL     1      37.910  60.728  31.156  0.00  0.00    +0.000 C 
ATOM     30  C   UNL     1      39.918  59.615  31.963  0.00  0.00    +0.000 A 
ATOM     31  O   UNL     1      39.296  58.576  32.327  0.00  0.00    +0.000 OA
ATOM     32  N   UNL     1      41.268  59.635  32.166  0.00  0.00    +0.000 N 
ATOM     33  C   UNL     1      42.047  60.684  31.821  0.00  0.00    +0.000 A 
ATOM     34  O   UNL     1      43.287  60.689  32.014  0.00  0.00    +0.000 OA
ATOM     35  H   UNL     1      41.712  58.814  32.601  0.00  0.00    +0.000 HD
ENDBRANCH  25  26
ENDBRANCH  22  23
ENDBRANCH  19  22
TORSDOF 3
