REMARK  Name = 
REMARK  2 active torsions:
REMARK  status: ('A' for Active; 'I' for Inactive)
REMARK    1  A    between atoms: C_2  and  C_18
REMARK    2  A    between atoms: C_23  and  N_24
REMARK                            x       y       z     vdW  Elec       q    Type
REMARK                         _______ _______ _______ _____ _____    ______ ____
ROOT
ATOM      1  C   UNL     1      45.824  72.765  29.909  0.00  0.00    +0.000 A 
ATOM      2  C   UNL     1      44.854  72.566  30.942  0.00  0.00    +0.000 A 
ATOM      3  C   UNL     1      44.668  71.245  31.408  0.00  0.00    +0.000 A 
ATOM      4  N   UNL     1      45.412  70.252  30.857  0.00  0.00    +0.000 NA
ATOM      5  C   UNL     1      46.321  70.479  29.882  0.00  0.00    +0.000 A 
ATOM      6  N   UNL     1      46.545  71.750  29.387  0.00  0.00    +0.000 NA
ATOM      7  N   UNL     1      46.955  69.274  29.490  0.00  0.00    +0.000 N 
ATOM      8  C   UNL     1      48.292  69.127  29.449  0.00  0.00    +0.000 A 
ATOM      9  N   UNL     1      48.603  67.869  29.037  0.00  0.00    +0.000 NA
ATOM     10  C   UNL     1      47.454  67.206  28.812  0.00  0.00    +0.000 A 
ATOM     11  C   UNL     1      47.213  65.905  28.384  0.00  0.00    +0.000 A 
ATOM     12  O   UNL     1      48.167  65.129  28.134  0.00  0.00    +0.000 OA
ATOM     13  N   UNL     1      45.910  65.598  28.275  0.00  0.00    +0.000 N 
ATOM     14  C   UNL     1      44.916  66.442  28.546  0.00  0.00    +0.000 A 
ATOM     15  N   UNL     1      43.554  66.003  28.394  0.00  0.00    +0.000 N 
ATOM     16  N   UNL     1      45.186  67.696  28.960  0.00  0.00    +0.000 NA
ATOM     17  C   UNL     1      46.442  68.095  29.099  0.00  0.00    +0.000 A 
ATOM     18  H   UNL     1      45.663  64.648  27.962  0.00  0.00    +0.000 HD
ATOM     19  H   UNL     1      42.779  66.649  28.601  0.00  0.00    +0.000 HD
ATOM     20  H   UNL     1      43.355  65.043  28.078  0.00  0.00    +0.000 HD
ENDROOT
BRANCH   2  21
ATOM     21  C   UNL     1      44.185  73.746  31.383  0.00  0.00    +0.000 A 
ATOM     22  C   UNL     1      42.798  73.738  31.706  0.00  0.00    +0.000 A 
ATOM     23  C   UNL     1      42.154  74.891  32.127  0.00  0.00    +0.000 A 
ATOM     24  C   UNL     1      42.928  76.035  32.214  0.00  0.00    +0.000 A 
ATOM     25  C   UNL     1      44.292  76.096  31.909  0.00  0.00    +0.000 A 
ATOM     26  C   UNL     1      44.869  74.930  31.502  0.00  0.00    +0.000 A 
BRANCH  26  27
ATOM     27  N   UNL     1      46.255  75.166  31.248  0.00  0.00    +0.000 N 
ATOM     28  H   UNL     1      46.649  76.109  31.376  0.00  0.00    +0.000 HD
ATOM     29  H   UNL     1      46.860  74.393  30.936  0.00  0.00    +0.000 HD
ENDBRANCH  26  27
ENDBRANCH   2  21
TORSDOF 2
