REMARK  Name = 
REMARK  3 active torsions:
REMARK  status: ('A' for Active; 'I' for Inactive)
REMARK    1  A    between atoms: C_19  and  O_20
REMARK    2  A    between atoms: O_20  and  C_21
REMARK    3  A    between atoms: C_23  and  C_24
REMARK                            x       y       z     vdW  Elec       q    Type
REMARK                         _______ _______ _______ _____ _____    ______ ____
ROOT
ATOM      1  N   UNL     1      46.180  70.565  31.444  0.00  0.00    +0.000 N 
ATOM      2  C   UNL     1      47.145  70.026  32.171  0.00  0.00    +0.000 A 
ATOM      3  C   UNL     1      48.348  70.679  32.223  0.00  0.00    +0.000 A 
ATOM      4  C   UNL     1      48.447  71.857  31.501  0.00  0.00    +0.000 A 
ATOM      5  N   UNL     1      49.693  72.558  31.542  0.00  0.00    +0.000 N 
ATOM      6  N   UNL     1      47.430  72.370  30.771  0.00  0.00    +0.000 NA
ATOM      7  C   UNL     1      46.254  71.716  30.730  0.00  0.00    +0.000 A 
ATOM      8  O   UNL     1      45.279  72.159  30.061  0.00  0.00    +0.000 OA
ATOM      9  C   UNL     1      42.553  69.755  31.847  0.00  0.00    +0.000 A 
ATOM     10  C   UNL     1      43.748  70.450  31.965  0.00  0.00    +0.000 A 
ATOM     11  C   UNL     1      44.912  69.909  31.369  0.00  0.00    +0.000 A 
ATOM     12  N   UNL     1      44.781  68.726  30.710  0.00  0.00    +0.000 NA
ATOM     13  C   UNL     1      43.596  68.092  30.626  0.00  0.00    +0.000 A 
ATOM     14  N   UNL     1      42.497  68.592  31.182  0.00  0.00    +0.000 NA
ATOM     15  N   UNL     1      43.677  66.872  29.887  0.00  0.00    +0.000 N 
ATOM     16  N   UNL     1      44.306  67.035  28.709  0.00  0.00    +0.000 NA
ATOM     17  C   UNL     1      44.301  65.831  28.071  0.00  0.00    +0.000 A 
ATOM     18  C   UNL     1      43.659  64.936  28.879  0.00  0.00    +0.000 A 
ATOM     19  C   UNL     1      43.270  65.607  30.025  0.00  0.00    +0.000 A 
ATOM     20  H   UNL     1      49.806  73.438  31.018  0.00  0.00    +0.000 HD
ATOM     21  H   UNL     1      50.477  72.183  32.095  0.00  0.00    +0.000 HD
ENDROOT
BRANCH  19  22
ATOM     22  O   UNL     1      42.636  65.312  31.131  0.00  0.00    +0.000 OA
BRANCH  22  23
ATOM     23  C   UNL     1      42.662  63.964  31.647  0.00  0.00    +0.000 C 
ATOM     24  C   UNL     1      43.834  63.107  31.440  0.00  0.00    +0.000 C 
ATOM     25  C   UNL     1      42.501  62.847  30.716  0.00  0.00    +0.000 C 
BRANCH  25  26
ATOM     26  C   UNL     1      41.659  61.710  31.160  0.00  0.00    +0.000 A 
ATOM     27  N   UNL     1      40.349  62.005  30.968  0.00  0.00    +0.000 NA
ATOM     28  C   UNL     1      39.373  61.100  31.263  0.00  0.00    +0.000 A 
ATOM     29  N   UNL     1      39.702  59.890  31.752  0.00  0.00    +0.000 NA
ATOM     30  C   UNL     1      40.985  59.547  31.961  0.00  0.00    +0.000 A 
ATOM     31  C   UNL     1      41.439  58.346  32.467  0.00  0.00    +0.000 A 
ATOM     32  C   UNL     1      42.803  58.119  32.648  0.00  0.00    +0.000 A 
ATOM     33  C   UNL     1      43.755  59.072  32.335  0.00  0.00    +0.000 A 
ATOM     34  C   UNL     1      43.315  60.277  31.829  0.00  0.00    +0.000 A 
ATOM     35  C   UNL     1      41.963  60.468  31.663  0.00  0.00    +0.000 A 
ENDBRANCH  25  26
ENDBRANCH  22  23
ENDBRANCH  19  22
TORSDOF 3
