REMARK  Name = 
REMARK  2 active torsions:
REMARK  status: ('A' for Active; 'I' for Inactive)
REMARK    1  A    between atoms: C_1  and  C_19
REMARK    2  A    between atoms: C_6  and  C_7
REMARK                            x       y       z     vdW  Elec       q    Type
REMARK                         _______ _______ _______ _____ _____    ______ ____
ROOT
ATOM      1  C   UNL     1      44.593  69.894  31.212  0.00  0.00    +0.000 A 
ATOM      2  C   UNL     1      44.576  68.641  30.633  0.00  0.00    +0.000 A 
ATOM      3  C   UNL     1      43.394  67.877  30.627  0.00  0.00    +0.000 A 
ATOM      4  C   UNL     1      42.260  68.418  31.214  0.00  0.00    +0.000 A 
ATOM      5  C   UNL     1      42.263  69.675  31.800  0.00  0.00    +0.000 A 
ATOM      6  C   UNL     1      43.449  70.388  31.782  0.00  0.00    +0.000 A 
ENDROOT
BRANCH   1   9
ATOM      7  C   UNL     1      47.361  72.303  30.278  0.00  0.00    +0.000 A 
ATOM      8  C   UNL     1      46.091  71.652  30.267  0.00  0.00    +0.000 A 
ATOM      9  C   UNL     1      45.856  70.598  31.168  0.00  0.00    +0.000 A 
ATOM     10  N   UNL     1      46.846  70.243  32.012  0.00  0.00    +0.000 NA
ATOM     11  C   UNL     1      48.051  70.885  31.999  0.00  0.00    +0.000 A 
ATOM     12  N   UNL     1      48.295  71.882  31.157  0.00  0.00    +0.000 NA
ATOM     13  N   UNL     1      49.025  70.409  32.951  0.00  0.00    +0.000 N 
ATOM     14  C   UNL     1      49.056  69.341  33.734  0.00  0.00    +0.000 A 
ATOM     15  N   UNL     1      50.223  69.407  34.421  0.00  0.00    +0.000 NA
ATOM     16  C   UNL     1      50.891  70.503  34.057  0.00  0.00    +0.000 A 
ATOM     17  C   UNL     1      52.117  70.954  34.505  0.00  0.00    +0.000 A 
ATOM     18  N   UNL     1      52.613  72.102  33.996  0.00  0.00    +0.000 NA
ATOM     19  C   UNL     1      51.852  72.740  33.062  0.00  0.00    +0.000 A 
ATOM     20  N   UNL     1      50.658  72.319  32.613  0.00  0.00    +0.000 NA
ATOM     21  C   UNL     1      50.133  71.181  33.096  0.00  0.00    +0.000 A 
ENDBRANCH   1   9
BRANCH   6  22
ATOM     22  C   UNL     1      43.429  71.705  32.402  0.00  0.00    +0.000 A 
ATOM     23  N   UNL     1      43.440  71.877  33.751  0.00  0.00    +0.000 NA
ATOM     24  O   UNL     1      43.418  73.138  34.077  0.00  0.00    +0.000 OA
ATOM     25  C   UNL     1      43.391  73.844  32.968  0.00  0.00    +0.000 A 
ATOM     26  N   UNL     1      43.399  72.969  31.986  0.00  0.00    +0.000 NA
ATOM     27  N   UNL     1      43.360  75.204  32.575  0.00  0.00    +0.000 N 
ATOM     28  C   UNL     1      44.088  75.686  31.387  0.00  0.00    +0.000 C 
ATOM     29  C   UNL     1      44.351  77.147  31.777  0.00  0.00    +0.000 C 
ATOM     30  C   UNL     1      42.953  77.502  32.286  0.00  0.00    +0.000 C 
ATOM     31  C   UNL     1      42.665  76.334  33.197  0.00  0.00    +0.000 C 
ENDBRANCH   6  22
TORSDOF 2
