
     RDKit          3D

 38 39  0  0  0  0  0  0  0  0999 V2000
   40.4780   33.6170   39.9150 C   0  0  0  0  0  0  0  0  0  0  0  0
   40.3690   32.7890   38.6770 C   0  0  0  0  0  0  0  0  0  0  0  0
   41.0570   32.7240   40.9880 C   0  0  0  0  0  0  0  0  0  0  0  0
   41.4230   34.7700   39.6490 C   0  0  0  0  0  0  0  0  0  0  0  0
   41.7680   35.5090   40.8290 N   0  0  0  0  0  0  0  0  0  0  0  0
   42.8810   35.1900   41.5350 C   0  0  0  0  0  0  0  0  0  0  0  0
   42.9890   36.0140   42.5870 N   0  0  0  0  0  0  0  0  0  0  0  0
   41.9380   36.8640   42.5530 C   0  0  0  0  0  0  0  0  0  0  0  0
   41.2310   36.5280   41.4840 N   0  0  0  0  0  0  0  0  0  0  0  0
   38.8670   34.2010   40.3820 S   0  0  0  0  0  0  0  0  0  0  0  0
   37.5670   32.9540   39.9760 C   0  0  0  0  0  0  0  0  0  0  0  0
   37.6210   31.9920   40.8790 O   0  0  0  0  0  0  0  0  0  0  0  0
   36.9180   30.8190   41.0170 C   0  0  0  0  0  0  0  0  0  0  0  0
   35.7950   30.7550   40.4990 O   0  0  0  0  0  0  0  0  0  0  0  0
   38.8970   29.9390   42.2340 C   0  0  0  0  0  0  0  0  0  0  0  0
   37.5990   29.7350   41.7900 C   0  0  0  0  0  0  0  0  0  0  0  0
   36.8930   28.5840   42.0180 C   0  0  0  0  0  0  0  0  0  0  0  0
   37.5610   27.6440   42.7210 N   0  0  0  0  0  0  0  0  0  0  0  0
   38.8200   27.7940   43.1730 C   0  0  0  0  0  0  0  0  0  0  0  0
   39.4900   28.9720   42.9170 N   0  0  0  0  0  0  0  0  0  0  0  0
   39.5230   26.7320   43.9450 C   0  0  0  0  0  0  0  0  0  0  0  0
   40.2300   31.7333   38.9530 H   0  0  0  0  0  0  0  0  0  0  0  0
   39.5079   33.1291   38.0830 H   0  0  0  0  0  0  0  0  0  0  0  0
   41.2888   32.8947   38.0830 H   0  0  0  0  0  0  0  0  0  0  0  0
   40.7969   33.1252   41.9787 H   0  0  0  0  0  0  0  0  0  0  0  0
   40.6442   31.7098   40.8832 H   0  0  0  0  0  0  0  0  0  0  0  0
   42.1514   32.6870   40.8832 H   0  0  0  0  0  0  0  0  0  0  0  0
   42.3467   34.3686   39.2067 H   0  0  0  0  0  0  0  0  0  0  0  0
   40.9046   35.4644   38.9715 H   0  0  0  0  0  0  0  0  0  0  0  0
   43.5844   34.3824   41.2840 H   0  0  0  0  0  0  0  0  0  0  0  0
   41.7153   37.6703   43.2674 H   0  0  0  0  0  0  0  0  0  0  0  0
   36.5753   33.4295   39.9975 H   0  0  0  0  0  0  0  0  0  0  0  0
   37.7375   32.5412   38.9707 H   0  0  0  0  0  0  0  0  0  0  0  0
   39.4218   30.8825   42.0236 H   0  0  0  0  0  0  0  0  0  0  0  0
   35.8642   28.4368   41.6575 H   0  0  0  0  0  0  0  0  0  0  0  0
   39.3993   26.9188   45.0219 H   0  0  0  0  0  0  0  0  0  0  0  0
   39.0955   25.7506   43.6916 H   0  0  0  0  0  0  0  0  0  0  0  0
   40.5934   26.7422   43.6916 H   0  0  0  0  0  0  0  0  0  0  0  0
  1 10  1  0
  1  3  1  0
  2  1  1  0
  4  1  1  0
  4  5  1  0
  5  9  1  0
  5  6  1  0
  6  7  2  0
  8  7  1  0
  9  8  2  0
 11 10  1  0
 11 12  1  0
 12 13  1  0
 13 16  1  0
 14 13  2  0
 15 20  2  0
 16 17  2  0
 16 15  1  0
 17 18  1  0
 18 19  2  0
 19 21  1  0
 20 19  1  0
  2 22  1  0
  2 23  1  0
  2 24  1  0
  3 25  1  0
  3 26  1  0
  3 27  1  0
  4 28  1  0
  4 29  1  0
  6 30  1  0
  8 31  1  0
 11 32  1  0
 11 33  1  0
 15 34  1  0
 17 35  1  0
 21 36  1  0
 21 37  1  0
 21 38  1  0
M  ISO  8  22   8  23   8  24   8  25   8  26   8  27   8  28   8  29   8
M  ISO  8  30  14  31  14  32   8  33   8  34  14  35  14  36   8  37   8
M  ISO  1  38   8
M  END
>  <minimizedAffinity>  (1) 
-5.05367517

>  <minimizedRMSD>  (1) 
0.291499555

$$$$
