
     RDKit          3D

 30 33  0  0  0  0  0  0  0  0999 V2000
   38.9980   28.1030   41.1480 C   0  0  0  0  0  0  0  0  0  0  0  0
   39.9390   29.0000   40.6380 C   0  0  0  0  0  0  0  0  0  0  0  0
   39.2760   30.0090   40.0890 N   0  0  0  0  0  0  0  0  0  0  0  0
   37.9320   29.8290   40.2100 C   0  0  0  0  0  0  0  0  0  0  0  0
   36.8830   30.6340   39.7800 C   0  0  0  0  0  0  0  0  0  0  0  0
   35.5950   30.1920   40.0450 C   0  0  0  0  0  0  0  0  0  0  0  0
   35.3840   29.0040   40.7060 C   0  0  0  0  0  0  0  0  0  0  0  0
   36.4320   28.2110   41.1280 C   0  0  0  0  0  0  0  0  0  0  0  0
   37.7340   28.6240   40.8790 C   0  0  0  0  0  0  0  0  0  0  0  0
   39.2480   24.5060   41.7860 C   0  0  0  0  0  0  0  0  0  0  0  0
   39.7510   24.4640   43.1240 C   0  0  0  0  0  0  0  0  0  0  0  0
   39.9950   25.6890   43.7810 C   0  0  0  0  0  0  0  0  0  0  0  0
   39.7350   26.8190   43.0980 N   0  0  0  0  0  0  0  0  0  0  0  0
   39.2630   26.8410   41.8420 C   0  0  0  0  0  0  0  0  0  0  0  0
   39.0210   25.6910   41.1900 N   0  0  0  0  0  0  0  0  0  0  0  0
   39.8670   31.1450   39.4510 C   0  0  0  0  0  0  0  0  0  0  0  0
   40.3820   32.2390   40.2130 C   0  0  0  0  0  0  0  0  0  0  0  0
   41.0020   33.3790   38.8950 S   0  0  0  0  0  0  0  0  0  0  0  0
   40.4470   32.1610   37.5510 C   0  0  0  0  0  0  0  0  0  0  0  0
   39.9860   31.2820   38.1290 N   0  0  0  0  0  0  0  0  0  0  0  0
   41.0325   28.8897   40.6834 H   0  0  0  0  0  0  0  0  0  0  0  0
   37.0667   31.5813   39.2520 H   0  0  0  0  0  0  0  0  0  0  0  0
   34.7344   30.7970   39.7236 H   0  0  0  0  0  0  0  0  0  0  0  0
   34.3524   28.6773   40.9035 H   0  0  0  0  0  0  0  0  0  0  0  0
   36.2383   27.2647   41.6544 H   0  0  0  0  0  0  0  0  0  0  0  0
   39.0467   23.5701   41.2442 H   0  0  0  0  0  0  0  0  0  0  0  0
   39.9422   23.5045   43.6267 H   0  0  0  0  0  0  0  0  0  0  0  0
   40.3822   25.7189   44.8102 H   0  0  0  0  0  0  0  0  0  0  0  0
   40.4040   32.3697   41.3050 H   0  0  0  0  0  0  0  0  0  0  0  0
   40.5448   32.2718   36.4610 H   0  0  0  0  0  0  0  0  0  0  0  0
  1 14  1  0
  2  1  2  0
  3  4  1  0
  3  2  1  0
  4  9  2  0
  5  6  2  0
  5  4  1  0
  6  7  1  0
  7  8  2  0
  9  8  1  0
  9  1  1  0
 10 11  2  0
 11 12  1  0
 13 12  2  0
 14 13  1  0
 15 10  1  0
 15 14  2  0
 16  3  1  0
 16 17  2  0
 18 17  1  0
 19 20  2  0
 19 18  1  0
 20 16  1  0
  2 21  1  0
  5 22  1  0
  6 23  1  0
  7 24  1  0
  8 25  1  0
 10 26  1  0
 11 27  1  0
 12 28  1  0
 17 29  1  0
 19 30  1  0
M  ISO  8  21  14  22  14  23  14  24  14  25  14  26  14  27  14  28  14
M  ISO  2  29  14  30  14
M  END
>  <minimizedAffinity>  (1) 
-4.82229042

>  <minimizedRMSD>  (1) 
4.76198006

$$$$
