
     RDKit          3D

 18 19  0  0  0  0  0  0  0  0999 V2000
   38.8020   28.5460   43.1700 C   0  0  0  0  0  0  0  0  0  0  0  0
   38.2010   27.2730   43.2620 C   0  0  0  0  0  0  0  0  0  0  0  0
   36.9310   27.1110   42.6800 C   0  0  0  0  0  0  0  0  0  0  0  0
   36.3720   28.1890   42.0710 N   0  0  0  0  0  0  0  0  0  0  0  0
   36.9790   29.3750   42.0100 C   0  0  0  0  0  0  0  0  0  0  0  0
   38.1970   29.5670   42.5560 N   0  0  0  0  0  0  0  0  0  0  0  0
   36.1720   30.2800   41.3310 O   0  0  0  0  0  0  0  0  0  0  0  0
   36.6650   31.0520   40.3630 C   0  0  0  0  0  0  0  0  0  0  0  0
   37.1780   32.3060   40.2440 C   0  0  0  0  0  0  0  0  0  0  0  0
   37.6130   32.8280   39.0810 C   0  0  0  0  0  0  0  0  0  0  0  0
   37.4820   31.8990   37.9220 C   0  0  0  0  0  0  0  0  0  0  0  0
   36.7530   30.4040   38.6550 S   0  0  0  0  0  0  0  0  0  0  0  0
   39.7954   28.7023   43.6157 H   0  0  0  0  0  0  0  0  0  0  0  0
   38.7067   26.4385   43.7698 H   0  0  0  0  0  0  0  0  0  0  0  0
   36.4079   26.1440   42.7167 H   0  0  0  0  0  0  0  0  0  0  0  0
   37.2412   32.9289   41.1484 H   0  0  0  0  0  0  0  0  0  0  0  0
   38.0260   33.8439   38.9944 H   0  0  0  0  0  0  0  0  0  0  0  0
   37.7604   32.0763   36.8727 H   0  0  0  0  0  0  0  0  0  0  0  0
  1  2  2  0
  3  2  1  0
  4  3  2  0
  5  4  1  0
  5  6  2  0
  6  1  1  0
  7  5  1  0
  8  7  1  0
  9  8  2  0
 10  9  1  0
 11 12  1  0
 11 10  2  0
 12  8  1  0
  1 13  1  0
  2 14  1  0
  3 15  1  0
  9 16  1  0
 10 17  1  0
 11 18  1  0
M  ISO  6  13  14  14  14  15  14  16  14  17  14  18  14
M  END
>  <minimizedAffinity>  (1) 
-3.82669759

>  <minimizedRMSD>  (1) 
1.26041675

$$$$
