
     RDKit          3D

 31 33  0  0  0  0  0  0  0  0999 V2000
   39.5580   27.5960   43.5190 C   0  0  0  0  0  0  0  0  0  0  0  0
   38.9670   26.3200   43.3740 C   0  0  0  0  0  0  0  0  0  0  0  0
   38.0680   26.1430   42.3180 C   0  0  0  0  0  0  0  0  0  0  0  0
   37.8110   27.1840   41.4990 N   0  0  0  0  0  0  0  0  0  0  0  0
   38.3910   28.3920   41.6610 C   0  0  0  0  0  0  0  0  0  0  0  0
   39.2620   28.6010   42.6670 N   0  0  0  0  0  0  0  0  0  0  0  0
   37.4020   24.9260   42.0510 N   0  0  0  0  0  0  0  0  0  0  0  0
   38.1300   29.4950   40.8070 N   0  0  0  0  0  0  0  0  0  0  0  0
   37.3170   29.2870   39.7610 C   0  0  0  0  0  0  0  0  0  0  0  0
   36.9390   30.2140   38.8220 C   0  0  0  0  0  0  0  0  0  0  0  0
   37.4710   31.4920   38.9990 C   0  0  0  0  0  0  0  0  0  0  0  0
   37.1830   32.4070   38.1890 O   0  0  0  0  0  0  0  0  0  0  0  0
   38.2830   31.6840   40.0480 N   0  0  0  0  0  0  0  0  0  0  0  0
   38.6200   30.7420   40.9380 C   0  0  0  0  0  0  0  0  0  0  0  0
   39.3770   30.9480   41.9050 O   0  0  0  0  0  0  0  0  0  0  0  0
   38.7850   33.0070   40.1800 C   0  0  0  0  0  0  0  0  0  0  0  0
   40.0070   32.9810   39.5260 C   0  0  0  0  0  0  0  0  0  0  0  0
   40.7490   34.7150   39.6530 S   0  0  0  0  0  0  0  0  0  0  0  0
   39.1810   35.1810   40.6240 C   0  0  0  0  0  0  0  0  0  0  0  0
   38.6230   34.2150   40.6290 N   0  0  0  0  0  0  0  0  0  0  0  0
   36.0270   29.8770   37.6960 C   0  0  0  0  0  0  0  0  0  0  0  0
   40.2700   27.7730   44.3386 H   0  0  0  0  0  0  0  0  0  0  0  0
   39.2052   25.4982   44.0653 H   0  0  0  0  0  0  0  0  0  0  0  0
   36.7502   24.8592   41.2562 H   0  0  0  0  0  0  0  0  0  0  0  0
   37.5682   24.1055   42.6511 H   0  0  0  0  0  0  0  0  0  0  0  0
   36.9122   28.2709   39.6437 H   0  0  0  0  0  0  0  0  0  0  0  0
   40.4607   32.1126   39.0260 H   0  0  0  0  0  0  0  0  0  0  0  0
   38.8987   36.1485   41.0647 H   0  0  0  0  0  0  0  0  0  0  0  0
   35.0659   29.5219   38.0963 H   0  0  0  0  0  0  0  0  0  0  0  0
   35.8591   30.7724   37.0796 H   0  0  0  0  0  0  0  0  0  0  0  0
   36.4817   29.0875   37.0796 H   0  0  0  0  0  0  0  0  0  0  0  0
  2  1  2  0
  3  2  1  0
  4  5  1  0
  4  3  2  0
  5  6  2  0
  6  1  1  0
  7  3  1  0
  8 14  1  0
  8  5  1  0
  9  8  1  0
 10 11  1  0
 10  9  2  0
 11 13  1  0
 12 11  2  0
 13 16  1  0
 13 14  1  0
 14 15  2  0
 16 20  1  0
 17 18  1  0
 17 16  2  0
 18 19  1  0
 19 20  2  0
 21 10  1  0
  1 22  1  0
  2 23  1  0
  7 24  1  0
  7 25  1  0
  9 26  1  0
 17 27  1  0
 19 28  1  0
 21 29  1  0
 21 30  1  0
 21 31  1  0
M  ISO  8  22  14  23  14  26  14  27  14  28  14  29   8  30   8  31   8
M  END
>  <minimizedAffinity>  (1) 
-5.61258364

>  <minimizedRMSD>  (1) 
1.80276287

$$$$
