
     RDKit          3D

 37 39  0  0  1  0  0  0  0  0999 V2000
   39.0140   27.1690   42.8950 C   0  0  2  0  0  0  0  0  0  0  0  0
   40.2030   27.2760   43.7220 C   0  0  0  0  0  0  0  0  0  0  0  0
   40.7410   25.8520   43.8330 C   0  0  0  0  0  0  0  0  0  0  0  0
   40.0160   25.0460   42.7910 C   0  0  0  0  0  0  0  0  0  0  0  0
   39.3330   26.0570   41.8900 C   0  0  1  0  0  0  0  0  0  0  0  0
   39.3470   29.1240   41.3140 C   0  0  0  0  0  0  0  0  0  0  0  0
   38.5390   28.3790   42.2330 C   0  0  0  0  0  0  0  0  0  0  0  0
   37.2530   28.7930   42.5130 C   0  0  0  0  0  0  0  0  0  0  0  0
   36.8000   29.9290   41.8800 N   0  0  0  0  0  0  0  0  0  0  0  0
   37.5970   30.6370   40.9910 C   0  0  0  0  0  0  0  0  0  0  0  0
   38.8650   30.2190   40.7230 N   0  0  0  0  0  0  0  0  0  0  0  0
   37.0860   31.8580   40.3200 C   0  0  0  0  0  0  0  0  0  0  0  0
   37.1620   31.7760   38.8340 C   0  0  0  0  0  0  0  0  0  0  0  0
   38.1270   25.3020   41.4390 C   0  0  0  0  0  0  0  0  0  0  0  0
   37.2770   24.7110   42.3150 N   0  0  0  0  0  0  0  0  0  0  0  0
   36.3280   24.1360   41.6110 O   0  0  0  0  0  0  0  0  0  0  0  0
   36.5640   24.3520   40.3400 C   0  0  0  0  0  0  0  0  0  0  0  0
   37.6800   25.0760   40.1910 N   0  0  0  0  0  0  0  0  0  0  0  0
   35.6520   23.8190   39.2740 C   0  0  0  0  0  0  0  0  0  0  0  0
   34.5610   23.2240   39.8680 F   0  0  0  0  0  0  0  0  0  0  0  0
   35.2300   24.8490   38.4420 F   0  0  0  0  0  0  0  0  0  0  0  0
   36.3140   22.8690   38.5080 F   0  0  0  0  0  0  0  0  0  0  0  0
   38.1596   26.9527   43.5532 H   0  0  0  0  0  0  0  0  0  0  0  0
   40.9459   27.9333   43.2466 H   0  0  0  0  0  0  0  0  0  0  0  0
   39.9810   27.7102   44.7080 H   0  0  0  0  0  0  0  0  0  0  0  0
   41.8239   25.8377   43.6406 H   0  0  0  0  0  0  0  0  0  0  0  0
   40.5805   25.4408   44.8405 H   0  0  0  0  0  0  0  0  0  0  0  0
   40.7275   24.4372   42.2138 H   0  0  0  0  0  0  0  0  0  0  0  0
   39.2921   24.3535   43.2453 H   0  0  0  0  0  0  0  0  0  0  0  0
   39.8557   26.4697   41.0145 H   0  0  0  0  0  0  0  0  0  0  0  0
   40.3720   28.7910   41.0940 H   0  0  0  0  0  0  0  0  0  0  0  0
   36.6141   28.2370   43.2149 H   0  0  0  0  0  0  0  0  0  0  0  0
   36.0352   32.0048   40.6104 H   0  0  0  0  0  0  0  0  0  0  0  0
   37.7191   32.6996   40.6377 H   0  0  0  0  0  0  0  0  0  0  0  0
   37.8837   30.9973   38.5462 H   0  0  0  0  0  0  0  0  0  0  0  0
   36.1705   31.5245   38.4295 H   0  0  0  0  0  0  0  0  0  0  0  0
   37.4879   32.7456   38.4295 H   0  0  0  0  0  0  0  0  0  0  0  0
  1  2  1  0
  2  3  1  0
  4  3  1  0
  5  4  1  0
  5  1  1  0
  6  7  2  0
  7  8  1  0
  7  1  1  0
  9  8  2  0
 10  9  1  0
 11 10  2  0
 11  6  1  0
 12 10  1  0
 13 12  1  0
 14  5  1  0
 14 15  2  0
 16 15  1  0
 17 16  1  0
 18 17  2  0
 18 14  1  0
 19 20  1  0
 19 17  1  0
 21 19  1  0
 22 19  1  0
  1 23  1  1
  2 24  1  0
  2 25  1  0
  3 26  1  0
  3 27  1  0
  4 28  1  0
  4 29  1  0
  5 30  1  6
  6 31  1  0
  8 32  1  0
 12 33  1  0
 12 34  1  0
 13 35  1  0
 13 36  1  0
 13 37  1  0
M  ISO  8  23  13  24  13  25  13  26  13  27  13  28  13  29  13  30  13
M  ISO  7  31  14  32  14  33   8  34   8  35   8  36   8  37   8
M  END
>  <minimizedAffinity>  (1) 
-5.10244131

>  <minimizedRMSD>  (1) 
1.1901021

$$$$
