
     RDKit          3D

 31 34  0  0  0  0  0  0  0  0999 V2000
   39.1170   31.4180   41.1900 C   0  0  0  0  0  0  0  0  0  0  0  0
   39.9020   30.5220   41.9370 C   0  0  0  0  0  0  0  0  0  0  0  0
   39.1650   29.4280   42.1380 N   0  0  0  0  0  0  0  0  0  0  0  0
   37.9380   29.5490   41.5700 C   0  0  0  0  0  0  0  0  0  0  0  0
   36.8930   28.6460   41.5560 C   0  0  0  0  0  0  0  0  0  0  0  0
   35.7370   29.0310   40.8930 C   0  0  0  0  0  0  0  0  0  0  0  0
   35.6640   30.2620   40.2870 C   0  0  0  0  0  0  0  0  0  0  0  0
   36.7100   31.1680   40.3010 C   0  0  0  0  0  0  0  0  0  0  0  0
   37.8750   30.8000   40.9590 C   0  0  0  0  0  0  0  0  0  0  0  0
   38.9940   35.0280   40.6400 C   0  0  0  0  0  0  0  0  0  0  0  0
   40.1770   35.2680   39.8680 C   0  0  0  0  0  0  0  0  0  0  0  0
   40.9930   34.1590   39.5560 C   0  0  0  0  0  0  0  0  0  0  0  0
   40.6030   32.9520   40.0050 N   0  0  0  0  0  0  0  0  0  0  0  0
   39.4940   32.7470   40.7270 C   0  0  0  0  0  0  0  0  0  0  0  0
   38.6920   33.7840   41.0420 N   0  0  0  0  0  0  0  0  0  0  0  0
   39.7410   28.3410   42.8870 C   0  0  0  0  0  0  0  0  0  0  0  0
   41.0090   27.9120   43.1980 C   0  0  0  0  0  0  0  0  0  0  0  0
   40.8890   26.7840   43.9640 C   0  0  0  0  0  0  0  0  0  0  0  0
   39.5460   26.5520   44.1030 C   0  0  0  0  0  0  0  0  0  0  0  0
   38.9050   27.4860   43.4570 O   0  0  0  0  0  0  0  0  0  0  0  0
   40.9302   30.6911   42.2894 H   0  0  0  0  0  0  0  0  0  0  0  0
   36.9738   27.6657   42.0484 H   0  0  0  0  0  0  0  0  0  0  0  0
   34.8755   28.3482   40.8522 H   0  0  0  0  0  0  0  0  0  0  0  0
   34.7343   30.5392   39.7685 H   0  0  0  0  0  0  0  0  0  0  0  0
   36.6209   32.1469   39.8072 H   0  0  0  0  0  0  0  0  0  0  0  0
   38.3317   35.8657   40.9038 H   0  0  0  0  0  0  0  0  0  0  0  0
   40.4403   36.2812   39.5302 H   0  0  0  0  0  0  0  0  0  0  0  0
   41.9145   34.2774   38.9670 H   0  0  0  0  0  0  0  0  0  0  0  0
   41.9503   28.3890   42.8875 H   0  0  0  0  0  0  0  0  0  0  0  0
   41.7086   26.1829   44.3847 H   0  0  0  0  0  0  0  0  0  0  0  0
   39.0882   25.7226   44.6620 H   0  0  0  0  0  0  0  0  0  0  0  0
  1  2  2  0
  2  3  1  0
  3 16  1  0
  4  3  1  0
  5  4  2  0
  6  5  1  0
  7  8  1  0
  7  6  2  0
  8  9  2  0
  9  1  1  0
  9  4  1  0
 10 15  2  0
 11 10  1  0
 12 11  2  0
 12 13  1  0
 13 14  2  0
 14 15  1  0
 14  1  1  0
 16 17  2  0
 16 20  1  0
 17 18  1  0
 18 19  2  0
 20 19  1  0
  2 21  1  0
  5 22  1  0
  6 23  1  0
  7 24  1  0
  8 25  1  0
 10 26  1  0
 11 27  1  0
 12 28  1  0
 17 29  1  0
 18 30  1  0
 19 31  1  0
M  ISO  8  21  14  22  14  23  14  24  14  25  14  26  14  27  14  28  14
M  ISO  3  29  14  30  14  31  14
M  END
>  <minimizedAffinity>  (1) 
-5.80912685

>  <minimizedRMSD>  (1) 
6.09726524

$$$$
