
     RDKit          3D

 30 32  0  0  0  0  0  0  0  0999 V2000
   37.7490   28.9560   41.9440 C   0  0  0  0  0  0  0  0  0  0  0  0
   36.6970   28.1540   42.3670 C   0  0  0  0  0  0  0  0  0  0  0  0
   37.1940   27.1880   43.1720 N   0  0  0  0  0  0  0  0  0  0  0  0
   38.5330   27.3290   43.2930 C   0  0  0  0  0  0  0  0  0  0  0  0
   39.5040   26.6200   43.9880 C   0  0  0  0  0  0  0  0  0  0  0  0
   40.8520   27.0100   43.9240 C   0  0  0  0  0  0  0  0  0  0  0  0
   41.1530   28.1080   43.1550 C   0  0  0  0  0  0  0  0  0  0  0  0
   40.1880   28.7970   42.4770 C   0  0  0  0  0  0  0  0  0  0  0  0
   38.8730   28.4300   42.5280 C   0  0  0  0  0  0  0  0  0  0  0  0
   36.8200   31.1110   39.0310 C   0  0  0  0  0  0  0  0  0  0  0  0
   36.9170   30.0100   39.9070 C   0  0  0  0  0  0  0  0  0  0  0  0
   37.6710   30.0960   41.0750 C   0  0  0  0  0  0  0  0  0  0  0  0
   38.2860   31.2870   41.2950 N   0  0  0  0  0  0  0  0  0  0  0  0
   38.2040   32.3430   40.4730 C   0  0  0  0  0  0  0  0  0  0  0  0
   37.4690   32.2580   39.3350 N   0  0  0  0  0  0  0  0  0  0  0  0
   38.9610   33.5440   40.9170 C   0  0  0  0  0  0  0  0  0  0  0  0
   38.5450   34.7700   40.1490 C   0  0  0  0  0  0  0  0  0  0  0  0
   35.6393   28.2828   42.0936 H   0  0  0  0  0  0  0  0  0  0  0  0
   36.6343   26.4524   43.6265 H   0  0  0  0  0  0  0  0  0  0  0  0
   39.2157   25.7474   44.5925 H   0  0  0  0  0  0  0  0  0  0  0  0
   41.6341   26.4592   44.4670 H   0  0  0  0  0  0  0  0  0  0  0  0
   42.1989   28.4411   43.0834 H   0  0  0  0  0  0  0  0  0  0  0  0
   40.4772   29.6704   41.8740 H   0  0  0  0  0  0  0  0  0  0  0  0
   36.2228   31.0376   38.1102 H   0  0  0  0  0  0  0  0  0  0  0  0
   36.3920   29.0740   39.6655 H   0  0  0  0  0  0  0  0  0  0  0  0
   38.7716   33.7109   41.9876 H   0  0  0  0  0  0  0  0  0  0  0  0
   40.0309   33.3666   40.7330 H   0  0  0  0  0  0  0  0  0  0  0  0
   38.2737   35.5697   40.8539 H   0  0  0  0  0  0  0  0  0  0  0  0
   39.3792   35.1067   39.5159 H   0  0  0  0  0  0  0  0  0  0  0  0
   37.6782   34.5295   39.5159 H   0  0  0  0  0  0  0  0  0  0  0  0
  1  2  2  0
  1  9  1  0
  2  3  1  0
  3  4  1  0
  4  5  2  0
  6  5  1  0
  7  6  2  0
  8  9  2  0
  8  7  1  0
  9  4  1  0
 10 15  2  0
 10 11  1  0
 11 12  2  0
 12 13  1  0
 12  1  1  0
 14 16  1  0
 14 13  2  0
 15 14  1  0
 17 16  1  0
  2 18  1  0
  3 19  1  0
  5 20  1  0
  6 21  1  0
  7 22  1  0
  8 23  1  0
 10 24  1  0
 11 25  1  0
 16 26  1  0
 16 27  1  0
 17 28  1  0
 17 29  1  0
 17 30  1  0
M  ISO  8  18  14  19   9  20  14  21  14  22  14  23  14  24  14  25  14
M  ISO  5  26   8  27   8  28   8  29   8  30   8
M  END
>  <minimizedAffinity>  (1) 
-5.03217697

>  <minimizedRMSD>  (1) 
2.90048647

$$$$
