
     RDKit          3D

 33 35  0  0  1  0  0  0  0  0999 V2000
   38.2270   30.4610   39.5160 N   0  0  0  0  0  0  0  0  0  0  0  0
   38.6170   29.8360   38.2090 C   0  0  0  0  0  0  0  0  0  0  0  0
   40.0790   29.5550   38.1350 C   0  0  0  0  0  0  0  0  0  0  0  0
   40.8240   30.5990   38.7120 O   0  0  0  0  0  0  0  0  0  0  0  0
   40.0290   31.7140   38.5670 C   0  0  0  0  0  0  0  0  0  0  0  0
   38.8590   31.6910   39.5880 C   0  0  2  0  0  0  0  0  0  0  0  0
   36.1110   29.4010   40.5700 C   0  0  1  0  0  0  0  0  0  0  0  0
   36.0180   30.8660   40.7410 C   0  0  0  0  0  0  0  0  0  0  0  0
   36.8190   30.3830   39.6130 C   0  0  1  0  0  0  0  0  0  0  0  0
   38.0750   28.6910   43.5890 C   0  0  0  0  0  0  0  0  0  0  0  0
   38.5240   27.3720   43.3750 C   0  0  0  0  0  0  0  0  0  0  0  0
   38.1450   26.7420   42.1730 C   0  0  0  0  0  0  0  0  0  0  0  0
   37.3650   27.4430   41.2840 N   0  0  0  0  0  0  0  0  0  0  0  0
   36.9660   28.6930   41.5350 C   0  0  0  0  0  0  0  0  0  0  0  0
   37.3230   29.2780   42.6630 N   0  0  0  0  0  0  0  0  0  0  0  0
   39.5390   32.2470   40.7740 C   0  0  0  0  0  0  0  0  0  0  0  0
   40.6030   33.0480   40.4750 F   0  0  0  0  0  0  0  0  0  0  0  0
   39.6420   31.4550   41.8850 F   0  0  0  0  0  0  0  0  0  0  0  0
   38.6760   33.2540   41.3710 F   0  0  0  0  0  0  0  0  0  0  0  0
   38.0678   28.8903   38.0904 H   0  0  0  0  0  0  0  0  0  0  0  0
   38.3679   30.5461   37.4067 H   0  0  0  0  0  0  0  0  0  0  0  0
   40.2931   28.6202   38.6738 H   0  0  0  0  0  0  0  0  0  0  0  0
   40.3648   29.4647   37.0766 H   0  0  0  0  0  0  0  0  0  0  0  0
   40.6370   32.6152   38.7349 H   0  0  0  0  0  0  0  0  0  0  0  0
   39.6104   31.7198   37.5498 H   0  0  0  0  0  0  0  0  0  0  0  0
   37.9440   32.2908   39.4743 H   0  0  0  0  0  0  0  0  0  0  0  0
   35.4010   28.5681   40.4598 H   0  0  0  0  0  0  0  0  0  0  0  0
   35.0615   31.3735   40.5470 H   0  0  0  0  0  0  0  0  0  0  0  0
   36.2236   31.5459   41.5809 H   0  0  0  0  0  0  0  0  0  0  0  0
   36.8266   30.5887   38.5324 H   0  0  0  0  0  0  0  0  0  0  0  0
   38.3435   29.2279   44.5107 H   0  0  0  0  0  0  0  0  0  0  0  0
   39.1471   26.8538   44.1188 H   0  0  0  0  0  0  0  0  0  0  0  0
   38.4657   25.7134   41.9511 H   0  0  0  0  0  0  0  0  0  0  0  0
  1  2  1  0
  1  6  1  0
  1  9  1  0
  3  2  1  0
  3  4  1  0
  5  4  1  0
  5  6  1  0
  6 16  1  0
  7  8  1  0
  7 14  1  0
  9  7  1  0
  9  8  1  0
 11 10  2  0
 12 11  1  0
 13 14  1  0
 13 12  2  0
 14 15  2  0
 15 10  1  0
 16 19  1  0
 16 18  1  0
 17 16  1  0
  2 20  1  0
  2 21  1  0
  3 22  1  0
  3 23  1  0
  5 24  1  0
  5 25  1  0
  6 26  1  6
  7 27  1  6
  8 28  1  0
  8 29  1  0
  9 30  1  6
 10 31  1  0
 11 32  1  0
 12 33  1  0
M  ISO  8  20  13  21  13  22  13  23  13  24  13  25  13  26  13  27  13
M  ISO  6  28  13  29  13  30  13  31  14  32  14  33  14
M  END
>  <minimizedAffinity>  (1) 
-4.41054153

>  <minimizedRMSD>  (1) 
1.88430274

$$$$
