
     RDKit          3D

 31 32  0  0  0  0  0  0  0  0999 V2000
   38.4930   25.7030   41.5060 N   0  0  0  0  0  0  0  0  0  0  0  0
   38.2690   24.4710   42.2410 C   0  0  0  0  0  0  0  0  0  0  0  0
   39.5190   24.3080   43.0850 C   0  0  0  0  0  0  0  0  0  0  0  0
   40.4960   25.3320   42.5590 C   0  0  0  0  0  0  0  0  0  0  0  0
   39.8830   25.6560   41.2210 C   0  0  0  0  0  0  0  0  0  0  0  0
   37.2360   27.7940   41.9430 C   0  0  0  0  0  0  0  0  0  0  0  0
   37.5660   26.6850   41.1570 C   0  0  0  0  0  0  0  0  0  0  0  0
   36.9100   26.5460   39.9090 C   0  0  0  0  0  0  0  0  0  0  0  0
   35.9990   27.4710   39.5200 N   0  0  0  0  0  0  0  0  0  0  0  0
   35.7090   28.5340   40.3170 C   0  0  0  0  0  0  0  0  0  0  0  0
   36.3230   28.6800   41.5010 N   0  0  0  0  0  0  0  0  0  0  0  0
   37.8520   28.0160   43.2450 C   0  0  0  0  0  0  0  0  0  0  0  0
   36.8370   28.0340   44.3800 C   0  0  0  0  0  0  0  0  0  0  0  0
   38.4910   29.4150   43.2450 C   0  0  0  0  0  0  0  0  0  0  0  0
   37.3762   24.5538   42.8782 H   0  0  0  0  0  0  0  0  0  0  0  0
   38.0935   23.6110   41.5779 H   0  0  0  0  0  0  0  0  0  0  0  0
   39.2950   24.4990   44.1449 H   0  0  0  0  0  0  0  0  0  0  0  0
   39.9239   23.2872   43.0224 H   0  0  0  0  0  0  0  0  0  0  0  0
   40.5399   26.2188   43.2083 H   0  0  0  0  0  0  0  0  0  0  0  0
   41.5368   24.9799   42.5069 H   0  0  0  0  0  0  0  0  0  0  0  0
   40.1084   24.8719   40.4832 H   0  0  0  0  0  0  0  0  0  0  0  0
   40.2665   26.5901   40.7847 H   0  0  0  0  0  0  0  0  0  0  0  0
   37.1394   25.6898   39.2576 H   0  0  0  0  0  0  0  0  0  0  0  0
   34.9676   29.2776   39.9895 H   0  0  0  0  0  0  0  0  0  0  0  0
   38.5694   27.1971   43.4026 H   0  0  0  0  0  0  0  0  0  0  0  0
   37.3655   28.0246   45.3447 H   0  0  0  0  0  0  0  0  0  0  0  0
   36.2221   28.9432   44.3076 H   0  0  0  0  0  0  0  0  0  0  0  0
   36.1902   27.1472   44.3076 H   0  0  0  0  0  0  0  0  0  0  0  0
   38.6433   29.7485   44.2821 H   0  0  0  0  0  0  0  0  0  0  0  0
   39.4603   29.3754   42.7265 H   0  0  0  0  0  0  0  0  0  0  0  0
   37.8264   30.1217   42.7265 H   0  0  0  0  0  0  0  0  0  0  0  0
  1  2  1  0
  2  3  1  0
  4  3  1  0
  5  1  1  0
  5  4  1  0
  6 12  1  0
  7  1  1  0
  7  6  2  0
  8  7  1  0
  9  8  2  0
  9 10  1  0
 10 11  2  0
 11  6  1  0
 12 14  1  0
 12 13  1  0
  2 15  1  0
  2 16  1  0
  3 17  1  0
  3 18  1  0
  4 19  1  0
  4 20  1  0
  5 21  1  0
  5 22  1  0
  8 23  1  0
 10 24  1  0
 12 25  1  0
 13 26  1  0
 13 27  1  0
 13 28  1  0
 14 29  1  0
 14 30  1  0
 14 31  1  0
M  ISO  8  15  13  16  13  17  13  18  13  19  13  20  13  21  13  22  13
M  ISO  8  23  14  24  14  25   8  26   8  27   8  28   8  29   8  30   8
M  ISO  1  31   8
M  END
>  <minimizedAffinity>  (1) 
-4.13553524

>  <minimizedRMSD>  (1) 
2.19830608

$$$$
