
     RDKit          3D

 25 26  0  0  0  0  0  0  0  0999 V2000
   38.5470   28.7830   43.1350 C   0  0  0  0  0  0  0  0  0  0  0  0
   37.6220   27.7300   42.9830 C   0  0  0  0  0  0  0  0  0  0  0  0
   36.5430   27.9550   42.1080 C   0  0  0  0  0  0  0  0  0  0  0  0
   36.4650   29.1550   41.4770 N   0  0  0  0  0  0  0  0  0  0  0  0
   37.3710   30.1210   41.6580 C   0  0  0  0  0  0  0  0  0  0  0  0
   38.4200   29.9410   42.4900 N   0  0  0  0  0  0  0  0  0  0  0  0
   37.0530   31.2270   40.9020 O   0  0  0  0  0  0  0  0  0  0  0  0
   38.0710   31.9920   40.3380 C   0  0  0  0  0  0  0  0  0  0  0  0
   38.8400   31.7620   39.2310 N   0  0  0  0  0  0  0  0  0  0  0  0
   39.6740   32.7720   39.0930 O   0  0  0  0  0  0  0  0  0  0  0  0
   39.4420   33.6100   40.0740 C   0  0  0  0  0  0  0  0  0  0  0  0
   38.4610   33.1710   40.8680 N   0  0  0  0  0  0  0  0  0  0  0  0
   40.1990   34.8800   40.2440 C   0  0  0  0  0  0  0  0  0  0  0  0
   39.2690   36.0400   40.0480 C   0  0  0  0  0  0  0  0  0  0  0  0
   41.3200   35.0180   39.2160 C   0  0  0  0  0  0  0  0  0  0  0  0
   39.4040   28.6431   43.8103 H   0  0  0  0  0  0  0  0  0  0  0  0
   37.7381   26.7784   43.5224 H   0  0  0  0  0  0  0  0  0  0  0  0
   35.7822   27.1786   41.9395 H   0  0  0  0  0  0  0  0  0  0  0  0
   40.6335   34.8684   41.2545 H   0  0  0  0  0  0  0  0  0  0  0  0
   38.9568   36.4294   41.0283 H   0  0  0  0  0  0  0  0  0  0  0  0
   39.7847   36.8326   39.4860 H   0  0  0  0  0  0  0  0  0  0  0  0
   38.3833   35.7089   39.4860 H   0  0  0  0  0  0  0  0  0  0  0  0
   42.2820   35.1364   39.7362 H   0  0  0  0  0  0  0  0  0  0  0  0
   41.3525   34.1171   38.5857 H   0  0  0  0  0  0  0  0  0  0  0  0
   41.1330   35.8999   38.5857 H   0  0  0  0  0  0  0  0  0  0  0  0
  2  1  2  0
  3  2  1  0
  4  5  1  0
  4  3  2  0
  5  6  2  0
  6  1  1  0
  7  5  1  0
  8 12  1  0
  8  7  1  0
  9  8  2  0
 10  9  1  0
 10 11  1  0
 11 13  1  0
 11 12  2  0
 14 13  1  0
 15 13  1  0
  1 16  1  0
  2 17  1  0
  3 18  1  0
 13 19  1  0
 14 20  1  0
 14 21  1  0
 14 22  1  0
 15 23  1  0
 15 24  1  0
 15 25  1  0
M  ISO  8  16  14  17  14  18  14  19   8  20   8  21   8  22   8  23   8
M  ISO  2  24   8  25   8
M  END
>  <minimizedAffinity>  (1) 
-4.39197969

>  <minimizedRMSD>  (1) 
1.97606921

$$$$
