
     RDKit          3D

 36 38  0  0  0  0  0  0  0  0999 V2000
   38.0760   27.3150   42.9900 C   0  0  0  0  0  0  0  0  0  0  0  0
   39.0570   26.4940   43.3920 C   0  0  0  0  0  0  0  0  0  0  0  0
   39.3360   25.3350   42.7640 C   0  0  0  0  0  0  0  0  0  0  0  0
   38.4670   25.1010   41.6340 C   0  0  0  0  0  0  0  0  0  0  0  0
   37.3940   26.4680   41.5720 S   0  0  0  0  0  0  0  0  0  0  0  0
   38.4990   23.9500   40.7450 C   0  0  0  0  0  0  0  0  0  0  0  0
   39.3180   23.8060   39.6840 C   0  0  0  0  0  0  0  0  0  0  0  0
   38.9700   22.5580   39.1660 C   0  0  0  0  0  0  0  0  0  0  0  0
   37.9740   22.0040   39.9190 N   0  0  0  0  0  0  0  0  0  0  0  0
   37.6960   22.8760   40.8880 N   0  0  0  0  0  0  0  0  0  0  0  0
   37.5270   28.6070   43.4360 C   0  0  0  0  0  0  0  0  0  0  0  0
   39.7960   31.2440   41.9070 C   0  0  0  0  0  0  0  0  0  0  0  0
   39.3330   30.1970   42.7400 C   0  0  0  0  0  0  0  0  0  0  0  0
   38.0550   29.7030   42.5860 C   0  0  0  0  0  0  0  0  0  0  0  0
   37.2710   30.2600   41.6120 N   0  0  0  0  0  0  0  0  0  0  0  0
   37.7400   31.2700   40.8200 C   0  0  0  0  0  0  0  0  0  0  0  0
   38.9600   31.7360   40.9720 N   0  0  0  0  0  0  0  0  0  0  0  0
   36.8720   31.8690   39.7590 C   0  0  0  0  0  0  0  0  0  0  0  0
   37.3070   33.2830   39.4310 C   0  0  0  0  0  0  0  0  0  0  0  0
   37.0210   31.0620   38.4640 C   0  0  0  0  0  0  0  0  0  0  0  0
   39.6575   26.7778   44.2688 H   0  0  0  0  0  0  0  0  0  0  0  0
   40.1344   24.6457   43.0761 H   0  0  0  0  0  0  0  0  0  0  0  0
   40.0807   24.5070   39.3139 H   0  0  0  0  0  0  0  0  0  0  0  0
   39.4293   22.0900   38.2828 H   0  0  0  0  0  0  0  0  0  0  0  0
   37.5248   21.0896   39.7674 H   0  0  0  0  0  0  0  0  0  0  0  0
   36.4299   28.5827   43.3593 H   0  0  0  0  0  0  0  0  0  0  0  0
   37.8240   28.7846   44.4802 H   0  0  0  0  0  0  0  0  0  0  0  0
   40.8136   31.6460   42.0204 H   0  0  0  0  0  0  0  0  0  0  0  0
   39.9944   29.7767   43.5119 H   0  0  0  0  0  0  0  0  0  0  0  0
   35.8387   31.8622   40.1360 H   0  0  0  0  0  0  0  0  0  0  0  0
   37.4783   33.8397   40.3641 H   0  0  0  0  0  0  0  0  0  0  0  0
   38.2377   33.2538   38.8454 H   0  0  0  0  0  0  0  0  0  0  0  0
   36.5208   33.7820   38.8454 H   0  0  0  0  0  0  0  0  0  0  0  0
   37.2157   30.0075   38.7094 H   0  0  0  0  0  0  0  0  0  0  0  0
   36.0939   31.1366   37.8767 H   0  0  0  0  0  0  0  0  0  0  0  0
   37.8603   31.4628   37.8767 H   0  0  0  0  0  0  0  0  0  0  0  0
  1  2  2  0
  1 11  1  0
  3  2  1  0
  4  3  2  0
  5  4  1  0
  5  1  1  0
  6 10  2  0
  6  4  1  0
  7  6  1  0
  8  7  2  0
  8  9  1  0
  9 10  1  0
 12 13  2  0
 14 13  1  0
 14 11  1  0
 15 14  2  0
 16 17  2  0
 16 15  1  0
 17 12  1  0
 18 16  1  0
 19 18  1  0
 20 18  1  0
  2 21  1  0
  3 22  1  0
  7 23  1  0
  8 24  1  0
  9 25  1  0
 11 26  1  0
 11 27  1  0
 12 28  1  0
 13 29  1  0
 18 30  1  0
 19 31  1  0
 19 32  1  0
 19 33  1  0
 20 34  1  0
 20 35  1  0
 20 36  1  0
M  ISO  8  21  14  22  14  23  14  24  14  25   9  26   8  27   8  28  14
M  ISO  8  29  14  30   8  31   8  32   8  33   8  34   8  35   8  36   8
M  END
>  <minimizedAffinity>  (1) 
-5.09028673

>  <minimizedRMSD>  (1) 
1.87743998

$$$$
