
     RDKit          3D

 35 37  0  0  0  0  0  0  0  0999 V2000
   36.8350   31.2010   40.3570 C   0  0  0  0  0  0  0  0  0  0  0  0
   36.8080   31.3600   38.9950 N   0  0  0  0  0  0  0  0  0  0  0  0
   37.6080   32.3400   38.6790 O   0  0  0  0  0  0  0  0  0  0  0  0
   38.1360   32.8010   39.7890 C   0  0  0  0  0  0  0  0  0  0  0  0
   37.6780   32.1180   40.8460 N   0  0  0  0  0  0  0  0  0  0  0  0
   39.0880   33.9060   39.8410 C   0  0  0  0  0  0  0  0  0  0  0  0
   38.8390   35.1740   40.3450 C   0  0  0  0  0  0  0  0  0  0  0  0
   39.9970   35.9250   40.2110 C   0  0  0  0  0  0  0  0  0  0  0  0
   40.9180   35.0740   39.6250 C   0  0  0  0  0  0  0  0  0  0  0  0
   40.3230   33.9440   39.4470 O   0  0  0  0  0  0  0  0  0  0  0  0
   36.1600   30.2990   41.1720 O   0  0  0  0  0  0  0  0  0  0  0  0
   38.1370   28.2590   43.4310 C   0  0  0  0  0  0  0  0  0  0  0  0
   38.0850   27.0380   42.7340 C   0  0  0  0  0  0  0  0  0  0  0  0
   37.3550   27.0120   41.5110 C   0  0  0  0  0  0  0  0  0  0  0  0
   36.7610   28.1640   41.1030 N   0  0  0  0  0  0  0  0  0  0  0  0
   36.8420   29.2910   41.8000 C   0  0  0  0  0  0  0  0  0  0  0  0
   37.5180   29.3440   42.9480 N   0  0  0  0  0  0  0  0  0  0  0  0
   37.3070   25.7180   40.7850 C   0  0  0  0  0  0  0  0  0  0  0  0
   38.7120   25.3480   40.3560 C   0  0  0  0  0  0  0  0  0  0  0  0
   36.8270   24.6280   41.7160 C   0  0  0  0  0  0  0  0  0  0  0  0
   36.4600   25.7940   39.5320 C   0  0  0  0  0  0  0  0  0  0  0  0
   37.8889   35.5229   40.7758 H   0  0  0  0  0  0  0  0  0  0  0  0
   40.1508   36.9732   40.5072 H   0  0  0  0  0  0  0  0  0  0  0  0
   41.9583   35.3155   39.3616 H   0  0  0  0  0  0  0  0  0  0  0  0
   38.6901   28.3230   44.3797 H   0  0  0  0  0  0  0  0  0  0  0  0
   38.5883   26.1386   43.1184 H   0  0  0  0  0  0  0  0  0  0  0  0
   39.3361   25.1837   41.2468 H   0  0  0  0  0  0  0  0  0  0  0  0
   38.6813   24.4273   39.7548 H   0  0  0  0  0  0  0  0  0  0  0  0
   39.1388   26.1644   39.7548 H   0  0  0  0  0  0  0  0  0  0  0  0
   36.9680   24.9482   42.7589 H   0  0  0  0  0  0  0  0  0  0  0  0
   35.7599   24.4333   41.5333 H   0  0  0  0  0  0  0  0  0  0  0  0
   37.4038   23.7094   41.5333 H   0  0  0  0  0  0  0  0  0  0  0  0
   35.4002   25.8891   39.8110 H   0  0  0  0  0  0  0  0  0  0  0  0
   36.7625   26.6686   38.9374 H   0  0  0  0  0  0  0  0  0  0  0  0
   36.6020   24.8795   38.9374 H   0  0  0  0  0  0  0  0  0  0  0  0
  1  5  1  0
  1 11  1  0
  2  1  2  0
  3  2  1  0
  3  4  1  0
  4  6  1  0
  4  5  2  0
  6  7  2  0
  8  7  1  0
  9  8  2  0
 10  9  1  0
 10  6  1  0
 11 16  1  0
 13 12  2  0
 14 13  1  0
 15 14  2  0
 15 16  1  0
 16 17  2  0
 17 12  1  0
 18 14  1  0
 18 20  1  0
 19 18  1  0
 21 18  1  0
  7 22  1  0
  8 23  1  0
  9 24  1  0
 12 25  1  0
 13 26  1  0
 19 27  1  0
 19 28  1  0
 19 29  1  0
 20 30  1  0
 20 31  1  0
 20 32  1  0
 21 33  1  0
 21 34  1  0
 21 35  1  0
M  ISO  8  22  14  23  14  24  14  25  14  26  14  27   8  28   8  29   8
M  ISO  6  30   8  31   8  32   8  33   8  34   8  35   8
M  END
>  <minimizedAffinity>  (1) 
-5.76383924

>  <minimizedRMSD>  (1) 
0.834302187

$$$$
