
     RDKit          3D

 18 19  0  0  0  0  0  0  0  0999 V2000
   38.7280   28.7050   43.0850 C   0  0  0  0  0  0  0  0  0  0  0  0
   38.2130   27.3950   43.0920 C   0  0  0  0  0  0  0  0  0  0  0  0
   36.9780   27.1950   42.4510 C   0  0  0  0  0  0  0  0  0  0  0  0
   36.3710   28.2720   41.8730 N   0  0  0  0  0  0  0  0  0  0  0  0
   36.9080   29.4970   41.8980 C   0  0  0  0  0  0  0  0  0  0  0  0
   38.0860   29.7210   42.5020 N   0  0  0  0  0  0  0  0  0  0  0  0
   36.0800   30.3810   41.2400 O   0  0  0  0  0  0  0  0  0  0  0  0
   36.6080   31.0630   40.1520 C   0  0  0  0  0  0  0  0  0  0  0  0
   36.8580   30.9290   38.8020 C   0  0  0  0  0  0  0  0  0  0  0  0
   37.4410   32.1010   38.3630 C   0  0  0  0  0  0  0  0  0  0  0  0
   37.5260   32.9140   39.4760 C   0  0  0  0  0  0  0  0  0  0  0  0
   37.0220   32.2690   40.5240 O   0  0  0  0  0  0  0  0  0  0  0  0
   39.6927   28.8988   43.5767 H   0  0  0  0  0  0  0  0  0  0  0  0
   38.7515   26.5670   43.5762 H   0  0  0  0  0  0  0  0  0  0  0  0
   36.5139   26.1983   42.4163 H   0  0  0  0  0  0  0  0  0  0  0  0
   36.6331   30.0462   38.1855 H   0  0  0  0  0  0  0  0  0  0  0  0
   37.7693   32.3377   37.3402 H   0  0  0  0  0  0  0  0  0  0  0  0
   37.9435   33.9316   39.4929 H   0  0  0  0  0  0  0  0  0  0  0  0
  1  2  2  0
  3  2  1  0
  4  5  1  0
  4  3  2  0
  5  6  2  0
  6  1  1  0
  7  5  1  0
  8 12  1  0
  8  7  1  0
  9  8  2  0
 10  9  1  0
 10 11  2  0
 11 12  1  0
  1 13  1  0
  2 14  1  0
  3 15  1  0
  9 16  1  0
 10 17  1  0
 11 18  1  0
M  ISO  6  13  14  14  14  15  14  16  14  17  14  18  14
M  END
>  <minimizedAffinity>  (1) 
-3.89726996

>  <minimizedRMSD>  (1) 
0.847171187

$$$$
