
     RDKit          3D

 25 27  0  0  0  0  0  0  0  0999 V2000
   37.4370   30.0380   39.6250 C   0  0  0  0  0  0  0  0  0  0  0  0
   38.1820   31.1710   39.4060 C   0  0  0  0  0  0  0  0  0  0  0  0
   38.1700   31.7270   38.1330 C   0  0  0  0  0  0  0  0  0  0  0  0
   37.4180   31.1190   37.1560 C   0  0  0  0  0  0  0  0  0  0  0  0
   36.6730   29.9840   37.3820 C   0  0  0  0  0  0  0  0  0  0  0  0
   36.6960   29.4630   38.6150 N   0  0  0  0  0  0  0  0  0  0  0  0
   38.2940   29.3630   43.1180 C   0  0  0  0  0  0  0  0  0  0  0  0
   37.4430   28.3010   43.4610 C   0  0  0  0  0  0  0  0  0  0  0  0
   36.5680   27.8150   42.4780 C   0  0  0  0  0  0  0  0  0  0  0  0
   36.5960   28.4020   41.2520 N   0  0  0  0  0  0  0  0  0  0  0  0
   37.4110   29.4110   40.9440 C   0  0  0  0  0  0  0  0  0  0  0  0
   38.2440   29.8670   41.8940 N   0  0  0  0  0  0  0  0  0  0  0  0
   35.7120   29.2360   36.0770 S   0  0  0  0  0  0  0  0  0  0  0  0
   36.1620   30.0280   34.5220 C   0  0  0  0  0  0  0  0  0  0  0  0
   36.5500   29.1980   33.5190 N   0  0  0  0  0  0  0  0  0  0  0  0
   36.8270   29.9580   32.5010 O   0  0  0  0  0  0  0  0  0  0  0  0
   36.6470   31.2240   32.7690 C   0  0  0  0  0  0  0  0  0  0  0  0
   36.2190   31.2910   34.0620 N   0  0  0  0  0  0  0  0  0  0  0  0
   38.7716   31.6253   40.2159 H   0  0  0  0  0  0  0  0  0  0  0  0
   38.7502   32.6349   37.9114 H   0  0  0  0  0  0  0  0  0  0  0  0
   37.4114   31.5595   36.1481 H   0  0  0  0  0  0  0  0  0  0  0  0
   38.9961   29.7731   43.8588 H   0  0  0  0  0  0  0  0  0  0  0  0
   37.4615   27.8630   44.4699 H   0  0  0  0  0  0  0  0  0  0  0  0
   35.8800   26.9840   42.6927 H   0  0  0  0  0  0  0  0  0  0  0  0
   36.8090   32.0704   32.0853 H   0  0  0  0  0  0  0  0  0  0  0  0
  1 11  1  0
  2  1  2  0
  3  2  1  0
  4  5  1  0
  4  3  2  0
  5  6  2  0
  6  1  1  0
  7  8  2  0
  9  8  1  0
 10  9  2  0
 11 10  1  0
 11 12  2  0
 12  7  1  0
 13  5  1  0
 14 13  1  0
 15 14  2  0
 16 17  1  0
 16 15  1  0
 17 18  2  0
 18 14  1  0
  2 19  1  0
  3 20  1  0
  4 21  1  0
  7 22  1  0
  8 23  1  0
  9 24  1  0
 17 25  1  0
M  ISO  7  19  14  20  14  21  14  22  14  23  14  24  14  25  14
M  END
>  <minimizedAffinity>  (1) 
-4.5801959

>  <minimizedRMSD>  (1) 
1.34728789

$$$$
