
     RDKit          3D

 46 51  0  0  0  0  0  0  0  0999 V2000
   37.1010   29.1260   43.4310 N   0  0  0  0  0  0  0  0  0  0  0  0
   37.0080   27.8840   43.9610 C   0  0  0  0  0  0  0  0  0  0  0  0
   38.2390   27.3210   43.8800 N   0  0  0  0  0  0  0  0  0  0  0  0
   39.1070   28.1910   43.3060 C   0  0  0  0  0  0  0  0  0  0  0  0
   40.4580   28.1450   42.9840 C   0  0  0  0  0  0  0  0  0  0  0  0
   41.0350   29.2290   42.3970 N   0  0  0  0  0  0  0  0  0  0  0  0
   40.2820   30.3110   42.1440 C   0  0  0  0  0  0  0  0  0  0  0  0
   38.9610   30.3930   42.4450 N   0  0  0  0  0  0  0  0  0  0  0  0
   38.3510   29.3360   43.0300 C   0  0  0  0  0  0  0  0  0  0  0  0
   40.8830   31.4440   41.5310 N   0  0  0  0  0  0  0  0  0  0  0  0
   42.2090   31.6320   41.2980 C   0  0  0  0  0  0  0  0  0  0  0  0
   42.4200   32.8370   40.6910 N   0  0  0  0  0  0  0  0  0  0  0  0
   41.2350   33.4050   40.5420 C   0  0  0  0  0  0  0  0  0  0  0  0
   40.7490   34.5860   40.0200 C   0  0  0  0  0  0  0  0  0  0  0  0
   39.4320   34.8670   40.0240 N   0  0  0  0  0  0  0  0  0  0  0  0
   38.5270   33.9890   40.5470 C   0  0  0  0  0  0  0  0  0  0  0  0
   38.9870   32.8330   41.0590 N   0  0  0  0  0  0  0  0  0  0  0  0
   40.2820   32.5510   41.0570 C   0  0  0  0  0  0  0  0  0  0  0  0
   41.6520   35.5320   39.4640 N   0  0  0  0  0  0  0  0  0  0  0  0
   41.0740   26.9570   43.3140 O   0  0  0  0  0  0  0  0  0  0  0  0
   44.5840   26.5970   44.2000 C   0  0  0  0  0  0  0  0  0  0  0  0
   43.4010   26.5810   43.4530 C   0  0  0  0  0  0  0  0  0  0  0  0
   42.2110   26.9790   44.0550 C   0  0  0  0  0  0  0  0  0  0  0  0
   42.2600   27.3740   45.3720 N   0  0  0  0  0  0  0  0  0  0  0  0
   43.4180   27.3750   46.0540 C   0  0  0  0  0  0  0  0  0  0  0  0
   44.5800   26.9930   45.4880 N   0  0  0  0  0  0  0  0  0  0  0  0
   43.3570   26.1600   42.0550 C   0  0  0  0  0  0  0  0  0  0  0  0
   44.2950   26.5080   41.1200 C   0  0  0  0  0  0  0  0  0  0  0  0
   44.2740   26.1230   39.7930 C   0  0  0  0  0  0  0  0  0  0  0  0
   43.2380   25.3380   39.3960 N   0  0  0  0  0  0  0  0  0  0  0  0
   42.3070   24.9870   40.3020 C   0  0  0  0  0  0  0  0  0  0  0  0
   42.3620   25.3810   41.5860 N   0  0  0  0  0  0  0  0  0  0  0  0
   43.4080   27.8150   47.4830 C   0  0  0  0  0  0  0  0  0  0  0  0
   43.4160   29.1910   47.5770 F   0  0  0  0  0  0  0  0  0  0  0  0
   42.1980   27.4440   48.0950 F   0  0  0  0  0  0  0  0  0  0  0  0
   44.4890   27.3520   48.2060 F   0  0  0  0  0  0  0  0  0  0  0  0
   36.3269   29.8007   43.3511 H   0  0  0  0  0  0  0  0  0  0  0  0
   36.1033   27.4185   44.3791 H   0  0  0  0  0  0  0  0  0  0  0  0
   43.0004   30.9147   41.5612 H   0  0  0  0  0  0  0  0  0  0  0  0
   37.4516   34.2202   40.5498 H   0  0  0  0  0  0  0  0  0  0  0  0
   42.6627   35.3340   39.4524 H   0  0  0  0  0  0  0  0  0  0  0  0
   41.2958   36.4157   39.0727 H   0  0  0  0  0  0  0  0  0  0  0  0
   45.5279   26.2828   43.7306 H   0  0  0  0  0  0  0  0  0  0  0  0
   45.1299   27.1432   41.4509 H   0  0  0  0  0  0  0  0  0  0  0  0
   45.0597   26.4374   39.0903 H   0  0  0  0  0  0  0  0  0  0  0  0
   41.4681   24.3529   39.9793 H   0  0  0  0  0  0  0  0  0  0  0  0
  1  2  1  0
  3  2  2  0
  4  3  1  0
  5  4  2  0
  5 20  1  0
  6  5  1  0
  7  6  2  0
  7  8  1  0
  8  9  2  0
  9  4  1  0
  9  1  1  0
 10  7  1  0
 11 10  1  0
 12 11  2  0
 13 12  1  0
 13 18  2  0
 14 15  2  0
 14 13  1  0
 15 16  1  0
 16 17  2  0
 18 17  1  0
 18 10  1  0
 19 14  1  0
 20 23  1  0
 21 26  2  0
 22 23  2  0
 22 21  1  0
 23 24  1  0
 24 25  2  0
 25 33  1  0
 26 25  1  0
 27 22  1  0
 28 27  2  0
 29 28  1  0
 30 29  2  0
 30 31  1  0
 31 32  2  0
 32 27  1  0
 33 34  1  0
 33 35  1  0
 33 36  1  0
  1 37  1  0
  2 38  1  0
 11 39  1  0
 16 40  1  0
 19 41  1  0
 19 42  1  0
 21 43  1  0
 28 44  1  0
 29 45  1  0
 31 46  1  0
M  ISO  8  37   9  38  14  39  14  40  14  43  14  44  14  45  14  46  14
M  END
>  <minimizedAffinity>  (1) 
-7.69179583

>  <minimizedRMSD>  (1) 
0.407779247

$$$$
