
     RDKit          3D

 42 45  0  0  0  0  0  0  0  0999 V2000
   39.3890   27.8830   43.3500 C   0  0  0  0  0  0  0  0  0  0  0  0
   38.8370   26.5830   43.2550 C   0  0  0  0  0  0  0  0  0  0  0  0
   38.1280   26.2940   42.0890 C   0  0  0  0  0  0  0  0  0  0  0  0
   38.0010   27.2290   41.1330 N   0  0  0  0  0  0  0  0  0  0  0  0
   38.5380   28.4570   41.2510 C   0  0  0  0  0  0  0  0  0  0  0  0
   39.2290   28.7810   42.3580 N   0  0  0  0  0  0  0  0  0  0  0  0
   37.5340   25.0570   41.8670 N   0  0  0  0  0  0  0  0  0  0  0  0
   38.4370   29.4750   40.2560 N   0  0  0  0  0  0  0  0  0  0  0  0
   37.8740   29.1020   39.0850 C   0  0  0  0  0  0  0  0  0  0  0  0
   37.6950   29.9380   38.0020 C   0  0  0  0  0  0  0  0  0  0  0  0
   38.1230   31.2300   38.1460 C   0  0  0  0  0  0  0  0  0  0  0  0
   37.9940   32.0470   37.2060 O   0  0  0  0  0  0  0  0  0  0  0  0
   38.6790   31.5800   39.3160 N   0  0  0  0  0  0  0  0  0  0  0  0
   38.8430   30.7440   40.3590 C   0  0  0  0  0  0  0  0  0  0  0  0
   39.3580   31.0590   41.4510 O   0  0  0  0  0  0  0  0  0  0  0  0
   39.1480   32.9020   39.5340 C   0  0  0  0  0  0  0  0  0  0  0  0
   38.3020   33.8260   40.0940 C   0  0  0  0  0  0  0  0  0  0  0  0
   38.7800   35.1030   40.2980 C   0  0  0  0  0  0  0  0  0  0  0  0
   40.0760   35.4040   39.9360 C   0  0  0  0  0  0  0  0  0  0  0  0
   40.9300   34.5030   39.3800 C   0  0  0  0  0  0  0  0  0  0  0  0
   40.4590   33.2180   39.1730 C   0  0  0  0  0  0  0  0  0  0  0  0
   37.0650   29.4260   36.7570 C   0  0  0  0  0  0  0  0  0  0  0  0
   35.8820   28.6730   37.0210 N   0  0  0  0  0  0  0  0  0  0  0  0
   35.6620   27.3720   36.9220 N   0  0  0  0  0  0  0  0  0  0  0  0
   34.4030   27.0440   37.2610 C   0  0  0  0  0  0  0  0  0  0  0  0
   33.7860   28.2470   37.6010 C   0  0  0  0  0  0  0  0  0  0  0  0
   34.7230   29.2560   37.4460 C   0  0  0  0  0  0  0  0  0  0  0  0
   39.9579   28.1648   44.2483 H   0  0  0  0  0  0  0  0  0  0  0  0
   38.9605   25.8407   44.0574 H   0  0  0  0  0  0  0  0  0  0  0  0
   37.0187   24.8827   40.9924 H   0  0  0  0  0  0  0  0  0  0  0  0
   37.6092   24.3147   42.5771 H   0  0  0  0  0  0  0  0  0  0  0  0
   37.5351   28.0599   38.9889 H   0  0  0  0  0  0  0  0  0  0  0  0
   37.2726   33.5557   40.3720 H   0  0  0  0  0  0  0  0  0  0  0  0
   38.1344   35.8735   40.7448 H   0  0  0  0  0  0  0  0  0  0  0  0
   40.4390   36.4284   40.1061 H   0  0  0  0  0  0  0  0  0  0  0  0
   41.9570   34.7852   39.1050 H   0  0  0  0  0  0  0  0  0  0  0  0
   41.1119   32.4526   38.7280 H   0  0  0  0  0  0  0  0  0  0  0  0
   37.7864   28.7805   36.2347 H   0  0  0  0  0  0  0  0  0  0  0  0
   36.7830   30.2924   36.1407 H   0  0  0  0  0  0  0  0  0  0  0  0
   33.9548   26.0395   37.2685 H   0  0  0  0  0  0  0  0  0  0  0  0
   32.7446   28.3724   37.9322 H   0  0  0  0  0  0  0  0  0  0  0  0
   34.5626   30.3284   37.6311 H   0  0  0  0  0  0  0  0  0  0  0  0
  2  1  2  0
  3  2  1  0
  4  5  1  0
  4  3  2  0
  5  6  2  0
  6  1  1  0
  7  3  1  0
  8 14  1  0
  8  5  1  0
  9  8  1  0
 10 11  1  0
 10  9  2  0
 11 13  1  0
 12 11  2  0
 13 16  1  0
 13 14  1  0
 14 15  2  0
 16 17  2  0
 17 18  1  0
 19 18  2  0
 20 19  1  0
 21 20  2  0
 21 16  1  0
 22 23  1  0
 22 10  1  0
 23 27  1  0
 24 23  1  0
 24 25  2  0
 25 26  1  0
 27 26  2  0
  1 28  1  0
  2 29  1  0
  7 30  1  0
  7 31  1  0
  9 32  1  0
 17 33  1  0
 18 34  1  0
 19 35  1  0
 20 36  1  0
 21 37  1  0
 22 38  1  0
 22 39  1  0
 25 40  1  0
 26 41  1  0
 27 42  1  0
M  ISO  8  28  14  29  14  32  14  33  14  34  14  35  14  36  14  37  14
M  ISO  5  38   8  39   8  40  14  41  14  42  14
M  END
>  <minimizedAffinity>  (1) 
-6.05624485

>  <minimizedRMSD>  (1) 
1.97540736

$$$$
