
     RDKit          3D

 53 58  0  0  0  0  0  0  0  0999 V2000
   38.5610   28.2730   42.6140 C   0  0  0  0  0  0  0  0  0  0  0  0
   37.5260   27.3860   42.7410 C   0  0  0  0  0  0  0  0  0  0  0  0
   36.4230   27.9680   42.1130 C   0  0  0  0  0  0  0  0  0  0  0  0
   36.8770   29.1450   41.6640 N   0  0  0  0  0  0  0  0  0  0  0  0
   38.1260   29.3580   41.9390 N   0  0  0  0  0  0  0  0  0  0  0  0
   41.6040   26.7980   44.1780 C   0  0  0  0  0  0  0  0  0  0  0  0
   40.2880   26.8940   43.7160 C   0  0  0  0  0  0  0  0  0  0  0  0
   39.9120   28.1140   43.1100 C   0  0  0  0  0  0  0  0  0  0  0  0
   40.8090   29.1260   42.9980 N   0  0  0  0  0  0  0  0  0  0  0  0
   42.0860   28.9550   43.4780 C   0  0  0  0  0  0  0  0  0  0  0  0
   42.4650   27.8100   44.0550 N   0  0  0  0  0  0  0  0  0  0  0  0
   42.8770   30.1360   43.2650 N   0  0  0  0  0  0  0  0  0  0  0  0
   43.0410   30.9110   42.1660 C   0  0  0  0  0  0  0  0  0  0  0  0
   43.8850   31.9110   42.4550 N   0  0  0  0  0  0  0  0  0  0  0  0
   44.2810   31.8020   43.7370 C   0  0  0  0  0  0  0  0  0  0  0  0
   45.1220   32.5100   44.5930 C   0  0  0  0  0  0  0  0  0  0  0  0
   45.3220   32.1400   45.8640 N   0  0  0  0  0  0  0  0  0  0  0  0
   44.6850   31.0410   46.3280 C   0  0  0  0  0  0  0  0  0  0  0  0
   43.8560   30.3170   45.5380 N   0  0  0  0  0  0  0  0  0  0  0  0
   43.6430   30.6790   44.2470 C   0  0  0  0  0  0  0  0  0  0  0  0
   45.7840   33.6590   44.0920 N   0  0  0  0  0  0  0  0  0  0  0  0
   35.9940   30.0140   40.9650 C   0  0  0  0  0  0  0  0  0  0  0  0
   35.1680   29.3710   39.8960 C   0  0  0  0  0  0  0  0  0  0  0  0
   35.8000   29.3410   38.5560 C   0  0  0  0  0  0  0  0  0  0  0  0
   37.1280   29.4750   38.2590 C   0  0  0  0  0  0  0  0  0  0  0  0
   37.6650   29.5130   37.0020 C   0  0  0  0  0  0  0  0  0  0  0  0
   36.8380   29.4140   35.9160 C   0  0  0  0  0  0  0  0  0  0  0  0
   35.4850   29.2750   36.1430 C   0  0  0  0  0  0  0  0  0  0  0  0
   34.6950   29.1880   35.0180 C   0  0  0  0  0  0  0  0  0  0  0  0
   33.3470   29.0530   35.1380 C   0  0  0  0  0  0  0  0  0  0  0  0
   32.7820   29.0010   36.3940 C   0  0  0  0  0  0  0  0  0  0  0  0
   33.6130   29.0910   37.4790 C   0  0  0  0  0  0  0  0  0  0  0  0
   34.9590   29.2340   37.4330 C   0  0  0  0  0  0  0  0  0  0  0  0
   32.9900   29.0130   38.7150 O   0  0  0  0  0  0  0  0  0  0  0  0
   37.5572   26.4063   43.2402 H   0  0  0  0  0  0  0  0  0  0  0  0
   35.4094   27.5531   42.0103 H   0  0  0  0  0  0  0  0  0  0  0  0
   41.9381   25.8648   44.6549 H   0  0  0  0  0  0  0  0  0  0  0  0
   39.5789   26.0595   43.8193 H   0  0  0  0  0  0  0  0  0  0  0  0
   42.5582   30.7457   41.1915 H   0  0  0  0  0  0  0  0  0  0  0  0
   44.8435   30.7278   47.3705 H   0  0  0  0  0  0  0  0  0  0  0  0
   46.4111   34.2000   44.7043 H   0  0  0  0  0  0  0  0  0  0  0  0
   45.6379   33.9528   43.1157 H   0  0  0  0  0  0  0  0  0  0  0  0
   35.3084   30.4622   41.6992 H   0  0  0  0  0  0  0  0  0  0  0  0
   36.6350   30.7458   40.4515 H   0  0  0  0  0  0  0  0  0  0  0  0
   34.9615   28.3343   40.2002 H   0  0  0  0  0  0  0  0  0  0  0  0
   34.2596   29.9832   39.7963 H   0  0  0  0  0  0  0  0  0  0  0  0
   37.8254   29.5596   39.1054 H   0  0  0  0  0  0  0  0  0  0  0  0
   38.7510   29.6221   36.8650 H   0  0  0  0  0  0  0  0  0  0  0  0
   37.2406   29.4444   34.8928 H   0  0  0  0  0  0  0  0  0  0  0  0
   35.1556   29.2278   34.0199 H   0  0  0  0  0  0  0  0  0  0  0  0
   32.7137   28.9860   34.2411 H   0  0  0  0  0  0  0  0  0  0  0  0
   31.6950   28.8904   36.5214 H   0  0  0  0  0  0  0  0  0  0  0  0
   33.5272   29.0705   39.5446 H   0  0  0  0  0  0  0  0  0  0  0  0
  1  2  1  0
  1  8  1  0
  3  2  2  0
  4  5  1  0
  4  3  1  0
  5  1  2  0
  7  6  2  0
  8  7  1  0
  9  8  2  0
  9 10  1  0
 10 11  2  0
 11  6  1  0
 12 10  1  0
 12 20  1  0
 13 14  2  0
 13 12  1  0
 14 15  1  0
 15 20  2  0
 15 16  1  0
 16 17  2  0
 17 18  1  0
 19 18  2  0
 20 19  1  0
 21 16  1  0
 22  4  1  0
 23 22  1  0
 24 23  1  0
 25 24  2  0
 26 25  1  0
 27 28  1  0
 27 26  2  0
 28 33  2  0
 29 30  2  0
 29 28  1  0
 30 31  1  0
 31 32  2  0
 32 34  1  0
 33 32  1  0
 33 24  1  0
  2 35  1  0
  3 36  1  0
  6 37  1  0
  7 38  1  0
 13 39  1  0
 18 40  1  0
 21 41  1  0
 21 42  1  0
 22 43  1  0
 22 44  1  0
 23 45  1  0
 23 46  1  0
 25 47  1  0
 26 48  1  0
 27 49  1  0
 29 50  1  0
 30 51  1  0
 31 52  1  0
 34 53  1  0
M  ISO  8  35  14  36  14  37  14  38  14  39  14  40  14  43   8  44   8
M  ISO  8  45   8  46   8  47  14  48  14  49  14  50  14  51  14  52  14
M  ISO  1  53   3
M  END
>  <minimizedAffinity>  (1) 
-7.06539059

>  <minimizedRMSD>  (1) 
0.603430867

$$$$
