
     RDKit          3D

 40 43  0  0  1  0  0  0  0  0999 V2000
   37.8500   30.0630   39.2560 N   0  0  0  0  0  0  0  0  0  0  0  0
   37.7690   29.5780   37.8490 C   0  0  0  0  0  0  0  0  0  0  0  0
   39.0400   28.9080   37.4350 C   0  0  0  0  0  0  0  0  0  0  0  0
   40.1510   29.6240   37.8660 O   0  0  0  0  0  0  0  0  0  0  0  0
   39.7640   30.9330   38.0340 C   0  0  0  0  0  0  0  0  0  0  0  0
   38.8200   31.0910   39.2530 C   0  0  2  0  0  0  0  0  0  0  0  0
   39.7260   31.1950   40.3470 N   0  0  0  0  0  0  0  0  0  0  0  0
   40.1520   30.0630   40.9890 C   0  0  0  0  0  0  0  0  0  0  0  0
   41.0090   30.0330   42.0690 C   0  0  0  0  0  0  0  0  0  0  0  0
   41.4870   31.2330   42.5530 C   0  0  0  0  0  0  0  0  0  0  0  0
   42.2650   31.2690   43.5270 O   0  0  0  0  0  0  0  0  0  0  0  0
   41.0780   32.3450   41.9330 N   0  0  0  0  0  0  0  0  0  0  0  0
   40.2420   32.3010   40.8860 C   0  0  0  0  0  0  0  0  0  0  0  0
   39.9450   33.3990   40.4050 O   0  0  0  0  0  0  0  0  0  0  0  0
   35.8470   29.6060   40.8360 C   0  0  1  0  0  0  0  0  0  0  0  0
   36.1890   31.0410   40.9630 C   0  0  0  0  0  0  0  0  0  0  0  0
   36.5460   30.3860   39.7010 C   0  0  1  0  0  0  0  0  0  0  0  0
   38.0350   28.2610   43.4680 C   0  0  0  0  0  0  0  0  0  0  0  0
   38.2130   26.9180   43.0780 C   0  0  0  0  0  0  0  0  0  0  0  0
   37.5750   26.5060   41.8940 C   0  0  0  0  0  0  0  0  0  0  0  0
   36.8200   27.4180   41.1870 N   0  0  0  0  0  0  0  0  0  0  0  0
   36.6970   28.6750   41.6190 C   0  0  0  0  0  0  0  0  0  0  0  0
   37.2920   29.1150   42.7500 N   0  0  0  0  0  0  0  0  0  0  0  0
   36.9403   28.8596   37.7641 H   0  0  0  0  0  0  0  0  0  0  0  0
   37.6005   30.4433   37.1910 H   0  0  0  0  0  0  0  0  0  0  0  0
   39.0722   27.8990   37.8719 H   0  0  0  0  0  0  0  0  0  0  0  0
   39.0642   28.8568   36.3365 H   0  0  0  0  0  0  0  0  0  0  0  0
   40.6586   31.5534   38.1912 H   0  0  0  0  0  0  0  0  0  0  0  0
   39.2214   31.2523   37.1320 H   0  0  0  0  0  0  0  0  0  0  0  0
   38.1663   31.9755   39.2720 H   0  0  0  0  0  0  0  0  0  0  0  0
   39.7802   29.0987   40.6124 H   0  0  0  0  0  0  0  0  0  0  0  0
   41.3031   29.0792   42.5314 H   0  0  0  0  0  0  0  0  0  0  0  0
   41.4140   33.2590   42.2686 H   0  0  0  0  0  0  0  0  0  0  0  0
   34.9378   28.9931   40.9239 H   0  0  0  0  0  0  0  0  0  0  0  0
   35.3835   31.7900   40.9747 H   0  0  0  0  0  0  0  0  0  0  0  0
   36.7582   31.6223   41.7033 H   0  0  0  0  0  0  0  0  0  0  0  0
   36.3600   30.6226   38.6430 H   0  0  0  0  0  0  0  0  0  0  0  0
   38.5200   28.6185   44.3883 H   0  0  0  0  0  0  0  0  0  0  0  0
   38.8237   26.2231   43.6732 H   0  0  0  0  0  0  0  0  0  0  0  0
   37.6769   25.4706   41.5370 H   0  0  0  0  0  0  0  0  0  0  0  0
  1  2  1  0
  1 17  1  0
  3  2  1  0
  3  4  1  0
  4  5  1  0
  5  6  1  0
  6  1  1  0
  6  7  1  0
  7 13  1  0
  7  8  1  0
  8  9  2  0
  9 10  1  0
 10 11  2  0
 12 10  1  0
 13 12  1  0
 14 13  2  0
 15 16  1  0
 15 22  1  0
 17 15  1  0
 17 16  1  0
 19 18  2  0
 20 19  1  0
 21 22  1  0
 21 20  2  0
 22 23  2  0
 23 18  1  0
  2 24  1  0
  2 25  1  0
  3 26  1  0
  3 27  1  0
  5 28  1  0
  5 29  1  0
  6 30  1  6
  8 31  1  0
  9 32  1  0
 12 33  1  0
 15 34  1  6
 16 35  1  0
 16 36  1  0
 17 37  1  6
 18 38  1  0
 19 39  1  0
 20 40  1  0
M  ISO  8  24  13  25  13  26  13  27  13  28  13  29  13  30  13  31  14
M  ISO  8  32  14  33   9  34  13  35  13  36  13  37  13  38  14  39  14
M  ISO  1  40  14
M  END
>  <minimizedAffinity>  (1) 
-5.35707331

>  <minimizedRMSD>  (1) 
1.61309421

$$$$
