
     RDKit          3D

 42 45  0  0  1  0  0  0  0  0999 V2000
   39.0250   29.1000   39.6590 C   0  0  2  0  0  0  0  0  0  0  0  0
   40.4060   29.4890   39.6140 C   0  0  0  0  0  0  0  0  0  0  0  0
   40.6060   30.1370   38.2270 C   0  0  0  0  0  0  0  0  0  0  0  0
   39.2090   30.5250   37.7680 C   0  0  0  0  0  0  0  0  0  0  0  0
   38.3040   30.3060   38.9270 C   0  0  1  0  0  0  0  0  0  0  0  0
   37.4530   27.8600   41.2210 C   0  0  0  0  0  0  0  0  0  0  0  0
   38.4340   28.8940   40.9750 C   0  0  0  0  0  0  0  0  0  0  0  0
   38.8230   29.7200   41.9910 C   0  0  0  0  0  0  0  0  0  0  0  0
   38.2360   29.5050   43.2210 N   0  0  0  0  0  0  0  0  0  0  0  0
   37.3000   28.5160   43.4510 C   0  0  0  0  0  0  0  0  0  0  0  0
   36.9050   27.6800   42.4240 N   0  0  0  0  0  0  0  0  0  0  0  0
   36.7510   28.3860   44.7660 N   0  0  0  0  0  0  0  0  0  0  0  0
   39.7540   30.8140   41.9720 C   0  0  0  0  0  0  0  0  0  0  0  0
   41.0240   30.5840   42.6380 N   0  0  0  0  0  0  0  0  0  0  0  0
   42.0280   31.2940   43.1780 C   0  0  0  0  0  0  0  0  0  0  0  0
   42.9790   30.4900   43.6830 N   0  0  0  0  0  0  0  0  0  0  0  0
   42.5770   29.2330   43.4620 C   0  0  0  0  0  0  0  0  0  0  0  0
   41.3950   29.3080   42.8310 N   0  0  0  0  0  0  0  0  0  0  0  0
   37.0250   29.8900   38.2800 C   0  0  0  0  0  0  0  0  0  0  0  0
   36.9500   29.6580   36.9300 N   0  0  0  0  0  0  0  0  0  0  0  0
   35.7130   29.3060   36.6700 O   0  0  0  0  0  0  0  0  0  0  0  0
   35.0350   29.3110   37.7900 C   0  0  0  0  0  0  0  0  0  0  0  0
   35.8240   29.6690   38.8120 N   0  0  0  0  0  0  0  0  0  0  0  0
   33.5780   28.9480   37.8130 C   0  0  0  0  0  0  0  0  0  0  0  0
   33.4360   27.6150   37.5180 F   0  0  0  0  0  0  0  0  0  0  0  0
   33.0440   29.1930   39.0720 F   0  0  0  0  0  0  0  0  0  0  0  0
   32.8830   29.6830   36.8660 F   0  0  0  0  0  0  0  0  0  0  0  0
   38.9118   28.1059   39.2018 H   0  0  0  0  0  0  0  0  0  0  0  0
   40.6279   30.2126   40.4122 H   0  0  0  0  0  0  0  0  0  0  0  0
   41.0773   28.6307   39.7645 H   0  0  0  0  0  0  0  0  0  0  0  0
   41.2482   31.0266   38.3050 H   0  0  0  0  0  0  0  0  0  0  0  0
   41.0983   29.4539   37.5192 H   0  0  0  0  0  0  0  0  0  0  0  0
   39.1890   31.5824   37.4656 H   0  0  0  0  0  0  0  0  0  0  0  0
   38.8955   29.9244   36.9014 H   0  0  0  0  0  0  0  0  0  0  0  0
   38.1119   31.1348   39.6243 H   0  0  0  0  0  0  0  0  0  0  0  0
   37.1500   27.2031   40.3923 H   0  0  0  0  0  0  0  0  0  0  0  0
   36.0514   27.6560   44.9621 H   0  0  0  0  0  0  0  0  0  0  0  0
   37.0555   29.0224   45.5164 H   0  0  0  0  0  0  0  0  0  0  0  0
   39.9653   31.0572   40.9202 H   0  0  0  0  0  0  0  0  0  0  0  0
   39.2682   31.6251   42.5342 H   0  0  0  0  0  0  0  0  0  0  0  0
   42.0669   32.3930   43.2036 H   0  0  0  0  0  0  0  0  0  0  0  0
   43.1126   28.3144   43.7435 H   0  0  0  0  0  0  0  0  0  0  0  0
  1  7  1  0
  2  1  1  0
  3  2  1  0
  4  3  1  0
  4  5  1  0
  5  1  1  0
  6 11  2  0
  7  6  1  0
  7  8  2  0
  8  9  1  0
  9 10  2  0
 10 12  1  0
 11 10  1  0
 13  8  1  0
 13 14  1  0
 14 18  1  0
 14 15  1  0
 15 16  2  0
 17 16  1  0
 18 17  2  0
 19 23  1  0
 19  5  1  0
 20 19  2  0
 21 20  1  0
 21 22  1  0
 22 24  1  0
 22 23  2  0
 24 26  1  0
 25 24  1  0
 27 24  1  0
  1 28  1  6
  2 29  1  0
  2 30  1  0
  3 31  1  0
  3 32  1  0
  4 33  1  0
  4 34  1  0
  5 35  1  1
  6 36  1  0
 12 37  1  0
 12 38  1  0
 13 39  1  0
 13 40  1  0
 15 41  1  0
 17 42  1  0
M  ISO  8  28  13  29  13  30  13  31  13  32  13  33  13  34  13  35  13
M  ISO  5  36  14  39   8  40   8  41  14  42  14
M  END
>  <minimizedAffinity>  (1) 
-5.37199879

>  <minimizedRMSD>  (1) 
5.61249781

$$$$
