
     RDKit          3D

 33 36  0  0  0  0  0  0  0  0999 V2000
   38.1230   28.4590   43.5680 C   0  0  0  0  0  0  0  0  0  0  0  0
   38.1500   27.1210   43.0910 C   0  0  0  0  0  0  0  0  0  0  0  0
   37.4630   26.8280   41.8900 C   0  0  0  0  0  0  0  0  0  0  0  0
   36.8240   27.8520   41.2760 N   0  0  0  0  0  0  0  0  0  0  0  0
   36.8260   29.1030   41.7640 C   0  0  0  0  0  0  0  0  0  0  0  0
   37.4640   29.4000   42.8910 N   0  0  0  0  0  0  0  0  0  0  0  0
   37.4700   25.4920   41.3800 N   0  0  0  0  0  0  0  0  0  0  0  0
   36.6980   25.1440   40.3650 C   0  0  0  0  0  0  0  0  0  0  0  0
   36.7850   23.8260   39.9540 C   0  0  0  0  0  0  0  0  0  0  0  0
   37.6340   22.9230   40.5750 C   0  0  0  0  0  0  0  0  0  0  0  0
   37.7650   21.7130   40.2560 O   0  0  0  0  0  0  0  0  0  0  0  0
   38.4010   23.3560   41.6190 N   0  0  0  0  0  0  0  0  0  0  0  0
   38.3060   24.6400   42.0070 C   0  0  0  0  0  0  0  0  0  0  0  0
   39.0430   25.0010   42.9880 O   0  0  0  0  0  0  0  0  0  0  0  0
   36.1040   29.9510   40.9510 O   0  0  0  0  0  0  0  0  0  0  0  0
   36.7460   30.9050   40.1900 C   0  0  0  0  0  0  0  0  0  0  0  0
   36.7270   31.1340   38.8520 N   0  0  0  0  0  0  0  0  0  0  0  0
   37.4990   32.1610   38.5810 O   0  0  0  0  0  0  0  0  0  0  0  0
   38.0030   32.5820   39.7230 C   0  0  0  0  0  0  0  0  0  0  0  0
   37.5570   31.8300   40.7210 N   0  0  0  0  0  0  0  0  0  0  0  0
   38.9110   33.7100   39.8290 C   0  0  0  0  0  0  0  0  0  0  0  0
   38.5700   34.9880   40.3010 C   0  0  0  0  0  0  0  0  0  0  0  0
   39.7030   35.7830   40.2490 C   0  0  0  0  0  0  0  0  0  0  0  0
   40.6870   34.9520   39.7470 C   0  0  0  0  0  0  0  0  0  0  0  0
   40.1640   33.7850   39.5290 O   0  0  0  0  0  0  0  0  0  0  0  0
   38.6476   28.7196   44.4991 H   0  0  0  0  0  0  0  0  0  0  0  0
   38.6898   26.3354   43.6401 H   0  0  0  0  0  0  0  0  0  0  0  0
   36.0242   25.8621   39.8747 H   0  0  0  0  0  0  0  0  0  0  0  0
   36.1641   23.4855   39.1122 H   0  0  0  0  0  0  0  0  0  0  0  0
   39.0417   22.7096   42.1012 H   0  0  0  0  0  0  0  0  0  0  0  0
   37.5759   35.3029   40.6511 H   0  0  0  0  0  0  0  0  0  0  0  0
   39.7984   36.8391   40.5416 H   0  0  0  0  0  0  0  0  0  0  0  0
   41.7347   35.2324   39.5637 H   0  0  0  0  0  0  0  0  0  0  0  0
  2  1  2  0
  3  2  1  0
  4  5  1  0
  4  3  2  0
  5  6  2  0
  6  1  1  0
  7  3  1  0
  7 13  1  0
  8  7  1  0
  9  8  2  0
  9 10  1  0
 10 12  1  0
 11 10  2  0
 12 13  1  0
 13 14  2  0
 15  5  1  0
 16 20  1  0
 16 15  1  0
 17 16  2  0
 18 17  1  0
 18 19  1  0
 19 21  1  0
 19 20  2  0
 21 22  2  0
 23 22  1  0
 24 23  2  0
 25 24  1  0
 25 21  1  0
  1 26  1  0
  2 27  1  0
  8 28  1  0
  9 29  1  0
 12 30  1  0
 22 31  1  0
 23 32  1  0
 24 33  1  0
M  ISO  8  26  14  27  14  28  14  29  14  30   9  31  14  32  14  33  14
M  END
>  <minimizedAffinity>  (1) 
-6.77552605

>  <minimizedRMSD>  (1) 
1.27784729

$$$$
