
     RDKit          3D

 44 48  0  0  0  0  0  0  0  0999 V2000
   37.1200   33.4170   39.9150 N   0  0  0  0  0  0  0  0  0  0  0  0
   37.4370   34.6440   39.6050 N   0  0  0  0  0  0  0  0  0  0  0  0
   38.6780   34.9080   40.1030 C   0  0  0  0  0  0  0  0  0  0  0  0
   39.0550   33.7240   40.7240 C   0  0  0  0  0  0  0  0  0  0  0  0
   38.0190   32.7740   40.5860 C   0  0  0  0  0  0  0  0  0  0  0  0
   38.1650   31.5020   41.1840 C   0  0  0  0  0  0  0  0  0  0  0  0
   39.2660   31.2420   41.9490 N   0  0  0  0  0  0  0  0  0  0  0  0
   39.5160   30.1210   42.5950 C   0  0  0  0  0  0  0  0  0  0  0  0
   38.6800   29.0770   42.5690 N   0  0  0  0  0  0  0  0  0  0  0  0
   37.5500   29.2100   41.8440 C   0  0  0  0  0  0  0  0  0  0  0  0
   36.6540   28.1820   41.7780 C   0  0  0  0  0  0  0  0  0  0  0  0
   35.4760   28.2880   41.0360 C   0  0  0  0  0  0  0  0  0  0  0  0
   35.2690   29.4990   40.3680 C   0  0  0  0  0  0  0  0  0  0  0  0
   36.2190   30.4730   40.4910 C   0  0  0  0  0  0  0  0  0  0  0  0
   37.3640   30.4130   41.1970 C   0  0  0  0  0  0  0  0  0  0  0  0
   39.7260   36.3700   40.1300 S   0  0  0  0  0  0  0  0  0  0  0  0
   43.2170   34.7170   41.0050 C   0  0  0  0  0  0  0  0  0  0  0  0
   43.6350   35.4050   42.1650 C   0  0  0  0  0  0  0  0  0  0  0  0
   42.8340   36.3790   42.6920 C   0  0  0  0  0  0  0  0  0  0  0  0
   41.6630   36.6390   42.0630 N   0  0  0  0  0  0  0  0  0  0  0  0
   41.2720   35.9810   40.9580 C   0  0  0  0  0  0  0  0  0  0  0  0
   42.0440   35.0350   40.4430 N   0  0  0  0  0  0  0  0  0  0  0  0
   43.3280   37.0700   43.8850 C   0  0  0  0  0  0  0  0  0  0  0  0
   44.7360   36.8050   44.2530 C   0  0  0  0  0  0  0  0  0  0  0  0
   44.9550   35.7330   45.1800 N   0  0  0  0  0  0  0  0  0  0  0  0
   44.7200   35.4200   46.4650 C   0  0  0  0  0  0  0  0  0  0  0  0
   45.1970   34.2280   46.7870 N   0  0  0  0  0  0  0  0  0  0  0  0
   45.7650   33.7290   45.6940 C   0  0  0  0  0  0  0  0  0  0  0  0
   45.6120   34.6480   44.7330 N   0  0  0  0  0  0  0  0  0  0  0  0
   36.2211   32.9924   39.6455 H   0  0  0  0  0  0  0  0  0  0  0  0
   40.0103   33.5531   41.2419 H   0  0  0  0  0  0  0  0  0  0  0  0
   40.4461   30.0408   43.1769 H   0  0  0  0  0  0  0  0  0  0  0  0
   36.8649   27.2493   42.3216 H   0  0  0  0  0  0  0  0  0  0  0  0
   34.7500   27.4635   40.9799 H   0  0  0  0  0  0  0  0  0  0  0  0
   34.3666   29.6627   39.7606 H   0  0  0  0  0  0  0  0  0  0  0  0
   36.0268   31.4126   39.9523 H   0  0  0  0  0  0  0  0  0  0  0  0
   43.8477   33.9288   40.5680 H   0  0  0  0  0  0  0  0  0  0  0  0
   44.5962   35.1594   42.6401 H   0  0  0  0  0  0  0  0  0  0  0  0
   43.2227   38.1517   43.7149 H   0  0  0  0  0  0  0  0  0  0  0  0
   42.7260   36.6844   44.7210 H   0  0  0  0  0  0  0  0  0  0  0  0
   45.2858   36.5687   43.3300 H   0  0  0  0  0  0  0  0  0  0  0  0
   45.0835   37.7142   44.7654 H   0  0  0  0  0  0  0  0  0  0  0  0
   44.1914   36.0791   47.1694 H   0  0  0  0  0  0  0  0  0  0  0  0
   46.2629   32.7528   45.5980 H   0  0  0  0  0  0  0  0  0  0  0  0
  1  5  1  0
  2  1  1  0
  2  3  2  0
  3 16  1  0
  3  4  1  0
  5  4  2  0
  5  6  1  0
  6 15  1  0
  6  7  2  0
  7  8  1  0
  9  8  2  0
 10  9  1  0
 11 10  2  0
 12 11  1  0
 13 14  1  0
 13 12  2  0
 14 15  2  0
 15 10  1  0
 16 21  1  0
 17 18  2  0
 18 19  1  0
 19 23  1  0
 20 19  2  0
 21 20  1  0
 22 21  2  0
 22 17  1  0
 23 24  1  0
 24 25  1  0
 25 26  1  0
 26 27  2  0
 28 27  1  0
 29 25  1  0
 29 28  2  0
  1 30  1  0
  4 31  1  0
  8 32  1  0
 11 33  1  0
 12 34  1  0
 13 35  1  0
 14 36  1  0
 17 37  1  0
 18 38  1  0
 23 39  1  0
 23 40  1  0
 24 41  1  0
 24 42  1  0
 26 43  1  0
 28 44  1  0
M  END
>  <minimizedAffinity>  (1) 
-7.64015388

>  <minimizedRMSD>  (1) 
0.91709286

$$$$
