
     RDKit          3D

 45 49  0  0  0  0  0  0  0  0999 V2000
   40.3230   32.8650   40.7610 C   0  0  0  0  0  0  0  0  0  0  0  0
   41.4000   32.2440   41.4350 C   0  0  0  0  0  0  0  0  0  0  0  0
   41.2950   31.0340   42.1050 C   0  0  0  0  0  0  0  0  0  0  0  0
   40.0640   30.3920   42.1150 C   0  0  0  0  0  0  0  0  0  0  0  0
   39.0040   30.9540   41.4800 C   0  0  0  0  0  0  0  0  0  0  0  0
   37.8220   30.2860   41.5160 C   0  0  0  0  0  0  0  0  0  0  0  0
   36.6790   30.8110   40.8670 C   0  0  0  0  0  0  0  0  0  0  0  0
   36.8630   32.0380   40.2090 C   0  0  0  0  0  0  0  0  0  0  0  0
   38.0810   32.6550   40.2160 C   0  0  0  0  0  0  0  0  0  0  0  0
   39.1900   32.1380   40.8500 C   0  0  0  0  0  0  0  0  0  0  0  0
   37.4880   29.0350   42.1560 C   0  0  0  0  0  0  0  0  0  0  0  0
   37.1660   28.8000   43.4770 C   0  0  0  0  0  0  0  0  0  0  0  0
   36.8220   27.5820   44.0000 C   0  0  0  0  0  0  0  0  0  0  0  0
   36.7780   26.4700   43.1980 C   0  0  0  0  0  0  0  0  0  0  0  0
   37.0980   26.7160   41.8940 C   0  0  0  0  0  0  0  0  0  0  0  0
   37.4360   27.9240   41.3920 N   0  0  0  0  0  0  0  0  0  0  0  0
   37.0880   25.6350   40.9540 N   0  0  0  0  0  0  0  0  0  0  0  0
   36.5680   25.8720   39.7570 C   0  0  0  0  0  0  0  0  0  0  0  0
   36.5160   24.8870   38.7840 C   0  0  0  0  0  0  0  0  0  0  0  0
   37.0380   23.6410   39.1360 C   0  0  0  0  0  0  0  0  0  0  0  0
   37.0020   22.7240   38.2630 O   0  0  0  0  0  0  0  0  0  0  0  0
   37.5580   23.4570   40.3760 N   0  0  0  0  0  0  0  0  0  0  0  0
   37.5940   24.4360   41.3000 C   0  0  0  0  0  0  0  0  0  0  0  0
   38.0840   24.2140   42.4310 O   0  0  0  0  0  0  0  0  0  0  0  0
   40.6270   34.1090   40.1460 C   0  0  0  0  0  0  0  0  0  0  0  0
   40.2130   35.4190   40.4900 C   0  0  0  0  0  0  0  0  0  0  0  0
   40.6290   36.5420   39.7800 C   0  0  0  0  0  0  0  0  0  0  0  0
   41.4600   36.3100   38.7330 N   0  0  0  0  0  0  0  0  0  0  0  0
   41.8620   35.0910   38.3900 C   0  0  0  0  0  0  0  0  0  0  0  0
   41.4500   34.0250   39.0860 N   0  0  0  0  0  0  0  0  0  0  0  0
   42.3770   32.7495   41.4275 H   0  0  0  0  0  0  0  0  0  0  0  0
   42.1647   30.5944   42.6153 H   0  0  0  0  0  0  0  0  0  0  0  0
   39.9479   29.4303   42.6362 H   0  0  0  0  0  0  0  0  0  0  0  0
   35.7094   30.2916   40.8773 H   0  0  0  0  0  0  0  0  0  0  0  0
   36.0180   32.5063   39.6831 H   0  0  0  0  0  0  0  0  0  0  0  0
   38.1823   33.6147   39.6881 H   0  0  0  0  0  0  0  0  0  0  0  0
   37.1873   29.6587   44.1642 H   0  0  0  0  0  0  0  0  0  0  0  0
   36.5796   27.4949   45.0694 H   0  0  0  0  0  0  0  0  0  0  0  0
   36.5093   25.4709   43.5717 H   0  0  0  0  0  0  0  0  0  0  0  0
   36.1694   26.8722   39.5319 H   0  0  0  0  0  0  0  0  0  0  0  0
   36.0870   25.0763   37.7889 H   0  0  0  0  0  0  0  0  0  0  0  0
   37.9402   22.5322   40.6200 H   0  0  0  0  0  0  0  0  0  0  0  0
   39.5388   35.5540   41.3486 H   0  0  0  0  0  0  0  0  0  0  0  0
   40.3033   37.5569   40.0517 H   0  0  0  0  0  0  0  0  0  0  0  0
   42.5359   34.9576   37.5309 H   0  0  0  0  0  0  0  0  0  0  0  0
  1 10  1  0
  1  2  2  0
  2  3  1  0
  3  4  2  0
  5  6  2  0
  5  4  1  0
  6 11  1  0
  7  6  1  0
  8  9  1  0
  8  7  2  0
  9 10  2  0
 10  5  1  0
 11 12  2  0
 12 13  1  0
 14 13  2  0
 15 14  1  0
 16 15  2  0
 16 11  1  0
 17 23  1  0
 17 15  1  0
 18 17  1  0
 19 20  1  0
 19 18  2  0
 20 22  1  0
 21 20  2  0
 22 23  1  0
 23 24  2  0
 25 26  2  0
 25  1  1  0
 27 26  1  0
 28 27  2  0
 29 28  1  0
 29 30  2  0
 30 25  1  0
  2 31  1  0
  3 32  1  0
  4 33  1  0
  7 34  1  0
  8 35  1  0
  9 36  1  0
 12 37  1  0
 13 38  1  0
 14 39  1  0
 18 40  1  0
 19 41  1  0
 22 42  1  0
 26 43  1  0
 27 44  1  0
 29 45  1  0
M  END
>  <minimizedAffinity>  (1) 
-7.33921862

>  <minimizedRMSD>  (1) 
2.62666416

$$$$
