
     RDKit          3D

 38 41  0  0  0  0  0  0  0  0999 V2000
   36.7970   26.7080   42.7490 C   0  0  0  0  0  0  0  0  0  0  0  0
   37.3670   30.2960   41.6710 C   0  0  0  0  0  0  0  0  0  0  0  0
   37.1830   29.1500   42.5020 C   0  0  0  0  0  0  0  0  0  0  0  0
   36.9930   27.9240   41.9250 C   0  0  0  0  0  0  0  0  0  0  0  0
   36.9900   27.8670   40.5700 N   0  0  0  0  0  0  0  0  0  0  0  0
   37.1640   28.9490   39.7810 C   0  0  0  0  0  0  0  0  0  0  0  0
   37.3480   30.1360   40.3360 N   0  0  0  0  0  0  0  0  0  0  0  0
   37.1460   28.7970   38.3650 N   0  0  0  0  0  0  0  0  0  0  0  0
   37.2540   27.6780   37.6250 C   0  0  0  0  0  0  0  0  0  0  0  0
   37.2090   27.7740   36.2480 C   0  0  0  0  0  0  0  0  0  0  0  0
   37.0570   29.0030   35.6390 C   0  0  0  0  0  0  0  0  0  0  0  0
   37.0140   29.0780   34.2190 N   0  0  0  0  0  0  0  0  0  0  0  0
   36.9520   30.1040   36.4070 N   0  0  0  0  0  0  0  0  0  0  0  0
   36.9970   30.0050   37.7630 C   0  0  0  0  0  0  0  0  0  0  0  0
   36.8840   31.1230   38.3300 O   0  0  0  0  0  0  0  0  0  0  0  0
   37.5750   25.5870   42.1960 C   0  0  0  0  0  0  0  0  0  0  0  0
   38.8410   25.1510   42.2990 C   0  0  0  0  0  0  0  0  0  0  0  0
   39.2890   24.0470   41.6520 C   0  0  0  0  0  0  0  0  0  0  0  0
   38.2530   23.4280   40.8660 C   0  0  0  0  0  0  0  0  0  0  0  0
   36.8200   24.4040   41.0980 S   0  0  0  0  0  0  0  0  0  0  0  0
   38.3770   22.2300   40.0450 C   0  0  0  0  0  0  0  0  0  0  0  0
   39.0870   22.1660   38.8820 C   0  0  0  0  0  0  0  0  0  0  0  0
   38.9150   20.8470   38.4710 C   0  0  0  0  0  0  0  0  0  0  0  0
   38.1360   20.1870   39.3660 N   0  0  0  0  0  0  0  0  0  0  0  0
   37.8140   21.0580   40.3300 N   0  0  0  0  0  0  0  0  0  0  0  0
   37.1304   26.9088   43.7778 H   0  0  0  0  0  0  0  0  0  0  0  0
   35.7301   26.4404   42.7449 H   0  0  0  0  0  0  0  0  0  0  0  0
   37.5214   31.2909   42.1142 H   0  0  0  0  0  0  0  0  0  0  0  0
   37.1939   29.2517   43.5972 H   0  0  0  0  0  0  0  0  0  0  0  0
   37.3766   26.6989   38.1111 H   0  0  0  0  0  0  0  0  0  0  0  0
   37.2948   26.8658   35.6333 H   0  0  0  0  0  0  0  0  0  0  0  0
   36.9009   29.9904   33.7547 H   0  0  0  0  0  0  0  0  0  0  0  0
   37.0960   28.2199   33.6552 H   0  0  0  0  0  0  0  0  0  0  0  0
   39.5426   25.7121   42.9337 H   0  0  0  0  0  0  0  0  0  0  0  0
   40.3200   23.6694   41.7193 H   0  0  0  0  0  0  0  0  0  0  0  0
   39.6586   22.9652   38.3874 H   0  0  0  0  0  0  0  0  0  0  0  0
   39.3450   20.4064   37.5594 H   0  0  0  0  0  0  0  0  0  0  0  0
   37.8467   19.1999   39.3130 H   0  0  0  0  0  0  0  0  0  0  0  0
  2  3  2  0
  4  3  1  0
  4  1  1  0
  5  4  2  0
  6  7  2  0
  6  5  1  0
  7  2  1  0
  8  6  1  0
  9  8  1  0
 10  9  2  0
 11 10  1  0
 11 13  2  0
 12 11  1  0
 13 14  1  0
 14 15  2  0
 14  8  1  0
 16 17  2  0
 16  1  1  0
 18 17  1  0
 19 20  1  0
 19 18  2  0
 20 16  1  0
 21 25  2  0
 21 19  1  0
 22 21  1  0
 23 22  2  0
 23 24  1  0
 24 25  1  0
  1 26  1  0
  1 27  1  0
  2 28  1  0
  3 29  1  0
  9 30  1  0
 10 31  1  0
 12 32  1  0
 12 33  1  0
 17 34  1  0
 18 35  1  0
 22 36  1  0
 23 37  1  0
 24 38  1  0
M  ISO  8  26   8  27   8  28  14  29  14  30  14  31  14  34  14  35  14
M  ISO  3  36  14  37  14  38   9
M  END
>  <minimizedAffinity>  (1) 
-5.4481802

>  <minimizedRMSD>  (1) 
3.20943022

$$$$
