
     RDKit          3D

 39 42  0  0  0  0  0  0  0  0999 V2000
   38.7730   28.4530   39.4650 C   0  0  0  0  0  0  0  0  0  0  0  0
   38.0910   27.8240   40.5390 C   0  0  0  0  0  0  0  0  0  0  0  0
   37.4370   28.6300   41.4860 C   0  0  0  0  0  0  0  0  0  0  0  0
   37.4750   29.9930   41.3470 N   0  0  0  0  0  0  0  0  0  0  0  0
   38.1410   30.5460   40.3020 C   0  0  0  0  0  0  0  0  0  0  0  0
   38.7820   29.7920   39.3720 N   0  0  0  0  0  0  0  0  0  0  0  0
   38.1890   32.0000   40.1430 C   0  0  0  0  0  0  0  0  0  0  0  0
   37.1310   32.8560   39.7970 C   0  0  0  0  0  0  0  0  0  0  0  0
   37.6290   34.0870   39.7690 N   0  0  0  0  0  0  0  0  0  0  0  0
   38.9530   34.1010   40.0760 C   0  0  0  0  0  0  0  0  0  0  0  0
   39.8210   35.1640   40.1550 C   0  0  0  0  0  0  0  0  0  0  0  0
   41.1430   34.8810   40.4950 C   0  0  0  0  0  0  0  0  0  0  0  0
   41.5340   33.5950   40.7370 C   0  0  0  0  0  0  0  0  0  0  0  0
   40.6520   32.5340   40.6550 C   0  0  0  0  0  0  0  0  0  0  0  0
   39.3250   32.8010   40.3150 C   0  0  0  0  0  0  0  0  0  0  0  0
   38.0820   26.4040   40.6390 N   0  0  0  0  0  0  0  0  0  0  0  0
   39.1270   25.8500   41.3000 C   0  0  0  0  0  0  0  0  0  0  0  0
   39.2110   24.4740   41.4520 C   0  0  0  0  0  0  0  0  0  0  0  0
   38.1930   23.7120   40.9040 C   0  0  0  0  0  0  0  0  0  0  0  0
   38.2020   22.2820   41.0160 N   0  0  0  0  0  0  0  0  0  0  0  0
   37.1550   24.2960   40.2470 N   0  0  0  0  0  0  0  0  0  0  0  0
   37.0960   25.6470   40.1110 C   0  0  0  0  0  0  0  0  0  0  0  0
   36.1520   26.2290   39.5090 O   0  0  0  0  0  0  0  0  0  0  0  0
   36.7670   28.0650   42.5370 O   0  0  0  0  0  0  0  0  0  0  0  0
   37.2950   28.1350   43.8400 C   0  0  0  0  0  0  0  0  0  0  0  0
   36.2910   27.8830   44.7400 F   0  0  0  0  0  0  0  0  0  0  0  0
   37.8860   29.3740   44.0940 F   0  0  0  0  0  0  0  0  0  0  0  0
   38.2720   27.1460   43.9230 F   0  0  0  0  0  0  0  0  0  0  0  0
   39.2931   27.8445   38.7105 H   0  0  0  0  0  0  0  0  0  0  0  0
   36.0911   32.5637   39.5893 H   0  0  0  0  0  0  0  0  0  0  0  0
   37.0792   34.9280   39.5424 H   0  0  0  0  0  0  0  0  0  0  0  0
   39.4869   36.1934   39.9584 H   0  0  0  0  0  0  0  0  0  0  0  0
   41.8755   35.6983   40.5688 H   0  0  0  0  0  0  0  0  0  0  0  0
   42.5824   33.3977   41.0052 H   0  0  0  0  0  0  0  0  0  0  0  0
   40.9875   31.5052   40.8527 H   0  0  0  0  0  0  0  0  0  0  0  0
   39.9134   26.4954   41.7185 H   0  0  0  0  0  0  0  0  0  0  0  0
   40.0518   24.0072   41.9860 H   0  0  0  0  0  0  0  0  0  0  0  0
   37.4378   21.7283   40.6033 H   0  0  0  0  0  0  0  0  0  0  0  0
   38.9726   21.8089   41.5091 H   0  0  0  0  0  0  0  0  0  0  0  0
  1  2  2  0
  2 16  1  0
  2  3  1  0
  3 24  1  0
  4  3  2  0
  5  4  1  0
  6  1  1  0
  6  5  2  0
  7  5  1  0
  7 15  1  0
  8  7  2  0
  9  8  1  0
  9 10  1  0
 10 11  2  0
 10 15  1  0
 11 12  1  0
 12 13  2  0
 14 13  1  0
 15 14  2  0
 16 17  1  0
 17 18  2  0
 19 20  1  0
 19 18  1  0
 21 19  2  0
 22 21  1  0
 22 16  1  0
 23 22  2  0
 24 25  1  0
 25 28  1  0
 25 27  1  0
 25 26  1  0
  1 29  1  0
  8 30  1  0
  9 31  1  0
 11 32  1  0
 12 33  1  0
 13 34  1  0
 14 35  1  0
 17 36  1  0
 18 37  1  0
 20 38  1  0
 20 39  1  0
M  END
>  <minimizedAffinity>  (1) 
-7.07000303

>  <minimizedRMSD>  (1) 
7.8571682

$$$$
