
     RDKit          3D

 28 31  0  0  0  0  0  0  0  0999 V2000
   40.2720   27.0890   43.3800 C   0  0  0  0  0  0  0  0  0  0  0  0
   40.4630   25.7430   43.4260 C   0  0  0  0  0  0  0  0  0  0  0  0
   41.7670   25.5370   43.8600 C   0  0  0  0  0  0  0  0  0  0  0  0
   42.2790   26.7740   44.0470 N   0  0  0  0  0  0  0  0  0  0  0  0
   41.4040   27.6850   43.7670 N   0  0  0  0  0  0  0  0  0  0  0  0
   45.0110   27.7200   47.6700 N   0  0  0  0  0  0  0  0  0  0  0  0
   43.6970   27.5830   47.9550 C   0  0  0  0  0  0  0  0  0  0  0  0
   42.9790   27.3100   46.8530 N   0  0  0  0  0  0  0  0  0  0  0  0
   43.8790   27.2740   45.8260 C   0  0  0  0  0  0  0  0  0  0  0  0
   43.6070   27.0280   44.4960 C   0  0  0  0  0  0  0  0  0  0  0  0
   44.6750   27.0470   43.6740 N   0  0  0  0  0  0  0  0  0  0  0  0
   45.9330   27.2930   44.1260 C   0  0  0  0  0  0  0  0  0  0  0  0
   46.1280   27.5250   45.4390 N   0  0  0  0  0  0  0  0  0  0  0  0
   45.1230   27.5270   46.3400 C   0  0  0  0  0  0  0  0  0  0  0  0
   36.7050   27.8150   42.5320 C   0  0  0  0  0  0  0  0  0  0  0  0
   37.8440   27.0960   42.9230 C   0  0  0  0  0  0  0  0  0  0  0  0
   39.0590   27.7760   42.9820 C   0  0  0  0  0  0  0  0  0  0  0  0
   39.0860   29.1000   42.6590 N   0  0  0  0  0  0  0  0  0  0  0  0
   37.9580   29.7540   42.2860 C   0  0  0  0  0  0  0  0  0  0  0  0
   36.7740   29.1130   42.2230 N   0  0  0  0  0  0  0  0  0  0  0  0
   39.7269   24.9670   43.1691 H   0  0  0  0  0  0  0  0  0  0  0  0
   42.2740   24.5736   44.0176 H   0  0  0  0  0  0  0  0  0  0  0  0
   45.7712   27.9290   48.3328 H   0  0  0  0  0  0  0  0  0  0  0  0
   43.2690   27.6826   48.9634 H   0  0  0  0  0  0  0  0  0  0  0  0
   46.7827   27.3026   43.4275 H   0  0  0  0  0  0  0  0  0  0  0  0
   35.7347   27.2995   42.4786 H   0  0  0  0  0  0  0  0  0  0  0  0
   37.7802   26.0273   43.1755 H   0  0  0  0  0  0  0  0  0  0  0  0
   38.0101   30.8228   42.0312 H   0  0  0  0  0  0  0  0  0  0  0  0
  1  2  1  0
  1  5  2  0
  2  3  2  0
  3  4  1  0
  4 10  1  0
  5  4  1  0
  6  7  1  0
  8  7  2  0
  9 14  2  0
  9  8  1  0
 10  9  1  0
 11 12  1  0
 11 10  2  0
 12 13  2  0
 13 14  1  0
 14  6  1  0
 15 16  2  0
 16 17  1  0
 17  1  1  0
 18 17  2  0
 19 18  1  0
 20 19  2  0
 20 15  1  0
  2 21  1  0
  3 22  1  0
  6 23  1  0
  7 24  1  0
 12 25  1  0
 15 26  1  0
 16 27  1  0
 19 28  1  0
M  ISO  8  21  14  22  14  23   9  24  14  25  14  26  14  27  14  28  14
M  END
>  <minimizedAffinity>  (1) 
-4.46683884

>  <minimizedRMSD>  (1) 
4.94403791

$$$$
