
     RDKit          3D

 42 46  0  0  1  0  0  0  0  0999 V2000
   35.1870   29.3380   40.4650 C   0  0  0  0  0  0  0  0  0  0  0  0
   35.9830   28.5010   41.2720 C   0  0  0  0  0  0  0  0  0  0  0  0
   37.3440   28.7640   41.3790 C   0  0  0  0  0  0  0  0  0  0  0  0
   37.8010   29.8320   40.6820 N   0  0  0  0  0  0  0  0  0  0  0  0
   37.0420   30.6230   39.9170 C   0  0  0  0  0  0  0  0  0  0  0  0
   35.7190   30.3810   39.8030 N   0  0  0  0  0  0  0  0  0  0  0  0
   38.1700   27.9030   42.1950 C   0  0  0  0  0  0  0  0  0  0  0  0
   38.9690   28.2600   43.2580 C   0  0  0  0  0  0  0  0  0  0  0  0
   39.5710   27.1310   43.7330 N   0  0  0  0  0  0  0  0  0  0  0  0
   39.1990   26.0600   43.0270 C   0  0  0  0  0  0  0  0  0  0  0  0
   39.5000   24.7090   43.0770 C   0  0  0  0  0  0  0  0  0  0  0  0
   38.9440   23.7970   42.1800 C   0  0  0  0  0  0  0  0  0  0  0  0
   38.0830   24.2980   41.2420 C   0  0  0  0  0  0  0  0  0  0  0  0
   37.7740   25.6260   41.1750 C   0  0  0  0  0  0  0  0  0  0  0  0
   38.3280   26.5350   42.0700 C   0  0  0  0  0  0  0  0  0  0  0  0
   37.6560   31.7910   39.1940 C   0  0  1  0  0  0  0  0  0  0  0  0
   37.3870   33.1820   39.7670 C   0  0  0  0  0  0  0  0  0  0  0  0
   38.7320   32.5420   39.8410 C   0  0  2  0  0  0  0  0  0  0  0  0
   39.8710   33.0900   39.1710 N   0  0  0  0  0  0  0  0  0  0  0  0
   40.3400   32.4390   38.0850 C   0  0  0  0  0  0  0  0  0  0  0  0
   41.4340   32.8930   37.3740 C   0  0  0  0  0  0  0  0  0  0  0  0
   42.1010   34.0450   37.7480 C   0  0  0  0  0  0  0  0  0  0  0  0
   43.2010   34.4200   36.9590 N   0  0  0  0  0  0  0  0  0  0  0  0
   41.6080   34.6690   38.8340 N   0  0  0  0  0  0  0  0  0  0  0  0
   40.5410   34.2070   39.5100 C   0  0  0  0  0  0  0  0  0  0  0  0
   40.1240   34.8310   40.5170 O   0  0  0  0  0  0  0  0  0  0  0  0
   34.1098   29.1345   40.3747 H   0  0  0  0  0  0  0  0  0  0  0  0
   35.5344   27.6524   41.8092 H   0  0  0  0  0  0  0  0  0  0  0  0
   39.0994   29.2775   43.6551 H   0  0  0  0  0  0  0  0  0  0  0  0
   40.2244   27.1080   44.5289 H   0  0  0  0  0  0  0  0  0  0  0  0
   40.1973   24.3449   43.8459 H   0  0  0  0  0  0  0  0  0  0  0  0
   39.1864   22.7250   42.2246 H   0  0  0  0  0  0  0  0  0  0  0  0
   37.6248   23.6080   40.5181 H   0  0  0  0  0  0  0  0  0  0  0  0
   37.0770   25.9822   40.4022 H   0  0  0  0  0  0  0  0  0  0  0  0
   37.5418   31.3027   38.2150 H   0  0  0  0  0  0  0  0  0  0  0  0
   37.2141   34.0357   39.0952 H   0  0  0  0  0  0  0  0  0  0  0  0
   36.6781   33.6156   40.4877 H   0  0  0  0  0  0  0  0  0  0  0  0
   39.4377   32.2912   40.6466 H   0  0  0  0  0  0  0  0  0  0  0  0
   39.8353   31.5186   37.7562 H   0  0  0  0  0  0  0  0  0  0  0  0
   41.7803   32.3286   36.4956 H   0  0  0  0  0  0  0  0  0  0  0  0
   43.7354   35.2695   37.1909 H   0  0  0  0  0  0  0  0  0  0  0  0
   43.4732   33.8455   36.1486 H   0  0  0  0  0  0  0  0  0  0  0  0
  1  2  2  0
  2  3  1  0
  3  7  1  0
  4  3  2  0
  5  4  1  0
  6  5  2  0
  6  1  1  0
  7  8  2  0
  8  9  1  0
 10 11  2  0
 10  9  1  0
 12 11  1  0
 13 12  2  0
 14 13  1  0
 14 15  2  0
 15  7  1  0
 15 10  1  0
 16 17  1  0
 16 18  1  0
 16  5  1  0
 17 18  1  0
 19 25  1  0
 19 18  1  0
 20 19  1  0
 21 22  1  0
 21 20  2  0
 22 24  2  0
 23 22  1  0
 24 25  1  0
 25 26  2  0
  1 27  1  0
  2 28  1  0
  8 29  1  0
  9 30  1  0
 11 31  1  0
 12 32  1  0
 13 33  1  0
 14 34  1  0
 16 35  1  6
 17 36  1  0
 17 37  1  0
 18 38  1  1
 20 39  1  0
 21 40  1  0
 23 41  1  0
 23 42  1  0
M  ISO  8  27  14  28  14  29  14  30   9  31  14  32  14  33  14  34  14
M  ISO  6  35  13  36  13  37  13  38  13  39  14  40  14
M  END
>  <minimizedAffinity>  (1) 
-7.24554348

>  <minimizedRMSD>  (1) 
1.82142735

$$$$
