
     RDKit          3D

 35 38  0  0  1  0  0  0  0  0999 V2000
   37.9570   27.3690   42.7410 C   0  0  2  0  0  0  0  0  0  0  0  0
   39.0440   27.6570   43.6830 C   0  0  0  0  0  0  0  0  0  0  0  0
   39.7670   26.3350   43.8650 C   0  0  0  0  0  0  0  0  0  0  0  0
   39.3070   25.4580   42.7430 C   0  0  0  0  0  0  0  0  0  0  0  0
   38.5620   26.3720   41.7700 C   0  0  1  0  0  0  0  0  0  0  0  0
   37.5660   25.4350   41.1760 C   0  0  0  0  0  0  0  0  0  0  0  0
   36.8790   24.5430   41.9130 N   0  0  0  0  0  0  0  0  0  0  0  0
   36.0990   23.8800   41.0860 O   0  0  0  0  0  0  0  0  0  0  0  0
   36.2900   24.3400   39.8650 C   0  0  0  0  0  0  0  0  0  0  0  0
   37.1960   25.3120   39.8800 N   0  0  0  0  0  0  0  0  0  0  0  0
   35.6140   23.8580   38.7080 N   0  0  0  0  0  0  0  0  0  0  0  0
   35.6610   22.5210   38.4510 C   0  0  0  0  0  0  0  0  0  0  0  0
   34.9320   22.3490   37.2890 C   0  0  0  0  0  0  0  0  0  0  0  0
   34.4690   23.5300   36.8680 N   0  0  0  0  0  0  0  0  0  0  0  0
   34.8920   24.4740   37.7530 C   0  0  0  0  0  0  0  0  0  0  0  0
   38.0060   29.7750   41.9250 C   0  0  0  0  0  0  0  0  0  0  0  0
   37.3700   28.5120   42.0610 C   0  0  0  0  0  0  0  0  0  0  0  0
   36.1140   28.3440   41.5060 C   0  0  0  0  0  0  0  0  0  0  0  0
   35.5400   29.4110   40.8490 N   0  0  0  0  0  0  0  0  0  0  0  0
   36.1800   30.6210   40.7350 C   0  0  0  0  0  0  0  0  0  0  0  0
   37.4330   30.7920   41.2870 N   0  0  0  0  0  0  0  0  0  0  0  0
   37.0862   26.9838   43.2918 H   0  0  0  0  0  0  0  0  0  0  0  0
   39.7241   28.4156   43.2683 H   0  0  0  0  0  0  0  0  0  0  0  0
   38.6691   28.0575   44.6365 H   0  0  0  0  0  0  0  0  0  0  0  0
   40.8556   26.4839   43.8126 H   0  0  0  0  0  0  0  0  0  0  0  0
   39.5471   25.8860   44.8448 H   0  0  0  0  0  0  0  0  0  0  0  0
   40.1695   24.9915   42.2445 H   0  0  0  0  0  0  0  0  0  0  0  0
   38.6608   24.6454   43.1065 H   0  0  0  0  0  0  0  0  0  0  0  0
   39.0949   26.8956   40.9626 H   0  0  0  0  0  0  0  0  0  0  0  0
   36.1698   21.7448   39.0414 H   0  0  0  0  0  0  0  0  0  0  0  0
   34.7591   21.3857   36.7868 H   0  0  0  0  0  0  0  0  0  0  0  0
   34.6807   25.5521   37.6975 H   0  0  0  0  0  0  0  0  0  0  0  0
   39.0056   29.9167   42.3618 H   0  0  0  0  0  0  0  0  0  0  0  0
   35.5863   27.3823   41.5871 H   0  0  0  0  0  0  0  0  0  0  0  0
   35.6941   31.4529   40.2041 H   0  0  0  0  0  0  0  0  0  0  0  0
  1  2  1  0
  2  3  1  0
  4  3  1  0
  5  1  1  0
  5  4  1  0
  6  5  1  0
  6  7  2  0
  8  7  1  0
  9 10  2  0
  9  8  1  0
 10  6  1  0
 11  9  1  0
 12 11  1  0
 13 12  2  0
 14 13  1  0
 14 15  2  0
 15 11  1  0
 16 17  2  0
 17  1  1  0
 18 17  1  0
 19 18  2  0
 20 19  1  0
 20 21  2  0
 21 16  1  0
  1 22  1  1
  2 23  1  0
  2 24  1  0
  3 25  1  0
  3 26  1  0
  4 27  1  0
  4 28  1  0
  5 29  1  6
 12 30  1  0
 13 31  1  0
 15 32  1  0
 16 33  1  0
 18 34  1  0
 20 35  1  0
M  ISO  8  22  13  23  13  24  13  25  13  26  13  27  13  28  13  29  13
M  ISO  6  30  14  31  14  32  14  33  14  34  14  35  14
M  END
>  <minimizedAffinity>  (1) 
-5.05217171

>  <minimizedRMSD>  (1) 
0.545645833

$$$$
