
     RDKit          3D

 40 44  0  0  0  0  0  0  0  0999 V2000
   44.6360   26.4530   44.4650 C   0  0  0  0  0  0  0  0  0  0  0  0
   43.4720   26.4790   43.6690 C   0  0  0  0  0  0  0  0  0  0  0  0
   42.2810   26.9570   44.2110 C   0  0  0  0  0  0  0  0  0  0  0  0
   42.3210   27.3840   45.5200 N   0  0  0  0  0  0  0  0  0  0  0  0
   43.4390   27.3480   46.2480 C   0  0  0  0  0  0  0  0  0  0  0  0
   44.5990   26.8850   45.7290 N   0  0  0  0  0  0  0  0  0  0  0  0
   43.4520   26.0200   42.2820 C   0  0  0  0  0  0  0  0  0  0  0  0
   44.4910   26.1960   41.3930 C   0  0  0  0  0  0  0  0  0  0  0  0
   44.5040   25.7750   40.0780 C   0  0  0  0  0  0  0  0  0  0  0  0
   43.3880   25.1330   39.6330 N   0  0  0  0  0  0  0  0  0  0  0  0
   42.3510   24.9490   40.4920 C   0  0  0  0  0  0  0  0  0  0  0  0
   42.3930   25.3790   41.7610 N   0  0  0  0  0  0  0  0  0  0  0  0
   43.3920   27.8320   47.6630 C   0  0  0  0  0  0  0  0  0  0  0  0
   43.3290   29.2120   47.7070 F   0  0  0  0  0  0  0  0  0  0  0  0
   42.2160   27.3990   48.2790 F   0  0  0  0  0  0  0  0  0  0  0  0
   44.5210   27.4430   48.3850 F   0  0  0  0  0  0  0  0  0  0  0  0
   41.1690   26.9750   43.4330 O   0  0  0  0  0  0  0  0  0  0  0  0
   37.2240   29.1890   43.2740 N   0  0  0  0  0  0  0  0  0  0  0  0
   37.0740   27.9290   43.7230 C   0  0  0  0  0  0  0  0  0  0  0  0
   38.3040   27.3600   43.7320 N   0  0  0  0  0  0  0  0  0  0  0  0
   39.2360   28.2450   43.2930 C   0  0  0  0  0  0  0  0  0  0  0  0
   40.6060   28.1980   43.1020 C   0  0  0  0  0  0  0  0  0  0  0  0
   41.2430   29.2970   42.6340 N   0  0  0  0  0  0  0  0  0  0  0  0
   40.5240   30.4060   42.3660 C   0  0  0  0  0  0  0  0  0  0  0  0
   39.1820   30.4900   42.5390 N   0  0  0  0  0  0  0  0  0  0  0  0
   38.5140   29.4010   43.0090 C   0  0  0  0  0  0  0  0  0  0  0  0
   41.2130   31.5520   41.8740 N   0  0  0  0  0  0  0  0  0  0  0  0
   42.4040   32.1560   42.0420 C   0  0  0  0  0  0  0  0  0  0  0  0
   42.4420   33.2900   41.2240 C   0  0  0  0  0  0  0  0  0  0  0  0
   41.2680   33.3600   40.5660 N   0  0  0  0  0  0  0  0  0  0  0  0
   40.5340   32.3110   40.9630 C   0  0  0  0  0  0  0  0  0  0  0  0
   45.5791   26.0752   44.0432 H   0  0  0  0  0  0  0  0  0  0  0  0
   45.3866   26.7165   41.7631 H   0  0  0  0  0  0  0  0  0  0  0  0
   45.3708   25.9491   39.4235 H   0  0  0  0  0  0  0  0  0  0  0  0
   41.4488   24.4309   40.1347 H   0  0  0  0  0  0  0  0  0  0  0  0
   36.4667   29.8768   43.1546 H   0  0  0  0  0  0  0  0  0  0  0  0
   36.1306   27.4511   44.0257 H   0  0  0  0  0  0  0  0  0  0  0  0
   43.2100   31.8159   42.7088 H   0  0  0  0  0  0  0  0  0  0  0  0
   43.2795   33.9974   41.1340 H   0  0  0  0  0  0  0  0  0  0  0  0
   39.5184   32.0902   40.6027 H   0  0  0  0  0  0  0  0  0  0  0  0
  1  6  2  0
  2  3  2  0
  2  1  1  0
  3  4  1  0
  4  5  2  0
  5 13  1  0
  6  5  1  0
  7  2  1  0
  8  7  2  0
  9  8  1  0
 10  9  2  0
 10 11  1  0
 11 12  2  0
 12  7  1  0
 13 14  1  0
 13 15  1  0
 13 16  1  0
 17  3  1  0
 18 19  1  0
 19 20  2  0
 21 20  1  0
 22 21  2  0
 22 17  1  0
 23 22  1  0
 24 25  1  0
 24 23  2  0
 25 26  2  0
 26 18  1  0
 26 21  1  0
 27 28  1  0
 27 24  1  0
 29 28  2  0
 30 31  2  0
 30 29  1  0
 31 27  1  0
  1 32  1  0
  8 33  1  0
  9 34  1  0
 11 35  1  0
 18 36  1  0
 19 37  1  0
 28 38  1  0
 29 39  1  0
 31 40  1  0
M  ISO  8  32  14  33  14  34  14  35  14  36   9  37  14  38  14  39  14
M  ISO  1  40  14
M  END
>  <minimizedAffinity>  (1) 
-6.356318

>  <minimizedRMSD>  (1) 
0.121043108

$$$$
