
     RDKit          3D

 44 48  0  0  0  0  0  0  0  0999 V2000
   40.2680   31.9720   39.0420 N   0  0  0  0  0  0  0  0  0  0  0  0
   39.8000   32.1290   37.7860 C   0  0  0  0  0  0  0  0  0  0  0  0
   38.5890   31.5180   37.5210 C   0  0  0  0  0  0  0  0  0  0  0  0
   37.8560   30.7870   38.4210 C   0  0  0  0  0  0  0  0  0  0  0  0
   36.7720   30.2520   38.1470 O   0  0  0  0  0  0  0  0  0  0  0  0
   38.4140   30.6900   39.6530 N   0  0  0  0  0  0  0  0  0  0  0  0
   39.5890   31.2640   39.9690 C   0  0  0  0  0  0  0  0  0  0  0  0
   40.0330   31.1180   41.1540 O   0  0  0  0  0  0  0  0  0  0  0  0
   37.7210   29.9460   40.6630 C   0  0  0  0  0  0  0  0  0  0  0  0
   36.7830   30.2930   41.6080 C   0  0  0  0  0  0  0  0  0  0  0  0
   36.4420   29.2040   42.3310 N   0  0  0  0  0  0  0  0  0  0  0  0
   37.1680   28.1450   41.8460 C   0  0  0  0  0  0  0  0  0  0  0  0
   37.2180   26.8180   42.2030 C   0  0  0  0  0  0  0  0  0  0  0  0
   38.0320   25.9080   41.5720 C   0  0  0  0  0  0  0  0  0  0  0  0
   38.8420   26.3400   40.5290 C   0  0  0  0  0  0  0  0  0  0  0  0
   38.7770   27.6720   40.1870 C   0  0  0  0  0  0  0  0  0  0  0  0
   37.9560   28.5940   40.8210 C   0  0  0  0  0  0  0  0  0  0  0  0
   41.5300   32.5600   39.4670 C   0  0  0  0  0  0  0  0  0  0  0  0
   40.1150   35.9320   40.0340 C   0  0  0  0  0  0  0  0  0  0  0  0
   40.9830   36.4560   41.0090 C   0  0  0  0  0  0  0  0  0  0  0  0
   42.0250   35.6700   41.4570 C   0  0  0  0  0  0  0  0  0  0  0  0
   42.1490   34.4460   40.9340 N   0  0  0  0  0  0  0  0  0  0  0  0
   41.3080   33.9450   39.9920 C   0  0  0  0  0  0  0  0  0  0  0  0
   40.3160   34.6950   39.5660 N   0  0  0  0  0  0  0  0  0  0  0  0
   42.9400   36.1400   42.4430 N   0  0  0  0  0  0  0  0  0  0  0  0
   42.6640   37.0050   43.4360 C   0  0  0  0  0  0  0  0  0  0  0  0
   43.8500   37.1790   44.1570 C   0  0  0  0  0  0  0  0  0  0  0  0
   44.8120   36.4090   43.5740 N   0  0  0  0  0  0  0  0  0  0  0  0
   44.2340   35.7770   42.5230 C   0  0  0  0  0  0  0  0  0  0  0  0
   40.3459   32.7048   37.0241 H   0  0  0  0  0  0  0  0  0  0  0  0
   38.1797   31.6267   36.5058 H   0  0  0  0  0  0  0  0  0  0  0  0
   36.3731   31.3035   41.7527 H   0  0  0  0  0  0  0  0  0  0  0  0
   35.7621   29.1739   43.1041 H   0  0  0  0  0  0  0  0  0  0  0  0
   36.5796   26.4701   43.0285 H   0  0  0  0  0  0  0  0  0  0  0  0
   38.0421   24.8543   41.8877 H   0  0  0  0  0  0  0  0  0  0  0  0
   39.5089   25.6452   39.9975 H   0  0  0  0  0  0  0  0  0  0  0  0
   39.4133   28.0264   39.3626 H   0  0  0  0  0  0  0  0  0  0  0  0
   41.9713   31.9380   40.2596 H   0  0  0  0  0  0  0  0  0  0  0  0
   42.2101   32.6095   38.6039 H   0  0  0  0  0  0  0  0  0  0  0  0
   39.2758   36.5359   39.6585 H   0  0  0  0  0  0  0  0  0  0  0  0
   40.8343   37.4710   41.4060 H   0  0  0  0  0  0  0  0  0  0  0  0
   41.6944   37.4824   43.6409 H   0  0  0  0  0  0  0  0  0  0  0  0
   43.9829   37.8233   45.0386 H   0  0  0  0  0  0  0  0  0  0  0  0
   44.7423   35.0778   41.8428 H   0  0  0  0  0  0  0  0  0  0  0  0
  1 18  1  0
  1  7  1  0
  2  1  1  0
  3  2  2  0
  3  4  1  0
  4  6  1  0
  5  4  2  0
  6  7  1  0
  6  9  1  0
  7  8  2  0
  9 17  1  0
  9 10  2  0
 10 11  1  0
 12 13  2  0
 12 11  1  0
 14 13  1  0
 15 14  2  0
 16 15  1  0
 16 17  2  0
 17 12  1  0
 18 23  1  0
 19 20  2  0
 20 21  1  0
 21 25  1  0
 22 21  2  0
 23 22  1  0
 24 23  2  0
 24 19  1  0
 25 29  1  0
 25 26  1  0
 26 27  2  0
 28 27  1  0
 29 28  2  0
  2 30  1  0
  3 31  1  0
 10 32  1  0
 11 33  1  0
 13 34  1  0
 14 35  1  0
 15 36  1  0
 16 37  1  0
 18 38  1  0
 18 39  1  0
 19 40  1  0
 20 41  1  0
 26 42  1  0
 27 43  1  0
 29 44  1  0
M  END
>  <minimizedAffinity>  (1) 
-7.15413904

>  <minimizedRMSD>  (1) 
8.96549988

$$$$
