
     RDKit          3D

 39 42  0  0  0  0  0  0  0  0999 V2000
   37.3020   29.3440   39.8830 C   0  0  0  0  0  0  0  0  0  0  0  0
   36.4040   29.4430   38.8210 C   0  0  0  0  0  0  0  0  0  0  0  0
   36.5520   30.3260   37.7670 C   0  0  0  0  0  0  0  0  0  0  0  0
   37.6600   31.1180   37.8280 N   0  0  0  0  0  0  0  0  0  0  0  0
   38.5380   31.0520   38.8210 C   0  0  0  0  0  0  0  0  0  0  0  0
   38.3520   30.1810   39.8200 N   0  0  0  0  0  0  0  0  0  0  0  0
   39.6300   31.9570   38.7100 N   0  0  0  0  0  0  0  0  0  0  0  0
   39.5170   33.1200   39.3580 C   0  0  0  0  0  0  0  0  0  0  0  0
   40.5640   34.0300   39.2720 C   0  0  0  0  0  0  0  0  0  0  0  0
   40.4770   35.3210   39.9710 C   0  0  0  0  0  0  0  0  0  0  0  0
   41.6850   33.7260   38.5350 C   0  0  0  0  0  0  0  0  0  0  0  0
   42.6350   34.5330   38.4470 O   0  0  0  0  0  0  0  0  0  0  0  0
   41.7360   32.5310   37.9030 N   0  0  0  0  0  0  0  0  0  0  0  0
   40.7290   31.6420   37.9780 C   0  0  0  0  0  0  0  0  0  0  0  0
   40.7730   30.5280   37.3920 O   0  0  0  0  0  0  0  0  0  0  0  0
   37.2720   28.5260   41.0470 C   0  0  0  0  0  0  0  0  0  0  0  0
   37.4340   29.1910   42.2810 C   0  0  0  0  0  0  0  0  0  0  0  0
   37.4340   28.5770   43.5150 C   0  0  0  0  0  0  0  0  0  0  0  0
   37.2640   27.2070   43.5650 C   0  0  0  0  0  0  0  0  0  0  0  0
   37.0990   26.4940   42.3930 C   0  0  0  0  0  0  0  0  0  0  0  0
   36.9410   25.1260   42.4410 C   0  0  0  0  0  0  0  0  0  0  0  0
   36.7850   24.3650   41.2970 C   0  0  0  0  0  0  0  0  0  0  0  0
   36.7990   25.0780   40.1040 C   0  0  0  0  0  0  0  0  0  0  0  0
   36.9590   26.4340   40.0980 C   0  0  0  0  0  0  0  0  0  0  0  0
   37.1140   27.1860   41.2200 C   0  0  0  0  0  0  0  0  0  0  0  0
   35.5264   28.7799   38.8215 H   0  0  0  0  0  0  0  0  0  0  0  0
   35.8289   30.3850   36.9402 H   0  0  0  0  0  0  0  0  0  0  0  0
   38.6165   33.3518   39.9457 H   0  0  0  0  0  0  0  0  0  0  0  0
   40.4885   35.1511   41.0577 H   0  0  0  0  0  0  0  0  0  0  0  0
   41.3349   35.9492   39.6890 H   0  0  0  0  0  0  0  0  0  0  0  0
   39.5426   35.8284   39.6890 H   0  0  0  0  0  0  0  0  0  0  0  0
   42.5707   32.2947   37.3478 H   0  0  0  0  0  0  0  0  0  0  0  0
   37.5707   30.2822   42.2562 H   0  0  0  0  0  0  0  0  0  0  0  0
   37.5660   29.1630   44.4365 H   0  0  0  0  0  0  0  0  0  0  0  0
   37.2600   26.6859   44.5337 H   0  0  0  0  0  0  0  0  0  0  0  0
   36.9389   24.6237   43.4196 H   0  0  0  0  0  0  0  0  0  0  0  0
   36.6588   23.2727   41.3289 H   0  0  0  0  0  0  0  0  0  0  0  0
   36.6794   24.5421   39.1508 H   0  0  0  0  0  0  0  0  0  0  0  0
   36.9627   26.9494   39.1262 H   0  0  0  0  0  0  0  0  0  0  0  0
  1 16  1  0
  2  1  2  0
  3  4  2  0
  3  2  1  0
  4  5  1  0
  5  6  2  0
  6  1  1  0
  7  5  1  0
  7  8  1  0
  9  8  2  0
  9 10  1  0
 11  9  1  0
 12 11  2  0
 13 14  1  0
 13 11  1  0
 14  7  1  0
 15 14  2  0
 16 25  1  0
 16 17  2  0
 17 18  1  0
 18 19  2  0
 20 21  2  0
 20 19  1  0
 22 21  1  0
 23 22  2  0
 24 23  1  0
 24 25  2  0
 25 20  1  0
  2 26  1  0
  3 27  1  0
  8 28  1  0
 10 29  1  0
 10 30  1  0
 10 31  1  0
 13 32  1  0
 17 33  1  0
 18 34  1  0
 19 35  1  0
 21 36  1  0
 22 37  1  0
 23 38  1  0
 24 39  1  0
M  END
>  <minimizedAffinity>  (1) 
-7.17481518

>  <minimizedRMSD>  (1) 
1.67317891

$$$$
