
     RDKit          3D

 43 46  0  0  1  0  0  0  0  0999 V2000
   36.8730   30.8730   40.3320 C   0  0  1  0  0  0  0  0  0  0  0  0
   37.5360   32.1730   40.5260 C   0  0  0  0  0  0  0  0  0  0  0  0
   37.3200   32.8380   39.1730 C   0  0  0  0  0  0  0  0  0  0  0  0
   37.1080   31.7170   38.1790 C   0  0  0  0  0  0  0  0  0  0  0  0
   37.3640   30.4430   38.9560 C   0  0  2  0  0  0  0  0  0  0  0  0
   38.6750   29.2090   43.0950 C   0  0  0  0  0  0  0  0  0  0  0  0
   37.7740   28.1300   43.4310 C   0  0  0  0  0  0  0  0  0  0  0  0
   36.5750   28.0040   42.6840 C   0  0  0  0  0  0  0  0  0  0  0  0
   36.3000   28.8880   41.6820 N   0  0  0  0  0  0  0  0  0  0  0  0
   37.1920   29.8880   41.4120 C   0  0  0  0  0  0  0  0  0  0  0  0
   38.3560   30.0540   42.0960 N   0  0  0  0  0  0  0  0  0  0  0  0
   36.6530   29.2900   38.4290 C   0  0  0  0  0  0  0  0  0  0  0  0
   35.4510   28.9730   37.8460 C   0  0  0  0  0  0  0  0  0  0  0  0
   35.1690   27.7020   37.4850 C   0  0  0  0  0  0  0  0  0  0  0  0
   36.1250   26.7240   37.7180 C   0  0  0  0  0  0  0  0  0  0  0  0
   37.5200   27.6640   38.5010 S   0  0  0  0  0  0  0  0  0  0  0  0
   36.0820   25.3780   37.4450 N   0  0  0  0  0  0  0  0  0  0  0  0
   35.4070   24.6340   38.3030 C   0  0  0  0  0  0  0  0  0  0  0  0
   35.2750   23.2500   38.1580 C   0  0  0  0  0  0  0  0  0  0  0  0
   34.5100   22.4150   39.1310 C   0  0  0  0  0  0  0  0  0  0  0  0
   35.9060   22.6860   37.0430 C   0  0  0  0  0  0  0  0  0  0  0  0
   35.8150   21.4480   36.8720 O   0  0  0  0  0  0  0  0  0  0  0  0
   36.5870   23.5110   36.1960 N   0  0  0  0  0  0  0  0  0  0  0  0
   36.6820   24.8420   36.3850 C   0  0  0  0  0  0  0  0  0  0  0  0
   37.3330   25.5440   35.5530 O   0  0  0  0  0  0  0  0  0  0  0  0
   35.7763   30.9371   40.3875 H   0  0  0  0  0  0  0  0  0  0  0  0
   37.0616   32.7478   41.3351 H   0  0  0  0  0  0  0  0  0  0  0  0
   38.5931   32.0944   40.8200 H   0  0  0  0  0  0  0  0  0  0  0  0
   36.4350   33.4904   39.2060 H   0  0  0  0  0  0  0  0  0  0  0  0
   38.1800   33.4640   38.8929 H   0  0  0  0  0  0  0  0  0  0  0  0
   37.8147   31.8061   37.3408 H   0  0  0  0  0  0  0  0  0  0  0  0
   36.0972   31.7379   37.7456 H   0  0  0  0  0  0  0  0  0  0  0  0
   38.4060   30.0918   38.9265 H   0  0  0  0  0  0  0  0  0  0  0  0
   39.6149   29.3392   43.6515 H   0  0  0  0  0  0  0  0  0  0  0  0
   38.0114   27.4267   44.2428 H   0  0  0  0  0  0  0  0  0  0  0  0
   35.8670   27.1937   42.9125 H   0  0  0  0  0  0  0  0  0  0  0  0
   34.7076   29.7645   37.6705 H   0  0  0  0  0  0  0  0  0  0  0  0
   34.2057   27.4490   37.0181 H   0  0  0  0  0  0  0  0  0  0  0  0
   34.9301   25.1228   39.1653 H   0  0  0  0  0  0  0  0  0  0  0  0
   34.7787   22.7083   40.1566 H   0  0  0  0  0  0  0  0  0  0  0  0
   33.4316   22.5675   38.9766 H   0  0  0  0  0  0  0  0  0  0  0  0
   34.7561   21.3540   38.9766 H   0  0  0  0  0  0  0  0  0  0  0  0
   37.0499   23.0974   35.3741 H   0  0  0  0  0  0  0  0  0  0  0  0
  1  2  1  0
  1 10  1  0
  3  2  1  0
  4  5  1  0
  4  3  1  0
  5  1  1  0
  6  7  2  0
  8  7  1  0
  9  8  2  0
 10  9  1  0
 10 11  2  0
 11  6  1  0
 12 16  1  0
 12  5  1  0
 13 12  2  0
 14 15  2  0
 14 13  1  0
 15 16  1  0
 17 15  1  0
 17 18  1  0
 19 18  2  0
 19 20  1  0
 21 19  1  0
 22 21  2  0
 23 24  1  0
 23 21  1  0
 24 17  1  0
 25 24  2  0
  1 26  1  6
  2 27  1  0
  2 28  1  0
  3 29  1  0
  3 30  1  0
  4 31  1  0
  4 32  1  0
  5 33  1  1
  6 34  1  0
  7 35  1  0
  8 36  1  0
 13 37  1  0
 14 38  1  0
 18 39  1  0
 20 40  1  0
 20 41  1  0
 20 42  1  0
 23 43  1  0
M  ISO  8  26  13  27  13  28  13  29  13  30  13  31  13  32  13  33  13
M  ISO  8  34  14  35  14  36  14  37  14  38  14  39  14  40   8  41   8
M  ISO  2  42   8  43   9
M  END
>  <minimizedAffinity>  (1) 
-5.14114046

>  <minimizedRMSD>  (1) 
0.735068023

$$$$
