
     RDKit          3D

 28 31  0  0  0  0  0  0  0  0999 V2000
   37.0760   29.8050   41.4620 C   0  0  0  0  0  0  0  0  0  0  0  0
   38.4840   29.8980   41.1730 C   0  0  0  0  0  0  0  0  0  0  0  0
   38.9700   31.0060   40.5600 C   0  0  0  0  0  0  0  0  0  0  0  0
   38.0660   31.9910   40.2490 N   0  0  0  0  0  0  0  0  0  0  0  0
   36.7440   31.8970   40.5230 C   0  0  0  0  0  0  0  0  0  0  0  0
   36.2500   30.7970   41.1330 N   0  0  0  0  0  0  0  0  0  0  0  0
   40.3690   31.2340   40.2140 C   0  0  0  0  0  0  0  0  0  0  0  0
   41.3510   30.7860   39.4880 N   0  0  0  0  0  0  0  0  0  0  0  0
   42.4210   31.4760   39.6340 O   0  0  0  0  0  0  0  0  0  0  0  0
   42.2540   32.4370   40.4610 C   0  0  0  0  0  0  0  0  0  0  0  0
   40.9880   32.2860   40.8180 N   0  0  0  0  0  0  0  0  0  0  0  0
   43.1160   33.4640   40.9540 N   0  0  0  0  0  0  0  0  0  0  0  0
   44.3900   33.6410   40.5980 C   0  0  0  0  0  0  0  0  0  0  0  0
   44.8860   34.6950   41.2520 N   0  0  0  0  0  0  0  0  0  0  0  0
   43.8970   35.2000   42.0430 C   0  0  0  0  0  0  0  0  0  0  0  0
   42.8040   34.4070   41.8330 N   0  0  0  0  0  0  0  0  0  0  0  0
   39.2800   28.7540   41.5760 C   0  0  0  0  0  0  0  0  0  0  0  0
   39.3560   27.6370   40.6640 C   0  0  0  0  0  0  0  0  0  0  0  0
   40.4300   26.4190   41.5170 S   0  0  0  0  0  0  0  0  0  0  0  0
   40.5950   27.6700   43.0050 C   0  0  0  0  0  0  0  0  0  0  0  0
   39.9740   28.5390   42.6660 N   0  0  0  0  0  0  0  0  0  0  0  0
   41.3510   27.4160   44.1730 O   0  0  0  0  0  0  0  0  0  0  0  0
   36.6794   28.9072   41.9586 H   0  0  0  0  0  0  0  0  0  0  0  0
   36.0682   32.7201   40.2478 H   0  0  0  0  0  0  0  0  0  0  0  0
   44.9437   33.0180   39.8801 H   0  0  0  0  0  0  0  0  0  0  0  0
   43.9650   36.0691   42.7139 H   0  0  0  0  0  0  0  0  0  0  0  0
   38.8772   27.5386   39.6786 H   0  0  0  0  0  0  0  0  0  0  0  0
   41.3934   28.0947   44.8925 H   0  0  0  0  0  0  0  0  0  0  0  0
  2  1  2  0
  2 17  1  0
  3  2  1  0
  4  5  1  0
  4  3  2  0
  5  6  2  0
  6  1  1  0
  7  3  1  0
  7 11  1  0
  8  9  1  0
  8  7  2  0
  9 10  1  0
 10 11  2  0
 10 12  1  0
 12 16  1  0
 13 12  1  0
 13 14  2  0
 14 15  1  0
 16 15  2  0
 17 21  1  0
 18 19  1  0
 18 17  2  0
 19 20  1  0
 20 22  1  0
 21 20  2  0
  1 23  1  0
  5 24  1  0
 13 25  1  0
 15 26  1  0
 18 27  1  0
 22 28  1  0
M  ISO  6  23  14  24  14  25  14  26  14  27  14  28   3
M  END
>  <minimizedAffinity>  (1) 
-4.4430933

>  <minimizedRMSD>  (1) 
0.247485027

$$$$
