
     RDKit          3D

 24 26  0  0  0  0  0  0  0  0999 V2000
   36.9720   31.4640   40.4810 C   0  0  0  0  0  0  0  0  0  0  0  0
   36.8770   31.5990   39.1190 N   0  0  0  0  0  0  0  0  0  0  0  0
   37.6870   32.5580   38.7510 O   0  0  0  0  0  0  0  0  0  0  0  0
   38.2820   33.0240   39.8330 C   0  0  0  0  0  0  0  0  0  0  0  0
   37.8620   32.3680   40.9260 N   0  0  0  0  0  0  0  0  0  0  0  0
   39.2600   34.1080   39.8120 C   0  0  0  0  0  0  0  0  0  0  0  0
   39.0500   35.4140   40.2190 C   0  0  0  0  0  0  0  0  0  0  0  0
   40.2170   36.1320   40.0440 C   0  0  0  0  0  0  0  0  0  0  0  0
   41.1190   35.2100   39.5220 C   0  0  0  0  0  0  0  0  0  0  0  0
   40.4930   34.0860   39.4220 O   0  0  0  0  0  0  0  0  0  0  0  0
   36.3210   30.5910   41.3580 O   0  0  0  0  0  0  0  0  0  0  0  0
   38.4400   28.3220   43.2390 C   0  0  0  0  0  0  0  0  0  0  0  0
   38.1090   27.1060   42.5820 C   0  0  0  0  0  0  0  0  0  0  0  0
   37.1740   27.1690   41.5340 C   0  0  0  0  0  0  0  0  0  0  0  0
   36.6470   28.3960   41.2210 N   0  0  0  0  0  0  0  0  0  0  0  0
   36.9880   29.5040   41.8630 C   0  0  0  0  0  0  0  0  0  0  0  0
   37.8730   29.4750   42.8620 N   0  0  0  0  0  0  0  0  0  0  0  0
   36.8680   25.9900   40.9140 O   0  0  0  0  0  0  0  0  0  0  0  0
   38.1065   35.8153   40.6174 H   0  0  0  0  0  0  0  0  0  0  0  0
   40.3937   37.1945   40.2673 H   0  0  0  0  0  0  0  0  0  0  0  0
   42.1665   35.4026   39.2469 H   0  0  0  0  0  0  0  0  0  0  0  0
   39.1678   28.3159   44.0638 H   0  0  0  0  0  0  0  0  0  0  0  0
   38.5669   26.1519   42.8820 H   0  0  0  0  0  0  0  0  0  0  0  0
   36.2155   25.9770   40.1695 H   0  0  0  0  0  0  0  0  0  0  0  0
  1  5  1  0
  1 11  1  0
  2  1  2  0
  3  2  1  0
  3  4  1  0
  4  5  2  0
  6  4  1  0
  6  7  2  0
  8  7  1  0
  9  8  2  0
 10  9  1  0
 10  6  1  0
 11 16  1  0
 13 12  2  0
 14 13  1  0
 15 14  2  0
 15 16  1  0
 16 17  2  0
 17 12  1  0
 18 14  1  0
  7 19  1  0
  8 20  1  0
  9 21  1  0
 12 22  1  0
 13 23  1  0
 18 24  1  0
M  ISO  6  19  14  20  14  21  14  22  14  23  14  24   3
M  END
>  <minimizedAffinity>  (1) 
-5.16741514

>  <minimizedRMSD>  (1) 
0.330532014

$$$$
