
     RDKit          3D

 48 52  0  0  1  0  0  0  0  0999 V2000
   37.6130   26.4670   42.8740 C   0  0  0  0  0  0  0  0  0  0  0  0
   37.1670   25.7420   41.6740 C   0  0  0  0  0  0  0  0  0  0  0  0
   37.1080   24.3680   41.6290 C   0  0  0  0  0  0  0  0  0  0  0  0
   36.6700   23.8270   40.4340 C   0  0  0  0  0  0  0  0  0  0  0  0
   36.3270   24.6640   39.3870 C   0  0  0  0  0  0  0  0  0  0  0  0
   36.3950   26.0420   39.4580 C   0  0  0  0  0  0  0  0  0  0  0  0
   36.8280   26.5360   40.6440 N   0  0  0  0  0  0  0  0  0  0  0  0
   36.0270   26.8390   38.3460 N   0  0  0  0  0  0  0  0  0  0  0  0
   34.8910   26.6620   37.6240 C   0  0  0  0  0  0  0  0  0  0  0  0
   34.8150   27.5720   36.6270 N   0  0  0  0  0  0  0  0  0  0  0  0
   35.8980   28.3470   36.6930 C   0  0  0  0  0  0  0  0  0  0  0  0
   36.3440   29.4290   35.9340 C   0  0  0  0  0  0  0  0  0  0  0  0
   35.6730   29.8570   34.9590 O   0  0  0  0  0  0  0  0  0  0  0  0
   37.5260   29.9740   36.3120 N   0  0  0  0  0  0  0  0  0  0  0  0
   38.2530   29.5270   37.3510 C   0  0  0  0  0  0  0  0  0  0  0  0
   39.4620   30.2480   37.5700 N   0  0  0  0  0  0  0  0  0  0  0  0
   37.8100   28.4760   38.0790 N   0  0  0  0  0  0  0  0  0  0  0  0
   36.6420   27.8820   37.7620 C   0  0  0  0  0  0  0  0  0  0  0  0
   36.9540   27.7830   43.0610 C   0  0  2  0  0  0  0  0  0  0  0  0
   38.4460   30.8050   41.6670 N   0  0  0  0  0  0  0  0  0  0  0  0
   39.4660   30.2450   42.3180 C   0  0  0  0  0  0  0  0  0  0  0  0
   39.0890   29.1030   42.8990 N   0  0  0  0  0  0  0  0  0  0  0  0
   37.7670   28.9340   42.6000 C   0  0  0  0  0  0  0  0  0  0  0  0
   37.4160   29.9890   41.8510 N   0  0  0  0  0  0  0  0  0  0  0  0
   37.1790   32.0860   39.9100 C   0  0  0  0  0  0  0  0  0  0  0  0
   38.1890   31.9780   40.8790 C   0  0  0  0  0  0  0  0  0  0  0  0
   39.0370   33.1060   41.1210 C   0  0  0  0  0  0  0  0  0  0  0  0
   38.7910   34.2110   40.3790 N   0  0  0  0  0  0  0  0  0  0  0  0
   37.8260   34.2650   39.4780 C   0  0  0  0  0  0  0  0  0  0  0  0
   37.0200   33.2180   39.2360 N   0  0  0  0  0  0  0  0  0  0  0  0
   36.7140   28.0210   44.5670 C   0  0  0  0  0  0  0  0  0  0  0  0
   38.6979   26.6309   42.7963 H   0  0  0  0  0  0  0  0  0  0  0  0
   37.3404   25.8474   43.7411 H   0  0  0  0  0  0  0  0  0  0  0  0
   37.3907   23.7409   42.4874 H   0  0  0  0  0  0  0  0  0  0  0  0
   36.5946   22.7359   40.3164 H   0  0  0  0  0  0  0  0  0  0  0  0
   35.9816   24.2077   38.4476 H   0  0  0  0  0  0  0  0  0  0  0  0
   34.1371   25.8860   37.8226 H   0  0  0  0  0  0  0  0  0  0  0  0
   37.8871   30.7745   35.7738 H   0  0  0  0  0  0  0  0  0  0  0  0
   40.0880   29.9810   38.3431 H   0  0  0  0  0  0  0  0  0  0  0  0
   39.7101   31.0363   36.9552 H   0  0  0  0  0  0  0  0  0  0  0  0
   36.0299   27.7350   42.4662 H   0  0  0  0  0  0  0  0  0  0  0  0
   40.4807   30.6665   42.3696 H   0  0  0  0  0  0  0  0  0  0  0  0
   36.5178   31.2302   39.7089 H   0  0  0  0  0  0  0  0  0  0  0  0
   39.8436   33.0762   41.8684 H   0  0  0  0  0  0  0  0  0  0  0  0
   37.6783   35.1949   38.9092 H   0  0  0  0  0  0  0  0  0  0  0  0
   37.3755   27.3650   45.1519 H   0  0  0  0  0  0  0  0  0  0  0  0
   36.9301   29.0715   44.8112 H   0  0  0  0  0  0  0  0  0  0  0  0
   35.6653   27.7961   44.8112 H   0  0  0  0  0  0  0  0  0  0  0  0
  1 19  1  0
  2  1  1  0
  3  2  2  0
  4  3  1  0
  5  6  1  0
  5  4  2  0
  6  7  2  0
  7  2  1  0
  8  6  1  0
  9  8  1  0
 10 11  1  0
 10  9  2  0
 11 18  2  0
 12 14  1  0
 12 11  1  0
 13 12  2  0
 14 15  1  0
 15 16  1  0
 15 17  2  0
 18 17  1  0
 18  8  1  0
 19 31  1  0
 20 24  1  0
 20 21  1  0
 21 22  2  0
 23 22  1  0
 23 19  1  0
 24 23  2  0
 25 26  2  0
 26 27  1  0
 26 20  1  0
 28 27  2  0
 29 28  1  0
 30 29  2  0
 30 25  1  0
  1 32  1  0
  1 33  1  0
  3 34  1  0
  4 35  1  0
  5 36  1  0
  9 37  1  0
 14 38  1  0
 16 39  1  0
 16 40  1  0
 19 41  1  6
 21 42  1  0
 25 43  1  0
 27 44  1  0
 29 45  1  0
 31 46  1  0
 31 47  1  0
 31 48  1  0
M  END
>  <minimizedAffinity>  (1) 
-7.14230204

>  <minimizedRMSD>  (1) 
0.527767181

$$$$
