
     RDKit          3D

 37 40  0  0  1  0  0  0  0  0999 V2000
   37.9500   27.3550   42.7410 C   0  0  2  0  0  0  0  0  0  0  0  0
   39.0700   27.6460   43.6750 C   0  0  0  0  0  0  0  0  0  0  0  0
   39.7520   26.3050   43.8550 C   0  0  0  0  0  0  0  0  0  0  0  0
   39.3140   25.4620   42.7060 C   0  0  0  0  0  0  0  0  0  0  0  0
   38.5560   26.3910   41.7670 C   0  0  1  0  0  0  0  0  0  0  0  0
   37.6310   25.4920   41.1030 N   0  0  0  0  0  0  0  0  0  0  0  0
   36.9830   24.4240   41.6610 C   0  0  0  0  0  0  0  0  0  0  0  0
   36.2070   23.8570   40.7410 N   0  0  0  0  0  0  0  0  0  0  0  0
   36.3350   24.5350   39.5860 C   0  0  0  0  0  0  0  0  0  0  0  0
   35.8060   24.4400   38.3060 C   0  0  0  0  0  0  0  0  0  0  0  0
   34.9890   23.5180   38.0650 O   0  0  0  0  0  0  0  0  0  0  0  0
   36.1370   25.3020   37.3130 N   0  0  0  0  0  0  0  0  0  0  0  0
   37.0090   26.2960   37.5510 C   0  0  0  0  0  0  0  0  0  0  0  0
   37.4090   27.2420   36.5650 N   0  0  0  0  0  0  0  0  0  0  0  0
   37.5160   26.3900   38.7700 N   0  0  0  0  0  0  0  0  0  0  0  0
   37.2290   25.5690   39.7950 C   0  0  0  0  0  0  0  0  0  0  0  0
   38.0470   29.7770   41.9180 C   0  0  0  0  0  0  0  0  0  0  0  0
   37.3970   28.5420   42.0690 C   0  0  0  0  0  0  0  0  0  0  0  0
   36.1130   28.4070   41.5330 C   0  0  0  0  0  0  0  0  0  0  0  0
   35.5610   29.4580   40.8970 N   0  0  0  0  0  0  0  0  0  0  0  0
   36.2170   30.6530   40.7630 C   0  0  0  0  0  0  0  0  0  0  0  0
   37.4760   30.8070   41.2830 N   0  0  0  0  0  0  0  0  0  0  0  0
   37.0763   26.9541   43.2757 H   0  0  0  0  0  0  0  0  0  0  0  0
   39.7620   28.3817   43.2392 H   0  0  0  0  0  0  0  0  0  0  0  0
   38.7274   28.0789   44.6265 H   0  0  0  0  0  0  0  0  0  0  0  0
   40.8451   26.4278   43.8438 H   0  0  0  0  0  0  0  0  0  0  0  0
   39.4848   25.8438   44.8172 H   0  0  0  0  0  0  0  0  0  0  0  0
   40.1869   25.0306   42.1941 H   0  0  0  0  0  0  0  0  0  0  0  0
   38.6835   24.6243   43.0388 H   0  0  0  0  0  0  0  0  0  0  0  0
   39.0823   26.9579   40.9849 H   0  0  0  0  0  0  0  0  0  0  0  0
   37.0869   24.0880   42.7032 H   0  0  0  0  0  0  0  0  0  0  0  0
   35.7203   25.1948   36.3772 H   0  0  0  0  0  0  0  0  0  0  0  0
   38.0820   27.9836   36.8059 H   0  0  0  0  0  0  0  0  0  0  0  0
   37.0254   27.1848   35.6108 H   0  0  0  0  0  0  0  0  0  0  0  0
   39.0573   29.9019   42.3347 H   0  0  0  0  0  0  0  0  0  0  0  0
   35.5632   27.4591   41.6290 H   0  0  0  0  0  0  0  0  0  0  0  0
   35.7332   31.4897   40.2377 H   0  0  0  0  0  0  0  0  0  0  0  0
  1  2  1  0
  2  3  1  0
  4  3  1  0
  5  4  1  0
  5  1  1  0
  6  7  1  0
  6  5  1  0
  8  7  2  0
  9 16  2  0
  9  8  1  0
 10  9  1  0
 11 10  2  0
 12 13  1  0
 12 10  1  0
 13 15  2  0
 14 13  1  0
 15 16  1  0
 16  6  1  0
 17 18  2  0
 18  1  1  0
 19 18  1  0
 20 19  2  0
 21 20  1  0
 21 22  2  0
 22 17  1  0
  1 23  1  1
  2 24  1  0
  2 25  1  0
  3 26  1  0
  3 27  1  0
  4 28  1  0
  4 29  1  0
  5 30  1  6
  7 31  1  0
 12 32  1  0
 14 33  1  0
 14 34  1  0
 17 35  1  0
 19 36  1  0
 21 37  1  0
M  ISO  8  23  13  24  13  25  13  26  13  27  13  28  13  29  13  30  13
M  ISO  5  31  14  32   9  35  14  36  14  37  14
M  END
>  <minimizedAffinity>  (1) 
-5.10670519

>  <minimizedRMSD>  (1) 
1.84861374

$$$$
