
     RDKit          3D

 31 33  0  0  0  0  0  0  0  0999 V2000
   38.5230   29.4480   42.7020 C   0  0  0  0  0  0  0  0  0  0  0  0
   37.9910   29.2930   41.3820 C   0  0  0  0  0  0  0  0  0  0  0  0
   37.7290   27.9830   41.0420 C   0  0  0  0  0  0  0  0  0  0  0  0
   37.9630   26.9610   41.9000 N   0  0  0  0  0  0  0  0  0  0  0  0
   38.4680   27.1740   43.1360 C   0  0  0  0  0  0  0  0  0  0  0  0
   38.7390   28.4190   43.5150 N   0  0  0  0  0  0  0  0  0  0  0  0
   37.1980   27.7520   39.7430 N   0  0  0  0  0  0  0  0  0  0  0  0
   35.9820   27.2830   39.4060 C   0  0  0  0  0  0  0  0  0  0  0  0
   35.8530   27.2020   38.0700 N   0  0  0  0  0  0  0  0  0  0  0  0
   37.0110   27.6290   37.5460 C   0  0  0  0  0  0  0  0  0  0  0  0
   37.4820   27.7760   36.2600 C   0  0  0  0  0  0  0  0  0  0  0  0
   36.6980   27.4570   35.3160 O   0  0  0  0  0  0  0  0  0  0  0  0
   38.7140   28.2360   35.9720 N   0  0  0  0  0  0  0  0  0  0  0  0
   39.5250   28.5670   36.9940 C   0  0  0  0  0  0  0  0  0  0  0  0
   40.8280   29.0530   36.6930 N   0  0  0  0  0  0  0  0  0  0  0  0
   39.1220   28.4450   38.2900 N   0  0  0  0  0  0  0  0  0  0  0  0
   37.8800   27.9810   38.5840 C   0  0  0  0  0  0  0  0  0  0  0  0
   37.7830   30.4300   40.5610 N   0  0  0  0  0  0  0  0  0  0  0  0
   36.7680   31.3950   40.7920 C   0  0  0  0  0  0  0  0  0  0  0  0
   35.6100   30.9230   41.1970 N   0  0  0  0  0  0  0  0  0  0  0  0
   37.1440   32.7670   40.5520 N   0  0  0  0  0  0  0  0  0  0  0  0
   34.8050   31.5430   41.3600 H   0  0  0  0  0  0  0  0  0  0  0  0
   38.7630   30.4607   43.0581 H   0  0  0  0  0  0  0  0  0  0  0  0
   38.6517   26.3302   43.8174 H   0  0  0  0  0  0  0  0  0  0  0  0
   35.1992   27.0036   40.1266 H   0  0  0  0  0  0  0  0  0  0  0  0
   39.0276   28.3321   34.9956 H   0  0  0  0  0  0  0  0  0  0  0  0
   41.4693   29.3137   37.4557 H   0  0  0  0  0  0  0  0  0  0  0  0
   41.1299   29.1441   35.7125 H   0  0  0  0  0  0  0  0  0  0  0  0
   38.4041   30.5635   39.7503 H   0  0  0  0  0  0  0  0  0  0  0  0
   36.4589   33.5220   40.6987 H   0  0  0  0  0  0  0  0  0  0  0  0
   38.0976   32.9916   40.2340 H   0  0  0  0  0  0  0  0  0  0  0  0
  1  6  2  0
  2  1  1  0
  3  2  2  0
  3  4  1  0
  4  5  2  0
  5  6  1  0
  7  3  1  0
  8  7  1  0
  9  8  2  0
 10  9  1  0
 10 17  2  0
 11 10  1  0
 12 11  2  0
 13 11  1  0
 13 14  1  0
 14 16  2  0
 15 14  1  0
 16 17  1  0
 17  7  1  0
 18 19  1  0
 18  2  1  0
 19 20  2  0
 20 22  1  0
 21 19  1  0
  1 23  1  0
  5 24  1  0
  8 25  1  0
 13 26  1  0
 15 27  1  0
 15 28  1  0
 18 29  1  0
 21 30  1  0
 21 31  1  0
M  ISO  4  23  14  24  14  25  14  26   9
M  END
>  <minimizedAffinity>  (1) 
-5.56950426

>  <minimizedRMSD>  (1) 
0.79569912

$$$$
