
     RDKit          3D

 35 38  0  0  0  0  0  0  0  0999 V2000
   38.3810   28.2790   43.2310 C   0  0  0  0  0  0  0  0  0  0  0  0
   38.0930   27.1040   42.4720 C   0  0  0  0  0  0  0  0  0  0  0  0
   37.2210   27.2390   41.3970 C   0  0  0  0  0  0  0  0  0  0  0  0
   36.7130   28.4570   41.1440 N   0  0  0  0  0  0  0  0  0  0  0  0
   36.9890   29.5350   41.8540 C   0  0  0  0  0  0  0  0  0  0  0  0
   37.8240   29.4510   42.9020 N   0  0  0  0  0  0  0  0  0  0  0  0
   36.9820   25.9940   40.6840 C   0  0  0  0  0  0  0  0  0  0  0  0
   36.9950   24.7660   41.5330 C   0  0  0  0  0  0  0  0  0  0  0  0
   36.9890   23.5420   40.6500 C   0  0  0  0  0  0  0  0  0  0  0  0
   35.8880   23.3130   39.6980 C   0  0  0  0  0  0  0  0  0  0  0  0
   36.4240   21.7070   38.9300 S   0  0  0  0  0  0  0  0  0  0  0  0
   37.9870   21.6500   40.0070 C   0  0  0  0  0  0  0  0  0  0  0  0
   37.9510   22.6180   40.6750 N   0  0  0  0  0  0  0  0  0  0  0  0
   36.3380   30.6390   41.3790 O   0  0  0  0  0  0  0  0  0  0  0  0
   36.9850   31.5110   40.5100 C   0  0  0  0  0  0  0  0  0  0  0  0
   36.8710   31.6540   39.1540 N   0  0  0  0  0  0  0  0  0  0  0  0
   37.6840   32.6120   38.7660 O   0  0  0  0  0  0  0  0  0  0  0  0
   38.2970   33.0640   39.8510 C   0  0  0  0  0  0  0  0  0  0  0  0
   37.8880   32.4100   40.9220 N   0  0  0  0  0  0  0  0  0  0  0  0
   39.2840   34.1420   39.8140 C   0  0  0  0  0  0  0  0  0  0  0  0
   39.0710   35.4600   40.2100 C   0  0  0  0  0  0  0  0  0  0  0  0
   40.2340   36.1670   40.0250 C   0  0  0  0  0  0  0  0  0  0  0  0
   41.1420   35.2420   39.5110 C   0  0  0  0  0  0  0  0  0  0  0  0
   40.5310   34.0950   39.4140 O   0  0  0  0  0  0  0  0  0  0  0  0
   39.0645   28.2206   44.0909 H   0  0  0  0  0  0  0  0  0  0  0  0
   38.5421   26.1328   42.7270 H   0  0  0  0  0  0  0  0  0  0  0  0
   35.9971   26.0626   40.1989 H   0  0  0  0  0  0  0  0  0  0  0  0
   37.8137   25.8836   39.9726 H   0  0  0  0  0  0  0  0  0  0  0  0
   37.9001   24.7624   42.1582 H   0  0  0  0  0  0  0  0  0  0  0  0
   36.1034   24.7570   42.1772 H   0  0  0  0  0  0  0  0  0  0  0  0
   34.9954   23.9236   39.4971 H   0  0  0  0  0  0  0  0  0  0  0  0
   38.7653   20.8726   40.0065 H   0  0  0  0  0  0  0  0  0  0  0  0
   38.1285   35.8670   40.6051 H   0  0  0  0  0  0  0  0  0  0  0  0
   40.4107   37.2319   40.2365 H   0  0  0  0  0  0  0  0  0  0  0  0
   42.1877   35.4444   39.2363 H   0  0  0  0  0  0  0  0  0  0  0  0
  2  1  2  0
  3  2  1  0
  4  3  2  0
  4  5  1  0
  5  6  2  0
  6  1  1  0
  7  3  1  0
  7  8  1  0
  9 13  1  0
  9  8  1  0
 10  9  2  0
 11 10  1  0
 11 12  1  0
 12 13  2  0
 14  5  1  0
 15 19  1  0
 15 14  1  0
 16 15  2  0
 17 16  1  0
 17 18  1  0
 18 19  2  0
 20 18  1  0
 20 21  2  0
 22 21  1  0
 23 22  2  0
 24 23  1  0
 24 20  1  0
  1 25  1  0
  2 26  1  0
  7 27  1  0
  7 28  1  0
  8 29  1  0
  8 30  1  0
 10 31  1  0
 12 32  1  0
 21 33  1  0
 22 34  1  0
 23 35  1  0
M  ISO  8  25  14  26  14  27   8  28   8  29   8  30   8  31  14  32  14
M  ISO  3  33  14  34  14  35  14
M  END
>  <minimizedAffinity>  (1) 
-5.72655725

>  <minimizedRMSD>  (1) 
0.504224956

$$$$
