
     RDKit          3D

 41 44  0  0  1  0  0  0  0  0999 V2000
   38.9720   35.5980   40.1680 C   0  0  0  0  0  0  0  0  0  0  0  0
   40.3060   35.9800   40.2980 C   0  0  0  0  0  0  0  0  0  0  0  0
   41.2290   34.9550   40.5430 C   0  0  0  0  0  0  0  0  0  0  0  0
   40.7310   33.7270   40.6260 N   0  0  0  0  0  0  0  0  0  0  0  0
   39.4830   33.3240   40.5100 C   0  0  0  0  0  0  0  0  0  0  0  0
   38.6270   34.3220   40.2770 N   0  0  0  0  0  0  0  0  0  0  0  0
   38.8250   32.0270   40.5800 C   0  0  0  0  0  0  0  0  0  0  0  0
   38.7350   31.2990   41.6960 N   0  0  0  0  0  0  0  0  0  0  0  0
   38.1420   30.1140   41.7940 C   0  0  0  0  0  0  0  0  0  0  0  0
   37.5760   29.5510   40.7430 N   0  0  0  0  0  0  0  0  0  0  0  0
   37.6000   30.1880   39.5560 C   0  0  0  0  0  0  0  0  0  0  0  0
   37.0040   29.6020   38.4510 C   0  0  0  0  0  0  0  0  0  0  0  0
   37.0090   30.2180   37.2440 C   0  0  0  0  0  0  0  0  0  0  0  0
   37.6360   31.4740   37.1350 C   0  0  0  0  0  0  0  0  0  0  0  0
   38.2090   31.9980   38.2790 C   0  0  0  0  0  0  0  0  0  0  0  0
   38.2230   31.4100   39.5020 C   0  0  0  0  0  0  0  0  0  0  0  0
   42.5370   35.1500   40.6940 O   0  0  0  0  0  0  0  0  0  0  0  0
   43.2410   35.0040   41.9160 C   0  0  2  0  0  0  0  0  0  0  0  0
   43.0020   36.2800   42.7490 C   0  0  0  0  0  0  0  0  0  0  0  0
   44.7150   34.8440   41.6500 C   0  0  0  0  0  0  0  0  0  0  0  0
   45.2830   34.2420   42.9120 C   0  0  0  0  0  0  0  0  0  0  0  0
   46.5530   34.5270   43.4240 C   0  0  0  0  0  0  0  0  0  0  0  0
   46.7000   33.7790   44.5920 C   0  0  0  0  0  0  0  0  0  0  0  0
   45.5040   33.0810   44.7160 C   0  0  0  0  0  0  0  0  0  0  0  0
   44.7230   33.3790   43.7310 O   0  0  0  0  0  0  0  0  0  0  0  0
   38.2014   36.3586   39.9740 H   0  0  0  0  0  0  0  0  0  0  0  0
   40.6179   37.0314   40.2127 H   0  0  0  0  0  0  0  0  0  0  0  0
   38.1225   29.5954   42.7639 H   0  0  0  0  0  0  0  0  0  0  0  0
   36.5187   28.6204   38.5552 H   0  0  0  0  0  0  0  0  0  0  0  0
   36.5344   29.7479   36.3700 H   0  0  0  0  0  0  0  0  0  0  0  0
   37.6686   32.0163   36.1785 H   0  0  0  0  0  0  0  0  0  0  0  0
   38.6974   32.9796   38.1898 H   0  0  0  0  0  0  0  0  0  0  0  0
   42.8873   34.1128   42.4551 H   0  0  0  0  0  0  0  0  0  0  0  0
   43.0483   36.0328   43.8199 H   0  0  0  0  0  0  0  0  0  0  0  0
   43.7764   37.0239   42.5106 H   0  0  0  0  0  0  0  0  0  0  0  0
   42.0108   36.6932   42.5106 H   0  0  0  0  0  0  0  0  0  0  0  0
   44.8817   34.1735   40.7941 H   0  0  0  0  0  0  0  0  0  0  0  0
   45.1937   35.8025   41.4007 H   0  0  0  0  0  0  0  0  0  0  0  0
   47.2954   35.2116   42.9880 H   0  0  0  0  0  0  0  0  0  0  0  0
   47.5692   33.7482   45.2655 H   0  0  0  0  0  0  0  0  0  0  0  0
   45.2599   32.3815   45.5291 H   0  0  0  0  0  0  0  0  0  0  0  0
  1  6  2  0
  1  2  1  0
  2  3  2  0
  3  4  1  0
  3 17  1  0
  5  7  1  0
  5  4  2  0
  6  5  1  0
  7  8  2  0
  8  9  1  0
 10  9  2  0
 11 10  1  0
 12 11  2  0
 13 12  1  0
 14 13  2  0
 14 15  1  0
 15 16  2  0
 16 11  1  0
 16  7  1  0
 17 18  1  0
 18 19  1  0
 20 18  1  0
 20 21  1  0
 21 22  2  0
 21 25  1  0
 22 23  1  0
 23 24  2  0
 25 24  1  0
  1 26  1  0
  2 27  1  0
  9 28  1  0
 12 29  1  0
 13 30  1  0
 14 31  1  0
 15 32  1  0
 18 33  1  1
 19 34  1  0
 19 35  1  0
 19 36  1  0
 20 37  1  0
 20 38  1  0
 22 39  1  0
 23 40  1  0
 24 41  1  0
M  ISO  8  26  14  27  14  28  14  29  14  30  14  31  14  32  14  33   8
M  ISO  8  34   8  35   8  36   8  37   8  38   8  39  14  40  14  41  14
M  END
>  <minimizedAffinity>  (1) 
-5.96207333

>  <minimizedRMSD>  (1) 
1.38152671

$$$$
