
     RDKit          3D

 37 41  0  0  1  0  0  0  0  0999 V2000
   36.1750   30.7850   41.1190 C   0  0  0  0  0  0  0  0  0  0  0  0
   36.8920   29.7160   41.6930 C   0  0  0  0  0  0  0  0  0  0  0  0
   38.2700   29.7180   41.6230 C   0  0  0  0  0  0  0  0  0  0  0  0
   38.8360   30.7810   40.9920 N   0  0  0  0  0  0  0  0  0  0  0  0
   38.1460   31.8020   40.4470 C   0  0  0  0  0  0  0  0  0  0  0  0
   36.8080   31.7950   40.5140 N   0  0  0  0  0  0  0  0  0  0  0  0
   38.9990   28.6240   42.1920 C   0  0  0  0  0  0  0  0  0  0  0  0
   40.2110   28.6750   42.8710 C   0  0  0  0  0  0  0  0  0  0  0  0
   40.5590   27.4250   43.2550 N   0  0  0  0  0  0  0  0  0  0  0  0
   39.6180   26.5360   42.8550 C   0  0  0  0  0  0  0  0  0  0  0  0
   39.4860   25.1750   42.9870 C   0  0  0  0  0  0  0  0  0  0  0  0
   38.3680   24.5070   42.4570 C   0  0  0  0  0  0  0  0  0  0  0  0
   37.4220   25.2780   41.8030 C   0  0  0  0  0  0  0  0  0  0  0  0
   37.5780   26.6320   41.6840 C   0  0  0  0  0  0  0  0  0  0  0  0
   38.6630   27.2860   42.2010 C   0  0  0  0  0  0  0  0  0  0  0  0
   38.8840   32.9460   39.8030 C   0  0  1  0  0  0  0  0  0  0  0  0
   39.0610   34.2130   40.6620 C   0  0  0  0  0  0  0  0  0  0  0  0
   40.2060   33.3290   40.3560 C   0  0  2  0  0  0  0  0  0  0  0  0
   41.2980   33.7700   39.4670 C   0  0  0  0  0  0  0  0  0  0  0  0
   41.4240   34.9460   38.8430 N   0  0  0  0  0  0  0  0  0  0  0  0
   42.5200   34.9570   38.1330 O   0  0  0  0  0  0  0  0  0  0  0  0
   43.1480   33.8000   38.2640 C   0  0  0  0  0  0  0  0  0  0  0  0
   42.3690   33.0610   39.1060 N   0  0  0  0  0  0  0  0  0  0  0  0
   44.6740   33.1840   37.5670 S   0  0  0  0  0  0  0  0  0  0  0  0
   35.0762   30.7883   41.1697 H   0  0  0  0  0  0  0  0  0  0  0  0
   36.3603   28.8913   42.1901 H   0  0  0  0  0  0  0  0  0  0  0  0
   40.7946   29.5869   43.0653 H   0  0  0  0  0  0  0  0  0  0  0  0
   41.4146   27.1844   43.7755 H   0  0  0  0  0  0  0  0  0  0  0  0
   40.2634   24.6015   43.5131 H   0  0  0  0  0  0  0  0  0  0  0  0
   38.2499   23.4180   42.5577 H   0  0  0  0  0  0  0  0  0  0  0  0
   36.5322   24.7950   41.3729 H   0  0  0  0  0  0  0  0  0  0  0  0
   36.8072   27.2129   41.1563 H   0  0  0  0  0  0  0  0  0  0  0  0
   38.5024   32.7088   38.7990 H   0  0  0  0  0  0  0  0  0  0  0  0
   38.9919   35.2088   40.1999 H   0  0  0  0  0  0  0  0  0  0  0  0
   38.5996   34.6110   41.5778 H   0  0  0  0  0  0  0  0  0  0  0  0
   40.9536   32.8133   40.9766 H   0  0  0  0  0  0  0  0  0  0  0  0
   45.5311   32.8380   38.5783 H   0  0  0  0  0  0  0  0  0  0  0  0
  1  2  2  0
  3  2  1  0
  3  7  1  0
  4  3  2  0
  5  6  2  0
  5  4  1  0
  6  1  1  0
  7 15  1  0
  7  8  2  0
  8  9  1  0
 10 11  2  0
 10  9  1  0
 12 11  1  0
 13 12  2  0
 14 13  1  0
 14 15  2  0
 15 10  1  0
 16 18  1  0
 16  5  1  0
 16 17  1  0
 18 17  1  0
 19 18  1  0
 20 19  2  0
 21 22  1  0
 21 20  1  0
 22 23  2  0
 23 19  1  0
 24 22  1  0
  1 25  1  0
  2 26  1  0
  8 27  1  0
  9 28  1  0
 11 29  1  0
 12 30  1  0
 13 31  1  0
 14 32  1  0
 16 33  1  6
 17 34  1  0
 17 35  1  0
 18 36  1  1
 24 37  1  0
M  ISO  8  25  14  26  14  27  14  28   9  29  14  30  14  31  14  32  14
M  ISO  5  33  13  34  13  35  13  36  13  37  11
M  END
>  <minimizedAffinity>  (1) 
-5.9839282

>  <minimizedRMSD>  (1) 
0.645381391

$$$$
