
     RDKit          3D

 39 41  0  0  1  0  0  0  0  0999 V2000
   38.2170   33.5800   39.9800 C   0  0  0  0  0  0  0  0  0  0  0  0
   39.3550   34.4440   39.9110 N   0  0  0  0  0  0  0  0  0  0  0  0
   39.1920   35.6740   40.5940 C   0  0  0  0  0  0  0  0  0  0  0  0
   40.1260   36.7200   40.0890 C   0  0  0  0  0  0  0  0  0  0  0  0
   41.2560   36.1390   39.4390 N   0  0  0  0  0  0  0  0  0  0  0  0
   41.6920   34.8990   40.0070 C   0  0  0  0  0  0  0  0  0  0  0  0
   40.6040   33.8240   39.9580 C   0  0  2  0  0  0  0  0  0  0  0  0
   40.8870   33.1310   38.6750 C   0  0  0  0  0  0  0  0  0  0  0  0
   42.0010   32.7390   38.3510 O   0  0  0  0  0  0  0  0  0  0  0  0
   38.5010   32.2190   39.3880 C   0  0  0  0  0  0  0  0  0  0  0  0
   38.5910   30.2910   40.9760 C   0  0  0  0  0  0  0  0  0  0  0  0
   37.8350   31.1960   40.1910 C   0  0  0  0  0  0  0  0  0  0  0  0
   36.4620   31.0820   40.2090 C   0  0  0  0  0  0  0  0  0  0  0  0
   35.9300   30.0850   40.9970 N   0  0  0  0  0  0  0  0  0  0  0  0
   36.6740   29.2680   41.7090 C   0  0  0  0  0  0  0  0  0  0  0  0
   38.0170   29.3460   41.7190 N   0  0  0  0  0  0  0  0  0  0  0  0
   40.0100   30.3220   41.0210 N   0  0  0  0  0  0  0  0  0  0  0  0
   41.0330   29.8730   40.2650 C   0  0  0  0  0  0  0  0  0  0  0  0
   42.1950   30.2220   40.8740 N   0  0  0  0  0  0  0  0  0  0  0  0
   41.8550   30.8900   42.0130 C   0  0  0  0  0  0  0  0  0  0  0  0
   40.4990   30.9320   42.0670 N   0  0  0  0  0  0  0  0  0  0  0  0
   43.0640   31.5480   43.1520 S   0  0  0  0  0  0  0  0  0  0  0  0
   37.9295   33.4554   41.0344 H   0  0  0  0  0  0  0  0  0  0  0  0
   37.4056   34.0407   39.3973 H   0  0  0  0  0  0  0  0  0  0  0  0
   38.1583   36.0235   40.4548 H   0  0  0  0  0  0  0  0  0  0  0  0
   39.4143   35.5044   41.6579 H   0  0  0  0  0  0  0  0  0  0  0  0
   39.5916   37.3613   39.3727 H   0  0  0  0  0  0  0  0  0  0  0  0
   40.4844   37.3076   40.9470 H   0  0  0  0  0  0  0  0  0  0  0  0
   42.0367   36.8089   39.4900 H   0  0  0  0  0  0  0  0  0  0  0  0
   42.5681   34.5415   39.4461 H   0  0  0  0  0  0  0  0  0  0  0  0
   41.9385   35.0807   41.0635 H   0  0  0  0  0  0  0  0  0  0  0  0
   40.5977   33.1442   40.8228 H   0  0  0  0  0  0  0  0  0  0  0  0
   40.0520   32.9610   37.9794 H   0  0  0  0  0  0  0  0  0  0  0  0
   38.1223   32.1806   38.3560 H   0  0  0  0  0  0  0  0  0  0  0  0
   39.5859   32.0371   39.3846 H   0  0  0  0  0  0  0  0  0  0  0  0
   35.8206   31.7555   39.6217 H   0  0  0  0  0  0  0  0  0  0  0  0
   36.1819   28.4946   42.3170 H   0  0  0  0  0  0  0  0  0  0  0  0
   40.9415   29.3197   39.3187 H   0  0  0  0  0  0  0  0  0  0  0  0
   42.6498   31.3225   44.4383 H   0  0  0  0  0  0  0  0  0  0  0  0
  2  7  1  0
  2  1  1  0
  2  3  1  0
  4  3  1  0
  5  6  1  0
  5  4  1  0
  7  6  1  0
  8  7  1  0
  9  8  2  0
 10  1  1  0
 10 12  1  0
 11 17  1  0
 11 16  2  0
 12 13  2  0
 12 11  1  0
 13 14  1  0
 14 15  2  0
 15 16  1  0
 17 21  1  0
 18 19  2  0
 18 17  1  0
 19 20  1  0
 20 21  2  0
 20 22  1  0
  1 23  1  0
  1 24  1  0
  3 25  1  0
  3 26  1  0
  4 27  1  0
  4 28  1  0
  5 29  1  0
  6 30  1  0
  6 31  1  0
  7 32  1  1
  8 33  1  0
 10 34  1  0
 10 35  1  0
 13 36  1  0
 15 37  1  0
 18 38  1  0
 22 39  1  0
M  ISO  8  23   8  24   8  25  13  26  13  27  13  28  13  29   5  30  13
M  ISO  8  31  13  32  13  33   6  34   8  35   8  36  14  37  14  38  14
M  ISO  1  39  11
M  END
>  <minimizedAffinity>  (1) 
-4.78510332

>  <minimizedRMSD>  (1) 
0.458551198

$$$$
