
     RDKit          3D

 22 23  0  0  0  0  0  0  0  0999 V2000
   38.0520   28.9750   43.2810 C   0  0  0  0  0  0  0  0  0  0  0  0
   38.2150   27.5910   43.2830 C   0  0  0  0  0  0  0  0  0  0  0  0
   37.5050   26.7960   42.4000 C   0  0  0  0  0  0  0  0  0  0  0  0
   36.6440   27.4520   41.5360 N   0  0  0  0  0  0  0  0  0  0  0  0
   36.5090   28.7780   41.5590 C   0  0  0  0  0  0  0  0  0  0  0  0
   37.1990   29.5460   42.4160 N   0  0  0  0  0  0  0  0  0  0  0  0
   35.5830   29.4600   40.6260 C   0  0  0  0  0  0  0  0  0  0  0  0
   36.2900   30.3250   39.6730 C   0  0  0  0  0  0  0  0  0  0  0  0
   36.5920   29.7690   38.4470 C   0  0  0  0  0  0  0  0  0  0  0  0
   37.2610   30.4790   37.4480 C   0  0  0  0  0  0  0  0  0  0  0  0
   37.6090   31.7410   37.7230 N   0  0  0  0  0  0  0  0  0  0  0  0
   37.3260   32.3060   38.9120 C   0  0  0  0  0  0  0  0  0  0  0  0
   36.6800   31.6150   39.8710 N   0  0  0  0  0  0  0  0  0  0  0  0
   37.6960   25.4490   42.4350 O   0  0  0  0  0  0  0  0  0  0  0  0
   38.6210   29.5981   43.9866 H   0  0  0  0  0  0  0  0  0  0  0  0
   38.9146   27.1259   43.9931 H   0  0  0  0  0  0  0  0  0  0  0  0
   35.0224   28.6985   40.0641 H   0  0  0  0  0  0  0  0  0  0  0  0
   34.9109   30.0946   41.2223 H   0  0  0  0  0  0  0  0  0  0  0  0
   36.2949   28.7285   38.2493 H   0  0  0  0  0  0  0  0  0  0  0  0
   37.4922   30.0198   36.4755 H   0  0  0  0  0  0  0  0  0  0  0  0
   37.6266   33.3467   39.1029 H   0  0  0  0  0  0  0  0  0  0  0  0
   37.1983   24.8621   41.8122 H   0  0  0  0  0  0  0  0  0  0  0  0
  1  2  2  0
  3 14  1  0
  3  2  1  0
  4  5  1  0
  4  3  2  0
  5  6  2  0
  6  1  1  0
  7  5  1  0
  8 13  1  0
  8  7  1  0
  9  8  2  0
 10 11  2  0
 10  9  1  0
 11 12  1  0
 12 13  2  0
  1 15  1  0
  2 16  1  0
  7 17  1  0
  7 18  1  0
  9 19  1  0
 10 20  1  0
 12 21  1  0
 14 22  1  0
M  ISO  8  15  14  16  14  17   8  18   8  19  14  20  14  21  14  22   3
M  END
>  <minimizedAffinity>  (1) 
-4.2128644

>  <minimizedRMSD>  (1) 
1.04598081

$$$$
