
     RDKit          3D

 46 50  0  0  0  0  0  0  0  0999 V2000
   37.2120   33.4440   39.8730 N   0  0  0  0  0  0  0  0  0  0  0  0
   37.6310   34.6760   39.7510 N   0  0  0  0  0  0  0  0  0  0  0  0
   38.8370   34.7880   40.3740 C   0  0  0  0  0  0  0  0  0  0  0  0
   39.0830   33.5120   40.8630 C   0  0  0  0  0  0  0  0  0  0  0  0
   38.0090   32.6610   40.5250 C   0  0  0  0  0  0  0  0  0  0  0  0
   38.0230   31.3190   40.9670 C   0  0  0  0  0  0  0  0  0  0  0  0
   38.8540   30.9580   41.9890 N   0  0  0  0  0  0  0  0  0  0  0  0
   38.9420   29.7600   42.5300 C   0  0  0  0  0  0  0  0  0  0  0  0
   38.1930   28.7310   42.1130 N   0  0  0  0  0  0  0  0  0  0  0  0
   37.3340   28.9600   41.1080 C   0  0  0  0  0  0  0  0  0  0  0  0
   36.5400   27.9510   40.6410 C   0  0  0  0  0  0  0  0  0  0  0  0
   35.6370   28.1600   39.5960 C   0  0  0  0  0  0  0  0  0  0  0  0
   35.5960   29.4430   39.0630 C   0  0  0  0  0  0  0  0  0  0  0  0
   36.4220   30.3950   39.5890 C   0  0  0  0  0  0  0  0  0  0  0  0
   37.3020   30.2330   40.5970 C   0  0  0  0  0  0  0  0  0  0  0  0
   39.9640   36.1590   40.6710 S   0  0  0  0  0  0  0  0  0  0  0  0
   43.2950   34.0390   40.3710 C   0  0  0  0  0  0  0  0  0  0  0  0
   44.1400   34.5680   41.3490 C   0  0  0  0  0  0  0  0  0  0  0  0
   43.6860   35.6000   42.1170 C   0  0  0  0  0  0  0  0  0  0  0  0
   42.4210   36.0460   41.8750 N   0  0  0  0  0  0  0  0  0  0  0  0
   41.6220   35.5240   40.9340 C   0  0  0  0  0  0  0  0  0  0  0  0
   42.0590   34.5330   40.1930 N   0  0  0  0  0  0  0  0  0  0  0  0
   44.5720   36.1320   43.2030 C   0  0  0  0  0  0  0  0  0  0  0  0
   44.4430   35.3820   44.4630 C   0  0  0  0  0  0  0  0  0  0  0  0
   45.6760   34.5930   44.7210 C   0  0  0  0  0  0  0  0  0  0  0  0
   45.7030   34.2800   46.0860 C   0  0  0  0  0  0  0  0  0  0  0  0
   46.7390   33.5380   46.6640 C   0  0  0  0  0  0  0  0  0  0  0  0
   47.7530   33.1050   45.8900 N   0  0  0  0  0  0  0  0  0  0  0  0
   47.7120   33.4140   44.5780 C   0  0  0  0  0  0  0  0  0  0  0  0
   46.7430   34.1130   44.0140 N   0  0  0  0  0  0  0  0  0  0  0  0
   36.3161   33.1214   39.4802 H   0  0  0  0  0  0  0  0  0  0  0  0
   39.9778   33.2106   41.4273 H   0  0  0  0  0  0  0  0  0  0  0  0
   39.6549   29.5994   43.3522 H   0  0  0  0  0  0  0  0  0  0  0  0
   36.6134   26.9529   41.0976 H   0  0  0  0  0  0  0  0  0  0  0  0
   34.9934   27.3531   39.2156 H   0  0  0  0  0  0  0  0  0  0  0  0
   34.9132   29.6863   38.2356 H   0  0  0  0  0  0  0  0  0  0  0  0
   36.3629   31.3990   39.1434 H   0  0  0  0  0  0  0  0  0  0  0  0
   43.6455   33.2090   39.7399 H   0  0  0  0  0  0  0  0  0  0  0  0
   45.1511   34.1608   41.4970 H   0  0  0  0  0  0  0  0  0  0  0  0
   45.6169   36.0733   42.8644 H   0  0  0  0  0  0  0  0  0  0  0  0
   44.2653   37.1694   43.4022 H   0  0  0  0  0  0  0  0  0  0  0  0
   44.2839   36.0882   45.2912 H   0  0  0  0  0  0  0  0  0  0  0  0
   43.5877   34.6948   44.3849 H   0  0  0  0  0  0  0  0  0  0  0  0
   44.8802   34.6301   46.7266 H   0  0  0  0  0  0  0  0  0  0  0  0
   46.7256   33.3104   47.7401 H   0  0  0  0  0  0  0  0  0  0  0  0
   48.5353   33.0628   43.9385 H   0  0  0  0  0  0  0  0  0  0  0  0
  1  5  1  0
  2  1  1  0
  2  3  2  0
  3 16  1  0
  3  4  1  0
  5  4  2  0
  5  6  1  0
  6  7  2  0
  7  8  1  0
  9  8  2  0
 10  9  1  0
 11 10  2  0
 12 11  1  0
 13 14  1  0
 13 12  2  0
 14 15  2  0
 15  6  1  0
 15 10  1  0
 16 21  1  0
 17 18  2  0
 18 19  1  0
 19 23  1  0
 20 19  2  0
 21 20  1  0
 22 17  1  0
 22 21  2  0
 23 24  1  0
 24 25  1  0
 25 26  2  0
 26 27  1  0
 28 27  2  0
 29 28  1  0
 30 29  2  0
 30 25  1  0
  1 31  1  0
  4 32  1  0
  8 33  1  0
 11 34  1  0
 12 35  1  0
 13 36  1  0
 14 37  1  0
 17 38  1  0
 18 39  1  0
 23 40  1  0
 23 41  1  0
 24 42  1  0
 24 43  1  0
 26 44  1  0
 27 45  1  0
 29 46  1  0
M  END
>  <minimizedAffinity>  (1) 
-7.1127553

>  <minimizedRMSD>  (1) 
1.55684412

$$$$
