
     RDKit          3D

 28 30  0  0  0  0  0  0  0  0999 V2000
   36.4770   30.5310   39.6470 C   0  0  0  0  0  0  0  0  0  0  0  0
   36.9310   30.1500   38.3750 C   0  0  0  0  0  0  0  0  0  0  0  0
   37.6980   31.7560   37.7880 S   0  0  0  0  0  0  0  0  0  0  0  0
   37.2290   32.6060   39.4220 C   0  0  0  0  0  0  0  0  0  0  0  0
   36.7180   31.7760   39.9800 N   0  0  0  0  0  0  0  0  0  0  0  0
   35.6550   29.2270   40.5770 S   0  0  0  0  0  0  0  0  0  0  0  0
   36.9040   27.1010   41.9000 C   0  0  0  0  0  0  0  0  0  0  0  0
   36.7440   28.4860   41.7520 C   0  0  0  0  0  0  0  0  0  0  0  0
   37.5040   29.2760   42.6010 C   0  0  0  0  0  0  0  0  0  0  0  0
   38.3380   28.7000   43.5060 N   0  0  0  0  0  0  0  0  0  0  0  0
   38.4520   27.3420   43.6060 C   0  0  0  0  0  0  0  0  0  0  0  0
   37.7380   26.5730   42.8060 N   0  0  0  0  0  0  0  0  0  0  0  0
   37.4530   33.9720   39.8720 O   0  0  0  0  0  0  0  0  0  0  0  0
   38.7980   34.3300   40.0800 C   0  0  0  0  0  0  0  0  0  0  0  0
   39.8600   33.4760   40.3030 C   0  0  0  0  0  0  0  0  0  0  0  0
   41.1130   34.0120   40.4860 C   0  0  0  0  0  0  0  0  0  0  0  0
   41.3020   35.3740   40.4470 C   0  0  0  0  0  0  0  0  0  0  0  0
   40.2430   36.2280   40.2240 C   0  0  0  0  0  0  0  0  0  0  0  0
   38.9720   35.6970   40.0380 C   0  0  0  0  0  0  0  0  0  0  0  0
   36.8572   29.1785   37.8643 H   0  0  0  0  0  0  0  0  0  0  0  0
   36.3262   26.4261   41.2514 H   0  0  0  0  0  0  0  0  0  0  0  0
   37.4316   30.3720   42.5418 H   0  0  0  0  0  0  0  0  0  0  0  0
   39.1320   26.8945   44.3458 H   0  0  0  0  0  0  0  0  0  0  0  0
   39.7065   32.3872   40.3337 H   0  0  0  0  0  0  0  0  0  0  0  0
   41.9706   33.3467   40.6649 H   0  0  0  0  0  0  0  0  0  0  0  0
   42.3107   35.7869   40.5956 H   0  0  0  0  0  0  0  0  0  0  0  0
   40.4019   37.3160   40.1936 H   0  0  0  0  0  0  0  0  0  0  0  0
   38.1134   36.3609   39.8591 H   0  0  0  0  0  0  0  0  0  0  0  0
  1  5  1  0
  1  6  1  0
  2  1  2  0
  3  2  1  0
  3  4  1  0
  4 13  1  0
  4  5  2  0
  6  8  1  0
  7 12  2  0
  8  7  1  0
  8  9  2  0
  9 10  1  0
 10 11  2  0
 12 11  1  0
 13 14  1  0
 14 15  2  0
 15 16  1  0
 17 16  2  0
 18 17  1  0
 19 14  1  0
 19 18  2  0
  2 20  1  0
  7 21  1  0
  9 22  1  0
 11 23  1  0
 15 24  1  0
 16 25  1  0
 17 26  1  0
 18 27  1  0
 19 28  1  0
M  ISO  8  20  14  21  14  22  14  23  14  24  14  25  14  26  14  27  14
M  ISO  1  28  14
M  END
>  <minimizedAffinity>  (1) 
-5.37496948

>  <minimizedRMSD>  (1) 
1.97414005

$$$$
