
     RDKit          3D

 24 26  0  0  0  0  0  0  0  0999 V2000
   36.8500   29.9110   41.7410 C   0  0  0  0  0  0  0  0  0  0  0  0
   38.0840   29.4000   41.2790 C   0  0  0  0  0  0  0  0  0  0  0  0
   38.6260   30.0100   40.1730 C   0  0  0  0  0  0  0  0  0  0  0  0
   37.9980   31.0430   39.5700 N   0  0  0  0  0  0  0  0  0  0  0  0
   36.7980   31.5000   40.0630 C   0  0  0  0  0  0  0  0  0  0  0  0
   36.2290   30.9290   41.1500 N   0  0  0  0  0  0  0  0  0  0  0  0
   38.6800   28.2950   41.9850 C   0  0  0  0  0  0  0  0  0  0  0  0
   38.2210   26.9740   41.7250 C   0  0  0  0  0  0  0  0  0  0  0  0
   39.2380   25.8930   42.8310 S   0  0  0  0  0  0  0  0  0  0  0  0
   40.1260   27.4340   43.4690 C   0  0  0  0  0  0  0  0  0  0  0  0
   39.6240   28.2620   42.8840 N   0  0  0  0  0  0  0  0  0  0  0  0
   39.8910   29.5990   39.5930 C   0  0  0  0  0  0  0  0  0  0  0  0
   41.0520   30.2790   39.9820 C   0  0  0  0  0  0  0  0  0  0  0  0
   42.2200   29.8190   39.3640 C   0  0  0  0  0  0  0  0  0  0  0  0
   42.2500   28.8180   38.4740 N   0  0  0  0  0  0  0  0  0  0  0  0
   41.0930   28.1950   38.1330 C   0  0  0  0  0  0  0  0  0  0  0  0
   39.9260   28.5780   38.6840 N   0  0  0  0  0  0  0  0  0  0  0  0
   36.3844   29.4490   42.6240 H   0  0  0  0  0  0  0  0  0  0  0  0
   36.2934   32.3419   39.5664 H   0  0  0  0  0  0  0  0  0  0  0  0
   37.4346   26.6632   41.0214 H   0  0  0  0  0  0  0  0  0  0  0  0
   40.9275   27.5074   44.2188 H   0  0  0  0  0  0  0  0  0  0  0  0
   41.0461   31.1033   40.7103 H   0  0  0  0  0  0  0  0  0  0  0  0
   43.1701   30.3083   39.6244 H   0  0  0  0  0  0  0  0  0  0  0  0
   41.1092   27.3728   37.4025 H   0  0  0  0  0  0  0  0  0  0  0  0
  2  1  2  0
  2  7  1  0
  3  2  1  0
  4  5  1  0
  4  3  2  0
  5  6  2  0
  6  1  1  0
  7 11  1  0
  8  7  2  0
  8  9  1  0
  9 10  1  0
 11 10  2  0
 12 13  2  0
 12  3  1  0
 14 13  1  0
 15 14  2  0
 16 15  1  0
 16 17  2  0
 17 12  1  0
  1 18  1  0
  5 19  1  0
  8 20  1  0
 10 21  1  0
 13 22  1  0
 14 23  1  0
 16 24  1  0
M  ISO  7  18  14  19  14  20  14  21  14  22  14  23  14  24  14
M  END
>  <minimizedAffinity>  (1) 
-3.40003633

>  <minimizedRMSD>  (1) 
1.93513536

$$$$
