
     RDKit          3D

 37 40  0  0  0  0  0  0  0  0999 V2000
   37.6060   28.1650   41.3960 C   0  0  0  0  0  0  0  0  0  0  0  0
   36.3840   27.9070   40.7760 C   0  0  0  0  0  0  0  0  0  0  0  0
   35.9530   29.0690   40.2670 N   0  0  0  0  0  0  0  0  0  0  0  0
   36.8110   30.0680   40.5120 C   0  0  0  0  0  0  0  0  0  0  0  0
   36.7260   31.3930   40.1580 C   0  0  0  0  0  0  0  0  0  0  0  0
   37.7810   32.2250   40.5510 C   0  0  0  0  0  0  0  0  0  0  0  0
   38.8500   31.7080   41.2660 C   0  0  0  0  0  0  0  0  0  0  0  0
   38.9260   30.3770   41.6160 C   0  0  0  0  0  0  0  0  0  0  0  0
   37.8820   29.5360   41.2310 C   0  0  0  0  0  0  0  0  0  0  0  0
   39.5850   26.6240   44.0490 C   0  0  0  0  0  0  0  0  0  0  0  0
   40.0810   25.4420   43.4250 C   0  0  0  0  0  0  0  0  0  0  0  0
   39.7210   25.2020   42.0940 C   0  0  0  0  0  0  0  0  0  0  0  0
   38.9240   26.1050   41.4860 N   0  0  0  0  0  0  0  0  0  0  0  0
   38.4640   27.2170   42.0920 C   0  0  0  0  0  0  0  0  0  0  0  0
   38.7970   27.4700   43.3690 N   0  0  0  0  0  0  0  0  0  0  0  0
   34.6880   29.1300   39.5500 C   0  0  0  0  0  0  0  0  0  0  0  0
   34.8690   29.1370   38.0480 C   0  0  0  0  0  0  0  0  0  0  0  0
   33.7300   28.5130   37.3420 C   0  0  0  0  0  0  0  0  0  0  0  0
   32.6670   29.2910   36.9110 C   0  0  0  0  0  0  0  0  0  0  0  0
   31.7900   28.4060   36.3010 C   0  0  0  0  0  0  0  0  0  0  0  0
   32.3170   27.1500   36.3700 N   0  0  0  0  0  0  0  0  0  0  0  0
   33.4920   27.2320   37.0040 N   0  0  0  0  0  0  0  0  0  0  0  0
   35.8718   26.9354   40.7162 H   0  0  0  0  0  0  0  0  0  0  0  0
   35.8675   31.7825   39.5912 H   0  0  0  0  0  0  0  0  0  0  0  0
   37.7616   33.2937   40.2913 H   0  0  0  0  0  0  0  0  0  0  0  0
   39.6657   32.3831   41.5643 H   0  0  0  0  0  0  0  0  0  0  0  0
   39.7853   29.9892   42.1827 H   0  0  0  0  0  0  0  0  0  0  0  0
   39.8500   26.8434   45.0938 H   0  0  0  0  0  0  0  0  0  0  0  0
   40.7269   24.7401   43.9729 H   0  0  0  0  0  0  0  0  0  0  0  0
   40.0759   24.3073   41.5615 H   0  0  0  0  0  0  0  0  0  0  0  0
   34.0833   28.2541   39.8277 H   0  0  0  0  0  0  0  0  0  0  0  0
   34.1922   30.0712   39.8297 H   0  0  0  0  0  0  0  0  0  0  0  0
   34.9676   30.1787   37.7086 H   0  0  0  0  0  0  0  0  0  0  0  0
   35.7705   28.5512   37.8153 H   0  0  0  0  0  0  0  0  0  0  0  0
   32.5449   30.3780   37.0277 H   0  0  0  0  0  0  0  0  0  0  0  0
   30.8285   28.6731   35.8382 H   0  0  0  0  0  0  0  0  0  0  0  0
   31.8866   26.2907   35.9996 H   0  0  0  0  0  0  0  0  0  0  0  0
  1 14  1  0
  2  1  2  0
  3  4  1  0
  3  2  1  0
  4  9  2  0
  5  4  1  0
  5  6  2  0
  6  7  1  0
  7  8  2  0
  9  1  1  0
  9  8  1  0
 11 10  2  0
 12 11  1  0
 13 14  1  0
 13 12  2  0
 14 15  2  0
 15 10  1  0
 16  3  1  0
 17 16  1  0
 18 17  1  0
 19 18  1  0
 20 21  1  0
 20 19  2  0
 21 22  1  0
 22 18  2  0
  2 23  1  0
  5 24  1  0
  6 25  1  0
  7 26  1  0
  8 27  1  0
 10 28  1  0
 11 29  1  0
 12 30  1  0
 16 31  1  0
 16 32  1  0
 17 33  1  0
 17 34  1  0
 19 35  1  0
 20 36  1  0
 21 37  1  0
M  ISO  8  23  14  24  14  25  14  26  14  27  14  28  14  29  14  30  14
M  ISO  7  31   8  32   8  33   8  34   8  35  14  36  14  37   9
M  END
>  <minimizedAffinity>  (1) 
-4.96681833

>  <minimizedRMSD>  (1) 
0.771943212

$$$$
