
     RDKit          3D

 34 37  0  0  0  0  0  0  0  0999 V2000
   38.5970   30.4460   41.0410 C   0  0  0  0  0  0  0  0  0  0  0  0
   39.2000   31.7050   41.1760 C   0  0  0  0  0  0  0  0  0  0  0  0
   39.0250   32.3550   40.0220 N   0  0  0  0  0  0  0  0  0  0  0  0
   38.3440   31.6050   39.1320 C   0  0  0  0  0  0  0  0  0  0  0  0
   37.9630   31.9070   37.8440 C   0  0  0  0  0  0  0  0  0  0  0  0
   37.2550   30.9180   37.1490 C   0  0  0  0  0  0  0  0  0  0  0  0
   36.9660   29.7100   37.7470 C   0  0  0  0  0  0  0  0  0  0  0  0
   37.3470   29.4040   39.0420 C   0  0  0  0  0  0  0  0  0  0  0  0
   38.0490   30.3710   39.7470 C   0  0  0  0  0  0  0  0  0  0  0  0
   39.5820   27.5970   43.1070 C   0  0  0  0  0  0  0  0  0  0  0  0
   38.4230   27.3820   43.9200 C   0  0  0  0  0  0  0  0  0  0  0  0
   37.3190   28.2400   43.7280 C   0  0  0  0  0  0  0  0  0  0  0  0
   37.4220   29.2130   42.7890 N   0  0  0  0  0  0  0  0  0  0  0  0
   38.5310   29.3870   42.0390 C   0  0  0  0  0  0  0  0  0  0  0  0
   39.6020   28.5830   42.2000 N   0  0  0  0  0  0  0  0  0  0  0  0
   39.5580   33.6710   39.9170 C   0  0  0  0  0  0  0  0  0  0  0  0
   38.6520   34.6870   40.2260 C   0  0  0  0  0  0  0  0  0  0  0  0
   39.0660   36.0120   40.1570 C   0  0  0  0  0  0  0  0  0  0  0  0
   40.3720   36.2400   39.7790 C   0  0  0  0  0  0  0  0  0  0  0  0
   41.3060   35.2740   39.4630 C   0  0  0  0  0  0  0  0  0  0  0  0
   40.8690   33.9680   39.5410 C   0  0  0  0  0  0  0  0  0  0  0  0
   39.7205   32.0865   42.0668 H   0  0  0  0  0  0  0  0  0  0  0  0
   38.2026   32.8768   37.3835 H   0  0  0  0  0  0  0  0  0  0  0  0
   36.9266   31.1071   36.1163 H   0  0  0  0  0  0  0  0  0  0  0  0
   36.4088   28.9571   37.1703 H   0  0  0  0  0  0  0  0  0  0  0  0
   37.1027   28.4317   39.4947 H   0  0  0  0  0  0  0  0  0  0  0  0
   40.4620   26.9482   43.2279 H   0  0  0  0  0  0  0  0  0  0  0  0
   38.3941   26.5761   44.6682 H   0  0  0  0  0  0  0  0  0  0  0  0
   36.4012   28.1228   44.3230 H   0  0  0  0  0  0  0  0  0  0  0  0
   37.6211   34.4415   40.5210 H   0  0  0  0  0  0  0  0  0  0  0  0
   38.3827   36.8410   40.3933 H   0  0  0  0  0  0  0  0  0  0  0  0
   40.7001   37.2885   39.7241 H   0  0  0  0  0  0  0  0  0  0  0  0
   42.3343   35.5296   39.1675 H   0  0  0  0  0  0  0  0  0  0  0  0
   41.5636   33.1488   39.3035 H   0  0  0  0  0  0  0  0  0  0  0  0
  1  2  2  0
  1 14  1  0
  3  2  1  0
  4  9  2  0
  4  3  1  0
  5  4  1  0
  6  7  1  0
  6  5  2  0
  7  8  2  0
  8  9  1  0
  9  1  1  0
 10 11  2  0
 12 11  1  0
 13 12  2  0
 14 15  2  0
 14 13  1  0
 15 10  1  0
 16  3  1  0
 16 17  2  0
 18 17  1  0
 19 18  2  0
 20 21  2  0
 20 19  1  0
 21 16  1  0
  2 22  1  0
  5 23  1  0
  6 24  1  0
  7 25  1  0
  8 26  1  0
 10 27  1  0
 11 28  1  0
 12 29  1  0
 17 30  1  0
 18 31  1  0
 19 32  1  0
 20 33  1  0
 21 34  1  0
M  ISO  8  22  14  23  14  24  14  25  14  26  14  27  14  28  14  29  14
M  ISO  5  30  14  31  14  32  14  33  14  34  14
M  END
>  <minimizedAffinity>  (1) 
-6.21461964

>  <minimizedRMSD>  (1) 
5.96255827

$$$$
