
     RDKit          3D

 49 53  0  0  1  0  0  0  0  0999 V2000
   38.8710   35.5850   40.1180 C   0  0  0  0  0  0  0  0  0  0  0  0
   40.1970   35.9890   40.3130 C   0  0  0  0  0  0  0  0  0  0  0  0
   41.1270   34.9690   40.6200 C   0  0  0  0  0  0  0  0  0  0  0  0
   40.6450   33.7440   40.6890 N   0  0  0  0  0  0  0  0  0  0  0  0
   39.4120   33.3210   40.5130 C   0  0  0  0  0  0  0  0  0  0  0  0
   38.5500   34.3020   40.2250 N   0  0  0  0  0  0  0  0  0  0  0  0
   38.7750   32.0190   40.5670 C   0  0  0  0  0  0  0  0  0  0  0  0
   38.6900   31.2760   41.6920 N   0  0  0  0  0  0  0  0  0  0  0  0
   38.1170   30.0860   41.7800 C   0  0  0  0  0  0  0  0  0  0  0  0
   37.5670   29.5210   40.7250 N   0  0  0  0  0  0  0  0  0  0  0  0
   37.5840   30.1630   39.5310 C   0  0  0  0  0  0  0  0  0  0  0  0
   37.0080   29.5790   38.4160 C   0  0  0  0  0  0  0  0  0  0  0  0
   37.0100   30.1950   37.2130 C   0  0  0  0  0  0  0  0  0  0  0  0
   37.6220   31.4710   37.1170 C   0  0  0  0  0  0  0  0  0  0  0  0
   38.1750   31.9910   38.2650 C   0  0  0  0  0  0  0  0  0  0  0  0
   38.1910   31.4000   39.4850 C   0  0  0  0  0  0  0  0  0  0  0  0
   42.4010   35.2430   40.8250 O   0  0  0  0  0  0  0  0  0  0  0  0
   43.0740   35.1130   42.0650 C   0  0  2  0  0  0  0  0  0  0  0  0
   42.8280   36.4990   42.7790 C   0  0  0  0  0  0  0  0  0  0  0  0
   44.5360   34.9250   41.8940 C   0  0  0  0  0  0  0  0  0  0  0  0
   45.0330   34.2550   43.0870 N   0  0  0  0  0  0  0  0  0  0  0  0
   46.1360   34.6540   43.7790 C   0  0  0  0  0  0  0  0  0  0  0  0
   46.3200   33.8150   44.8310 N   0  0  0  0  0  0  0  0  0  0  0  0
   45.3220   32.9030   44.7770 C   0  0  0  0  0  0  0  0  0  0  0  0
   44.5420   33.1950   43.6950 N   0  0  0  0  0  0  0  0  0  0  0  0
   44.8450   31.7260   45.5180 C   0  0  0  0  0  0  0  0  0  0  0  0
   44.4460   30.5730   44.8310 C   0  0  0  0  0  0  0  0  0  0  0  0
   44.0050   29.4980   45.6050 C   0  0  0  0  0  0  0  0  0  0  0  0
   43.9880   29.6320   46.9900 C   0  0  0  0  0  0  0  0  0  0  0  0
   44.3880   30.7850   47.6360 C   0  0  0  0  0  0  0  0  0  0  0  0
   44.8090   31.8100   46.8780 N   0  0  0  0  0  0  0  0  0  0  0  0
   38.0975   36.3289   39.8768 H   0  0  0  0  0  0  0  0  0  0  0  0
   40.4994   37.0435   40.2318 H   0  0  0  0  0  0  0  0  0  0  0  0
   38.1000   29.5620   42.7470 H   0  0  0  0  0  0  0  0  0  0  0  0
   36.5372   28.5894   38.5114 H   0  0  0  0  0  0  0  0  0  0  0  0
   36.5502   29.7204   36.3336 H   0  0  0  0  0  0  0  0  0  0  0  0
   37.6533   32.0216   36.1653 H   0  0  0  0  0  0  0  0  0  0  0  0
   38.6492   32.9803   38.1851 H   0  0  0  0  0  0  0  0  0  0  0  0
   42.7067   34.2390   42.6228 H   0  0  0  0  0  0  0  0  0  0  0  0
   42.8528   36.3591   43.8698 H   0  0  0  0  0  0  0  0  0  0  0  0
   43.6142   37.2089   42.4824 H   0  0  0  0  0  0  0  0  0  0  0  0
   41.8455   36.8950   42.4824 H   0  0  0  0  0  0  0  0  0  0  0  0
   44.7339   34.3068   41.0060 H   0  0  0  0  0  0  0  0  0  0  0  0
   45.0379   35.8940   41.7561 H   0  0  0  0  0  0  0  0  0  0  0  0
   46.7733   35.5145   43.5272 H   0  0  0  0  0  0  0  0  0  0  0  0
   44.4785   30.5168   43.7329 H   0  0  0  0  0  0  0  0  0  0  0  0
   43.6770   28.5623   45.1288 H   0  0  0  0  0  0  0  0  0  0  0  0
   43.6408   28.7825   47.5965 H   0  0  0  0  0  0  0  0  0  0  0  0
   44.3626   30.8610   48.7331 H   0  0  0  0  0  0  0  0  0  0  0  0
  1  6  2  0
  1  2  1  0
  2  3  2  0
  3  4  1  0
  3 17  1  0
  5  7  1  0
  5  4  2  0
  6  5  1  0
  7  8  2  0
  8  9  1  0
 10  9  2  0
 11 10  1  0
 12 11  2  0
 13 12  1  0
 14 13  2  0
 14 15  1  0
 15 16  2  0
 16 11  1  0
 16  7  1  0
 17 18  1  0
 18 19  1  0
 20 18  1  0
 20 21  1  0
 21 25  1  0
 21 22  1  0
 22 23  2  0
 24 23  1  0
 24 26  1  0
 25 24  2  0
 26 31  1  0
 27 26  2  0
 27 28  1  0
 28 29  2  0
 29 30  1  0
 31 30  2  0
  1 32  1  0
  2 33  1  0
  9 34  1  0
 12 35  1  0
 13 36  1  0
 14 37  1  0
 15 38  1  0
 18 39  1  1
 19 40  1  0
 19 41  1  0
 19 42  1  0
 20 43  1  0
 20 44  1  0
 22 45  1  0
 27 46  1  0
 28 47  1  0
 29 48  1  0
 30 49  1  0
M  ISO  8  32  14  33  14  34  14  35  14  36  14  37  14  38  14  39   8
M  ISO  8  40   8  41   8  42   8  43   8  44   8  45  14  46  14  47  14
M  ISO  2  48  14  49  14
M  END
>  <minimizedAffinity>  (1) 
-6.89507103

>  <minimizedRMSD>  (1) 
0.36817807

$$$$
