
     RDKit          3D

 50 53  0  0  1  0  0  0  0  0999 V2000
   38.9100   35.5720   40.1630 C   0  0  0  0  0  0  0  0  0  0  0  0
   40.2530   35.6130   39.7790 C   0  0  0  0  0  0  0  0  0  0  0  0
   40.8260   34.3920   39.3980 C   0  0  0  0  0  0  0  0  0  0  0  0
   40.0200   33.3390   39.4460 N   0  0  0  0  0  0  0  0  0  0  0  0
   38.7570   33.2550   39.7980 C   0  0  0  0  0  0  0  0  0  0  0  0
   38.2440   34.4230   40.1540 N   0  0  0  0  0  0  0  0  0  0  0  0
   37.8010   32.1700   39.8850 C   0  0  0  0  0  0  0  0  0  0  0  0
   37.2220   31.7740   41.0300 N   0  0  0  0  0  0  0  0  0  0  0  0
   36.3440   30.7860   41.1460 C   0  0  0  0  0  0  0  0  0  0  0  0
   35.9640   30.0940   40.0910 N   0  0  0  0  0  0  0  0  0  0  0  0
   36.4680   30.3870   38.8770 C   0  0  0  0  0  0  0  0  0  0  0  0
   36.0720   29.6660   37.7700 C   0  0  0  0  0  0  0  0  0  0  0  0
   36.5650   29.9430   36.5370 C   0  0  0  0  0  0  0  0  0  0  0  0
   37.5000   30.9940   36.4090 C   0  0  0  0  0  0  0  0  0  0  0  0
   37.8490   31.6720   37.5630 C   0  0  0  0  0  0  0  0  0  0  0  0
   37.3750   31.4210   38.8120 C   0  0  0  0  0  0  0  0  0  0  0  0
   42.0890   34.2530   39.0050 O   0  0  0  0  0  0  0  0  0  0  0  0
   42.9790   33.2420   39.4550 C   0  0  2  0  0  0  0  0  0  0  0  0
   43.8000   33.8720   40.6180 C   0  0  0  0  0  0  0  0  0  0  0  0
   43.9190   32.8600   38.3630 C   0  0  0  0  0  0  0  0  0  0  0  0
   43.7780   31.4950   37.7930 C   0  0  0  0  0  0  0  0  0  0  0  0
   44.7790   31.4810   36.6220 C   0  0  0  0  0  0  0  0  0  0  0  0
   44.8120   30.1740   35.9110 C   0  0  0  0  0  0  0  0  0  0  0  0
   43.4560   29.9840   35.2480 C   0  0  0  0  0  0  0  0  0  0  0  0
   42.4540   29.9380   36.3760 C   0  0  0  0  0  0  0  0  0  0  0  0
   42.4270   31.2280   37.1780 C   0  0  0  0  0  0  0  0  0  0  0  0
   38.4017   36.4965   40.4744 H   0  0  0  0  0  0  0  0  0  0  0  0
   40.8280   36.5507   39.7759 H   0  0  0  0  0  0  0  0  0  0  0  0
   35.9284   30.5417   42.1347 H   0  0  0  0  0  0  0  0  0  0  0  0
   35.3428   28.8511   37.8892 H   0  0  0  0  0  0  0  0  0  0  0  0
   36.2446   29.3635   35.6586 H   0  0  0  0  0  0  0  0  0  0  0  0
   37.9320   31.2618   35.4335 H   0  0  0  0  0  0  0  0  0  0  0  0
   38.5774   32.4899   37.4605 H   0  0  0  0  0  0  0  0  0  0  0  0
   42.4253   32.3453   39.7702 H   0  0  0  0  0  0  0  0  0  0  0  0
   43.3787   33.5487   41.5813 H   0  0  0  0  0  0  0  0  0  0  0  0
   44.8475   33.5437   40.5472 H   0  0  0  0  0  0  0  0  0  0  0  0
   43.7539   34.9688   40.5472 H   0  0  0  0  0  0  0  0  0  0  0  0
   43.7808   33.5779   37.5411 H   0  0  0  0  0  0  0  0  0  0  0  0
   44.9153   32.8714   38.8292 H   0  0  0  0  0  0  0  0  0  0  0  0
   43.9314   30.7515   38.5890 H   0  0  0  0  0  0  0  0  0  0  0  0
   44.4930   32.2647   35.9050 H   0  0  0  0  0  0  0  0  0  0  0  0
   45.7813   31.6580   37.0392 H   0  0  0  0  0  0  0  0  0  0  0  0
   45.6056   30.1800   35.1494 H   0  0  0  0  0  0  0  0  0  0  0  0
   45.0195   29.3539   36.6141 H   0  0  0  0  0  0  0  0  0  0  0  0
   43.2370   30.8255   34.5743 H   0  0  0  0  0  0  0  0  0  0  0  0
   43.4257   29.0679   34.6398 H   0  0  0  0  0  0  0  0  0  0  0  0
   41.4536   29.7636   35.9532 H   0  0  0  0  0  0  0  0  0  0  0  0
   42.7507   29.1259   37.0560 H   0  0  0  0  0  0  0  0  0  0  0  0
   42.1606   32.0625   36.5127 H   0  0  0  0  0  0  0  0  0  0  0  0
   41.6824   31.1320   37.9820 H   0  0  0  0  0  0  0  0  0  0  0  0
  2  1  2  0
  3  4  2  0
  3  2  1  0
  4  5  1  0
  5  7  1  0
  5  6  2  0
  6  1  1  0
  7  8  2  0
  8  9  1  0
 10  9  2  0
 11 10  1  0
 12 11  2  0
 13 12  1  0
 14 13  2  0
 14 15  1  0
 15 16  2  0
 16 11  1  0
 16  7  1  0
 17  3  1  0
 17 18  1  0
 18 19  1  0
 20 18  1  0
 21 20  1  0
 22 21  1  0
 23 22  1  0
 24 23  1  0
 24 25  1  0
 25 26  1  0
 26 21  1  0
  1 27  1  0
  2 28  1  0
  9 29  1  0
 12 30  1  0
 13 31  1  0
 14 32  1  0
 15 33  1  0
 18 34  1  1
 19 35  1  0
 19 36  1  0
 19 37  1  0
 20 38  1  0
 20 39  1  0
 21 40  1  0
 22 41  1  0
 22 42  1  0
 23 43  1  0
 23 44  1  0
 24 45  1  0
 24 46  1  0
 25 47  1  0
 25 48  1  0
 26 49  1  0
 26 50  1  0
M  ISO  8  27  14  28  14  29  14  30  14  31  14  32  14  33  14  34   8
M  ISO  8  35   8  36   8  37   8  38   8  39   8  40  13  41  13  42  13
M  ISO  8  43  13  44  13  45  13  46  13  47  13  48  13  49  13  50  13
M  END
>  <minimizedAffinity>  (1) 
-5.81085968

>  <minimizedRMSD>  (1) 
1.5134151

$$$$
