
     RDKit          3D

 33 35  0  0  1  0  0  0  0  0999 V2000
   39.6510   29.6020   42.6520 N   0  0  0  0  0  0  0  0  0  0  0  0
   39.7990   31.0120   42.8230 C   0  0  0  0  0  0  0  0  0  0  0  0
   40.7770   31.4130   41.7350 C   0  0  0  0  0  0  0  0  0  0  0  0
   42.0530   30.8950   42.0710 N   0  0  0  0  0  0  0  0  0  0  0  0
   42.0980   29.5530   42.4490 C   0  0  0  0  0  0  0  0  0  0  0  0
   40.8250   28.7570   42.5310 C   0  0  2  0  0  0  0  0  0  0  0  0
   38.3870   28.9310   42.5900 C   0  0  0  0  0  0  0  0  0  0  0  0
   37.9480   28.0540   43.6140 C   0  0  0  0  0  0  0  0  0  0  0  0
   36.7070   27.4500   43.4600 C   0  0  0  0  0  0  0  0  0  0  0  0
   35.9910   27.7350   42.3430 N   0  0  0  0  0  0  0  0  0  0  0  0
   36.4350   28.5740   41.3850 C   0  0  0  0  0  0  0  0  0  0  0  0
   37.6250   29.1640   41.5140 N   0  0  0  0  0  0  0  0  0  0  0  0
   40.7060   27.7990   41.4250 C   0  0  0  0  0  0  0  0  0  0  0  0
   40.4050   26.6180   41.7660 O   0  0  0  0  0  0  0  0  0  0  0  0
   40.8290   27.7330   39.9910 C   0  0  0  0  0  0  0  0  0  0  0  0
   41.3780   26.8920   39.0080 C   0  0  0  0  0  0  0  0  0  0  0  0
   41.2300   27.2710   37.7390 C   0  0  0  0  0  0  0  0  0  0  0  0
   40.5940   28.4080   37.3030 C   0  0  0  0  0  0  0  0  0  0  0  0
   40.0630   29.1460   39.0030 S   0  0  0  0  0  0  0  0  0  0  0  0
   38.8351   31.5252   42.6908 H   0  0  0  0  0  0  0  0  0  0  0  0
   40.1515   31.2817   43.8295 H   0  0  0  0  0  0  0  0  0  0  0  0
   40.8272   32.5097   41.6656 H   0  0  0  0  0  0  0  0  0  0  0  0
   40.4491   31.0130   40.7642 H   0  0  0  0  0  0  0  0  0  0  0  0
   42.6639   31.0098   41.2497 H   0  0  0  0  0  0  0  0  0  0  0  0
   42.7485   29.0399   41.7255 H   0  0  0  0  0  0  0  0  0  0  0  0
   42.4414   29.5934   43.4932 H   0  0  0  0  0  0  0  0  0  0  0  0
   40.8804   28.1691   43.4591 H   0  0  0  0  0  0  0  0  0  0  0  0
   38.5694   27.8587   44.5004 H   0  0  0  0  0  0  0  0  0  0  0  0
   36.3154   26.7600   44.2220 H   0  0  0  0  0  0  0  0  0  0  0  0
   35.8163   28.7720   40.4973 H   0  0  0  0  0  0  0  0  0  0  0  0
   41.9054   25.9640   39.2737 H   0  0  0  0  0  0  0  0  0  0  0  0
   41.6569   26.6119   36.9687 H   0  0  0  0  0  0  0  0  0  0  0  0
   40.4344   28.7865   36.2826 H   0  0  0  0  0  0  0  0  0  0  0  0
  1  2  1  0
  3  4  1  0
  3  2  1  0
  4  5  1  0
  5  6  1  0
  6  1  1  0
  7  1  1  0
  7  8  2  0
  9  8  1  0
 10  9  2  0
 11 12  2  0
 11 10  1  0
 12  7  1  0
 13 14  2  0
 13  6  1  0
 15 13  1  0
 16 15  2  0
 17 16  1  0
 18 17  2  0
 18 19  1  0
 19 15  1  0
  2 20  1  0
  2 21  1  0
  3 22  1  0
  3 23  1  0
  4 24  1  0
  5 25  1  0
  5 26  1  0
  6 27  1  1
  8 28  1  0
  9 29  1  0
 11 30  1  0
 16 31  1  0
 17 32  1  0
 18 33  1  0
M  ISO  8  20  13  21  13  22  13  23  13  24   5  25  13  26  13  27  13
M  ISO  6  28  14  29  14  30  14  31  14  32  14  33  14
M  END
>  <minimizedAffinity>  (1) 
-3.34438658

>  <minimizedRMSD>  (1) 
0.406548053

$$$$
