
     RDKit          3D

 39 42  0  0  0  0  0  0  0  0999 V2000
   36.7350   29.7910   39.8380 C   0  0  0  0  0  0  0  0  0  0  0  0
   37.5980   30.8930   39.8570 C   0  0  0  0  0  0  0  0  0  0  0  0
   38.2380   30.8450   41.0180 N   0  0  0  0  0  0  0  0  0  0  0  0
   37.8630   29.8010   41.7600 C   0  0  0  0  0  0  0  0  0  0  0  0
   38.2920   29.4060   43.0180 C   0  0  0  0  0  0  0  0  0  0  0  0
   37.7180   28.2610   43.5500 C   0  0  0  0  0  0  0  0  0  0  0  0
   36.7500   27.5430   42.8430 C   0  0  0  0  0  0  0  0  0  0  0  0
   36.3320   27.9490   41.5910 C   0  0  0  0  0  0  0  0  0  0  0  0
   36.8970   29.0910   41.0460 C   0  0  0  0  0  0  0  0  0  0  0  0
   33.6680   28.8040   38.1100 C   0  0  0  0  0  0  0  0  0  0  0  0
   34.0720   28.6970   36.7590 C   0  0  0  0  0  0  0  0  0  0  0  0
   35.4030   28.9690   36.4670 C   0  0  0  0  0  0  0  0  0  0  0  0
   36.2180   29.3150   37.4860 N   0  0  0  0  0  0  0  0  0  0  0  0
   35.8090   29.4090   38.7650 C   0  0  0  0  0  0  0  0  0  0  0  0
   34.5420   29.1540   39.0670 N   0  0  0  0  0  0  0  0  0  0  0  0
   39.2040   31.8620   41.3350 C   0  0  0  0  0  0  0  0  0  0  0  0
   38.7540   33.2630   41.0500 C   0  0  0  0  0  0  0  0  0  0  0  0
   39.9350   33.9100   40.4300 N   0  0  0  0  0  0  0  0  0  0  0  0
   41.1130   33.3360   40.3150 N   0  0  0  0  0  0  0  0  0  0  0  0
   41.9790   34.1600   39.7150 C   0  0  0  0  0  0  0  0  0  0  0  0
   41.2860   35.3530   39.4310 C   0  0  0  0  0  0  0  0  0  0  0  0
   40.0040   35.1360   39.9030 C   0  0  0  0  0  0  0  0  0  0  0  0
   38.9260   36.0500   39.8480 N   0  0  0  0  0  0  0  0  0  0  0  0
   37.7210   31.6482   39.0667 H   0  0  0  0  0  0  0  0  0  0  0  0
   39.0541   29.9758   43.5698 H   0  0  0  0  0  0  0  0  0  0  0  0
   38.0301   27.9122   44.5454 H   0  0  0  0  0  0  0  0  0  0  0  0
   36.3133   26.6385   43.2915 H   0  0  0  0  0  0  0  0  0  0  0  0
   35.5691   27.3797   41.0397 H   0  0  0  0  0  0  0  0  0  0  0  0
   32.6221   28.5974   38.3807 H   0  0  0  0  0  0  0  0  0  0  0  0
   33.3608   28.4098   35.9705 H   0  0  0  0  0  0  0  0  0  0  0  0
   35.7813   28.9043   35.4361 H   0  0  0  0  0  0  0  0  0  0  0  0
   39.4393   31.7890   42.4071 H   0  0  0  0  0  0  0  0  0  0  0  0
   40.0740   31.6771   40.6877 H   0  0  0  0  0  0  0  0  0  0  0  0
   37.9004   33.2642   40.3562 H   0  0  0  0  0  0  0  0  0  0  0  0
   38.4156   33.7874   41.9558 H   0  0  0  0  0  0  0  0  0  0  0  0
   43.0336   33.9463   39.4864 H   0  0  0  0  0  0  0  0  0  0  0  0
   41.6777   36.2572   38.9420 H   0  0  0  0  0  0  0  0  0  0  0  0
   38.0070   35.7861   40.2310 H   0  0  0  0  0  0  0  0  0  0  0  0
   39.0600   36.9795   39.4249 H   0  0  0  0  0  0  0  0  0  0  0  0
  1  2  2  0
  1  9  1  0
  2  3  1  0
  3 16  1  0
  3  4  1  0
  4  5  2  0
  5  6  1  0
  7  6  2  0
  8  7  1  0
  9  8  2  0
  9  4  1  0
 10 15  2  0
 11 10  1  0
 12 11  2  0
 12 13  1  0
 13 14  2  0
 14 15  1  0
 14  1  1  0
 17 16  1  0
 18 17  1  0
 19 18  1  0
 20 19  2  0
 21 20  1  0
 21 22  2  0
 22 18  1  0
 23 22  1  0
  2 24  1  0
  5 25  1  0
  6 26  1  0
  7 27  1  0
  8 28  1  0
 10 29  1  0
 11 30  1  0
 12 31  1  0
 16 32  1  0
 16 33  1  0
 17 34  1  0
 17 35  1  0
 20 36  1  0
 21 37  1  0
 23 38  1  0
 23 39  1  0
M  ISO  8  24  14  25  14  26  14  27  14  28  14  29  14  30  14  31  14
M  ISO  6  32   8  33   8  34   8  35   8  36  14  37  14
M  END
>  <minimizedAffinity>  (1) 
-5.97531366

>  <minimizedRMSD>  (1) 
0.914184988

$$$$
