
     RDKit          3D

 14 14  0  0  0  0  0  0  0  0999 V2000
   38.7880   28.6720   43.0960 C   0  0  0  0  0  0  0  0  0  0  0  0
   38.1540   27.4050   43.0110 C   0  0  0  0  0  0  0  0  0  0  0  0
   36.9200   27.3650   42.3520 C   0  0  0  0  0  0  0  0  0  0  0  0
   36.4150   28.5200   41.8460 N   0  0  0  0  0  0  0  0  0  0  0  0
   37.0480   29.6920   41.9500 C   0  0  0  0  0  0  0  0  0  0  0  0
   38.2340   29.7690   42.5750 N   0  0  0  0  0  0  0  0  0  0  0  0
   36.3080   30.6890   41.3490 O   0  0  0  0  0  0  0  0  0  0  0  0
   36.6960   31.4200   40.2400 C   0  0  0  0  0  0  0  0  0  0  0  0
   36.9850   31.0680   39.0670 O   0  0  0  0  0  0  0  0  0  0  0  0
   36.7900   32.8090   40.4500 O   0  0  0  0  0  0  0  0  0  0  0  0
   39.7604   28.7520   43.6040 H   0  0  0  0  0  0  0  0  0  0  0  0
   38.6093   26.5007   43.4411 H   0  0  0  0  0  0  0  0  0  0  0  0
   36.3705   26.4180   42.2460 H   0  0  0  0  0  0  0  0  0  0  0  0
   37.0615   33.4047   39.7073 H   0  0  0  0  0  0  0  0  0  0  0  0
  2  1  2  0
  3  2  1  0
  4  5  1  0
  4  3  2  0
  5  6  2  0
  6  1  1  0
  7  5  1  0
  8 10  1  0
  8  7  1  0
  9  8  2  0
  1 11  1  0
  2 12  1  0
  3 13  1  0
 10 14  1  0
M  ISO  4  11  14  12  14  13  14  14   3
M  END
>  <minimizedAffinity>  (1) 
-3.59602928

>  <minimizedRMSD>  (1) 
1.62482655

$$$$
