
     RDKit          3D

 48 51  0  0  1  0  0  0  0  0999 V2000
   39.1260   30.7360   41.8840 C   0  0  0  0  0  0  0  0  0  0  0  0
   38.7590   29.5770   42.5620 C   0  0  0  0  0  0  0  0  0  0  0  0
   37.4950   28.9880   42.5230 C   0  0  0  0  0  0  0  0  0  0  0  0
   36.6230   29.6580   41.7450 N   0  0  0  0  0  0  0  0  0  0  0  0
   36.9220   30.7640   41.0820 C   0  0  0  0  0  0  0  0  0  0  0  0
   38.1450   31.2730   41.1610 N   0  0  0  0  0  0  0  0  0  0  0  0
   40.3930   31.3890   41.8950 C   0  0  0  0  0  0  0  0  0  0  0  0
   41.3470   30.9750   42.8100 C   0  0  0  0  0  0  0  0  0  0  0  0
   42.5980   31.5390   42.9560 C   0  0  0  0  0  0  0  0  0  0  0  0
   42.9420   32.5940   42.1400 C   0  0  0  0  0  0  0  0  0  0  0  0
   42.0320   33.0580   41.1980 C   0  0  0  0  0  0  0  0  0  0  0  0
   42.3670   34.1040   40.3780 C   0  0  0  0  0  0  0  0  0  0  0  0
   41.4920   34.5920   39.4240 C   0  0  0  0  0  0  0  0  0  0  0  0
   40.2690   33.9560   39.3550 C   0  0  0  0  0  0  0  0  0  0  0  0
   39.9880   32.9190   40.1960 C   0  0  0  0  0  0  0  0  0  0  0  0
   40.8380   32.4350   41.1380 C   0  0  0  0  0  0  0  0  0  0  0  0
   37.2220   27.8010   43.3550 C   0  0  2  0  0  0  0  0  0  0  0  0
   36.7860   28.1720   44.7460 C   0  0  0  0  0  0  0  0  0  0  0  0
   38.3730   26.8590   43.3380 C   0  0  0  0  0  0  0  0  0  0  0  0
   38.4500   25.7670   42.3960 C   0  0  0  0  0  0  0  0  0  0  0  0
   36.9970   25.2340   42.1720 C   0  0  0  0  0  0  0  0  0  0  0  0
   37.2020   24.0040   41.3220 C   0  0  0  0  0  0  0  0  0  0  0  0
   38.6760   23.6790   41.2950 C   0  0  0  0  0  0  0  0  0  0  0  0
   39.2580   24.5550   42.4630 C   0  0  0  0  0  0  0  0  0  0  0  0
   39.5271   29.0863   43.1778 H   0  0  0  0  0  0  0  0  0  0  0  0
   36.1576   31.2606   40.4663 H   0  0  0  0  0  0  0  0  0  0  0  0
   41.0880   30.1337   43.4696 H   0  0  0  0  0  0  0  0  0  0  0  0
   43.3042   31.1549   43.7068 H   0  0  0  0  0  0  0  0  0  0  0  0
   43.9310   33.0663   42.2335 H   0  0  0  0  0  0  0  0  0  0  0  0
   43.3589   34.5682   40.4813 H   0  0  0  0  0  0  0  0  0  0  0  0
   41.7538   35.4319   38.7637 H   0  0  0  0  0  0  0  0  0  0  0  0
   39.5194   34.2858   38.6206 H   0  0  0  0  0  0  0  0  0  0  0  0
   39.0018   32.4405   40.1044 H   0  0  0  0  0  0  0  0  0  0  0  0
   36.3690   27.2680   42.9097 H   0  0  0  0  0  0  0  0  0  0  0  0
   37.4101   27.6409   45.4798 H   0  0  0  0  0  0  0  0  0  0  0  0
   36.8966   29.2572   44.8877 H   0  0  0  0  0  0  0  0  0  0  0  0
   35.7325   27.8892   44.8877 H   0  0  0  0  0  0  0  0  0  0  0  0
   39.2713   27.4722   43.1738 H   0  0  0  0  0  0  0  0  0  0  0  0
   38.2564   26.3318   44.2964 H   0  0  0  0  0  0  0  0  0  0  0  0
   39.0280   26.3282   41.6471 H   0  0  0  0  0  0  0  0  0  0  0  0
   36.5206   24.9758   43.1293 H   0  0  0  0  0  0  0  0  0  0  0  0
   36.3356   25.9760   41.7007 H   0  0  0  0  0  0  0  0  0  0  0  0
   36.6438   23.1591   41.7516 H   0  0  0  0  0  0  0  0  0  0  0  0
   36.8384   24.1878   40.3002 H   0  0  0  0  0  0  0  0  0  0  0  0
   38.8474   22.6086   41.4815 H   0  0  0  0  0  0  0  0  0  0  0  0
   39.1463   23.8884   40.3229 H   0  0  0  0  0  0  0  0  0  0  0  0
   40.3220   24.7792   42.2970 H   0  0  0  0  0  0  0  0  0  0  0  0
   39.2133   24.0571   43.4428 H   0  0  0  0  0  0  0  0  0  0  0  0
  1  7  1  0
  1  2  2  0
  3  2  1  0
  3 17  1  0
  4  3  2  0
  5  6  2  0
  5  4  1  0
  6  1  1  0
  7  8  2  0
  8  9  1  0
 10  9  2  0
 11 10  1  0
 12 11  2  0
 13 12  1  0
 14 13  2  0
 14 15  1  0
 15 16  2  0
 16 11  1  0
 16  7  1  0
 17 18  1  0
 19 17  1  0
 20 24  1  0
 20 19  1  0
 21 20  1  0
 22 21  1  0
 23 22  1  0
 23 24  1  0
  2 25  1  0
  5 26  1  0
  8 27  1  0
  9 28  1  0
 10 29  1  0
 12 30  1  0
 13 31  1  0
 14 32  1  0
 15 33  1  0
 17 34  1  6
 18 35  1  0
 18 36  1  0
 18 37  1  0
 19 38  1  0
 19 39  1  0
 20 40  1  0
 21 41  1  0
 21 42  1  0
 22 43  1  0
 22 44  1  0
 23 45  1  0
 23 46  1  0
 24 47  1  0
 24 48  1  0
M  ISO  8  25  14  26  14  27  14  28  14  29  14  30  14  31  14  32  14
M  ISO  8  33  14  34   8  35   8  36   8  37   8  38   8  39   8  40  13
M  ISO  8  41  13  42  13  43  13  44  13  45  13  46  13  47  13  48  13
M  END
>  <minimizedAffinity>  (1) 
-6.51200533

>  <minimizedRMSD>  (1) 
0.969152451

$$$$
