
     RDKit          3D

 34 37  0  0  0  0  0  0  0  0999 V2000
   36.6910   28.9360   39.6330 C   0  0  0  0  0  0  0  0  0  0  0  0
   35.4290   28.3530   39.4630 C   0  0  0  0  0  0  0  0  0  0  0  0
   34.7290   28.5930   38.3100 C   0  0  0  0  0  0  0  0  0  0  0  0
   35.3030   29.4090   37.3510 C   0  0  0  0  0  0  0  0  0  0  0  0
   36.5510   29.9780   37.5360 C   0  0  0  0  0  0  0  0  0  0  0  0
   37.2680   29.7540   38.6740 C   0  0  0  0  0  0  0  0  0  0  0  0
   38.5610   30.3660   38.8080 C   0  0  0  0  0  0  0  0  0  0  0  0
   39.7560   29.7500   38.5610 N   0  0  0  0  0  0  0  0  0  0  0  0
   40.9230   30.4010   38.7070 C   0  0  0  0  0  0  0  0  0  0  0  0
   41.0000   31.7000   39.1040 N   0  0  0  0  0  0  0  0  0  0  0  0
   39.8590   32.3630   39.3630 C   0  0  0  0  0  0  0  0  0  0  0  0
   39.9310   33.6810   39.7660 C   0  0  0  0  0  0  0  0  0  0  0  0
   38.7800   34.3880   40.0390 C   0  0  0  0  0  0  0  0  0  0  0  0
   37.5380   33.7610   39.9040 C   0  0  0  0  0  0  0  0  0  0  0  0
   37.5300   32.4510   39.5010 C   0  0  0  0  0  0  0  0  0  0  0  0
   38.6560   31.7000   39.2160 C   0  0  0  0  0  0  0  0  0  0  0  0
   37.9050   29.2980   43.0870 C   0  0  0  0  0  0  0  0  0  0  0  0
   38.7480   28.1950   43.2260 C   0  0  0  0  0  0  0  0  0  0  0  0
   38.9140   27.3030   42.1270 C   0  0  0  0  0  0  0  0  0  0  0  0
   38.2370   27.5740   40.9920 N   0  0  0  0  0  0  0  0  0  0  0  0
   37.4230   28.6610   40.8920 C   0  0  0  0  0  0  0  0  0  0  0  0
   37.2820   29.4840   41.9330 N   0  0  0  0  0  0  0  0  0  0  0  0
   35.0042   27.7090   40.2471 H   0  0  0  0  0  0  0  0  0  0  0  0
   33.7356   28.1482   38.1506 H   0  0  0  0  0  0  0  0  0  0  0  0
   34.7541   29.6102   36.4192 H   0  0  0  0  0  0  0  0  0  0  0  0
   36.9722   30.6228   36.7506 H   0  0  0  0  0  0  0  0  0  0  0  0
   41.8570   29.8595   38.4962 H   0  0  0  0  0  0  0  0  0  0  0  0
   40.9112   34.1692   39.8697 H   0  0  0  0  0  0  0  0  0  0  0  0
   38.8382   35.4382   40.3608 H   0  0  0  0  0  0  0  0  0  0  0  0
   36.6017   34.2990   40.1134 H   0  0  0  0  0  0  0  0  0  0  0  0
   36.5520   31.9586   39.3961 H   0  0  0  0  0  0  0  0  0  0  0  0
   37.7603   30.0006   43.9209 H   0  0  0  0  0  0  0  0  0  0  0  0
   39.2784   28.0159   44.1729 H   0  0  0  0  0  0  0  0  0  0  0  0
   39.5713   26.4241   42.2016 H   0  0  0  0  0  0  0  0  0  0  0  0
  1 21  1  0
  2  1  2  0
  3  2  1  0
  4  5  1  0
  4  3  2  0
  5  6  2  0
  6  7  1  0
  6  1  1  0
  7 16  2  0
  8  9  2  0
  8  7  1  0
  9 10  1  0
 10 11  2  0
 11 12  1  0
 12 13  2  0
 14 13  1  0
 15 14  2  0
 16 11  1  0
 16 15  1  0
 17 18  2  0
 19 18  1  0
 20 19  2  0
 21 20  1  0
 21 22  2  0
 22 17  1  0
  2 23  1  0
  3 24  1  0
  4 25  1  0
  5 26  1  0
  9 27  1  0
 12 28  1  0
 13 29  1  0
 14 30  1  0
 15 31  1  0
 17 32  1  0
 18 33  1  0
 19 34  1  0
M  ISO  8  23  14  24  14  25  14  26  14  27  14  28  14  29  14  30  14
M  ISO  4  31  14  32  14  33  14  34  14
M  END
>  <minimizedAffinity>  (1) 
-5.62088966

>  <minimizedRMSD>  (1) 
4.55580902

$$$$
