
     RDKit          3D

 46 51  0  0  1  0  0  0  0  0999 V2000
   39.9040   26.2710   43.7750 C   0  0  2  0  0  0  0  0  0  0  0  0
   40.9770   25.7930   42.7780 C   0  0  0  0  0  0  0  0  0  0  0  0
   39.7470   24.9890   43.0100 C   0  0  2  0  0  0  0  0  0  0  0  0
   38.6880   24.8790   41.9650 C   0  0  0  0  0  0  0  0  0  0  0  0
   37.6320   24.0170   42.1700 C   0  0  0  0  0  0  0  0  0  0  0  0
   36.7350   23.9940   41.1280 C   0  0  0  0  0  0  0  0  0  0  0  0
   36.8100   24.7010   40.0030 N   0  0  0  0  0  0  0  0  0  0  0  0
   37.8660   25.5410   39.8350 C   0  0  0  0  0  0  0  0  0  0  0  0
   38.7510   25.5790   40.8350 N   0  0  0  0  0  0  0  0  0  0  0  0
   38.2540   26.4520   38.7400 C   0  0  0  0  0  0  0  0  0  0  0  0
   39.3600   26.2970   37.9970 N   0  0  0  0  0  0  0  0  0  0  0  0
   39.7150   27.1190   37.0090 C   0  0  0  0  0  0  0  0  0  0  0  0
   38.9690   28.1890   36.6760 N   0  0  0  0  0  0  0  0  0  0  0  0
   37.8180   28.4400   37.3720 C   0  0  0  0  0  0  0  0  0  0  0  0
   37.0580   29.5360   37.0310 C   0  0  0  0  0  0  0  0  0  0  0  0
   35.8960   29.8020   37.7220 C   0  0  0  0  0  0  0  0  0  0  0  0
   35.5450   28.9340   38.7490 C   0  0  0  0  0  0  0  0  0  0  0  0
   36.3540   27.8580   39.0350 C   0  0  0  0  0  0  0  0  0  0  0  0
   37.5140   27.5540   38.3780 C   0  0  0  0  0  0  0  0  0  0  0  0
   38.5290   29.3280   42.5070 C   0  0  0  0  0  0  0  0  0  0  0  0
   37.4620   28.8810   43.3010 C   0  0  0  0  0  0  0  0  0  0  0  0
   37.8880   27.6830   43.8520 C   0  0  0  0  0  0  0  0  0  0  0  0
   39.1360   27.4460   43.4000 N   0  0  0  0  0  0  0  0  0  0  0  0
   39.5340   28.4290   42.5910 N   0  0  0  0  0  0  0  0  0  0  0  0
   37.1610   32.0040   40.4130 C   0  0  0  0  0  0  0  0  0  0  0  0
   38.2160   32.9370   40.3560 C   0  0  0  0  0  0  0  0  0  0  0  0
   39.3980   32.6270   41.0490 C   0  0  0  0  0  0  0  0  0  0  0  0
   39.4760   31.4580   41.7350 N   0  0  0  0  0  0  0  0  0  0  0  0
   38.4290   30.5810   41.7650 C   0  0  0  0  0  0  0  0  0  0  0  0
   37.2600   30.8630   41.0940 N   0  0  0  0  0  0  0  0  0  0  0  0
   39.8563   26.5389   44.8408 H   0  0  0  0  0  0  0  0  0  0  0  0
   41.9492   25.4322   43.1448 H   0  0  0  0  0  0  0  0  0  0  0  0
   41.4728   26.2259   41.8966 H   0  0  0  0  0  0  0  0  0  0  0  0
   39.5708   23.9388   43.2858 H   0  0  0  0  0  0  0  0  0  0  0  0
   37.5180   23.4071   43.0783 H   0  0  0  0  0  0  0  0  0  0  0  0
   35.8689   23.3243   41.2350 H   0  0  0  0  0  0  0  0  0  0  0  0
   40.6416   26.9176   36.4515 H   0  0  0  0  0  0  0  0  0  0  0  0
   37.3768   30.1962   36.2109 H   0  0  0  0  0  0  0  0  0  0  0  0
   35.2689   30.6699   37.4699 H   0  0  0  0  0  0  0  0  0  0  0  0
   34.6266   29.1059   39.3295 H   0  0  0  0  0  0  0  0  0  0  0  0
   36.0440   27.1923   39.8540 H   0  0  0  0  0  0  0  0  0  0  0  0
   36.4921   29.3769   43.4538 H   0  0  0  0  0  0  0  0  0  0  0  0
   37.3120   27.0412   44.5349 H   0  0  0  0  0  0  0  0  0  0  0  0
   36.2256   32.2250   39.8780 H   0  0  0  0  0  0  0  0  0  0  0  0
   38.1173   33.8745   39.7891 H   0  0  0  0  0  0  0  0  0  0  0  0
   40.2498   33.3228   41.0360 H   0  0  0  0  0  0  0  0  0  0  0  0
  2  3  1  0
  2  1  1  0
  3  1  1  0
  4  5  2  0
  4  3  1  0
  6  5  1  0
  7  6  2  0
  8  7  1  0
  8  9  2  0
  9  4  1  0
 10  8  1  0
 11 10  2  0
 12 11  1  0
 13 12  2  0
 13 14  1  0
 14 19  2  0
 15 14  1  0
 15 16  2  0
 16 17  1  0
 17 18  2  0
 19 10  1  0
 19 18  1  0
 20 24  2  0
 20 21  1  0
 21 22  2  0
 23  1  1  0
 23 22  1  0
 24 23  1  0
 25 30  2  0
 26 25  1  0
 26 27  2  0
 27 28  1  0
 28 29  2  0
 29 20  1  0
 30 29  1  0
  1 31  1  1
  2 32  1  0
  2 33  1  0
  3 34  1  1
  5 35  1  0
  6 36  1  0
 12 37  1  0
 15 38  1  0
 16 39  1  0
 17 40  1  0
 18 41  1  0
 21 42  1  0
 22 43  1  0
 25 44  1  0
 26 45  1  0
 27 46  1  0
M  ISO  8  31  13  32  13  33  13  34  13  35  14  36  14  37  14  38  14
M  ISO  8  39  14  40  14  41  14  42  14  43  14  44  14  45  14  46  14
M  END
>  <minimizedAffinity>  (1) 
-6.42428493

>  <minimizedRMSD>  (1) 
1.05478764

$$$$
