
     RDKit          3D

 53 58  0  0  1  0  0  0  0  0999 V2000
   37.2820   26.0750   41.2850 C   0  0  0  0  0  0  0  0  0  0  0  0
   37.8460   24.9270   40.7740 C   0  0  0  0  0  0  0  0  0  0  0  0
   37.5750   24.6820   39.4360 C   0  0  0  0  0  0  0  0  0  0  0  0
   36.7930   25.5520   38.7120 C   0  0  0  0  0  0  0  0  0  0  0  0
   36.2410   26.6960   39.2550 C   0  0  0  0  0  0  0  0  0  0  0  0
   36.5140   26.9210   40.5570 N   0  0  0  0  0  0  0  0  0  0  0  0
   35.4200   27.6130   38.4900 C   0  0  0  0  0  0  0  0  0  0  0  0
   35.8460   28.8970   38.4150 N   0  0  0  0  0  0  0  0  0  0  0  0
   35.0380   29.5920   37.7150 O   0  0  0  0  0  0  0  0  0  0  0  0
   34.0620   28.7760   37.3160 C   0  0  0  0  0  0  0  0  0  0  0  0
   34.2990   27.5380   37.8000 N   0  0  0  0  0  0  0  0  0  0  0  0
   33.0220   29.3770   36.4950 C   0  0  0  0  0  0  0  0  0  0  0  0
   33.1300   29.5870   35.1570 N   0  0  0  0  0  0  0  0  0  0  0  0
   32.1940   30.1330   34.3950 C   0  0  0  0  0  0  0  0  0  0  0  0
   31.0230   30.5410   34.8810 N   0  0  0  0  0  0  0  0  0  0  0  0
   30.8030   30.3800   36.2170 C   0  0  0  0  0  0  0  0  0  0  0  0
   29.6010   30.7950   36.7470 C   0  0  0  0  0  0  0  0  0  0  0  0
   29.3360   30.6550   38.0860 C   0  0  0  0  0  0  0  0  0  0  0  0
   30.3260   30.0780   38.8840 C   0  0  0  0  0  0  0  0  0  0  0  0
   31.5050   29.6850   38.2900 C   0  0  0  0  0  0  0  0  0  0  0  0
   31.8040   29.8070   36.9710 C   0  0  0  0  0  0  0  0  0  0  0  0
   37.4690   26.4830   42.6820 C   0  0  0  0  0  0  0  0  0  0  0  0
   36.8870   27.7960   43.0110 C   0  0  2  0  0  0  0  0  0  0  0  0
   38.3960   30.8490   41.7030 N   0  0  0  0  0  0  0  0  0  0  0  0
   39.3860   30.3000   42.3930 C   0  0  0  0  0  0  0  0  0  0  0  0
   39.0030   29.1490   42.9530 N   0  0  0  0  0  0  0  0  0  0  0  0
   37.6990   28.9600   42.5970 C   0  0  0  0  0  0  0  0  0  0  0  0
   37.3680   30.0150   41.8380 N   0  0  0  0  0  0  0  0  0  0  0  0
   37.1400   32.1470   39.9480 C   0  0  0  0  0  0  0  0  0  0  0  0
   38.1490   32.0170   40.9040 C   0  0  0  0  0  0  0  0  0  0  0  0
   39.0220   33.1320   41.1230 C   0  0  0  0  0  0  0  0  0  0  0  0
   38.8050   34.2340   40.3840 N   0  0  0  0  0  0  0  0  0  0  0  0
   37.8220   34.3060   39.4790 C   0  0  0  0  0  0  0  0  0  0  0  0
   37.0150   33.2730   39.2770 N   0  0  0  0  0  0  0  0  0  0  0  0
   36.7610   27.9150   44.5470 C   0  0  0  0  0  0  0  0  0  0  0  0
   38.4665   24.2532   41.3830 H   0  0  0  0  0  0  0  0  0  0  0  0
   37.9883   23.7857   38.9503 H   0  0  0  0  0  0  0  0  0  0  0  0
   36.5985   25.3265   37.6531 H   0  0  0  0  0  0  0  0  0  0  0  0
   32.3915   30.2541   33.3197 H   0  0  0  0  0  0  0  0  0  0  0  0
   28.8436   31.2446   36.0880 H   0  0  0  0  0  0  0  0  0  0  0  0
   28.3785   30.9853   38.5152 H   0  0  0  0  0  0  0  0  0  0  0  0
   30.1677   29.9403   39.9638 H   0  0  0  0  0  0  0  0  0  0  0  0
   32.2696   29.2338   38.9395 H   0  0  0  0  0  0  0  0  0  0  0  0
   37.0001   25.7262   43.3281 H   0  0  0  0  0  0  0  0  0  0  0  0
   38.5537   26.5687   42.8437 H   0  0  0  0  0  0  0  0  0  0  0  0
   35.9310   27.8257   42.4676 H   0  0  0  0  0  0  0  0  0  0  0  0
   40.3914   30.7352   42.4916 H   0  0  0  0  0  0  0  0  0  0  0  0
   36.4513   31.3111   39.7558 H   0  0  0  0  0  0  0  0  0  0  0  0
   39.8343   33.0882   41.8635 H   0  0  0  0  0  0  0  0  0  0  0  0
   37.6821   35.2294   38.8978 H   0  0  0  0  0  0  0  0  0  0  0  0
   37.4803   27.2356   45.0276 H   0  0  0  0  0  0  0  0  0  0  0  0
   36.9732   28.9500   44.8532 H   0  0  0  0  0  0  0  0  0  0  0  0
   35.7398   27.6441   44.8532 H   0  0  0  0  0  0  0  0  0  0  0  0
  1 22  1  0
  2  1  2  0
  3  2  1  0
  4  5  1  0
  4  3  2  0
  5  6  2  0
  6  1  1  0
  7  5  1  0
  8  7  2  0
  9  8  1  0
 10  9  1  0
 10 11  2  0
 11  7  1  0
 12 21  1  0
 12 10  1  0
 13 12  2  0
 14 15  2  0
 14 13  1  0
 15 16  1  0
 16 17  1  0
 16 21  2  0
 17 18  2  0
 18 19  1  0
 20 19  2  0
 21 20  1  0
 22 23  1  0
 23 35  1  0
 24 28  1  0
 24 25  1  0
 25 26  2  0
 27 26  1  0
 27 23  1  0
 28 27  2  0
 29 30  2  0
 30 31  1  0
 30 24  1  0
 32 31  2  0
 33 32  1  0
 34 33  2  0
 34 29  1  0
  2 36  1  0
  3 37  1  0
  4 38  1  0
 14 39  1  0
 17 40  1  0
 18 41  1  0
 19 42  1  0
 20 43  1  0
 22 44  1  0
 22 45  1  0
 23 46  1  6
 25 47  1  0
 29 48  1  0
 31 49  1  0
 33 50  1  0
 35 51  1  0
 35 52  1  0
 35 53  1  0
M  ISO  8  36  14  37  14  38  14  39  14  40  14  41  14  42  14  43  14
M  ISO  8  44   8  45   8  46   8  47  14  48  14  49  14  50  14  51   8
M  ISO  2  52   8  53   8
M  END
>  <minimizedAffinity>  (1) 
-6.82048798

>  <minimizedRMSD>  (1) 
1.94830287

$$$$
