
     RDKit          3D

 33 35  0  0  0  0  0  0  0  0999 V2000
   38.7020   28.1490   42.7080 C   0  0  0  0  0  0  0  0  0  0  0  0
   37.5980   27.3790   42.9640 C   0  0  0  0  0  0  0  0  0  0  0  0
   36.5310   27.9860   42.3200 C   0  0  0  0  0  0  0  0  0  0  0  0
   37.0590   29.0920   41.7120 N   0  0  0  0  0  0  0  0  0  0  0  0
   38.3310   29.1790   41.9450 N   0  0  0  0  0  0  0  0  0  0  0  0
   41.6470   26.5600   44.3980 C   0  0  0  0  0  0  0  0  0  0  0  0
   40.3360   26.7550   43.9530 C   0  0  0  0  0  0  0  0  0  0  0  0
   40.0420   27.8810   43.1990 C   0  0  0  0  0  0  0  0  0  0  0  0
   41.0360   28.7770   42.9050 N   0  0  0  0  0  0  0  0  0  0  0  0
   42.2990   28.5500   43.3580 C   0  0  0  0  0  0  0  0  0  0  0  0
   42.6020   27.4540   44.0950 N   0  0  0  0  0  0  0  0  0  0  0  0
   36.1290   29.9120   40.9640 C   0  0  0  0  0  0  0  0  0  0  0  0
   34.9940   29.1530   40.3520 C   0  0  0  0  0  0  0  0  0  0  0  0
   34.9740   29.1170   38.8870 C   0  0  0  0  0  0  0  0  0  0  0  0
   36.1740   29.5700   38.3190 C   0  0  0  0  0  0  0  0  0  0  0  0
   36.3890   29.6320   36.9580 C   0  0  0  0  0  0  0  0  0  0  0  0
   35.3920   29.2340   36.0890 C   0  0  0  0  0  0  0  0  0  0  0  0
   34.2150   28.7900   36.6380 C   0  0  0  0  0  0  0  0  0  0  0  0
   34.0060   28.7310   37.9920 C   0  0  0  0  0  0  0  0  0  0  0  0
   37.5648   26.4578   43.5642 H   0  0  0  0  0  0  0  0  0  0  0  0
   35.4837   27.6502   42.3017 H   0  0  0  0  0  0  0  0  0  0  0  0
   41.8967   25.6723   44.9977 H   0  0  0  0  0  0  0  0  0  0  0  0
   39.5494   26.0260   44.1974 H   0  0  0  0  0  0  0  0  0  0  0  0
   43.0928   29.2734   43.1202 H   0  0  0  0  0  0  0  0  0  0  0  0
   35.7107   30.6675   41.6453 H   0  0  0  0  0  0  0  0  0  0  0  0
   36.6971   30.3544   40.1324 H   0  0  0  0  0  0  0  0  0  0  0  0
   35.0451   28.1160   40.7155 H   0  0  0  0  0  0  0  0  0  0  0  0
   34.0792   29.6847   40.6527 H   0  0  0  0  0  0  0  0  0  0  0  0
   36.9828   29.8914   38.9917 H   0  0  0  0  0  0  0  0  0  0  0  0
   37.3501   29.9967   36.5665 H   0  0  0  0  0  0  0  0  0  0  0  0
   35.5357   29.2714   34.9991 H   0  0  0  0  0  0  0  0  0  0  0  0
   33.4067   28.4685   35.9647 H   0  0  0  0  0  0  0  0  0  0  0  0
   33.0399   28.3658   38.3706 H   0  0  0  0  0  0  0  0  0  0  0  0
  1  2  1  0
  1  8  1  0
  3  2  2  0
  4  5  1  0
  4  3  1  0
  5  1  2  0
  7  6  2  0
  8  7  1  0
  9  8  2  0
  9 10  1  0
 10 11  2  0
 11  6  1  0
 12  4  1  0
 13 12  1  0
 14 13  1  0
 15 14  2  0
 16 15  1  0
 17 18  1  0
 17 16  2  0
 18 19  2  0
 19 14  1  0
  2 20  1  0
  3 21  1  0
  6 22  1  0
  7 23  1  0
 10 24  1  0
 12 25  1  0
 12 26  1  0
 13 27  1  0
 13 28  1  0
 15 29  1  0
 16 30  1  0
 17 31  1  0
 18 32  1  0
 19 33  1  0
M  ISO  8  20  14  21  14  22  14  23  14  24  14  25   8  26   8  27   8
M  ISO  6  28   8  29  14  30  14  31  14  32  14  33  14
M  END
>  <minimizedAffinity>  (1) 
-4.92070007

>  <minimizedRMSD>  (1) 
1.4381063

$$$$
