
     RDKit          3D

 22 24  0  0  1  0  0  0  0  0999 V2000
   36.1910   30.7400   40.8270 C   0  0  1  0  0  0  0  0  0  0  0  0
   37.0950   31.8640   40.4420 C   0  0  0  0  0  0  0  0  0  0  0  0
   36.7240   30.8780   39.3900 C   0  0  1  0  0  0  0  0  0  0  0  0
   38.5230   28.9800   43.0890 C   0  0  0  0  0  0  0  0  0  0  0  0
   37.9350   27.6920   43.1600 C   0  0  0  0  0  0  0  0  0  0  0  0
   36.7500   27.4510   42.4210 C   0  0  0  0  0  0  0  0  0  0  0  0
   36.2310   28.4560   41.6810 N   0  0  0  0  0  0  0  0  0  0  0  0
   36.8210   29.6790   41.6360 C   0  0  0  0  0  0  0  0  0  0  0  0
   37.9510   29.9380   42.3300 N   0  0  0  0  0  0  0  0  0  0  0  0
   37.7270   29.8680   38.9500 C   0  0  0  0  0  0  0  0  0  0  0  0
   39.0630   30.0080   39.0210 N   0  0  0  0  0  0  0  0  0  0  0  0
   39.5690   28.9340   38.5490 O   0  0  0  0  0  0  0  0  0  0  0  0
   38.6640   28.0710   38.1610 C   0  0  0  0  0  0  0  0  0  0  0  0
   37.4770   28.6550   38.4110 N   0  0  0  0  0  0  0  0  0  0  0  0
   35.1974   30.6510   41.2906 H   0  0  0  0  0  0  0  0  0  0  0  0
   36.6979   32.8886   40.3916 H   0  0  0  0  0  0  0  0  0  0  0  0
   38.0510   32.2444   40.8309 H   0  0  0  0  0  0  0  0  0  0  0  0
   36.2921   30.9570   38.3814 H   0  0  0  0  0  0  0  0  0  0  0  0
   39.4431   29.1979   43.6511 H   0  0  0  0  0  0  0  0  0  0  0  0
   38.3874   26.8991   43.7737 H   0  0  0  0  0  0  0  0  0  0  0  0
   36.2622   26.4655   42.4491 H   0  0  0  0  0  0  0  0  0  0  0  0
   38.8372   27.0771   37.7226 H   0  0  0  0  0  0  0  0  0  0  0  0
  1  8  1  0
  2  1  1  0
  3  2  1  0
  3  1  1  0
  4  5  2  0
  6  5  1  0
  7  6  2  0
  8  7  1  0
  8  9  2  0
  9  4  1  0
 10 11  2  0
 10  3  1  0
 12 11  1  0
 13 14  2  0
 13 12  1  0
 14 10  1  0
  1 15  1  6
  2 16  1  0
  2 17  1  0
  3 18  1  6
  4 19  1  0
  5 20  1  0
  6 21  1  0
 13 22  1  0
M  ISO  8  15  13  16  13  17  13  18  13  19  14  20  14  21  14  22  14
M  END
>  <minimizedAffinity>  (1) 
-3.84930229

>  <minimizedRMSD>  (1) 
0.31306994

$$$$
