
     RDKit          3D

 45 49  0  0  1  0  0  0  0  0999 V2000
   38.9850   35.5070   40.2350 C   0  0  0  0  0  0  0  0  0  0  0  0
   40.3360   35.8530   40.3780 C   0  0  0  0  0  0  0  0  0  0  0  0
   41.2380   34.7900   40.6080 C   0  0  0  0  0  0  0  0  0  0  0  0
   40.7100   33.5840   40.6640 N   0  0  0  0  0  0  0  0  0  0  0  0
   39.4590   33.2110   40.5370 C   0  0  0  0  0  0  0  0  0  0  0  0
   38.6210   34.2290   40.3200 N   0  0  0  0  0  0  0  0  0  0  0  0
   38.7770   31.9300   40.5820 C   0  0  0  0  0  0  0  0  0  0  0  0
   38.6610   31.1840   41.7020 N   0  0  0  0  0  0  0  0  0  0  0  0
   38.0470   30.0140   41.7780 C   0  0  0  0  0  0  0  0  0  0  0  0
   37.4810   29.4750   40.7170 N   0  0  0  0  0  0  0  0  0  0  0  0
   37.5270   30.1210   39.5330 C   0  0  0  0  0  0  0  0  0  0  0  0
   36.9350   29.5640   38.4090 C   0  0  0  0  0  0  0  0  0  0  0  0
   36.9670   30.1940   37.2080 C   0  0  0  0  0  0  0  0  0  0  0  0
   37.6220   31.4470   37.1230 C   0  0  0  0  0  0  0  0  0  0  0  0
   38.1830   31.9310   38.2760 C   0  0  0  0  0  0  0  0  0  0  0  0
   38.1740   31.3380   39.4900 C   0  0  0  0  0  0  0  0  0  0  0  0
   42.5290   35.0130   40.7590 O   0  0  0  0  0  0  0  0  0  0  0  0
   43.2620   34.7990   41.9500 C   0  0  2  0  0  0  0  0  0  0  0  0
   43.1480   36.1730   42.7180 C   0  0  0  0  0  0  0  0  0  0  0  0
   44.6970   34.5230   41.6910 C   0  0  0  0  0  0  0  0  0  0  0  0
   45.2890   34.0840   42.9500 N   0  0  0  0  0  0  0  0  0  0  0  0
   46.4800   34.5240   43.4370 C   0  0  0  0  0  0  0  0  0  0  0  0
   46.7320   33.9230   44.6170 N   0  0  0  0  0  0  0  0  0  0  0  0
   45.6790   33.1000   44.8590 C   0  0  0  0  0  0  0  0  0  0  0  0
   44.8130   33.2170   43.8290 N   0  0  0  0  0  0  0  0  0  0  0  0
   45.3810   32.1960   45.9740 C   0  0  0  0  0  0  0  0  0  0  0  0
   46.2290   31.8420   46.9460 N   0  0  0  0  0  0  0  0  0  0  0  0
   45.6400   31.0340   47.7610 O   0  0  0  0  0  0  0  0  0  0  0  0
   44.4120   30.8270   47.3670 C   0  0  0  0  0  0  0  0  0  0  0  0
   44.2240   31.5560   46.2310 N   0  0  0  0  0  0  0  0  0  0  0  0
   38.2303   36.2865   40.0537 H   0  0  0  0  0  0  0  0  0  0  0  0
   40.6760   36.8972   40.3145 H   0  0  0  0  0  0  0  0  0  0  0  0
   38.0086   29.4837   42.7410 H   0  0  0  0  0  0  0  0  0  0  0  0
   36.4289   28.5910   38.4933 H   0  0  0  0  0  0  0  0  0  0  0  0
   36.4960   29.7430   36.3222 H   0  0  0  0  0  0  0  0  0  0  0  0
   37.6778   32.0050   36.1767 H   0  0  0  0  0  0  0  0  0  0  0  0
   38.6934   32.9029   38.2058 H   0  0  0  0  0  0  0  0  0  0  0  0
   42.8708   33.9306   42.5003 H   0  0  0  0  0  0  0  0  0  0  0  0
   43.1632   35.9893   43.8024 H   0  0  0  0  0  0  0  0  0  0  0  0
   43.9957   36.8180   42.4434 H   0  0  0  0  0  0  0  0  0  0  0  0
   42.2056   36.6694   42.4434 H   0  0  0  0  0  0  0  0  0  0  0  0
   44.7973   33.7329   40.9323 H   0  0  0  0  0  0  0  0  0  0  0  0
   45.2049   35.4235   41.3152 H   0  0  0  0  0  0  0  0  0  0  0  0
   47.1361   35.2568   42.9444 H   0  0  0  0  0  0  0  0  0  0  0  0
   43.6681   30.1840   47.8602 H   0  0  0  0  0  0  0  0  0  0  0  0
  1  6  2  0
  1  2  1  0
  2  3  2  0
  3  4  1  0
  3 17  1  0
  5  7  1  0
  5  4  2  0
  6  5  1  0
  7  8  2  0
  8  9  1  0
 10  9  2  0
 11 10  1  0
 12 11  2  0
 13 12  1  0
 14 13  2  0
 14 15  1  0
 15 16  2  0
 16 11  1  0
 16  7  1  0
 17 18  1  0
 18 19  1  0
 20 18  1  0
 20 21  1  0
 21 22  1  0
 21 25  1  0
 22 23  2  0
 23 24  1  0
 24 26  1  0
 25 24  2  0
 26 30  1  0
 26 27  2  0
 27 28  1  0
 29 28  1  0
 30 29  2  0
  1 31  1  0
  2 32  1  0
  9 33  1  0
 12 34  1  0
 13 35  1  0
 14 36  1  0
 15 37  1  0
 18 38  1  1
 19 39  1  0
 19 40  1  0
 19 41  1  0
 20 42  1  0
 20 43  1  0
 22 44  1  0
 29 45  1  0
M  ISO  8  31  14  32  14  33  14  34  14  35  14  36  14  37  14  38   8
M  ISO  7  39   8  40   8  41   8  42   8  43   8  44  14  45  14
M  END
>  <minimizedAffinity>  (1) 
-6.68466759

>  <minimizedRMSD>  (1) 
0.34596318

$$$$
