
     RDKit          3D

 34 36  0  0  1  0  0  0  0  0999 V2000
   36.6390   31.4120   40.5710 N   0  0  0  0  0  0  0  0  0  0  0  0
   36.8980   32.6070   39.8470 C   0  0  0  0  0  0  0  0  0  0  0  0
   38.2150   32.5230   39.0620 C   0  0  0  0  0  0  0  0  0  0  0  0
   39.2580   32.2160   40.1440 C   0  0  1  0  0  0  0  0  0  0  0  0
   38.9750   30.7990   40.6030 C   0  0  0  0  0  0  0  0  0  0  0  0
   37.6820   30.9070   41.4070 C   0  0  2  0  0  0  0  0  0  0  0  0
   37.3100   29.6480   42.0380 C   0  0  0  0  0  0  0  0  0  0  0  0
   36.4370   28.6780   41.6670 N   0  0  0  0  0  0  0  0  0  0  0  0
   36.4440   27.7320   42.5630 O   0  0  0  0  0  0  0  0  0  0  0  0
   37.2980   28.0250   43.5350 C   0  0  0  0  0  0  0  0  0  0  0  0
   37.8410   29.2310   43.2030 N   0  0  0  0  0  0  0  0  0  0  0  0
   40.5070   32.3890   39.6720 O   0  0  0  0  0  0  0  0  0  0  0  0
   41.1010   33.5030   39.1290 C   0  0  0  0  0  0  0  0  0  0  0  0
   41.4630   33.4710   37.9540 O   0  0  0  0  0  0  0  0  0  0  0  0
   41.2870   34.7020   39.9670 C   0  0  0  0  0  0  0  0  0  0  0  0
   40.3490   35.6860   39.8200 C   0  0  0  0  0  0  0  0  0  0  0  0
   40.4480   36.8070   40.6800 C   0  0  0  0  0  0  0  0  0  0  0  0
   41.4740   36.8250   41.5990 N   0  0  0  0  0  0  0  0  0  0  0  0
   42.3550   35.8130   41.6790 C   0  0  0  0  0  0  0  0  0  0  0  0
   42.2750   34.7180   40.8520 N   0  0  0  0  0  0  0  0  0  0  0  0
   43.6650   35.9060   42.8870 S   0  0  0  0  0  0  0  0  0  0  0  0
   36.4118   30.6786   39.8844 H   0  0  0  0  0  0  0  0  0  0  0  0
   36.0729   32.7816   39.1408 H   0  0  0  0  0  0  0  0  0  0  0  0
   36.9817   33.4330   40.5686 H   0  0  0  0  0  0  0  0  0  0  0  0
   38.1760   31.7177   38.3137 H   0  0  0  0  0  0  0  0  0  0  0  0
   38.4382   33.4420   38.5003 H   0  0  0  0  0  0  0  0  0  0  0  0
   39.1887   32.9041   40.9994 H   0  0  0  0  0  0  0  0  0  0  0  0
   38.8411   30.1304   39.7398 H   0  0  0  0  0  0  0  0  0  0  0  0
   39.8013   30.3790   41.1953 H   0  0  0  0  0  0  0  0  0  0  0  0
   37.8501   31.6145   42.2323 H   0  0  0  0  0  0  0  0  0  0  0  0
   37.5220   27.4196   44.4257 H   0  0  0  0  0  0  0  0  0  0  0  0
   39.5516   35.6102   39.0661 H   0  0  0  0  0  0  0  0  0  0  0  0
   39.7286   37.6367   40.6161 H   0  0  0  0  0  0  0  0  0  0  0  0
   43.1280   35.8679   44.1468 H   0  0  0  0  0  0  0  0  0  0  0  0
  1  6  1  0
  2  1  1  0
  3  2  1  0
  3  4  1  0
  4  5  1  0
  5  6  1  0
  6  7  1  0
  7 11  1  0
  8  7  2  0
  8  9  1  0
  9 10  1  0
 11 10  2  0
 12  4  1  0
 13 12  1  0
 13 15  1  0
 14 13  2  0
 15 20  1  0
 16 15  2  0
 16 17  1  0
 17 18  2  0
 18 19  1  0
 19 21  1  0
 20 19  2  0
  1 22  1  0
  2 23  1  0
  2 24  1  0
  3 25  1  0
  3 26  1  0
  4 27  1  1
  5 28  1  0
  5 29  1  0
  6 30  1  1
 10 31  1  0
 16 32  1  0
 17 33  1  0
 21 34  1  0
M  ISO  8  22   5  23  13  24  13  25  13  26  13  27  13  28  13  29  13
M  ISO  5  30  13  31  14  32  14  33  14  34  11
M  END
>  <minimizedAffinity>  (1) 
-5.54007483

>  <minimizedRMSD>  (1) 
6.90585184

$$$$
