
     RDKit          3D

 48 52  0  0  1  0  0  0  0  0999 V2000
   38.7880   35.6470   40.0760 C   0  0  0  0  0  0  0  0  0  0  0  0
   40.0920   36.1050   40.2870 C   0  0  0  0  0  0  0  0  0  0  0  0
   41.0410   35.1320   40.6220 C   0  0  0  0  0  0  0  0  0  0  0  0
   40.6010   33.8830   40.7060 N   0  0  0  0  0  0  0  0  0  0  0  0
   39.3820   33.4190   40.5150 C   0  0  0  0  0  0  0  0  0  0  0  0
   38.5020   34.3580   40.1970 N   0  0  0  0  0  0  0  0  0  0  0  0
   38.7890   32.0880   40.5780 C   0  0  0  0  0  0  0  0  0  0  0  0
   38.7350   31.3430   41.6960 N   0  0  0  0  0  0  0  0  0  0  0  0
   38.2090   30.1390   41.7880 C   0  0  0  0  0  0  0  0  0  0  0  0
   37.6680   29.5470   40.7400 N   0  0  0  0  0  0  0  0  0  0  0  0
   37.6570   30.1860   39.5550 C   0  0  0  0  0  0  0  0  0  0  0  0
   37.0930   29.5800   38.4480 C   0  0  0  0  0  0  0  0  0  0  0  0
   37.0650   30.1930   37.2450 C   0  0  0  0  0  0  0  0  0  0  0  0
   37.6310   31.4930   37.1360 C   0  0  0  0  0  0  0  0  0  0  0  0
   38.1750   32.0330   38.2830 C   0  0  0  0  0  0  0  0  0  0  0  0
   38.2180   31.4420   39.5030 C   0  0  0  0  0  0  0  0  0  0  0  0
   42.3280   35.3950   40.8570 O   0  0  0  0  0  0  0  0  0  0  0  0
   42.9360   35.3660   42.1380 C   0  0  2  0  0  0  0  0  0  0  0  0
   42.6130   36.6980   42.8450 C   0  0  0  0  0  0  0  0  0  0  0  0
   44.4270   35.2250   41.9990 C   0  0  0  0  0  0  0  0  0  0  0  0
   44.8420   33.9970   42.7300 C   0  0  0  0  0  0  0  0  0  0  0  0
   44.9600   32.7120   42.2210 C   0  0  0  0  0  0  0  0  0  0  0  0
   45.3600   31.8280   43.1540 N   0  0  0  0  0  0  0  0  0  0  0  0
   45.5120   32.5230   44.2960 C   0  0  0  0  0  0  0  0  0  0  0  0
   45.8940   32.1730   45.5630 C   0  0  0  0  0  0  0  0  0  0  0  0
   45.9780   33.0820   46.5920 C   0  0  0  0  0  0  0  0  0  0  0  0
   45.6690   34.4210   46.3730 C   0  0  0  0  0  0  0  0  0  0  0  0
   45.2900   34.7360   45.0910 C   0  0  0  0  0  0  0  0  0  0  0  0
   45.1990   33.8410   44.0450 C   0  0  0  0  0  0  0  0  0  0  0  0
   37.9946   36.3603   39.8080 H   0  0  0  0  0  0  0  0  0  0  0  0
   40.3570   37.1686   40.1951 H   0  0  0  0  0  0  0  0  0  0  0  0
   38.2209   29.6173   42.7563 H   0  0  0  0  0  0  0  0  0  0  0  0
   36.6569   28.5752   38.5493 H   0  0  0  0  0  0  0  0  0  0  0  0
   36.6155   29.6989   36.3710 H   0  0  0  0  0  0  0  0  0  0  0  0
   37.6349   32.0418   36.1827 H   0  0  0  0  0  0  0  0  0  0  0  0
   38.6154   33.0376   38.2003 H   0  0  0  0  0  0  0  0  0  0  0  0
   42.5547   34.5126   42.7180 H   0  0  0  0  0  0  0  0  0  0  0  0
   42.6482   36.5526   43.9348 H   0  0  0  0  0  0  0  0  0  0  0  0
   43.3530   37.4574   42.5522 H   0  0  0  0  0  0  0  0  0  0  0  0
   41.6073   37.0341   42.5522 H   0  0  0  0  0  0  0  0  0  0  0  0
   44.6962   35.1359   40.9362 H   0  0  0  0  0  0  0  0  0  0  0  0
   44.9351   36.1077   42.4146 H   0  0  0  0  0  0  0  0  0  0  0  0
   44.7506   32.4458   41.1744 H   0  0  0  0  0  0  0  0  0  0  0  0
   45.5184   30.8191   43.0202 H   0  0  0  0  0  0  0  0  0  0  0  0
   46.1441   31.1214   45.7667 H   0  0  0  0  0  0  0  0  0  0  0  0
   46.2909   32.7489   47.5926 H   0  0  0  0  0  0  0  0  0  0  0  0
   45.7245   35.1753   47.1717 H   0  0  0  0  0  0  0  0  0  0  0  0
   45.0388   35.7862   44.8814 H   0  0  0  0  0  0  0  0  0  0  0  0
  1  6  2  0
  1  2  1  0
  2  3  2  0
  3  4  1  0
  3 17  1  0
  5  7  1  0
  5  4  2  0
  6  5  1  0
  7  8  2  0
  8  9  1  0
 10  9  2  0
 11 10  1  0
 12 11  2  0
 13 12  1  0
 14 13  2  0
 14 15  1  0
 15 16  2  0
 16 11  1  0
 16  7  1  0
 17 18  1  0
 18 19  1  0
 20 18  1  0
 20 21  1  0
 21 29  1  0
 22 21  2  0
 22 23  1  0
 23 24  1  0
 24 25  2  0
 25 26  1  0
 27 26  2  0
 28 27  1  0
 29 24  1  0
 29 28  2  0
  1 30  1  0
  2 31  1  0
  9 32  1  0
 12 33  1  0
 13 34  1  0
 14 35  1  0
 15 36  1  0
 18 37  1  1
 19 38  1  0
 19 39  1  0
 19 40  1  0
 20 41  1  0
 20 42  1  0
 22 43  1  0
 23 44  1  0
 25 45  1  0
 26 46  1  0
 27 47  1  0
 28 48  1  0
M  ISO  8  30  14  31  14  32  14  33  14  34  14  35  14  36  14  37   8
M  ISO  8  38   8  39   8  40   8  41   8  42   8  43  14  44   9  45  14
M  ISO  3  46  14  47  14  48  14
M  END
>  <minimizedAffinity>  (1) 
-6.63830757

>  <minimizedRMSD>  (1) 
1.46374786

$$$$
