
     RDKit          3D

 41 44  0  0  1  0  0  0  0  0999 V2000
   37.5640   30.3120   40.6160 C   0  0  0  0  0  0  0  0  0  0  0  0
   37.6510   31.5070   41.0560 O   0  0  0  0  0  0  0  0  0  0  0  0
   38.6010   29.3410   40.7400 N   0  0  0  0  0  0  0  0  0  0  0  0
   40.0170   29.5460   40.4900 C   0  0  0  0  0  0  0  0  0  0  0  0
   40.3970   28.4070   39.5530 C   0  0  0  0  0  0  0  0  0  0  0  0
   40.3620   27.1790   40.2830 N   0  0  0  0  0  0  0  0  0  0  0  0
   39.2530   26.9950   41.1270 C   0  0  0  0  0  0  0  0  0  0  0  0
   38.1920   28.0410   41.1520 C   0  0  1  0  0  0  0  0  0  0  0  0
   35.5180   29.1720   37.8150 C   0  0  0  0  0  0  0  0  0  0  0  0
   34.3190   28.8700   38.3840 C   0  0  0  0  0  0  0  0  0  0  0  0
   34.1770   29.0470   39.7400 C   0  0  0  0  0  0  0  0  0  0  0  0
   35.1820   29.5080   40.5170 N   0  0  0  0  0  0  0  0  0  0  0  0
   36.3640   29.8000   39.9240 C   0  0  0  0  0  0  0  0  0  0  0  0
   36.5090   29.6280   38.5950 N   0  0  0  0  0  0  0  0  0  0  0  0
   35.5530   27.6920   34.4550 C   0  0  0  0  0  0  0  0  0  0  0  0
   36.1540   28.7380   33.6850 C   0  0  0  0  0  0  0  0  0  0  0  0
   36.5230   29.8990   34.3340 C   0  0  0  0  0  0  0  0  0  0  0  0
   36.3000   30.0020   35.6750 N   0  0  0  0  0  0  0  0  0  0  0  0
   35.7300   29.0070   36.3980 C   0  0  0  0  0  0  0  0  0  0  0  0
   35.3700   27.8810   35.7790 N   0  0  0  0  0  0  0  0  0  0  0  0
   37.5600   28.1170   42.5090 C   0  0  0  0  0  0  0  0  0  0  0  0
   36.6080   27.2370   42.9790 C   0  0  0  0  0  0  0  0  0  0  0  0
   36.2830   27.6530   44.2710 C   0  0  0  0  0  0  0  0  0  0  0  0
   37.0330   28.7440   44.5280 N   0  0  0  0  0  0  0  0  0  0  0  0
   37.7940   29.0230   43.4810 N   0  0  0  0  0  0  0  0  0  0  0  0
   40.1920   30.5207   40.0110 H   0  0  0  0  0  0  0  0  0  0  0  0
   40.6130   29.5491   41.4145 H   0  0  0  0  0  0  0  0  0  0  0  0
   41.4105   28.5744   39.1595 H   0  0  0  0  0  0  0  0  0  0  0  0
   39.6888   28.3624   38.7125 H   0  0  0  0  0  0  0  0  0  0  0  0
   40.3707   26.4069   39.6014 H   0  0  0  0  0  0  0  0  0  0  0  0
   38.7714   26.0523   40.8281 H   0  0  0  0  0  0  0  0  0  0  0  0
   39.6805   27.0236   42.1401 H   0  0  0  0  0  0  0  0  0  0  0  0
   37.4637   27.7109   40.3966 H   0  0  0  0  0  0  0  0  0  0  0  0
   33.4844   28.4937   37.7742 H   0  0  0  0  0  0  0  0  0  0  0  0
   33.2118   28.8050   40.2088 H   0  0  0  0  0  0  0  0  0  0  0  0
   35.2456   26.7505   33.9763 H   0  0  0  0  0  0  0  0  0  0  0  0
   36.3177   28.6198   32.6037 H   0  0  0  0  0  0  0  0  0  0  0  0
   36.9888   30.7266   33.7789 H   0  0  0  0  0  0  0  0  0  0  0  0
   36.1868   26.3752   42.4406 H   0  0  0  0  0  0  0  0  0  0  0  0
   35.5557   27.1820   44.9487 H   0  0  0  0  0  0  0  0  0  0  0  0
   37.0163   29.2801   45.4073 H   0  0  0  0  0  0  0  0  0  0  0  0
  1  3  1  0
  1  2  2  0
  3  8  1  0
  4  3  1  0
  5  6  1  0
  5  4  1  0
  6  7  1  0
  7  8  1  0
  8 21  1  0
  9 10  2  0
  9 14  1  0
 10 11  1  0
 11 12  2  0
 13 12  1  0
 13  1  1  0
 14 13  2  0
 15 20  2  0
 16 17  2  0
 16 15  1  0
 17 18  1  0
 18 19  2  0
 19  9  1  0
 20 19  1  0
 21 22  1  0
 21 25  2  0
 22 23  2  0
 23 24  1  0
 25 24  1  0
  4 26  1  0
  4 27  1  0
  5 28  1  0
  5 29  1  0
  6 30  1  0
  7 31  1  0
  7 32  1  0
  8 33  1  6
 10 34  1  0
 11 35  1  0
 15 36  1  0
 16 37  1  0
 17 38  1  0
 22 39  1  0
 23 40  1  0
 24 41  1  0
M  ISO  8  26  13  27  13  28  13  29  13  30   5  31  13  32  13  33  13
M  ISO  8  34  14  35  14  36  14  37  14  38  14  39  14  40  14  41   9
M  END
>  <minimizedAffinity>  (1) 
-5.40235662

>  <minimizedRMSD>  (1) 
6.43479347

$$$$
