
     RDKit          3D

 34 37  0  0  0  0  0  0  0  0999 V2000
   36.8170   27.3950   42.9660 C   0  0  0  0  0  0  0  0  0  0  0  0
   40.2340   29.0250   42.7420 C   0  0  0  0  0  0  0  0  0  0  0  0
   39.2100   28.0850   43.0340 C   0  0  0  0  0  0  0  0  0  0  0  0
   37.9060   28.3560   42.6750 C   0  0  0  0  0  0  0  0  0  0  0  0
   37.6560   29.5340   42.0430 N   0  0  0  0  0  0  0  0  0  0  0  0
   38.6370   30.4310   41.7650 C   0  0  0  0  0  0  0  0  0  0  0  0
   39.8950   30.1690   42.1130 N   0  0  0  0  0  0  0  0  0  0  0  0
   38.2220   31.6510   41.0840 C   0  0  0  0  0  0  0  0  0  0  0  0
   38.9540   32.7940   40.8380 C   0  0  0  0  0  0  0  0  0  0  0  0
   38.2210   33.7410   40.1660 C   0  0  0  0  0  0  0  0  0  0  0  0
   37.0120   33.1410   40.0070 N   0  0  0  0  0  0  0  0  0  0  0  0
   37.0060   31.9380   40.5330 N   0  0  0  0  0  0  0  0  0  0  0  0
   36.9540   26.1960   42.1240 C   0  0  0  0  0  0  0  0  0  0  0  0
   37.0290   24.8720   42.3400 C   0  0  0  0  0  0  0  0  0  0  0  0
   37.1540   23.9830   41.3370 C   0  0  0  0  0  0  0  0  0  0  0  0
   37.1970   24.6140   40.0430 C   0  0  0  0  0  0  0  0  0  0  0  0
   37.0620   26.3280   40.3450 S   0  0  0  0  0  0  0  0  0  0  0  0
   37.3270   23.9530   38.7480 C   0  0  0  0  0  0  0  0  0  0  0  0
   38.3620   23.1800   38.3740 C   0  0  0  0  0  0  0  0  0  0  0  0
   38.0360   22.7850   37.0790 C   0  0  0  0  0  0  0  0  0  0  0  0
   36.8410   23.3250   36.7260 N   0  0  0  0  0  0  0  0  0  0  0  0
   36.4050   24.0510   37.7690 N   0  0  0  0  0  0  0  0  0  0  0  0
   36.8654   27.1019   44.0251 H   0  0  0  0  0  0  0  0  0  0  0  0
   35.8505   27.8742   42.7509 H   0  0  0  0  0  0  0  0  0  0  0  0
   41.2787   28.8248   43.0222 H   0  0  0  0  0  0  0  0  0  0  0  0
   39.4563   27.1428   43.5454 H   0  0  0  0  0  0  0  0  0  0  0  0
   40.0017   32.9308   41.1441 H   0  0  0  0  0  0  0  0  0  0  0  0
   38.5359   34.7421   39.8364 H   0  0  0  0  0  0  0  0  0  0  0  0
   36.2052   33.5738   39.5351 H   0  0  0  0  0  0  0  0  0  0  0  0
   36.9867   24.5008   43.3746 H   0  0  0  0  0  0  0  0  0  0  0  0
   37.2164   22.8953   41.4888 H   0  0  0  0  0  0  0  0  0  0  0  0
   39.2584   22.9200   38.9561 H   0  0  0  0  0  0  0  0  0  0  0  0
   38.6520   22.1352   36.4400 H   0  0  0  0  0  0  0  0  0  0  0  0
   36.3580   23.2009   35.8248 H   0  0  0  0  0  0  0  0  0  0  0  0
  2  3  2  0
  4  1  1  0
  4  3  1  0
  5  4  2  0
  6  5  1  0
  6  7  2  0
  7  2  1  0
  8  6  1  0
  9  8  1  0
 10  9  2  0
 11 10  1  0
 11 12  1  0
 12  8  2  0
 13 14  2  0
 13  1  1  0
 15 14  1  0
 16 17  1  0
 16 15  2  0
 17 13  1  0
 18 16  1  0
 19 18  1  0
 20 19  2  0
 21 20  1  0
 21 22  1  0
 22 18  2  0
  1 23  1  0
  1 24  1  0
  2 25  1  0
  3 26  1  0
  9 27  1  0
 10 28  1  0
 11 29  1  0
 14 30  1  0
 15 31  1  0
 19 32  1  0
 20 33  1  0
 21 34  1  0
M  ISO  8  23   8  24   8  25  14  26  14  27  14  28  14  29   9  30  14
M  ISO  4  31  14  32  14  33  14  34   9
M  END
>  <minimizedAffinity>  (1) 
-5.27847862

>  <minimizedRMSD>  (1) 
1.20875561

$$$$
