
     RDKit          3D

 39 43  0  0  1  0  0  0  0  0999 V2000
   39.8840   26.0910   43.8490 C   0  0  2  0  0  0  0  0  0  0  0  0
   41.0130   25.6840   42.8920 C   0  0  0  0  0  0  0  0  0  0  0  0
   39.8010   24.8330   43.0330 C   0  0  2  0  0  0  0  0  0  0  0  0
   38.7930   24.7340   41.9560 C   0  0  0  0  0  0  0  0  0  0  0  0
   37.5430   24.2050   42.2310 C   0  0  0  0  0  0  0  0  0  0  0  0
   36.7100   24.1480   41.1470 C   0  0  0  0  0  0  0  0  0  0  0  0
   36.9860   24.5430   39.8980 N   0  0  0  0  0  0  0  0  0  0  0  0
   38.2220   25.0540   39.6800 C   0  0  0  0  0  0  0  0  0  0  0  0
   39.0910   25.1400   40.6960 N   0  0  0  0  0  0  0  0  0  0  0  0
   38.5700   25.4970   38.3360 C   0  0  0  0  0  0  0  0  0  0  0  0
   39.2100   26.6570   37.9620 C   0  0  0  0  0  0  0  0  0  0  0  0
   39.2910   26.5780   36.5690 C   0  0  0  0  0  0  0  0  0  0  0  0
   38.7200   25.4220   36.1580 N   0  0  0  0  0  0  0  0  0  0  0  0
   38.2820   24.7640   37.2280 N   0  0  0  0  0  0  0  0  0  0  0  0
   38.4550   29.1260   42.5870 C   0  0  0  0  0  0  0  0  0  0  0  0
   37.4260   28.6830   43.4280 C   0  0  0  0  0  0  0  0  0  0  0  0
   37.8770   27.4950   43.9790 C   0  0  0  0  0  0  0  0  0  0  0  0
   39.1040   27.2580   43.4850 N   0  0  0  0  0  0  0  0  0  0  0  0
   39.4560   28.2330   42.6480 N   0  0  0  0  0  0  0  0  0  0  0  0
   37.0040   31.7560   40.4960 C   0  0  0  0  0  0  0  0  0  0  0  0
   38.0470   32.6990   40.3950 C   0  0  0  0  0  0  0  0  0  0  0  0
   39.2510   32.4110   41.0580 C   0  0  0  0  0  0  0  0  0  0  0  0
   39.3600   31.2490   41.7610 N   0  0  0  0  0  0  0  0  0  0  0  0
   38.3250   30.3670   41.8310 C   0  0  0  0  0  0  0  0  0  0  0  0
   37.1370   30.6260   41.1910 N   0  0  0  0  0  0  0  0  0  0  0  0
   39.7764   26.3162   44.9203 H   0  0  0  0  0  0  0  0  0  0  0  0
   41.9779   25.3397   43.2926 H   0  0  0  0  0  0  0  0  0  0  0  0
   41.5354   26.1651   42.0519 H   0  0  0  0  0  0  0  0  0  0  0  0
   39.6515   23.7661   43.2554 H   0  0  0  0  0  0  0  0  0  0  0  0
   37.2460   23.8609   43.2327 H   0  0  0  0  0  0  0  0  0  0  0  0
   35.7061   23.7332   41.3204 H   0  0  0  0  0  0  0  0  0  0  0  0
   39.5755   27.4646   38.6132 H   0  0  0  0  0  0  0  0  0  0  0  0
   39.7459   27.3341   35.9122 H   0  0  0  0  0  0  0  0  0  0  0  0
   38.6383   25.1050   35.1814 H   0  0  0  0  0  0  0  0  0  0  0  0
   36.4603   29.1763   43.6125 H   0  0  0  0  0  0  0  0  0  0  0  0
   37.3299   26.8605   44.6918 H   0  0  0  0  0  0  0  0  0  0  0  0
   36.0509   31.9587   39.9856 H   0  0  0  0  0  0  0  0  0  0  0  0
   37.9223   33.6270   39.8177 H   0  0  0  0  0  0  0  0  0  0  0  0
   40.0953   33.1145   41.0104 H   0  0  0  0  0  0  0  0  0  0  0  0
  2  3  1  0
  2  1  1  0
  3  1  1  0
  4  5  2  0
  4  3  1  0
  6  5  1  0
  7  6  2  0
  8  7  1  0
  8  9  2  0
  9  4  1  0
 10  8  1  0
 11 10  1  0
 12 11  2  0
 13 12  1  0
 13 14  1  0
 14 10  2  0
 15 19  2  0
 15 16  1  0
 16 17  2  0
 18  1  1  0
 18 17  1  0
 19 18  1  0
 20 25  2  0
 21 20  1  0
 21 22  2  0
 22 23  1  0
 23 24  2  0
 24 15  1  0
 25 24  1  0
  1 26  1  1
  2 27  1  0
  2 28  1  0
  3 29  1  1
  5 30  1  0
  6 31  1  0
 11 32  1  0
 12 33  1  0
 13 34  1  0
 16 35  1  0
 17 36  1  0
 20 37  1  0
 21 38  1  0
 22 39  1  0
M  ISO  8  26  13  27  13  28  13  29  13  30  14  31  14  32  14  33  14
M  ISO  6  34   9  35  14  36  14  37  14  38  14  39  14
M  END
>  <minimizedAffinity>  (1) 
-5.44066238

>  <minimizedRMSD>  (1) 
0.211804017

$$$$
