
     RDKit          3D

 41 44  0  0  1  0  0  0  0  0999 V2000
   39.4410   27.8710   40.4200 N   0  0  0  0  0  0  0  0  0  0  0  0
   39.6240   28.4790   39.1240 C   0  0  0  0  0  0  0  0  0  0  0  0
   41.0170   28.8220   38.7340 C   0  0  0  0  0  0  0  0  0  0  0  0
   42.0030   28.0010   39.3980 N   0  0  0  0  0  0  0  0  0  0  0  0
   41.4290   26.7060   39.7220 C   0  0  0  0  0  0  0  0  0  0  0  0
   40.4660   26.9500   40.8420 C   0  0  2  0  0  0  0  0  0  0  0  0
   37.2410   27.3670   41.5510 C   0  0  0  0  0  0  0  0  0  0  0  0
   36.4460   27.5130   42.6620 C   0  0  0  0  0  0  0  0  0  0  0  0
   36.9250   28.2440   43.7380 C   0  0  0  0  0  0  0  0  0  0  0  0
   38.1820   28.8040   43.6630 C   0  0  0  0  0  0  0  0  0  0  0  0
   38.9860   28.6520   42.5280 C   0  0  0  0  0  0  0  0  0  0  0  0
   38.4980   27.9250   41.4700 C   0  0  0  0  0  0  0  0  0  0  0  0
   36.2310   24.5430   39.4470 C   0  0  0  0  0  0  0  0  0  0  0  0
   35.7490   25.1510   38.2780 C   0  0  0  0  0  0  0  0  0  0  0  0
   35.7780   26.5430   38.2330 C   0  0  0  0  0  0  0  0  0  0  0  0
   36.2630   27.1820   39.3050 N   0  0  0  0  0  0  0  0  0  0  0  0
   36.7270   26.6040   40.4250 C   0  0  0  0  0  0  0  0  0  0  0  0
   36.6780   25.2990   40.4200 N   0  0  0  0  0  0  0  0  0  0  0  0
   40.0760   25.7710   41.5770 C   0  0  0  0  0  0  0  0  0  0  0  0
   40.1940   25.5930   42.9440 C   0  0  0  0  0  0  0  0  0  0  0  0
   39.7060   24.3320   43.2440 C   0  0  0  0  0  0  0  0  0  0  0  0
   39.3050   23.7770   42.0650 N   0  0  0  0  0  0  0  0  0  0  0  0
   39.5320   24.6470   41.0810 N   0  0  0  0  0  0  0  0  0  0  0  0
   39.2300   27.7810   38.3706 H   0  0  0  0  0  0  0  0  0  0  0  0
   39.0962   29.4424   39.1815 H   0  0  0  0  0  0  0  0  0  0  0  0
   41.1211   28.6865   37.6474 H   0  0  0  0  0  0  0  0  0  0  0  0
   41.1977   29.8646   39.0346 H   0  0  0  0  0  0  0  0  0  0  0  0
   42.8134   27.8697   38.7759 H   0  0  0  0  0  0  0  0  0  0  0  0
   40.9031   26.2919   38.8491 H   0  0  0  0  0  0  0  0  0  0  0  0
   42.2054   25.9815   40.0089 H   0  0  0  0  0  0  0  0  0  0  0  0
   40.9854   27.4735   41.6582 H   0  0  0  0  0  0  0  0  0  0  0  0
   35.4455   27.0572   42.6971 H   0  0  0  0  0  0  0  0  0  0  0  0
   36.3096   28.3754   44.6402 H   0  0  0  0  0  0  0  0  0  0  0  0
   38.5625   29.3846   44.5163 H   0  0  0  0  0  0  0  0  0  0  0  0
   39.9874   29.1051   42.4841 H   0  0  0  0  0  0  0  0  0  0  0  0
   36.2337   23.4474   39.5456 H   0  0  0  0  0  0  0  0  0  0  0  0
   35.3659   24.5560   37.4359 H   0  0  0  0  0  0  0  0  0  0  0  0
   35.4171   27.0948   37.3525 H   0  0  0  0  0  0  0  0  0  0  0  0
   40.6012   26.3204   43.6617 H   0  0  0  0  0  0  0  0  0  0  0  0
   39.6524   23.8683   44.2401 H   0  0  0  0  0  0  0  0  0  0  0  0
   38.8940   22.8392   41.9530 H   0  0  0  0  0  0  0  0  0  0  0  0
  1  6  1  0
  1 12  1  0
  2  1  1  0
  3  2  1  0
  3  4  1  0
  4  5  1  0
  5  6  1  0
  6 19  1  0
  7  8  2  0
  8  9  1  0
 10  9  2  0
 11 10  1  0
 12  7  1  0
 12 11  2  0
 13 18  2  0
 14 13  1  0
 15 14  2  0
 15 16  1  0
 16 17  2  0
 17  7  1  0
 18 17  1  0
 19 20  1  0
 20 21  2  0
 22 21  1  0
 23 19  2  0
 23 22  1  0
  2 24  1  0
  2 25  1  0
  3 26  1  0
  3 27  1  0
  4 28  1  0
  5 29  1  0
  5 30  1  0
  6 31  1  1
  8 32  1  0
  9 33  1  0
 10 34  1  0
 11 35  1  0
 13 36  1  0
 14 37  1  0
 15 38  1  0
 20 39  1  0
 21 40  1  0
 22 41  1  0
M  ISO  8  24  13  25  13  26  13  27  13  28   5  29  13  30  13  31  13
M  ISO  8  32  14  33  14  34  14  35  14  36  14  37  14  38  14  39  14
M  ISO  2  40  14  41   9
M  END
>  <minimizedAffinity>  (1) 
-4.78280497

>  <minimizedRMSD>  (1) 
5.14779615

$$$$
