
     RDKit          3D

 38 42  0  0  1  0  0  0  0  0999 V2000
   36.2160   30.8920   41.0750 C   0  0  0  0  0  0  0  0  0  0  0  0
   36.9950   29.8870   41.6820 C   0  0  0  0  0  0  0  0  0  0  0  0
   38.3820   29.9870   41.6100 C   0  0  0  0  0  0  0  0  0  0  0  0
   38.8950   31.0560   40.9520 N   0  0  0  0  0  0  0  0  0  0  0  0
   38.1310   32.0110   40.3740 C   0  0  0  0  0  0  0  0  0  0  0  0
   36.7840   31.9160   40.4420 N   0  0  0  0  0  0  0  0  0  0  0  0
   39.1930   28.9520   42.2250 C   0  0  0  0  0  0  0  0  0  0  0  0
   40.4110   29.0880   42.8520 C   0  0  0  0  0  0  0  0  0  0  0  0
   40.8340   27.8830   43.2880 N   0  0  0  0  0  0  0  0  0  0  0  0
   39.9170   26.9360   42.9650 C   0  0  0  0  0  0  0  0  0  0  0  0
   39.8420   25.5660   43.1660 C   0  0  0  0  0  0  0  0  0  0  0  0
   38.7460   24.8340   42.7110 C   0  0  0  0  0  0  0  0  0  0  0  0
   37.7420   25.5240   42.0540 C   0  0  0  0  0  0  0  0  0  0  0  0
   37.8260   26.8790   41.8610 C   0  0  0  0  0  0  0  0  0  0  0  0
   38.9000   27.6090   42.3040 C   0  0  0  0  0  0  0  0  0  0  0  0
   38.7750   33.1700   39.6710 C   0  0  1  0  0  0  0  0  0  0  0  0
   39.0070   34.4350   40.4950 C   0  0  0  0  0  0  0  0  0  0  0  0
   40.1530   33.5650   40.0820 C   0  0  2  0  0  0  0  0  0  0  0  0
   41.1260   34.0380   39.0680 C   0  0  0  0  0  0  0  0  0  0  0  0
   41.6910   33.2790   38.0650 C   0  0  0  0  0  0  0  0  0  0  0  0
   42.5390   34.1340   37.3590 C   0  0  0  0  0  0  0  0  0  0  0  0
   42.4620   35.3620   37.9460 N   0  0  0  0  0  0  0  0  0  0  0  0
   41.6080   35.2980   38.9760 N   0  0  0  0  0  0  0  0  0  0  0  0
   35.1189   30.8293   41.1251 H   0  0  0  0  0  0  0  0  0  0  0  0
   36.5182   29.0425   42.2011 H   0  0  0  0  0  0  0  0  0  0  0  0
   40.9564   30.0348   42.9784 H   0  0  0  0  0  0  0  0  0  0  0  0
   41.7170   27.7087   43.7889 H   0  0  0  0  0  0  0  0  0  0  0  0
   40.6586   25.0495   43.6918 H   0  0  0  0  0  0  0  0  0  0  0  0
   38.6816   23.7472   42.8685 H   0  0  0  0  0  0  0  0  0  0  0  0
   36.8634   24.9771   41.6811 H   0  0  0  0  0  0  0  0  0  0  0  0
   37.0090   27.3955   41.3360 H   0  0  0  0  0  0  0  0  0  0  0  0
   38.2919   32.9304   38.7123 H   0  0  0  0  0  0  0  0  0  0  0  0
   38.8721   35.4257   40.0364 H   0  0  0  0  0  0  0  0  0  0  0  0
   38.6269   34.8289   41.4491 H   0  0  0  0  0  0  0  0  0  0  0  0
   40.9694   33.0631   40.6220 H   0  0  0  0  0  0  0  0  0  0  0  0
   41.5098   32.2132   37.8619 H   0  0  0  0  0  0  0  0  0  0  0  0
   43.1561   33.8661   36.4887 H   0  0  0  0  0  0  0  0  0  0  0  0
   42.9767   36.2023   37.6463 H   0  0  0  0  0  0  0  0  0  0  0  0
  1  2  2  0
  3  2  1  0
  3  7  1  0
  4  3  2  0
  5  6  2  0
  5  4  1  0
  6  1  1  0
  7 15  1  0
  7  8  2  0
  8  9  1  0
 10 11  2  0
 10  9  1  0
 12 11  1  0
 13 12  2  0
 14 13  1  0
 14 15  2  0
 15 10  1  0
 16 18  1  0
 16  5  1  0
 16 17  1  0
 18 17  1  0
 19 18  1  0
 20 19  1  0
 21 22  1  0
 21 20  2  0
 22 23  1  0
 23 19  2  0
  1 24  1  0
  2 25  1  0
  8 26  1  0
  9 27  1  0
 11 28  1  0
 12 29  1  0
 13 30  1  0
 14 31  1  0
 16 32  1  6
 17 33  1  0
 17 34  1  0
 18 35  1  1
 20 36  1  0
 21 37  1  0
 22 38  1  0
M  ISO  8  24  14  25  14  26  14  27   9  28  14  29  14  30  14  31  14
M  ISO  7  32  13  33  13  34  13  35  13  36  14  37  14  38   9
M  END
>  <minimizedAffinity>  (1) 
-6.40070391

>  <minimizedRMSD>  (1) 
1.48748112

$$$$
