
     RDKit          3D

 46 50  0  0  0  0  0  0  0  0999 V2000
   37.9850   28.2070   41.6320 C   0  0  0  0  0  0  0  0  0  0  0  0
   36.7240   27.9920   41.1060 C   0  0  0  0  0  0  0  0  0  0  0  0
   36.2840   29.1630   40.6490 N   0  0  0  0  0  0  0  0  0  0  0  0
   37.1780   30.1440   40.8410 C   0  0  0  0  0  0  0  0  0  0  0  0
   37.1100   31.4890   40.5150 C   0  0  0  0  0  0  0  0  0  0  0  0
   38.2190   32.2790   40.8450 C   0  0  0  0  0  0  0  0  0  0  0  0
   39.3230   31.7220   41.4670 C   0  0  0  0  0  0  0  0  0  0  0  0
   39.3850   30.3900   41.7880 C   0  0  0  0  0  0  0  0  0  0  0  0
   38.2860   29.5840   41.4660 C   0  0  0  0  0  0  0  0  0  0  0  0
   39.9890   26.4740   44.1460 C   0  0  0  0  0  0  0  0  0  0  0  0
   40.5430   25.3800   43.4050 C   0  0  0  0  0  0  0  0  0  0  0  0
   40.2060   25.2710   42.0420 C   0  0  0  0  0  0  0  0  0  0  0  0
   39.3860   26.2070   41.5460 N   0  0  0  0  0  0  0  0  0  0  0  0
   38.8710   27.2280   42.2490 C   0  0  0  0  0  0  0  0  0  0  0  0
   39.1730   27.3600   43.5470 N   0  0  0  0  0  0  0  0  0  0  0  0
   34.9770   29.3010   40.0250 C   0  0  0  0  0  0  0  0  0  0  0  0
   35.0240   29.3240   38.5380 C   0  0  0  0  0  0  0  0  0  0  0  0
   34.5800   28.1070   37.8580 C   0  0  0  0  0  0  0  0  0  0  0  0
   35.2390   26.8990   37.9230 C   0  0  0  0  0  0  0  0  0  0  0  0
   34.7800   25.7740   37.2850 C   0  0  0  0  0  0  0  0  0  0  0  0
   33.6120   25.8480   36.5460 C   0  0  0  0  0  0  0  0  0  0  0  0
   32.9240   27.0250   36.4510 C   0  0  0  0  0  0  0  0  0  0  0  0
   31.7700   27.0200   35.6880 C   0  0  0  0  0  0  0  0  0  0  0  0
   31.0510   28.1910   35.5600 C   0  0  0  0  0  0  0  0  0  0  0  0
   31.4890   29.3530   36.1930 C   0  0  0  0  0  0  0  0  0  0  0  0
   32.6480   29.2800   36.9370 C   0  0  0  0  0  0  0  0  0  0  0  0
   33.4100   28.1430   37.1050 C   0  0  0  0  0  0  0  0  0  0  0  0
   36.1855   27.0335   41.0716 H   0  0  0  0  0  0  0  0  0  0  0  0
   36.2259   31.9169   40.0198 H   0  0  0  0  0  0  0  0  0  0  0  0
   38.2123   33.3530   40.6073 H   0  0  0  0  0  0  0  0  0  0  0  0
   40.1785   32.3687   41.7118 H   0  0  0  0  0  0  0  0  0  0  0  0
   40.2715   29.9674   42.2836 H   0  0  0  0  0  0  0  0  0  0  0  0
   40.2327   26.5903   45.2124 H   0  0  0  0  0  0  0  0  0  0  0  0
   41.2100   24.6489   43.8852 H   0  0  0  0  0  0  0  0  0  0  0  0
   40.5973   24.4564   41.4148 H   0  0  0  0  0  0  0  0  0  0  0  0
   34.3506   28.4533   40.3397 H   0  0  0  0  0  0  0  0  0  0  0  0
   34.5666   30.2688   40.3488 H   0  0  0  0  0  0  0  0  0  0  0  0
   34.3859   30.1517   38.1950 H   0  0  0  0  0  0  0  0  0  0  0  0
   36.0874   29.4341   38.2791 H   0  0  0  0  0  0  0  0  0  0  0  0
   36.1681   26.8337   38.5083 H   0  0  0  0  0  0  0  0  0  0  0  0
   35.3330   24.8261   37.3599 H   0  0  0  0  0  0  0  0  0  0  0  0
   33.2345   24.9523   36.0310 H   0  0  0  0  0  0  0  0  0  0  0  0
   31.4313   26.0985   35.1919 H   0  0  0  0  0  0  0  0  0  0  0  0
   30.1308   28.2073   34.9575 H   0  0  0  0  0  0  0  0  0  0  0  0
   30.9296   30.2958   36.1023 H   0  0  0  0  0  0  0  0  0  0  0  0
   32.9908   30.1992   37.4345 H   0  0  0  0  0  0  0  0  0  0  0  0
  1 14  1  0
  2  1  2  0
  3  4  1  0
  3  2  1  0
  4  9  2  0
  5  4  1  0
  5  6  2  0
  6  7  1  0
  7  8  2  0
  9  1  1  0
  9  8  1  0
 11 10  2  0
 12 11  1  0
 13 12  2  0
 13 14  1  0
 14 15  2  0
 15 10  1  0
 16  3  1  0
 17 16  1  0
 18 19  2  0
 18 17  1  0
 20 19  1  0
 21 20  2  0
 22 21  1  0
 22 27  2  0
 23 22  1  0
 24 23  2  0
 24 25  1  0
 25 26  2  0
 26 27  1  0
 27 18  1  0
  2 28  1  0
  5 29  1  0
  6 30  1  0
  7 31  1  0
  8 32  1  0
 10 33  1  0
 11 34  1  0
 12 35  1  0
 16 36  1  0
 16 37  1  0
 17 38  1  0
 17 39  1  0
 19 40  1  0
 20 41  1  0
 21 42  1  0
 23 43  1  0
 24 44  1  0
 25 45  1  0
 26 46  1  0
M  ISO  8  28  14  29  14  30  14  31  14  32  14  33  14  34  14  35  14
M  ISO  8  36   8  37   8  38   8  39   8  40  14  41  14  42  14  43  14
M  ISO  3  44  14  45  14  46  14
M  END
>  <minimizedAffinity>  (1) 
-5.60070229

>  <minimizedRMSD>  (1) 
1.41160131

$$$$
