
     RDKit          3D

 40 43  0  0  1  0  0  0  0  0999 V2000
   40.0740   28.0600   42.5250 C   0  0  2  0  0  0  0  0  0  0  0  0
   41.3500   28.5090   43.0020 C   0  0  0  0  0  0  0  0  0  0  0  0
   42.2490   27.2650   42.9810 C   0  0  0  0  0  0  0  0  0  0  0  0
   41.5640   26.2930   42.0470 C   0  0  0  0  0  0  0  0  0  0  0  0
   40.4500   27.0530   41.3740 C   0  0  1  0  0  0  0  0  0  0  0  0
   39.5850   30.1930   41.1960 C   0  0  0  0  0  0  0  0  0  0  0  0
   39.1570   29.0670   41.9970 C   0  0  0  0  0  0  0  0  0  0  0  0
   37.8280   28.9340   42.3180 C   0  0  0  0  0  0  0  0  0  0  0  0
   36.9450   29.8770   41.8650 N   0  0  0  0  0  0  0  0  0  0  0  0
   37.3720   30.9580   41.0920 C   0  0  0  0  0  0  0  0  0  0  0  0
   38.7180   31.1020   40.7620 N   0  0  0  0  0  0  0  0  0  0  0  0
   36.4110   31.9140   40.6410 N   0  0  0  0  0  0  0  0  0  0  0  0
   37.1010   27.9550   43.1520 C   0  0  0  0  0  0  0  0  0  0  0  0
   36.8450   28.2420   44.6310 C   0  0  0  0  0  0  0  0  0  0  0  0
   37.8190   27.2230   44.2290 C   0  0  0  0  0  0  0  0  0  0  0  0
   39.4160   25.9900   41.1960 C   0  0  0  0  0  0  0  0  0  0  0  0
   39.4150   24.8370   41.9290 N   0  0  0  0  0  0  0  0  0  0  0  0
   38.3870   24.1250   41.5340 O   0  0  0  0  0  0  0  0  0  0  0  0
   37.7590   24.7760   40.6020 C   0  0  0  0  0  0  0  0  0  0  0  0
   38.3710   25.9330   40.3720 N   0  0  0  0  0  0  0  0  0  0  0  0
   36.5300   24.2090   39.9500 C   0  0  0  0  0  0  0  0  0  0  0  0
   35.6720   23.7530   40.9080 F   0  0  0  0  0  0  0  0  0  0  0  0
   35.9050   25.1740   39.1800 F   0  0  0  0  0  0  0  0  0  0  0  0
   36.8890   23.1360   39.1280 F   0  0  0  0  0  0  0  0  0  0  0  0
   39.5119   27.6524   43.3781 H   0  0  0  0  0  0  0  0  0  0  0  0
   41.7559   29.2892   42.3413 H   0  0  0  0  0  0  0  0  0  0  0  0
   41.2809   28.9490   44.0078 H   0  0  0  0  0  0  0  0  0  0  0  0
   43.2507   27.5199   42.6047 H   0  0  0  0  0  0  0  0  0  0  0  0
   42.3851   26.8405   43.9866 H   0  0  0  0  0  0  0  0  0  0  0  0
   42.2772   25.9215   41.2964 H   0  0  0  0  0  0  0  0  0  0  0  0
   41.1747   25.4232   42.5964 H   0  0  0  0  0  0  0  0  0  0  0  0
   40.6230   27.5727   40.4201 H   0  0  0  0  0  0  0  0  0  0  0  0
   40.6498   30.2990   40.9409 H   0  0  0  0  0  0  0  0  0  0  0  0
   36.7119   32.7166   40.0699 H   0  0  0  0  0  0  0  0  0  0  0  0
   35.4172   31.8007   40.8870 H   0  0  0  0  0  0  0  0  0  0  0  0
   36.4809   27.6799   42.2861 H   0  0  0  0  0  0  0  0  0  0  0  0
   37.1882   29.1873   45.0766 H   0  0  0  0  0  0  0  0  0  0  0  0
   35.9573   28.2603   45.2804 H   0  0  0  0  0  0  0  0  0  0  0  0
   37.5973   26.1600   44.4047 H   0  0  0  0  0  0  0  0  0  0  0  0
   38.8808   27.0490   44.4575 H   0  0  0  0  0  0  0  0  0  0  0  0
  1  2  1  0
  3  2  1  0
  4  3  1  0
  5  4  1  0
  5  1  1  0
  6  7  2  0
  7  8  1  0
  7  1  1  0
  8 13  1  0
  9  8  2  0
 10  9  1  0
 11 10  2  0
 11  6  1  0
 12 10  1  0
 13 15  1  0
 13 14  1  0
 15 14  1  0
 16  5  1  0
 16 17  2  0
 18 17  1  0
 19 18  1  0
 20 19  2  0
 20 16  1  0
 21 19  1  0
 21 22  1  0
 23 21  1  0
 24 21  1  0
  1 25  1  1
  2 26  1  0
  2 27  1  0
  3 28  1  0
  3 29  1  0
  4 30  1  0
  4 31  1  0
  5 32  1  6
  6 33  1  0
 12 34  1  0
 12 35  1  0
 13 36  1  0
 14 37  1  0
 14 38  1  0
 15 39  1  0
 15 40  1  0
M  ISO  8  25  13  26  13  27  13  28  13  29  13  30  13  31  13  32  13
M  ISO  6  33  14  36  13  37  13  38  13  39  13  40  13
M  END
>  <minimizedAffinity>  (1) 
-5.4422946

>  <minimizedRMSD>  (1) 
2.02182865

$$$$
