
     RDKit          3D

 42 45  0  0  1  0  0  0  0  0999 V2000
   37.1840   29.7960   36.4320 S   0  0  0  0  0  0  0  0  0  0  0  0
   33.9190   26.7880   36.9920 N   0  0  0  0  0  0  0  0  0  0  0  0
   33.7720   28.0950   37.6000 C   0  0  0  0  0  0  0  0  0  0  0  0
   34.6010   29.1550   36.9240 C   0  0  0  0  0  0  0  0  0  0  0  0
   35.8310   28.5810   36.2750 C   0  0  2  0  0  0  0  0  0  0  0  0
   36.3080   27.3380   36.9670 C   0  0  0  0  0  0  0  0  0  0  0  0
   35.2580   26.2760   37.0480 C   0  0  1  0  0  0  0  0  0  0  0  0
   35.4690   25.2960   38.1720 C   0  0  0  0  0  0  0  0  0  0  0  0
   35.7480   23.8870   37.6890 C   0  0  0  0  0  0  0  0  0  0  0  0
   36.7430   24.6750   38.5040 C   0  0  0  0  0  0  0  0  0  0  0  0
   37.1790   30.3040   40.4320 C   0  0  0  0  0  0  0  0  0  0  0  0
   37.1710   31.6690   40.6150 C   0  0  0  0  0  0  0  0  0  0  0  0
   37.1680   32.4740   39.4860 C   0  0  0  0  0  0  0  0  0  0  0  0
   37.1720   31.8720   38.2300 C   0  0  0  0  0  0  0  0  0  0  0  0
   37.1790   30.5130   38.0680 C   0  0  0  0  0  0  0  0  0  0  0  0
   37.1830   29.7500   39.1830 N   0  0  0  0  0  0  0  0  0  0  0  0
   38.1030   28.8790   43.6640 C   0  0  0  0  0  0  0  0  0  0  0  0
   37.2520   27.7720   43.7850 C   0  0  0  0  0  0  0  0  0  0  0  0
   36.3490   27.5170   42.7370 C   0  0  0  0  0  0  0  0  0  0  0  0
   36.3660   28.3610   41.6800 N   0  0  0  0  0  0  0  0  0  0  0  0
   37.1840   29.4050   41.5900 C   0  0  0  0  0  0  0  0  0  0  0  0
   38.0330   29.6430   42.5820 N   0  0  0  0  0  0  0  0  0  0  0  0
   33.6371   26.8550   36.0036 H   0  0  0  0  0  0  0  0  0  0  0  0
   32.7137   28.3899   37.5455 H   0  0  0  0  0  0  0  0  0  0  0  0
   34.1232   28.0158   38.6394 H   0  0  0  0  0  0  0  0  0  0  0  0
   33.9892   29.6461   36.1530 H   0  0  0  0  0  0  0  0  0  0  0  0
   34.9258   29.8727   37.6917 H   0  0  0  0  0  0  0  0  0  0  0  0
   35.5733   28.3477   35.2314 H   0  0  0  0  0  0  0  0  0  0  0  0
   37.1701   26.9374   36.4136 H   0  0  0  0  0  0  0  0  0  0  0  0
   36.5753   27.6163   37.9971 H   0  0  0  0  0  0  0  0  0  0  0  0
   35.3866   25.6888   36.1267 H   0  0  0  0  0  0  0  0  0  0  0  0
   34.7617   25.8390   38.8160 H   0  0  0  0  0  0  0  0  0  0  0  0
   35.2183   23.0312   38.1329 H   0  0  0  0  0  0  0  0  0  0  0  0
   35.7526   23.3688   36.7187 H   0  0  0  0  0  0  0  0  0  0  0  0
   37.6675   25.0400   38.0327 H   0  0  0  0  0  0  0  0  0  0  0  0
   37.2872   24.4900   39.4419 H   0  0  0  0  0  0  0  0  0  0  0  0
   37.1671   32.1065   41.6242 H   0  0  0  0  0  0  0  0  0  0  0  0
   37.1626   33.5699   39.5807 H   0  0  0  0  0  0  0  0  0  0  0  0
   37.1694   32.5122   37.3355 H   0  0  0  0  0  0  0  0  0  0  0  0
   38.8242   29.1127   44.4611 H   0  0  0  0  0  0  0  0  0  0  0  0
   37.2891   27.1226   44.6721 H   0  0  0  0  0  0  0  0  0  0  0  0
   35.6556   26.6639   42.7755 H   0  0  0  0  0  0  0  0  0  0  0  0
  1 15  1  0
  2  7  1  0
  2  3  1  0
  4  3  1  0
  5  1  1  0
  5  4  1  0
  5  6  1  0
  6  7  1  0
  7  8  1  0
  8 10  1  0
  9  8  1  0
  9 10  1  0
 11 12  2  0
 11 21  1  0
 13 12  1  0
 14 13  2  0
 15 14  1  0
 15 16  2  0
 16 11  1  0
 17 18  2  0
 19 18  1  0
 20 19  2  0
 21 20  1  0
 21 22  2  0
 22 17  1  0
  2 23  1  0
  3 24  1  0
  3 25  1  0
  4 26  1  0
  4 27  1  0
  5 28  1  6
  6 29  1  0
  6 30  1  0
  7 31  1  6
  8 32  1  0
  9 33  1  0
  9 34  1  0
 10 35  1  0
 10 36  1  0
 12 37  1  0
 13 38  1  0
 14 39  1  0
 17 40  1  0
 18 41  1  0
 19 42  1  0
M  ISO  8  23   5  24  13  25  13  26  13  27  13  28  13  29  13  30  13
M  ISO  8  31  13  32  13  33  13  34  13  35  13  36  13  37  14  38  14
M  ISO  4  39  14  40  14  41  14  42  14
M  END
>  <minimizedAffinity>  (1) 
-4.6328454

>  <minimizedRMSD>  (1) 
0.846666157

$$$$
