
     RDKit          3D

 34 37  0  0  1  0  0  0  0  0999 V2000
   40.0080   30.7240   41.0890 C   0  0  1  0  0  0  0  0  0  0  0  0
   40.8240   31.1230   42.2490 C   0  0  0  0  0  0  0  0  0  0  0  0
   39.6200   30.3700   42.6090 C   0  0  2  0  0  0  0  0  0  0  0  0
   39.8080   28.9370   42.9290 C   0  0  0  0  0  0  0  0  0  0  0  0
   41.1010   28.3960   42.9240 C   0  0  0  0  0  0  0  0  0  0  0  0
   41.3600   27.1410   43.3720 C   0  0  0  0  0  0  0  0  0  0  0  0
   40.3020   26.4020   43.8400 C   0  0  0  0  0  0  0  0  0  0  0  0
   39.0400   26.9240   43.8450 C   0  0  0  0  0  0  0  0  0  0  0  0
   38.7870   28.2160   43.3800 C   0  0  0  0  0  0  0  0  0  0  0  0
   37.3470   28.4570   43.4080 C   0  0  0  0  0  0  0  0  0  0  0  0
   36.3690   27.2890   43.2450 C   0  0  0  0  0  0  0  0  0  0  0  0
   36.6890   28.1270   42.1040 C   0  0  0  0  0  0  0  0  0  0  0  0
   39.0410   31.7520   40.5260 C   0  0  0  0  0  0  0  0  0  0  0  0
   37.9010   31.2690   39.8350 C   0  0  0  0  0  0  0  0  0  0  0  0
   37.0290   32.1850   39.3550 C   0  0  0  0  0  0  0  0  0  0  0  0
   37.2910   33.5270   39.5630 N   0  0  0  0  0  0  0  0  0  0  0  0
   38.3770   33.9520   40.2200 C   0  0  0  0  0  0  0  0  0  0  0  0
   39.2510   33.0370   40.6990 N   0  0  0  0  0  0  0  0  0  0  0  0
   40.2338   30.2169   40.1393 H   0  0  0  0  0  0  0  0  0  0  0  0
   41.8079   30.6530   42.3936 H   0  0  0  0  0  0  0  0  0  0  0  0
   41.2112   32.0983   42.5790 H   0  0  0  0  0  0  0  0  0  0  0  0
   38.7787   30.5354   43.2981 H   0  0  0  0  0  0  0  0  0  0  0  0
   41.9326   29.0081   42.5449 H   0  0  0  0  0  0  0  0  0  0  0  0
   42.3807   26.7311   43.3604 H   0  0  0  0  0  0  0  0  0  0  0  0
   40.4720   25.3815   44.2139 H   0  0  0  0  0  0  0  0  0  0  0  0
   38.2061   26.3143   44.2230 H   0  0  0  0  0  0  0  0  0  0  0  0
   37.4132   29.2862   44.1278 H   0  0  0  0  0  0  0  0  0  0  0  0
   36.7378   26.2535   43.2869 H   0  0  0  0  0  0  0  0  0  0  0  0
   35.4393   26.9788   43.7445 H   0  0  0  0  0  0  0  0  0  0  0  0
   37.2917   27.7159   41.2807 H   0  0  0  0  0  0  0  0  0  0  0  0
   36.0846   28.7030   41.3878 H   0  0  0  0  0  0  0  0  0  0  0  0
   37.7322   30.1911   39.6947 H   0  0  0  0  0  0  0  0  0  0  0  0
   36.1280   31.8683   38.8092 H   0  0  0  0  0  0  0  0  0  0  0  0
   38.5559   35.0272   40.3680 H   0  0  0  0  0  0  0  0  0  0  0  0
  1  2  1  0
  1  3  1  0
  2  3  1  0
  3  4  1  0
  4  9  1  0
  5  4  2  0
  5  6  1  0
  6  7  2  0
  7  8  1  0
  9 10  1  0
  9  8  2  0
 11 10  1  0
 12 11  1  0
 12 10  1  0
 13 18  1  0
 13  1  1  0
 14 13  2  0
 15 16  2  0
 15 14  1  0
 16 17  1  0
 17 18  2  0
  1 19  1  6
  2 20  1  0
  2 21  1  0
  3 22  1  1
  5 23  1  0
  6 24  1  0
  7 25  1  0
  8 26  1  0
 10 27  1  0
 11 28  1  0
 11 29  1  0
 12 30  1  0
 12 31  1  0
 14 32  1  0
 15 33  1  0
 17 34  1  0
M  ISO  8  19  13  20  13  21  13  22  13  23  14  24  14  25  14  26  14
M  ISO  8  27  13  28  13  29  13  30  13  31  13  32  14  33  14  34  14
M  END
>  <minimizedAffinity>  (1) 
-5.49943638

>  <minimizedRMSD>  (1) 
3.17039847

$$$$
