
     RDKit          3D

 41 43  0  0  0  0  0  0  0  0999 V2000
   36.4260   30.5950   39.9310 C   0  0  0  0  0  0  0  0  0  0  0  0
   36.8070   31.6540   40.7260 C   0  0  0  0  0  0  0  0  0  0  0  0
   37.4710   32.7010   40.1110 C   0  0  0  0  0  0  0  0  0  0  0  0
   37.7720   32.7460   38.7520 C   0  0  0  0  0  0  0  0  0  0  0  0
   37.3700   31.6550   37.9750 C   0  0  0  0  0  0  0  0  0  0  0  0
   36.6990   30.5900   38.5770 C   0  0  0  0  0  0  0  0  0  0  0  0
   36.3370   29.5390   37.6390 C   0  0  0  0  0  0  0  0  0  0  0  0
   37.1990   28.3290   38.0380 C   0  0  0  0  0  0  0  0  0  0  0  0
   36.9260   27.2940   36.9610 C   0  0  0  0  0  0  0  0  0  0  0  0
   35.5850   26.7110   37.3250 C   0  0  0  0  0  0  0  0  0  0  0  0
   34.6790   27.6940   38.0060 C   0  0  0  0  0  0  0  0  0  0  0  0
   34.9170   29.1320   37.5780 C   0  0  0  0  0  0  0  0  0  0  0  0
   35.7200   29.4410   40.5250 C   0  0  0  0  0  0  0  0  0  0  0  0
   37.9000   28.7120   43.4410 C   0  0  0  0  0  0  0  0  0  0  0  0
   37.9860   27.3210   43.4060 C   0  0  0  0  0  0  0  0  0  0  0  0
   37.3010   26.6560   42.3920 C   0  0  0  0  0  0  0  0  0  0  0  0
   36.6170   27.4130   41.5350 N   0  0  0  0  0  0  0  0  0  0  0  0
   36.5370   28.7450   41.5710 C   0  0  0  0  0  0  0  0  0  0  0  0
   37.1940   29.3680   42.5440 N   0  0  0  0  0  0  0  0  0  0  0  0
   37.2610   25.2540   42.1740 N   0  0  0  0  0  0  0  0  0  0  0  0
   36.5923   31.6667   41.8048 H   0  0  0  0  0  0  0  0  0  0  0  0
   37.7808   33.5519   40.7354 H   0  0  0  0  0  0  0  0  0  0  0  0
   38.3025   33.6019   38.3093 H   0  0  0  0  0  0  0  0  0  0  0  0
   37.5815   31.6365   36.8957 H   0  0  0  0  0  0  0  0  0  0  0  0
   36.5140   29.9362   36.6286 H   0  0  0  0  0  0  0  0  0  0  0  0
   38.2649   28.6001   38.0551 H   0  0  0  0  0  0  0  0  0  0  0  0
   36.9572   27.9578   39.0448 H   0  0  0  0  0  0  0  0  0  0  0  0
   37.7024   26.5147   36.9656 H   0  0  0  0  0  0  0  0  0  0  0  0
   36.9306   27.7312   35.9516 H   0  0  0  0  0  0  0  0  0  0  0  0
   35.0938   26.3622   36.4046 H   0  0  0  0  0  0  0  0  0  0  0  0
   35.7669   25.8890   38.0329 H   0  0  0  0  0  0  0  0  0  0  0  0
   33.6376   27.4284   37.7716 H   0  0  0  0  0  0  0  0  0  0  0  0
   34.8906   27.6372   39.0840 H   0  0  0  0  0  0  0  0  0  0  0  0
   34.3370   29.7925   38.2393 H   0  0  0  0  0  0  0  0  0  0  0  0
   34.6026   29.2126   36.5270 H   0  0  0  0  0  0  0  0  0  0  0  0
   34.7868   29.7973   40.9855 H   0  0  0  0  0  0  0  0  0  0  0  0
   35.5231   28.7186   39.7191 H   0  0  0  0  0  0  0  0  0  0  0  0
   38.4290   29.2688   44.2285 H   0  0  0  0  0  0  0  0  0  0  0  0
   38.5743   26.7680   44.1531 H   0  0  0  0  0  0  0  0  0  0  0  0
   36.7182   24.8704   41.3872 H   0  0  0  0  0  0  0  0  0  0  0  0
   37.7748   24.6202   42.8026 H   0  0  0  0  0  0  0  0  0  0  0  0
  1 13  1  0
  1  2  2  0
  3  2  1  0
  4  3  2  0
  5  6  2  0
  5  4  1  0
  6  1  1  0
  7  8  1  0
  7  6  1  0
  9 10  1  0
  9  8  1  0
 10 11  1  0
 12  7  1  0
 12 11  1  0
 13 18  1  0
 15 14  2  0
 16 15  1  0
 17 18  1  0
 17 16  2  0
 18 19  2  0
 19 14  1  0
 20 16  1  0
  2 21  1  0
  3 22  1  0
  4 23  1  0
  5 24  1  0
  7 25  1  0
  8 26  1  0
  8 27  1  0
  9 28  1  0
  9 29  1  0
 10 30  1  0
 10 31  1  0
 11 32  1  0
 11 33  1  0
 12 34  1  0
 12 35  1  0
 13 36  1  0
 13 37  1  0
 14 38  1  0
 15 39  1  0
 20 40  1  0
 20 41  1  0
M  ISO  8  21  14  22  14  23  14  24  14  25  13  26  13  27  13  28  13
M  ISO  8  29  13  30  13  31  13  32  13  33  13  34  13  35  13  36   8
M  ISO  3  37   8  38  14  39  14
M  END
>  <minimizedAffinity>  (1) 
-5.50492477

>  <minimizedRMSD>  (1) 
1.11790562

$$$$
