
     RDKit          3D

 44 47  0  0  1  0  0  0  0  0999 V2000
   37.9590   27.3400   42.7490 C   0  0  2  0  0  0  0  0  0  0  0  0
   39.0310   27.6070   43.7120 C   0  0  0  0  0  0  0  0  0  0  0  0
   39.7660   26.2870   43.8600 C   0  0  0  0  0  0  0  0  0  0  0  0
   39.3000   25.4210   42.7350 C   0  0  0  0  0  0  0  0  0  0  0  0
   38.5650   26.3540   41.7700 C   0  0  1  0  0  0  0  0  0  0  0  0
   38.0450   29.7530   41.9490 C   0  0  0  0  0  0  0  0  0  0  0  0
   37.3860   28.4980   42.0780 C   0  0  0  0  0  0  0  0  0  0  0  0
   36.1210   28.3460   41.5290 C   0  0  0  0  0  0  0  0  0  0  0  0
   35.5620   29.4270   40.8810 N   0  0  0  0  0  0  0  0  0  0  0  0
   36.2190   30.6270   40.7700 C   0  0  0  0  0  0  0  0  0  0  0  0
   37.4790   30.7800   41.3170 N   0  0  0  0  0  0  0  0  0  0  0  0
   37.5670   25.4280   41.1600 C   0  0  0  0  0  0  0  0  0  0  0  0
   36.8820   24.5220   41.8770 N   0  0  0  0  0  0  0  0  0  0  0  0
   36.0990   23.8760   41.0390 O   0  0  0  0  0  0  0  0  0  0  0  0
   36.2860   24.3620   39.8280 C   0  0  0  0  0  0  0  0  0  0  0  0
   37.1940   25.3330   39.8630 N   0  0  0  0  0  0  0  0  0  0  0  0
   35.4360   23.6900   38.8040 C   0  0  0  0  0  0  0  0  0  0  0  0
   34.9710   24.7040   37.8300 C   0  0  0  0  0  0  0  0  0  0  0  0
   33.5970   24.5290   37.2960 C   0  0  0  0  0  0  0  0  0  0  0  0
   33.2750   23.0360   37.3130 C   0  0  0  0  0  0  0  0  0  0  0  0
   33.0890   22.7600   38.8050 C   0  0  0  0  0  0  0  0  0  0  0  0
   34.4020   22.8940   39.5070 C   0  0  0  0  0  0  0  0  0  0  0  0
   37.0806   26.9504   43.2844 H   0  0  0  0  0  0  0  0  0  0  0  0
   39.7080   28.3855   43.3305 H   0  0  0  0  0  0  0  0  0  0  0  0
   38.6405   27.9718   44.6735 H   0  0  0  0  0  0  0  0  0  0  0  0
   40.8524   26.4461   43.7938 H   0  0  0  0  0  0  0  0  0  0  0  0
   39.5608   25.8215   44.8353 H   0  0  0  0  0  0  0  0  0  0  0  0
   40.1579   24.9493   42.2335 H   0  0  0  0  0  0  0  0  0  0  0  0
   38.6477   24.6099   43.0908 H   0  0  0  0  0  0  0  0  0  0  0  0
   39.1053   26.8865   40.9734 H   0  0  0  0  0  0  0  0  0  0  0  0
   39.0481   29.8781   42.3826 H   0  0  0  0  0  0  0  0  0  0  0  0
   35.5801   27.3915   41.6083 H   0  0  0  0  0  0  0  0  0  0  0  0
   35.7422   31.4679   40.2451 H   0  0  0  0  0  0  0  0  0  0  0  0
   35.9767   22.9570   38.1873 H   0  0  0  0  0  0  0  0  0  0  0  0
   35.0151   25.6861   38.3234 H   0  0  0  0  0  0  0  0  0  0  0  0
   35.6366   24.5989   36.9605 H   0  0  0  0  0  0  0  0  0  0  0  0
   33.5446   24.9112   36.2659 H   0  0  0  0  0  0  0  0  0  0  0  0
   32.8730   25.0848   37.9099 H   0  0  0  0  0  0  0  0  0  0  0  0
   32.3548   22.8205   36.7502 H   0  0  0  0  0  0  0  0  0  0  0  0
   34.0501   22.4128   36.8430 H   0  0  0  0  0  0  0  0  0  0  0  0
   32.3740   23.4829   39.2247 H   0  0  0  0  0  0  0  0  0  0  0  0
   32.7037   21.7389   38.9425 H   0  0  0  0  0  0  0  0  0  0  0  0
   34.8047   21.8824   39.6637 H   0  0  0  0  0  0  0  0  0  0  0  0
   34.1870   23.4416   40.4364 H   0  0  0  0  0  0  0  0  0  0  0  0
  1  2  1  0
  2  3  1  0
  4  3  1  0
  5  4  1  0
  5  1  1  0
  6  7  2  0
  7  1  1  0
  8  7  1  0
  9  8  2  0
 10  9  1  0
 10 11  2  0
 11  6  1  0
 12  5  1  0
 12 13  2  0
 14 13  1  0
 15 16  2  0
 15 14  1  0
 16 12  1  0
 17 22  1  0
 17 15  1  0
 18 17  1  0
 19 20  1  0
 19 18  1  0
 20 21  1  0
 21 22  1  0
  1 23  1  1
  2 24  1  0
  2 25  1  0
  3 26  1  0
  3 27  1  0
  4 28  1  0
  4 29  1  0
  5 30  1  6
  6 31  1  0
  8 32  1  0
 10 33  1  0
 17 34  1  0
 18 35  1  0
 18 36  1  0
 19 37  1  0
 19 38  1  0
 20 39  1  0
 20 40  1  0
 21 41  1  0
 21 42  1  0
 22 43  1  0
 22 44  1  0
M  ISO  8  23  13  24  13  25  13  26  13  27  13  28  13  29  13  30  13
M  ISO  8  31  14  32  14  33  14  34  13  35  13  36  13  37  13  38  13
M  ISO  6  39  13  40  13  41  13  42  13  43  13  44  13
M  END
>  <minimizedAffinity>  (1) 
-5.42281771

>  <minimizedRMSD>  (1) 
0.776536345

$$$$
