
     RDKit          3D

 24 25  0  0  0  0  0  0  0  0999 V2000
   37.5140   30.0500   41.0920 C   0  0  0  0  0  0  0  0  0  0  0  0
   37.6800   29.3440   39.8850 C   0  0  0  0  0  0  0  0  0  0  0  0
   38.0700   30.0320   38.7410 C   0  0  0  0  0  0  0  0  0  0  0  0
   38.2730   31.3810   38.8500 N   0  0  0  0  0  0  0  0  0  0  0  0
   38.1090   32.0400   40.0190 C   0  0  0  0  0  0  0  0  0  0  0  0
   37.7330   31.3790   41.1290 N   0  0  0  0  0  0  0  0  0  0  0  0
   37.1050   29.3190   42.2930 C   0  0  0  0  0  0  0  0  0  0  0  0
   38.2590   29.0080   43.2380 C   0  0  0  0  0  0  0  0  0  0  0  0
   37.9910   27.6410   43.8000 C   0  0  0  0  0  0  0  0  0  0  0  0
   36.5730   27.3480   43.3800 C   0  0  0  0  0  0  0  0  0  0  0  0
   36.5120   27.9550   41.9950 C   0  0  0  0  0  0  0  0  0  0  0  0
   38.3960   33.8020   40.0780 S   0  0  0  0  0  0  0  0  0  0  0  0
   37.5029   28.2590   39.8473 H   0  0  0  0  0  0  0  0  0  0  0  0
   38.2103   29.5105   37.7827 H   0  0  0  0  0  0  0  0  0  0  0  0
   36.3720   30.0047   42.7430 H   0  0  0  0  0  0  0  0  0  0  0  0
   39.2122   29.0134   42.6890 H   0  0  0  0  0  0  0  0  0  0  0  0
   38.3333   29.7600   44.0373 H   0  0  0  0  0  0  0  0  0  0  0  0
   38.6856   26.9006   43.3764 H   0  0  0  0  0  0  0  0  0  0  0  0
   38.1283   27.5962   44.8905 H   0  0  0  0  0  0  0  0  0  0  0  0
   36.3831   26.2650   43.3485 H   0  0  0  0  0  0  0  0  0  0  0  0
   35.8179   27.7519   44.0704 H   0  0  0  0  0  0  0  0  0  0  0  0
   35.4789   28.0288   41.6245 H   0  0  0  0  0  0  0  0  0  0  0  0
   37.0269   27.3821   41.2097 H   0  0  0  0  0  0  0  0  0  0  0  0
   38.4625   34.2104   41.3840 H   0  0  0  0  0  0  0  0  0  0  0  0
  1  6  1  0
  1  7  1  0
  2  1  2  0
  3  4  2  0
  3  2  1  0
  4  5  1  0
  5 12  1  0
  5  6  2  0
  7  8  1  0
  8  9  1  0
 10  9  1  0
 11  7  1  0
 11 10  1  0
  2 13  1  0
  3 14  1  0
  7 15  1  0
  8 16  1  0
  8 17  1  0
  9 18  1  0
  9 19  1  0
 10 20  1  0
 10 21  1  0
 11 22  1  0
 11 23  1  0
 12 24  1  0
M  ISO  8  13  14  14  14  15  13  16  13  17  13  18  13  19  13  20  13
M  ISO  4  21  13  22  13  23  13  24  11
M  END
>  <minimizedAffinity>  (1) 
-3.96530771

>  <minimizedRMSD>  (1) 
4.14469671

$$$$
