
     RDKit          3D

 52 55  0  0  0  0  0  0  0  0999 V2000
   36.7400   30.2330   41.7090 O   0  0  0  0  0  0  0  0  0  0  0  0
   37.2830   26.6940   41.0730 C   0  0  0  0  0  0  0  0  0  0  0  0
   38.3130   26.4180   41.9720 C   0  0  0  0  0  0  0  0  0  0  0  0
   38.7970   27.4530   42.7770 C   0  0  0  0  0  0  0  0  0  0  0  0
   38.2200   28.6900   42.6280 N   0  0  0  0  0  0  0  0  0  0  0  0
   37.2250   28.9330   41.7500 C   0  0  0  0  0  0  0  0  0  0  0  0
   36.7540   27.9400   40.9710 N   0  0  0  0  0  0  0  0  0  0  0  0
   39.8240   27.2300   43.6910 N   0  0  0  0  0  0  0  0  0  0  0  0
   36.7510   25.7060   40.2340 N   0  0  0  0  0  0  0  0  0  0  0  0
   38.7970   25.0480   41.9800 C   0  0  0  0  0  0  0  0  0  0  0  0
   37.6530   24.0320   41.8140 C   0  0  0  0  0  0  0  0  0  0  0  0
   39.5980   24.6120   43.1550 C   0  0  0  0  0  0  0  0  0  0  0  0
   39.7070   24.8880   40.7680 C   0  0  0  0  0  0  0  0  0  0  0  0
   37.0450   31.1220   40.6930 C   0  0  0  0  0  0  0  0  0  0  0  0
   36.7360   31.3710   39.4110 N   0  0  0  0  0  0  0  0  0  0  0  0
   37.3920   32.4040   38.9920 O   0  0  0  0  0  0  0  0  0  0  0  0
   38.1520   32.8750   39.9640 C   0  0  0  0  0  0  0  0  0  0  0  0
   37.9380   32.0780   41.0250 N   0  0  0  0  0  0  0  0  0  0  0  0
   39.0550   34.0400   39.9000 C   0  0  0  0  0  0  0  0  0  0  0  0
   38.6640   35.3150   40.2370 C   0  0  0  0  0  0  0  0  0  0  0  0
   39.5990   36.3540   40.1420 C   0  0  0  0  0  0  0  0  0  0  0  0
   40.8940   36.1260   39.7230 C   0  0  0  0  0  0  0  0  0  0  0  0
   41.2650   34.8420   39.3910 C   0  0  0  0  0  0  0  0  0  0  0  0
   40.3570   33.8180   39.4790 C   0  0  0  0  0  0  0  0  0  0  0  0
   40.9060   32.5220   39.0950 C   0  0  0  0  0  0  0  0  0  0  0  0
   41.3940   31.5950   39.9940 C   0  0  0  0  0  0  0  0  0  0  0  0
   41.8870   30.4020   39.4750 C   0  0  0  0  0  0  0  0  0  0  0  0
   41.8920   30.1480   38.1180 C   0  0  0  0  0  0  0  0  0  0  0  0
   41.4040   31.0770   37.2180 C   0  0  0  0  0  0  0  0  0  0  0  0
   40.9090   32.2750   37.7370 C   0  0  0  0  0  0  0  0  0  0  0  0
   40.1691   28.0037   44.2768 H   0  0  0  0  0  0  0  0  0  0  0  0
   40.2384   26.2913   43.7812 H   0  0  0  0  0  0  0  0  0  0  0  0
   35.9904   25.9404   39.5802 H   0  0  0  0  0  0  0  0  0  0  0  0
   37.1205   24.7453   40.2710 H   0  0  0  0  0  0  0  0  0  0  0  0
   37.2968   23.7157   42.8055 H   0  0  0  0  0  0  0  0  0  0  0  0
   36.8259   24.4986   41.2589 H   0  0  0  0  0  0  0  0  0  0  0  0
   38.0187   23.1555   41.2589 H   0  0  0  0  0  0  0  0  0  0  0  0
   39.0759   24.8962   44.0805 H   0  0  0  0  0  0  0  0  0  0  0  0
   39.7259   23.5198   43.1267 H   0  0  0  0  0  0  0  0  0  0  0  0
   40.5846   25.0975   43.1267 H   0  0  0  0  0  0  0  0  0  0  0  0
   40.7382   24.7067   41.1052 H   0  0  0  0  0  0  0  0  0  0  0  0
   39.3643   24.0363   40.1620 H   0  0  0  0  0  0  0  0  0  0  0  0
   39.6753   25.8055   40.1620 H   0  0  0  0  0  0  0  0  0  0  0  0
   37.6364   35.5151   40.5748 H   0  0  0  0  0  0  0  0  0  0  0  0
   39.2934   37.3767   40.4079 H   0  0  0  0  0  0  0  0  0  0  0  0
   41.6156   36.9535   39.6556 H   0  0  0  0  0  0  0  0  0  0  0  0
   42.2920   34.6373   39.0544 H   0  0  0  0  0  0  0  0  0  0  0  0
   41.3931   31.7915   41.0763 H   0  0  0  0  0  0  0  0  0  0  0  0
   42.2831   29.6413   40.1638 H   0  0  0  0  0  0  0  0  0  0  0  0
   42.2903   29.1920   37.7473 H   0  0  0  0  0  0  0  0  0  0  0  0
   41.4056   30.8802   36.1358 H   0  0  0  0  0  0  0  0  0  0  0  0
   40.5134   33.0374   37.0497 H   0  0  0  0  0  0  0  0  0  0  0  0
  1  6  1  0
  2  3  2  0
  3 10  1  0
  3  4  1  0
  4  8  1  0
  5  4  2  0
  6  5  1  0
  7  2  1  0
  7  6  2  0
  9  2  1  0
 10 12  1  0
 11 10  1  0
 13 10  1  0
 14 18  1  0
 14  1  1  0
 15 14  2  0
 16 15  1  0
 16 17  1  0
 17 18  2  0
 19 17  1  0
 19 20  2  0
 21 20  1  0
 22 21  2  0
 23 24  2  0
 23 22  1  0
 24 19  1  0
 25 24  1  0
 25 26  2  0
 27 26  1  0
 28 27  2  0
 29 30  2  0
 29 28  1  0
 30 25  1  0
  8 31  1  0
  8 32  1  0
  9 33  1  0
  9 34  1  0
 11 35  1  0
 11 36  1  0
 11 37  1  0
 12 38  1  0
 12 39  1  0
 12 40  1  0
 13 41  1  0
 13 42  1  0
 13 43  1  0
 20 44  1  0
 21 45  1  0
 22 46  1  0
 23 47  1  0
 26 48  1  0
 27 49  1  0
 28 50  1  0
 29 51  1  0
 30 52  1  0
M  END
>  <minimizedAffinity>  (1) 
-7.00339651

>  <minimizedRMSD>  (1) 
0.238652751

$$$$
