
     RDKit          3D

 40 43  0  0  1  0  0  0  0  0999 V2000
   37.0720   27.2330   41.5070 C   0  0  0  0  0  0  0  0  0  0  0  0
   37.1180   26.2870   42.5060 C   0  0  0  0  0  0  0  0  0  0  0  0
   36.9470   24.9530   42.2320 C   0  0  0  0  0  0  0  0  0  0  0  0
   36.7260   24.5690   40.9240 C   0  0  0  0  0  0  0  0  0  0  0  0
   36.6820   25.4930   39.9260 C   0  0  0  0  0  0  0  0  0  0  0  0
   36.8640   26.8500   40.2600 C   0  0  0  0  0  0  0  0  0  0  0  0
   38.4020   29.4110   41.6320 C   0  0  1  0  0  0  0  0  0  0  0  0
   37.8550   29.1260   42.9750 C   0  0  0  0  0  0  0  0  0  0  0  0
   37.0460   28.6560   41.8590 C   0  0  2  0  0  0  0  0  0  0  0  0
   38.2260   30.7880   41.0430 C   0  0  0  0  0  0  0  0  0  0  0  0
   37.2120   30.9600   40.0540 C   0  0  0  0  0  0  0  0  0  0  0  0
   37.0400   32.2190   39.5180 C   0  0  0  0  0  0  0  0  0  0  0  0
   37.8590   33.2390   39.9700 N   0  0  0  0  0  0  0  0  0  0  0  0
   38.8010   33.0350   40.9030 C   0  0  0  0  0  0  0  0  0  0  0  0
   38.9800   31.7860   41.4410 N   0  0  0  0  0  0  0  0  0  0  0  0
   36.2540   28.8610   36.6010 C   0  0  0  0  0  0  0  0  0  0  0  0
   35.2220   28.5410   37.4880 C   0  0  0  0  0  0  0  0  0  0  0  0
   35.5260   27.8810   38.6660 C   0  0  0  0  0  0  0  0  0  0  0  0
   36.8570   27.5300   38.9740 C   0  0  0  0  0  0  0  0  0  0  0  0
   37.8660   27.8530   38.0860 C   0  0  0  0  0  0  0  0  0  0  0  0
   37.5490   28.5110   36.9180 C   0  0  0  0  0  0  0  0  0  0  0  0
   35.9410   29.6960   35.0940 S   0  0  0  0  0  0  0  0  0  0  0  0
   34.4750   29.5510   34.7610 O   0  0  0  0  0  0  0  0  0  0  0  0
   36.7690   29.1400   33.9780 O   0  0  0  0  0  0  0  0  0  0  0  0
   37.2952   26.6063   43.5436 H   0  0  0  0  0  0  0  0  0  0  0  0
   36.9852   24.2051   43.0377 H   0  0  0  0  0  0  0  0  0  0  0  0
   36.5840   23.5044   40.6863 H   0  0  0  0  0  0  0  0  0  0  0  0
   36.5085   25.1880   38.8835 H   0  0  0  0  0  0  0  0  0  0  0  0
   39.3774   29.2385   41.1536 H   0  0  0  0  0  0  0  0  0  0  0  0
   38.3631   28.3910   43.6166 H   0  0  0  0  0  0  0  0  0  0  0  0
   37.6346   29.7620   43.8451 H   0  0  0  0  0  0  0  0  0  0  0  0
   35.9894   28.7784   41.5786 H   0  0  0  0  0  0  0  0  0  0  0  0
   36.5871   30.1150   39.7293 H   0  0  0  0  0  0  0  0  0  0  0  0
   36.2730   32.4073   38.7523 H   0  0  0  0  0  0  0  0  0  0  0  0
   39.4317   33.8718   41.2376 H   0  0  0  0  0  0  0  0  0  0  0  0
   34.1817   28.8103   37.2528 H   0  0  0  0  0  0  0  0  0  0  0  0
   34.7201   27.6272   39.3704 H   0  0  0  0  0  0  0  0  0  0  0  0
   38.9099   27.5877   38.3095 H   0  0  0  0  0  0  0  0  0  0  0  0
   38.3559   28.7655   36.2151 H   0  0  0  0  0  0  0  0  0  0  0  0
   36.2748   31.0165   35.2415 H   0  0  0  0  0  0  0  0  0  0  0  0
  1  9  1  0
  1  2  2  0
  3  2  1  0
  4  3  2  0
  5  6  2  0
  5  4  1  0
  6  1  1  0
  7  9  1  0
  7  8  1  0
  9  8  1  0
 10 15  1  0
 10  7  1  0
 11 10  2  0
 12 13  2  0
 12 11  1  0
 13 14  1  0
 14 15  2  0
 16 21  2  0
 16 17  1  0
 17 18  2  0
 18 19  1  0
 19  6  1  0
 20 19  2  0
 21 20  1  0
 22 16  1  0
 23 22  2  0
 24 22  2  0
  2 25  1  0
  3 26  1  0
  4 27  1  0
  5 28  1  0
  7 29  1  1
  8 30  1  0
  8 31  1  0
  9 32  1  6
 11 33  1  0
 12 34  1  0
 14 35  1  0
 17 36  1  0
 18 37  1  0
 20 38  1  0
 21 39  1  0
 22 40  1  0
M  ISO  8  25  14  26  14  27  14  28  14  29  13  30  13  31  13  32  13
M  ISO  8  33  14  34  14  35  14  36  14  37  14  38  14  39  14  40  11
M  END
>  <minimizedAffinity>  (1) 
-5.77651167

>  <minimizedRMSD>  (1) 
0.797581553

$$$$
