
     RDKit          3D

 48 52  0  0  0  0  0  0  0  0999 V2000
   40.3790   32.8090   40.8180 C   0  0  0  0  0  0  0  0  0  0  0  0
   41.4390   32.2160   41.5280 C   0  0  0  0  0  0  0  0  0  0  0  0
   41.3240   31.0350   42.2440 C   0  0  0  0  0  0  0  0  0  0  0  0
   40.0920   30.3970   42.2660 C   0  0  0  0  0  0  0  0  0  0  0  0
   39.0380   30.9310   41.5940 C   0  0  0  0  0  0  0  0  0  0  0  0
   37.8580   30.2660   41.6440 C   0  0  0  0  0  0  0  0  0  0  0  0
   36.7190   30.7700   40.9590 C   0  0  0  0  0  0  0  0  0  0  0  0
   36.9170   31.9700   40.2560 C   0  0  0  0  0  0  0  0  0  0  0  0
   38.1380   32.5810   40.2540 C   0  0  0  0  0  0  0  0  0  0  0  0
   39.2320   32.0880   40.9170 C   0  0  0  0  0  0  0  0  0  0  0  0
   40.6870   34.0280   40.1500 C   0  0  0  0  0  0  0  0  0  0  0  0
   40.2890   35.3520   40.4330 C   0  0  0  0  0  0  0  0  0  0  0  0
   40.7090   36.4350   39.6740 C   0  0  0  0  0  0  0  0  0  0  0  0
   41.5360   36.1490   38.6260 N   0  0  0  0  0  0  0  0  0  0  0  0
   41.9190   34.9200   38.3460 C   0  0  0  0  0  0  0  0  0  0  0  0
   41.5060   33.8900   39.0860 N   0  0  0  0  0  0  0  0  0  0  0  0
   37.5090   29.0440   42.3250 C   0  0  0  0  0  0  0  0  0  0  0  0
   37.1780   28.8630   43.6530 C   0  0  0  0  0  0  0  0  0  0  0  0
   36.8270   27.6680   44.2290 C   0  0  0  0  0  0  0  0  0  0  0  0
   36.7860   26.5330   43.4630 C   0  0  0  0  0  0  0  0  0  0  0  0
   37.1150   26.7170   42.1510 C   0  0  0  0  0  0  0  0  0  0  0  0
   37.4570   27.9070   41.6170 N   0  0  0  0  0  0  0  0  0  0  0  0
   37.1200   23.2900   39.5760 C   0  0  0  0  0  0  0  0  0  0  0  0
   36.6370   24.4970   39.1140 C   0  0  0  0  0  0  0  0  0  0  0  0
   36.6390   25.5960   39.9490 C   0  0  0  0  0  0  0  0  0  0  0  0
   37.1040   25.5670   41.2470 C   0  0  0  0  0  0  0  0  0  0  0  0
   37.5720   24.3230   41.6430 C   0  0  0  0  0  0  0  0  0  0  0  0
   37.6000   23.1840   40.8640 C   0  0  0  0  0  0  0  0  0  0  0  0
   37.1000   21.9230   38.4860 S   0  0  0  0  0  0  0  0  0  0  0  0
   35.7810   21.2240   38.4900 O   0  0  0  0  0  0  0  0  0  0  0  0
   38.1450   20.9020   38.8080 O   0  0  0  0  0  0  0  0  0  0  0  0
   42.4169   32.7195   41.5140 H   0  0  0  0  0  0  0  0  0  0  0  0
   42.1870   30.6143   42.7809 H   0  0  0  0  0  0  0  0  0  0  0  0
   39.9683   29.4591   42.8273 H   0  0  0  0  0  0  0  0  0  0  0  0
   35.7473   30.2547   40.9781 H   0  0  0  0  0  0  0  0  0  0  0  0
   36.0807   32.4215   39.7021 H   0  0  0  0  0  0  0  0  0  0  0  0
   38.2499   33.5189   39.6903 H   0  0  0  0  0  0  0  0  0  0  0  0
   39.6205   35.5323   41.2877 H   0  0  0  0  0  0  0  0  0  0  0  0
   40.3941   37.4637   39.9032 H   0  0  0  0  0  0  0  0  0  0  0  0
   42.5878   34.7410   37.4912 H   0  0  0  0  0  0  0  0  0  0  0  0
   37.1972   29.7501   44.3032 H   0  0  0  0  0  0  0  0  0  0  0  0
   36.5799   27.6217   45.2999 H   0  0  0  0  0  0  0  0  0  0  0  0
   36.5096   25.5504   43.8730 H   0  0  0  0  0  0  0  0  0  0  0  0
   36.2528   24.5829   38.0869 H   0  0  0  0  0  0  0  0  0  0  0  0
   36.2483   26.5470   39.5578 H   0  0  0  0  0  0  0  0  0  0  0  0
   37.9554   24.2363   42.6704 H   0  0  0  0  0  0  0  0  0  0  0  0
   37.9889   22.2319   41.2543 H   0  0  0  0  0  0  0  0  0  0  0  0
   37.3545   22.4636   37.2531 H   0  0  0  0  0  0  0  0  0  0  0  0
  1 10  1  0
  1  2  2  0
  2  3  1  0
  3  4  2  0
  5  6  2  0
  5  4  1  0
  6 17  1  0
  7  6  1  0
  8  7  2  0
  9  8  1  0
  9 10  2  0
 10  5  1  0
 11 12  2  0
 11  1  1  0
 13 12  1  0
 14 13  2  0
 15 14  1  0
 15 16  2  0
 16 11  1  0
 17 18  2  0
 18 19  1  0
 20 19  2  0
 21 20  1  0
 22 21  2  0
 22 17  1  0
 23 28  2  0
 24 23  1  0
 24 25  2  0
 25 26  1  0
 26 27  2  0
 26 21  1  0
 28 27  1  0
 29 30  2  0
 29 31  2  0
 29 23  1  0
  2 32  1  0
  3 33  1  0
  4 34  1  0
  7 35  1  0
  8 36  1  0
  9 37  1  0
 12 38  1  0
 13 39  1  0
 15 40  1  0
 18 41  1  0
 19 42  1  0
 20 43  1  0
 24 44  1  0
 25 45  1  0
 27 46  1  0
 28 47  1  0
 29 48  1  0
M  ISO  8  32  14  33  14  34  14  35  14  36  14  37  14  38  14  39  14
M  ISO  8  40  14  41  14  42  14  43  14  44  14  45  14  46  14  47  14
M  ISO  1  48  11
M  END
>  <minimizedAffinity>  (1) 
-6.9427762

>  <minimizedRMSD>  (1) 
3.08615685

$$$$
