
     RDKit          3D

 46 50  0  0  0  0  0  0  0  0999 V2000
   40.8550   26.8350   43.1660 O   0  0  0  0  0  0  0  0  0  0  0  0
   36.9330   29.0370   43.7050 N   0  0  0  0  0  0  0  0  0  0  0  0
   36.9070   27.8150   44.2890 C   0  0  0  0  0  0  0  0  0  0  0  0
   38.1190   27.2530   44.0670 N   0  0  0  0  0  0  0  0  0  0  0  0
   38.9140   28.0880   43.3550 C   0  0  0  0  0  0  0  0  0  0  0  0
   40.2060   28.0240   42.8680 C   0  0  0  0  0  0  0  0  0  0  0  0
   40.7010   29.0770   42.1750 N   0  0  0  0  0  0  0  0  0  0  0  0
   39.9240   30.1650   41.9760 C   0  0  0  0  0  0  0  0  0  0  0  0
   38.6560   30.2590   42.4400 N   0  0  0  0  0  0  0  0  0  0  0  0
   38.1380   29.2230   43.1350 C   0  0  0  0  0  0  0  0  0  0  0  0
   41.6030   33.3490   39.8390 C   0  0  0  0  0  0  0  0  0  0  0  0
   40.4240   32.8070   39.3730 C   0  0  0  0  0  0  0  0  0  0  0  0
   39.8640   31.7440   40.0870 C   0  0  0  0  0  0  0  0  0  0  0  0
   40.5050   31.2830   41.2190 C   0  0  0  0  0  0  0  0  0  0  0  0
   41.6900   31.8280   41.6870 C   0  0  0  0  0  0  0  0  0  0  0  0
   42.2300   32.8880   40.9580 C   0  0  0  0  0  0  0  0  0  0  0  0
   42.1850   34.6740   38.8410 S   0  0  0  0  0  0  0  0  0  0  0  0
   41.2150   35.8250   39.0320 O   0  0  0  0  0  0  0  0  0  0  0  0
   42.2050   34.2620   37.3880 O   0  0  0  0  0  0  0  0  0  0  0  0
   44.4710   26.7110   43.6230 C   0  0  0  0  0  0  0  0  0  0  0  0
   43.2170   26.6620   43.0090 C   0  0  0  0  0  0  0  0  0  0  0  0
   42.0730   26.8850   43.7740 C   0  0  0  0  0  0  0  0  0  0  0  0
   42.2460   27.1480   45.1220 N   0  0  0  0  0  0  0  0  0  0  0  0
   43.4680   27.1860   45.6680 C   0  0  0  0  0  0  0  0  0  0  0  0
   44.5850   26.9690   44.9310 N   0  0  0  0  0  0  0  0  0  0  0  0
   43.0370   26.3840   41.5790 C   0  0  0  0  0  0  0  0  0  0  0  0
   43.2790   27.2990   40.5810 C   0  0  0  0  0  0  0  0  0  0  0  0
   43.1170   27.0620   39.2320 C   0  0  0  0  0  0  0  0  0  0  0  0
   42.6850   25.8250   38.8670 N   0  0  0  0  0  0  0  0  0  0  0  0
   42.4450   24.9200   39.8380 C   0  0  0  0  0  0  0  0  0  0  0  0
   42.6130   25.1840   41.1450 N   0  0  0  0  0  0  0  0  0  0  0  0
   43.5840   27.4740   47.1300 C   0  0  0  0  0  0  0  0  0  0  0  0
   44.2750   28.6520   47.3420 F   0  0  0  0  0  0  0  0  0  0  0  0
   42.3110   27.7050   47.6810 F   0  0  0  0  0  0  0  0  0  0  0  0
   44.2540   26.4790   47.8200 F   0  0  0  0  0  0  0  0  0  0  0  0
   36.1567   29.7139   43.6983 H   0  0  0  0  0  0  0  0  0  0  0  0
   36.0652   27.3665   44.8369 H   0  0  0  0  0  0  0  0  0  0  0  0
   39.9389   33.1992   38.4670 H   0  0  0  0  0  0  0  0  0  0  0  0
   38.9245   31.2808   39.7511 H   0  0  0  0  0  0  0  0  0  0  0  0
   42.1824   31.4425   42.5919 H   0  0  0  0  0  0  0  0  0  0  0  0
   43.1692   33.3554   41.2889 H   0  0  0  0  0  0  0  0  0  0  0  0
   43.4587   35.0305   39.1982 H   0  0  0  0  0  0  0  0  0  0  0  0
   45.3763   26.5352   43.0234 H   0  0  0  0  0  0  0  0  0  0  0  0
   43.6290   28.2974   40.8822 H   0  0  0  0  0  0  0  0  0  0  0  0
   43.3281   27.8399   38.4835 H   0  0  0  0  0  0  0  0  0  0  0  0
   42.0953   23.9187   39.5463 H   0  0  0  0  0  0  0  0  0  0  0  0
  1 22  1  0
  2  3  1  0
  4  3  2  0
  5  4  1  0
  6  1  1  0
  6  5  2  0
  7  6  1  0
  8  7  2  0
  8  9  1  0
  9 10  2  0
 10  5  1  0
 10  2  1  0
 11 16  2  0
 12 11  1  0
 12 13  2  0
 13 14  1  0
 14 15  2  0
 14  8  1  0
 16 15  1  0
 17 18  2  0
 17 11  1  0
 19 17  2  0
 20 25  2  0
 21 20  1  0
 21 22  2  0
 22 23  1  0
 23 24  2  0
 24 32  1  0
 25 24  1  0
 26 21  1  0
 27 26  2  0
 28 27  1  0
 29 28  2  0
 29 30  1  0
 30 31  2  0
 31 26  1  0
 32 33  1  0
 32 34  1  0
 32 35  1  0
  2 36  1  0
  3 37  1  0
 12 38  1  0
 13 39  1  0
 15 40  1  0
 16 41  1  0
 17 42  1  0
 20 43  1  0
 27 44  1  0
 28 45  1  0
 30 46  1  0
M  ISO  8  36   9  37  14  38  14  39  14  40  14  41  14  42  11  43  14
M  ISO  3  44  14  45  14  46  14
M  END
>  <minimizedAffinity>  (1) 
-6.31824541

>  <minimizedRMSD>  (1) 
1.09789908

$$$$
