
     RDKit          3D

 48 51  0  0  1  0  0  0  0  0999 V2000
   37.0680   27.9470   41.5500 N   0  0  0  0  0  0  0  0  0  0  0  0
   36.9330   26.9700   42.6000 C   0  0  0  0  0  0  0  0  0  0  0  0
   37.6190   27.6070   43.8030 C   0  0  0  0  0  0  0  0  0  0  0  0
   38.2230   28.9030   43.3040 C   0  0  0  0  0  0  0  0  0  0  0  0
   38.3280   28.5850   41.8220 C   0  0  2  0  0  0  0  0  0  0  0  0
   38.6620   29.6860   41.0020 N   0  0  0  0  0  0  0  0  0  0  0  0
   38.2310   30.9480   41.0660 C   0  0  0  0  0  0  0  0  0  0  0  0
   38.6620   31.9150   40.1740 C   0  0  0  0  0  0  0  0  0  0  0  0
   39.5630   31.6130   39.1750 C   0  0  0  0  0  0  0  0  0  0  0  0
   39.9490   32.4850   38.3720 O   0  0  0  0  0  0  0  0  0  0  0  0
   39.9810   30.3260   39.1350 N   0  0  0  0  0  0  0  0  0  0  0  0
   39.5490   29.3970   40.0140 C   0  0  0  0  0  0  0  0  0  0  0  0
   40.0480   28.2220   39.8340 O   0  0  0  0  0  0  0  0  0  0  0  0
   38.1420   33.3010   40.3020 C   0  0  0  0  0  0  0  0  0  0  0  0
   35.0910   29.1020   40.6030 C   0  0  0  0  0  0  0  0  0  0  0  0
   36.1900   28.2330   40.4940 C   0  0  0  0  0  0  0  0  0  0  0  0
   36.4210   27.6150   39.2470 C   0  0  0  0  0  0  0  0  0  0  0  0
   35.5620   27.9010   38.2270 N   0  0  0  0  0  0  0  0  0  0  0  0
   34.5170   28.7450   38.3800 C   0  0  0  0  0  0  0  0  0  0  0  0
   34.2950   29.3310   39.5560 N   0  0  0  0  0  0  0  0  0  0  0  0
   31.9780   29.4930   35.0630 C   0  0  0  0  0  0  0  0  0  0  0  0
   31.5140   29.6520   36.3580 C   0  0  0  0  0  0  0  0  0  0  0  0
   32.3360   29.4110   37.4660 C   0  0  0  0  0  0  0  0  0  0  0  0
   33.6370   29.0040   37.2460 C   0  0  0  0  0  0  0  0  0  0  0  0
   34.0900   28.8470   35.9510 C   0  0  0  0  0  0  0  0  0  0  0  0
   33.2820   29.0850   34.8580 C   0  0  0  0  0  0  0  0  0  0  0  0
   30.7780   29.8500   33.8290 S   0  0  0  0  0  0  0  0  0  0  0  0
   30.5150   28.6740   32.9410 O   0  0  0  0  0  0  0  0  0  0  0  0
   29.4520   30.1820   34.4960 O   0  0  0  0  0  0  0  0  0  0  0  0
   35.8722   26.7746   42.8155 H   0  0  0  0  0  0  0  0  0  0  0  0
   37.3770   26.0006   42.3296 H   0  0  0  0  0  0  0  0  0  0  0  0
   36.8860   27.8086   44.5981 H   0  0  0  0  0  0  0  0  0  0  0  0
   38.3866   26.9426   44.2265 H   0  0  0  0  0  0  0  0  0  0  0  0
   37.5619   29.7618   43.4924 H   0  0  0  0  0  0  0  0  0  0  0  0
   39.1685   29.1919   43.7862 H   0  0  0  0  0  0  0  0  0  0  0  0
   39.1778   27.9316   41.5751 H   0  0  0  0  0  0  0  0  0  0  0  0
   37.5124   31.2276   41.8505 H   0  0  0  0  0  0  0  0  0  0  0  0
   40.6534   30.0453   38.4070 H   0  0  0  0  0  0  0  0  0  0  0  0
   38.0451   33.5594   41.3668 H   0  0  0  0  0  0  0  0  0  0  0  0
   38.8389   34.0003   39.8170 H   0  0  0  0  0  0  0  0  0  0  0  0
   37.1571   33.3694   39.8170 H   0  0  0  0  0  0  0  0  0  0  0  0
   34.8842   29.5993   41.5621 H   0  0  0  0  0  0  0  0  0  0  0  0
   37.2657   26.9255   39.1022 H   0  0  0  0  0  0  0  0  0  0  0  0
   30.4752   29.9753   36.5203 H   0  0  0  0  0  0  0  0  0  0  0  0
   31.9536   29.5430   38.4889 H   0  0  0  0  0  0  0  0  0  0  0  0
   35.1278   28.5219   35.7855 H   0  0  0  0  0  0  0  0  0  0  0  0
   33.6707   28.9517   33.8376 H   0  0  0  0  0  0  0  0  0  0  0  0
   31.2714   30.8919   33.0889 H   0  0  0  0  0  0  0  0  0  0  0  0
  1  5  1  0
  1  2  1  0
  2  3  1  0
  4  3  1  0
  5  4  1  0
  6  7  1  0
  6  5  1  0
  8 14  1  0
  8  7  2  0
  9  8  1  0
 10  9  2  0
 11  9  1  0
 11 12  1  0
 12  6  1  0
 13 12  2  0
 16 15  2  0
 16  1  1  0
 17 16  1  0
 18 19  1  0
 18 17  2  0
 19 20  2  0
 20 15  1  0
 21 22  2  0
 22 23  1  0
 24 23  2  0
 24 19  1  0
 25 24  1  0
 26 21  1  0
 26 25  2  0
 27 29  2  0
 27 21  1  0
 28 27  2  0
  2 30  1  0
  2 31  1  0
  3 32  1  0
  3 33  1  0
  4 34  1  0
  4 35  1  0
  5 36  1  1
  7 37  1  0
 11 38  1  0
 14 39  1  0
 14 40  1  0
 14 41  1  0
 15 42  1  0
 17 43  1  0
 22 44  1  0
 23 45  1  0
 25 46  1  0
 26 47  1  0
 27 48  1  0
M  ISO  8  30  13  31  13  32  13  33  13  34  13  35  13  36  13  37  14
M  ISO  8  38   9  39   8  40   8  41   8  42  14  43  14  44  14  45  14
M  ISO  3  46  14  47  14  48  11
M  END
>  <minimizedAffinity>  (1) 
-5.95020056

>  <minimizedRMSD>  (1) 
0.920081198

$$$$
