
     RDKit          3D

 43 46  0  0  1  0  0  0  0  0999 V2000
   37.4310   31.1740   40.7040 C   0  0  1  0  0  0  0  0  0  0  0  0
   38.2210   32.4170   40.7740 C   0  0  0  0  0  0  0  0  0  0  0  0
   37.6890   33.1870   39.5700 C   0  0  0  0  0  0  0  0  0  0  0  0
   37.1820   32.1290   38.6020 C   0  0  0  0  0  0  0  0  0  0  0  0
   37.5460   30.8030   39.2320 C   0  0  2  0  0  0  0  0  0  0  0  0
   39.7860   28.9470   42.4780 C   0  0  0  0  0  0  0  0  0  0  0  0
   38.8970   28.2110   43.3450 C   0  0  0  0  0  0  0  0  0  0  0  0
   37.5080   28.4950   43.2860 C   0  0  0  0  0  0  0  0  0  0  0  0
   37.0520   29.4470   42.4240 N   0  0  0  0  0  0  0  0  0  0  0  0
   37.9350   30.1120   41.6280 C   0  0  0  0  0  0  0  0  0  0  0  0
   39.2750   29.8760   41.6450 N   0  0  0  0  0  0  0  0  0  0  0  0
   36.6650   29.7170   38.8400 C   0  0  0  0  0  0  0  0  0  0  0  0
   35.3850   29.5240   38.3610 C   0  0  0  0  0  0  0  0  0  0  0  0
   34.9230   28.2800   38.1190 C   0  0  0  0  0  0  0  0  0  0  0  0
   35.7620   27.1980   38.3620 C   0  0  0  0  0  0  0  0  0  0  0  0
   37.3250   28.0030   38.9810 S   0  0  0  0  0  0  0  0  0  0  0  0
   35.2150   23.0520   37.9630 C   0  0  0  0  0  0  0  0  0  0  0  0
   34.5240   23.9580   37.1530 C   0  0  0  0  0  0  0  0  0  0  0  0
   34.6860   25.3120   37.2650 C   0  0  0  0  0  0  0  0  0  0  0  0
   35.5580   25.8160   38.2050 C   0  0  0  0  0  0  0  0  0  0  0  0
   36.2740   24.9550   39.0390 C   0  0  0  0  0  0  0  0  0  0  0  0
   36.0790   23.5870   38.8910 C   0  0  0  0  0  0  0  0  0  0  0  0
   34.9800   21.3190   37.7890 S   0  0  0  0  0  0  0  0  0  0  0  0
   34.0710   21.0990   36.6090 O   0  0  0  0  0  0  0  0  0  0  0  0
   34.3440   20.8040   39.0530 O   0  0  0  0  0  0  0  0  0  0  0  0
   36.3891   31.2959   41.0352 H   0  0  0  0  0  0  0  0  0  0  0  0
   38.0333   32.9596   41.7123 H   0  0  0  0  0  0  0  0  0  0  0  0
   39.3092   32.2570   40.7575 H   0  0  0  0  0  0  0  0  0  0  0  0
   36.8694   33.8553   39.8727 H   0  0  0  0  0  0  0  0  0  0  0  0
   38.4658   33.8184   39.1140 H   0  0  0  0  0  0  0  0  0  0  0  0
   37.6709   32.2372   37.6226 H   0  0  0  0  0  0  0  0  0  0  0  0
   36.0992   32.2170   38.4292 H   0  0  0  0  0  0  0  0  0  0  0  0
   38.5277   30.4066   38.9336 H   0  0  0  0  0  0  0  0  0  0  0  0
   40.8684   28.7521   42.4967 H   0  0  0  0  0  0  0  0  0  0  0  0
   39.2870   27.4482   44.0349 H   0  0  0  0  0  0  0  0  0  0  0  0
   36.8037   27.9502   43.9319 H   0  0  0  0  0  0  0  0  0  0  0  0
   34.7359   30.3923   38.1750 H   0  0  0  0  0  0  0  0  0  0  0  0
   33.9032   28.1246   37.7371 H   0  0  0  0  0  0  0  0  0  0  0  0
   33.8249   23.5683   36.3984 H   0  0  0  0  0  0  0  0  0  0  0  0
   34.1240   25.9933   36.6092 H   0  0  0  0  0  0  0  0  0  0  0  0
   36.9727   25.3484   39.7920 H   0  0  0  0  0  0  0  0  0  0  0  0
   36.6397   22.9020   39.5440 H   0  0  0  0  0  0  0  0  0  0  0  0
   36.1629   20.6590   37.5839 H   0  0  0  0  0  0  0  0  0  0  0  0
  1  2  1  0
  1 10  1  0
  3  2  1  0
  4  5  1  0
  4  3  1  0
  5  1  1  0
  6  7  2  0
  8  7  1  0
  9  8  2  0
 10 11  2  0
 10  9  1  0
 11  6  1  0
 12 16  1  0
 12  5  1  0
 13 12  2  0
 14 13  1  0
 14 15  2  0
 15 16  1  0
 17 22  2  0
 18 19  2  0
 18 17  1  0
 19 20  1  0
 20 15  1  0
 20 21  2  0
 22 21  1  0
 23 17  1  0
 23 25  2  0
 24 23  2  0
  1 26  1  1
  2 27  1  0
  2 28  1  0
  3 29  1  0
  3 30  1  0
  4 31  1  0
  4 32  1  0
  5 33  1  1
  6 34  1  0
  7 35  1  0
  8 36  1  0
 13 37  1  0
 14 38  1  0
 18 39  1  0
 19 40  1  0
 21 41  1  0
 22 42  1  0
 23 43  1  0
M  ISO  8  26  13  27  13  28  13  29  13  30  13  31  13  32  13  33  13
M  ISO  8  34  14  35  14  36  14  37  14  38  14  39  14  40  14  41  14
M  ISO  2  42  14  43  11
M  END
>  <minimizedAffinity>  (1) 
-5.03900671

>  <minimizedRMSD>  (1) 
1.71198785

$$$$
