
     RDKit          3D

 42 45  0  0  1  0  0  0  0  0999 V2000
   37.9450   27.3890   42.7120 C   0  0  2  0  0  0  0  0  0  0  0  0
   39.0220   27.6990   43.6560 C   0  0  0  0  0  0  0  0  0  0  0  0
   39.7410   26.3900   43.8660 C   0  0  0  0  0  0  0  0  0  0  0  0
   39.2890   25.4820   42.7700 C   0  0  0  0  0  0  0  0  0  0  0  0
   38.5530   26.3850   41.7580 C   0  0  1  0  0  0  0  0  0  0  0  0
   37.5640   25.4270   41.1900 C   0  0  0  0  0  0  0  0  0  0  0  0
   36.8710   24.5460   41.9520 N   0  0  0  0  0  0  0  0  0  0  0  0
   36.1080   23.8560   41.1260 O   0  0  0  0  0  0  0  0  0  0  0  0
   36.3160   24.2860   39.8970 C   0  0  0  0  0  0  0  0  0  0  0  0
   37.2290   25.2790   39.8800 N   0  0  0  0  0  0  0  0  0  0  0  0
   35.7160   23.8300   38.6950 N   0  0  0  0  0  0  0  0  0  0  0  0
   34.4540   23.0920   38.8620 C   0  0  0  0  0  0  0  0  0  0  0  0
   34.6100   21.8580   37.9850 C   0  0  0  0  0  0  0  0  0  0  0  0
   34.6360   22.2480   36.5970 N   0  0  0  0  0  0  0  0  0  0  0  0
   35.0130   23.6340   36.4030 C   0  0  0  0  0  0  0  0  0  0  0  0
   36.1680   23.9810   37.3300 C   0  0  0  0  0  0  0  0  0  0  0  0
   37.9400   29.7900   41.8820 C   0  0  0  0  0  0  0  0  0  0  0  0
   37.3340   28.5150   42.0210 C   0  0  0  0  0  0  0  0  0  0  0  0
   36.0850   28.3260   41.4590 C   0  0  0  0  0  0  0  0  0  0  0  0
   35.5020   29.3730   40.8010 N   0  0  0  0  0  0  0  0  0  0  0  0
   36.1100   30.5940   40.6810 C   0  0  0  0  0  0  0  0  0  0  0  0
   37.3450   30.7800   41.2360 N   0  0  0  0  0  0  0  0  0  0  0  0
   37.0792   27.0011   43.2688 H   0  0  0  0  0  0  0  0  0  0  0  0
   39.7035   28.4515   43.2325 H   0  0  0  0  0  0  0  0  0  0  0  0
   38.6394   28.1177   44.5985 H   0  0  0  0  0  0  0  0  0  0  0  0
   40.8293   26.5404   43.8113 H   0  0  0  0  0  0  0  0  0  0  0  0
   39.5160   25.9649   44.8553 H   0  0  0  0  0  0  0  0  0  0  0  0
   40.1531   24.9963   42.2932 H   0  0  0  0  0  0  0  0  0  0  0  0
   38.6374   24.6808   43.1487 H   0  0  0  0  0  0  0  0  0  0  0  0
   39.0847   26.8946   40.9409 H   0  0  0  0  0  0  0  0  0  0  0  0
   34.3088   22.8047   39.9138 H   0  0  0  0  0  0  0  0  0  0  0  0
   33.5784   23.6952   38.5802 H   0  0  0  0  0  0  0  0  0  0  0  0
   35.5499   21.3458   38.2385 H   0  0  0  0  0  0  0  0  0  0  0  0
   33.7614   21.1795   38.1568 H   0  0  0  0  0  0  0  0  0  0  0  0
   35.3138   21.6514   36.1015 H   0  0  0  0  0  0  0  0  0  0  0  0
   35.3227   23.7868   35.3586 H   0  0  0  0  0  0  0  0  0  0  0  0
   34.1539   24.2824   36.6299 H   0  0  0  0  0  0  0  0  0  0  0  0
   37.0132   23.3029   37.1410 H   0  0  0  0  0  0  0  0  0  0  0  0
   36.4987   25.0150   37.1526 H   0  0  0  0  0  0  0  0  0  0  0  0
   38.9328   29.9607   42.3238 H   0  0  0  0  0  0  0  0  0  0  0  0
   35.5724   27.3560   41.5394 H   0  0  0  0  0  0  0  0  0  0  0  0
   35.6109   31.4146   40.1448 H   0  0  0  0  0  0  0  0  0  0  0  0
  1  2  1  0
  2  3  1  0
  4  3  1  0
  5  1  1  0
  5  4  1  0
  6  5  1  0
  6  7  2  0
  8  7  1  0
  9  8  1  0
 10  9  2  0
 10  6  1  0
 11 12  1  0
 11  9  1  0
 13 12  1  0
 14 13  1  0
 15 14  1  0
 15 16  1  0
 16 11  1  0
 17 18  2  0
 18  1  1  0
 19 18  1  0
 20 19  2  0
 21 20  1  0
 21 22  2  0
 22 17  1  0
  1 23  1  1
  2 24  1  0
  2 25  1  0
  3 26  1  0
  3 27  1  0
  4 28  1  0
  4 29  1  0
  5 30  1  6
 12 31  1  0
 12 32  1  0
 13 33  1  0
 13 34  1  0
 14 35  1  0
 15 36  1  0
 15 37  1  0
 16 38  1  0
 16 39  1  0
 17 40  1  0
 19 41  1  0
 21 42  1  0
M  ISO  8  23  13  24  13  25  13  26  13  27  13  28  13  29  13  30  13
M  ISO  8  31  13  32  13  33  13  34  13  35   5  36  13  37  13  38  13
M  ISO  4  39  13  40  14  41  14  42  14
M  END
>  <minimizedAffinity>  (1) 
-5.10759592

>  <minimizedRMSD>  (1) 
0.578113198

$$$$
