
     RDKit          3D

 29 31  0  0  0  0  0  0  0  0999 V2000
   37.9660   31.0850   41.3600 C   0  0  0  0  0  0  0  0  0  0  0  0
   37.0510   31.7550   40.6020 N   0  0  0  0  0  0  0  0  0  0  0  0
   37.5560   32.8860   40.1890 O   0  0  0  0  0  0  0  0  0  0  0  0
   38.7850   32.9970   40.6460 C   0  0  0  0  0  0  0  0  0  0  0  0
   39.0640   31.8900   41.3790 N   0  0  0  0  0  0  0  0  0  0  0  0
   39.6640   34.0900   40.4130 N   0  0  0  0  0  0  0  0  0  0  0  0
   41.0390   33.8270   40.0550 C   0  0  0  0  0  0  0  0  0  0  0  0
   41.8680   34.8690   40.7740 C   0  0  0  0  0  0  0  0  0  0  0  0
   41.5050   36.1850   40.3620 N   0  0  0  0  0  0  0  0  0  0  0  0
   40.1920   36.3280   39.8150 C   0  0  0  0  0  0  0  0  0  0  0  0
   39.1720   35.4480   40.5380 C   0  0  0  0  0  0  0  0  0  0  0  0
   37.8070   28.1360   43.5780 C   0  0  0  0  0  0  0  0  0  0  0  0
   36.9460   27.3000   42.8400 C   0  0  0  0  0  0  0  0  0  0  0  0
   36.4490   27.7690   41.6110 C   0  0  0  0  0  0  0  0  0  0  0  0
   36.8370   29.0230   41.2070 N   0  0  0  0  0  0  0  0  0  0  0  0
   37.6670   29.7830   41.9550 C   0  0  0  0  0  0  0  0  0  0  0  0
   38.1460   29.3430   43.1290 N   0  0  0  0  0  0  0  0  0  0  0  0
   41.3311   32.8171   40.3788 H   0  0  0  0  0  0  0  0  0  0  0  0
   41.1869   33.8778   38.9662 H   0  0  0  0  0  0  0  0  0  0  0  0
   41.7046   34.7735   41.8576 H   0  0  0  0  0  0  0  0  0  0  0  0
   42.9274   34.7047   40.5277 H   0  0  0  0  0  0  0  0  0  0  0  0
   41.5739   36.8030   41.1831 H   0  0  0  0  0  0  0  0  0  0  0  0
   39.8818   37.3794   39.9060 H   0  0  0  0  0  0  0  0  0  0  0  0
   40.2264   36.0133   38.7615 H   0  0  0  0  0  0  0  0  0  0  0  0
   38.1825   35.5420   40.0667 H   0  0  0  0  0  0  0  0  0  0  0  0
   39.0578   35.7422   41.5918 H   0  0  0  0  0  0  0  0  0  0  0  0
   38.2060   27.7858   44.5414 H   0  0  0  0  0  0  0  0  0  0  0  0
   36.6691   26.3041   43.2162 H   0  0  0  0  0  0  0  0  0  0  0  0
   35.7748   27.1546   40.9963 H   0  0  0  0  0  0  0  0  0  0  0  0
  1  5  1  0
  1 16  1  0
  2  1  2  0
  3  2  1  0
  3  4  1  0
  4  5  2  0
  6 11  1  0
  6  4  1  0
  7  6  1  0
  7  8  1  0
  9  8  1  0
 10  9  1  0
 10 11  1  0
 13 12  2  0
 14 13  1  0
 15 14  2  0
 15 16  1  0
 16 17  2  0
 17 12  1  0
  7 18  1  0
  7 19  1  0
  8 20  1  0
  8 21  1  0
  9 22  1  0
 10 23  1  0
 10 24  1  0
 11 25  1  0
 11 26  1  0
 12 27  1  0
 13 28  1  0
 14 29  1  0
M  ISO  8  18  13  19  13  20  13  21  13  22   5  23  13  24  13  25  13
M  ISO  4  26  13  27  14  28  14  29  14
M  END
>  <minimizedAffinity>  (1) 
-5.66304636

>  <minimizedRMSD>  (1) 
1.48042393

$$$$
