
     RDKit          3D

 28 29  0  0  0  0  0  0  0  0999 V2000
   37.8390   28.0710   43.5700 C   0  0  0  0  0  0  0  0  0  0  0  0
   37.5310   26.7120   43.3840 C   0  0  0  0  0  0  0  0  0  0  0  0
   37.2250   26.3040   42.0700 C   0  0  0  0  0  0  0  0  0  0  0  0
   37.2450   27.2170   41.0910 N   0  0  0  0  0  0  0  0  0  0  0  0
   37.5440   28.5160   41.2960 C   0  0  0  0  0  0  0  0  0  0  0  0
   37.8420   28.9460   42.5400 N   0  0  0  0  0  0  0  0  0  0  0  0
   36.8970   24.9860   41.7170 N   0  0  0  0  0  0  0  0  0  0  0  0
   37.5680   29.4960   40.2630 N   0  0  0  0  0  0  0  0  0  0  0  0
   37.3980   29.0320   39.0080 C   0  0  0  0  0  0  0  0  0  0  0  0
   37.3920   29.8290   37.8770 C   0  0  0  0  0  0  0  0  0  0  0  0
   37.5720   31.1790   38.0740 C   0  0  0  0  0  0  0  0  0  0  0  0
   37.5770   31.9720   37.0840 O   0  0  0  0  0  0  0  0  0  0  0  0
   37.7370   31.6150   39.3280 N   0  0  0  0  0  0  0  0  0  0  0  0
   37.7400   30.8230   40.4080 C   0  0  0  0  0  0  0  0  0  0  0  0
   37.8940   31.2160   41.5850 O   0  0  0  0  0  0  0  0  0  0  0  0
   37.1990   29.2380   36.5290 C   0  0  0  0  0  0  0  0  0  0  0  0
   37.9250   33.0430   39.5160 C   0  0  0  0  0  0  0  0  0  0  0  0
   39.1660   33.4000   38.9750 F   0  0  0  0  0  0  0  0  0  0  0  0
   38.0760   33.2610   40.8880 F   0  0  0  0  0  0  0  0  0  0  0  0
   36.9180   33.8110   39.0240 F   0  0  0  0  0  0  0  0  0  0  0  0
   38.0839   28.4315   44.5800 H   0  0  0  0  0  0  0  0  0  0  0  0
   37.5289   26.0012   44.2235 H   0  0  0  0  0  0  0  0  0  0  0  0
   36.6833   24.7534   40.7366 H   0  0  0  0  0  0  0  0  0  0  0  0
   36.8700   24.2512   42.4383 H   0  0  0  0  0  0  0  0  0  0  0  0
   37.2548   27.9495   38.8750 H   0  0  0  0  0  0  0  0  0  0  0  0
   36.8590   28.1968   36.6304 H   0  0  0  0  0  0  0  0  0  0  0  0
   36.4437   29.8184   35.9789 H   0  0  0  0  0  0  0  0  0  0  0  0
   38.1513   29.2608   35.9789 H   0  0  0  0  0  0  0  0  0  0  0  0
  2  1  2  0
  3  2  1  0
  4  5  1  0
  4  3  2  0
  5  6  2  0
  6  1  1  0
  7  3  1  0
  8 14  1  0
  8  5  1  0
  9  8  1  0
 10 11  1  0
 10  9  2  0
 11 13  1  0
 12 11  2  0
 13 17  1  0
 13 14  1  0
 14 15  2  0
 16 10  1  0
 17 19  1  0
 18 17  1  0
 20 17  1  0
  1 21  1  0
  2 22  1  0
  7 23  1  0
  7 24  1  0
  9 25  1  0
 16 26  1  0
 16 27  1  0
 16 28  1  0
M  ISO  6  21  14  22  14  25  14  26   8  27   8  28   8
M  END
>  <minimizedAffinity>  (1) 
-4.99799347

>  <minimizedRMSD>  (1) 
0.664906919

$$$$
