
     RDKit          3D

 54 58  0  0  1  0  0  0  0  0999 V2000
   38.8890   35.6660   40.0170 C   0  0  0  0  0  0  0  0  0  0  0  0
   40.1770   36.1450   40.3110 C   0  0  0  0  0  0  0  0  0  0  0  0
   41.1190   35.1790   40.7320 C   0  0  0  0  0  0  0  0  0  0  0  0
   40.6880   33.9350   40.8010 N   0  0  0  0  0  0  0  0  0  0  0  0
   39.5000   33.4440   40.5380 C   0  0  0  0  0  0  0  0  0  0  0  0
   38.6220   34.3680   40.1420 N   0  0  0  0  0  0  0  0  0  0  0  0
   38.9240   32.1130   40.5840 C   0  0  0  0  0  0  0  0  0  0  0  0
   38.9100   31.3430   41.6910 N   0  0  0  0  0  0  0  0  0  0  0  0
   38.3940   30.1270   41.7680 C   0  0  0  0  0  0  0  0  0  0  0  0
   37.8340   29.5600   40.7170 N   0  0  0  0  0  0  0  0  0  0  0  0
   37.7820   30.2280   39.5380 C   0  0  0  0  0  0  0  0  0  0  0  0
   37.1960   29.6430   38.4320 C   0  0  0  0  0  0  0  0  0  0  0  0
   37.1320   30.2900   37.2430 C   0  0  0  0  0  0  0  0  0  0  0  0
   37.6840   31.5930   37.1590 C   0  0  0  0  0  0  0  0  0  0  0  0
   38.2490   32.1070   38.3000 C   0  0  0  0  0  0  0  0  0  0  0  0
   38.3300   31.4920   39.5020 C   0  0  0  0  0  0  0  0  0  0  0  0
   42.3540   35.5230   41.0360 O   0  0  0  0  0  0  0  0  0  0  0  0
   42.8850   35.5850   42.3470 C   0  0  2  0  0  0  0  0  0  0  0  0
   42.3770   36.9760   42.8950 C   0  0  0  0  0  0  0  0  0  0  0  0
   44.3720   35.6070   42.3500 C   0  0  0  0  0  0  0  0  0  0  0  0
   44.8120   34.9060   43.5500 N   0  0  0  0  0  0  0  0  0  0  0  0
   45.0060   35.4930   44.7600 C   0  0  0  0  0  0  0  0  0  0  0  0
   45.4100   34.5770   45.6570 N   0  0  0  0  0  0  0  0  0  0  0  0
   45.4650   33.3900   44.9820 C   0  0  0  0  0  0  0  0  0  0  0  0
   45.0960   33.6210   43.7000 N   0  0  0  0  0  0  0  0  0  0  0  0
   45.8390   32.1140   45.4900 N   0  0  0  0  0  0  0  0  0  0  0  0
   44.9390   31.1360   46.0800 C   0  0  0  0  0  0  0  0  0  0  0  0
   45.2750   31.0240   47.5590 C   0  0  0  0  0  0  0  0  0  0  0  0
   46.5780   31.5800   47.8000 N   0  0  0  0  0  0  0  0  0  0  0  0
   47.5630   31.1480   46.8270 C   0  0  0  0  0  0  0  0  0  0  0  0
   47.2330   31.7010   45.4420 C   0  0  0  0  0  0  0  0  0  0  0  0
   38.1041   36.3614   39.6847 H   0  0  0  0  0  0  0  0  0  0  0  0
   40.4370   37.2099   40.2188 H   0  0  0  0  0  0  0  0  0  0  0  0
   38.4326   29.5811   42.7222 H   0  0  0  0  0  0  0  0  0  0  0  0
   36.7727   28.6314   38.5183 H   0  0  0  0  0  0  0  0  0  0  0  0
   36.6644   29.8170   36.3669 H   0  0  0  0  0  0  0  0  0  0  0  0
   37.6607   32.1671   36.2210 H   0  0  0  0  0  0  0  0  0  0  0  0
   38.6776   33.1176   38.2297 H   0  0  0  0  0  0  0  0  0  0  0  0
   42.5741   34.7113   42.9386 H   0  0  0  0  0  0  0  0  0  0  0  0
   42.3825   36.9609   43.9949 H   0  0  0  0  0  0  0  0  0  0  0  0
   43.0409   37.7762   42.5359 H   0  0  0  0  0  0  0  0  0  0  0  0
   41.3537   37.1600   42.5359 H   0  0  0  0  0  0  0  0  0  0  0  0
   44.7581   35.0989   41.4540 H   0  0  0  0  0  0  0  0  0  0  0  0
   44.7468   36.6411   42.3428 H   0  0  0  0  0  0  0  0  0  0  0  0
   44.8546   36.5613   44.9741 H   0  0  0  0  0  0  0  0  0  0  0  0
   43.8967   31.4655   45.9574 H   0  0  0  0  0  0  0  0  0  0  0  0
   45.0559   30.1604   45.5856 H   0  0  0  0  0  0  0  0  0  0  0  0
   44.5269   31.5756   48.1473 H   0  0  0  0  0  0  0  0  0  0  0  0
   45.2687   29.9649   47.8562 H   0  0  0  0  0  0  0  0  0  0  0  0
   46.5091   32.6071   47.7645 H   0  0  0  0  0  0  0  0  0  0  0  0
   48.5556   31.5099   47.1331 H   0  0  0  0  0  0  0  0  0  0  0  0
   47.5550   30.0490   46.7799 H   0  0  0  0  0  0  0  0  0  0  0  0
   47.3738   30.9227   44.6775 H   0  0  0  0  0  0  0  0  0  0  0  0
   47.8910   32.5426   45.1798 H   0  0  0  0  0  0  0  0  0  0  0  0
  1  6  2  0
  1  2  1  0
  2  3  2  0
  3  4  1  0
  3 17  1  0
  5  7  1  0
  5  4  2  0
  6  5  1  0
  7  8  2  0
  8  9  1  0
 10  9  2  0
 11 10  1  0
 12 11  2  0
 13 12  1  0
 14 13  2  0
 14 15  1  0
 15 16  2  0
 16 11  1  0
 16  7  1  0
 17 18  1  0
 18 20  1  0
 18 19  1  0
 20 21  1  0
 21 25  1  0
 21 22  1  0
 22 23  2  0
 24 26  1  0
 24 23  1  0
 25 24  2  0
 26 27  1  0
 27 28  1  0
 28 29  1  0
 30 29  1  0
 31 26  1  0
 31 30  1  0
  1 32  1  0
  2 33  1  0
  9 34  1  0
 12 35  1  0
 13 36  1  0
 14 37  1  0
 15 38  1  0
 18 39  1  1
 19 40  1  0
 19 41  1  0
 19 42  1  0
 20 43  1  0
 20 44  1  0
 22 45  1  0
 27 46  1  0
 27 47  1  0
 28 48  1  0
 28 49  1  0
 29 50  1  0
 30 51  1  0
 30 52  1  0
 31 53  1  0
 31 54  1  0
M  END
>  <minimizedAffinity>  (1) 
-7.4704752

>  <minimizedRMSD>  (1) 
0.85245955

$$$$
