
     RDKit          3D

 54 59  0  0  0  0  0  0  0  0999 V2000
   39.0390   27.6380   43.0320 C   0  0  0  0  0  0  0  0  0  0  0  0
   37.8160   27.0280   43.1540 C   0  0  0  0  0  0  0  0  0  0  0  0
   36.8710   27.9450   42.6850 C   0  0  0  0  0  0  0  0  0  0  0  0
   37.5910   29.0160   42.3240 N   0  0  0  0  0  0  0  0  0  0  0  0
   38.8590   28.8710   42.5130 N   0  0  0  0  0  0  0  0  0  0  0  0
   41.8900   25.2700   43.4100 C   0  0  0  0  0  0  0  0  0  0  0  0
   40.6360   25.7590   43.0320 C   0  0  0  0  0  0  0  0  0  0  0  0
   40.3220   27.0770   43.3930 C   0  0  0  0  0  0  0  0  0  0  0  0
   41.2240   27.8220   44.0830 N   0  0  0  0  0  0  0  0  0  0  0  0
   42.4370   27.2810   44.4230 C   0  0  0  0  0  0  0  0  0  0  0  0
   42.7570   26.0250   44.0870 N   0  0  0  0  0  0  0  0  0  0  0  0
   43.3800   28.1120   45.1630 C   0  0  0  0  0  0  0  0  0  0  0  0
   44.3010   28.9730   44.6050 C   0  0  0  0  0  0  0  0  0  0  0  0
   45.0020   29.5740   45.5850 N   0  0  0  0  0  0  0  0  0  0  0  0
   44.5430   29.1140   46.7560 C   0  0  0  0  0  0  0  0  0  0  0  0
   44.9320   29.4190   48.0450 C   0  0  0  0  0  0  0  0  0  0  0  0
   44.3310   28.8310   49.1470 C   0  0  0  0  0  0  0  0  0  0  0  0
   43.3250   27.9240   48.8780 C   0  0  0  0  0  0  0  0  0  0  0  0
   42.9010   27.5850   47.5990 C   0  0  0  0  0  0  0  0  0  0  0  0
   43.5220   28.1900   46.5320 C   0  0  0  0  0  0  0  0  0  0  0  0
   36.9180   30.1530   41.7990 C   0  0  0  0  0  0  0  0  0  0  0  0
   35.8920   29.8730   40.7450 C   0  0  0  0  0  0  0  0  0  0  0  0
   36.4360   29.7340   39.3780 C   0  0  0  0  0  0  0  0  0  0  0  0
   37.7220   29.9400   38.9650 C   0  0  0  0  0  0  0  0  0  0  0  0
   38.1740   29.8700   37.6800 C   0  0  0  0  0  0  0  0  0  0  0  0
   37.2870   29.5650   36.6690 C   0  0  0  0  0  0  0  0  0  0  0  0
   35.9610   29.3410   37.0190 C   0  0  0  0  0  0  0  0  0  0  0  0
   35.1340   29.0470   35.9670 C   0  0  0  0  0  0  0  0  0  0  0  0
   33.8080   28.8090   36.2110 C   0  0  0  0  0  0  0  0  0  0  0  0
   33.3320   28.8650   37.5010 C   0  0  0  0  0  0  0  0  0  0  0  0
   34.2160   29.1650   38.5010 C   0  0  0  0  0  0  0  0  0  0  0  0
   35.5380   29.4190   38.3420 C   0  0  0  0  0  0  0  0  0  0  0  0
   33.6820   29.1900   39.7820 O   0  0  0  0  0  0  0  0  0  0  0  0
   37.6185   26.0183   43.5434 H   0  0  0  0  0  0  0  0  0  0  0  0
   35.7802   27.8163   42.6255 H   0  0  0  0  0  0  0  0  0  0  0  0
   42.1681   24.2397   43.1433 H   0  0  0  0  0  0  0  0  0  0  0  0
   39.9236   25.1343   42.4733 H   0  0  0  0  0  0  0  0  0  0  0  0
   44.4413   29.1425   43.5272 H   0  0  0  0  0  0  0  0  0  0  0  0
   45.7561   30.2639   45.4570 H   0  0  0  0  0  0  0  0  0  0  0  0
   45.7405   30.1482   48.2017 H   0  0  0  0  0  0  0  0  0  0  0  0
   44.6374   29.0727   50.1755 H   0  0  0  0  0  0  0  0  0  0  0  0
   42.8276   27.4389   49.7308 H   0  0  0  0  0  0  0  0  0  0  0  0
   42.0930   26.8547   47.4448 H   0  0  0  0  0  0  0  0  0  0  0  0
   36.4142   30.6624   42.6337 H   0  0  0  0  0  0  0  0  0  0  0  0
   37.6935   30.7592   41.3079 H   0  0  0  0  0  0  0  0  0  0  0  0
   35.3782   28.9362   41.0067 H   0  0  0  0  0  0  0  0  0  0  0  0
   35.2195   30.7433   40.7258 H   0  0  0  0  0  0  0  0  0  0  0  0
   38.4618   30.1852   39.7412 H   0  0  0  0  0  0  0  0  0  0  0  0
   39.2343   30.0548   37.4526 H   0  0  0  0  0  0  0  0  0  0  0  0
   37.6177   29.5013   35.6218 H   0  0  0  0  0  0  0  0  0  0  0  0
   35.5295   29.0028   34.9415 H   0  0  0  0  0  0  0  0  0  0  0  0
   33.1265   28.5742   35.3801 H   0  0  0  0  0  0  0  0  0  0  0  0
   32.2714   28.6741   37.7217 H   0  0  0  0  0  0  0  0  0  0  0  0
   34.2623   29.3998   40.5562 H   0  0  0  0  0  0  0  0  0  0  0  0
  1  2  1  0
  1  8  1  0
  3  2  2  0
  4  5  1  0
  4  3  1  0
  5  1  2  0
  6 11  2  0
  7  8  2  0
  7  6  1  0
  8  9  1  0
  9 10  2  0
 10 12  1  0
 11 10  1  0
 12 20  1  0
 13 12  2  0
 13 14  1  0
 14 15  1  0
 15 16  2  0
 16 17  1  0
 18 17  2  0
 19 18  1  0
 20 15  1  0
 20 19  2  0
 21  4  1  0
 22 21  1  0
 23 22  1  0
 24 23  2  0
 25 24  1  0
 26 27  1  0
 26 25  2  0
 27 32  2  0
 28 29  2  0
 28 27  1  0
 29 30  1  0
 30 31  2  0
 31 33  1  0
 32 31  1  0
 32 23  1  0
  2 34  1  0
  3 35  1  0
  6 36  1  0
  7 37  1  0
 13 38  1  0
 14 39  1  0
 16 40  1  0
 17 41  1  0
 18 42  1  0
 19 43  1  0
 21 44  1  0
 21 45  1  0
 22 46  1  0
 22 47  1  0
 24 48  1  0
 25 49  1  0
 26 50  1  0
 28 51  1  0
 29 52  1  0
 30 53  1  0
 33 54  1  0
M  END
>  <minimizedAffinity>  (1) 
-7.52319765

>  <minimizedRMSD>  (1) 
2.53683543

$$$$
