
     RDKit          3D

 40 44  0  0  0  0  0  0  0  0999 V2000
   37.2180   29.2810   39.8310 C   0  0  0  0  0  0  0  0  0  0  0  0
   36.3110   29.3250   38.7630 C   0  0  0  0  0  0  0  0  0  0  0  0
   36.4420   30.2050   37.6930 C   0  0  0  0  0  0  0  0  0  0  0  0
   37.5150   31.0280   37.7450 N   0  0  0  0  0  0  0  0  0  0  0  0
   38.3980   31.0150   38.7400 C   0  0  0  0  0  0  0  0  0  0  0  0
   38.2370   30.1540   39.7520 N   0  0  0  0  0  0  0  0  0  0  0  0
   37.2180   28.4850   41.0110 C   0  0  0  0  0  0  0  0  0  0  0  0
   37.3980   29.1840   42.2230 C   0  0  0  0  0  0  0  0  0  0  0  0
   37.4280   28.5870   43.4770 C   0  0  0  0  0  0  0  0  0  0  0  0
   37.2710   27.2130   43.5480 C   0  0  0  0  0  0  0  0  0  0  0  0
   37.0930   26.4860   42.3990 C   0  0  0  0  0  0  0  0  0  0  0  0
   36.9440   25.1140   42.4690 C   0  0  0  0  0  0  0  0  0  0  0  0
   36.7700   24.3230   41.3470 C   0  0  0  0  0  0  0  0  0  0  0  0
   36.7540   25.0170   40.1370 C   0  0  0  0  0  0  0  0  0  0  0  0
   36.9040   26.3720   40.1040 C   0  0  0  0  0  0  0  0  0  0  0  0
   37.0750   27.1460   41.2110 C   0  0  0  0  0  0  0  0  0  0  0  0
   39.5150   31.9550   38.6780 C   0  0  0  0  0  0  0  0  0  0  0  0
   40.6830   31.7170   37.9830 C   0  0  0  0  0  0  0  0  0  0  0  0
   41.4810   32.8080   38.1570 N   0  0  0  0  0  0  0  0  0  0  0  0
   40.8370   33.7000   38.9330 C   0  0  0  0  0  0  0  0  0  0  0  0
   41.2280   34.9620   39.3930 C   0  0  0  0  0  0  0  0  0  0  0  0
   40.3270   35.6260   40.1770 C   0  0  0  0  0  0  0  0  0  0  0  0
   39.0800   35.1780   40.5550 C   0  0  0  0  0  0  0  0  0  0  0  0
   38.7130   33.9190   40.0840 C   0  0  0  0  0  0  0  0  0  0  0  0
   39.5960   33.2090   39.2860 C   0  0  0  0  0  0  0  0  0  0  0  0
   35.4566   28.6322   38.7712 H   0  0  0  0  0  0  0  0  0  0  0  0
   35.7223   30.2300   36.8615 H   0  0  0  0  0  0  0  0  0  0  0  0
   37.5231   30.2757   42.1717 H   0  0  0  0  0  0  0  0  0  0  0  0
   37.5722   29.1881   44.3869 H   0  0  0  0  0  0  0  0  0  0  0  0
   37.2890   26.7058   44.5239 H   0  0  0  0  0  0  0  0  0  0  0  0
   36.9645   24.6309   43.4570 H   0  0  0  0  0  0  0  0  0  0  0  0
   36.6533   23.2307   41.4048 H   0  0  0  0  0  0  0  0  0  0  0  0
   36.6185   24.4634   39.1962 H   0  0  0  0  0  0  0  0  0  0  0  0
   36.8857   26.8700   39.1233 H   0  0  0  0  0  0  0  0  0  0  0  0
   40.9244   30.8167   37.3988 H   0  0  0  0  0  0  0  0  0  0  0  0
   42.4233   32.9302   37.7596 H   0  0  0  0  0  0  0  0  0  0  0  0
   42.2062   35.3956   39.1378 H   0  0  0  0  0  0  0  0  0  0  0  0
   40.6277   36.6186   40.5434 H   0  0  0  0  0  0  0  0  0  0  0  0
   38.4135   35.7789   41.1911 H   0  0  0  0  0  0  0  0  0  0  0  0
   37.7324   33.4930   40.3429 H   0  0  0  0  0  0  0  0  0  0  0  0
  1  7  1  0
  2  1  2  0
  3  4  2  0
  3  2  1  0
  4  5  1  0
  5  6  2  0
  6  1  1  0
  7 16  1  0
  7  8  2  0
  8  9  1  0
  9 10  2  0
 11 12  2  0
 11 10  1  0
 13 12  1  0
 14 13  2  0
 15 14  1  0
 15 16  2  0
 16 11  1  0
 17  5  1  0
 17 25  1  0
 18 19  1  0
 18 17  2  0
 19 20  1  0
 20 25  2  0
 20 21  1  0
 21 22  2  0
 22 23  1  0
 24 23  2  0
 25 24  1  0
  2 26  1  0
  3 27  1  0
  8 28  1  0
  9 29  1  0
 10 30  1  0
 12 31  1  0
 13 32  1  0
 14 33  1  0
 15 34  1  0
 18 35  1  0
 19 36  1  0
 21 37  1  0
 22 38  1  0
 23 39  1  0
 24 40  1  0
M  END
>  <minimizedAffinity>  (1) 
-7.43951845

>  <minimizedRMSD>  (1) 
1.86954856

$$$$
