
     RDKit          3D

 53 58  0  0  0  0  0  0  0  0999 V2000
   37.3890   29.1830   37.3620 C   0  0  0  0  0  0  0  0  0  0  0  0
   38.7640   29.3320   37.4520 C   0  0  0  0  0  0  0  0  0  0  0  0
   39.7150   28.4520   37.0290 C   0  0  0  0  0  0  0  0  0  0  0  0
   39.3170   27.2730   36.4440 C   0  0  0  0  0  0  0  0  0  0  0  0
   37.9540   27.0480   36.3190 C   0  0  0  0  0  0  0  0  0  0  0  0
   37.6400   25.8550   35.7320 C   0  0  0  0  0  0  0  0  0  0  0  0
   36.3280   25.5280   35.5620 C   0  0  0  0  0  0  0  0  0  0  0  0
   35.3550   26.4160   35.9890 C   0  0  0  0  0  0  0  0  0  0  0  0
   35.7440   27.6080   36.5760 C   0  0  0  0  0  0  0  0  0  0  0  0
   37.0410   27.9710   36.7630 C   0  0  0  0  0  0  0  0  0  0  0  0
   34.5360   28.3270   36.9370 C   0  0  0  0  0  0  0  0  0  0  0  0
   34.0660   28.2820   38.2750 C   0  0  0  0  0  0  0  0  0  0  0  0
   32.9040   28.9410   38.4390 N   0  0  0  0  0  0  0  0  0  0  0  0
   32.5480   29.4450   37.2440 C   0  0  0  0  0  0  0  0  0  0  0  0
   31.5010   30.1860   36.7400 C   0  0  0  0  0  0  0  0  0  0  0  0
   31.4660   30.5210   35.3990 C   0  0  0  0  0  0  0  0  0  0  0  0
   32.4640   30.1360   34.5210 C   0  0  0  0  0  0  0  0  0  0  0  0
   33.5300   29.3970   34.9680 C   0  0  0  0  0  0  0  0  0  0  0  0
   33.5110   29.0900   36.3270 C   0  0  0  0  0  0  0  0  0  0  0  0
   36.3460   30.1340   37.7650 C   0  0  0  0  0  0  0  0  0  0  0  0
   36.6490   30.8320   39.0800 C   0  0  0  0  0  0  0  0  0  0  0  0
   37.8540   28.7430   41.6580 C   0  0  0  0  0  0  0  0  0  0  0  0
   36.5010   28.5650   41.8030 C   0  0  0  0  0  0  0  0  0  0  0  0
   35.9090   29.3510   40.8170 C   0  0  0  0  0  0  0  0  0  0  0  0
   36.9350   29.9450   40.1500 N   0  0  0  0  0  0  0  0  0  0  0  0
   38.0590   29.5870   40.6430 N   0  0  0  0  0  0  0  0  0  0  0  0
   39.6280   26.4610   44.0170 C   0  0  0  0  0  0  0  0  0  0  0  0
   38.5990   27.0130   43.2460 C   0  0  0  0  0  0  0  0  0  0  0  0
   38.8890   28.1380   42.4620 C   0  0  0  0  0  0  0  0  0  0  0  0
   40.1380   28.6570   42.4690 N   0  0  0  0  0  0  0  0  0  0  0  0
   41.1110   28.0850   43.2380 C   0  0  0  0  0  0  0  0  0  0  0  0
   40.8570   27.0060   43.9970 N   0  0  0  0  0  0  0  0  0  0  0  0
   39.1272   30.2613   37.9151 H   0  0  0  0  0  0  0  0  0  0  0  0
   40.7836   28.6813   37.1536 H   0  0  0  0  0  0  0  0  0  0  0  0
   40.0520   26.5358   36.0884 H   0  0  0  0  0  0  0  0  0  0  0  0
   38.4339   25.1690   35.4017 H   0  0  0  0  0  0  0  0  0  0  0  0
   36.0463   24.5737   35.0930 H   0  0  0  0  0  0  0  0  0  0  0  0
   34.2885   26.1778   35.8636 H   0  0  0  0  0  0  0  0  0  0  0  0
   34.5939   27.7647   39.0897 H   0  0  0  0  0  0  0  0  0  0  0  0
   32.3815   29.0413   39.3209 H   0  0  0  0  0  0  0  0  0  0  0  0
   30.6898   30.5123   37.4074 H   0  0  0  0  0  0  0  0  0  0  0  0
   30.6194   31.1113   35.0186 H   0  0  0  0  0  0  0  0  0  0  0  0
   32.4024   30.4235   33.4610 H   0  0  0  0  0  0  0  0  0  0  0  0
   34.3416   29.0702   34.3013 H   0  0  0  0  0  0  0  0  0  0  0  0
   36.2459   30.8970   36.9790 H   0  0  0  0  0  0  0  0  0  0  0  0
   35.4174   29.5612   37.9051 H   0  0  0  0  0  0  0  0  0  0  0  0
   37.5198   31.4874   38.9314 H   0  0  0  0  0  0  0  0  0  0  0  0
   35.7434   31.3895   39.3612 H   0  0  0  0  0  0  0  0  0  0  0  0
   35.9900   27.9328   42.5441 H   0  0  0  0  0  0  0  0  0  0  0  0
   34.8333   29.4674   40.6186 H   0  0  0  0  0  0  0  0  0  0  0  0
   39.4307   25.5776   44.6420 H   0  0  0  0  0  0  0  0  0  0  0  0
   37.5897   26.5758   43.2550 H   0  0  0  0  0  0  0  0  0  0  0  0
   42.1229   28.5164   43.2359 H   0  0  0  0  0  0  0  0  0  0  0  0
  1  2  2  0
  1 20  1  0
  3  2  1  0
  4  3  2  0
  5  4  1  0
  5 10  2  0
  6  5  1  0
  7  6  2  0
  7  8  1  0
  8  9  2  0
  9 10  1  0
  9 11  1  0
 10  1  1  0
 11 12  2  0
 12 13  1  0
 14 13  1  0
 15 14  2  0
 16 15  1  0
 17 18  1  0
 17 16  2  0
 18 19  2  0
 19 11  1  0
 19 14  1  0
 20 21  1  0
 21 25  1  0
 22 23  1  0
 22 29  1  0
 24 23  2  0
 25 26  1  0
 25 24  1  0
 26 22  2  0
 28 27  2  0
 29 30  2  0
 29 28  1  0
 30 31  1  0
 31 32  2  0
 32 27  1  0
  2 33  1  0
  3 34  1  0
  4 35  1  0
  6 36  1  0
  7 37  1  0
  8 38  1  0
 12 39  1  0
 13 40  1  0
 15 41  1  0
 16 42  1  0
 17 43  1  0
 18 44  1  0
 20 45  1  0
 20 46  1  0
 21 47  1  0
 21 48  1  0
 23 49  1  0
 24 50  1  0
 27 51  1  0
 28 52  1  0
 31 53  1  0
M  ISO  8  33  14  34  14  35  14  36  14  37  14  38  14  39  14  40   9
M  ISO  8  41  14  42  14  43  14  44  14  45   8  46   8  47   8  48   8
M  ISO  5  49  14  50  14  51  14  52  14  53  14
M  END
>  <minimizedAffinity>  (1) 
-5.8317709

>  <minimizedRMSD>  (1) 
3.12465262

$$$$
