
     RDKit          3D

 37 41  0  0  0  0  0  0  0  0999 V2000
   38.2140   31.1620   40.9580 C   0  0  0  0  0  0  0  0  0  0  0  0
   39.5470   31.6170   40.7010 C   0  0  0  0  0  0  0  0  0  0  0  0
   39.7390   32.7990   40.0430 C   0  0  0  0  0  0  0  0  0  0  0  0
   38.6200   33.5010   39.6540 N   0  0  0  0  0  0  0  0  0  0  0  0
   37.3590   33.0530   39.9070 C   0  0  0  0  0  0  0  0  0  0  0  0
   37.1550   31.8720   40.5660 N   0  0  0  0  0  0  0  0  0  0  0  0
   40.6140   30.7450   41.1480 C   0  0  0  0  0  0  0  0  0  0  0  0
   41.2100   29.8470   40.1940 C   0  0  0  0  0  0  0  0  0  0  0  0
   42.4970   28.9410   41.1780 S   0  0  0  0  0  0  0  0  0  0  0  0
   41.9700   29.9750   42.7280 C   0  0  0  0  0  0  0  0  0  0  0  0
   41.1530   30.6320   42.3470 N   0  0  0  0  0  0  0  0  0  0  0  0
   41.0240   33.4140   39.7420 C   0  0  0  0  0  0  0  0  0  0  0  0
   41.7300   33.9200   38.7580 N   0  0  0  0  0  0  0  0  0  0  0  0
   42.8770   34.3250   39.1350 O   0  0  0  0  0  0  0  0  0  0  0  0
   43.0560   34.1350   40.3900 C   0  0  0  0  0  0  0  0  0  0  0  0
   41.9140   33.5790   40.7360 N   0  0  0  0  0  0  0  0  0  0  0  0
   44.0910   34.3530   41.4220 C   0  0  0  0  0  0  0  0  0  0  0  0
   45.2700   33.6110   41.4950 C   0  0  0  0  0  0  0  0  0  0  0  0
   46.2040   33.8400   42.4620 C   0  0  0  0  0  0  0  0  0  0  0  0
   46.0320   34.8140   43.4150 C   0  0  0  0  0  0  0  0  0  0  0  0
   44.8770   35.5510   43.3550 C   0  0  0  0  0  0  0  0  0  0  0  0
   44.7270   36.5190   44.3200 C   0  0  0  0  0  0  0  0  0  0  0  0
   43.6150   37.3160   44.3600 C   0  0  0  0  0  0  0  0  0  0  0  0
   42.6670   37.1020   43.3980 C   0  0  0  0  0  0  0  0  0  0  0  0
   42.8370   36.1300   42.4460 C   0  0  0  0  0  0  0  0  0  0  0  0
   43.9370   35.3120   42.3740 C   0  0  0  0  0  0  0  0  0  0  0  0
   38.0605   30.2104   41.4879 H   0  0  0  0  0  0  0  0  0  0  0  0
   36.4945   33.6480   39.5775 H   0  0  0  0  0  0  0  0  0  0  0  0
   40.9608   29.7258   39.1295 H   0  0  0  0  0  0  0  0  0  0  0  0
   42.3808   29.9259   43.7472 H   0  0  0  0  0  0  0  0  0  0  0  0
   45.4512   32.8198   40.7526 H   0  0  0  0  0  0  0  0  0  0  0  0
   47.1185   33.2290   42.4792 H   0  0  0  0  0  0  0  0  0  0  0  0
   46.7882   34.9952   44.1930 H   0  0  0  0  0  0  0  0  0  0  0  0
   45.5159   36.6555   45.0743 H   0  0  0  0  0  0  0  0  0  0  0  0
   43.4898   38.0919   45.1296 H   0  0  0  0  0  0  0  0  0  0  0  0
   41.7557   37.7180   43.3878 H   0  0  0  0  0  0  0  0  0  0  0  0
   42.0443   35.9978   41.6949 H   0  0  0  0  0  0  0  0  0  0  0  0
  2  1  2  0
  2  7  1  0
  3  2  1  0
  4  5  1  0
  4  3  2  0
  5  6  2  0
  6  1  1  0
  7 11  1  0
  8  7  2  0
  8  9  1  0
  9 10  1  0
 11 10  2  0
 12  3  1  0
 12 16  1  0
 13 14  1  0
 13 12  2  0
 14 15  1  0
 15 16  2  0
 15 17  1  0
 17 18  2  0
 17 26  1  0
 18 19  1  0
 19 20  2  0
 21 20  1  0
 21 22  2  0
 22 23  1  0
 24 23  2  0
 25 24  1  0
 26 25  2  0
 26 21  1  0
  1 27  1  0
  5 28  1  0
  8 29  1  0
 10 30  1  0
 18 31  1  0
 19 32  1  0
 20 33  1  0
 22 34  1  0
 23 35  1  0
 24 36  1  0
 25 37  1  0
M  ISO  8  27  14  28  14  29  14  30  14  31  14  32  14  33  14  34  14
M  ISO  3  35  14  36  14  37  14
M  END
>  <minimizedAffinity>  (1) 
-6.1877203

>  <minimizedRMSD>  (1) 
3.90817285

$$$$
