
     RDKit          3D

 46 50  0  0  0  0  0  0  0  0999 V2000
   36.8940   31.4430   40.4050 C   0  0  0  0  0  0  0  0  0  0  0  0
   36.9460   31.7340   39.0540 N   0  0  0  0  0  0  0  0  0  0  0  0
   37.7900   32.7230   38.8800 O   0  0  0  0  0  0  0  0  0  0  0  0
   38.2590   33.0500   40.0760 C   0  0  0  0  0  0  0  0  0  0  0  0
   37.7310   32.2870   41.0310 N   0  0  0  0  0  0  0  0  0  0  0  0
   39.2290   34.1170   40.2730 C   0  0  0  0  0  0  0  0  0  0  0  0
   39.0350   35.4670   40.1580 C   0  0  0  0  0  0  0  0  0  0  0  0
   40.2250   36.1140   40.4310 C   0  0  0  0  0  0  0  0  0  0  0  0
   41.1240   35.1350   40.7100 C   0  0  0  0  0  0  0  0  0  0  0  0
   40.4770   34.0350   40.5970 O   0  0  0  0  0  0  0  0  0  0  0  0
   42.5200   35.0410   41.0650 C   0  0  0  0  0  0  0  0  0  0  0  0
   43.3420   34.1500   40.3640 C   0  0  0  0  0  0  0  0  0  0  0  0
   44.6800   33.9750   40.6280 C   0  0  0  0  0  0  0  0  0  0  0  0
   45.3010   34.6790   41.6180 C   0  0  0  0  0  0  0  0  0  0  0  0
   44.5430   35.5690   42.3440 C   0  0  0  0  0  0  0  0  0  0  0  0
   45.1490   36.2640   43.3630 C   0  0  0  0  0  0  0  0  0  0  0  0
   44.4480   37.1500   44.1550 C   0  0  0  0  0  0  0  0  0  0  0  0
   43.0890   37.2870   43.8500 C   0  0  0  0  0  0  0  0  0  0  0  0
   42.5340   36.5740   42.8260 C   0  0  0  0  0  0  0  0  0  0  0  0
   43.2130   35.7010   42.0350 C   0  0  0  0  0  0  0  0  0  0  0  0
   36.1500   30.4800   41.1000 O   0  0  0  0  0  0  0  0  0  0  0  0
   38.1050   28.2760   43.2060 C   0  0  0  0  0  0  0  0  0  0  0  0
   37.8970   27.0560   42.4880 C   0  0  0  0  0  0  0  0  0  0  0  0
   37.1070   27.1050   41.3560 C   0  0  0  0  0  0  0  0  0  0  0  0
   36.5810   28.2960   40.9920 N   0  0  0  0  0  0  0  0  0  0  0  0
   36.7810   29.4210   41.6630 C   0  0  0  0  0  0  0  0  0  0  0  0
   37.5510   29.4250   42.7850 N   0  0  0  0  0  0  0  0  0  0  0  0
   36.9660   25.8160   40.7150 C   0  0  0  0  0  0  0  0  0  0  0  0
   37.0180   24.6410   41.6020 C   0  0  0  0  0  0  0  0  0  0  0  0
   37.8090   23.2090   40.7800 S   0  0  0  0  0  0  0  0  0  0  0  0
   38.0867   35.9568   39.8918 H   0  0  0  0  0  0  0  0  0  0  0  0
   40.4068   37.1988   40.4238 H   0  0  0  0  0  0  0  0  0  0  0  0
   42.8913   33.5558   39.5555 H   0  0  0  0  0  0  0  0  0  0  0  0
   45.2594   33.2554   40.0310 H   0  0  0  0  0  0  0  0  0  0  0  0
   46.3716   34.5399   41.8288 H   0  0  0  0  0  0  0  0  0  0  0  0
   46.2216   36.1098   43.5523 H   0  0  0  0  0  0  0  0  0  0  0  0
   44.9254   37.7113   44.9717 H   0  0  0  0  0  0  0  0  0  0  0  0
   42.4635   37.9738   44.4392 H   0  0  0  0  0  0  0  0  0  0  0  0
   41.4615   36.7160   42.6270 H   0  0  0  0  0  0  0  0  0  0  0  0
   38.7262   28.2730   44.1138 H   0  0  0  0  0  0  0  0  0  0  0  0
   38.3503   26.1123   42.8256 H   0  0  0  0  0  0  0  0  0  0  0  0
   35.9958   25.8029   40.1967 H   0  0  0  0  0  0  0  0  0  0  0  0
   37.8359   25.7212   40.0484 H   0  0  0  0  0  0  0  0  0  0  0  0
   37.5948   24.8989   42.5024 H   0  0  0  0  0  0  0  0  0  0  0  0
   35.9866   24.3611   41.8624 H   0  0  0  0  0  0  0  0  0  0  0  0
   38.2867   22.3442   41.7291 H   0  0  0  0  0  0  0  0  0  0  0  0
  1  5  1  0
  1 21  1  0
  2  1  2  0
  3  2  1  0
  3  4  1  0
  4  6  1  0
  4  5  2  0
  6 10  1  0
  7  6  2  0
  7  8  1  0
  8  9  2  0
  9 11  1  0
 10  9  1  0
 11 20  2  0
 12 13  2  0
 12 11  1  0
 13 14  1  0
 14 15  2  0
 15 16  1  0
 16 17  2  0
 18 17  1  0
 19 18  2  0
 20 15  1  0
 20 19  1  0
 21 26  1  0
 23 22  2  0
 24 23  1  0
 25 24  2  0
 25 26  1  0
 26 27  2  0
 27 22  1  0
 28 24  1  0
 28 29  1  0
 30 29  1  0
  7 31  1  0
  8 32  1  0
 12 33  1  0
 13 34  1  0
 14 35  1  0
 16 36  1  0
 17 37  1  0
 18 38  1  0
 19 39  1  0
 22 40  1  0
 23 41  1  0
 28 42  1  0
 28 43  1  0
 29 44  1  0
 29 45  1  0
 30 46  1  0
M  END
>  <minimizedAffinity>  (1) 
-7.70404863

>  <minimizedRMSD>  (1) 
1.64562571

$$$$
