
     RDKit          3D

 38 41  0  0  0  0  0  0  0  0999 V2000
   37.9680   29.3210   39.7760 C   0  0  0  0  0  0  0  0  0  0  0  0
   37.3960   29.6960   40.9970 C   0  0  0  0  0  0  0  0  0  0  0  0
   36.7250   30.9420   41.0550 C   0  0  0  0  0  0  0  0  0  0  0  0
   36.6800   31.6900   39.9200 N   0  0  0  0  0  0  0  0  0  0  0  0
   37.2470   31.2880   38.7570 C   0  0  0  0  0  0  0  0  0  0  0  0
   37.8930   30.0960   38.6890 N   0  0  0  0  0  0  0  0  0  0  0  0
   37.4210   28.9050   42.1610 N   0  0  0  0  0  0  0  0  0  0  0  0
   38.4160   28.8920   43.2000 C   0  0  0  0  0  0  0  0  0  0  0  0
   38.4050   27.4550   43.6740 C   0  0  0  0  0  0  0  0  0  0  0  0
   37.2430   26.7860   43.0080 C   0  0  0  0  0  0  0  0  0  0  0  0
   36.4140   27.9340   42.5550 C   0  0  0  0  0  0  0  0  0  0  0  0
   38.6670   28.0550   39.6340 C   0  0  0  0  0  0  0  0  0  0  0  0
   40.0500   28.1990   39.8070 C   0  0  0  0  0  0  0  0  0  0  0  0
   40.9080   27.1190   39.6700 C   0  0  0  0  0  0  0  0  0  0  0  0
   40.3830   25.8650   39.3550 C   0  0  0  0  0  0  0  0  0  0  0  0
   39.0170   25.7320   39.1860 C   0  0  0  0  0  0  0  0  0  0  0  0
   38.4070   24.5430   38.8860 C   0  0  0  0  0  0  0  0  0  0  0  0
   37.0270   24.3970   38.7260 C   0  0  0  0  0  0  0  0  0  0  0  0
   36.2480   25.5430   38.8840 C   0  0  0  0  0  0  0  0  0  0  0  0
   36.7990   26.7710   39.1860 C   0  0  0  0  0  0  0  0  0  0  0  0
   38.1780   26.8130   39.3250 C   0  0  0  0  0  0  0  0  0  0  0  0
   36.2563   31.2927   41.9863 H   0  0  0  0  0  0  0  0  0  0  0  0
   37.1837   31.9292   37.8655 H   0  0  0  0  0  0  0  0  0  0  0  0
   39.4039   29.1685   42.8031 H   0  0  0  0  0  0  0  0  0  0  0  0
   38.2077   29.6125   44.0047 H   0  0  0  0  0  0  0  0  0  0  0  0
   39.3429   26.9557   43.3894 H   0  0  0  0  0  0  0  0  0  0  0  0
   38.3148   27.4024   44.7690 H   0  0  0  0  0  0  0  0  0  0  0  0
   37.5736   26.1755   42.1548 H   0  0  0  0  0  0  0  0  0  0  0  0
   36.7021   26.0940   43.6702 H   0  0  0  0  0  0  0  0  0  0  0  0
   35.7866   28.3196   43.3721 H   0  0  0  0  0  0  0  0  0  0  0  0
   35.7090   27.6785   41.7502 H   0  0  0  0  0  0  0  0  0  0  0  0
   40.4626   29.1878   40.0562 H   0  0  0  0  0  0  0  0  0  0  0  0
   41.9915   27.2491   39.8082 H   0  0  0  0  0  0  0  0  0  0  0  0
   41.0463   24.9947   39.2427 H   0  0  0  0  0  0  0  0  0  0  0  0
   39.0402   23.6518   38.7640 H   0  0  0  0  0  0  0  0  0  0  0  0
   36.5755   23.4230   38.4864 H   0  0  0  0  0  0  0  0  0  0  0  0
   35.1574   25.4650   38.7637 H   0  0  0  0  0  0  0  0  0  0  0  0
   36.1771   27.6698   39.3101 H   0  0  0  0  0  0  0  0  0  0  0  0
  1  2  1  0
  2  3  2  0
  2  7  1  0
  4  3  1  0
  5  4  2  0
  6  5  1  0
  6  1  2  0
  7 11  1  0
  7  8  1  0
  8  9  1  0
 10  9  1  0
 11 10  1  0
 12  1  1  0
 12 13  2  0
 14 13  1  0
 15 14  2  0
 16 21  2  0
 16 15  1  0
 17 16  1  0
 18 19  1  0
 18 17  2  0
 19 20  2  0
 20 21  1  0
 21 12  1  0
  3 22  1  0
  5 23  1  0
  8 24  1  0
  8 25  1  0
  9 26  1  0
  9 27  1  0
 10 28  1  0
 10 29  1  0
 11 30  1  0
 11 31  1  0
 13 32  1  0
 14 33  1  0
 15 34  1  0
 17 35  1  0
 18 36  1  0
 19 37  1  0
 20 38  1  0
M  ISO  8  22  14  23  14  24  13  25  13  26  13  27  13  28  13  29  13
M  ISO  8  30  13  31  13  32  14  33  14  34  14  35  14  36  14  37  14
M  ISO  1  38  14
M  END
>  <minimizedAffinity>  (1) 
-4.55036783

>  <minimizedRMSD>  (1) 
5.4041276

$$$$
