
     RDKit          3D

 48 53  0  0  1  0  0  0  0  0999 V2000
   39.9170   26.5620   43.9690 C   0  0  2  0  0  0  0  0  0  0  0  0
   41.0980   26.1130   43.0940 C   0  0  0  0  0  0  0  0  0  0  0  0
   39.9110   25.2310   43.2710 C   0  0  2  0  0  0  0  0  0  0  0  0
   38.9620   24.9910   42.1520 C   0  0  0  0  0  0  0  0  0  0  0  0
   38.0940   23.9220   42.2260 C   0  0  0  0  0  0  0  0  0  0  0  0
   37.2800   23.7940   41.1210 C   0  0  0  0  0  0  0  0  0  0  0  0
   37.2750   24.5890   40.0490 N   0  0  0  0  0  0  0  0  0  0  0  0
   38.1430   25.6300   40.0150 C   0  0  0  0  0  0  0  0  0  0  0  0
   38.9410   25.7700   41.0740 N   0  0  0  0  0  0  0  0  0  0  0  0
   38.3700   26.6610   39.0020 C   0  0  0  0  0  0  0  0  0  0  0  0
   39.5600   26.7740   38.2890 C   0  0  0  0  0  0  0  0  0  0  0  0
   39.7920   27.7320   37.3380 C   0  0  0  0  0  0  0  0  0  0  0  0
   38.8290   28.6620   37.0300 C   0  0  0  0  0  0  0  0  0  0  0  0
   37.6340   28.5970   37.7040 C   0  0  0  0  0  0  0  0  0  0  0  0
   36.6940   29.5470   37.3680 C   0  0  0  0  0  0  0  0  0  0  0  0
   35.4700   29.5460   38.0030 C   0  0  0  0  0  0  0  0  0  0  0  0
   35.2500   28.5630   38.9700 C   0  0  0  0  0  0  0  0  0  0  0  0
   36.2260   27.6530   39.2520 C   0  0  0  0  0  0  0  0  0  0  0  0
   37.4610   27.6120   38.6480 C   0  0  0  0  0  0  0  0  0  0  0  0
   38.4530   29.4570   42.4470 C   0  0  0  0  0  0  0  0  0  0  0  0
   37.3320   28.9270   43.1110 C   0  0  0  0  0  0  0  0  0  0  0  0
   37.7860   27.7820   43.7480 C   0  0  0  0  0  0  0  0  0  0  0  0
   39.1020   27.6530   43.4690 N   0  0  0  0  0  0  0  0  0  0  0  0
   39.5140   28.6550   42.6860 N   0  0  0  0  0  0  0  0  0  0  0  0
   37.0740   32.0260   40.2220 C   0  0  0  0  0  0  0  0  0  0  0  0
   38.0950   32.9820   40.1730 C   0  0  0  0  0  0  0  0  0  0  0  0
   39.2680   32.7370   40.9170 C   0  0  0  0  0  0  0  0  0  0  0  0
   39.3560   31.5930   41.6420 N   0  0  0  0  0  0  0  0  0  0  0  0
   38.3370   30.6810   41.6630 C   0  0  0  0  0  0  0  0  0  0  0  0
   37.1840   30.9030   40.9460 N   0  0  0  0  0  0  0  0  0  0  0  0
   39.7640   26.8834   45.0098 H   0  0  0  0  0  0  0  0  0  0  0  0
   42.0582   25.8451   43.5591 H   0  0  0  0  0  0  0  0  0  0  0  0
   41.6354   26.5348   42.2319 H   0  0  0  0  0  0  0  0  0  0  0  0
   39.7820   24.1873   43.5937 H   0  0  0  0  0  0  0  0  0  0  0  0
   38.0549   23.2364   43.0854 H   0  0  0  0  0  0  0  0  0  0  0  0
   36.5665   22.9568   41.1229 H   0  0  0  0  0  0  0  0  0  0  0  0
   40.3615   26.0513   38.5018 H   0  0  0  0  0  0  0  0  0  0  0  0
   40.7596   27.7570   36.8154 H   0  0  0  0  0  0  0  0  0  0  0  0
   39.0092   29.4343   36.2677 H   0  0  0  0  0  0  0  0  0  0  0  0
   36.9185   30.3006   36.5988 H   0  0  0  0  0  0  0  0  0  0  0  0
   34.6977   30.2899   37.7576 H   0  0  0  0  0  0  0  0  0  0  0  0
   34.2894   28.5225   39.5044 H   0  0  0  0  0  0  0  0  0  0  0  0
   36.0093   26.8955   40.0196 H   0  0  0  0  0  0  0  0  0  0  0  0
   36.3105   29.3348   43.1225 H   0  0  0  0  0  0  0  0  0  0  0  0
   37.1839   27.1017   44.3682 H   0  0  0  0  0  0  0  0  0  0  0  0
   36.1520   32.2016   39.6483 H   0  0  0  0  0  0  0  0  0  0  0  0
   37.9859   33.8970   39.5723 H   0  0  0  0  0  0  0  0  0  0  0  0
   40.0968   33.4603   40.9098 H   0  0  0  0  0  0  0  0  0  0  0  0
  2  3  1  0
  2  1  1  0
  3  1  1  0
  4  5  2  0
  4  3  1  0
  6  5  1  0
  7  6  2  0
  8  7  1  0
  8  9  2  0
  9  4  1  0
 10  8  1  0
 11 10  2  0
 12 11  1  0
 13 12  2  0
 13 14  1  0
 14 19  2  0
 15 14  1  0
 15 16  2  0
 16 17  1  0
 17 18  2  0
 19 10  1  0
 19 18  1  0
 20 24  2  0
 20 21  1  0
 21 22  2  0
 23 22  1  0
 23  1  1  0
 24 23  1  0
 25 30  2  0
 26 25  1  0
 26 27  2  0
 27 28  1  0
 28 29  2  0
 29 20  1  0
 30 29  1  0
  1 31  1  1
  2 32  1  0
  2 33  1  0
  3 34  1  1
  5 35  1  0
  6 36  1  0
 11 37  1  0
 12 38  1  0
 13 39  1  0
 15 40  1  0
 16 41  1  0
 17 42  1  0
 18 43  1  0
 21 44  1  0
 22 45  1  0
 25 46  1  0
 26 47  1  0
 27 48  1  0
M  ISO  8  31  13  32  13  33  13  34  13  35  14  36  14  37  14  38  14
M  ISO  8  39  14  40  14  41  14  42  14  43  14  44  14  45  14  46  14
M  ISO  2  47  14  48  14
M  END
>  <minimizedAffinity>  (1) 
-6.51306438

>  <minimizedRMSD>  (1) 
1.35776603

$$$$
