
     RDKit          3D

 39 42  0  0  1  0  0  0  0  0999 V2000
   38.3850   30.0190   39.0100 C   0  0  1  0  0  0  0  0  0  0  0  0
   37.0040   29.4820   38.7700 C   0  0  0  0  0  0  0  0  0  0  0  0
   36.7130   30.1070   37.4080 C   0  0  0  0  0  0  0  0  0  0  0  0
   37.3930   31.4780   37.4980 C   0  0  0  0  0  0  0  0  0  0  0  0
   38.1870   31.4830   38.8000 C   0  0  2  0  0  0  0  0  0  0  0  0
   39.4400   32.1690   38.5440 C   0  0  0  0  0  0  0  0  0  0  0  0
   40.4650   31.8090   37.7030 C   0  0  0  0  0  0  0  0  0  0  0  0
   41.6420   32.4970   37.5040 C   0  0  0  0  0  0  0  0  0  0  0  0
   41.8500   33.6650   38.2000 C   0  0  0  0  0  0  0  0  0  0  0  0
   40.8660   34.0880   39.0620 C   0  0  0  0  0  0  0  0  0  0  0  0
   41.1420   35.2670   39.7220 C   0  0  0  0  0  0  0  0  0  0  0  0
   40.2160   35.7750   40.6050 C   0  0  0  0  0  0  0  0  0  0  0  0
   39.0510   35.0960   40.8010 C   0  0  0  0  0  0  0  0  0  0  0  0
   38.8280   33.9250   40.1160 C   0  0  0  0  0  0  0  0  0  0  0  0
   39.7010   33.3530   39.2200 C   0  0  0  0  0  0  0  0  0  0  0  0
   38.7510   29.8560   42.6780 C   0  0  0  0  0  0  0  0  0  0  0  0
   39.8160   28.9070   42.8260 C   0  0  0  0  0  0  0  0  0  0  0  0
   40.3870   28.3530   41.6680 C   0  0  0  0  0  0  0  0  0  0  0  0
   39.9100   28.7350   40.4720 N   0  0  0  0  0  0  0  0  0  0  0  0
   38.8970   29.6380   40.3520 C   0  0  0  0  0  0  0  0  0  0  0  0
   38.3310   30.1880   41.4490 N   0  0  0  0  0  0  0  0  0  0  0  0
   39.1643   29.6152   38.3470 H   0  0  0  0  0  0  0  0  0  0  0  0
   36.9948   28.3829   38.7257 H   0  0  0  0  0  0  0  0  0  0  0  0
   36.2709   29.7179   39.5555 H   0  0  0  0  0  0  0  0  0  0  0  0
   35.6302   30.2138   37.2465 H   0  0  0  0  0  0  0  0  0  0  0  0
   37.0790   29.4988   36.5677 H   0  0  0  0  0  0  0  0  0  0  0  0
   38.0671   31.6248   36.6413 H   0  0  0  0  0  0  0  0  0  0  0  0
   36.6524   32.2912   37.4806 H   0  0  0  0  0  0  0  0  0  0  0  0
   37.7246   31.9807   39.6651 H   0  0  0  0  0  0  0  0  0  0  0  0
   40.3328   30.8785   37.1314 H   0  0  0  0  0  0  0  0  0  0  0  0
   42.4004   32.1196   36.8023 H   0  0  0  0  0  0  0  0  0  0  0  0
   42.7765   34.2437   38.0707 H   0  0  0  0  0  0  0  0  0  0  0  0
   42.0906   35.7951   39.5450 H   0  0  0  0  0  0  0  0  0  0  0  0
   40.4133   36.7137   41.1435 H   0  0  0  0  0  0  0  0  0  0  0  0
   38.2954   35.4815   41.5013 H   0  0  0  0  0  0  0  0  0  0  0  0
   37.8764   33.4044   40.2989 H   0  0  0  0  0  0  0  0  0  0  0  0
   38.2829   30.3075   43.5651 H   0  0  0  0  0  0  0  0  0  0  0  0
   40.1778   28.6192   43.8241 H   0  0  0  0  0  0  0  0  0  0  0  0
   41.2065   27.6227   41.7393 H   0  0  0  0  0  0  0  0  0  0  0  0
  1 20  1  0
  2  1  1  0
  3  4  1  0
  3  2  1  0
  4  5  1  0
  5  1  1  0
  6  5  1  0
  6 15  1  0
  7  6  2  0
  8  7  1  0
  8  9  2  0
  9 10  1  0
 10 15  2  0
 10 11  1  0
 11 12  2  0
 12 13  1  0
 14 13  2  0
 15 14  1  0
 16 17  2  0
 18 17  1  0
 19 18  2  0
 20 19  1  0
 20 21  2  0
 21 16  1  0
  1 22  1  6
  2 23  1  0
  2 24  1  0
  3 25  1  0
  3 26  1  0
  4 27  1  0
  4 28  1  0
  5 29  1  1
  7 30  1  0
  8 31  1  0
  9 32  1  0
 11 33  1  0
 12 34  1  0
 13 35  1  0
 14 36  1  0
 16 37  1  0
 17 38  1  0
 18 39  1  0
M  ISO  8  22  13  23  13  24  13  25  13  26  13  27  13  28  13  29  13
M  ISO  8  30  14  31  14  32  14  33  14  34  14  35  14  36  14  37  14
M  ISO  2  38  14  39  14
M  END
>  <minimizedAffinity>  (1) 
-5.42041588

>  <minimizedRMSD>  (1) 
5.91308641

$$$$
