
     RDKit          3D

 50 54  0  0  0  0  0  0  0  0999 V2000
   36.1680   29.9750   41.0330 C   0  0  0  0  0  0  0  0  0  0  0  0
   38.4660   27.7870   42.5400 C   0  0  0  0  0  0  0  0  0  0  0  0
   37.2980   27.0730   42.6800 C   0  0  0  0  0  0  0  0  0  0  0  0
   36.2890   27.8480   42.1090 C   0  0  0  0  0  0  0  0  0  0  0  0
   36.9170   28.9520   41.6760 N   0  0  0  0  0  0  0  0  0  0  0  0
   38.1890   28.9500   41.9110 N   0  0  0  0  0  0  0  0  0  0  0  0
   41.3950   25.6890   43.4850 C   0  0  0  0  0  0  0  0  0  0  0  0
   40.1090   26.0200   43.0470 C   0  0  0  0  0  0  0  0  0  0  0  0
   39.7840   27.3840   42.9840 C   0  0  0  0  0  0  0  0  0  0  0  0
   40.7020   28.3290   43.3410 N   0  0  0  0  0  0  0  0  0  0  0  0
   41.9390   27.9240   43.7590 C   0  0  0  0  0  0  0  0  0  0  0  0
   42.2800   26.6260   43.8300 N   0  0  0  0  0  0  0  0  0  0  0  0
   42.8940   28.9800   44.1330 C   0  0  0  0  0  0  0  0  0  0  0  0
   43.8030   28.7190   45.1360 C   0  0  0  0  0  0  0  0  0  0  0  0
   44.7260   29.6930   45.5210 C   0  0  0  0  0  0  0  0  0  0  0  0
   44.6310   30.8780   44.8250 C   0  0  0  0  0  0  0  0  0  0  0  0
   43.7440   31.1910   43.8170 C   0  0  0  0  0  0  0  0  0  0  0  0
   42.8410   30.1810   43.4690 C   0  0  0  0  0  0  0  0  0  0  0  0
   35.2300   29.5100   39.9620 C   0  0  0  0  0  0  0  0  0  0  0  0
   35.8330   29.4160   38.6090 C   0  0  0  0  0  0  0  0  0  0  0  0
   37.1480   29.5450   38.2720 C   0  0  0  0  0  0  0  0  0  0  0  0
   37.6600   29.5330   37.0130 C   0  0  0  0  0  0  0  0  0  0  0  0
   36.8010   29.3770   35.9430 C   0  0  0  0  0  0  0  0  0  0  0  0
   35.4490   29.2380   36.2150 C   0  0  0  0  0  0  0  0  0  0  0  0
   34.6560   29.0890   35.1030 C   0  0  0  0  0  0  0  0  0  0  0  0
   33.3020   28.9400   35.2630 C   0  0  0  0  0  0  0  0  0  0  0  0
   32.7730   28.9410   36.5560 C   0  0  0  0  0  0  0  0  0  0  0  0
   33.6290   29.0940   37.6010 C   0  0  0  0  0  0  0  0  0  0  0  0
   34.9710   29.2530   37.5140 C   0  0  0  0  0  0  0  0  0  0  0  0
   33.0270   29.0680   38.8490 O   0  0  0  0  0  0  0  0  0  0  0  0
   35.5755   30.4947   41.8004 H   0  0  0  0  0  0  0  0  0  0  0  0
   36.9049   30.6190   40.5308 H   0  0  0  0  0  0  0  0  0  0  0  0
   37.1829   26.0851   43.1499 H   0  0  0  0  0  0  0  0  0  0  0  0
   35.2183   27.6081   42.0310 H   0  0  0  0  0  0  0  0  0  0  0  0
   41.6843   24.6295   43.5467 H   0  0  0  0  0  0  0  0  0  0  0  0
   39.3826   25.2441   42.7637 H   0  0  0  0  0  0  0  0  0  0  0  0
   43.8010   27.7388   45.6352 H   0  0  0  0  0  0  0  0  0  0  0  0
   45.4687   29.5277   46.3154 H   0  0  0  0  0  0  0  0  0  0  0  0
   45.3456   31.6657   45.1060 H   0  0  0  0  0  0  0  0  0  0  0  0
   43.7463   32.1716   43.3186 H   0  0  0  0  0  0  0  0  0  0  0  0
   42.0986   30.3464   42.6744 H   0  0  0  0  0  0  0  0  0  0  0  0
   34.8576   28.5134   40.2414 H   0  0  0  0  0  0  0  0  0  0  0  0
   34.4337   30.2660   39.8960 H   0  0  0  0  0  0  0  0  0  0  0  0
   37.8630   29.6709   39.0984 H   0  0  0  0  0  0  0  0  0  0  0  0
   38.7418   29.6458   36.8489 H   0  0  0  0  0  0  0  0  0  0  0  0
   37.1772   29.3635   34.9094 H   0  0  0  0  0  0  0  0  0  0  0  0
   35.1013   29.0892   34.0972 H   0  0  0  0  0  0  0  0  0  0  0  0
   32.6445   28.8219   34.3891 H   0  0  0  0  0  0  0  0  0  0  0  0
   31.6925   28.8212   36.7241 H   0  0  0  0  0  0  0  0  0  0  0  0
   33.5765   29.1722   39.6659 H   0  0  0  0  0  0  0  0  0  0  0  0
  1  5  1  0
  2  3  1  0
  2  9  1  0
  4  3  2  0
  5  6  1  0
  5  4  1  0
  6  2  2  0
  7 12  2  0
  8  7  1  0
  9  8  2  0
  9 10  1  0
 10 11  2  0
 11 12  1  0
 11 13  1  0
 13 14  2  0
 14 15  1  0
 16 15  2  0
 17 16  1  0
 18 17  2  0
 18 13  1  0
 19  1  1  0
 20 19  1  0
 21 20  2  0
 22 21  1  0
 23 24  1  0
 23 22  2  0
 24 29  2  0
 25 26  2  0
 25 24  1  0
 26 27  1  0
 27 28  2  0
 28 30  1  0
 29 28  1  0
 29 20  1  0
  1 31  1  0
  1 32  1  0
  3 33  1  0
  4 34  1  0
  7 35  1  0
  8 36  1  0
 14 37  1  0
 15 38  1  0
 16 39  1  0
 17 40  1  0
 18 41  1  0
 19 42  1  0
 19 43  1  0
 21 44  1  0
 22 45  1  0
 23 46  1  0
 25 47  1  0
 26 48  1  0
 27 49  1  0
 30 50  1  0
M  ISO  8  31   8  32   8  33  14  34  14  35  14  36  14  37  14  38  14
M  ISO  8  39  14  40  14  41  14  42   8  43   8  44  14  45  14  46  14
M  ISO  4  47  14  48  14  49  14  50   3
M  END
>  <minimizedAffinity>  (1) 
-6.2290926

>  <minimizedRMSD>  (1) 
0.999685705

$$$$
