
     RDKit          3D

 49 53  0  0  0  0  0  0  0  0999 V2000
   38.9280   30.3580   37.7600 C   0  0  0  0  0  0  0  0  0  0  0  0
   40.1360   31.0240   37.7770 C   0  0  0  0  0  0  0  0  0  0  0  0
   41.3610   30.5070   37.4500 C   0  0  0  0  0  0  0  0  0  0  0  0
   41.4440   29.1850   37.0550 C   0  0  0  0  0  0  0  0  0  0  0  0
   40.2670   28.4490   37.0140 C   0  0  0  0  0  0  0  0  0  0  0  0
   40.4280   27.1460   36.6140 C   0  0  0  0  0  0  0  0  0  0  0  0
   39.3300   26.3490   36.5450 C   0  0  0  0  0  0  0  0  0  0  0  0
   38.0960   26.8680   36.8730 C   0  0  0  0  0  0  0  0  0  0  0  0
   38.0070   28.1850   37.2660 C   0  0  0  0  0  0  0  0  0  0  0  0
   39.0670   29.0300   37.3550 C   0  0  0  0  0  0  0  0  0  0  0  0
   36.6090   28.4460   37.5590 C   0  0  0  0  0  0  0  0  0  0  0  0
   35.7650   28.4320   38.6550 C   0  0  0  0  0  0  0  0  0  0  0  0
   34.4210   28.6920   38.5930 C   0  0  0  0  0  0  0  0  0  0  0  0
   33.8010   28.9930   37.4030 C   0  0  0  0  0  0  0  0  0  0  0  0
   34.5720   29.0270   36.2630 C   0  0  0  0  0  0  0  0  0  0  0  0
   35.9240   28.7630   36.3460 C   0  0  0  0  0  0  0  0  0  0  0  0
   37.6050   30.8860   38.0990 C   0  0  0  0  0  0  0  0  0  0  0  0
   37.5500   31.5570   39.4590 C   0  0  0  0  0  0  0  0  0  0  0  0
   38.4180   29.2570   42.0080 C   0  0  0  0  0  0  0  0  0  0  0  0
   37.1070   29.5220   42.3370 C   0  0  0  0  0  0  0  0  0  0  0  0
   36.6530   30.4260   41.3830 C   0  0  0  0  0  0  0  0  0  0  0  0
   37.7040   30.6480   40.5480 N   0  0  0  0  0  0  0  0  0  0  0  0
   38.7180   29.9670   40.9190 N   0  0  0  0  0  0  0  0  0  0  0  0
   39.7310   26.4260   44.0400 C   0  0  0  0  0  0  0  0  0  0  0  0
   38.8130   27.2280   43.3590 C   0  0  0  0  0  0  0  0  0  0  0  0
   39.3140   28.3840   42.7180 C   0  0  0  0  0  0  0  0  0  0  0  0
   40.6330   28.6760   42.7810 N   0  0  0  0  0  0  0  0  0  0  0  0
   41.4760   27.8390   43.4690 C   0  0  0  0  0  0  0  0  0  0  0  0
   41.0350   26.7430   44.0830 N   0  0  0  0  0  0  0  0  0  0  0  0
   40.1127   32.0797   38.0852 H   0  0  0  0  0  0  0  0  0  0  0  0
   42.2639   31.1332   37.5008 H   0  0  0  0  0  0  0  0  0  0  0  0
   42.4086   28.7318   36.7827 H   0  0  0  0  0  0  0  0  0  0  0  0
   41.4234   26.7559   36.3552 H   0  0  0  0  0  0  0  0  0  0  0  0
   39.4249   25.2993   36.2303 H   0  0  0  0  0  0  0  0  0  0  0  0
   37.1949   26.2392   36.8216 H   0  0  0  0  0  0  0  0  0  0  0  0
   36.2000   28.1975   39.6377 H   0  0  0  0  0  0  0  0  0  0  0  0
   33.8243   28.6592   39.5165 H   0  0  0  0  0  0  0  0  0  0  0  0
   32.7215   29.2004   37.3632 H   0  0  0  0  0  0  0  0  0  0  0  0
   34.1131   29.2632   35.2916 H   0  0  0  0  0  0  0  0  0  0  0  0
   36.5127   28.7990   35.4175 H   0  0  0  0  0  0  0  0  0  0  0  0
   37.3187   31.6239   37.3351 H   0  0  0  0  0  0  0  0  0  0  0  0
   36.9147   30.0303   38.1328 H   0  0  0  0  0  0  0  0  0  0  0  0
   38.3560   32.3037   39.5119 H   0  0  0  0  0  0  0  0  0  0  0  0
   36.5533   32.0122   39.5555 H   0  0  0  0  0  0  0  0  0  0  0  0
   36.5370   29.1047   43.1802 H   0  0  0  0  0  0  0  0  0  0  0  0
   35.6491   30.8708   41.3169 H   0  0  0  0  0  0  0  0  0  0  0  0
   39.3793   25.5175   44.5508 H   0  0  0  0  0  0  0  0  0  0  0  0
   37.7441   26.9709   43.3228 H   0  0  0  0  0  0  0  0  0  0  0  0
   42.5481   28.0811   43.5144 H   0  0  0  0  0  0  0  0  0  0  0  0
  1  2  2  0
  1 17  1  0
  3  2  1  0
  4  3  2  0
  5  4  1  0
  5 10  2  0
  6  5  1  0
  7  6  2  0
  7  8  1  0
  8  9  2  0
  9 10  1  0
  9 11  1  0
 10  1  1  0
 11 12  2  0
 13 12  1  0
 14 13  2  0
 15 16  2  0
 15 14  1  0
 16 11  1  0
 17 18  1  0
 18 22  1  0
 19 20  1  0
 19 26  1  0
 21 20  2  0
 22 23  1  0
 22 21  1  0
 23 19  2  0
 24 29  2  0
 25 24  1  0
 26 27  1  0
 26 25  2  0
 27 28  2  0
 28 29  1  0
  2 30  1  0
  3 31  1  0
  4 32  1  0
  6 33  1  0
  7 34  1  0
  8 35  1  0
 12 36  1  0
 13 37  1  0
 14 38  1  0
 15 39  1  0
 16 40  1  0
 17 41  1  0
 17 42  1  0
 18 43  1  0
 18 44  1  0
 20 45  1  0
 21 46  1  0
 24 47  1  0
 25 48  1  0
 28 49  1  0
M  ISO  8  30  14  31  14  32  14  33  14  34  14  35  14  36  14  37  14
M  ISO  8  38  14  39  14  40  14  41   8  42   8  43   8  44   8  45  14
M  ISO  4  46  14  47  14  48  14  49  14
M  END
>  <minimizedAffinity>  (1) 
-5.60380507

>  <minimizedRMSD>  (1) 
3.61633849

$$$$
