
     RDKit          3D

 34 35  0  0  0  0  0  0  0  0999 V2000
   39.3650   27.5770   43.5080 C   0  0  0  0  0  0  0  0  0  0  0  0
   38.7060   26.3390   43.4390 C   0  0  0  0  0  0  0  0  0  0  0  0
   37.7910   26.1720   42.3820 C   0  0  0  0  0  0  0  0  0  0  0  0
   37.5930   27.1800   41.5040 N   0  0  0  0  0  0  0  0  0  0  0  0
   38.2530   28.3560   41.6120 C   0  0  0  0  0  0  0  0  0  0  0  0
   39.1340   28.5510   42.6100 N   0  0  0  0  0  0  0  0  0  0  0  0
   37.0530   24.9920   42.1740 N   0  0  0  0  0  0  0  0  0  0  0  0
   38.0760   29.4450   40.7120 N   0  0  0  0  0  0  0  0  0  0  0  0
   37.2710   29.1930   39.6410 C   0  0  0  0  0  0  0  0  0  0  0  0
   36.9810   30.1180   38.6650 C   0  0  0  0  0  0  0  0  0  0  0  0
   37.5480   31.3630   38.8000 C   0  0  0  0  0  0  0  0  0  0  0  0
   37.3350   32.2720   37.9510 O   0  0  0  0  0  0  0  0  0  0  0  0
   38.3500   31.6000   39.8750 N   0  0  0  0  0  0  0  0  0  0  0  0
   38.6040   30.6680   40.7980 C   0  0  0  0  0  0  0  0  0  0  0  0
   39.3390   30.8650   41.7950 O   0  0  0  0  0  0  0  0  0  0  0  0
   36.0900   29.7710   37.5180 C   0  0  0  0  0  0  0  0  0  0  0  0
   38.9660   32.8800   40.0630 C   0  0  0  0  0  0  0  0  0  0  0  0
   37.8990   33.9470   39.9350 C   0  0  0  0  0  0  0  0  0  0  0  0
   40.0780   33.2220   39.1410 C   0  0  0  0  0  0  0  0  0  0  0  0
   40.0886   27.7546   44.3172 H   0  0  0  0  0  0  0  0  0  0  0  0
   38.8948   25.5413   44.1725 H   0  0  0  0  0  0  0  0  0  0  0  0
   36.3972   24.9275   41.3824 H   0  0  0  0  0  0  0  0  0  0  0  0
   37.1686   24.1928   42.8134 H   0  0  0  0  0  0  0  0  0  0  0  0
   36.8270   28.1905   39.5520 H   0  0  0  0  0  0  0  0  0  0  0  0
   35.1289   29.3967   37.9004 H   0  0  0  0  0  0  0  0  0  0  0  0
   35.9164   30.6673   36.9043 H   0  0  0  0  0  0  0  0  0  0  0  0
   36.5683   28.9934   36.9043 H   0  0  0  0  0  0  0  0  0  0  0  0
   39.4257   32.8303   41.0611 H   0  0  0  0  0  0  0  0  0  0  0  0
   37.5787   34.2673   40.9374 H   0  0  0  0  0  0  0  0  0  0  0  0
   38.3067   34.8094   39.3873 H   0  0  0  0  0  0  0  0  0  0  0  0
   37.0366   33.5393   39.3873 H   0  0  0  0  0  0  0  0  0  0  0  0
   40.9683   33.4958   39.7261 H   0  0  0  0  0  0  0  0  0  0  0  0
   40.3089   32.3533   38.5069 H   0  0  0  0  0  0  0  0  0  0  0  0
   39.7808   34.0703   38.5069 H   0  0  0  0  0  0  0  0  0  0  0  0
  2  1  2  0
  3  2  1  0
  4  5  1  0
  4  3  2  0
  5  6  2  0
  6  1  1  0
  7  3  1  0
  8 14  1  0
  8  5  1  0
  9  8  1  0
 10 11  1  0
 10  9  2  0
 11 13  1  0
 12 11  2  0
 13 17  1  0
 13 14  1  0
 14 15  2  0
 16 10  1  0
 18 17  1  0
 19 17  1  0
  1 20  1  0
  2 21  1  0
  7 22  1  0
  7 23  1  0
  9 24  1  0
 16 25  1  0
 16 26  1  0
 16 27  1  0
 17 28  1  0
 18 29  1  0
 18 30  1  0
 18 31  1  0
 19 32  1  0
 19 33  1  0
 19 34  1  0
M  ISO  8  20  14  21  14  24  14  25   8  26   8  27   8  28   8  29   8
M  ISO  5  30   8  31   8  32   8  33   8  34   8
M  END
>  <minimizedAffinity>  (1) 
-4.82281256

>  <minimizedRMSD>  (1) 
1.5083462

$$$$
