
     RDKit          3D

 37 39  0  0  0  0  0  0  0  0999 V2000
   38.7990   29.5770   41.5240 C   0  0  0  0  0  0  0  0  0  0  0  0
   39.6430   29.7480   42.6280 C   0  0  0  0  0  0  0  0  0  0  0  0
   39.9250   31.1060   42.6750 C   0  0  0  0  0  0  0  0  0  0  0  0
   39.2490   31.6740   41.6190 C   0  0  0  0  0  0  0  0  0  0  0  0
   38.6080   30.7610   40.9730 O   0  0  0  0  0  0  0  0  0  0  0  0
   37.8560   27.3240   42.0900 C   0  0  0  0  0  0  0  0  0  0  0  0
   38.2640   28.2760   41.1200 C   0  0  0  0  0  0  0  0  0  0  0  0
   38.1470   27.9500   39.7720 C   0  0  0  0  0  0  0  0  0  0  0  0
   37.6430   26.7230   39.4210 N   0  0  0  0  0  0  0  0  0  0  0  0
   37.2680   25.8500   40.3900 C   0  0  0  0  0  0  0  0  0  0  0  0
   37.3720   26.1440   41.7000 N   0  0  0  0  0  0  0  0  0  0  0  0
   36.7560   24.6010   39.9420 N   0  0  0  0  0  0  0  0  0  0  0  0
   37.2170   23.3860   40.5860 C   0  0  0  0  0  0  0  0  0  0  0  0
   37.0090   22.2350   39.5940 C   0  0  0  0  0  0  0  0  0  0  0  0
   35.6840   22.0830   39.2670 O   0  0  0  0  0  0  0  0  0  0  0  0
   34.9680   23.2450   39.1080 C   0  0  0  0  0  0  0  0  0  0  0  0
   35.7900   24.4710   38.8670 C   0  0  0  0  0  0  0  0  0  0  0  0
   39.3160   33.0720   41.3650 N   0  0  0  0  0  0  0  0  0  0  0  0
   38.4060   33.6430   40.4190 C   0  0  0  0  0  0  0  0  0  0  0  0
   37.1970   33.2180   40.3170 N   0  0  0  0  0  0  0  0  0  0  0  0
   38.8560   34.7180   39.5610 N   0  0  0  0  0  0  0  0  0  0  0  0
   36.8580   32.4550   40.9160 H   0  0  0  0  0  0  0  0  0  0  0  0
   40.0065   28.9690   43.3144 H   0  0  0  0  0  0  0  0  0  0  0  0
   40.5606   31.6240   43.4083 H   0  0  0  0  0  0  0  0  0  0  0  0
   37.9388   27.5588   43.1615 H   0  0  0  0  0  0  0  0  0  0  0  0
   38.4549   28.6675   38.9972 H   0  0  0  0  0  0  0  0  0  0  0  0
   38.2836   23.4760   40.8394 H   0  0  0  0  0  0  0  0  0  0  0  0
   36.6590   23.2032   41.5162 H   0  0  0  0  0  0  0  0  0  0  0  0
   37.5809   22.4452   38.6782 H   0  0  0  0  0  0  0  0  0  0  0  0
   37.3553   21.3049   40.0684 H   0  0  0  0  0  0  0  0  0  0  0  0
   34.2926   23.1139   38.2497 H   0  0  0  0  0  0  0  0  0  0  0  0
   34.4418   23.4122   40.0594 H   0  0  0  0  0  0  0  0  0  0  0  0
   36.3161   24.3809   37.9052 H   0  0  0  0  0  0  0  0  0  0  0  0
   35.1405   25.3583   38.8368 H   0  0  0  0  0  0  0  0  0  0  0  0
   40.0057   33.6618   41.8522 H   0  0  0  0  0  0  0  0  0  0  0  0
   38.2093   35.1359   38.8769 H   0  0  0  0  0  0  0  0  0  0  0  0
   39.8229   35.0652   39.6345 H   0  0  0  0  0  0  0  0  0  0  0  0
  1  2  2  0
  2  3  1  0
  4  3  2  0
  5  1  1  0
  5  4  1  0
  7  1  1  0
  7  6  2  0
  8  7  1  0
  9  8  2  0
  9 10  1  0
 10 11  2  0
 11  6  1  0
 12 10  1  0
 12 13  1  0
 14 13  1  0
 15 14  1  0
 16 15  1  0
 17 16  1  0
 17 12  1  0
 18  4  1  0
 19 18  1  0
 20 19  2  0
 20 22  1  0
 21 19  1  0
  2 23  1  0
  3 24  1  0
  6 25  1  0
  8 26  1  0
 13 27  1  0
 13 28  1  0
 14 29  1  0
 14 30  1  0
 16 31  1  0
 16 32  1  0
 17 33  1  0
 17 34  1  0
 18 35  1  0
 21 36  1  0
 21 37  1  0
M  ISO  8  23  14  24  14  25  14  26  14  27  13  28  13  29  13  30  13
M  ISO  4  31  13  32  13  33  13  34  13
M  END
>  <minimizedAffinity>  (1) 
-5.47462034

>  <minimizedRMSD>  (1) 
1.64745617

$$$$
