
     RDKit          3D

 36 39  0  0  0  0  0  0  0  0999 V2000
   38.5720   27.3550   43.8900 C   0  0  0  0  0  0  0  0  0  0  0  0
   39.0630   26.3970   43.0050 C   0  0  0  0  0  0  0  0  0  0  0  0
   39.0840   26.7010   41.6500 C   0  0  0  0  0  0  0  0  0  0  0  0
   38.6200   27.9290   41.2640 N   0  0  0  0  0  0  0  0  0  0  0  0
   38.1480   28.8420   42.1440 C   0  0  0  0  0  0  0  0  0  0  0  0
   38.1330   28.5400   43.4500 N   0  0  0  0  0  0  0  0  0  0  0  0
   37.7260   30.0360   41.4970 N   0  0  0  0  0  0  0  0  0  0  0  0
   36.4330   30.2030   41.1190 C   0  0  0  0  0  0  0  0  0  0  0  0
   36.2770   31.4040   40.5300 N   0  0  0  0  0  0  0  0  0  0  0  0
   37.4740   32.0040   40.5330 C   0  0  0  0  0  0  0  0  0  0  0  0
   37.9480   33.2340   40.0790 C   0  0  0  0  0  0  0  0  0  0  0  0
   39.2670   33.5280   40.2520 N   0  0  0  0  0  0  0  0  0  0  0  0
   40.1020   32.6680   40.8400 C   0  0  0  0  0  0  0  0  0  0  0  0
   39.6730   31.4600   41.2960 N   0  0  0  0  0  0  0  0  0  0  0  0
   38.3590   31.1430   41.1360 C   0  0  0  0  0  0  0  0  0  0  0  0
   36.9750   34.0550   39.4750 N   0  0  0  0  0  0  0  0  0  0  0  0
   41.4740   33.0090   41.0040 N   0  0  0  0  0  0  0  0  0  0  0  0
   42.3980   32.1110   41.6320 C   0  0  0  0  0  0  0  0  0  0  0  0
   43.7940   32.6500   41.2980 C   0  0  0  0  0  0  0  0  0  0  0  0
   43.9820   33.9180   41.8370 O   0  0  0  0  0  0  0  0  0  0  0  0
   42.9350   34.7840   41.6060 C   0  0  0  0  0  0  0  0  0  0  0  0
   41.9880   34.2840   40.5380 C   0  0  0  0  0  0  0  0  0  0  0  0
   38.5449   27.1336   44.9671 H   0  0  0  0  0  0  0  0  0  0  0  0
   39.4248   25.4246   43.3704 H   0  0  0  0  0  0  0  0  0  0  0  0
   39.4612   25.9784   40.9114 H   0  0  0  0  0  0  0  0  0  0  0  0
   35.6308   29.4659   41.2713 H   0  0  0  0  0  0  0  0  0  0  0  0
   36.0013   33.7281   39.3977 H   0  0  0  0  0  0  0  0  0  0  0  0
   37.2375   34.9820   39.1108 H   0  0  0  0  0  0  0  0  0  0  0  0
   42.2418   32.0998   42.7208 H   0  0  0  0  0  0  0  0  0  0  0  0
   42.2659   31.0787   41.2759 H   0  0  0  0  0  0  0  0  0  0  0  0
   44.5512   31.9677   41.7116 H   0  0  0  0  0  0  0  0  0  0  0  0
   43.8908   32.7168   40.2043 H   0  0  0  0  0  0  0  0  0  0  0  0
   42.3725   34.9135   42.5424 H   0  0  0  0  0  0  0  0  0  0  0  0
   43.3619   35.7343   41.2528 H   0  0  0  0  0  0  0  0  0  0  0  0
   42.5242   34.1523   39.5866 H   0  0  0  0  0  0  0  0  0  0  0  0
   41.1722   35.0010   40.3637 H   0  0  0  0  0  0  0  0  0  0  0  0
  2  1  2  0
  3  2  1  0
  4  3  2  0
  4  5  1  0
  5  6  2  0
  6  1  1  0
  7  5  1  0
  8  7  1  0
  9 10  1  0
  9  8  2  0
 10 15  2  0
 11 12  2  0
 11 10  1  0
 12 13  1  0
 13 17  1  0
 13 14  2  0
 15 14  1  0
 15  7  1  0
 16 11  1  0
 17 18  1  0
 19 18  1  0
 19 20  1  0
 21 20  1  0
 22 17  1  0
 22 21  1  0
  1 23  1  0
  2 24  1  0
  3 25  1  0
  8 26  1  0
 16 27  1  0
 16 28  1  0
 18 29  1  0
 18 30  1  0
 19 31  1  0
 19 32  1  0
 21 33  1  0
 21 34  1  0
 22 35  1  0
 22 36  1  0
M  ISO  8  23  14  24  14  25  14  26  14  29  13  30  13  31  13  32  13
M  ISO  4  33  13  34  13  35  13  36  13
M  END
>  <minimizedAffinity>  (1) 
-6.44942904

>  <minimizedRMSD>  (1) 
1.28423667

$$$$
