
     RDKit          3D

 40 43  0  0  1  0  0  0  0  0999 V2000
   38.4500   29.5780   41.7430 C   0  0  1  0  0  0  0  0  0  0  0  0
   37.8930   29.2590   43.0720 C   0  0  0  0  0  0  0  0  0  0  0  0
   37.0700   28.8380   41.9350 C   0  0  2  0  0  0  0  0  0  0  0  0
   37.0800   27.4250   41.5570 C   0  0  0  0  0  0  0  0  0  0  0  0
   37.2560   26.4350   42.4930 C   0  0  0  0  0  0  0  0  0  0  0  0
   37.0950   25.1100   42.1920 C   0  0  0  0  0  0  0  0  0  0  0  0
   36.7440   24.7640   40.9000 C   0  0  0  0  0  0  0  0  0  0  0  0
   36.5680   25.7340   39.9520 C   0  0  0  0  0  0  0  0  0  0  0  0
   36.7480   27.0880   40.3200 C   0  0  0  0  0  0  0  0  0  0  0  0
   36.5490   27.7620   39.0830 N   0  0  0  0  0  0  0  0  0  0  0  0
   35.2770   28.4550   38.8050 C   0  0  0  0  0  0  0  0  0  0  0  0
   35.4300   29.0670   37.4520 C   0  0  0  0  0  0  0  0  0  0  0  0
   36.5380   29.8650   37.3670 O   0  0  0  0  0  0  0  0  0  0  0  0
   37.7510   29.2770   37.5900 C   0  0  0  0  0  0  0  0  0  0  0  0
   37.5540   27.8410   38.0330 C   0  0  0  0  0  0  0  0  0  0  0  0
   38.3170   30.9680   41.2030 C   0  0  0  0  0  0  0  0  0  0  0  0
   37.1680   31.2620   40.4640 C   0  0  0  0  0  0  0  0  0  0  0  0
   36.9970   32.5450   39.9360 C   0  0  0  0  0  0  0  0  0  0  0  0
   37.9940   33.4650   40.1820 N   0  0  0  0  0  0  0  0  0  0  0  0
   39.0970   33.1380   40.9070 C   0  0  0  0  0  0  0  0  0  0  0  0
   39.2440   31.8700   41.4160 N   0  0  0  0  0  0  0  0  0  0  0  0
   39.4237   29.4014   41.2627 H   0  0  0  0  0  0  0  0  0  0  0  0
   38.3853   28.4936   43.6899 H   0  0  0  0  0  0  0  0  0  0  0  0
   37.6829   29.8711   43.9615 H   0  0  0  0  0  0  0  0  0  0  0  0
   36.0194   28.9906   41.6469 H   0  0  0  0  0  0  0  0  0  0  0  0
   37.5357   26.7169   43.5188 H   0  0  0  0  0  0  0  0  0  0  0  0
   37.2415   24.3371   42.9608 H   0  0  0  0  0  0  0  0  0  0  0  0
   36.6059   23.7056   40.6339 H   0  0  0  0  0  0  0  0  0  0  0  0
   36.2914   25.4660   38.9216 H   0  0  0  0  0  0  0  0  0  0  0  0
   34.4425   27.7384   38.8084 H   0  0  0  0  0  0  0  0  0  0  0  0
   35.0566   29.2152   39.5689 H   0  0  0  0  0  0  0  0  0  0  0  0
   35.5153   28.2622   36.7070 H   0  0  0  0  0  0  0  0  0  0  0  0
   34.5468   29.6952   37.2642 H   0  0  0  0  0  0  0  0  0  0  0  0
   38.3412   29.2948   36.6619 H   0  0  0  0  0  0  0  0  0  0  0  0
   38.2822   29.8299   38.3788 H   0  0  0  0  0  0  0  0  0  0  0  0
   37.2261   27.2390   37.1727 H   0  0  0  0  0  0  0  0  0  0  0  0
   38.5073   27.4569   38.4250 H   0  0  0  0  0  0  0  0  0  0  0  0
   36.4031   30.4889   40.2988 H   0  0  0  0  0  0  0  0  0  0  0  0
   36.1049   32.8093   39.3492 H   0  0  0  0  0  0  0  0  0  0  0  0
   39.8764   33.8931   41.0871 H   0  0  0  0  0  0  0  0  0  0  0  0
  1  3  1  0
  1  2  1  0
  3  2  1  0
  4  3  1  0
  4  5  2  0
  6  5  1  0
  7  6  2  0
  8  9  2  0
  8  7  1  0
  9  4  1  0
 10  9  1  0
 11 10  1  0
 12 11  1  0
 13 12  1  0
 13 14  1  0
 14 15  1  0
 15 10  1  0
 16 21  1  0
 16  1  1  0
 17 16  2  0
 18 19  2  0
 18 17  1  0
 19 20  1  0
 20 21  2  0
  1 22  1  6
  2 23  1  0
  2 24  1  0
  3 25  1  1
  5 26  1  0
  6 27  1  0
  7 28  1  0
  8 29  1  0
 11 30  1  0
 11 31  1  0
 12 32  1  0
 12 33  1  0
 14 34  1  0
 14 35  1  0
 15 36  1  0
 15 37  1  0
 17 38  1  0
 18 39  1  0
 20 40  1  0
M  ISO  8  22  13  23  13  24  13  25  13  26  14  27  14  28  14  29  14
M  ISO  8  30  13  31  13  32  13  33  13  34  13  35  13  36  13  37  13
M  ISO  3  38  14  39  14  40  14
M  END
>  <minimizedAffinity>  (1) 
-5.3745656

>  <minimizedRMSD>  (1) 
0.492037117

$$$$
