
     RDKit          3D

 23 24  0  0  0  0  0  0  0  0999 V2000
   39.4200   27.8360   42.8960 C   0  0  0  0  0  0  0  0  0  0  0  0
   38.3570   27.4480   43.7250 C   0  0  0  0  0  0  0  0  0  0  0  0
   37.1290   28.0750   43.5620 C   0  0  0  0  0  0  0  0  0  0  0  0
   37.0300   29.0330   42.6050 N   0  0  0  0  0  0  0  0  0  0  0  0
   38.0670   29.3970   41.8120 C   0  0  0  0  0  0  0  0  0  0  0  0
   39.2460   28.7970   41.9650 N   0  0  0  0  0  0  0  0  0  0  0  0
   37.8900   30.4120   40.8270 N   0  0  0  0  0  0  0  0  0  0  0  0
   36.7560   31.3480   40.7750 C   0  0  0  0  0  0  0  0  0  0  0  0
   37.2330   32.4620   39.8560 C   0  0  0  0  0  0  0  0  0  0  0  0
   37.9710   31.6120   38.8140 C   0  0  0  0  0  0  0  0  0  0  0  0
   38.7790   30.7030   39.7180 C   0  0  0  0  0  0  0  0  0  0  0  0
   36.1000   27.6820   44.3820 O   0  0  0  0  0  0  0  0  0  0  0  0
   40.4024   27.3534   43.0057 H   0  0  0  0  0  0  0  0  0  0  0  0
   38.4931   26.6656   44.4861 H   0  0  0  0  0  0  0  0  0  0  0  0
   35.8632   30.8564   40.3612 H   0  0  0  0  0  0  0  0  0  0  0  0
   36.4687   31.7173   41.7705 H   0  0  0  0  0  0  0  0  0  0  0  0
   36.3943   33.0201   39.4143 H   0  0  0  0  0  0  0  0  0  0  0  0
   37.8333   33.2483   40.3370 H   0  0  0  0  0  0  0  0  0  0  0  0
   38.6195   32.2279   38.1736 H   0  0  0  0  0  0  0  0  0  0  0  0
   37.3149   31.0862   38.1047 H   0  0  0  0  0  0  0  0  0  0  0  0
   39.0588   29.7789   39.1909 H   0  0  0  0  0  0  0  0  0  0  0  0
   39.7201   31.1682   40.0466 H   0  0  0  0  0  0  0  0  0  0  0  0
   35.2093   28.1056   44.2963 H   0  0  0  0  0  0  0  0  0  0  0  0
  1  2  2  0
  3  2  1  0
  3 12  1  0
  4  3  2  0
  5  6  2  0
  5  4  1  0
  6  1  1  0
  7  5  1  0
  8  7  1  0
  9  8  1  0
 10 11  1  0
 10  9  1  0
 11  7  1  0
  1 13  1  0
  2 14  1  0
  8 15  1  0
  8 16  1  0
  9 17  1  0
  9 18  1  0
 10 19  1  0
 10 20  1  0
 11 21  1  0
 11 22  1  0
 12 23  1  0
M  ISO  8  13  14  14  14  15  13  16  13  17  13  18  13  19  13  20  13
M  ISO  3  21  13  22  13  23   3
M  END
>  <minimizedAffinity>  (1) 
-4.29066324

>  <minimizedRMSD>  (1) 
2.16780353

$$$$
