
     RDKit          3D

 39 42  0  0  0  0  0  0  0  0999 V2000
   37.4450   33.6120   40.2650 N   0  0  0  0  0  0  0  0  0  0  0  0
   37.9710   34.7690   39.8880 N   0  0  0  0  0  0  0  0  0  0  0  0
   39.2960   34.7500   40.1110 C   0  0  0  0  0  0  0  0  0  0  0  0
   39.5280   33.5060   40.6450 C   0  0  0  0  0  0  0  0  0  0  0  0
   38.3430   32.7750   40.7450 C   0  0  0  0  0  0  0  0  0  0  0  0
   38.3620   31.4560   41.2980 C   0  0  0  0  0  0  0  0  0  0  0  0
   39.4050   31.0690   42.0680 N   0  0  0  0  0  0  0  0  0  0  0  0
   39.5420   29.8920   42.6550 C   0  0  0  0  0  0  0  0  0  0  0  0
   38.6160   28.9300   42.5350 N   0  0  0  0  0  0  0  0  0  0  0  0
   37.5250   29.2090   41.7820 C   0  0  0  0  0  0  0  0  0  0  0  0
   36.5540   28.2500   41.6220 C   0  0  0  0  0  0  0  0  0  0  0  0
   35.4320   28.4780   40.8550 C   0  0  0  0  0  0  0  0  0  0  0  0
   35.3410   29.7330   40.2540 C   0  0  0  0  0  0  0  0  0  0  0  0
   36.3520   30.6380   40.4640 C   0  0  0  0  0  0  0  0  0  0  0  0
   37.4660   30.4420   41.2150 C   0  0  0  0  0  0  0  0  0  0  0  0
   40.5740   35.9620   39.8560 S   0  0  0  0  0  0  0  0  0  0  0  0
   43.5900   34.4460   41.9630 C   0  0  0  0  0  0  0  0  0  0  0  0
   43.8400   35.4150   42.9430 C   0  0  0  0  0  0  0  0  0  0  0  0
   43.0710   36.5590   42.9600 C   0  0  0  0  0  0  0  0  0  0  0  0
   42.1070   36.6780   42.0160 N   0  0  0  0  0  0  0  0  0  0  0  0
   41.8840   35.7240   41.0770 C   0  0  0  0  0  0  0  0  0  0  0  0
   42.6250   34.6190   41.0580 N   0  0  0  0  0  0  0  0  0  0  0  0
   43.1670   37.6180   43.8740 N   0  0  0  0  0  0  0  0  0  0  0  0
   44.0720   37.5960   44.9670 C   0  0  0  0  0  0  0  0  0  0  0  0
   44.0860   36.5730   45.7390 N   0  0  0  0  0  0  0  0  0  0  0  0
   44.9480   38.6820   45.2340 N   0  0  0  0  0  0  0  0  0  0  0  0
   43.5050   35.7240   45.6730 H   0  0  0  0  0  0  0  0  0  0  0  0
   36.4418   33.3908   40.1908 H   0  0  0  0  0  0  0  0  0  0  0  0
   40.5166   33.1349   40.9531 H   0  0  0  0  0  0  0  0  0  0  0  0
   40.4407   29.6968   43.2585 H   0  0  0  0  0  0  0  0  0  0  0  0
   36.6753   27.2760   42.1185 H   0  0  0  0  0  0  0  0  0  0  0  0
   34.6523   27.7132   40.7243 H   0  0  0  0  0  0  0  0  0  0  0  0
   34.4770   29.9926   39.6246 H   0  0  0  0  0  0  0  0  0  0  0  0
   36.2493   31.6183   39.9757 H   0  0  0  0  0  0  0  0  0  0  0  0
   44.1978   33.5295   41.9392 H   0  0  0  0  0  0  0  0  0  0  0  0
   44.6367   35.2656   43.6867 H   0  0  0  0  0  0  0  0  0  0  0  0
   42.5597   38.4403   43.7478 H   0  0  0  0  0  0  0  0  0  0  0  0
   45.5941   38.6376   46.0349 H   0  0  0  0  0  0  0  0  0  0  0  0
   44.9370   39.5138   44.6267 H   0  0  0  0  0  0  0  0  0  0  0  0
  1  5  1  0
  2  3  2  0
  2  1  1  0
  3  4  1  0
  4  5  2  0
  5  6  1  0
  6  7  2  0
  7  8  1  0
  9  8  2  0
 10  9  1  0
 11 10  2  0
 12 11  1  0
 13 14  1  0
 13 12  2  0
 14 15  2  0
 15  6  1  0
 15 10  1  0
 16  3  1  0
 16 21  1  0
 17 18  2  0
 18 19  1  0
 19 23  1  0
 20 19  2  0
 21 20  1  0
 22 21  2  0
 22 17  1  0
 23 24  1  0
 24 26  1  0
 24 25  2  0
 27 25  1  0
  1 28  1  0
  4 29  1  0
  8 30  1  0
 11 31  1  0
 12 32  1  0
 13 33  1  0
 14 34  1  0
 17 35  1  0
 18 36  1  0
 23 37  1  0
 26 38  1  0
 26 39  1  0
M  END
>  <minimizedAffinity>  (1) 
-8.6319952

>  <minimizedRMSD>  (1) 
0.773019791

$$$$
