
     RDKit          3D

 35 37  0  0  1  0  0  0  0  0999 V2000
   37.9230   27.3670   42.7240 C   0  0  2  0  0  0  0  0  0  0  0  0
   39.0020   27.6890   43.6670 C   0  0  0  0  0  0  0  0  0  0  0  0
   39.7410   26.3810   43.8770 C   0  0  0  0  0  0  0  0  0  0  0  0
   39.2930   25.4800   42.7760 C   0  0  0  0  0  0  0  0  0  0  0  0
   38.5590   26.3760   41.7730 C   0  0  1  0  0  0  0  0  0  0  0  0
   37.5940   25.4150   41.1690 C   0  0  0  0  0  0  0  0  0  0  0  0
   36.8440   24.5850   41.9010 N   0  0  0  0  0  0  0  0  0  0  0  0
   36.1140   23.8720   41.0760 O   0  0  0  0  0  0  0  0  0  0  0  0
   36.4030   24.2540   39.8330 C   0  0  0  0  0  0  0  0  0  0  0  0
   37.3190   25.2100   39.8620 N   0  0  0  0  0  0  0  0  0  0  0  0
   35.7530   23.6430   38.7140 N   0  0  0  0  0  0  0  0  0  0  0  0
   35.6280   22.2280   38.6890 C   0  0  0  0  0  0  0  0  0  0  0  0
   36.5600   21.4670   39.1370 N   0  0  0  0  0  0  0  0  0  0  0  0
   34.4480   21.6040   38.1580 N   0  0  0  0  0  0  0  0  0  0  0  0
   37.4230   21.8480   39.5260 H   0  0  0  0  0  0  0  0  0  0  0  0
   37.9180   29.7700   41.8970 C   0  0  0  0  0  0  0  0  0  0  0  0
   37.3190   28.4900   42.0290 C   0  0  0  0  0  0  0  0  0  0  0  0
   36.0780   28.2880   41.4560 C   0  0  0  0  0  0  0  0  0  0  0  0
   35.4840   29.3340   40.7870 N   0  0  0  0  0  0  0  0  0  0  0  0
   36.0920   30.5650   40.6770 C   0  0  0  0  0  0  0  0  0  0  0  0
   37.3260   30.7660   41.2450 N   0  0  0  0  0  0  0  0  0  0  0  0
   37.0546   26.9700   43.2702 H   0  0  0  0  0  0  0  0  0  0  0  0
   39.6738   28.4489   43.2414 H   0  0  0  0  0  0  0  0  0  0  0  0
   38.6171   28.1029   44.6106 H   0  0  0  0  0  0  0  0  0  0  0  0
   40.8278   26.5419   43.8220 H   0  0  0  0  0  0  0  0  0  0  0  0
   39.5271   25.9493   44.8659 H   0  0  0  0  0  0  0  0  0  0  0  0
   40.1596   25.0001   42.2977 H   0  0  0  0  0  0  0  0  0  0  0  0
   38.6425   24.6762   43.1512 H   0  0  0  0  0  0  0  0  0  0  0  0
   39.0974   26.9018   40.9707 H   0  0  0  0  0  0  0  0  0  0  0  0
   35.3835   24.2171   37.9428 H   0  0  0  0  0  0  0  0  0  0  0  0
   34.3697   20.5771   38.1456 H   0  0  0  0  0  0  0  0  0  0  0  0
   33.6803   22.1835   37.7897 H   0  0  0  0  0  0  0  0  0  0  0  0
   38.9055   29.9438   42.3495 H   0  0  0  0  0  0  0  0  0  0  0  0
   35.5757   27.3124   41.5328 H   0  0  0  0  0  0  0  0  0  0  0  0
   35.5919   31.3826   40.1372 H   0  0  0  0  0  0  0  0  0  0  0  0
  1  2  1  0
  2  3  1  0
  4  3  1  0
  5  1  1  0
  5  4  1  0
  6  5  1  0
  6  7  2  0
  8  7  1  0
  9 10  2  0
  9  8  1  0
 10  6  1  0
 11  9  1  0
 12 11  1  0
 12 13  2  0
 13 15  1  0
 14 12  1  0
 16 17  2  0
 17  1  1  0
 18 17  1  0
 19 18  2  0
 20 19  1  0
 20 21  2  0
 21 16  1  0
  1 22  1  1
  2 23  1  0
  2 24  1  0
  3 25  1  0
  3 26  1  0
  4 27  1  0
  4 28  1  0
  5 29  1  6
 11 30  1  0
 14 31  1  0
 14 32  1  0
 16 33  1  0
 18 34  1  0
 20 35  1  0
M  ISO  8  22  13  23  13  24  13  25  13  26  13  27  13  28  13  29  13
M  ISO  3  33  14  34  14  35  14
M  END
>  <minimizedAffinity>  (1) 
-5.01044941

>  <minimizedRMSD>  (1) 
0.569749415

$$$$
