
     RDKit          3D

 32 34  0  0  0  0  0  0  0  0999 V2000
   38.6370   30.5160   41.1830 C   0  0  0  0  0  0  0  0  0  0  0  0
   37.6080   29.6570   41.1600 N   0  0  0  0  0  0  0  0  0  0  0  0
   38.0290   28.4860   41.5600 O   0  0  0  0  0  0  0  0  0  0  0  0
   39.3020   28.5340   41.8490 C   0  0  0  0  0  0  0  0  0  0  0  0
   39.7050   29.8070   41.6170 N   0  0  0  0  0  0  0  0  0  0  0  0
   40.2450   27.5780   42.3170 N   0  0  0  0  0  0  0  0  0  0  0  0
   41.5270   27.8360   42.0370 C   0  0  0  0  0  0  0  0  0  0  0  0
   42.5210   26.9630   42.4520 C   0  0  0  0  0  0  0  0  0  0  0  0
   42.0690   25.8450   43.1560 C   0  0  0  0  0  0  0  0  0  0  0  0
   42.9340   25.0200   43.5550 O   0  0  0  0  0  0  0  0  0  0  0  0
   40.7690   25.6160   43.4200 N   0  0  0  0  0  0  0  0  0  0  0  0
   39.8510   26.4900   42.9960 C   0  0  0  0  0  0  0  0  0  0  0  0
   38.6300   26.2930   43.2330 O   0  0  0  0  0  0  0  0  0  0  0  0
   39.7940   32.7860   41.0270 C   0  0  0  0  0  0  0  0  0  0  0  0
   38.7040   31.9370   40.8340 C   0  0  0  0  0  0  0  0  0  0  0  0
   37.5260   32.4500   40.2480 C   0  0  0  0  0  0  0  0  0  0  0  0
   37.5470   33.7910   39.9010 N   0  0  0  0  0  0  0  0  0  0  0  0
   38.6270   34.5640   40.1100 C   0  0  0  0  0  0  0  0  0  0  0  0
   39.7430   34.0720   40.6670 N   0  0  0  0  0  0  0  0  0  0  0  0
   38.5800   35.9360   39.7300 N   0  0  0  0  0  0  0  0  0  0  0  0
   39.7010   36.7890   39.9340 C   0  0  0  0  0  0  0  0  0  0  0  0
   40.8860   36.2730   39.8920 N   0  0  0  0  0  0  0  0  0  0  0  0
   39.4850   38.1930   40.1790 N   0  0  0  0  0  0  0  0  0  0  0  0
   41.6900   36.9190   40.0450 H   0  0  0  0  0  0  0  0  0  0  0  0
   41.7937   28.7436   41.4757 H   0  0  0  0  0  0  0  0  0  0  0  0
   43.5865   27.1381   42.2422 H   0  0  0  0  0  0  0  0  0  0  0  0
   40.4846   24.7757   43.9435 H   0  0  0  0  0  0  0  0  0  0  0  0
   40.7126   32.3895   41.4841 H   0  0  0  0  0  0  0  0  0  0  0  0
   36.6409   31.8198   40.0766 H   0  0  0  0  0  0  0  0  0  0  0  0
   37.7236   36.3158   39.3020 H   0  0  0  0  0  0  0  0  0  0  0  0
   40.2889   38.8194   40.3280 H   0  0  0  0  0  0  0  0  0  0  0  0
   38.5267   38.5698   40.2051 H   0  0  0  0  0  0  0  0  0  0  0  0
  1  5  1  0
  2  1  2  0
  2  3  1  0
  3  4  1  0
  4  6  1  0
  5  4  2  0
  6 12  1  0
  7  6  1  0
  7  8  2  0
  8  9  1  0
  9 11  1  0
  9 10  2  0
 12 13  2  0
 12 11  1  0
 15 14  2  0
 15  1  1  0
 16 15  1  0
 17 18  1  0
 17 16  2  0
 18 19  2  0
 19 14  1  0
 20 21  1  0
 20 18  1  0
 21 23  1  0
 22 21  2  0
 22 24  1  0
  7 25  1  0
  8 26  1  0
 11 27  1  0
 14 28  1  0
 16 29  1  0
 20 30  1  0
 23 31  1  0
 23 32  1  0
M  ISO  5  25  14  26  14  27   9  28  14  29  14
M  END
>  <minimizedAffinity>  (1) 
-5.9720726

>  <minimizedRMSD>  (1) 
1.46450603

$$$$
