
     RDKit          3D

 30 31  0  0  0  0  0  0  0  0999 V2000
   38.5810   28.4560   42.5150 C   0  0  0  0  0  0  0  0  0  0  0  0
   37.4320   27.7470   42.4610 C   0  0  0  0  0  0  0  0  0  0  0  0
   36.4660   28.5190   41.8750 C   0  0  0  0  0  0  0  0  0  0  0  0
   37.1150   29.7060   41.5950 N   0  0  0  0  0  0  0  0  0  0  0  0
   38.3450   29.6510   41.9750 N   0  0  0  0  0  0  0  0  0  0  0  0
   41.1690   26.3940   44.2690 C   0  0  0  0  0  0  0  0  0  0  0  0
   39.9240   26.7850   43.7620 C   0  0  0  0  0  0  0  0  0  0  0  0
   39.8250   27.9810   43.0670 C   0  0  0  0  0  0  0  0  0  0  0  0
   40.9550   28.7390   42.9030 N   0  0  0  0  0  0  0  0  0  0  0  0
   42.1440   28.3180   43.4140 C   0  0  0  0  0  0  0  0  0  0  0  0
   42.2440   27.1600   44.0880 N   0  0  0  0  0  0  0  0  0  0  0  0
   36.4060   30.8180   40.9500 C   0  0  0  0  0  0  0  0  0  0  0  0
   36.2280   30.5800   39.4820 C   0  0  0  0  0  0  0  0  0  0  0  0
   36.9780   31.6050   38.7760 N   0  0  0  0  0  0  0  0  0  0  0  0
   37.9820   31.2350   37.8520 C   0  0  0  0  0  0  0  0  0  0  0  0
   38.6260   30.1280   38.0010 N   0  0  0  0  0  0  0  0  0  0  0  0
   38.2840   32.0840   36.7510 N   0  0  0  0  0  0  0  0  0  0  0  0
   39.3700   29.8250   37.3400 H   0  0  0  0  0  0  0  0  0  0  0  0
   37.2956   26.7189   42.8276 H   0  0  0  0  0  0  0  0  0  0  0  0
   35.4171   28.2558   41.6738 H   0  0  0  0  0  0  0  0  0  0  0  0
   41.2604   25.4470   44.8211 H   0  0  0  0  0  0  0  0  0  0  0  0
   39.0368   26.1525   43.9128 H   0  0  0  0  0  0  0  0  0  0  0  0
   43.0413   28.9383   43.2724 H   0  0  0  0  0  0  0  0  0  0  0  0
   35.4160   30.9288   41.4164 H   0  0  0  0  0  0  0  0  0  0  0  0
   37.0058   31.7308   41.0806 H   0  0  0  0  0  0  0  0  0  0  0  0
   36.6108   29.5841   39.2145 H   0  0  0  0  0  0  0  0  0  0  0  0
   35.1631   30.6246   39.2100 H   0  0  0  0  0  0  0  0  0  0  0  0
   36.7782   32.6006   38.9487 H   0  0  0  0  0  0  0  0  0  0  0  0
   37.7722   32.9693   36.6278 H   0  0  0  0  0  0  0  0  0  0  0  0
   39.0144   31.8133   36.0771 H   0  0  0  0  0  0  0  0  0  0  0  0
  1  8  1  0
  2  1  1  0
  3  2  2  0
  4  3  1  0
  4  5  1  0
  5  1  2  0
  7  6  2  0
  8  7  1  0
  9  8  2  0
  9 10  1  0
 10 11  2  0
 11  6  1  0
 12  4  1  0
 13 12  1  0
 14 13  1  0
 15 16  2  0
 15 14  1  0
 17 15  1  0
 18 16  1  0
  2 19  1  0
  3 20  1  0
  6 21  1  0
  7 22  1  0
 10 23  1  0
 12 24  1  0
 12 25  1  0
 13 26  1  0
 13 27  1  0
 14 28  1  0
 17 29  1  0
 17 30  1  0
M  ISO  8  19  14  20  14  21  14  22  14  23  14  24   8  25   8  26   8
M  ISO  1  27   8
M  END
>  <minimizedAffinity>  (1) 
-4.30634117

>  <minimizedRMSD>  (1) 
1.80566192

$$$$
