
     RDKit          3D

 34 37  0  0  0  0  0  0  0  0999 V2000
   36.9400   29.5020   41.6020 C   0  0  0  0  0  0  0  0  0  0  0  0
   38.3680   29.4740   41.4150 C   0  0  0  0  0  0  0  0  0  0  0  0
   38.9820   30.5690   40.8710 C   0  0  0  0  0  0  0  0  0  0  0  0
   38.1880   31.6320   40.5350 N   0  0  0  0  0  0  0  0  0  0  0  0
   36.8440   31.6320   40.7190 C   0  0  0  0  0  0  0  0  0  0  0  0
   36.2200   30.5680   41.2530 N   0  0  0  0  0  0  0  0  0  0  0  0
   39.0370   28.2570   41.8210 C   0  0  0  0  0  0  0  0  0  0  0  0
   39.1180   27.1870   40.8670 C   0  0  0  0  0  0  0  0  0  0  0  0
   40.0310   25.8570   41.7750 S   0  0  0  0  0  0  0  0  0  0  0  0
   40.1330   27.0250   43.3020 C   0  0  0  0  0  0  0  0  0  0  0  0
   39.6090   27.9460   42.9550 N   0  0  0  0  0  0  0  0  0  0  0  0
   40.7960   26.5760   44.5180 N   0  0  0  0  0  0  0  0  0  0  0  0
   42.0750   27.1400   44.7550 C   0  0  0  0  0  0  0  0  0  0  0  0
   42.6980   27.6370   43.7580 N   0  0  0  0  0  0  0  0  0  0  0  0
   42.5840   27.1120   46.0810 N   0  0  0  0  0  0  0  0  0  0  0  0
   43.6390   28.0540   43.9220 H   0  0  0  0  0  0  0  0  0  0  0  0
   40.4160   30.6890   40.6310 C   0  0  0  0  0  0  0  0  0  0  0  0
   41.4520   30.0680   40.1460 N   0  0  0  0  0  0  0  0  0  0  0  0
   42.5230   30.7660   40.2360 O   0  0  0  0  0  0  0  0  0  0  0  0
   42.3080   31.8990   40.7800 C   0  0  0  0  0  0  0  0  0  0  0  0
   41.0130   31.8520   41.0230 N   0  0  0  0  0  0  0  0  0  0  0  0
   43.1460   33.0200   41.1040 N   0  0  0  0  0  0  0  0  0  0  0  0
   44.4630   33.0790   40.8550 C   0  0  0  0  0  0  0  0  0  0  0  0
   44.9240   34.2640   41.2840 N   0  0  0  0  0  0  0  0  0  0  0  0
   43.8740   34.9540   41.8070 C   0  0  0  0  0  0  0  0  0  0  0  0
   42.7730   34.1530   41.6820 N   0  0  0  0  0  0  0  0  0  0  0  0
   36.4350   28.6286   42.0404 H   0  0  0  0  0  0  0  0  0  0  0  0
   36.2566   32.5151   40.4271 H   0  0  0  0  0  0  0  0  0  0  0  0
   38.7290   27.1632   39.8384 H   0  0  0  0  0  0  0  0  0  0  0  0
   40.3659   25.8961   45.1612 H   0  0  0  0  0  0  0  0  0  0  0  0
   43.5101   27.5136   46.2857 H   0  0  0  0  0  0  0  0  0  0  0  0
   42.0269   26.6901   46.8377 H   0  0  0  0  0  0  0  0  0  0  0  0
   45.0634   32.2894   40.3795 H   0  0  0  0  0  0  0  0  0  0  0  0
   43.9051   35.9622   42.2459 H   0  0  0  0  0  0  0  0  0  0  0  0
  2  1  2  0
  2  7  1  0
  3  2  1  0
  4  5  1  0
  4  3  2  0
  5  6  2  0
  6  1  1  0
  7 11  1  0
  8  9  1  0
  8  7  2  0
  9 10  1  0
 10 12  1  0
 11 10  2  0
 12 13  1  0
 13 15  1  0
 14 16  1  0
 14 13  2  0
 17  3  1  0
 17 21  1  0
 18 19  1  0
 18 17  2  0
 19 20  1  0
 20 21  2  0
 20 22  1  0
 22 26  1  0
 23 22  1  0
 23 24  2  0
 24 25  1  0
 26 25  2  0
  1 27  1  0
  5 28  1  0
  8 29  1  0
 12 30  1  0
 15 31  1  0
 15 32  1  0
 23 33  1  0
 25 34  1  0
M  ISO  5  27  14  28  14  29  14  33  14  34  14
M  END
>  <minimizedAffinity>  (1) 
-5.63596106

>  <minimizedRMSD>  (1) 
0.753348112

$$$$
