
     RDKit          3D

 44 47  0  0  0  0  0  0  0  0999 V2000
   36.8200   29.8550   39.8350 C   0  0  0  0  0  0  0  0  0  0  0  0
   37.6930   30.9390   39.8610 C   0  0  0  0  0  0  0  0  0  0  0  0
   38.3270   30.8940   41.0290 N   0  0  0  0  0  0  0  0  0  0  0  0
   37.9310   29.8530   41.7740 C   0  0  0  0  0  0  0  0  0  0  0  0
   38.3480   29.4630   43.0380 C   0  0  0  0  0  0  0  0  0  0  0  0
   37.7480   28.3240   43.5620 C   0  0  0  0  0  0  0  0  0  0  0  0
   36.7780   27.6130   42.8520 C   0  0  0  0  0  0  0  0  0  0  0  0
   36.3860   28.0260   41.5990 C   0  0  0  0  0  0  0  0  0  0  0  0
   36.9670   29.1640   41.0430 C   0  0  0  0  0  0  0  0  0  0  0  0
   33.7820   28.8120   38.1070 C   0  0  0  0  0  0  0  0  0  0  0  0
   34.1950   28.7700   36.7350 C   0  0  0  0  0  0  0  0  0  0  0  0
   35.5170   29.1040   36.4370 C   0  0  0  0  0  0  0  0  0  0  0  0
   36.3260   29.4460   37.4600 N   0  0  0  0  0  0  0  0  0  0  0  0
   35.9010   29.4750   38.7540 C   0  0  0  0  0  0  0  0  0  0  0  0
   34.6500   29.1640   39.0740 N   0  0  0  0  0  0  0  0  0  0  0  0
   39.3010   31.8930   41.3490 C   0  0  0  0  0  0  0  0  0  0  0  0
   38.9420   33.2840   40.9510 C   0  0  0  0  0  0  0  0  0  0  0  0
   40.0400   33.7110   40.0480 N   0  0  0  0  0  0  0  0  0  0  0  0
   40.3950   33.0670   38.9590 N   0  0  0  0  0  0  0  0  0  0  0  0
   41.4190   33.7080   38.3610 C   0  0  0  0  0  0  0  0  0  0  0  0
   41.7140   34.8380   39.1510 C   0  0  0  0  0  0  0  0  0  0  0  0
   40.8180   34.8080   40.2150 C   0  0  0  0  0  0  0  0  0  0  0  0
   40.7430   35.7510   41.2610 N   0  0  0  0  0  0  0  0  0  0  0  0
   41.8880   36.1290   42.0540 C   0  0  0  0  0  0  0  0  0  0  0  0
   42.7140   35.1470   42.3250 N   0  0  0  0  0  0  0  0  0  0  0  0
   41.9960   37.5090   42.4520 N   0  0  0  0  0  0  0  0  0  0  0  0
   43.5680   35.3780   42.9040 H   0  0  0  0  0  0  0  0  0  0  0  0
   37.8317   31.6886   39.0679 H   0  0  0  0  0  0  0  0  0  0  0  0
   39.1121   30.0246   43.5955 H   0  0  0  0  0  0  0  0  0  0  0  0
   38.0448   27.9736   44.5616 H   0  0  0  0  0  0  0  0  0  0  0  0
   36.3237   26.7158   43.2978 H   0  0  0  0  0  0  0  0  0  0  0  0
   35.6220   27.4636   41.0422 H   0  0  0  0  0  0  0  0  0  0  0  0
   32.7461   28.5542   38.3723 H   0  0  0  0  0  0  0  0  0  0  0  0
   33.4907   28.4830   35.9403 H   0  0  0  0  0  0  0  0  0  0  0  0
   35.8869   29.0887   35.4012 H   0  0  0  0  0  0  0  0  0  0  0  0
   39.4555   31.8804   42.4380 H   0  0  0  0  0  0  0  0  0  0  0  0
   40.2018   31.6349   40.7728 H   0  0  0  0  0  0  0  0  0  0  0  0
   37.9770   33.3000   40.4233 H   0  0  0  0  0  0  0  0  0  0  0  0
   38.8329   33.9509   41.8189 H   0  0  0  0  0  0  0  0  0  0  0  0
   41.9276   33.4068   37.4333 H   0  0  0  0  0  0  0  0  0  0  0  0
   42.4942   35.5906   38.9641 H   0  0  0  0  0  0  0  0  0  0  0  0
   39.8334   36.1880   41.4675 H   0  0  0  0  0  0  0  0  0  0  0  0
   42.7979   37.8204   43.0186 H   0  0  0  0  0  0  0  0  0  0  0  0
   41.2714   38.1845   42.1701 H   0  0  0  0  0  0  0  0  0  0  0  0
  1  2  2  0
  1  9  1  0
  2  3  1  0
  3 16  1  0
  3  4  1  0
  4  5  2  0
  5  6  1  0
  7  6  2  0
  8  7  1  0
  9  8  2  0
  9  4  1  0
 10 15  2  0
 11 10  1  0
 12 11  2  0
 12 13  1  0
 13 14  2  0
 14 15  1  0
 14  1  1  0
 17 16  1  0
 18 22  1  0
 18 17  1  0
 19 18  1  0
 20 19  2  0
 20 21  1  0
 21 22  2  0
 22 23  1  0
 23 24  1  0
 24 25  2  0
 24 26  1  0
 25 27  1  0
  2 28  1  0
  5 29  1  0
  6 30  1  0
  7 31  1  0
  8 32  1  0
 10 33  1  0
 11 34  1  0
 12 35  1  0
 16 36  1  0
 16 37  1  0
 17 38  1  0
 17 39  1  0
 20 40  1  0
 21 41  1  0
 23 42  1  0
 26 43  1  0
 26 44  1  0
M  ISO  8  28  14  29  14  30  14  31  14  32  14  33  14  34  14  35  14
M  ISO  6  36   8  37   8  38   8  39   8  40  14  41  14
M  END
>  <minimizedAffinity>  (1) 
-6.71261644

>  <minimizedRMSD>  (1) 
1.86744726

$$$$
