
     RDKit          3D

 20 20  0  0  0  0  0  0  0  0999 V2000
   38.5340   28.7760   43.1880 C   0  0  0  0  0  0  0  0  0  0  0  0
   37.6520   27.6700   43.0850 C   0  0  0  0  0  0  0  0  0  0  0  0
   36.5500   27.8070   42.2300 C   0  0  0  0  0  0  0  0  0  0  0  0
   36.3890   28.9750   41.5600 N   0  0  0  0  0  0  0  0  0  0  0  0
   37.2520   30.0110   41.6830 C   0  0  0  0  0  0  0  0  0  0  0  0
   38.3210   29.9030   42.5010 N   0  0  0  0  0  0  0  0  0  0  0  0
   36.8460   31.0670   40.8910 O   0  0  0  0  0  0  0  0  0  0  0  0
   37.5260   31.5300   39.7610 C   0  0  0  0  0  0  0  0  0  0  0  0
   36.8940   30.9870   38.4900 C   0  0  0  0  0  0  0  0  0  0  0  0
   37.3490   33.0510   39.7420 C   0  0  0  0  0  0  0  0  0  0  0  0
   39.4118   28.7050   43.8471 H   0  0  0  0  0  0  0  0  0  0  0  0
   37.8256   26.7437   43.6523 H   0  0  0  0  0  0  0  0  0  0  0  0
   35.8306   26.9843   42.1050 H   0  0  0  0  0  0  0  0  0  0  0  0
   38.5791   31.2148   39.8027 H   0  0  0  0  0  0  0  0  0  0  0  0
   36.0837   30.2908   38.7520 H   0  0  0  0  0  0  0  0  0  0  0  0
   36.4851   31.8198   37.8991 H   0  0  0  0  0  0  0  0  0  0  0  0
   37.6558   30.4574   37.8991 H   0  0  0  0  0  0  0  0  0  0  0  0
   37.3051   33.4280   40.7745 H   0  0  0  0  0  0  0  0  0  0  0  0
   38.1995   33.5126   39.2189 H   0  0  0  0  0  0  0  0  0  0  0  0
   36.4152   33.3050   39.2189 H   0  0  0  0  0  0  0  0  0  0  0  0
  2  1  2  0
  3  2  1  0
  4  5  1  0
  4  3  2  0
  5  6  2  0
  6  1  1  0
  7  5  1  0
  8  7  1  0
  9  8  1  0
 10  8  1  0
  1 11  1  0
  2 12  1  0
  3 13  1  0
  8 14  1  0
  9 15  1  0
  9 16  1  0
  9 17  1  0
 10 18  1  0
 10 19  1  0
 10 20  1  0
M  ISO  8  11  14  12  14  13  14  14   8  15   8  16   8  17   8  18   8
M  ISO  2  19   8  20   8
M  END
>  <minimizedAffinity>  (1) 
-3.21332502

>  <minimizedRMSD>  (1) 
1.30547118

$$$$
