
     RDKit          3D

 24 25  0  0  0  0  0  0  0  0999 V2000
   39.3890   26.3260   42.8470 C   0  0  0  0  0  0  0  0  0  0  0  0
   38.6010   25.3020   42.4450 C   0  0  0  0  0  0  0  0  0  0  0  0
   37.3760   25.8150   42.0530 C   0  0  0  0  0  0  0  0  0  0  0  0
   37.5000   27.1610   42.2460 N   0  0  0  0  0  0  0  0  0  0  0  0
   38.6790   27.4560   42.7100 N   0  0  0  0  0  0  0  0  0  0  0  0
   42.9480   25.2820   43.2480 C   0  0  0  0  0  0  0  0  0  0  0  0
   41.6500   25.3370   42.7350 C   0  0  0  0  0  0  0  0  0  0  0  0
   40.7450   26.2250   43.3330 C   0  0  0  0  0  0  0  0  0  0  0  0
   41.1490   26.9910   44.3700 N   0  0  0  0  0  0  0  0  0  0  0  0
   42.4310   26.9000   44.8360 C   0  0  0  0  0  0  0  0  0  0  0  0
   43.3160   26.0510   44.2730 N   0  0  0  0  0  0  0  0  0  0  0  0
   36.3820   28.0330   41.9320 C   0  0  0  0  0  0  0  0  0  0  0  0
   36.1340   28.1370   40.4550 C   0  0  0  0  0  0  0  0  0  0  0  0
   37.3190   29.3340   39.7880 S   0  0  0  0  0  0  0  0  0  0  0  0
   38.8859   24.2396   42.4318 H   0  0  0  0  0  0  0  0  0  0  0  0
   36.5029   25.2642   41.6731 H   0  0  0  0  0  0  0  0  0  0  0  0
   43.6785   24.5930   42.7990 H   0  0  0  0  0  0  0  0  0  0  0  0
   41.3474   24.7034   41.8883 H   0  0  0  0  0  0  0  0  0  0  0  0
   42.7458   27.5281   45.6824 H   0  0  0  0  0  0  0  0  0  0  0  0
   35.4773   27.6351   42.4149 H   0  0  0  0  0  0  0  0  0  0  0  0
   36.6274   29.0393   42.3023 H   0  0  0  0  0  0  0  0  0  0  0  0
   36.2823   27.1564   39.9791 H   0  0  0  0  0  0  0  0  0  0  0  0
   35.1018   28.4616   40.2570 H   0  0  0  0  0  0  0  0  0  0  0  0
   37.9523   29.9737   40.8208 H   0  0  0  0  0  0  0  0  0  0  0  0
  1  8  1  0
  2  1  1  0
  3  4  1  0
  3  2  2  0
  4  5  1  0
  5  1  2  0
  6 11  2  0
  7  6  1  0
  7  8  2  0
  8  9  1  0
  9 10  2  0
 11 10  1  0
 12  4  1  0
 13 12  1  0
 14 13  1  0
  2 15  1  0
  3 16  1  0
  6 17  1  0
  7 18  1  0
 10 19  1  0
 12 20  1  0
 12 21  1  0
 13 22  1  0
 13 23  1  0
 14 24  1  0
M  ISO  8  15  14  16  14  17  14  18  14  19  14  20   8  21   8  22   8
M  ISO  2  23   8  24  11
M  END
>  <minimizedAffinity>  (1) 
-3.1983223

>  <minimizedRMSD>  (1) 
2.20909739

$$$$
