
     RDKit          3D

 35 38  0  0  0  0  0  0  0  0999 V2000
   37.4300   33.7840   40.0160 N   0  0  0  0  0  0  0  0  0  0  0  0
   37.8420   35.0150   39.7800 N   0  0  0  0  0  0  0  0  0  0  0  0
   39.0690   35.1770   40.3100 C   0  0  0  0  0  0  0  0  0  0  0  0
   39.3540   33.9560   40.8750 C   0  0  0  0  0  0  0  0  0  0  0  0
   38.2980   33.0580   40.6860 C   0  0  0  0  0  0  0  0  0  0  0  0
   38.3800   31.7350   41.2180 C   0  0  0  0  0  0  0  0  0  0  0  0
   39.4450   31.3870   41.9760 N   0  0  0  0  0  0  0  0  0  0  0  0
   39.6470   30.2100   42.5430 C   0  0  0  0  0  0  0  0  0  0  0  0
   38.7750   29.2070   42.4140 N   0  0  0  0  0  0  0  0  0  0  0  0
   37.6630   29.4330   41.6740 C   0  0  0  0  0  0  0  0  0  0  0  0
   36.7370   28.4380   41.5090 C   0  0  0  0  0  0  0  0  0  0  0  0
   35.5850   28.6360   40.7560 C   0  0  0  0  0  0  0  0  0  0  0  0
   35.4310   29.9000   40.1810 C   0  0  0  0  0  0  0  0  0  0  0  0
   36.3990   30.8380   40.3910 C   0  0  0  0  0  0  0  0  0  0  0  0
   37.5310   30.6740   41.1220 C   0  0  0  0  0  0  0  0  0  0  0  0
   40.1970   36.5610   40.3890 S   0  0  0  0  0  0  0  0  0  0  0  0
   43.5210   34.6890   41.5530 C   0  0  0  0  0  0  0  0  0  0  0  0
   43.8970   35.3640   42.7060 C   0  0  0  0  0  0  0  0  0  0  0  0
   43.1190   36.4250   43.1530 C   0  0  0  0  0  0  0  0  0  0  0  0
   42.0150   36.7530   42.4270 N   0  0  0  0  0  0  0  0  0  0  0  0
   41.6750   36.0720   41.3020 C   0  0  0  0  0  0  0  0  0  0  0  0
   42.4260   35.0580   40.8860 N   0  0  0  0  0  0  0  0  0  0  0  0
   43.5120   37.1360   44.3630 C   0  0  0  0  0  0  0  0  0  0  0  0
   44.1870   38.1830   44.1950 O   0  0  0  0  0  0  0  0  0  0  0  0
   43.1410   36.6530   45.6110 O   0  0  0  0  0  0  0  0  0  0  0  0
   36.5157   33.4258   39.7051 H   0  0  0  0  0  0  0  0  0  0  0  0
   40.2879   33.7172   41.4049 H   0  0  0  0  0  0  0  0  0  0  0  0
   40.5589   30.0525   43.1377 H   0  0  0  0  0  0  0  0  0  0  0  0
   36.9083   27.4601   41.9827 H   0  0  0  0  0  0  0  0  0  0  0  0
   34.8364   27.8415   40.6205 H   0  0  0  0  0  0  0  0  0  0  0  0
   34.5463   30.1343   39.5707 H   0  0  0  0  0  0  0  0  0  0  0  0
   36.2477   31.8219   39.9230 H   0  0  0  0  0  0  0  0  0  0  0  0
   44.1277   33.8472   41.1880 H   0  0  0  0  0  0  0  0  0  0  0  0
   44.7991   35.0630   43.2587 H   0  0  0  0  0  0  0  0  0  0  0  0
   43.4103   37.1394   46.4301 H   0  0  0  0  0  0  0  0  0  0  0  0
  1  5  1  0
  2  1  1  0
  2  3  2  0
  3 16  1  0
  3  4  1  0
  5  4  2  0
  5  6  1  0
  6  7  2  0
  7  8  1  0
  9  8  2  0
 10  9  1  0
 11 10  2  0
 12 11  1  0
 13 14  1  0
 13 12  2  0
 14 15  2  0
 15  6  1  0
 15 10  1  0
 16 21  1  0
 17 18  2  0
 18 19  1  0
 19 23  1  0
 20 19  2  0
 21 20  1  0
 22 21  2  0
 22 17  1  0
 23 25  1  0
 24 23  2  0
  1 26  1  0
  4 27  1  0
  8 28  1  0
 11 29  1  0
 12 30  1  0
 13 31  1  0
 14 32  1  0
 17 33  1  0
 18 34  1  0
 25 35  1  0
M  END
>  <minimizedAffinity>  (1) 
-7.85006189

>  <minimizedRMSD>  (1) 
0.957091033

$$$$
