
     RDKit          3D

 40 43  0  0  0  0  0  0  0  0999 V2000
   36.7520   29.9380   39.7730 C   0  0  0  0  0  0  0  0  0  0  0  0
   37.5830   31.0590   39.7980 C   0  0  0  0  0  0  0  0  0  0  0  0
   38.2270   31.0430   40.9580 N   0  0  0  0  0  0  0  0  0  0  0  0
   37.8770   29.9860   41.6990 C   0  0  0  0  0  0  0  0  0  0  0  0
   38.3150   29.6060   42.9600 C   0  0  0  0  0  0  0  0  0  0  0  0
   37.7700   28.4450   43.4890 C   0  0  0  0  0  0  0  0  0  0  0  0
   36.8270   27.6990   42.7830 C   0  0  0  0  0  0  0  0  0  0  0  0
   36.4070   28.0960   41.5330 C   0  0  0  0  0  0  0  0  0  0  0  0
   36.9350   29.2480   40.9850 C   0  0  0  0  0  0  0  0  0  0  0  0
   33.7360   28.8010   38.0540 C   0  0  0  0  0  0  0  0  0  0  0  0
   34.1290   28.7590   36.6970 C   0  0  0  0  0  0  0  0  0  0  0  0
   35.4370   29.1250   36.3960 C   0  0  0  0  0  0  0  0  0  0  0  0
   36.2400   29.4960   37.4150 N   0  0  0  0  0  0  0  0  0  0  0  0
   35.8400   29.5270   38.6990 C   0  0  0  0  0  0  0  0  0  0  0  0
   34.5950   29.1810   39.0060 N   0  0  0  0  0  0  0  0  0  0  0  0
   39.1590   32.0840   41.2710 C   0  0  0  0  0  0  0  0  0  0  0  0
   38.7920   33.4380   40.7420 C   0  0  0  0  0  0  0  0  0  0  0  0
   39.9540   33.8320   39.9080 N   0  0  0  0  0  0  0  0  0  0  0  0
   40.6550   32.9990   39.1560 N   0  0  0  0  0  0  0  0  0  0  0  0
   41.6370   33.6490   38.5250 C   0  0  0  0  0  0  0  0  0  0  0  0
   41.5600   34.9950   38.9010 C   0  0  0  0  0  0  0  0  0  0  0  0
   40.4860   35.0470   39.7690 C   0  0  0  0  0  0  0  0  0  0  0  0
   40.0570   36.2730   40.3950 C   0  0  0  0  0  0  0  0  0  0  0  0
   39.1500   37.0290   39.9840 O   0  0  0  0  0  0  0  0  0  0  0  0
   40.5650   36.8320   41.5530 O   0  0  0  0  0  0  0  0  0  0  0  0
   37.6850   31.8142   39.0048 H   0  0  0  0  0  0  0  0  0  0  0  0
   39.0590   30.1974   43.5138 H   0  0  0  0  0  0  0  0  0  0  0  0
   38.0884   28.1060   44.4859 H   0  0  0  0  0  0  0  0  0  0  0  0
   36.4137   26.7827   43.2297 H   0  0  0  0  0  0  0  0  0  0  0  0
   35.6625   27.5046   40.9798 H   0  0  0  0  0  0  0  0  0  0  0  0
   32.7099   28.5173   38.3308 H   0  0  0  0  0  0  0  0  0  0  0  0
   33.4273   28.4487   35.9088 H   0  0  0  0  0  0  0  0  0  0  0  0
   35.8052   29.1123   35.3595 H   0  0  0  0  0  0  0  0  0  0  0  0
   39.2379   32.1545   42.3659 H   0  0  0  0  0  0  0  0  0  0  0  0
   40.1058   31.8080   40.7838 H   0  0  0  0  0  0  0  0  0  0  0  0
   37.8765   33.3842   40.1345 H   0  0  0  0  0  0  0  0  0  0  0  0
   38.5857   34.1614   41.5446 H   0  0  0  0  0  0  0  0  0  0  0  0
   42.3718   33.2071   37.8359 H   0  0  0  0  0  0  0  0  0  0  0  0
   42.2076   35.8236   38.5786 H   0  0  0  0  0  0  0  0  0  0  0  0
   40.1935   37.6831   41.8961 H   0  0  0  0  0  0  0  0  0  0  0  0
  1  2  2  0
  1  9  1  0
  2  3  1  0
  3 16  1  0
  3  4  1  0
  4  5  2  0
  5  6  1  0
  7  6  2  0
  8  7  1  0
  9  8  2  0
  9  4  1  0
 10 15  2  0
 11 10  1  0
 12 11  2  0
 12 13  1  0
 13 14  2  0
 14 15  1  0
 14  1  1  0
 17 16  1  0
 18 17  1  0
 19 18  1  0
 20 21  1  0
 20 19  2  0
 21 22  2  0
 22 18  1  0
 22 23  1  0
 23 25  1  0
 24 23  2  0
  2 26  1  0
  5 27  1  0
  6 28  1  0
  7 29  1  0
  8 30  1  0
 10 31  1  0
 11 32  1  0
 12 33  1  0
 16 34  1  0
 16 35  1  0
 17 36  1  0
 17 37  1  0
 20 38  1  0
 21 39  1  0
 25 40  1  0
M  ISO  8  26  14  27  14  28  14  29  14  30  14  31  14  32  14  33  14
M  ISO  7  34   8  35   8  36   8  37   8  38  14  39  14  40   3
M  END
>  <minimizedAffinity>  (1) 
-6.32221127

>  <minimizedRMSD>  (1) 
1.16964984

$$$$
