
     RDKit          3D

 27 29  0  0  0  0  0  0  0  0999 V2000
   37.8090   29.2990   41.6090 C   0  0  0  0  0  0  0  0  0  0  0  0
   38.0240   29.3800   42.9790 C   0  0  0  0  0  0  0  0  0  0  0  0
   37.8460   28.1570   43.5220 N   0  0  0  0  0  0  0  0  0  0  0  0
   37.5230   27.2710   42.5720 C   0  0  0  0  0  0  0  0  0  0  0  0
   37.2380   25.9130   42.5680 C   0  0  0  0  0  0  0  0  0  0  0  0
   36.9230   25.2250   41.3860 C   0  0  0  0  0  0  0  0  0  0  0  0
   36.9110   25.9740   40.2240 C   0  0  0  0  0  0  0  0  0  0  0  0
   37.1930   27.3130   40.2300 C   0  0  0  0  0  0  0  0  0  0  0  0
   37.5000   27.9840   41.3780 C   0  0  0  0  0  0  0  0  0  0  0  0
   36.9930   32.4140   39.7380 C   0  0  0  0  0  0  0  0  0  0  0  0
   36.9190   31.3650   40.6800 C   0  0  0  0  0  0  0  0  0  0  0  0
   37.8930   30.3670   40.6410 C   0  0  0  0  0  0  0  0  0  0  0  0
   38.8530   30.4770   39.6880 N   0  0  0  0  0  0  0  0  0  0  0  0
   38.9110   31.4740   38.8040 C   0  0  0  0  0  0  0  0  0  0  0  0
   37.9710   32.4590   38.8210 N   0  0  0  0  0  0  0  0  0  0  0  0
   39.9710   31.5320   37.8030 C   0  0  0  0  0  0  0  0  0  0  0  0
   41.0050   30.8200   37.8830 O   0  0  0  0  0  0  0  0  0  0  0  0
   39.8520   32.3920   36.7270 O   0  0  0  0  0  0  0  0  0  0  0  0
   38.2951   30.2919   43.5312 H   0  0  0  0  0  0  0  0  0  0  0  0
   37.9446   27.9372   44.5234 H   0  0  0  0  0  0  0  0  0  0  0  0
   37.2596   25.3598   43.5185 H   0  0  0  0  0  0  0  0  0  0  0  0
   36.6979   24.1483   41.3842 H   0  0  0  0  0  0  0  0  0  0  0  0
   36.6687   25.4813   39.2708 H   0  0  0  0  0  0  0  0  0  0  0  0
   37.1716   27.8660   39.2794 H   0  0  0  0  0  0  0  0  0  0  0  0
   36.2339   33.2099   39.7564 H   0  0  0  0  0  0  0  0  0  0  0  0
   36.1123   31.3353   41.4272 H   0  0  0  0  0  0  0  0  0  0  0  0
   39.0494   32.9647   36.6374 H   0  0  0  0  0  0  0  0  0  0  0  0
  1  2  2  0
  2  3  1  0
  4  3  1  0
  5  4  2  0
  6  5  1  0
  7  8  1  0
  7  6  2  0
  8  9  2  0
  9  1  1  0
  9  4  1  0
 10 11  2  0
 12 11  1  0
 12  1  1  0
 13 12  2  0
 14 15  2  0
 14 13  1  0
 15 10  1  0
 16 17  2  0
 16 14  1  0
 18 16  1  0
  2 19  1  0
  3 20  1  0
  5 21  1  0
  6 22  1  0
  7 23  1  0
  8 24  1  0
 10 25  1  0
 11 26  1  0
 18 27  1  0
M  ISO  8  19  14  20   9  21  14  22  14  23  14  24  14  25  14  26  14
M  ISO  1  27   3
M  END
>  <minimizedAffinity>  (1) 
-5.35772467

>  <minimizedRMSD>  (1) 
2.57564163

$$$$
