
     RDKit          3D

 36 38  0  0  1  0  0  0  0  0999 V2000
   37.8250   30.1500   40.5440 C   0  0  0  0  0  0  0  0  0  0  0  0
   38.3680   29.7050   41.7470 C   0  0  0  0  0  0  0  0  0  0  0  0
   39.2970   30.5550   42.3990 C   0  0  0  0  0  0  0  0  0  0  0  0
   39.6130   31.7450   41.8320 N   0  0  0  0  0  0  0  0  0  0  0  0
   39.0570   32.1380   40.6530 C   0  0  0  0  0  0  0  0  0  0  0  0
   38.1620   31.3420   40.0080 N   0  0  0  0  0  0  0  0  0  0  0  0
   36.8780   29.5130   39.7200 N   0  0  0  0  0  0  0  0  0  0  0  0
   36.0150   28.3510   39.7310 C   0  0  0  0  0  0  0  0  0  0  0  0
   35.0410   28.5140   38.6260 C   0  0  0  0  0  0  0  0  0  0  0  0
   35.6640   29.4670   37.6610 C   0  0  0  0  0  0  0  0  0  0  0  0
   36.6480   30.2270   38.4550 C   0  0  0  0  0  0  0  0  0  0  0  0
   38.0470   28.4940   42.3240 N   0  0  0  0  0  0  0  0  0  0  0  0
   38.8170   27.2540   42.2770 C   0  0  0  0  0  0  0  0  0  0  0  0
   37.7980   26.1640   42.3540 C   0  0  0  0  0  0  0  0  0  0  0  0
   36.4970   26.8410   42.5920 C   0  0  0  0  0  0  0  0  0  0  0  0
   36.8740   28.1830   43.1070 C   0  0  1  0  0  0  0  0  0  0  0  0
   37.3320   28.0610   44.5190 C   0  0  0  0  0  0  0  0  0  0  0  0
   36.4990   28.1480   45.4010 O   0  0  0  0  0  0  0  0  0  0  0  0
   39.7552   30.2527   43.3523 H   0  0  0  0  0  0  0  0  0  0  0  0
   39.3344   33.1093   40.2174 H   0  0  0  0  0  0  0  0  0  0  0  0
   36.6101   27.4388   39.5766 H   0  0  0  0  0  0  0  0  0  0  0  0
   35.4963   28.2607   40.6968 H   0  0  0  0  0  0  0  0  0  0  0  0
   34.8517   27.5463   38.1383 H   0  0  0  0  0  0  0  0  0  0  0  0
   34.0751   28.8898   38.9944 H   0  0  0  0  0  0  0  0  0  0  0  0
   34.9044   30.1414   37.2388 H   0  0  0  0  0  0  0  0  0  0  0  0
   36.1316   28.9477   36.8115 H   0  0  0  0  0  0  0  0  0  0  0  0
   37.5926   30.3072   37.8971 H   0  0  0  0  0  0  0  0  0  0  0  0
   36.2682   31.2393   38.6572 H   0  0  0  0  0  0  0  0  0  0  0  0
   39.3850   27.1868   41.3374 H   0  0  0  0  0  0  0  0  0  0  0  0
   39.5514   27.1920   43.0936 H   0  0  0  0  0  0  0  0  0  0  0  0
   37.7690   25.5996   41.4103 H   0  0  0  0  0  0  0  0  0  0  0  0
   38.0329   25.4464   43.1540 H   0  0  0  0  0  0  0  0  0  0  0  0
   35.9257   26.9285   41.6561 H   0  0  0  0  0  0  0  0  0  0  0  0
   35.8547   26.2861   43.2917 H   0  0  0  0  0  0  0  0  0  0  0  0
   36.0529   28.9128   43.0508 H   0  0  0  0  0  0  0  0  0  0  0  0
   38.3933   27.8969   44.7573 H   0  0  0  0  0  0  0  0  0  0  0  0
  1  2  1  0
  2 12  1  0
  2  3  2  0
  4  3  1  0
  5  4  2  0
  6  1  2  0
  6  5  1  0
  7  8  1  0
  7  1  1  0
  9  8  1  0
 10 11  1  0
 10  9  1  0
 11  7  1  0
 12 16  1  0
 13 12  1  0
 13 14  1  0
 14 15  1  0
 15 16  1  0
 16 17  1  0
 17 18  2  0
  3 19  1  0
  5 20  1  0
  8 21  1  0
  8 22  1  0
  9 23  1  0
  9 24  1  0
 10 25  1  0
 10 26  1  0
 11 27  1  0
 11 28  1  0
 13 29  1  0
 13 30  1  0
 14 31  1  0
 14 32  1  0
 15 33  1  0
 15 34  1  0
 16 35  1  1
 17 36  1  0
M  ISO  8  19  14  20  14  21  13  22  13  23  13  24  13  25  13  26  13
M  ISO  8  27  13  28  13  29  13  30  13  31  13  32  13  33  13  34  13
M  ISO  2  35  13  36   6
M  END
>  <minimizedAffinity>  (1) 
-4.65630674

>  <minimizedRMSD>  (1) 
0.638535082

$$$$
