
     RDKit          3D

 38 42  0  0  1  0  0  0  0  0999 V2000
   35.3900   29.5400   40.3870 C   0  0  0  0  0  0  0  0  0  0  0  0
   36.1700   28.6710   41.1780 C   0  0  0  0  0  0  0  0  0  0  0  0
   37.5200   28.9270   41.3170 C   0  0  0  0  0  0  0  0  0  0  0  0
   37.9970   30.0230   40.6660 N   0  0  0  0  0  0  0  0  0  0  0  0
   37.2470   30.8490   39.9130 C   0  0  0  0  0  0  0  0  0  0  0  0
   35.9310   30.5980   39.7770 N   0  0  0  0  0  0  0  0  0  0  0  0
   38.3200   28.0390   42.1100 C   0  0  0  0  0  0  0  0  0  0  0  0
   39.1760   28.3760   43.1540 C   0  0  0  0  0  0  0  0  0  0  0  0
   39.7350   27.2430   43.6460 N   0  0  0  0  0  0  0  0  0  0  0  0
   39.2870   26.1740   42.9740 C   0  0  0  0  0  0  0  0  0  0  0  0
   39.5220   24.8120   43.0630 C   0  0  0  0  0  0  0  0  0  0  0  0
   38.8850   23.9030   42.1980 C   0  0  0  0  0  0  0  0  0  0  0  0
   38.0180   24.4310   41.2580 C   0  0  0  0  0  0  0  0  0  0  0  0
   37.7970   25.7790   41.1820 C   0  0  0  0  0  0  0  0  0  0  0  0
   38.4130   26.6670   42.0240 C   0  0  0  0  0  0  0  0  0  0  0  0
   37.8680   32.0500   39.2580 C   0  0  1  0  0  0  0  0  0  0  0  0
   37.2130   33.4120   39.5600 C   0  0  0  0  0  0  0  0  0  0  0  0
   38.5300   33.0530   40.1270 C   0  0  2  0  0  0  0  0  0  0  0  0
   39.7600   33.7420   39.6930 C   0  0  0  0  0  0  0  0  0  0  0  0
   40.2480   34.9080   40.1210 N   0  0  0  0  0  0  0  0  0  0  0  0
   41.3540   35.1870   39.4840 O   0  0  0  0  0  0  0  0  0  0  0  0
   41.6320   34.2280   38.6240 C   0  0  0  0  0  0  0  0  0  0  0  0
   40.6220   33.3220   38.7630 N   0  0  0  0  0  0  0  0  0  0  0  0
   42.7940   34.2190   37.7500 C   0  0  0  0  0  0  0  0  0  0  0  0
   43.9090   34.2750   38.3030 O   0  0  0  0  0  0  0  0  0  0  0  0
   34.3142   29.3424   40.2701 H   0  0  0  0  0  0  0  0  0  0  0  0
   35.7109   27.8041   41.6757 H   0  0  0  0  0  0  0  0  0  0  0  0
   39.3679   29.3953   43.5204 H   0  0  0  0  0  0  0  0  0  0  0  0
   40.4079   27.2090   44.4251 H   0  0  0  0  0  0  0  0  0  0  0  0
   40.2199   24.4336   43.8244 H   0  0  0  0  0  0  0  0  0  0  0  0
   39.0683   22.8205   42.2662 H   0  0  0  0  0  0  0  0  0  0  0  0
   37.4985   23.7568   40.5612 H   0  0  0  0  0  0  0  0  0  0  0  0
   37.1022   26.1623   40.4202 H   0  0  0  0  0  0  0  0  0  0  0  0
   38.1577   31.4879   38.3579 H   0  0  0  0  0  0  0  0  0  0  0  0
   37.1393   34.1771   38.7732 H   0  0  0  0  0  0  0  0  0  0  0  0
   36.2473   33.7452   39.9680 H   0  0  0  0  0  0  0  0  0  0  0  0
   38.9370   33.0258   41.1486 H   0  0  0  0  0  0  0  0  0  0  0  0
   42.6937   34.1655   36.6559 H   0  0  0  0  0  0  0  0  0  0  0  0
  1  2  2  0
  2  3  1  0
  3  7  1  0
  4  3  2  0
  5  4  1  0
  6  5  2  0
  6  1  1  0
  7  8  2  0
  8  9  1  0
 10 11  2  0
 10  9  1  0
 12 11  1  0
 13 12  2  0
 14 13  1  0
 14 15  2  0
 15  7  1  0
 15 10  1  0
 16 17  1  0
 16  5  1  0
 16 18  1  0
 17 18  1  0
 19 20  2  0
 19 18  1  0
 21 20  1  0
 22 23  2  0
 22 21  1  0
 23 19  1  0
 24 25  2  0
 24 22  1  0
  1 26  1  0
  2 27  1  0
  8 28  1  0
  9 29  1  0
 11 30  1  0
 12 31  1  0
 13 32  1  0
 14 33  1  0
 16 34  1  6
 17 35  1  0
 17 36  1  0
 18 37  1  1
 24 38  1  0
M  ISO  8  26  14  27  14  28  14  29   9  30  14  31  14  32  14  33  14
M  ISO  5  34  13  35  13  36  13  37  13  38   6
M  END
>  <minimizedAffinity>  (1) 
-6.16953897

>  <minimizedRMSD>  (1) 
1.19606638

$$$$
