
     RDKit          3D

 49 53  0  0  0  0  0  0  0  0999 V2000
   45.7090   34.7470   44.0710 C   0  0  0  0  0  0  0  0  0  0  0  0
   46.7430   33.9980   43.4890 C   0  0  0  0  0  0  0  0  0  0  0  0
   47.3110   32.9140   44.2180 C   0  0  0  0  0  0  0  0  0  0  0  0
   46.8190   32.6620   45.4490 N   0  0  0  0  0  0  0  0  0  0  0  0
   45.8210   33.4040   45.9860 C   0  0  0  0  0  0  0  0  0  0  0  0
   45.2910   34.4160   45.3030 N   0  0  0  0  0  0  0  0  0  0  0  0
   45.1510   35.7960   43.3370 N   0  0  0  0  0  0  0  0  0  0  0  0
   47.2770   34.2720   42.1730 C   0  0  0  0  0  0  0  0  0  0  0  0
   48.3050   35.1500   41.8420 C   0  0  0  0  0  0  0  0  0  0  0  0
   48.6980   35.3030   40.5260 C   0  0  0  0  0  0  0  0  0  0  0  0
   48.0850   34.5890   39.4870 C   0  0  0  0  0  0  0  0  0  0  0  0
   48.5320   34.8010   38.2450 N   0  0  0  0  0  0  0  0  0  0  0  0
   47.9440   34.1110   37.2110 C   0  0  0  0  0  0  0  0  0  0  0  0
   46.9190   33.2360   37.5410 C   0  0  0  0  0  0  0  0  0  0  0  0
   46.4600   33.0180   38.8180 C   0  0  0  0  0  0  0  0  0  0  0  0
   47.0680   33.7240   39.8360 C   0  0  0  0  0  0  0  0  0  0  0  0
   46.6680   33.5650   41.1550 C   0  0  0  0  0  0  0  0  0  0  0  0
   45.3270   33.0340   47.3550 C   0  0  0  0  0  0  0  0  0  0  0  0
   45.5560   31.5590   47.5850 C   0  0  0  0  0  0  0  0  0  0  0  0
   46.8780   31.1890   48.0680 C   0  0  0  0  0  0  0  0  0  0  0  0
   47.7990   31.9000   48.7730 C   0  0  0  0  0  0  0  0  0  0  0  0
   49.0190   31.4240   49.1920 C   0  0  0  0  0  0  0  0  0  0  0  0
   49.3830   30.1450   48.9040 C   0  0  0  0  0  0  0  0  0  0  0  0
   48.4770   29.3730   48.1850 C   0  0  0  0  0  0  0  0  0  0  0  0
   48.8960   28.0770   47.9280 C   0  0  0  0  0  0  0  0  0  0  0  0
   48.0630   27.2300   47.2280 C   0  0  0  0  0  0  0  0  0  0  0  0
   46.8320   27.6790   46.7940 C   0  0  0  0  0  0  0  0  0  0  0  0
   46.4880   28.9810   47.0890 C   0  0  0  0  0  0  0  0  0  0  0  0
   47.2630   29.8850   47.7810 C   0  0  0  0  0  0  0  0  0  0  0  0
   48.1217   32.3042   43.7927 H   0  0  0  0  0  0  0  0  0  0  0  0
   45.5066   36.0114   42.3946 H   0  0  0  0  0  0  0  0  0  0  0  0
   44.3839   36.3542   43.7381 H   0  0  0  0  0  0  0  0  0  0  0  0
   48.8078   35.7258   42.6330 H   0  0  0  0  0  0  0  0  0  0  0  0
   49.5125   36.0028   40.2877 H   0  0  0  0  0  0  0  0  0  0  0  0
   48.2714   34.2466   36.1696 H   0  0  0  0  0  0  0  0  0  0  0  0
   46.4401   32.6776   36.7232 H   0  0  0  0  0  0  0  0  0  0  0  0
   45.6423   32.3105   39.0201 H   0  0  0  0  0  0  0  0  0  0  0  0
   45.8535   32.8652   41.3934 H   0  0  0  0  0  0  0  0  0  0  0  0
   45.8747   33.6137   48.1126 H   0  0  0  0  0  0  0  0  0  0  0  0
   44.2527   33.2572   47.4325 H   0  0  0  0  0  0  0  0  0  0  0  0
   44.8183   31.2147   48.3248 H   0  0  0  0  0  0  0  0  0  0  0  0
   45.4562   31.0846   46.5976 H   0  0  0  0  0  0  0  0  0  0  0  0
   47.5473   32.9399   49.0285 H   0  0  0  0  0  0  0  0  0  0  0  0
   49.6996   32.0761   49.7591 H   0  0  0  0  0  0  0  0  0  0  0  0
   50.3531   29.7388   49.2263 H   0  0  0  0  0  0  0  0  0  0  0  0
   49.8792   27.7291   48.2776 H   0  0  0  0  0  0  0  0  0  0  0  0
   48.3790   26.1980   47.0157 H   0  0  0  0  0  0  0  0  0  0  0  0
   46.1506   27.0222   46.2334 H   0  0  0  0  0  0  0  0  0  0  0  0
   45.5049   29.3296   46.7398 H   0  0  0  0  0  0  0  0  0  0  0  0
  1  6  2  0
  2  1  1  0
  2  3  2  0
  3  4  1  0
  4  5  2  0
  5 18  1  0
  6  5  1  0
  7  1  1  0
  8  2  1  0
  9  8  2  0
 10  9  1  0
 11 16  1  0
 11 10  2  0
 12 11  1  0
 13 14  1  0
 13 12  2  0
 14 15  2  0
 15 16  1  0
 16 17  2  0
 17  8  1  0
 18 19  1  0
 19 20  1  0
 20 21  2  0
 21 22  1  0
 23 22  2  0
 24 23  1  0
 25 24  2  0
 26 25  1  0
 27 28  1  0
 27 26  2  0
 28 29  2  0
 29 20  1  0
 29 24  1  0
  3 30  1  0
  7 31  1  0
  7 32  1  0
  9 33  1  0
 10 34  1  0
 13 35  1  0
 14 36  1  0
 15 37  1  0
 17 38  1  0
 18 39  1  0
 18 40  1  0
 19 41  1  0
 19 42  1  0
 21 43  1  0
 22 44  1  0
 23 45  1  0
 25 46  1  0
 26 47  1  0
 27 48  1  0
 28 49  1  0
M  END
>  <Score>  (1) 
-7.10132

>  <Score_dual>  (1) 
-7.6

>  <Choices>  (1) 
[None, 6, ['0-3', 105], 7, ['36-27', 120], 24, ['4-10', 240], 32, ['26-18', 0]]

$$$$
