
     RDKit          3D

 52 55  0  0  1  0  0  0  0  0999 V2000
   44.6160   35.5360   44.5940 C   0  0  0  0  0  0  0  0  0  0  0  0
   45.2770   35.5120   43.3450 C   0  0  0  0  0  0  0  0  0  0  0  0
   46.3560   34.5850   43.1960 C   0  0  0  0  0  0  0  0  0  0  0  0
   46.6880   33.7920   44.2310 N   0  0  0  0  0  0  0  0  0  0  0  0
   46.0310   33.8470   45.4050 C   0  0  0  0  0  0  0  0  0  0  0  0
   44.9910   34.7190   45.5960 N   0  0  0  0  0  0  0  0  0  0  0  0
   46.4500   32.9460   46.5120 C   0  0  2  0  0  0  0  0  0  0  0  0
   46.9810   31.7090   45.8440 C   0  0  0  0  0  0  0  0  0  0  0  0
   46.1120   30.5230   45.8710 C   0  0  0  0  0  0  0  0  0  0  0  0
   45.7990   30.2820   47.3420 C   0  0  0  0  0  0  0  0  0  0  0  0
   45.0040   31.3640   47.9180 C   0  0  0  0  0  0  0  0  0  0  0  0
   45.3780   32.7280   47.4570 C   0  0  0  0  0  0  0  0  0  0  0  0
   44.6720   33.8730   47.9440 N   0  0  0  0  0  0  0  0  0  0  0  0
   47.0490   34.5400   41.9200 C   0  0  0  0  0  0  0  0  0  0  0  0
   48.0740   35.4090   41.7150 C   0  0  0  0  0  0  0  0  0  0  0  0
   48.7120   35.3320   40.4650 C   0  0  0  0  0  0  0  0  0  0  0  0
   48.2420   34.3920   39.5730 C   0  0  0  0  0  0  0  0  0  0  0  0
   47.2050   33.5180   39.7880 C   0  0  0  0  0  0  0  0  0  0  0  0
   46.6370   33.6490   41.0170 N   0  0  0  0  0  0  0  0  0  0  0  0
   47.7960   32.1870   37.7780 C   0  0  2  0  0  0  0  0  0  0  0  0
   46.7480   32.5250   38.7790 C   0  0  2  0  0  0  0  0  0  0  0  0
   45.5150   32.8480   38.3280 O   0  0  0  0  0  0  0  0  0  0  0  0
   45.3530   33.2260   37.0340 C   0  0  0  0  0  0  0  0  0  0  0  0
   46.1630   32.4560   36.0190 C   0  0  1  0  0  0  0  0  0  0  0  0
   47.6190   32.7370   36.4130 C   0  0  1  0  0  0  0  0  0  0  0  0
   48.0240   30.8040   37.6450 O   0  0  0  0  0  0  0  0  0  0  0  0
   45.8980   31.0970   36.0300 O   0  0  0  0  0  0  0  0  0  0  0  0
   47.8160   34.0930   36.3060 O   0  0  0  0  0  0  0  0  0  0  0  0
   43.7806   36.2344   44.7500 H   0  0  0  0  0  0  0  0  0  0  0  0
   44.9747   36.1775   42.5230 H   0  0  0  0  0  0  0  0  0  0  0  0
   47.2398   33.3801   47.1427 H   0  0  0  0  0  0  0  0  0  0  0  0
   47.9263   31.4417   46.3390 H   0  0  0  0  0  0  0  0  0  0  0  0
   47.0799   31.9726   44.7807 H   0  0  0  0  0  0  0  0  0  0  0  0
   45.1867   30.7114   45.3068 H   0  0  0  0  0  0  0  0  0  0  0  0
   46.5971   29.6508   45.4085 H   0  0  0  0  0  0  0  0  0  0  0  0
   45.2379   29.3405   47.4358 H   0  0  0  0  0  0  0  0  0  0  0  0
   46.7526   30.2338   47.8883 H   0  0  0  0  0  0  0  0  0  0  0  0
   44.1914   31.1839   48.6372 H   0  0  0  0  0  0  0  0  0  0  0  0
   43.9024   33.7551   48.6184 H   0  0  0  0  0  0  0  0  0  0  0  0
   44.9333   34.8153   47.6203 H   0  0  0  0  0  0  0  0  0  0  0  0
   48.3863   36.1313   42.4836 H   0  0  0  0  0  0  0  0  0  0  0  0
   49.5519   35.9946   40.2090 H   0  0  0  0  0  0  0  0  0  0  0  0
   48.7453   34.3368   38.5965 H   0  0  0  0  0  0  0  0  0  0  0  0
   48.6642   32.6910   38.2277 H   0  0  0  0  0  0  0  0  0  0  0  0
   46.6042   31.5429   39.2531 H   0  0  0  0  0  0  0  0  0  0  0  0
   44.2898   33.1070   36.7781 H   0  0  0  0  0  0  0  0  0  0  0  0
   45.7127   34.2640   36.9784 H   0  0  0  0  0  0  0  0  0  0  0  0
   45.9211   32.7716   34.9934 H   0  0  0  0  0  0  0  0  0  0  0  0
   48.3732   32.2617   35.7686 H   0  0  0  0  0  0  0  0  0  0  0  0
   48.0918   30.3929   38.5430 H   0  0  0  0  0  0  0  0  0  0  0  0
   45.8363   30.7804   36.9660 H   0  0  0  0  0  0  0  0  0  0  0  0
   47.8737   34.4905   37.2109 H   0  0  0  0  0  0  0  0  0  0  0  0
  1  6  2  0
  2  1  1  0
  3  2  2  0
  3  4  1  0
  4  5  2  0
  5  6  1  0
  5  7  1  0
  7 12  1  0
  8  9  1  0
  8  7  1  0
  9 10  1  0
 10 11  1  0
 12 11  2  0
 12 13  1  0
 14  3  1  0
 15 14  2  0
 16 15  1  0
 17 18  1  0
 17 16  2  0
 18 19  2  0
 19 14  1  0
 20 26  1  0
 20 21  1  0
 21 18  1  0
 22 21  1  0
 23 22  1  0
 24 27  1  0
 24 25  1  0
 24 23  1  0
 25 28  1  0
 25 20  1  0
  1 29  1  0
  2 30  1  0
  7 31  1  1
  8 32  1  0
  8 33  1  0
  9 34  1  0
  9 35  1  0
 10 36  1  0
 10 37  1  0
 11 38  1  0
 13 39  1  0
 13 40  1  0
 15 41  1  0
 16 42  1  0
 17 43  1  0
 20 44  1  1
 21 45  1  1
 23 46  1  0
 23 47  1  0
 24 48  1  6
 25 49  1  6
 26 50  1  0
 27 51  1  0
 28 52  1  0
M  END
>  <Score>  (1) 
-7.94703

>  <Score_dual>  (1) 
-7.53

>  <Choices>  (1) 
[None, 9, ['18-27', 315], 23, ['0-3', 0], 23, ['6-16', 270], 32, ['21-25', 330]]

$$$$
