
     RDKit          3D

 47 52  0  0  0  0  0  0  0  0999 V2000
   45.9970   33.3670   41.6530 C   0  0  0  0  0  0  0  0  0  0  0  0
   47.1980   34.0300   41.3710 C   0  0  0  0  0  0  0  0  0  0  0  0
   48.1570   34.0310   42.3630 C   0  0  0  0  0  0  0  0  0  0  0  0
   47.8650   33.3900   43.5330 N   0  0  0  0  0  0  0  0  0  0  0  0
   46.7110   32.7620   43.7840 C   0  0  0  0  0  0  0  0  0  0  0  0
   45.7610   32.7480   42.8340 N   0  0  0  0  0  0  0  0  0  0  0  0
   46.6860   30.7580   45.2010 C   0  0  0  0  0  0  0  0  0  0  0  0
   46.5060   32.1140   45.0620 C   0  0  0  0  0  0  0  0  0  0  0  0
   46.1160   32.9470   46.1300 C   0  0  0  0  0  0  0  0  0  0  0  0
   45.9020   32.3870   47.3870 C   0  0  0  0  0  0  0  0  0  0  0  0
   45.5350   32.8490   48.6050 N   0  0  0  0  0  0  0  0  0  0  0  0
   45.4960   31.7870   49.4650 C   0  0  0  0  0  0  0  0  0  0  0  0
   45.8390   30.6890   48.7620 N   0  0  0  0  0  0  0  0  0  0  0  0
   46.0920   31.0310   47.4880 C   0  0  0  0  0  0  0  0  0  0  0  0
   46.4740   30.1900   46.4570 C   0  0  0  0  0  0  0  0  0  0  0  0
   49.4500   34.7150   42.1280 C   0  0  0  0  0  0  0  0  0  0  0  0
   49.2630   35.8430   41.3130 F   0  0  0  0  0  0  0  0  0  0  0  0
   49.9700   35.1810   43.3120 F   0  0  0  0  0  0  0  0  0  0  0  0
   50.3020   33.8300   41.5100 F   0  0  0  0  0  0  0  0  0  0  0  0
   47.3560   34.6260   40.1630 O   0  0  0  0  0  0  0  0  0  0  0  0
   47.3860   33.9190   38.9880 C   0  0  0  0  0  0  0  0  0  0  0  0
   48.5050   34.4320   38.3350 C   0  0  0  0  0  0  0  0  0  0  0  0
   48.5330   33.4740   36.7600 S   0  0  0  0  0  0  0  0  0  0  0  0
   47.0070   32.5360   37.2680 C   0  0  0  0  0  0  0  0  0  0  0  0
   46.8340   33.0060   38.2510 N   0  0  0  0  0  0  0  0  0  0  0  0
   47.1520   30.3960   36.0210 C   0  0  0  0  0  0  0  0  0  0  0  0
   46.4450   31.5070   36.3560 C   0  0  0  0  0  0  0  0  0  0  0  0
   45.1960   31.8140   35.9290 C   0  0  0  0  0  0  0  0  0  0  0  0
   44.5440   30.9460   35.0720 C   0  0  0  0  0  0  0  0  0  0  0  0
   43.3340   30.9550   34.4820 N   0  0  0  0  0  0  0  0  0  0  0  0
   43.1830   29.8440   33.7230 C   0  0  0  0  0  0  0  0  0  0  0  0
   44.3520   29.1160   33.8510 C   0  0  0  0  0  0  0  0  0  0  0  0
   45.2230   29.7870   34.6930 C   0  0  0  0  0  0  0  0  0  0  0  0
   46.5010   29.5210   35.1600 C   0  0  0  0  0  0  0  0  0  0  0  0
   45.2122   33.3483   40.8825 H   0  0  0  0  0  0  0  0  0  0  0  0
   46.9891   30.1378   44.3446 H   0  0  0  0  0  0  0  0  0  0  0  0
   45.9822   34.0274   45.9724 H   0  0  0  0  0  0  0  0  0  0  0  0
   45.3225   33.8285   48.8423 H   0  0  0  0  0  0  0  0  0  0  0  0
   45.2334   31.8219   50.5326 H   0  0  0  0  0  0  0  0  0  0  0  0
   46.6058   29.1106   46.6227 H   0  0  0  0  0  0  0  0  0  0  0  0
   49.1994   35.2145   38.6749 H   0  0  0  0  0  0  0  0  0  0  0  0
   48.1653   30.2034   36.4033 H   0  0  0  0  0  0  0  0  0  0  0  0
   44.7068   32.7420   36.2599 H   0  0  0  0  0  0  0  0  0  0  0  0
   42.6280   31.6969   34.5917 H   0  0  0  0  0  0  0  0  0  0  0  0
   42.3025   29.5732   33.1219 H   0  0  0  0  0  0  0  0  0  0  0  0
   44.5579   28.1534   33.3601 H   0  0  0  0  0  0  0  0  0  0  0  0
   47.0098   28.5988   34.8426 H   0  0  0  0  0  0  0  0  0  0  0  0
  1  6  2  0
  2  1  1  0
  2  3  2  0
  3  4  1  0
  4  5  2  0
  5  8  1  0
  6  5  1  0
  7 15  2  0
  8  7  1  0
  8  9  2  0
  9 10  1  0
 10 14  2  0
 10 11  1  0
 11 12  1  0
 13 12  2  0
 14 13  1  0
 15 14  1  0
 16  3  1  0
 16 18  1  0
 17 16  1  0
 19 16  1  0
 20  2  1  0
 21 20  1  0
 22 21  2  0
 23 24  1  0
 23 22  1  0
 24 25  2  0
 25 21  1  0
 26 27  2  0
 27 24  1  0
 28 27  1  0
 29 28  2  0
 30 29  1  0
 31 32  2  0
 31 30  1  0
 32 33  1  0
 33 29  1  0
 33 34  2  0
 34 26  1  0
  1 35  1  0
  7 36  1  0
  9 37  1  0
 11 38  1  0
 12 39  1  0
 15 40  1  0
 22 41  1  0
 26 42  1  0
 28 43  1  0
 30 44  1  0
 31 45  1  0
 32 46  1  0
 34 47  1  0
M  END
>  <Score>  (1) 
-7.01429

>  <Score_dual>  (1) 
-7.7

>  <Choices>  (1) 
[None, 9, ['34-23', 135], 22, ['11-11', 315], 25, ['2-1', 0], 26, ['33-14', 45], 32, ['24-6', 60]]

$$$$
