
     RDKit          3D

 40 44  0  0  0  0  0  0  0  0999 V2000
   46.6910   35.0890   42.7660 C   0  0  0  0  0  0  0  0  0  0  0  0
   45.7550   36.1320   42.7080 C   0  0  0  0  0  0  0  0  0  0  0  0
   44.7670   36.1080   43.7140 C   0  0  0  0  0  0  0  0  0  0  0  0
   44.7830   35.1050   44.6450 N   0  0  0  0  0  0  0  0  0  0  0  0
   45.7170   34.1380   44.6330 C   0  0  0  0  0  0  0  0  0  0  0  0
   46.6730   34.1370   43.6830 N   0  0  0  0  0  0  0  0  0  0  0  0
   46.0990   31.7980   45.1950 C   0  0  0  0  0  0  0  0  0  0  0  0
   45.7390   33.0670   45.6230 C   0  0  0  0  0  0  0  0  0  0  0  0
   45.4170   33.2880   46.9500 C   0  0  0  0  0  0  0  0  0  0  0  0
   45.4800   32.1900   47.7790 C   0  0  0  0  0  0  0  0  0  0  0  0
   45.2150   32.1320   49.1070 N   0  0  0  0  0  0  0  0  0  0  0  0
   45.4040   30.8450   49.5230 C   0  0  0  0  0  0  0  0  0  0  0  0
   45.7980   30.0460   48.4460 C   0  0  0  0  0  0  0  0  0  0  0  0
   45.8330   30.9240   47.3740 C   0  0  0  0  0  0  0  0  0  0  0  0
   46.1530   30.7090   46.0510 C   0  0  0  0  0  0  0  0  0  0  0  0
   47.6960   35.1100   41.7470 C   0  0  0  0  0  0  0  0  0  0  0  0
   48.8290   35.6700   41.8200 O   0  0  0  0  0  0  0  0  0  0  0  0
   46.3230   33.7050   40.1740 C   0  0  0  0  0  0  0  0  0  0  0  0
   47.4770   34.4420   40.4580 C   0  0  0  0  0  0  0  0  0  0  0  0
   48.4340   34.5500   39.4840 C   0  0  0  0  0  0  0  0  0  0  0  0
   48.3370   33.9720   38.2220 C   0  0  0  0  0  0  0  0  0  0  0  0
   49.1420   33.9580   37.1450 N   0  0  0  0  0  0  0  0  0  0  0  0
   48.5660   33.2490   36.1770 C   0  0  0  0  0  0  0  0  0  0  0  0
   47.3440   32.7900   36.6560 C   0  0  0  0  0  0  0  0  0  0  0  0
   47.1880   33.2430   37.9550 C   0  0  0  0  0  0  0  0  0  0  0  0
   46.2120   33.1160   38.9080 C   0  0  0  0  0  0  0  0  0  0  0  0
   45.7891   36.9125   41.9336 H   0  0  0  0  0  0  0  0  0  0  0  0
   43.9915   36.8873   43.7500 H   0  0  0  0  0  0  0  0  0  0  0  0
   46.3516   31.6498   44.1347 H   0  0  0  0  0  0  0  0  0  0  0  0
   45.1277   34.2822   47.3213 H   0  0  0  0  0  0  0  0  0  0  0  0
   44.9219   32.9217   49.6997 H   0  0  0  0  0  0  0  0  0  0  0  0
   45.2663   30.4893   50.5547 H   0  0  0  0  0  0  0  0  0  0  0  0
   46.0271   28.9701   48.4485 H   0  0  0  0  0  0  0  0  0  0  0  0
   46.4404   29.7112   45.6880 H   0  0  0  0  0  0  0  0  0  0  0  0
   45.5256   33.5911   40.9231 H   0  0  0  0  0  0  0  0  0  0  0  0
   49.3386   35.1318   39.7146 H   0  0  0  0  0  0  0  0  0  0  0  0
   50.0590   34.4224   37.0795 H   0  0  0  0  0  0  0  0  0  0  0  0
   48.9824   33.0599   35.1766 H   0  0  0  0  0  0  0  0  0  0  0  0
   46.6244   32.1726   36.0983 H   0  0  0  0  0  0  0  0  0  0  0  0
   45.3107   32.5317   38.6709 H   0  0  0  0  0  0  0  0  0  0  0  0
  1  6  1  0
  2  1  2  0
  2  3  1  0
  3  4  2  0
  5  4  1  0
  5  8  1  0
  6  5  2  0
  7  8  2  0
  7 15  1  0
  8  9  1  0
  9 10  2  0
 10 11  1  0
 11 12  1  0
 13 12  2  0
 14 10  1  0
 14 13  1  0
 15 14  2  0
 16 17  2  0
 16  1  1  0
 18 19  2  0
 19 16  1  0
 20 19  1  0
 21 20  2  0
 22 21  1  0
 23 24  2  0
 23 22  1  0
 24 25  1  0
 25 21  1  0
 25 26  2  0
 26 18  1  0
  2 27  1  0
  3 28  1  0
  7 29  1  0
  9 30  1  0
 11 31  1  0
 12 32  1  0
 13 33  1  0
 15 34  1  0
 18 35  1  0
 20 36  1  0
 22 37  1  0
 23 38  1  0
 24 39  1  0
 26 40  1  0
M  END
>  <Score>  (1) 
-7.26178

>  <Score_dual>  (1) 
-7.35

>  <Choices>  (1) 
[None, 6, ['5-8', 120], 11, ['24-7', 315], 25, ['24-9', 210]]

$$$$
