
     RDKit          3D

 57 61  0  0  1  0  0  0  0  0999 V2000
   47.0470   32.4500   45.3770 C   0  0  0  0  0  0  0  0  0  0  0  0
   45.9910   33.1220   45.9820 C   0  0  0  0  0  0  0  0  0  0  0  0
   45.3670   34.1940   45.3050 C   0  0  0  0  0  0  0  0  0  0  0  0
   45.8760   34.5080   44.0450 N   0  0  0  0  0  0  0  0  0  0  0  0
   46.8920   33.8250   43.5240 C   0  0  0  0  0  0  0  0  0  0  0  0
   47.4750   32.8110   44.1680 N   0  0  0  0  0  0  0  0  0  0  0  0
   47.6380   31.3430   46.1000 C   0  0  2  0  0  0  0  0  0  0  0  0
   47.2050   29.9740   45.4990 C   0  0  0  0  0  0  0  0  0  0  0  0
   47.9490   28.8740   46.1720 C   0  0  0  0  0  0  0  0  0  0  0  0
   48.0710   28.9720   47.6560 C   0  0  0  0  0  0  0  0  0  0  0  0
   48.2420   30.3140   48.1580 C   0  0  0  0  0  0  0  0  0  0  0  0
   47.2980   31.3490   47.5090 C   0  0  2  0  0  0  0  0  0  0  0  0
   45.9160   30.8970   47.6930 N   0  0  0  0  0  0  0  0  0  0  0  0
   45.1970   30.5470   48.8490 C   0  0  0  0  0  0  0  0  0  0  0  0
   44.7220   31.4140   49.6670 O   0  0  0  0  0  0  0  0  0  0  0  0
   45.0250   29.1430   49.0420 N   0  0  0  0  0  0  0  0  0  0  0  0
   47.3920   34.2260   42.2050 C   0  0  0  0  0  0  0  0  0  0  0  0
   48.3940   35.1260   42.0550 C   0  0  0  0  0  0  0  0  0  0  0  0
   48.8960   35.5340   40.8360 C   0  0  0  0  0  0  0  0  0  0  0  0
   48.3080   34.9620   39.7380 C   0  0  0  0  0  0  0  0  0  0  0  0
   47.2910   34.0430   39.8490 C   0  0  0  0  0  0  0  0  0  0  0  0
   46.8570   33.7010   41.0950 N   0  0  0  0  0  0  0  0  0  0  0  0
   46.5220   33.4010   38.8050 C   0  0  0  0  0  0  0  0  0  0  0  0
   45.1880   33.0540   39.0670 C   0  0  0  0  0  0  0  0  0  0  0  0
   44.3380   32.4280   38.1830 C   0  0  0  0  0  0  0  0  0  0  0  0
   44.8070   32.0990   36.9330 C   0  0  0  0  0  0  0  0  0  0  0  0
   46.1080   32.4070   36.6060 C   0  0  0  0  0  0  0  0  0  0  0  0
   46.5990   32.0490   35.3690 C   0  0  0  0  0  0  0  0  0  0  0  0
   47.9050   32.2900   34.9950 C   0  0  0  0  0  0  0  0  0  0  0  0
   48.7100   32.9230   35.9500 C   0  0  0  0  0  0  0  0  0  0  0  0
   48.1800   33.2640   37.1710 C   0  0  0  0  0  0  0  0  0  0  0  0
   46.8900   33.0300   37.5410 C   0  0  0  0  0  0  0  0  0  0  0  0
   45.6434   32.8212   46.9813 H   0  0  0  0  0  0  0  0  0  0  0  0
   44.5269   34.7497   45.7470 H   0  0  0  0  0  0  0  0  0  0  0  0
   48.7253   31.4741   45.9975 H   0  0  0  0  0  0  0  0  0  0  0  0
   46.1250   29.8324   45.6522 H   0  0  0  0  0  0  0  0  0  0  0  0
   47.4297   29.9609   44.4223 H   0  0  0  0  0  0  0  0  0  0  0  0
   47.4349   27.9298   45.9393 H   0  0  0  0  0  0  0  0  0  0  0  0
   48.9777   28.9365   45.7876 H   0  0  0  0  0  0  0  0  0  0  0  0
   47.1581   28.5521   48.1036 H   0  0  0  0  0  0  0  0  0  0  0  0
   48.9809   28.4183   47.9309 H   0  0  0  0  0  0  0  0  0  0  0  0
   48.0538   30.3051   49.2417 H   0  0  0  0  0  0  0  0  0  0  0  0
   49.2694   30.6193   47.9106 H   0  0  0  0  0  0  0  0  0  0  0  0
   47.3971   32.3541   47.9448 H   0  0  0  0  0  0  0  0  0  0  0  0
   45.3752   30.8225   46.8195 H   0  0  0  0  0  0  0  0  0  0  0  0
   44.5102   28.7954   49.8636 H   0  0  0  0  0  0  0  0  0  0  0  0
   45.4157   28.4777   48.3597 H   0  0  0  0  0  0  0  0  0  0  0  0
   48.8360   35.5596   42.9642 H   0  0  0  0  0  0  0  0  0  0  0  0
   49.7115   36.2674   40.7514 H   0  0  0  0  0  0  0  0  0  0  0  0
   48.6609   35.2472   38.7359 H   0  0  0  0  0  0  0  0  0  0  0  0
   44.7880   33.3027   40.0611 H   0  0  0  0  0  0  0  0  0  0  0  0
   43.3024   32.1953   38.4716 H   0  0  0  0  0  0  0  0  0  0  0  0
   44.1523   31.5972   36.2053 H   0  0  0  0  0  0  0  0  0  0  0  0
   45.9255   31.5534   34.6543 H   0  0  0  0  0  0  0  0  0  0  0  0
   48.2907   32.0021   34.0059 H   0  0  0  0  0  0  0  0  0  0  0  0
   49.7630   33.1465   35.7235 H   0  0  0  0  0  0  0  0  0  0  0  0
   48.8411   33.7587   37.8978 H   0  0  0  0  0  0  0  0  0  0  0  0
  1  2  2  0
  1  7  1  0
  3  2  1  0
  4  3  2  0
  5  4  1  0
  5  6  2  0
  6  1  1  0
  7 12  1  0
  8  7  1  0
  8  9  1  0
  9 10  1  0
 10 11  1  0
 12 13  1  0
 12 11  1  0
 13 14  1  0
 14 16  1  0
 14 15  2  0
 17  5  1  0
 18 17  2  0
 19 18  1  0
 20 21  1  0
 20 19  2  0
 21 22  2  0
 22 17  1  0
 23 24  2  0
 23 21  1  0
 25 24  1  0
 26 25  2  0
 27 26  1  0
 27 32  2  0
 28 27  1  0
 29 28  2  0
 29 30  1  0
 30 31  2  0
 31 32  1  0
 32 23  1  0
  2 33  1  0
  3 34  1  0
  7 35  1  1
  8 36  1  0
  8 37  1  0
  9 38  1  0
  9 39  1  0
 10 40  1  0
 10 41  1  0
 11 42  1  0
 11 43  1  0
 12 44  1  1
 13 45  1  0
 16 46  1  0
 16 47  1  0
 18 48  1  0
 19 49  1  0
 20 50  1  0
 24 51  1  0
 25 52  1  0
 26 53  1  0
 28 54  1  0
 29 55  1  0
 30 56  1  0
 31 57  1  0
M  END
>  <Score>  (1) 
-7.10156

>  <Score_dual>  (1) 
-7.81

>  <Choices>  (1) 
[None, 9, ['6-17', 105], 12, ['18-24', 255], 34, ['0-3', 0], 36, ['12-1', 105], 37, ['26-23', 75]]

$$$$
