./init_pose/1_0.pdbqt
 OpenBabel03242510033D

  6  6  0  0  0  0  0  0  0  0999 V2000
   44.6380   35.9950   44.3820 C   0  0  0  0  0  0  0  0  0  0  0  0
   45.4320   35.6430   43.2700 C   0  0  0  0  0  0  0  0  0  0  0  0
   46.2240   34.4890   43.3710 C   0  0  0  0  0  0  0  0  0  0  0  0
   46.1840   33.7800   44.5370 N   0  0  0  0  0  0  0  0  0  0  0  0
   45.4080   34.1480   45.5820 C   0  0  0  0  0  0  0  0  0  0  0  0
   44.6380   35.2490   45.5000 N   0  0  0  0  0  0  0  0  0  0  0  0
  1  6  1  0  0  0  0
  2  3  1  0  0  0  0
  2  1  2  0  0  0  0
  3  4  2  0  0  0  0
  4  5  1  0  0  0  0
  6  5  2  0  0  0  0
M  END
>  <MODEL>
1

>  <REMARK>
 minimizedAffinity -2.61461258REMARK  Name = 7
  0 active torsions:
  status: ('A' for Active; 'I' for Inactive)
                            x       y       z     vdW  Elec       q    Type
                         _______ _______ _______ _____ _____    ______ ____

>  <TORSDO>
F 0

$$$$
