./init_pose/1_0.pdbqt
     RDKit          3D

 10 10  0  0  0  0  0  0  0  0999 V2000
   44.6380   35.9950   44.3820 C   0  0  0  0  0  0  0  0  0  0  0  0
   45.4320   35.6430   43.2700 C   0  0  0  0  0  0  0  0  0  0  0  0
   46.2240   34.4890   43.3710 C   0  0  0  0  0  0  0  0  0  0  0  0
   46.1840   33.7800   44.5370 N   0  0  0  0  0  0  0  0  0  0  0  0
   45.4080   34.1480   45.5820 C   0  0  0  0  0  0  0  0  0  0  0  0
   44.6380   35.2490   45.5000 N   0  0  0  0  0  0  0  0  0  0  0  0
   44.0081   36.8955   44.3331 H   0  0  0  0  0  0  0  0  0  0  0  0
   45.4302   36.2528   42.3545 H   0  0  0  0  0  0  0  0  0  0  0  0
   46.8595   34.1646   42.5338 H   0  0  0  0  0  0  0  0  0  0  0  0
   45.4062   33.5453   46.5022 H   0  0  0  0  0  0  0  0  0  0  0  0
  1  6  2  0
  2  3  2  0
  2  1  1  0
  3  4  1  0
  4  5  2  0
  6  5  1  0
  1  7  1  0
  2  8  1  0
  3  9  1  0
  5 10  1  0
M  END
>  <MODEL>  (1) 
1

>  <REMARK>  (1) 
 minimizedAffinity -2.61461258REMARK  Name = 7
  0 active torsions:
  status: ('A' for Active; 'I' for Inactive)
                            x       y       z     vdW  Elec       q    Type
                         _______ _______ _______ _____ _____    ______ ____

>  <TORSDO>  (1) 
F 0

$$$$
