./init_pose/1_1.pdbqt
     RDKit          3D

 10 10  0  0  0  0  0  0  0  0999 V2000
   46.2210   34.4500   43.4010 C   0  0  0  0  0  0  0  0  0  0  0  0
   45.4360   35.6140   43.2500 C   0  0  0  0  0  0  0  0  0  0  0  0
   44.6280   36.0020   44.3290 C   0  0  0  0  0  0  0  0  0  0  0  0
   44.6450   35.2330   45.4570 N   0  0  0  0  0  0  0  0  0  0  0  0
   45.4120   34.1250   45.5660 C   0  0  0  0  0  0  0  0  0  0  0  0
   46.1970   33.7400   44.5420 N   0  0  0  0  0  0  0  0  0  0  0  0
   46.8627   34.1189   42.5712 H   0  0  0  0  0  0  0  0  0  0  0  0
   45.4574   36.1970   42.3174 H   0  0  0  0  0  0  0  0  0  0  0  0
   43.9977   36.9015   44.2680 H   0  0  0  0  0  0  0  0  0  0  0  0
   45.3947   33.5358   46.4947 H   0  0  0  0  0  0  0  0  0  0  0  0
  1  6  2  0
  2  1  1  0
  2  3  2  0
  3  4  1  0
  4  5  2  0
  6  5  1  0
  1  7  1  0
  2  8  1  0
  3  9  1  0
  5 10  1  0
M  END
>  <MODEL>  (1) 
2

>  <REMARK>  (1) 
 minimizedAffinity -2.59704185REMARK  Name = 7
  0 active torsions:
  status: ('A' for Active; 'I' for Inactive)
                            x       y       z     vdW  Elec       q    Type
                         _______ _______ _______ _____ _____    ______ ____

>  <TORSDO>  (1) 
F 0

$$$$
