MODEL 3
REMARK minimizedAffinity -2.57287621REMARK  Name = 7
REMARK  0 active torsions:
REMARK  status: ('A' for Active; 'I' for Inactive)
REMARK                            x       y       z     vdW  Elec       q    Type
REMARK                         _______ _______ _______ _____ _____    ______ ____
ROOT
ATOM      1  C   UNL     1      46.140  34.556  43.380  0.00  0.00    +0.000 A 
ATOM      2  C   UNL     1      46.220  33.701  44.500  0.00  0.00    +0.000 A 
ATOM      3  C   UNL     1      45.454  34.028  45.629  0.00  0.00    +0.000 A 
ATOM      4  N   UNL     1      44.681  35.153  45.579  0.00  0.00    +0.000 NA
ATOM      5  C   UNL     1      44.629  35.948  44.487  0.00  0.00    +0.000 A 
ATOM      6  N   UNL     1      45.354  35.647  43.393  0.00  0.00    +0.000 NA
ENDROOT
TORSDOF 0
ENDMDL
