./init_pose/1_2.pdbqt
 OpenBabel03242510033D

  6  6  0  0  0  0  0  0  0  0999 V2000
   46.1400   34.5560   43.3800 C   0  0  0  0  0  0  0  0  0  0  0  0
   46.2200   33.7010   44.5000 C   0  0  0  0  0  0  0  0  0  0  0  0
   45.4540   34.0280   45.6290 C   0  0  0  0  0  0  0  0  0  0  0  0
   44.6810   35.1530   45.5790 N   0  0  0  0  0  0  0  0  0  0  0  0
   44.6290   35.9480   44.4870 C   0  0  0  0  0  0  0  0  0  0  0  0
   45.3540   35.6470   43.3930 N   0  0  0  0  0  0  0  0  0  0  0  0
  1  6  2  0  0  0  0
  1  2  1  0  0  0  0
  2  3  2  0  0  0  0
  4  3  1  0  0  0  0
  5  4  2  0  0  0  0
  6  5  1  0  0  0  0
M  END
>  <MODEL>
3

>  <REMARK>
 minimizedAffinity -2.57287621REMARK  Name = 7
  0 active torsions:
  status: ('A' for Active; 'I' for Inactive)
                            x       y       z     vdW  Elec       q    Type
                         _______ _______ _______ _____ _____    ______ ____

>  <TORSDO>
F 0

$$$$
