./init_pose/1_2.pdbqt
     RDKit          3D

 10 10  0  0  0  0  0  0  0  0999 V2000
   46.1400   34.5560   43.3800 C   0  0  0  0  0  0  0  0  0  0  0  0
   46.2200   33.7010   44.5000 C   0  0  0  0  0  0  0  0  0  0  0  0
   45.4540   34.0280   45.6290 C   0  0  0  0  0  0  0  0  0  0  0  0
   44.6810   35.1530   45.5790 N   0  0  0  0  0  0  0  0  0  0  0  0
   44.6290   35.9480   44.4870 C   0  0  0  0  0  0  0  0  0  0  0  0
   45.3540   35.6470   43.3930 N   0  0  0  0  0  0  0  0  0  0  0  0
   46.7307   34.3260   42.4810 H   0  0  0  0  0  0  0  0  0  0  0  0
   46.8618   32.8077   44.4881 H   0  0  0  0  0  0  0  0  0  0  0  0
   45.4753   33.3961   46.5292 H   0  0  0  0  0  0  0  0  0  0  0  0
   43.9917   36.8446   44.4921 H   0  0  0  0  0  0  0  0  0  0  0  0
  1  6  2  0
  1  2  1  0
  2  3  2  0
  4  3  1  0
  5  4  2  0
  6  5  1  0
  1  7  1  0
  2  8  1  0
  3  9  1  0
  5 10  1  0
M  END
>  <MODEL>  (1) 
3

>  <REMARK>  (1) 
 minimizedAffinity -2.57287621REMARK  Name = 7
  0 active torsions:
  status: ('A' for Active; 'I' for Inactive)
                            x       y       z     vdW  Elec       q    Type
                         _______ _______ _______ _____ _____    ______ ____

>  <TORSDO>  (1) 
F 0

$$$$
