./init_pose/1_4.pdbqt
 OpenBabel03242510033D

  6  6  0  0  0  0  0  0  0  0999 V2000
   48.6160   33.5620   40.6950 C   0  0  0  0  0  0  0  0  0  0  0  0
   48.3340   34.9450   40.6860 C   0  0  0  0  0  0  0  0  0  0  0  0
   49.0070   35.7560   41.6120 C   0  0  0  0  0  0  0  0  0  0  0  0
   49.8890   35.1610   42.4680 N   0  0  0  0  0  0  0  0  0  0  0  0
   50.1350   33.8310   42.4460 C   0  0  0  0  0  0  0  0  0  0  0  0
   49.5010   33.0390   41.5600 N   0  0  0  0  0  0  0  0  0  0  0  0
  1  6  1  0  0  0  0
  2  1  2  0  0  0  0
  2  3  1  0  0  0  0
  3  4  2  0  0  0  0
  5  4  1  0  0  0  0
  6  5  2  0  0  0  0
M  END
>  <MODEL>
5

>  <REMARK>
 minimizedAffinity -2.46987939REMARK  Name = 7
  0 active torsions:
  status: ('A' for Active; 'I' for Inactive)
                            x       y       z     vdW  Elec       q    Type
                         _______ _______ _______ _____ _____    ______ ____

>  <TORSDO>
F 0

$$$$
