MODEL 6
REMARK minimizedAffinity -2.46952271REMARK  Name = 7
REMARK  0 active torsions:
REMARK  status: ('A' for Active; 'I' for Inactive)
REMARK                            x       y       z     vdW  Elec       q    Type
REMARK                         _______ _______ _______ _____ _____    ______ ____
ROOT
ATOM      1  C   UNL     1      49.804  35.076  42.465  0.00  0.00    +0.000 A 
ATOM      2  C   UNL     1      48.907  35.674  41.554  0.00  0.00    +0.000 A 
ATOM      3  C   UNL     1      48.300  34.848  40.595  0.00  0.00    +0.000 A 
ATOM      4  N   UNL     1      48.615  33.519  40.598  0.00  0.00    +0.000 NA
ATOM      5  C   UNL     1      49.479  32.982  41.489  0.00  0.00    +0.000 A 
ATOM      6  N   UNL     1      50.066  33.759  42.418  0.00  0.00    +0.000 NA
ENDROOT
TORSDOF 0
ENDMDL
