MODEL 8
REMARK minimizedAffinity -2.4064827REMARK  Name = 7
REMARK  0 active torsions:
REMARK  status: ('A' for Active; 'I' for Inactive)
REMARK                            x       y       z     vdW  Elec       q    Type
REMARK                         _______ _______ _______ _____ _____    ______ ____
ROOT
ATOM      1  C   UNL     1      45.340  34.483  45.157  0.00  0.00    +0.000 A 
ATOM      2  C   UNL     1      44.687  35.629  44.654  0.00  0.00    +0.000 A 
ATOM      3  C   UNL     1      45.063  36.092  43.384  0.00  0.00    +0.000 A 
ATOM      4  N   UNL     1      46.037  35.412  42.712  0.00  0.00    +0.000 NA
ATOM      5  C   UNL     1      46.640  34.316  43.226  0.00  0.00    +0.000 A 
ATOM      6  N   UNL     1      46.289  33.855  44.441  0.00  0.00    +0.000 NA
ENDROOT
TORSDOF 0
ENDMDL
