./init_pose/1_8.pdbqt
 OpenBabel03242510033D

  6  6  0  0  0  0  0  0  0  0999 V2000
   49.8460   33.6570   42.3630 C   0  0  0  0  0  0  0  0  0  0  0  0
   49.7580   35.0610   42.4750 C   0  0  0  0  0  0  0  0  0  0  0  0
   48.9680   35.7440   41.5380 C   0  0  0  0  0  0  0  0  0  0  0  0
   48.3350   35.0140   40.5740 N   0  0  0  0  0  0  0  0  0  0  0  0
   48.4420   33.6680   40.4990 C   0  0  0  0  0  0  0  0  0  0  0  0
   49.1920   32.9960   41.3920 N   0  0  0  0  0  0  0  0  0  0  0  0
  1  2  1  0  0  0  0
  3  2  2  0  0  0  0
  4  3  1  0  0  0  0
  5  4  2  0  0  0  0
  5  6  1  0  0  0  0
  6  1  2  0  0  0  0
M  END
>  <MODEL>
9

>  <REMARK>
 minimizedAffinity -2.37513113REMARK  Name = 7
  0 active torsions:
  status: ('A' for Active; 'I' for Inactive)
                            x       y       z     vdW  Elec       q    Type
                         _______ _______ _______ _____ _____    ______ ____

>  <TORSDO>
F 0

$$$$
