./init_pose/1_8.pdbqt
     RDKit          3D

 10 10  0  0  0  0  0  0  0  0999 V2000
   49.8460   33.6570   42.3630 C   0  0  0  0  0  0  0  0  0  0  0  0
   49.7580   35.0610   42.4750 C   0  0  0  0  0  0  0  0  0  0  0  0
   48.9680   35.7440   41.5380 C   0  0  0  0  0  0  0  0  0  0  0  0
   48.3350   35.0140   40.5740 N   0  0  0  0  0  0  0  0  0  0  0  0
   48.4420   33.6680   40.4990 C   0  0  0  0  0  0  0  0  0  0  0  0
   49.1920   32.9960   41.3920 N   0  0  0  0  0  0  0  0  0  0  0  0
   50.4597   33.0943   43.0819 H   0  0  0  0  0  0  0  0  0  0  0  0
   50.2912   35.6020   43.2706 H   0  0  0  0  0  0  0  0  0  0  0  0
   48.8617   36.8381   41.5792 H   0  0  0  0  0  0  0  0  0  0  0  0
   47.9138   33.1200   39.7048 H   0  0  0  0  0  0  0  0  0  0  0  0
  1  2  2  0
  3  2  1  0
  4  3  2  0
  5  4  1  0
  5  6  2  0
  6  1  1  0
  1  7  1  0
  2  8  1  0
  3  9  1  0
  5 10  1  0
M  END
>  <MODEL>  (1) 
9

>  <REMARK>  (1) 
 minimizedAffinity -2.37513113REMARK  Name = 7
  0 active torsions:
  status: ('A' for Active; 'I' for Inactive)
                            x       y       z     vdW  Elec       q    Type
                         _______ _______ _______ _____ _____    ______ ____

>  <TORSDO>  (1) 
F 0

$$$$
