MODEL 1
REMARK minimizedAffinity -2.7424984REMARK  Name = 7
REMARK  0 active torsions:
REMARK  status: ('A' for Active; 'I' for Inactive)
REMARK                            x       y       z     vdW  Elec       q    Type
REMARK                         _______ _______ _______ _____ _____    ______ ____
ROOT
ATOM      1  C   UNL     1      63.184  55.981  25.893  0.00  0.00    +0.000 A 
ATOM      2  C   UNL     1      62.404  55.982  27.070  0.00  0.00    +0.000 A 
ATOM      3  C   UNL     1      62.925  56.629  28.200  0.00  0.00    +0.000 A 
ATOM      4  N   UNL     1      64.154  57.216  28.097  0.00  0.00    +0.000 NA
ATOM      5  C   UNL     1      64.872  57.196  26.952  0.00  0.00    +0.000 A 
ATOM      6  N   UNL     1      64.385  56.583  25.856  0.00  0.00    +0.000 NA
ENDROOT
TORSDOF 0
ENDMDL
MODEL 2
REMARK minimizedAffinity -2.71879101REMARK  Name = 7
REMARK  0 active torsions:
REMARK  status: ('A' for Active; 'I' for Inactive)
REMARK                            x       y       z     vdW  Elec       q    Type
REMARK                         _______ _______ _______ _____ _____    ______ ____
ROOT
ATOM      1  C   UNL     1      62.801  56.519  28.314  0.00  0.00    +0.000 A 
ATOM      2  C   UNL     1      62.296  55.906  27.148  0.00  0.00    +0.000 A 
ATOM      3  C   UNL     1      63.070  55.983  25.980  0.00  0.00    +0.000 A 
ATOM      4  N   UNL     1      64.262  56.647  26.039  0.00  0.00    +0.000 NA
ATOM      5  C   UNL     1      64.714  57.221  27.177  0.00  0.00    +0.000 A 
ATOM      6  N   UNL     1      63.987  57.153  28.307  0.00  0.00    +0.000 NA
ENDROOT
TORSDOF 0
ENDMDL
MODEL 3
REMARK minimizedAffinity -2.68082666REMARK  Name = 7
REMARK  0 active torsions:
REMARK  status: ('A' for Active; 'I' for Inactive)
REMARK                            x       y       z     vdW  Elec       q    Type
REMARK                         _______ _______ _______ _____ _____    ______ ____
ROOT
ATOM      1  C   UNL     1      64.999  57.231  27.070  0.00  0.00    +0.000 A 
ATOM      2  C   UNL     1      63.878  56.713  26.386  0.00  0.00    +0.000 A 
ATOM      3  C   UNL     1      62.741  56.393  27.144  0.00  0.00    +0.000 A 
ATOM      4  N   UNL     1      62.786  56.598  28.493  0.00  0.00    +0.000 NA
ATOM      5  C   UNL     1      63.879  57.098  29.113  0.00  0.00    +0.000 A 
ATOM      6  N   UNL     1      64.977  57.414  28.401  0.00  0.00    +0.000 NA
ENDROOT
TORSDOF 0
ENDMDL
MODEL 4
REMARK minimizedAffinity -2.62910819REMARK  Name = 7
REMARK  0 active torsions:
REMARK  status: ('A' for Active; 'I' for Inactive)
REMARK                            x       y       z     vdW  Elec       q    Type
REMARK                         _______ _______ _______ _____ _____    ______ ____
ROOT
ATOM      1  C   UNL     1      64.049  57.189  28.039  0.00  0.00    +0.000 A 
ATOM      2  C   UNL     1      64.882  57.180  26.900  0.00  0.00    +0.000 A 
ATOM      3  C   UNL     1      64.422  56.508  25.758  0.00  0.00    +0.000 A 
ATOM      4  N   UNL     1      63.200  55.901  25.816  0.00  0.00    +0.000 NA
ATOM      5  C   UNL     1      62.428  55.932  26.926  0.00  0.00    +0.000 A 
ATOM      6  N   UNL     1      62.853  56.576  28.029  0.00  0.00    +0.000 NA
ENDROOT
TORSDOF 0
ENDMDL
MODEL 5
REMARK minimizedAffinity -2.35434604REMARK  Name = 7
REMARK  0 active torsions:
REMARK  status: ('A' for Active; 'I' for Inactive)
REMARK                            x       y       z     vdW  Elec       q    Type
REMARK                         _______ _______ _______ _____ _____    ______ ____
ROOT
ATOM      1  C   UNL     1      66.486  57.006  30.929  0.00  0.00    +0.000 A 
ATOM      2  C   UNL     1      65.873  57.535  32.084  0.00  0.00    +0.000 A 
ATOM      3  C   UNL     1      64.602  58.112  31.944  0.00  0.00    +0.000 A 
ATOM      4  N   UNL     1      64.036  58.131  30.701  0.00  0.00    +0.000 NA
ATOM      5  C   UNL     1      64.654  57.611  29.617  0.00  0.00    +0.000 A 
ATOM      6  N   UNL     1      65.872  57.050  29.734  0.00  0.00    +0.000 NA
ENDROOT
TORSDOF 0
ENDMDL
MODEL 6
REMARK minimizedAffinity -2.32175851REMARK  Name = 7
REMARK  0 active torsions:
REMARK  status: ('A' for Active; 'I' for Inactive)
REMARK                            x       y       z     vdW  Elec       q    Type
REMARK                         _______ _______ _______ _____ _____    ______ ____
ROOT
ATOM      1  C   UNL     1      64.560  58.183  31.910  0.00  0.00    +0.000 A 
ATOM      2  C   UNL     1      65.818  57.657  32.276  0.00  0.00    +0.000 A 
ATOM      3  C   UNL     1      66.592  57.056  31.272  0.00  0.00    +0.000 A 
ATOM      4  N   UNL     1      66.084  57.012  30.005  0.00  0.00    +0.000 NA
ATOM      5  C   UNL     1      64.874  57.529  29.693  0.00  0.00    +0.000 A 
ATOM      6  N   UNL     1      64.120  58.113  30.642  0.00  0.00    +0.000 NA
ENDROOT
TORSDOF 0
ENDMDL
MODEL 7
REMARK minimizedAffinity -2.28528118REMARK  Name = 7
REMARK  0 active torsions:
REMARK  status: ('A' for Active; 'I' for Inactive)
REMARK                            x       y       z     vdW  Elec       q    Type
REMARK                         _______ _______ _______ _____ _____    ______ ____
ROOT
ATOM      1  C   UNL     1      64.985  58.093  32.385  0.00  0.00    +0.000 A 
ATOM      2  C   UNL     1      64.152  58.280  31.261  0.00  0.00    +0.000 A 
ATOM      3  C   UNL     1      64.597  57.780  30.027  0.00  0.00    +0.000 A 
ATOM      4  N   UNL     1      65.806  57.148  29.985  0.00  0.00    +0.000 NA
ATOM      5  C   UNL     1      66.577  56.987  31.085  0.00  0.00    +0.000 A 
ATOM      6  N   UNL     1      66.164  57.456  32.277  0.00  0.00    +0.000 NA
ENDROOT
TORSDOF 0
ENDMDL
MODEL 8
REMARK minimizedAffinity -2.20046282REMARK  Name = 7
REMARK  0 active torsions:
REMARK  status: ('A' for Active; 'I' for Inactive)
REMARK                            x       y       z     vdW  Elec       q    Type
REMARK                         _______ _______ _______ _____ _____    ______ ____
ROOT
ATOM      1  C   UNL     1      64.276  57.933  30.405  0.00  0.00    +0.000 A 
ATOM      2  C   UNL     1      65.461  57.316  29.951  0.00  0.00    +0.000 A 
ATOM      3  C   UNL     1      66.485  57.099  30.885  0.00  0.00    +0.000 A 
ATOM      4  N   UNL     1      66.277  57.499  32.174  0.00  0.00    +0.000 NA
ATOM      5  C   UNL     1      65.127  58.087  32.573  0.00  0.00    +0.000 A 
ATOM      6  N   UNL     1      64.132  58.299  31.691  0.00  0.00    +0.000 NA
ENDROOT
TORSDOF 0
ENDMDL
MODEL 9
REMARK minimizedAffinity -2.10316515REMARK  Name = 7
REMARK  0 active torsions:
REMARK  status: ('A' for Active; 'I' for Inactive)
REMARK                            x       y       z     vdW  Elec       q    Type
REMARK                         _______ _______ _______ _____ _____    ______ ____
ROOT
ATOM      1  C   UNL     1      67.974  65.084  27.735  0.00  0.00    +0.000 A 
ATOM      2  C   UNL     1      67.179  63.996  27.316  0.00  0.00    +0.000 A 
ATOM      3  C   UNL     1      66.131  63.590  28.155  0.00  0.00    +0.000 A 
ATOM      4  N   UNL     1      65.945  64.266  29.327  0.00  0.00    +0.000 NA
ATOM      5  C   UNL     1      66.727  65.305  29.695  0.00  0.00    +0.000 A 
ATOM      6  N   UNL     1      67.734  65.711  28.899  0.00  0.00    +0.000 NA
ENDROOT
TORSDOF 0
ENDMDL
