MODEL 1
REMARK minimizedAffinity -2.7424984REMARK  Name = 7
REMARK  0 active torsions:
REMARK  status: ('A' for Active; 'I' for Inactive)
REMARK                            x       y       z     vdW  Elec       q    Type
REMARK                         _______ _______ _______ _____ _____    ______ ____
ROOT
ATOM      1  C   UNL     1      63.184  55.981  25.893  0.00  0.00    +0.000 A 
ATOM      2  C   UNL     1      62.404  55.982  27.070  0.00  0.00    +0.000 A 
ATOM      3  C   UNL     1      62.925  56.629  28.200  0.00  0.00    +0.000 A 
ATOM      4  N   UNL     1      64.154  57.216  28.097  0.00  0.00    +0.000 NA
ATOM      5  C   UNL     1      64.872  57.196  26.952  0.00  0.00    +0.000 A 
ATOM      6  N   UNL     1      64.385  56.583  25.856  0.00  0.00    +0.000 NA
ENDROOT
TORSDOF 0
ENDMDL
