./init_pose/1_0.pdbqt
 OpenBabel03242521283D

  6  6  0  0  0  0  0  0  0  0999 V2000
   63.1840   55.9810   25.8930 C   0  0  0  0  0  3  0  0  0  0  0  0
   62.4040   55.9820   27.0700 C   0  0  0  0  0  3  0  0  0  0  0  0
   62.9250   56.6290   28.2000 C   0  0  0  0  0  3  0  0  0  0  0  0
   64.1540   57.2160   28.0970 N   0  0  0  0  0  0  0  0  0  0  0  0
   64.8720   57.1960   26.9520 C   0  0  0  0  0  3  0  0  0  0  0  0
   64.3850   56.5830   25.8560 N   0  0  0  0  0  0  0  0  0  0  0  0
  1  2  1  0  0  0  0
  2  3  2  0  0  0  0
  4  3  1  0  0  0  0
  5  4  2  0  0  0  0
  6  1  2  0  0  0  0
  6  5  1  0  0  0  0
M  END
>  <MODEL>
1

>  <REMARK>
 minimizedAffinity -2.7424984REMARK  Name = 7
  0 active torsions:
  status: ('A' for Active; 'I' for Inactive)
                            x       y       z     vdW  Elec       q    Type
                         _______ _______ _______ _____ _____    ______ ____

>  <TORSDO>
F 0

$$$$
