./init_pose/1_0.pdbqt
     RDKit          3D

 10 10  0  0  0  0  0  0  0  0999 V2000
   63.1840   55.9810   25.8930 C   0  0  0  0  0  0  0  0  0  0  0  0
   62.4040   55.9820   27.0700 C   0  0  0  0  0  0  0  0  0  0  0  0
   62.9250   56.6290   28.2000 C   0  0  0  0  0  0  0  0  0  0  0  0
   64.1540   57.2160   28.0970 N   0  0  0  0  0  0  0  0  0  0  0  0
   64.8720   57.1960   26.9520 C   0  0  0  0  0  0  0  0  0  0  0  0
   64.3850   56.5830   25.8560 N   0  0  0  0  0  0  0  0  0  0  0  0
   62.8024   55.4793   24.9916 H   0  0  0  0  0  0  0  0  0  0  0  0
   61.4199   55.4914   27.0997 H   0  0  0  0  0  0  0  0  0  0  0  0
   62.3596   56.6628   29.1430 H   0  0  0  0  0  0  0  0  0  0  0  0
   65.8580   57.6823   26.9151 H   0  0  0  0  0  0  0  0  0  0  0  0
  1  2  2  0
  2  3  1  0
  4  3  2  0
  5  4  1  0
  6  1  1  0
  6  5  2  0
  1  7  1  0
  2  8  1  0
  3  9  1  0
  5 10  1  0
M  END
>  <MODEL>  (1) 
1

>  <REMARK>  (1) 
 minimizedAffinity -2.7424984REMARK  Name = 7
  0 active torsions:
  status: ('A' for Active; 'I' for Inactive)
                            x       y       z     vdW  Elec       q    Type
                         _______ _______ _______ _____ _____    ______ ____

>  <TORSDO>  (1) 
F 0

$$$$
