MODEL 2
REMARK minimizedAffinity -2.71879101REMARK  Name = 7
REMARK  0 active torsions:
REMARK  status: ('A' for Active; 'I' for Inactive)
REMARK                            x       y       z     vdW  Elec       q    Type
REMARK                         _______ _______ _______ _____ _____    ______ ____
ROOT
ATOM      1  C   UNL     1      62.801  56.519  28.314  0.00  0.00    +0.000 A 
ATOM      2  C   UNL     1      62.296  55.906  27.148  0.00  0.00    +0.000 A 
ATOM      3  C   UNL     1      63.070  55.983  25.980  0.00  0.00    +0.000 A 
ATOM      4  N   UNL     1      64.262  56.647  26.039  0.00  0.00    +0.000 NA
ATOM      5  C   UNL     1      64.714  57.221  27.177  0.00  0.00    +0.000 A 
ATOM      6  N   UNL     1      63.987  57.153  28.307  0.00  0.00    +0.000 NA
ENDROOT
TORSDOF 0
ENDMDL
