./init_pose/1_1.pdbqt
 OpenBabel03242521283D

  6  6  0  0  0  0  0  0  0  0999 V2000
   62.8010   56.5190   28.3140 C   0  0  0  0  0  3  0  0  0  0  0  0
   62.2960   55.9060   27.1480 C   0  0  0  0  0  3  0  0  0  0  0  0
   63.0700   55.9830   25.9800 C   0  0  0  0  0  3  0  0  0  0  0  0
   64.2620   56.6470   26.0390 N   0  0  0  0  0  0  0  0  0  0  0  0
   64.7140   57.2210   27.1770 C   0  0  0  0  0  3  0  0  0  0  0  0
   63.9870   57.1530   28.3070 N   0  0  0  0  0  0  0  0  0  0  0  0
  2  1  2  0  0  0  0
  3  4  2  0  0  0  0
  3  2  1  0  0  0  0
  4  5  1  0  0  0  0
  5  6  2  0  0  0  0
  6  1  1  0  0  0  0
M  END
>  <MODEL>
2

>  <REMARK>
 minimizedAffinity -2.71879101REMARK  Name = 7
  0 active torsions:
  status: ('A' for Active; 'I' for Inactive)
                            x       y       z     vdW  Elec       q    Type
                         _______ _______ _______ _____ _____    ______ ____

>  <TORSDO>
F 0

$$$$
