./init_pose/1_2.pdbqt
 OpenBabel03242521283D

  6  6  0  0  0  0  0  0  0  0999 V2000
   64.9990   57.2310   27.0700 C   0  0  0  0  0  3  0  0  0  0  0  0
   63.8780   56.7130   26.3860 C   0  0  0  0  0  3  0  0  0  0  0  0
   62.7410   56.3930   27.1440 C   0  0  0  0  0  3  0  0  0  0  0  0
   62.7860   56.5980   28.4930 N   0  0  0  0  0  0  0  0  0  0  0  0
   63.8790   57.0980   29.1130 C   0  0  0  0  0  3  0  0  0  0  0  0
   64.9770   57.4140   28.4010 N   0  0  0  0  0  0  0  0  0  0  0  0
  1  6  1  0  0  0  0
  2  1  2  0  0  0  0
  2  3  1  0  0  0  0
  3  4  2  0  0  0  0
  4  5  1  0  0  0  0
  6  5  2  0  0  0  0
M  END
>  <MODEL>
3

>  <REMARK>
 minimizedAffinity -2.68082666REMARK  Name = 7
  0 active torsions:
  status: ('A' for Active; 'I' for Inactive)
                            x       y       z     vdW  Elec       q    Type
                         _______ _______ _______ _____ _____    ______ ____

>  <TORSDO>
F 0

$$$$
