MODEL 3
REMARK minimizedAffinity -2.68082666REMARK  Name = 7
REMARK  0 active torsions:
REMARK  status: ('A' for Active; 'I' for Inactive)
REMARK                            x       y       z     vdW  Elec       q    Type
REMARK                         _______ _______ _______ _____ _____    ______ ____
ROOT
ATOM      1  C   UNL     1      64.999  57.231  27.070  0.00  0.00    +0.000 A 
ATOM      2  C   UNL     1      63.878  56.713  26.386  0.00  0.00    +0.000 A 
ATOM      3  C   UNL     1      62.741  56.393  27.144  0.00  0.00    +0.000 A 
ATOM      4  N   UNL     1      62.786  56.598  28.493  0.00  0.00    +0.000 NA
ATOM      5  C   UNL     1      63.879  57.098  29.113  0.00  0.00    +0.000 A 
ATOM      6  N   UNL     1      64.977  57.414  28.401  0.00  0.00    +0.000 NA
ENDROOT
TORSDOF 0
ENDMDL
