./init_pose/1_2.pdbqt
     RDKit          3D

 10 10  0  0  0  0  0  0  0  0999 V2000
   64.9990   57.2310   27.0700 C   0  0  0  0  0  0  0  0  0  0  0  0
   63.8780   56.7130   26.3860 C   0  0  0  0  0  0  0  0  0  0  0  0
   62.7410   56.3930   27.1440 C   0  0  0  0  0  0  0  0  0  0  0  0
   62.7860   56.5980   28.4930 N   0  0  0  0  0  0  0  0  0  0  0  0
   63.8790   57.0980   29.1130 C   0  0  0  0  0  0  0  0  0  0  0  0
   64.9770   57.4140   28.4010 N   0  0  0  0  0  0  0  0  0  0  0  0
   65.9060   57.4892   26.5037 H   0  0  0  0  0  0  0  0  0  0  0  0
   63.8951   56.5652   25.2961 H   0  0  0  0  0  0  0  0  0  0  0  0
   61.8379   55.9879   26.6641 H   0  0  0  0  0  0  0  0  0  0  0  0
   63.8708   57.2470   30.2028 H   0  0  0  0  0  0  0  0  0  0  0  0
  1  6  2  0
  2  1  1  0
  2  3  2  0
  3  4  1  0
  4  5  2  0
  6  5  1  0
  1  7  1  0
  2  8  1  0
  3  9  1  0
  5 10  1  0
M  END
>  <MODEL>  (1) 
3

>  <REMARK>  (1) 
 minimizedAffinity -2.68082666REMARK  Name = 7
  0 active torsions:
  status: ('A' for Active; 'I' for Inactive)
                            x       y       z     vdW  Elec       q    Type
                         _______ _______ _______ _____ _____    ______ ____

>  <TORSDO>  (1) 
F 0

$$$$
