./init_pose/1_3.pdbqt
 OpenBabel03242521283D

  6  6  0  0  0  0  0  0  0  0999 V2000
   64.0490   57.1890   28.0390 C   0  0  0  0  0  0  0  0  0  0  0  0
   64.8820   57.1800   26.9000 C   0  0  0  0  0  0  0  0  0  0  0  0
   64.4220   56.5080   25.7580 C   0  0  0  0  0  0  0  0  0  0  0  0
   63.2000   55.9010   25.8160 N   0  0  0  0  0  0  0  0  0  0  0  0
   62.4280   55.9320   26.9260 C   0  0  0  0  0  0  0  0  0  0  0  0
   62.8530   56.5760   28.0290 N   0  0  0  0  0  0  0  0  0  0  0  0
  2  1  2  0  0  0  0
  3  4  2  0  0  0  0
  3  2  1  0  0  0  0
  4  5  1  0  0  0  0
  5  6  2  0  0  0  0
  6  1  1  0  0  0  0
M  END
>  <MODEL>
4

>  <REMARK>
 minimizedAffinity -2.62910819REMARK  Name = 7
  0 active torsions:
  status: ('A' for Active; 'I' for Inactive)
                            x       y       z     vdW  Elec       q    Type
                         _______ _______ _______ _____ _____    ______ ____

>  <TORSDO>
F 0

$$$$
