./init_pose/1_3.pdbqt
     RDKit          3D

 10 10  0  0  0  0  0  0  0  0999 V2000
   64.0490   57.1890   28.0390 C   0  0  0  0  0  0  0  0  0  0  0  0
   64.8820   57.1800   26.9000 C   0  0  0  0  0  0  0  0  0  0  0  0
   64.4220   56.5080   25.7580 C   0  0  0  0  0  0  0  0  0  0  0  0
   63.2000   55.9010   25.8160 N   0  0  0  0  0  0  0  0  0  0  0  0
   62.4280   55.9320   26.9260 C   0  0  0  0  0  0  0  0  0  0  0  0
   62.8530   56.5760   28.0290 N   0  0  0  0  0  0  0  0  0  0  0  0
   64.3841   57.7063   28.9501 H   0  0  0  0  0  0  0  0  0  0  0  0
   65.8600   57.6835   26.9075 H   0  0  0  0  0  0  0  0  0  0  0  0
   65.0287   56.4709   24.8412 H   0  0  0  0  0  0  0  0  0  0  0  0
   61.4496   55.4293   26.9275 H   0  0  0  0  0  0  0  0  0  0  0  0
  2  1  2  0
  3  4  2  0
  3  2  1  0
  4  5  1  0
  5  6  2  0
  6  1  1  0
  1  7  1  0
  2  8  1  0
  3  9  1  0
  5 10  1  0
M  END
>  <MODEL>  (1) 
4

>  <REMARK>  (1) 
 minimizedAffinity -2.62910819REMARK  Name = 7
  0 active torsions:
  status: ('A' for Active; 'I' for Inactive)
                            x       y       z     vdW  Elec       q    Type
                         _______ _______ _______ _____ _____    ______ ____

>  <TORSDO>  (1) 
F 0

$$$$
