./init_pose/1_4.pdbqt
     RDKit          3D

 10 10  0  0  0  0  0  0  0  0999 V2000
   66.4860   57.0060   30.9290 C   0  0  0  0  0  0  0  0  0  0  0  0
   65.8730   57.5350   32.0840 C   0  0  0  0  0  0  0  0  0  0  0  0
   64.6020   58.1120   31.9440 C   0  0  0  0  0  0  0  0  0  0  0  0
   64.0360   58.1310   30.7010 N   0  0  0  0  0  0  0  0  0  0  0  0
   64.6540   57.6110   29.6170 C   0  0  0  0  0  0  0  0  0  0  0  0
   65.8720   57.0500   29.7340 N   0  0  0  0  0  0  0  0  0  0  0  0
   67.4837   56.5496   31.0075 H   0  0  0  0  0  0  0  0  0  0  0  0
   66.3749   57.4964   33.0620 H   0  0  0  0  0  0  0  0  0  0  0  0
   64.0757   58.5374   32.8112 H   0  0  0  0  0  0  0  0  0  0  0  0
   64.1594   57.6465   28.6351 H   0  0  0  0  0  0  0  0  0  0  0  0
  1  2  2  0
  3  2  1  0
  4  3  2  0
  5  6  2  0
  5  4  1  0
  6  1  1  0
  1  7  1  0
  2  8  1  0
  3  9  1  0
  5 10  1  0
M  END
>  <MODEL>  (1) 
5

>  <REMARK>  (1) 
 minimizedAffinity -2.35434604REMARK  Name = 7
  0 active torsions:
  status: ('A' for Active; 'I' for Inactive)
                            x       y       z     vdW  Elec       q    Type
                         _______ _______ _______ _____ _____    ______ ____

>  <TORSDO>  (1) 
F 0

$$$$
