./init_pose/1_4.pdbqt
 OpenBabel03242521283D

  6  6  0  0  0  0  0  0  0  0999 V2000
   66.4860   57.0060   30.9290 C   0  0  0  0  0  0  0  0  0  0  0  0
   65.8730   57.5350   32.0840 C   0  0  0  0  0  0  0  0  0  0  0  0
   64.6020   58.1120   31.9440 C   0  0  0  0  0  0  0  0  0  0  0  0
   64.0360   58.1310   30.7010 N   0  0  0  0  0  0  0  0  0  0  0  0
   64.6540   57.6110   29.6170 C   0  0  0  0  0  0  0  0  0  0  0  0
   65.8720   57.0500   29.7340 N   0  0  0  0  0  0  0  0  0  0  0  0
  1  2  1  0  0  0  0
  3  2  2  0  0  0  0
  4  3  1  0  0  0  0
  5  6  1  0  0  0  0
  5  4  2  0  0  0  0
  6  1  2  0  0  0  0
M  END
>  <MODEL>
5

>  <REMARK>
 minimizedAffinity -2.35434604REMARK  Name = 7
  0 active torsions:
  status: ('A' for Active; 'I' for Inactive)
                            x       y       z     vdW  Elec       q    Type
                         _______ _______ _______ _____ _____    ______ ____

>  <TORSDO>
F 0

$$$$
