./init_pose/1_5.pdbqt
 OpenBabel03242521283D

  6  6  0  0  0  0  0  0  0  0999 V2000
   64.5600   58.1830   31.9100 C   0  0  0  0  0  3  0  0  0  0  0  0
   65.8180   57.6570   32.2760 C   0  0  0  0  0  3  0  0  0  0  0  0
   66.5920   57.0560   31.2720 C   0  0  0  0  0  3  0  0  0  0  0  0
   66.0840   57.0120   30.0050 N   0  0  0  0  0  0  0  0  0  0  0  0
   64.8740   57.5290   29.6930 C   0  0  0  0  0  3  0  0  0  0  0  0
   64.1200   58.1130   30.6420 N   0  0  0  0  0  0  0  0  0  0  0  0
  1  2  1  0  0  0  0
  3  2  2  0  0  0  0
  4  3  1  0  0  0  0
  5  4  2  0  0  0  0
  5  6  1  0  0  0  0
  6  1  2  0  0  0  0
M  END
>  <MODEL>
6

>  <REMARK>
 minimizedAffinity -2.32175851REMARK  Name = 7
  0 active torsions:
  status: ('A' for Active; 'I' for Inactive)
                            x       y       z     vdW  Elec       q    Type
                         _______ _______ _______ _____ _____    ______ ____

>  <TORSDO>
F 0

$$$$
