MODEL 6
REMARK minimizedAffinity -2.32175851REMARK  Name = 7
REMARK  0 active torsions:
REMARK  status: ('A' for Active; 'I' for Inactive)
REMARK                            x       y       z     vdW  Elec       q    Type
REMARK                         _______ _______ _______ _____ _____    ______ ____
ROOT
ATOM      1  C   UNL     1      64.560  58.183  31.910  0.00  0.00    +0.000 A 
ATOM      2  C   UNL     1      65.818  57.657  32.276  0.00  0.00    +0.000 A 
ATOM      3  C   UNL     1      66.592  57.056  31.272  0.00  0.00    +0.000 A 
ATOM      4  N   UNL     1      66.084  57.012  30.005  0.00  0.00    +0.000 NA
ATOM      5  C   UNL     1      64.874  57.529  29.693  0.00  0.00    +0.000 A 
ATOM      6  N   UNL     1      64.120  58.113  30.642  0.00  0.00    +0.000 NA
ENDROOT
TORSDOF 0
ENDMDL
