./init_pose/1_5.pdbqt
     RDKit          3D

 10 10  0  0  0  0  0  0  0  0999 V2000
   64.5600   58.1830   31.9100 C   0  0  0  0  0  0  0  0  0  0  0  0
   65.8180   57.6570   32.2760 C   0  0  0  0  0  0  0  0  0  0  0  0
   66.5920   57.0560   31.2720 C   0  0  0  0  0  0  0  0  0  0  0  0
   66.0840   57.0120   30.0050 N   0  0  0  0  0  0  0  0  0  0  0  0
   64.8740   57.5290   29.6930 C   0  0  0  0  0  0  0  0  0  0  0  0
   64.1200   58.1130   30.6420 N   0  0  0  0  0  0  0  0  0  0  0  0
   63.9292   58.6582   32.6757 H   0  0  0  0  0  0  0  0  0  0  0  0
   66.1791   57.7164   33.3133 H   0  0  0  0  0  0  0  0  0  0  0  0
   67.5812   56.6317   31.4991 H   0  0  0  0  0  0  0  0  0  0  0  0
   64.5045   57.4718   28.6585 H   0  0  0  0  0  0  0  0  0  0  0  0
  1  2  2  0
  3  2  1  0
  4  3  2  0
  5  4  1  0
  5  6  2  0
  6  1  1  0
  1  7  1  0
  2  8  1  0
  3  9  1  0
  5 10  1  0
M  END
>  <MODEL>  (1) 
6

>  <REMARK>  (1) 
 minimizedAffinity -2.32175851REMARK  Name = 7
  0 active torsions:
  status: ('A' for Active; 'I' for Inactive)
                            x       y       z     vdW  Elec       q    Type
                         _______ _______ _______ _____ _____    ______ ____

>  <TORSDO>  (1) 
F 0

$$$$
