MODEL 7
REMARK minimizedAffinity -2.28528118REMARK  Name = 7
REMARK  0 active torsions:
REMARK  status: ('A' for Active; 'I' for Inactive)
REMARK                            x       y       z     vdW  Elec       q    Type
REMARK                         _______ _______ _______ _____ _____    ______ ____
ROOT
ATOM      1  C   UNL     1      64.985  58.093  32.385  0.00  0.00    +0.000 A 
ATOM      2  C   UNL     1      64.152  58.280  31.261  0.00  0.00    +0.000 A 
ATOM      3  C   UNL     1      64.597  57.780  30.027  0.00  0.00    +0.000 A 
ATOM      4  N   UNL     1      65.806  57.148  29.985  0.00  0.00    +0.000 NA
ATOM      5  C   UNL     1      66.577  56.987  31.085  0.00  0.00    +0.000 A 
ATOM      6  N   UNL     1      66.164  57.456  32.277  0.00  0.00    +0.000 NA
ENDROOT
TORSDOF 0
ENDMDL
