./init_pose/1_6.pdbqt
 OpenBabel03242521283D

  6  6  0  0  0  0  0  0  0  0999 V2000
   64.9850   58.0930   32.3850 C   0  0  0  0  0  3  0  0  0  0  0  0
   64.1520   58.2800   31.2610 C   0  0  0  0  0  3  0  0  0  0  0  0
   64.5970   57.7800   30.0270 C   0  0  0  0  0  3  0  0  0  0  0  0
   65.8060   57.1480   29.9850 N   0  0  0  0  0  0  0  0  0  0  0  0
   66.5770   56.9870   31.0850 C   0  0  0  0  0  3  0  0  0  0  0  0
   66.1640   57.4560   32.2770 N   0  0  0  0  0  0  0  0  0  0  0  0
  2  1  2  0  0  0  0
  3  2  1  0  0  0  0
  4  3  2  0  0  0  0
  4  5  1  0  0  0  0
  5  6  2  0  0  0  0
  6  1  1  0  0  0  0
M  END
>  <MODEL>
7

>  <REMARK>
 minimizedAffinity -2.28528118REMARK  Name = 7
  0 active torsions:
  status: ('A' for Active; 'I' for Inactive)
                            x       y       z     vdW  Elec       q    Type
                         _______ _______ _______ _____ _____    ______ ____

>  <TORSDO>
F 0

$$$$
