./init_pose/1_7.pdbqt
 OpenBabel03242521283D

  6  6  0  0  0  0  0  0  0  0999 V2000
   64.2760   57.9330   30.4050 C   0  0  0  0  0  3  0  0  0  0  0  0
   65.4610   57.3160   29.9510 C   0  0  0  0  0  3  0  0  0  0  0  0
   66.4850   57.0990   30.8850 C   0  0  0  0  0  3  0  0  0  0  0  0
   66.2770   57.4990   32.1740 N   0  0  0  0  0  0  0  0  0  0  0  0
   65.1270   58.0870   32.5730 C   0  0  0  0  0  3  0  0  0  0  0  0
   64.1320   58.2990   31.6910 N   0  0  0  0  0  0  0  0  0  0  0  0
  1  6  1  0  0  0  0
  2  1  2  0  0  0  0
  2  3  1  0  0  0  0
  3  4  2  0  0  0  0
  4  5  1  0  0  0  0
  6  5  2  0  0  0  0
M  END
>  <MODEL>
8

>  <REMARK>
 minimizedAffinity -2.20046282REMARK  Name = 7
  0 active torsions:
  status: ('A' for Active; 'I' for Inactive)
                            x       y       z     vdW  Elec       q    Type
                         _______ _______ _______ _____ _____    ______ ____

>  <TORSDO>
F 0

$$$$
