./init_pose/1_7.pdbqt
     RDKit          3D

 10 10  0  0  0  0  0  0  0  0999 V2000
   64.2760   57.9330   30.4050 C   0  0  0  0  0  0  0  0  0  0  0  0
   65.4610   57.3160   29.9510 C   0  0  0  0  0  0  0  0  0  0  0  0
   66.4850   57.0990   30.8850 C   0  0  0  0  0  0  0  0  0  0  0  0
   66.2770   57.4990   32.1740 N   0  0  0  0  0  0  0  0  0  0  0  0
   65.1270   58.0870   32.5730 C   0  0  0  0  0  0  0  0  0  0  0  0
   64.1320   58.2990   31.6910 N   0  0  0  0  0  0  0  0  0  0  0  0
   63.4563   58.1177   29.6951 H   0  0  0  0  0  0  0  0  0  0  0  0
   65.5780   57.0151   28.8994 H   0  0  0  0  0  0  0  0  0  0  0  0
   67.4294   56.6199   30.5873 H   0  0  0  0  0  0  0  0  0  0  0  0
   65.0036   58.3934   33.6222 H   0  0  0  0  0  0  0  0  0  0  0  0
  1  6  2  0
  2  1  1  0
  2  3  2  0
  3  4  1  0
  4  5  2  0
  6  5  1  0
  1  7  1  0
  2  8  1  0
  3  9  1  0
  5 10  1  0
M  END
>  <MODEL>  (1) 
8

>  <REMARK>  (1) 
 minimizedAffinity -2.20046282REMARK  Name = 7
  0 active torsions:
  status: ('A' for Active; 'I' for Inactive)
                            x       y       z     vdW  Elec       q    Type
                         _______ _______ _______ _____ _____    ______ ____

>  <TORSDO>  (1) 
F 0

$$$$
