MODEL 9
REMARK minimizedAffinity -2.10316515REMARK  Name = 7
REMARK  0 active torsions:
REMARK  status: ('A' for Active; 'I' for Inactive)
REMARK                            x       y       z     vdW  Elec       q    Type
REMARK                         _______ _______ _______ _____ _____    ______ ____
ROOT
ATOM      1  C   UNL     1      67.974  65.084  27.735  0.00  0.00    +0.000 A 
ATOM      2  C   UNL     1      67.179  63.996  27.316  0.00  0.00    +0.000 A 
ATOM      3  C   UNL     1      66.131  63.590  28.155  0.00  0.00    +0.000 A 
ATOM      4  N   UNL     1      65.945  64.266  29.327  0.00  0.00    +0.000 NA
ATOM      5  C   UNL     1      66.727  65.305  29.695  0.00  0.00    +0.000 A 
ATOM      6  N   UNL     1      67.734  65.711  28.899  0.00  0.00    +0.000 NA
ENDROOT
TORSDOF 0
ENDMDL
