./init_pose/1_8.pdbqt
     RDKit          3D

 10 10  0  0  0  0  0  0  0  0999 V2000
   67.9740   65.0840   27.7350 C   0  0  0  0  0  0  0  0  0  0  0  0
   67.1790   63.9960   27.3160 C   0  0  0  0  0  0  0  0  0  0  0  0
   66.1310   63.5900   28.1550 C   0  0  0  0  0  0  0  0  0  0  0  0
   65.9450   64.2660   29.3270 N   0  0  0  0  0  0  0  0  0  0  0  0
   66.7270   65.3050   29.6950 C   0  0  0  0  0  0  0  0  0  0  0  0
   67.7340   65.7110   28.8990 N   0  0  0  0  0  0  0  0  0  0  0  0
   68.8039   65.4244   27.0983 H   0  0  0  0  0  0  0  0  0  0  0  0
   67.3748   63.4832   26.3627 H   0  0  0  0  0  0  0  0  0  0  0  0
   65.4770   62.7504   27.8768 H   0  0  0  0  0  0  0  0  0  0  0  0
   66.5400   65.8208   30.6484 H   0  0  0  0  0  0  0  0  0  0  0  0
  1  6  2  0
  2  1  1  0
  2  3  2  0
  3  4  1  0
  4  5  2  0
  6  5  1  0
  1  7  1  0
  2  8  1  0
  3  9  1  0
  5 10  1  0
M  END
>  <MODEL>  (1) 
9

>  <REMARK>  (1) 
 minimizedAffinity -2.10316515REMARK  Name = 7
  0 active torsions:
  status: ('A' for Active; 'I' for Inactive)
                            x       y       z     vdW  Elec       q    Type
                         _______ _______ _______ _____ _____    ______ ____

>  <TORSDO>  (1) 
F 0

$$$$
