./init_pose/1_8.pdbqt
 OpenBabel03242521283D

  6  6  0  0  0  0  0  0  0  0999 V2000
   67.9740   65.0840   27.7350 C   0  0  0  0  0  0  0  0  0  0  0  0
   67.1790   63.9960   27.3160 C   0  0  0  0  0  0  0  0  0  0  0  0
   66.1310   63.5900   28.1550 C   0  0  0  0  0  0  0  0  0  0  0  0
   65.9450   64.2660   29.3270 N   0  0  0  0  0  0  0  0  0  0  0  0
   66.7270   65.3050   29.6950 C   0  0  0  0  0  0  0  0  0  0  0  0
   67.7340   65.7110   28.8990 N   0  0  0  0  0  0  0  0  0  0  0  0
  1  6  1  0  0  0  0
  2  1  2  0  0  0  0
  2  3  1  0  0  0  0
  3  4  2  0  0  0  0
  4  5  1  0  0  0  0
  6  5  2  0  0  0  0
M  END
>  <MODEL>
9

>  <REMARK>
 minimizedAffinity -2.10316515REMARK  Name = 7
  0 active torsions:
  status: ('A' for Active; 'I' for Inactive)
                            x       y       z     vdW  Elec       q    Type
                         _______ _______ _______ _____ _____    ______ ____

>  <TORSDO>
F 0

$$$$
