
     RDKit          3D

 41 44  0  0  0  0  0  0  0  0999 V2000
   36.7980   25.4560   31.4530 C   0  0  0  0  0  0  0  0  0  0  0  0
   37.7540   24.6010   31.9130 C   0  0  0  0  0  0  0  0  0  0  0  0
   37.4540   23.2390   32.0320 C   0  0  0  0  0  0  0  0  0  0  0  0
   36.1910   22.7380   31.6860 C   0  0  0  0  0  0  0  0  0  0  0  0
   35.2140   23.6030   31.2160 C   0  0  0  0  0  0  0  0  0  0  0  0
   35.5610   24.9180   31.1210 C   0  0  0  0  0  0  0  0  0  0  0  0
   36.1560   20.3450   30.8550 C   0  0  0  0  0  0  0  0  0  0  0  0
   35.9930   21.3140   31.8480 C   0  0  0  0  0  0  0  0  0  0  0  0
   35.6010   20.8510   33.1120 C   0  0  0  0  0  0  0  0  0  0  0  0
   35.4050   19.5140   33.2970 N   0  0  0  0  0  0  0  0  0  0  0  0
   35.5830   18.6110   32.2800 C   0  0  0  0  0  0  0  0  0  0  0  0
   35.9630   19.0520   31.0470 N   0  0  0  0  0  0  0  0  0  0  0  0
   37.2090   27.1480   31.3190 S   0  0  0  0  0  0  0  0  0  0  0  0
   38.6580   27.3020   30.9420 O   0  0  0  0  0  0  0  0  0  0  0  0
   36.3130   27.7920   30.3260 O   0  0  0  0  0  0  0  0  0  0  0  0
   36.8980   27.8490   32.9000 C   0  0  0  0  0  0  0  0  0  0  0  0
   37.3380   27.5100   34.1040 N   0  0  0  0  0  0  0  0  0  0  0  0
   36.8260   28.3360   34.9840 O   0  0  0  0  0  0  0  0  0  0  0  0
   36.0600   29.2170   34.4210 C   0  0  0  0  0  0  0  0  0  0  0  0
   36.0910   28.9280   33.1070 N   0  0  0  0  0  0  0  0  0  0  0  0
   34.0150   32.3030   36.2960 C   0  0  0  0  0  0  0  0  0  0  0  0
   35.3870   32.2690   36.3920 C   0  0  0  0  0  0  0  0  0  0  0  0
   36.0770   31.2290   35.7610 C   0  0  0  0  0  0  0  0  0  0  0  0
   35.3130   30.3030   35.0790 C   0  0  0  0  0  0  0  0  0  0  0  0
   33.9340   30.3050   34.9610 C   0  0  0  0  0  0  0  0  0  0  0  0
   33.2810   31.3590   35.6060 C   0  0  0  0  0  0  0  0  0  0  0  0
   33.0550   33.5740   37.0590 S   0  0  0  0  0  0  0  0  0  0  0  0
   33.7610   34.2050   38.2050 O   0  0  0  0  0  0  0  0  0  0  0  0
   32.6730   34.5800   36.0100 O   0  0  0  0  0  0  0  0  0  0  0  0
   38.7506   24.9770   32.1878 H   0  0  0  0  0  0  0  0  0  0  0  0
   38.2245   22.5479   32.4044 H   0  0  0  0  0  0  0  0  0  0  0  0
   34.2120   23.2468   30.9347 H   0  0  0  0  0  0  0  0  0  0  0  0
   34.7945   25.6138   30.7490 H   0  0  0  0  0  0  0  0  0  0  0  0
   36.4635   20.6785   29.8529 H   0  0  0  0  0  0  0  0  0  0  0  0
   35.4535   21.5564   33.9431 H   0  0  0  0  0  0  0  0  0  0  0  0
   35.4202   17.5378   32.4580 H   0  0  0  0  0  0  0  0  0  0  0  0
   35.9299   33.0437   36.9534 H   0  0  0  0  0  0  0  0  0  0  0  0
   37.1734   31.1526   35.8058 H   0  0  0  0  0  0  0  0  0  0  0  0
   33.3902   29.5314   34.3991 H   0  0  0  0  0  0  0  0  0  0  0  0
   32.1845   31.4362   35.5640 H   0  0  0  0  0  0  0  0  0  0  0  0
   31.9214   33.0189   37.5917 H   0  0  0  0  0  0  0  0  0  0  0  0
  1  2  2  0
  2  3  1  0
  4  8  1  0
  4  3  2  0
  5  4  1  0
  6  5  2  0
  6  1  1  0
  7 12  2  0
  7  8  1  0
  8  9  2  0
  9 10  1  0
 11 10  2  0
 12 11  1  0
 13  1  1  0
 13 16  1  0
 14 13  2  0
 15 13  2  0
 16 20  1  0
 16 17  2  0
 17 18  1  0
 19 18  1  0
 19 24  1  0
 20 19  2  0
 21 22  2  0
 21 27  1  0
 23 22  1  0
 24 23  2  0
 25 24  1  0
 25 26  2  0
 26 21  1  0
 27 28  2  0
 29 27  2  0
  2 30  1  0
  3 31  1  0
  5 32  1  0
  6 33  1  0
  7 34  1  0
  9 35  1  0
 11 36  1  0
 22 37  1  0
 23 38  1  0
 25 39  1  0
 26 40  1  0
 27 41  1  0
M  ISO  8  30  14  31  14  32  14  33  14  34  14  35  14  36  14  37  14
M  ISO  4  38  14  39  14  40  14  41  11
M  END
>  <minimizedAffinity>  (1) 
-6.42812014

>  <minimizedRMSD>  (1) 
2.02520108

$$$$
