
     RDKit          3D

 41 44  0  0  0  0  0  0  0  0999 V2000
   36.8120   25.4860   31.5230 C   0  0  0  0  0  0  0  0  0  0  0  0
   37.6920   24.6610   32.1770 C   0  0  0  0  0  0  0  0  0  0  0  0
   37.3690   23.3110   32.3160 C   0  0  0  0  0  0  0  0  0  0  0  0
   36.1800   22.7920   31.8090 C   0  0  0  0  0  0  0  0  0  0  0  0
   35.2810   23.6180   31.1450 C   0  0  0  0  0  0  0  0  0  0  0  0
   35.6430   24.9400   31.0330 C   0  0  0  0  0  0  0  0  0  0  0  0
   35.9820   20.3880   31.0360 C   0  0  0  0  0  0  0  0  0  0  0  0
   35.9440   21.3690   32.0110 C   0  0  0  0  0  0  0  0  0  0  0  0
   35.6470   20.9420   33.3230 C   0  0  0  0  0  0  0  0  0  0  0  0
   35.4200   19.6130   33.5460 N   0  0  0  0  0  0  0  0  0  0  0  0
   35.4730   18.6950   32.5370 C   0  0  0  0  0  0  0  0  0  0  0  0
   35.7620   19.0980   31.2530 N   0  0  0  0  0  0  0  0  0  0  0  0
   37.2400   27.1740   31.3620 S   0  0  0  0  0  0  0  0  0  0  0  0
   38.7380   27.3080   31.1630 O   0  0  0  0  0  0  0  0  0  0  0  0
   36.4830   27.7860   30.2460 O   0  0  0  0  0  0  0  0  0  0  0  0
   36.7660   27.9500   32.8780 C   0  0  0  0  0  0  0  0  0  0  0  0
   37.1860   27.7920   34.1180 N   0  0  0  0  0  0  0  0  0  0  0  0
   36.5400   28.5860   34.9040 O   0  0  0  0  0  0  0  0  0  0  0  0
   35.6740   29.2940   34.2220 C   0  0  0  0  0  0  0  0  0  0  0  0
   35.8050   28.9030   32.9340 N   0  0  0  0  0  0  0  0  0  0  0  0
   34.8130   30.2590   34.8180 N   0  0  0  0  0  0  0  0  0  0  0  0
   35.0720   31.1610   35.7840 C   0  0  0  0  0  0  0  0  0  0  0  0
   34.0670   32.0040   36.2080 C   0  0  0  0  0  0  0  0  0  0  0  0
   34.4290   32.9720   37.2750 C   0  0  0  0  0  0  0  0  0  0  0  0
   32.8020   31.9480   35.6680 C   0  0  0  0  0  0  0  0  0  0  0  0
   31.9190   32.7420   36.0920 O   0  0  0  0  0  0  0  0  0  0  0  0
   32.5760   31.0240   34.6950 N   0  0  0  0  0  0  0  0  0  0  0  0
   33.5590   30.2030   34.2820 C   0  0  0  0  0  0  0  0  0  0  0  0
   33.1790   29.4060   33.3700 O   0  0  0  0  0  0  0  0  0  0  0  0
   38.6343   25.0566   32.5840 H   0  0  0  0  0  0  0  0  0  0  0  0
   38.0688   22.6415   32.8376 H   0  0  0  0  0  0  0  0  0  0  0  0
   34.3350   23.2366   30.7330 H   0  0  0  0  0  0  0  0  0  0  0  0
   34.9470   25.6144   30.5126 H   0  0  0  0  0  0  0  0  0  0  0  0
   36.2112   20.7004   30.0065 H   0  0  0  0  0  0  0  0  0  0  0  0
   35.5991   21.6653   34.1504 H   0  0  0  0  0  0  0  0  0  0  0  0
   35.2846   17.6324   32.7503 H   0  0  0  0  0  0  0  0  0  0  0  0
   36.0754   31.2244   36.2302 H   0  0  0  0  0  0  0  0  0  0  0  0
   34.2574   32.5132   38.2599 H   0  0  0  0  0  0  0  0  0  0  0  0
   35.4901   33.2452   37.1776 H   0  0  0  0  0  0  0  0  0  0  0  0
   33.8076   33.8744   37.1776 H   0  0  0  0  0  0  0  0  0  0  0  0
   31.6409   30.9521   34.2693 H   0  0  0  0  0  0  0  0  0  0  0  0
  1  2  2  0
  2  3  1  0
  4  8  1  0
  4  3  2  0
  5  4  1  0
  6  5  2  0
  6  1  1  0
  7 12  2  0
  7  8  1  0
  8  9  2  0
  9 10  1  0
 11 10  2  0
 12 11  1  0
 13  1  1  0
 13 16  1  0
 14 13  2  0
 15 13  2  0
 16 20  1  0
 16 17  2  0
 17 18  1  0
 19 21  1  0
 19 18  1  0
 20 19  2  0
 21 22  1  0
 22 23  2  0
 23 24  1  0
 25 26  2  0
 25 23  1  0
 27 25  1  0
 28 27  1  0
 28 21  1  0
 29 28  2  0
  2 30  1  0
  3 31  1  0
  5 32  1  0
  6 33  1  0
  7 34  1  0
  9 35  1  0
 11 36  1  0
 22 37  1  0
 24 38  1  0
 24 39  1  0
 24 40  1  0
 27 41  1  0
M  ISO  8  30  14  31  14  32  14  33  14  34  14  35  14  36  14  37  14
M  ISO  4  38   8  39   8  40   8  41   9
M  END
>  <minimizedAffinity>  (1) 
-6.55732965

>  <minimizedRMSD>  (1) 
1.2462641

$$$$
