
     RDKit          3D

 35 38  0  0  0  0  0  0  0  0999 V2000
   36.5980   25.8530   31.6280 C   0  0  0  0  0  0  0  0  0  0  0  0
   37.4680   25.0480   32.3150 C   0  0  0  0  0  0  0  0  0  0  0  0
   37.2030   23.6780   32.3960 C   0  0  0  0  0  0  0  0  0  0  0  0
   36.0700   23.1110   31.7930 C   0  0  0  0  0  0  0  0  0  0  0  0
   35.1930   23.9260   31.1000 C   0  0  0  0  0  0  0  0  0  0  0  0
   35.4810   25.2590   31.0390 C   0  0  0  0  0  0  0  0  0  0  0  0
   35.9510   20.7360   30.9340 C   0  0  0  0  0  0  0  0  0  0  0  0
   35.8980   21.6880   31.9420 C   0  0  0  0  0  0  0  0  0  0  0  0
   35.6500   21.2000   33.2530 C   0  0  0  0  0  0  0  0  0  0  0  0
   35.4840   19.8580   33.4190 N   0  0  0  0  0  0  0  0  0  0  0  0
   35.5490   18.9780   32.3820 C   0  0  0  0  0  0  0  0  0  0  0  0
   35.7890   19.4340   31.1080 N   0  0  0  0  0  0  0  0  0  0  0  0
   36.9510   27.5530   31.5410 S   0  0  0  0  0  0  0  0  0  0  0  0
   38.4150   27.7940   31.8490 O   0  0  0  0  0  0  0  0  0  0  0  0
   36.5870   28.0700   30.1870 O   0  0  0  0  0  0  0  0  0  0  0  0
   35.9350   28.3290   32.7460 C   0  0  0  0  0  0  0  0  0  0  0  0
   36.1470   28.6600   34.0030 N   0  0  0  0  0  0  0  0  0  0  0  0
   35.0840   29.2240   34.5000 O   0  0  0  0  0  0  0  0  0  0  0  0
   34.1420   29.2870   33.6070 C   0  0  0  0  0  0  0  0  0  0  0  0
   34.6630   28.7270   32.4960 N   0  0  0  0  0  0  0  0  0  0  0  0
   32.8040   29.7960   33.6220 N   0  0  0  0  0  0  0  0  0  0  0  0
   31.7310   29.0730   33.2140 C   0  0  0  0  0  0  0  0  0  0  0  0
   30.6510   29.9140   33.3870 C   0  0  0  0  0  0  0  0  0  0  0  0
   31.1000   31.0810   33.8790 N   0  0  0  0  0  0  0  0  0  0  0  0
   32.4350   31.0400   34.0360 C   0  0  0  0  0  0  0  0  0  0  0  0
   38.3614   25.4733   32.7955 H   0  0  0  0  0  0  0  0  0  0  0  0
   37.8998   23.0284   32.9460 H   0  0  0  0  0  0  0  0  0  0  0  0
   34.2954   23.5145   30.6153 H   0  0  0  0  0  0  0  0  0  0  0  0
   34.7853   25.9091   30.4881 H   0  0  0  0  0  0  0  0  0  0  0  0
   36.1426   21.0910   29.9106 H   0  0  0  0  0  0  0  0  0  0  0  0
   35.5936   21.8868   34.1104 H   0  0  0  0  0  0  0  0  0  0  0  0
   35.4094   17.9022   32.5640 H   0  0  0  0  0  0  0  0  0  0  0  0
   31.7237   28.0424   32.8296 H   0  0  0  0  0  0  0  0  0  0  0  0
   29.6023   29.6709   33.1609 H   0  0  0  0  0  0  0  0  0  0  0  0
   33.0882   31.8390   34.4167 H   0  0  0  0  0  0  0  0  0  0  0  0
  1  2  2  0
  2  3  1  0
  4  8  1  0
  4  3  2  0
  5  4  1  0
  6  5  2  0
  6  1  1  0
  7 12  2  0
  7  8  1  0
  8  9  2  0
  9 10  1  0
 11 10  2  0
 12 11  1  0
 13  1  1  0
 13 14  2  0
 13 16  1  0
 15 13  2  0
 16 17  2  0
 17 18  1  0
 19 21  1  0
 19 18  1  0
 20 16  1  0
 20 19  2  0
 21 25  1  0
 22 23  2  0
 22 21  1  0
 23 24  1  0
 24 25  2  0
  2 26  1  0
  3 27  1  0
  5 28  1  0
  6 29  1  0
  7 30  1  0
  9 31  1  0
 11 32  1  0
 22 33  1  0
 23 34  1  0
 25 35  1  0
M  ISO  8  26  14  27  14  28  14  29  14  30  14  31  14  32  14  33  14
M  ISO  2  34  14  35  14
M  END
>  <minimizedAffinity>  (1) 
-5.81311274

>  <minimizedRMSD>  (1) 
0.578966081

$$$$
