
     RDKit          3D

 34 37  0  0  0  0  0  0  0  0999 V2000
   36.6020   25.8470   31.6340 C   0  0  0  0  0  0  0  0  0  0  0  0
   37.4700   25.0370   32.3270 C   0  0  0  0  0  0  0  0  0  0  0  0
   37.2030   23.6670   32.4070 C   0  0  0  0  0  0  0  0  0  0  0  0
   36.0740   23.1060   31.7980 C   0  0  0  0  0  0  0  0  0  0  0  0
   35.1880   23.9160   31.0940 C   0  0  0  0  0  0  0  0  0  0  0  0
   35.5050   25.2500   31.0510 C   0  0  0  0  0  0  0  0  0  0  0  0
   35.9600   20.7340   30.9270 C   0  0  0  0  0  0  0  0  0  0  0  0
   35.9000   21.6770   31.9480 C   0  0  0  0  0  0  0  0  0  0  0  0
   35.6480   21.1820   33.2400 C   0  0  0  0  0  0  0  0  0  0  0  0
   35.4800   19.8360   33.4110 N   0  0  0  0  0  0  0  0  0  0  0  0
   35.5520   18.9620   32.3600 C   0  0  0  0  0  0  0  0  0  0  0  0
   35.7950   19.4320   31.1090 N   0  0  0  0  0  0  0  0  0  0  0  0
   36.9580   27.5480   31.5500 S   0  0  0  0  0  0  0  0  0  0  0  0
   38.4090   27.7860   31.8920 O   0  0  0  0  0  0  0  0  0  0  0  0
   36.6190   28.0630   30.2030 O   0  0  0  0  0  0  0  0  0  0  0  0
   35.9170   28.3220   32.7440 C   0  0  0  0  0  0  0  0  0  0  0  0
   36.0920   28.6080   34.0130 N   0  0  0  0  0  0  0  0  0  0  0  0
   35.0260   29.1850   34.4770 O   0  0  0  0  0  0  0  0  0  0  0  0
   34.1060   29.3100   33.5530 C   0  0  0  0  0  0  0  0  0  0  0  0
   34.6680   28.7680   32.4680 N   0  0  0  0  0  0  0  0  0  0  0  0
   32.7680   29.9180   33.7200 C   0  0  0  0  0  0  0  0  0  0  0  0
   31.6270   29.1440   33.3730 C   0  0  0  0  0  0  0  0  0  0  0  0
   30.2780   30.3300   33.7600 S   0  0  0  0  0  0  0  0  0  0  0  0
   31.5090   31.6650   34.3220 C   0  0  0  0  0  0  0  0  0  0  0  0
   32.6370   31.1470   34.1790 N   0  0  0  0  0  0  0  0  0  0  0  0
   38.3619   25.4607   32.8117 H   0  0  0  0  0  0  0  0  0  0  0  0
   37.8952   23.0155   32.9606 H   0  0  0  0  0  0  0  0  0  0  0  0
   34.2903   23.5121   30.6031 H   0  0  0  0  0  0  0  0  0  0  0  0
   34.8173   25.9066   30.4978 H   0  0  0  0  0  0  0  0  0  0  0  0
   36.1566   21.0914   29.9054 H   0  0  0  0  0  0  0  0  0  0  0  0
   35.5871   21.8665   34.0989 H   0  0  0  0  0  0  0  0  0  0  0  0
   35.4137   17.8837   32.5278 H   0  0  0  0  0  0  0  0  0  0  0  0
   31.5681   28.1179   32.9809 H   0  0  0  0  0  0  0  0  0  0  0  0
   31.2783   32.6746   34.6927 H   0  0  0  0  0  0  0  0  0  0  0  0
  1  2  2  0
  2  3  1  0
  4  8  1  0
  4  3  2  0
  5  4  1  0
  6  5  2  0
  6  1  1  0
  7 12  2  0
  7  8  1  0
  8  9  2  0
  9 10  1  0
 11 10  2  0
 12 11  1  0
 13  1  1  0
 13 14  2  0
 13 16  1  0
 15 13  2  0
 16 17  2  0
 17 18  1  0
 19 21  1  0
 19 18  1  0
 20 16  1  0
 20 19  2  0
 21 25  1  0
 22 21  2  0
 22 23  1  0
 23 24  1  0
 25 24  2  0
  2 26  1  0
  3 27  1  0
  5 28  1  0
  6 29  1  0
  7 30  1  0
  9 31  1  0
 11 32  1  0
 22 33  1  0
 24 34  1  0
M  ISO  8  26  14  27  14  28  14  29  14  30  14  31  14  32  14  33  14
M  ISO  1  34  14
M  END
>  <minimizedAffinity>  (1) 
-5.52031708

>  <minimizedRMSD>  (1) 
0.564315617

$$$$
