
     RDKit          3D

 35 38  0  0  0  0  0  0  0  0999 V2000
   36.5990   25.8470   31.6360 C   0  0  0  0  0  0  0  0  0  0  0  0
   37.4670   25.0490   32.3190 C   0  0  0  0  0  0  0  0  0  0  0  0
   37.2090   23.6750   32.4020 C   0  0  0  0  0  0  0  0  0  0  0  0
   36.0780   23.1120   31.7980 C   0  0  0  0  0  0  0  0  0  0  0  0
   35.2010   23.9200   31.1080 C   0  0  0  0  0  0  0  0  0  0  0  0
   35.4980   25.2550   31.0560 C   0  0  0  0  0  0  0  0  0  0  0  0
   35.9610   20.7350   30.9250 C   0  0  0  0  0  0  0  0  0  0  0  0
   35.9030   21.6830   31.9420 C   0  0  0  0  0  0  0  0  0  0  0  0
   35.6470   21.1920   33.2410 C   0  0  0  0  0  0  0  0  0  0  0  0
   35.4760   19.8500   33.4150 N   0  0  0  0  0  0  0  0  0  0  0  0
   35.5470   18.9710   32.3640 C   0  0  0  0  0  0  0  0  0  0  0  0
   35.7950   19.4360   31.0970 N   0  0  0  0  0  0  0  0  0  0  0  0
   36.9530   27.5500   31.5540 S   0  0  0  0  0  0  0  0  0  0  0  0
   38.4010   27.8040   31.9170 O   0  0  0  0  0  0  0  0  0  0  0  0
   36.6340   28.0720   30.2030 O   0  0  0  0  0  0  0  0  0  0  0  0
   35.8920   28.3320   32.7320 C   0  0  0  0  0  0  0  0  0  0  0  0
   36.0830   28.6800   33.9890 N   0  0  0  0  0  0  0  0  0  0  0  0
   34.9900   29.2360   34.4470 O   0  0  0  0  0  0  0  0  0  0  0  0
   34.0770   29.2680   33.5310 C   0  0  0  0  0  0  0  0  0  0  0  0
   34.6060   28.7060   32.4280 N   0  0  0  0  0  0  0  0  0  0  0  0
   32.7250   29.8040   33.6420 C   0  0  0  0  0  0  0  0  0  0  0  0
   31.5670   29.0830   33.3390 C   0  0  0  0  0  0  0  0  0  0  0  0
   30.5210   29.9600   33.5810 C   0  0  0  0  0  0  0  0  0  0  0  0
   31.0760   31.1680   34.0180 C   0  0  0  0  0  0  0  0  0  0  0  0
   32.3580   30.9910   34.0240 O   0  0  0  0  0  0  0  0  0  0  0  0
   38.3588   25.4784   32.7989 H   0  0  0  0  0  0  0  0  0  0  0  0
   37.9072   23.0265   32.9514 H   0  0  0  0  0  0  0  0  0  0  0  0
   34.3034   23.5110   30.6213 H   0  0  0  0  0  0  0  0  0  0  0  0
   34.8025   25.9073   30.5076 H   0  0  0  0  0  0  0  0  0  0  0  0
   36.1594   21.0933   29.9041 H   0  0  0  0  0  0  0  0  0  0  0  0
   35.5866   21.8796   34.0974 H   0  0  0  0  0  0  0  0  0  0  0  0
   35.4052   17.8940   32.5369 H   0  0  0  0  0  0  0  0  0  0  0  0
   31.4999   28.0437   32.9849 H   0  0  0  0  0  0  0  0  0  0  0  0
   29.4498   29.7454   33.4528 H   0  0  0  0  0  0  0  0  0  0  0  0
   30.5329   32.0823   34.2993 H   0  0  0  0  0  0  0  0  0  0  0  0
  1  2  2  0
  2  3  1  0
  4  8  1  0
  4  3  2  0
  5  4  1  0
  6  5  2  0
  6  1  1  0
  7 12  2  0
  7  8  1  0
  8  9  2  0
  9 10  1  0
 11 10  2  0
 12 11  1  0
 13  1  1  0
 13 14  2  0
 13 16  1  0
 15 13  2  0
 16 17  2  0
 17 18  1  0
 19 21  1  0
 19 18  1  0
 20 16  1  0
 20 19  2  0
 21 25  1  0
 22 23  1  0
 22 21  2  0
 23 24  2  0
 24 25  1  0
  2 26  1  0
  3 27  1  0
  5 28  1  0
  6 29  1  0
  7 30  1  0
  9 31  1  0
 11 32  1  0
 22 33  1  0
 23 34  1  0
 24 35  1  0
M  ISO  8  26  14  27  14  28  14  29  14  30  14  31  14  32  14  33  14
M  ISO  2  34  14  35  14
M  END
>  <minimizedAffinity>  (1) 
-5.58175087

>  <minimizedRMSD>  (1) 
0.627723992

$$$$
