
     RDKit          3D

 36 39  0  0  0  0  0  0  0  0999 V2000
   36.6100   25.8160   31.6030 C   0  0  0  0  0  0  0  0  0  0  0  0
   37.4710   25.0150   32.2890 C   0  0  0  0  0  0  0  0  0  0  0  0
   37.2040   23.6410   32.3880 C   0  0  0  0  0  0  0  0  0  0  0  0
   36.0720   23.0740   31.8000 C   0  0  0  0  0  0  0  0  0  0  0  0
   35.1980   23.8860   31.1040 C   0  0  0  0  0  0  0  0  0  0  0  0
   35.4930   25.2160   31.0300 C   0  0  0  0  0  0  0  0  0  0  0  0
   35.9360   20.6970   30.9420 C   0  0  0  0  0  0  0  0  0  0  0  0
   35.8940   21.6490   31.9630 C   0  0  0  0  0  0  0  0  0  0  0  0
   35.6540   21.1680   33.2580 C   0  0  0  0  0  0  0  0  0  0  0  0
   35.4790   19.8280   33.4530 N   0  0  0  0  0  0  0  0  0  0  0  0
   35.5340   18.9450   32.4020 C   0  0  0  0  0  0  0  0  0  0  0  0
   35.7640   19.3970   31.1450 N   0  0  0  0  0  0  0  0  0  0  0  0
   36.9780   27.5140   31.5030 S   0  0  0  0  0  0  0  0  0  0  0  0
   38.4400   27.7460   31.7790 O   0  0  0  0  0  0  0  0  0  0  0  0
   36.5840   28.0330   30.1650 O   0  0  0  0  0  0  0  0  0  0  0  0
   35.9820   28.2990   32.7250 C   0  0  0  0  0  0  0  0  0  0  0  0
   36.1930   28.5390   34.0150 N   0  0  0  0  0  0  0  0  0  0  0  0
   35.1620   29.1510   34.5160 O   0  0  0  0  0  0  0  0  0  0  0  0
   34.2540   29.3390   33.6120 C   0  0  0  0  0  0  0  0  0  0  0  0
   34.7460   28.8110   32.4770 N   0  0  0  0  0  0  0  0  0  0  0  0
   32.9230   29.9700   33.6560 C   0  0  0  0  0  0  0  0  0  0  0  0
   31.7470   29.3180   33.3480 C   0  0  0  0  0  0  0  0  0  0  0  0
   30.5510   30.0000   33.4210 C   0  0  0  0  0  0  0  0  0  0  0  0
   30.5090   31.2920   33.7880 N   0  0  0  0  0  0  0  0  0  0  0  0
   31.6530   31.9320   34.0890 C   0  0  0  0  0  0  0  0  0  0  0  0
   32.8490   31.2830   34.0260 N   0  0  0  0  0  0  0  0  0  0  0  0
   38.3682   25.4412   32.7616 H   0  0  0  0  0  0  0  0  0  0  0  0
   37.9025   22.9961   32.9414 H   0  0  0  0  0  0  0  0  0  0  0  0
   34.2963   23.4751   30.6264 H   0  0  0  0  0  0  0  0  0  0  0  0
   34.7959   25.8620   30.4761 H   0  0  0  0  0  0  0  0  0  0  0  0
   36.1216   21.0434   29.9146 H   0  0  0  0  0  0  0  0  0  0  0  0
   35.6071   21.8636   34.1088 H   0  0  0  0  0  0  0  0  0  0  0  0
   35.3911   17.8691   32.5809 H   0  0  0  0  0  0  0  0  0  0  0  0
   31.7634   28.2604   33.0460 H   0  0  0  0  0  0  0  0  0  0  0  0
   29.6149   29.4775   33.1745 H   0  0  0  0  0  0  0  0  0  0  0  0
   31.6225   32.9899   34.3890 H   0  0  0  0  0  0  0  0  0  0  0  0
  1  2  2  0
  2  3  1  0
  4  8  1  0
  4  3  2  0
  5  4  1  0
  6  5  2  0
  6  1  1  0
  7 12  2  0
  7  8  1  0
  8  9  2  0
  9 10  1  0
 11 10  2  0
 12 11  1  0
 13  1  1  0
 13 14  2  0
 13 16  1  0
 15 13  2  0
 16 17  2  0
 17 18  1  0
 19 21  1  0
 19 18  1  0
 20 16  1  0
 20 19  2  0
 21 26  2  0
 22 23  2  0
 22 21  1  0
 23 24  1  0
 24 25  2  0
 26 25  1  0
  2 27  1  0
  3 28  1  0
  5 29  1  0
  6 30  1  0
  7 31  1  0
  9 32  1  0
 11 33  1  0
 22 34  1  0
 23 35  1  0
 25 36  1  0
M  ISO  8  27  14  28  14  29  14  30  14  31  14  32  14  33  14  34  14
M  ISO  2  35  14  36  14
M  END
>  <minimizedAffinity>  (1) 
-5.65684891

>  <minimizedRMSD>  (1) 
0.476267606

$$$$
