
     RDKit          3D

 30 32  0  0  0  0  0  0  0  0999 V2000
   36.6350   25.8220   31.6470 C   0  0  0  0  0  0  0  0  0  0  0  0
   37.5020   25.0110   32.3420 C   0  0  0  0  0  0  0  0  0  0  0  0
   37.2150   23.6410   32.4160 C   0  0  0  0  0  0  0  0  0  0  0  0
   36.0960   23.0900   31.8140 C   0  0  0  0  0  0  0  0  0  0  0  0
   35.2160   23.8920   31.1120 C   0  0  0  0  0  0  0  0  0  0  0  0
   35.5240   25.2320   31.0570 C   0  0  0  0  0  0  0  0  0  0  0  0
   35.9540   20.7180   30.9290 C   0  0  0  0  0  0  0  0  0  0  0  0
   35.9080   21.6560   31.9620 C   0  0  0  0  0  0  0  0  0  0  0  0
   35.6560   21.1640   33.2680 C   0  0  0  0  0  0  0  0  0  0  0  0
   35.4790   19.8220   33.4190 N   0  0  0  0  0  0  0  0  0  0  0  0
   35.5330   18.9490   32.3830 C   0  0  0  0  0  0  0  0  0  0  0  0
   35.7730   19.4090   31.1300 N   0  0  0  0  0  0  0  0  0  0  0  0
   36.9900   27.5160   31.5560 S   0  0  0  0  0  0  0  0  0  0  0  0
   38.4390   27.7560   31.9220 O   0  0  0  0  0  0  0  0  0  0  0  0
   36.6770   28.0310   30.1940 O   0  0  0  0  0  0  0  0  0  0  0  0
   35.9230   28.3100   32.7200 C   0  0  0  0  0  0  0  0  0  0  0  0
   36.0810   28.5840   34.0030 N   0  0  0  0  0  0  0  0  0  0  0  0
   35.0250   29.1810   34.4550 O   0  0  0  0  0  0  0  0  0  0  0  0
   34.1410   29.3240   33.5070 C   0  0  0  0  0  0  0  0  0  0  0  0
   34.6910   28.7800   32.4080 N   0  0  0  0  0  0  0  0  0  0  0  0
   32.8060   29.9040   33.4300 C   0  0  0  0  0  0  0  0  0  0  0  0
   31.7730   29.3570   32.9610 O   0  0  0  0  0  0  0  0  0  0  0  0
   38.3974   25.4269   32.8271 H   0  0  0  0  0  0  0  0  0  0  0  0
   37.9003   22.9825   32.9698 H   0  0  0  0  0  0  0  0  0  0  0  0
   34.3193   23.4819   30.6244 H   0  0  0  0  0  0  0  0  0  0  0  0
   34.8366   25.8876   30.5023 H   0  0  0  0  0  0  0  0  0  0  0  0
   36.1476   21.0714   29.9055 H   0  0  0  0  0  0  0  0  0  0  0  0
   35.6051   21.8441   34.1310 H   0  0  0  0  0  0  0  0  0  0  0  0
   35.3830   17.8734   32.5579 H   0  0  0  0  0  0  0  0  0  0  0  0
   32.6886   30.9250   33.8220 H   0  0  0  0  0  0  0  0  0  0  0  0
  1  2  2  0
  2  3  1  0
  4  8  1  0
  4  3  2  0
  5  4  1  0
  6  5  2  0
  6  1  1  0
  7 12  2  0
  7  8  1  0
  8  9  2  0
  9 10  1  0
 11 10  2  0
 12 11  1  0
 13  1  1  0
 13 14  2  0
 13 16  1  0
 15 13  2  0
 16 17  2  0
 17 18  1  0
 19 18  1  0
 20 16  1  0
 20 19  2  0
 21 19  1  0
 22 21  2  0
  2 23  1  0
  3 24  1  0
  5 25  1  0
  6 26  1  0
  7 27  1  0
  9 28  1  0
 11 29  1  0
 21 30  1  0
M  ISO  8  23  14  24  14  25  14  26  14  27  14  28  14  29  14  30   6
M  END
>  <minimizedAffinity>  (1) 
-5.05856991

>  <minimizedRMSD>  (1) 
0.441028059

$$$$
