
     RDKit          3D

 29 31  0  0  0  0  0  0  0  0999 V2000
   36.6000   25.8360   31.6340 C   0  0  0  0  0  0  0  0  0  0  0  0
   37.4700   25.0310   32.3220 C   0  0  0  0  0  0  0  0  0  0  0  0
   37.2120   23.6560   32.4100 C   0  0  0  0  0  0  0  0  0  0  0  0
   36.0770   23.0980   31.8040 C   0  0  0  0  0  0  0  0  0  0  0  0
   35.2010   23.9080   31.1120 C   0  0  0  0  0  0  0  0  0  0  0  0
   35.4980   25.2470   31.0540 C   0  0  0  0  0  0  0  0  0  0  0  0
   35.9520   20.7280   30.9320 C   0  0  0  0  0  0  0  0  0  0  0  0
   35.9000   21.6650   31.9530 C   0  0  0  0  0  0  0  0  0  0  0  0
   35.6500   21.1770   33.2550 C   0  0  0  0  0  0  0  0  0  0  0  0
   35.4780   19.8360   33.4280 N   0  0  0  0  0  0  0  0  0  0  0  0
   35.5400   18.9590   32.3910 C   0  0  0  0  0  0  0  0  0  0  0  0
   35.7820   19.4190   31.1190 N   0  0  0  0  0  0  0  0  0  0  0  0
   36.9740   27.5280   31.5610 S   0  0  0  0  0  0  0  0  0  0  0  0
   38.4070   27.7790   31.9160 O   0  0  0  0  0  0  0  0  0  0  0  0
   36.6430   28.0490   30.2010 O   0  0  0  0  0  0  0  0  0  0  0  0
   35.8990   28.3210   32.7210 C   0  0  0  0  0  0  0  0  0  0  0  0
   36.0350   28.5470   34.0190 N   0  0  0  0  0  0  0  0  0  0  0  0
   34.9870   29.1660   34.4580 O   0  0  0  0  0  0  0  0  0  0  0  0
   34.1330   29.3710   33.5050 C   0  0  0  0  0  0  0  0  0  0  0  0
   34.6880   28.8480   32.4060 N   0  0  0  0  0  0  0  0  0  0  0  0
   32.5230   30.1320   33.3530 S   0  0  0  0  0  0  0  0  0  0  0  0
   38.3626   25.4600   32.8008 H   0  0  0  0  0  0  0  0  0  0  0  0
   37.9083   23.0068   32.9611 H   0  0  0  0  0  0  0  0  0  0  0  0
   34.3025   23.4985   30.6272 H   0  0  0  0  0  0  0  0  0  0  0  0
   34.8039   25.8986   30.5030 H   0  0  0  0  0  0  0  0  0  0  0  0
   36.1445   21.0852   29.9096 H   0  0  0  0  0  0  0  0  0  0  0  0
   35.5953   21.8651   34.1115 H   0  0  0  0  0  0  0  0  0  0  0  0
   35.3967   17.8831   32.5699 H   0  0  0  0  0  0  0  0  0  0  0  0
   32.0123   30.3734   34.6011 H   0  0  0  0  0  0  0  0  0  0  0  0
  1  2  2  0
  2  3  1  0
  4  8  1  0
  4  3  2  0
  5  4  1  0
  6  5  2  0
  6  1  1  0
  7 12  2  0
  7  8  1  0
  8  9  2  0
  9 10  1  0
 11 10  2  0
 12 11  1  0
 13  1  1  0
 13 14  2  0
 13 16  1  0
 15 13  2  0
 16 17  2  0
 17 18  1  0
 19 18  1  0
 20 16  1  0
 20 19  2  0
 21 19  1  0
  2 22  1  0
  3 23  1  0
  5 24  1  0
  6 25  1  0
  7 26  1  0
  9 27  1  0
 11 28  1  0
 21 29  1  0
M  ISO  8  22  14  23  14  24  14  25  14  26  14  27  14  28  14  29  11
M  END
>  <minimizedAffinity>  (1) 
-5.11724186

>  <minimizedRMSD>  (1) 
0.35356155

$$$$
