
     RDKit          3D

 38 41  0  0  0  0  0  0  0  0999 V2000
   36.8540   25.5840   31.4200 C   0  0  0  0  0  0  0  0  0  0  0  0
   37.7620   24.7300   31.9650 C   0  0  0  0  0  0  0  0  0  0  0  0
   37.4330   23.3820   32.1250 C   0  0  0  0  0  0  0  0  0  0  0  0
   36.2000   22.8890   31.7410 C   0  0  0  0  0  0  0  0  0  0  0  0
   35.2720   23.7370   31.1890 C   0  0  0  0  0  0  0  0  0  0  0  0
   35.6390   25.0570   31.0500 C   0  0  0  0  0  0  0  0  0  0  0  0
   35.9650   20.4810   30.9950 C   0  0  0  0  0  0  0  0  0  0  0  0
   35.9610   21.4750   31.9500 C   0  0  0  0  0  0  0  0  0  0  0  0
   35.6900   21.0550   33.2850 C   0  0  0  0  0  0  0  0  0  0  0  0
   35.4600   19.7270   33.5100 N   0  0  0  0  0  0  0  0  0  0  0  0
   35.4810   18.8060   32.5180 C   0  0  0  0  0  0  0  0  0  0  0  0
   35.7390   19.2030   31.2440 N   0  0  0  0  0  0  0  0  0  0  0  0
   37.2850   27.2580   31.2320 S   0  0  0  0  0  0  0  0  0  0  0  0
   38.7850   27.3810   31.0780 O   0  0  0  0  0  0  0  0  0  0  0  0
   36.5800   27.8450   30.0730 O   0  0  0  0  0  0  0  0  0  0  0  0
   36.7580   28.0640   32.6980 C   0  0  0  0  0  0  0  0  0  0  0  0
   36.9530   27.7930   33.9740 N   0  0  0  0  0  0  0  0  0  0  0  0
   36.3670   28.6770   34.7140 O   0  0  0  0  0  0  0  0  0  0  0  0
   35.7540   29.5770   33.9670 C   0  0  0  0  0  0  0  0  0  0  0  0
   36.0000   29.1910   32.7050 N   0  0  0  0  0  0  0  0  0  0  0  0
   35.0000   30.7030   34.2040 O   0  0  0  0  0  0  0  0  0  0  0  0
   34.1430   30.8180   35.2740 C   0  0  0  0  0  0  0  0  0  0  0  0
   34.1710   31.6980   36.3340 C   0  0  0  0  0  0  0  0  0  0  0  0
   33.2440   31.6980   37.3370 C   0  0  0  0  0  0  0  0  0  0  0  0
   32.2320   30.7780   37.2930 C   0  0  0  0  0  0  0  0  0  0  0  0
   32.2240   29.9060   36.2210 C   0  0  0  0  0  0  0  0  0  0  0  0
   33.1420   29.9040   35.2240 N   0  0  0  0  0  0  0  0  0  0  0  0
   38.7499   25.0991   32.2779 H   0  0  0  0  0  0  0  0  0  0  0  0
   38.1719   22.6971   32.5666 H   0  0  0  0  0  0  0  0  0  0  0  0
   34.2813   23.3787   30.8725 H   0  0  0  0  0  0  0  0  0  0  0  0
   34.9022   25.7439   30.6082 H   0  0  0  0  0  0  0  0  0  0  0  0
   36.1704   20.7715   29.9541 H   0  0  0  0  0  0  0  0  0  0  0  0
   35.6667   21.7803   34.1116 H   0  0  0  0  0  0  0  0  0  0  0  0
   35.2909   17.7458   32.7411 H   0  0  0  0  0  0  0  0  0  0  0  0
   34.9826   32.4394   36.3745 H   0  0  0  0  0  0  0  0  0  0  0  0
   33.3095   32.4220   38.1625 H   0  0  0  0  0  0  0  0  0  0  0  0
   31.4600   30.7345   38.0754 H   0  0  0  0  0  0  0  0  0  0  0  0
   31.4158   29.1613   36.1736 H   0  0  0  0  0  0  0  0  0  0  0  0
  1  2  2  0
  2  3  1  0
  4  8  1  0
  4  3  2  0
  5  4  1  0
  6  5  2  0
  6  1  1  0
  7 12  2  0
  7  8  1  0
  8  9  2  0
  9 10  1  0
 11 10  2  0
 12 11  1  0
 13  1  1  0
 13 16  1  0
 14 13  2  0
 15 13  2  0
 16 20  1  0
 16 17  2  0
 17 18  1  0
 19 21  1  0
 19 18  1  0
 20 19  2  0
 21 22  1  0
 22 23  2  0
 23 24  1  0
 25 24  2  0
 26 25  1  0
 27 22  1  0
 27 26  2  0
  2 28  1  0
  3 29  1  0
  5 30  1  0
  6 31  1  0
  7 32  1  0
  9 33  1  0
 11 34  1  0
 23 35  1  0
 24 36  1  0
 25 37  1  0
 26 38  1  0
M  ISO  8  28  14  29  14  30  14  31  14  32  14  33  14  34  14  35  14
M  ISO  3  36  14  37  14  38  14
M  END
>  <minimizedAffinity>  (1) 
-6.03523445

>  <minimizedRMSD>  (1) 
1.28587842

$$$$
