
     RDKit          3D

 36 39  0  0  0  0  0  0  0  0999 V2000
   36.8560   25.6990   31.4760 C   0  0  0  0  0  0  0  0  0  0  0  0
   37.7680   24.8430   32.0370 C   0  0  0  0  0  0  0  0  0  0  0  0
   37.4290   23.4960   32.1870 C   0  0  0  0  0  0  0  0  0  0  0  0
   36.1950   23.0130   31.7810 C   0  0  0  0  0  0  0  0  0  0  0  0
   35.2680   23.8710   31.2140 C   0  0  0  0  0  0  0  0  0  0  0  0
   35.6420   25.1850   31.0860 C   0  0  0  0  0  0  0  0  0  0  0  0
   35.9170   20.6150   31.0110 C   0  0  0  0  0  0  0  0  0  0  0  0
   35.9520   21.5940   31.9860 C   0  0  0  0  0  0  0  0  0  0  0  0
   35.7270   21.1560   33.3120 C   0  0  0  0  0  0  0  0  0  0  0  0
   35.4980   19.8360   33.5300 N   0  0  0  0  0  0  0  0  0  0  0  0
   35.4760   18.9220   32.5270 C   0  0  0  0  0  0  0  0  0  0  0  0
   35.6930   19.3360   31.2370 N   0  0  0  0  0  0  0  0  0  0  0  0
   37.3080   27.3820   31.3010 S   0  0  0  0  0  0  0  0  0  0  0  0
   38.8120   27.5040   31.2750 O   0  0  0  0  0  0  0  0  0  0  0  0
   36.6780   27.9410   30.0730 O   0  0  0  0  0  0  0  0  0  0  0  0
   36.6490   28.2070   32.7080 C   0  0  0  0  0  0  0  0  0  0  0  0
   36.6580   27.9040   33.9960 N   0  0  0  0  0  0  0  0  0  0  0  0
   36.0340   28.8310   34.6760 O   0  0  0  0  0  0  0  0  0  0  0  0
   35.6030   29.7570   33.8610 C   0  0  0  0  0  0  0  0  0  0  0  0
   35.9770   29.3840   32.6270 N   0  0  0  0  0  0  0  0  0  0  0  0
   34.8910   30.9410   34.0540 O   0  0  0  0  0  0  0  0  0  0  0  0
   34.9010   32.1210   37.4160 N   0  0  0  0  0  0  0  0  0  0  0  0
   35.5730   31.8770   36.3160 N   0  0  0  0  0  0  0  0  0  0  0  0
   34.7660   31.3750   35.3670 C   0  0  0  0  0  0  0  0  0  0  0  0
   33.5000   31.3100   35.9410 C   0  0  0  0  0  0  0  0  0  0  0  0
   33.5870   31.7880   37.2520 C   0  0  0  0  0  0  0  0  0  0  0  0
   38.7517   25.2111   32.3640 H   0  0  0  0  0  0  0  0  0  0  0  0
   38.1566   22.8044   32.6367 H   0  0  0  0  0  0  0  0  0  0  0  0
   34.2807   23.5169   30.8826 H   0  0  0  0  0  0  0  0  0  0  0  0
   34.9160   25.8792   30.6377 H   0  0  0  0  0  0  0  0  0  0  0  0
   36.0887   20.9261   29.9700 H   0  0  0  0  0  0  0  0  0  0  0  0
   35.7374   21.8700   34.1488 H   0  0  0  0  0  0  0  0  0  0  0  0
   35.2863   17.8608   32.7459 H   0  0  0  0  0  0  0  0  0  0  0  0
   35.3066   32.5084   38.2799 H   0  0  0  0  0  0  0  0  0  0  0  0
   32.5871   30.9450   35.4477 H   0  0  0  0  0  0  0  0  0  0  0  0
   32.7754   31.8764   37.9892 H   0  0  0  0  0  0  0  0  0  0  0  0
  1  2  2  0
  2  3  1  0
  4  8  1  0
  4  3  2  0
  5  4  1  0
  6  5  2  0
  6  1  1  0
  7 12  2  0
  7  8  1  0
  8  9  2  0
  9 10  1  0
 11 10  2  0
 12 11  1  0
 13  1  1  0
 13 16  1  0
 14 13  2  0
 15 13  2  0
 16 17  2  0
 17 18  1  0
 19 21  1  0
 19 18  1  0
 20 16  1  0
 20 19  2  0
 21 24  1  0
 23 22  1  0
 24 25  1  0
 24 23  2  0
 25 26  2  0
 26 22  1  0
  2 27  1  0
  3 28  1  0
  5 29  1  0
  6 30  1  0
  7 31  1  0
  9 32  1  0
 11 33  1  0
 22 34  1  0
 25 35  1  0
 26 36  1  0
M  ISO  8  27  14  28  14  29  14  30  14  31  14  32  14  33  14  34   9
M  ISO  2  35  14  36  14
M  END
>  <minimizedAffinity>  (1) 
-6.1678834

>  <minimizedRMSD>  (1) 
1.50364304

$$$$
