
     RDKit          3D

 36 39  0  0  0  0  0  0  0  0999 V2000
   36.6910   25.6520   31.5690 C   0  0  0  0  0  0  0  0  0  0  0  0
   37.5690   24.8430   32.2360 C   0  0  0  0  0  0  0  0  0  0  0  0
   37.2670   23.4850   32.3550 C   0  0  0  0  0  0  0  0  0  0  0  0
   36.1110   22.9360   31.8190 C   0  0  0  0  0  0  0  0  0  0  0  0
   35.2200   23.7550   31.1420 C   0  0  0  0  0  0  0  0  0  0  0  0
   35.5360   25.0880   31.0370 C   0  0  0  0  0  0  0  0  0  0  0  0
   35.9140   20.5440   31.0280 C   0  0  0  0  0  0  0  0  0  0  0  0
   35.9050   21.5190   32.0030 C   0  0  0  0  0  0  0  0  0  0  0  0
   35.6640   21.0650   33.3250 C   0  0  0  0  0  0  0  0  0  0  0  0
   35.4640   19.7310   33.5340 N   0  0  0  0  0  0  0  0  0  0  0  0
   35.4880   18.8260   32.5240 C   0  0  0  0  0  0  0  0  0  0  0  0
   35.7200   19.2580   31.2450 N   0  0  0  0  0  0  0  0  0  0  0  0
   37.0890   27.3570   31.4320 S   0  0  0  0  0  0  0  0  0  0  0  0
   38.5800   27.5320   31.4640 O   0  0  0  0  0  0  0  0  0  0  0  0
   36.4910   27.9060   30.1950 O   0  0  0  0  0  0  0  0  0  0  0  0
   36.3510   28.1330   32.8240 C   0  0  0  0  0  0  0  0  0  0  0  0
   36.6440   28.1060   34.1130 N   0  0  0  0  0  0  0  0  0  0  0  0
   35.8010   28.8500   34.7720 O   0  0  0  0  0  0  0  0  0  0  0  0
   34.9380   29.3860   33.9580 C   0  0  0  0  0  0  0  0  0  0  0  0
   35.2610   28.9540   32.7410 N   0  0  0  0  0  0  0  0  0  0  0  0
   33.8470   30.2440   34.1220 O   0  0  0  0  0  0  0  0  0  0  0  0
   33.5210   30.6890   35.4180 C   0  0  0  0  0  0  0  0  0  0  0  0
   34.0200   31.6350   36.2900 C   0  0  0  0  0  0  0  0  0  0  0  0
   33.2690   31.5930   37.4010 N   0  0  0  0  0  0  0  0  0  0  0  0
   32.3290   30.6400   37.2090 C   0  0  0  0  0  0  0  0  0  0  0  0
   32.4670   30.0630   35.9790 N   0  0  0  0  0  0  0  0  0  0  0  0
   38.4931   25.2532   32.6693 H   0  0  0  0  0  0  0  0  0  0  0  0
   37.9685   22.8290   32.8912 H   0  0  0  0  0  0  0  0  0  0  0  0
   34.2943   23.3523   30.7051 H   0  0  0  0  0  0  0  0  0  0  0  0
   34.8360   25.7466   30.5019 H   0  0  0  0  0  0  0  0  0  0  0  0
   36.0968   20.8630   29.9913 H   0  0  0  0  0  0  0  0  0  0  0  0
   35.6388   21.7742   34.1655 H   0  0  0  0  0  0  0  0  0  0  0  0
   35.3231   17.7580   32.7295 H   0  0  0  0  0  0  0  0  0  0  0  0
   34.8762   32.3011   36.1077 H   0  0  0  0  0  0  0  0  0  0  0  0
   31.5577   30.3666   37.9440 H   0  0  0  0  0  0  0  0  0  0  0  0
   31.8916   29.3133   35.5694 H   0  0  0  0  0  0  0  0  0  0  0  0
  1  2  2  0
  2  3  1  0
  4  8  1  0
  4  3  2  0
  5  4  1  0
  6  5  2  0
  6  1  1  0
  7 12  2  0
  7  8  1  0
  8  9  2  0
  9 10  1  0
 11 10  2  0
 12 11  1  0
 13 14  2  0
 13  1  1  0
 13 16  1  0
 15 13  2  0
 16 17  2  0
 17 18  1  0
 19 21  1  0
 19 18  1  0
 20 16  1  0
 20 19  2  0
 21 22  1  0
 22 26  1  0
 22 23  2  0
 23 24  1  0
 25 24  2  0
 26 25  1  0
  2 27  1  0
  3 28  1  0
  5 29  1  0
  6 30  1  0
  7 31  1  0
  9 32  1  0
 11 33  1  0
 23 34  1  0
 25 35  1  0
 26 36  1  0
M  ISO  8  27  14  28  14  29  14  30  14  31  14  32  14  33  14  34  14
M  ISO  2  35  14  36   9
M  END
>  <minimizedAffinity>  (1) 
-5.65901566

>  <minimizedRMSD>  (1) 
0.910064459

$$$$
