
     RDKit          3D

 36 39  0  0  0  0  0  0  0  0999 V2000
   36.8220   25.6810   31.4740 C   0  0  0  0  0  0  0  0  0  0  0  0
   37.7310   24.8360   32.0400 C   0  0  0  0  0  0  0  0  0  0  0  0
   37.4080   23.4820   32.1860 C   0  0  0  0  0  0  0  0  0  0  0  0
   36.1840   22.9840   31.7700 C   0  0  0  0  0  0  0  0  0  0  0  0
   35.2570   23.8280   31.1960 C   0  0  0  0  0  0  0  0  0  0  0  0
   35.6140   25.1490   31.0710 C   0  0  0  0  0  0  0  0  0  0  0  0
   35.9330   20.5800   31.0070 C   0  0  0  0  0  0  0  0  0  0  0  0
   35.9510   21.5650   31.9690 C   0  0  0  0  0  0  0  0  0  0  0  0
   35.7130   21.1310   33.3080 C   0  0  0  0  0  0  0  0  0  0  0  0
   35.4900   19.8030   33.5240 N   0  0  0  0  0  0  0  0  0  0  0  0
   35.4870   18.8910   32.5200 C   0  0  0  0  0  0  0  0  0  0  0  0
   35.7140   19.2990   31.2410 N   0  0  0  0  0  0  0  0  0  0  0  0
   37.2610   27.3590   31.3080 S   0  0  0  0  0  0  0  0  0  0  0  0
   38.7510   27.4930   31.2070 O   0  0  0  0  0  0  0  0  0  0  0  0
   36.5910   27.9350   30.1060 O   0  0  0  0  0  0  0  0  0  0  0  0
   36.6530   28.1650   32.7310 C   0  0  0  0  0  0  0  0  0  0  0  0
   36.7540   27.8780   34.0120 N   0  0  0  0  0  0  0  0  0  0  0  0
   36.1320   28.7760   34.7280 O   0  0  0  0  0  0  0  0  0  0  0  0
   35.6000   29.6850   33.9320 C   0  0  0  0  0  0  0  0  0  0  0  0
   35.9110   29.3230   32.6950 N   0  0  0  0  0  0  0  0  0  0  0  0
   34.8560   30.8210   34.1680 O   0  0  0  0  0  0  0  0  0  0  0  0
   33.9920   30.8200   35.2460 C   0  0  0  0  0  0  0  0  0  0  0  0
   33.9640   31.5670   36.3820 C   0  0  0  0  0  0  0  0  0  0  0  0
   32.9950   31.3820   37.3180 C   0  0  0  0  0  0  0  0  0  0  0  0
   32.0120   30.2890   36.9350 C   0  0  0  0  0  0  0  0  0  0  0  0
   32.6510   29.6940   35.2580 S   0  0  0  0  0  0  0  0  0  0  0  0
   38.7070   25.2145   32.3779 H   0  0  0  0  0  0  0  0  0  0  0  0
   38.1411   22.7993   32.6404 H   0  0  0  0  0  0  0  0  0  0  0  0
   34.2779   23.4611   30.8543 H   0  0  0  0  0  0  0  0  0  0  0  0
   34.8827   25.8332   30.6160 H   0  0  0  0  0  0  0  0  0  0  0  0
   36.1147   20.8830   29.9653 H   0  0  0  0  0  0  0  0  0  0  0  0
   35.7096   21.8478   34.1424 H   0  0  0  0  0  0  0  0  0  0  0  0
   35.3024   17.8287   32.7377 H   0  0  0  0  0  0  0  0  0  0  0  0
   34.7368   32.3324   36.5462 H   0  0  0  0  0  0  0  0  0  0  0  0
   32.9300   31.9609   38.2511 H   0  0  0  0  0  0  0  0  0  0  0  0
   31.1381   29.9299   37.4982 H   0  0  0  0  0  0  0  0  0  0  0  0
  1  2  2  0
  2  3  1  0
  4  8  1  0
  4  3  2  0
  5  4  1  0
  6  5  2  0
  6  1  1  0
  7 12  2  0
  7  8  1  0
  8  9  2  0
  9 10  1  0
 11 10  2  0
 12 11  1  0
 13  1  1  0
 13 16  1  0
 14 13  2  0
 15 13  2  0
 16 17  2  0
 17 18  1  0
 19 21  1  0
 19 18  1  0
 20 16  1  0
 20 19  2  0
 21 22  1  0
 22 26  1  0
 22 23  2  0
 23 24  1  0
 25 24  2  0
 26 25  1  0
  2 27  1  0
  3 28  1  0
  5 29  1  0
  6 30  1  0
  7 31  1  0
  9 32  1  0
 11 33  1  0
 23 34  1  0
 24 35  1  0
 25 36  1  0
M  ISO  8  27  14  28  14  29  14  30  14  31  14  32  14  33  14  34  14
M  ISO  2  35  14  36  14
M  END
>  <minimizedAffinity>  (1) 
-5.82098055

>  <minimizedRMSD>  (1) 
1.06161869

$$$$
