
     RDKit          3D

 34 37  0  0  0  0  0  0  0  0999 V2000
   36.7080   25.6550   31.5800 C   0  0  0  0  0  0  0  0  0  0  0  0
   37.5800   24.8480   32.2490 C   0  0  0  0  0  0  0  0  0  0  0  0
   37.2760   23.4900   32.3710 C   0  0  0  0  0  0  0  0  0  0  0  0
   36.1200   22.9540   31.8300 C   0  0  0  0  0  0  0  0  0  0  0  0
   35.2330   23.7610   31.1530 C   0  0  0  0  0  0  0  0  0  0  0  0
   35.5570   25.0940   31.0490 C   0  0  0  0  0  0  0  0  0  0  0  0
   35.9210   20.5530   31.0170 C   0  0  0  0  0  0  0  0  0  0  0  0
   35.9080   21.5180   32.0210 C   0  0  0  0  0  0  0  0  0  0  0  0
   35.6680   21.0730   33.3330 C   0  0  0  0  0  0  0  0  0  0  0  0
   35.4670   19.7400   33.5420 N   0  0  0  0  0  0  0  0  0  0  0  0
   35.4900   18.8390   32.5230 C   0  0  0  0  0  0  0  0  0  0  0  0
   35.7220   19.2620   31.2430 N   0  0  0  0  0  0  0  0  0  0  0  0
   37.0920   27.3540   31.4320 S   0  0  0  0  0  0  0  0  0  0  0  0
   38.5980   27.5300   31.4830 O   0  0  0  0  0  0  0  0  0  0  0  0
   36.5220   27.9130   30.1890 O   0  0  0  0  0  0  0  0  0  0  0  0
   36.3610   28.1400   32.8250 C   0  0  0  0  0  0  0  0  0  0  0  0
   36.5900   28.0840   34.1150 N   0  0  0  0  0  0  0  0  0  0  0  0
   35.7650   28.8670   34.7520 O   0  0  0  0  0  0  0  0  0  0  0  0
   34.9640   29.4650   33.9110 C   0  0  0  0  0  0  0  0  0  0  0  0
   35.3260   29.0200   32.7030 N   0  0  0  0  0  0  0  0  0  0  0  0
   33.9380   30.3690   34.0840 O   0  0  0  0  0  0  0  0  0  0  0  0
   33.6410   30.7740   35.3780 C   0  0  0  0  0  0  0  0  0  0  0  0
   34.3300   31.6030   36.1810 N   0  0  0  0  0  0  0  0  0  0  0  0
   33.7390   31.7450   37.3290 O   0  0  0  0  0  0  0  0  0  0  0  0
   32.6290   31.0190   37.3460 C   0  0  0  0  0  0  0  0  0  0  0  0
   32.5730   30.4240   36.1430 N   0  0  0  0  0  0  0  0  0  0  0  0
   38.5037   25.2578   32.6836 H   0  0  0  0  0  0  0  0  0  0  0  0
   37.9721   22.8306   32.9101 H   0  0  0  0  0  0  0  0  0  0  0  0
   34.3077   23.3582   30.7154 H   0  0  0  0  0  0  0  0  0  0  0  0
   34.8605   25.7547   30.5119 H   0  0  0  0  0  0  0  0  0  0  0  0
   36.1060   20.8789   29.9828 H   0  0  0  0  0  0  0  0  0  0  0  0
   35.6429   21.7838   34.1721 H   0  0  0  0  0  0  0  0  0  0  0  0
   35.3222   17.7714   32.7282 H   0  0  0  0  0  0  0  0  0  0  0  0
   31.9072   30.9242   38.1706 H   0  0  0  0  0  0  0  0  0  0  0  0
  1  2  2  0
  2  3  1  0
  4  8  1  0
  4  3  2  0
  5  4  1  0
  6  5  2  0
  6  1  1  0
  7 12  2  0
  7  8  1  0
  8  9  2  0
  9 10  1  0
 11 10  2  0
 12 11  1  0
 13 14  2  0
 13  1  1  0
 13 16  1  0
 15 13  2  0
 16 17  2  0
 17 18  1  0
 19 21  1  0
 19 18  1  0
 20 16  1  0
 20 19  2  0
 21 22  1  0
 22 26  1  0
 22 23  2  0
 23 24  1  0
 24 25  1  0
 26 25  2  0
  2 27  1  0
  3 28  1  0
  5 29  1  0
  6 30  1  0
  7 31  1  0
  9 32  1  0
 11 33  1  0
 25 34  1  0
M  ISO  8  27  14  28  14  29  14  30  14  31  14  32  14  33  14  34  14
M  END
>  <minimizedAffinity>  (1) 
-5.64642859

>  <minimizedRMSD>  (1) 
0.893427014

$$$$
