
     RDKit          3D

 33 35  0  0  0  0  0  0  0  0999 V2000
   36.5690   25.8550   31.6130 C   0  0  0  0  0  0  0  0  0  0  0  0
   37.4410   25.0580   32.3060 C   0  0  0  0  0  0  0  0  0  0  0  0
   37.1800   23.6870   32.3950 C   0  0  0  0  0  0  0  0  0  0  0  0
   36.0600   23.1180   31.8000 C   0  0  0  0  0  0  0  0  0  0  0  0
   35.1740   23.9230   31.0990 C   0  0  0  0  0  0  0  0  0  0  0  0
   35.4660   25.2650   31.0340 C   0  0  0  0  0  0  0  0  0  0  0  0
   35.9310   20.7390   30.9480 C   0  0  0  0  0  0  0  0  0  0  0  0
   35.8860   21.6880   31.9550 C   0  0  0  0  0  0  0  0  0  0  0  0
   35.6480   21.1990   33.2580 C   0  0  0  0  0  0  0  0  0  0  0  0
   35.4820   19.8650   33.4400 N   0  0  0  0  0  0  0  0  0  0  0  0
   35.5370   18.9770   32.3980 C   0  0  0  0  0  0  0  0  0  0  0  0
   35.7680   19.4450   31.1290 N   0  0  0  0  0  0  0  0  0  0  0  0
   36.9210   27.5600   31.5190 S   0  0  0  0  0  0  0  0  0  0  0  0
   38.3850   27.8060   31.8150 O   0  0  0  0  0  0  0  0  0  0  0  0
   36.5540   28.0750   30.1720 O   0  0  0  0  0  0  0  0  0  0  0  0
   35.9220   28.3320   32.7270 C   0  0  0  0  0  0  0  0  0  0  0  0
   36.0760   28.5050   34.0200 N   0  0  0  0  0  0  0  0  0  0  0  0
   35.0570   29.1470   34.5170 O   0  0  0  0  0  0  0  0  0  0  0  0
   34.2000   29.4210   33.5780 C   0  0  0  0  0  0  0  0  0  0  0  0
   34.7140   28.9210   32.4380 N   0  0  0  0  0  0  0  0  0  0  0  0
   32.9680   30.0720   33.5340 O   0  0  0  0  0  0  0  0  0  0  0  0
   31.7810   29.3470   33.6570 C   0  0  0  0  0  0  0  0  0  0  0  0
   31.5980   28.2730   32.7640 N   0  0  0  0  0  0  0  0  0  0  0  0
   30.8740   29.5860   34.5050 O   0  0  0  0  0  0  0  0  0  0  0  0
   38.3324   25.4894   32.7849 H   0  0  0  0  0  0  0  0  0  0  0  0
   37.8783   23.0429   32.9496 H   0  0  0  0  0  0  0  0  0  0  0  0
   34.2776   23.5062   30.6166 H   0  0  0  0  0  0  0  0  0  0  0  0
   34.7705   25.9134   30.4810 H   0  0  0  0  0  0  0  0  0  0  0  0
   36.1163   21.0915   29.9226 H   0  0  0  0  0  0  0  0  0  0  0  0
   35.5979   21.8895   34.1128 H   0  0  0  0  0  0  0  0  0  0  0  0
   35.3975   17.9006   32.5768 H   0  0  0  0  0  0  0  0  0  0  0  0
   30.7402   27.7047   32.8108 H   0  0  0  0  0  0  0  0  0  0  0  0
   32.3220   28.0560   32.0642 H   0  0  0  0  0  0  0  0  0  0  0  0
  1  2  2  0
  2  3  1  0
  4  8  1  0
  4  3  2  0
  5  4  1  0
  6  5  2  0
  6  1  1  0
  7 12  2  0
  7  8  1  0
  8  9  2  0
  9 10  1  0
 11 10  2  0
 12 11  1  0
 13  1  1  0
 13 14  2  0
 13 16  1  0
 15 13  2  0
 16 17  2  0
 17 18  1  0
 19 18  1  0
 20 16  1  0
 20 19  2  0
 21 19  1  0
 21 22  1  0
 22 24  2  0
 23 22  1  0
  2 25  1  0
  3 26  1  0
  5 27  1  0
  6 28  1  0
  7 29  1  0
  9 30  1  0
 11 31  1  0
 23 32  1  0
 23 33  1  0
M  ISO  7  25  14  26  14  27  14  28  14  29  14  30  14  31  14
M  END
>  <minimizedAffinity>  (1) 
-5.40365696

>  <minimizedRMSD>  (1) 
0.127028614

$$$$
