
     RDKit          3D

 35 37  0  0  0  0  0  0  0  0999 V2000
   36.6760   25.7400   31.6550 C   0  0  0  0  0  0  0  0  0  0  0  0
   37.5210   24.9340   32.3410 C   0  0  0  0  0  0  0  0  0  0  0  0
   37.2460   23.5650   32.4450 C   0  0  0  0  0  0  0  0  0  0  0  0
   36.1220   23.0210   31.8580 C   0  0  0  0  0  0  0  0  0  0  0  0
   35.2460   23.8370   31.1520 C   0  0  0  0  0  0  0  0  0  0  0  0
   35.5650   25.1720   31.0800 C   0  0  0  0  0  0  0  0  0  0  0  0
   35.9070   20.6400   31.0200 C   0  0  0  0  0  0  0  0  0  0  0  0
   35.9130   21.5940   32.0170 C   0  0  0  0  0  0  0  0  0  0  0  0
   35.6890   21.1110   33.3410 C   0  0  0  0  0  0  0  0  0  0  0  0
   35.4910   19.7810   33.5180 N   0  0  0  0  0  0  0  0  0  0  0  0
   35.4980   18.8990   32.4900 C   0  0  0  0  0  0  0  0  0  0  0  0
   35.7130   19.3480   31.2080 N   0  0  0  0  0  0  0  0  0  0  0  0
   37.0650   27.4410   31.5550 S   0  0  0  0  0  0  0  0  0  0  0  0
   38.5060   27.6620   31.9140 O   0  0  0  0  0  0  0  0  0  0  0  0
   36.7400   27.9510   30.1890 O   0  0  0  0  0  0  0  0  0  0  0  0
   36.0150   28.2480   32.7120 C   0  0  0  0  0  0  0  0  0  0  0  0
   36.1400   28.4920   33.9910 N   0  0  0  0  0  0  0  0  0  0  0  0
   35.1010   29.1250   34.4490 O   0  0  0  0  0  0  0  0  0  0  0  0
   34.2420   29.3230   33.4670 C   0  0  0  0  0  0  0  0  0  0  0  0
   34.8000   28.7810   32.3830 N   0  0  0  0  0  0  0  0  0  0  0  0
   33.0000   29.9320   33.3960 O   0  0  0  0  0  0  0  0  0  0  0  0
   31.8100   29.1690   33.2080 C   0  0  0  0  0  0  0  0  0  0  0  0
   30.5780   30.0360   33.2420 C   0  0  0  0  0  0  0  0  0  0  0  0
   38.4206   25.3536   32.8150 H   0  0  0  0  0  0  0  0  0  0  0  0
   37.9356   22.9141   33.0024 H   0  0  0  0  0  0  0  0  0  0  0  0
   34.3411   23.4339   30.6739 H   0  0  0  0  0  0  0  0  0  0  0  0
   34.8832   25.8316   30.5232 H   0  0  0  0  0  0  0  0  0  0  0  0
   36.0771   20.9828   29.9887 H   0  0  0  0  0  0  0  0  0  0  0  0
   35.6772   21.8010   34.1976 H   0  0  0  0  0  0  0  0  0  0  0  0
   35.3324   17.8282   32.6798 H   0  0  0  0  0  0  0  0  0  0  0  0
   31.7387   28.4176   34.0082 H   0  0  0  0  0  0  0  0  0  0  0  0
   31.8637   28.6899   32.2193 H   0  0  0  0  0  0  0  0  0  0  0  0
   30.2974   30.2335   34.2871 H   0  0  0  0  0  0  0  0  0  0  0  0
   30.7855   30.9882   32.7319 H   0  0  0  0  0  0  0  0  0  0  0  0
   29.7518   29.5192   32.7319 H   0  0  0  0  0  0  0  0  0  0  0  0
  1  2  2  0
  2  3  1  0
  4  8  1  0
  4  3  2  0
  5  4  1  0
  6  5  2  0
  6  1  1  0
  7 12  2  0
  7  8  1  0
  8  9  2  0
  9 10  1  0
 11 10  2  0
 12 11  1  0
 13  1  1  0
 13 14  2  0
 13 16  1  0
 15 13  2  0
 16 17  2  0
 17 18  1  0
 19 18  1  0
 20 16  1  0
 20 19  2  0
 21 19  1  0
 22 23  1  0
 22 21  1  0
  2 24  1  0
  3 25  1  0
  5 26  1  0
  6 27  1  0
  7 28  1  0
  9 29  1  0
 11 30  1  0
 22 31  1  0
 22 32  1  0
 23 33  1  0
 23 34  1  0
 23 35  1  0
M  ISO  8  24  14  25  14  26  14  27  14  28  14  29  14  30  14  31   8
M  ISO  4  32   8  33   8  34   8  35   8
M  END
>  <minimizedAffinity>  (1) 
-5.07512522

>  <minimizedRMSD>  (1) 
0.577280045

$$$$
