
     RDKit          3D

 13 13  0  0  0  0  0  0  0  0999 V2000
   40.4460   22.4130   37.4610 C   0  0  0  0  0  0  0  0  0  0  0  0
   39.4420   23.1440   36.7800 C   0  0  0  0  0  0  0  0  0  0  0  0
   39.8300   23.8890   35.6670 C   0  0  0  0  0  0  0  0  0  0  0  0
   41.1280   23.8750   35.3000 N   0  0  0  0  0  0  0  0  0  0  0  0
   42.0680   23.1690   35.9680 C   0  0  0  0  0  0  0  0  0  0  0  0
   41.7160   22.4500   37.0350 N   0  0  0  0  0  0  0  0  0  0  0  0
   38.1590   23.0510   37.2840 O   0  0  0  0  0  0  0  0  0  0  0  0
   37.8340   23.5110   38.5580 C   0  0  0  0  0  0  0  0  0  0  0  0
   38.0010   24.7250   38.8560 O   0  0  0  0  0  0  0  0  0  0  0  0
   40.1820   21.8121   38.3437 H   0  0  0  0  0  0  0  0  0  0  0  0
   39.0927   24.4761   35.0998 H   0  0  0  0  0  0  0  0  0  0  0  0
   43.1159   23.1874   35.6338 H   0  0  0  0  0  0  0  0  0  0  0  0
   37.4304   22.8132   39.3065 H   0  0  0  0  0  0  0  0  0  0  0  0
  2  7  1  0
  2  1  2  0
  3  2  1  0
  4  3  2  0
  4  5  1  0
  5  6  2  0
  6  1  1  0
  7  8  1  0
  8  9  2  0
  1 10  1  0
  3 11  1  0
  5 12  1  0
  8 13  1  0
M  ISO  4  10  14  11  14  12  14  13   6
M  END
>  <minimizedAffinity>  (1) 
-2.6729238

>  <minimizedRMSD>  (1) 
2.5116415

$$$$
