
     RDKit          3D

 16 17  0  0  0  0  0  0  0  0999 V2000
   39.3580   23.0290   36.2010 C   0  0  0  0  0  0  0  0  0  0  0  0
   39.6870   22.7530   37.5600 C   0  0  0  0  0  0  0  0  0  0  0  0
   38.9010   23.3720   38.5290 C   0  0  0  0  0  0  0  0  0  0  0  0
   37.8930   24.1830   38.1360 N   0  0  0  0  0  0  0  0  0  0  0  0
   37.6170   24.4150   36.8480 C   0  0  0  0  0  0  0  0  0  0  0  0
   38.3470   23.8400   35.8890 N   0  0  0  0  0  0  0  0  0  0  0  0
   40.7470   21.9030   37.7620 O   0  0  0  0  0  0  0  0  0  0  0  0
   41.9090   21.9210   37.0200 C   0  0  0  0  0  0  0  0  0  0  0  0
   42.3610   20.7760   36.4810 N   0  0  0  0  0  0  0  0  0  0  0  0
   43.4600   20.9680   35.8170 O   0  0  0  0  0  0  0  0  0  0  0  0
   43.7630   22.2420   35.9000 C   0  0  0  0  0  0  0  0  0  0  0  0
   42.8030   22.8550   36.6490 N   0  0  0  0  0  0  0  0  0  0  0  0
   39.9478   22.5653   35.3966 H   0  0  0  0  0  0  0  0  0  0  0  0
   39.0974   23.2036   39.5981 H   0  0  0  0  0  0  0  0  0  0  0  0
   36.7853   25.0822   36.5776 H   0  0  0  0  0  0  0  0  0  0  0  0
   44.6378   22.7296   35.4452 H   0  0  0  0  0  0  0  0  0  0  0  0
  1  2  2  0
  2  7  1  0
  2  3  1  0
  4  3  2  0
  5  4  1  0
  6  1  1  0
  6  5  2  0
  8  7  1  0
  9  8  2  0
 10 11  1  0
 10  9  1  0
 11 12  2  0
 12  8  1  0
  1 13  1  0
  3 14  1  0
  5 15  1  0
 11 16  1  0
M  ISO  4  13  14  14  14  15  14  16  14
M  END
>  <minimizedAffinity>  (1) 
-3.18823123

>  <minimizedRMSD>  (1) 
4.8331728

$$$$
