
     RDKit          3D

 24 25  0  0  0  0  0  0  0  0999 V2000
   41.5870   21.7150   37.4630 C   0  0  0  0  0  0  0  0  0  0  0  0
   42.7750   21.8310   36.5450 C   0  0  0  0  0  0  0  0  0  0  0  0
   43.1330   23.2250   36.2510 C   0  0  0  0  0  0  0  0  0  0  0  0
   44.1610   23.9620   36.7820 C   0  0  0  0  0  0  0  0  0  0  0  0
   44.1180   25.2210   36.2160 C   0  0  0  0  0  0  0  0  0  0  0  0
   43.0470   25.1890   35.3500 C   0  0  0  0  0  0  0  0  0  0  0  0
   42.4850   23.9950   35.3920 O   0  0  0  0  0  0  0  0  0  0  0  0
   40.3950   21.6790   36.6820 O   0  0  0  0  0  0  0  0  0  0  0  0
   39.0340   23.3880   35.7590 C   0  0  0  0  0  0  0  0  0  0  0  0
   39.5020   22.7090   36.9050 C   0  0  0  0  0  0  0  0  0  0  0  0
   39.0370   23.1220   38.1340 C   0  0  0  0  0  0  0  0  0  0  0  0
   38.1640   24.1470   38.1950 N   0  0  0  0  0  0  0  0  0  0  0  0
   37.7270   24.7860   37.0810 C   0  0  0  0  0  0  0  0  0  0  0  0
   38.1700   24.3960   35.8830 N   0  0  0  0  0  0  0  0  0  0  0  0
   41.6676   20.7912   38.0546 H   0  0  0  0  0  0  0  0  0  0  0  0
   41.5584   22.5794   38.1427 H   0  0  0  0  0  0  0  0  0  0  0  0
   43.6364   21.3398   37.0211 H   0  0  0  0  0  0  0  0  0  0  0  0
   42.5061   21.3502   35.5929 H   0  0  0  0  0  0  0  0  0  0  0  0
   44.8907   23.6120   37.5270 H   0  0  0  0  0  0  0  0  0  0  0  0
   44.7931   26.0667   36.4139 H   0  0  0  0  0  0  0  0  0  0  0  0
   42.7123   26.0275   34.7216 H   0  0  0  0  0  0  0  0  0  0  0  0
   39.3831   23.0846   34.7610 H   0  0  0  0  0  0  0  0  0  0  0  0
   39.3738   22.6217   39.0539 H   0  0  0  0  0  0  0  0  0  0  0  0
   37.0133   25.6189   37.1638 H   0  0  0  0  0  0  0  0  0  0  0  0
  2  1  1  0
  3  2  1  0
  3  4  2  0
  5  4  1  0
  6  7  1  0
  6  5  2  0
  7  3  1  0
  8 10  1  0
  8  1  1  0
  9 14  2  0
  9 10  1  0
 10 11  2  0
 11 12  1  0
 13 12  2  0
 14 13  1  0
  1 15  1  0
  1 16  1  0
  2 17  1  0
  2 18  1  0
  4 19  1  0
  5 20  1  0
  6 21  1  0
  9 22  1  0
 11 23  1  0
 13 24  1  0
M  ISO  8  15   8  16   8  17   8  18   8  19  14  20  14  21  14  22  14
M  ISO  2  23  14  24  14
M  END
>  <minimizedAffinity>  (1) 
-3.50467038

>  <minimizedRMSD>  (1) 
2.18447256

$$$$
