
     RDKit          3D

 24 25  0  0  0  0  0  0  0  0999 V2000
   41.7160   21.9410   37.3920 C   0  0  0  0  0  0  0  0  0  0  0  0
   42.7250   22.1030   36.2960 C   0  0  0  0  0  0  0  0  0  0  0  0
   43.1430   23.5190   36.1390 C   0  0  0  0  0  0  0  0  0  0  0  0
   44.2930   24.0160   36.7510 C   0  0  0  0  0  0  0  0  0  0  0  0
   44.3030   25.3520   36.3480 C   0  0  0  0  0  0  0  0  0  0  0  0
   43.2490   25.6220   35.5640 N   0  0  0  0  0  0  0  0  0  0  0  0
   42.5610   24.5150   35.4470 N   0  0  0  0  0  0  0  0  0  0  0  0
   40.4210   21.7090   36.8330 O   0  0  0  0  0  0  0  0  0  0  0  0
   39.0870   23.4180   35.7950 C   0  0  0  0  0  0  0  0  0  0  0  0
   39.5090   22.7490   36.9850 C   0  0  0  0  0  0  0  0  0  0  0  0
   38.9860   23.1770   38.1920 C   0  0  0  0  0  0  0  0  0  0  0  0
   38.1090   24.1970   38.1920 N   0  0  0  0  0  0  0  0  0  0  0  0
   37.7300   24.8100   37.0540 C   0  0  0  0  0  0  0  0  0  0  0  0
   38.2260   24.4080   35.8860 N   0  0  0  0  0  0  0  0  0  0  0  0
   41.9986   21.0862   38.0240 H   0  0  0  0  0  0  0  0  0  0  0  0
   41.6892   22.8592   37.9972 H   0  0  0  0  0  0  0  0  0  0  0  0
   43.6100   21.4943   36.5334 H   0  0  0  0  0  0  0  0  0  0  0  0
   42.2626   21.7755   35.3532 H   0  0  0  0  0  0  0  0  0  0  0  0
   45.0133   23.4866   37.3921 H   0  0  0  0  0  0  0  0  0  0  0  0
   45.0717   26.0848   36.6347 H   0  0  0  0  0  0  0  0  0  0  0  0
   43.0233   26.5305   35.1344 H   0  0  0  0  0  0  0  0  0  0  0  0
   39.4777   23.1086   34.8143 H   0  0  0  0  0  0  0  0  0  0  0  0
   39.2817   22.6923   39.1341 H   0  0  0  0  0  0  0  0  0  0  0  0
   37.0113   25.6420   37.0899 H   0  0  0  0  0  0  0  0  0  0  0  0
  2  1  1  0
  3  2  1  0
  3  4  1  0
  5  4  2  0
  6  5  1  0
  7  6  1  0
  7  3  2  0
  8 10  1  0
  8  1  1  0
  9 14  2  0
  9 10  1  0
 10 11  2  0
 12 11  1  0
 13 12  2  0
 14 13  1  0
  1 15  1  0
  1 16  1  0
  2 17  1  0
  2 18  1  0
  4 19  1  0
  5 20  1  0
  6 21  1  0
  9 22  1  0
 11 23  1  0
 13 24  1  0
M  ISO  8  15   8  16   8  17   8  18   8  19  14  20  14  21   9  22  14
M  ISO  2  23  14  24  14
M  END
>  <minimizedAffinity>  (1) 
-3.54806042

>  <minimizedRMSD>  (1) 
2.23491955

$$$$
