
     RDKit          3D

 32 33  0  0  0  0  0  0  0  0999 V2000
   41.9610   22.1250   37.0610 C   0  0  0  0  0  0  0  0  0  0  0  0
   42.8320   21.8710   35.8880 C   0  0  0  0  0  0  0  0  0  0  0  0
   43.4000   22.9970   35.2360 N   0  0  0  0  0  0  0  0  0  0  0  0
   44.8040   23.2150   35.3940 C   0  0  0  0  0  0  0  0  0  0  0  0
   44.9460   24.0230   36.7000 C   0  0  0  0  0  0  0  0  0  0  0  0
   44.6140   25.4550   36.3320 C   0  0  0  0  0  0  0  0  0  0  0  0
   43.4400   25.4430   35.4080 C   0  0  0  0  0  0  0  0  0  0  0  0
   42.6250   24.1680   35.4940 C   0  0  0  0  0  0  0  0  0  0  0  0
   40.6460   21.6460   36.8570 O   0  0  0  0  0  0  0  0  0  0  0  0
   39.0130   22.9790   35.7500 C   0  0  0  0  0  0  0  0  0  0  0  0
   39.6240   22.5770   36.9760 C   0  0  0  0  0  0  0  0  0  0  0  0
   39.1630   23.1340   38.1500 C   0  0  0  0  0  0  0  0  0  0  0  0
   38.1560   24.0290   38.0830 N   0  0  0  0  0  0  0  0  0  0  0  0
   37.5930   24.3950   36.9240 C   0  0  0  0  0  0  0  0  0  0  0  0
   38.0280   23.8640   35.7650 N   0  0  0  0  0  0  0  0  0  0  0  0
   42.3909   21.6202   37.9387 H   0  0  0  0  0  0  0  0  0  0  0  0
   41.9067   23.2128   37.2152 H   0  0  0  0  0  0  0  0  0  0  0  0
   43.6619   21.2330   36.2261 H   0  0  0  0  0  0  0  0  0  0  0  0
   42.1662   21.4197   35.1377 H   0  0  0  0  0  0  0  0  0  0  0  0
   45.3362   22.2557   35.4746 H   0  0  0  0  0  0  0  0  0  0  0  0
   45.2358   23.7472   34.5335 H   0  0  0  0  0  0  0  0  0  0  0  0
   44.2445   23.6496   37.4606 H   0  0  0  0  0  0  0  0  0  0  0  0
   45.9571   23.9360   37.1243 H   0  0  0  0  0  0  0  0  0  0  0  0
   44.3666   26.0244   37.2401 H   0  0  0  0  0  0  0  0  0  0  0  0
   45.4768   25.9295   35.8417 H   0  0  0  0  0  0  0  0  0  0  0  0
   43.8057   25.5552   34.3767 H   0  0  0  0  0  0  0  0  0  0  0  0
   42.7815   26.2724   35.7056 H   0  0  0  0  0  0  0  0  0  0  0  0
   41.8114   24.2206   34.7556 H   0  0  0  0  0  0  0  0  0  0  0  0
   42.2396   24.0902   36.5213 H   0  0  0  0  0  0  0  0  0  0  0  0
   39.3593   22.5550   34.7959 H   0  0  0  0  0  0  0  0  0  0  0  0
   39.6056   22.8553   39.1177 H   0  0  0  0  0  0  0  0  0  0  0  0
   36.7746   25.1300   36.9187 H   0  0  0  0  0  0  0  0  0  0  0  0
  2  1  1  0
  3  4  1  0
  3  8  1  0
  3  2  1  0
  4  5  1  0
  6  5  1  0
  7  8  1  0
  7  6  1  0
  9 11  1  0
  9  1  1  0
 10 15  2  0
 10 11  1  0
 11 12  2  0
 13 12  1  0
 14 13  2  0
 15 14  1  0
  1 16  1  0
  1 17  1  0
  2 18  1  0
  2 19  1  0
  4 20  1  0
  4 21  1  0
  5 22  1  0
  5 23  1  0
  6 24  1  0
  6 25  1  0
  7 26  1  0
  7 27  1  0
  8 28  1  0
  8 29  1  0
 10 30  1  0
 12 31  1  0
 14 32  1  0
M  ISO  8  16   8  17   8  18   8  19   8  20  13  21  13  22  13  23  13
M  ISO  8  24  13  25  13  26  13  27  13  28  13  29  13  30  14  31  14
M  ISO  1  32  14
M  END
>  <minimizedAffinity>  (1) 
-3.31391692

>  <minimizedRMSD>  (1) 
1.73970616

$$$$
