
     RDKit          3D

 18 18  0  0  0  0  0  0  0  0999 V2000
   39.7690   23.9950   35.5470 C   0  0  0  0  0  0  0  0  0  0  0  0
   39.3090   23.0090   36.4540 C   0  0  0  0  0  0  0  0  0  0  0  0
   38.1350   23.2470   37.1470 C   0  0  0  0  0  0  0  0  0  0  0  0
   37.4760   24.4110   36.9270 N   0  0  0  0  0  0  0  0  0  0  0  0
   37.9330   25.3300   36.0600 C   0  0  0  0  0  0  0  0  0  0  0  0
   39.0630   25.1110   35.3890 N   0  0  0  0  0  0  0  0  0  0  0  0
   40.1010   21.8770   36.5610 O   0  0  0  0  0  0  0  0  0  0  0  0
   41.1190   21.9280   37.5580 C   0  0  0  0  0  0  0  0  0  0  0  0
   42.1750   20.9010   37.2470 C   0  0  0  0  0  0  0  0  0  0  0  0
   42.3020   20.0360   38.3350 O   0  0  0  0  0  0  0  0  0  0  0  0
   40.6988   23.8396   34.9802 H   0  0  0  0  0  0  0  0  0  0  0  0
   37.7448   22.5071   37.8614 H   0  0  0  0  0  0  0  0  0  0  0  0
   37.3736   26.2642   35.9040 H   0  0  0  0  0  0  0  0  0  0  0  0
   41.5730   22.9299   37.5681 H   0  0  0  0  0  0  0  0  0  0  0  0
   40.6791   21.7160   38.5437 H   0  0  0  0  0  0  0  0  0  0  0  0
   41.8821   20.3296   36.3538 H   0  0  0  0  0  0  0  0  0  0  0  0
   43.1357   21.4017   37.0562 H   0  0  0  0  0  0  0  0  0  0  0  0
   42.2263   20.5514   39.1769 H   0  0  0  0  0  0  0  0  0  0  0  0
  1  2  2  0
  2  7  1  0
  2  3  1  0
  4  3  2  0
  5  4  1  0
  6  1  1  0
  6  5  2  0
  7  8  1  0
  9  8  1  0
  9 10  1  0
  1 11  1  0
  3 12  1  0
  5 13  1  0
  8 14  1  0
  8 15  1  0
  9 16  1  0
  9 17  1  0
 10 18  1  0
M  ISO  8  11  14  12  14  13  14  14   8  15   8  16   8  17   8  18   3
M  END
>  <minimizedAffinity>  (1) 
-3.13222194

>  <minimizedRMSD>  (1) 
0.713015556

$$$$
