
     RDKit          3D

 24 25  0  0  0  0  0  0  0  0999 V2000
   42.4380   22.3080   36.6960 C   0  0  0  0  0  0  0  0  0  0  0  0
   42.9290   23.4690   35.8730 C   0  0  0  0  0  0  0  0  0  0  0  0
   44.1640   23.9450   36.4680 N   0  0  0  0  0  0  0  0  0  0  0  0
   44.4680   24.9180   37.3320 C   0  0  0  0  0  0  0  0  0  0  0  0
   45.8270   24.9530   37.5740 C   0  0  0  0  0  0  0  0  0  0  0  0
   46.3660   23.9570   36.8200 N   0  0  0  0  0  0  0  0  0  0  0  0
   45.3530   23.3540   36.1550 C   0  0  0  0  0  0  0  0  0  0  0  0
   41.2310   21.8250   36.1140 O   0  0  0  0  0  0  0  0  0  0  0  0
   38.9130   22.3170   35.8210 C   0  0  0  0  0  0  0  0  0  0  0  0
   40.0650   22.3280   36.6500 C   0  0  0  0  0  0  0  0  0  0  0  0
   39.9290   22.8460   37.9380 C   0  0  0  0  0  0  0  0  0  0  0  0
   38.7260   23.3070   38.3330 N   0  0  0  0  0  0  0  0  0  0  0  0
   37.6530   23.2750   37.5020 C   0  0  0  0  0  0  0  0  0  0  0  0
   37.7540   22.7860   36.2660 N   0  0  0  0  0  0  0  0  0  0  0  0
   43.1943   21.5092   36.7005 H   0  0  0  0  0  0  0  0  0  0  0  0
   42.2568   22.6284   37.7326 H   0  0  0  0  0  0  0  0  0  0  0  0
   42.1784   24.2731   35.8755 H   0  0  0  0  0  0  0  0  0  0  0  0
   43.0999   23.1566   34.8322 H   0  0  0  0  0  0  0  0  0  0  0  0
   43.7348   25.5990   37.7887 H   0  0  0  0  0  0  0  0  0  0  0  0
   46.3639   25.6445   38.2400 H   0  0  0  0  0  0  0  0  0  0  0  0
   45.4715   22.5084   35.4615 H   0  0  0  0  0  0  0  0  0  0  0  0
   38.9815   21.9156   34.7991 H   0  0  0  0  0  0  0  0  0  0  0  0
   40.7908   22.8777   38.6209 H   0  0  0  0  0  0  0  0  0  0  0  0
   36.6843   23.6589   37.8544 H   0  0  0  0  0  0  0  0  0  0  0  0
  2  3  1  0
  2  1  1  0
  3  4  1  0
  4  5  2  0
  6  5  1  0
  7  3  1  0
  7  6  2  0
  8 10  1  0
  8  1  1  0
  9 14  2  0
  9 10  1  0
 10 11  2  0
 11 12  1  0
 13 12  2  0
 14 13  1  0
  1 15  1  0
  1 16  1  0
  2 17  1  0
  2 18  1  0
  4 19  1  0
  5 20  1  0
  7 21  1  0
  9 22  1  0
 11 23  1  0
 13 24  1  0
M  ISO  8  15   8  16   8  17   8  18   8  19  14  20  14  21  14  22  14
M  ISO  2  23  14  24  14
M  END
>  <minimizedAffinity>  (1) 
-3.31675172

>  <minimizedRMSD>  (1) 
4.66843987

$$$$
