
     RDKit          3D

 33 34  0  0  0  0  0  0  0  0999 V2000
   41.4080   21.6770   37.5300 C   0  0  0  0  0  0  0  0  0  0  0  0
   42.6040   21.9400   36.6680 C   0  0  0  0  0  0  0  0  0  0  0  0
   43.2550   20.6990   36.1470 C   0  0  0  0  0  0  0  0  0  0  0  0
   43.1060   19.5250   37.1180 C   0  0  0  0  0  0  0  0  0  0  0  0
   43.3590   18.3060   36.2400 C   0  0  0  0  0  0  0  0  0  0  0  0
   44.8350   18.3240   35.9430 C   0  0  0  0  0  0  0  0  0  0  0  0
   45.3270   19.6120   35.3680 C   0  0  0  0  0  0  0  0  0  0  0  0
   44.7390   20.8540   35.9450 C   0  0  0  0  0  0  0  0  0  0  0  0
   40.2420   21.7370   36.7210 O   0  0  0  0  0  0  0  0  0  0  0  0
   39.0310   23.5450   35.8070 C   0  0  0  0  0  0  0  0  0  0  0  0
   39.4030   22.8060   36.9620 C   0  0  0  0  0  0  0  0  0  0  0  0
   38.8860   23.2360   38.1860 C   0  0  0  0  0  0  0  0  0  0  0  0
   38.0810   24.3060   38.1980 N   0  0  0  0  0  0  0  0  0  0  0  0
   37.7480   24.9840   37.0890 C   0  0  0  0  0  0  0  0  0  0  0  0
   38.2310   24.5950   35.8910 N   0  0  0  0  0  0  0  0  0  0  0  0
   41.4919   20.6791   37.9851 H   0  0  0  0  0  0  0  0  0  0  0  0
   41.3489   22.4304   38.3293 H   0  0  0  0  0  0  0  0  0  0  0  0
   42.2862   22.5514   35.8106 H   0  0  0  0  0  0  0  0  0  0  0  0
   43.3468   22.4523   37.2971 H   0  0  0  0  0  0  0  0  0  0  0  0
   42.7447   20.5119   35.1907 H   0  0  0  0  0  0  0  0  0  0  0  0
   43.8478   19.5875   37.9279 H   0  0  0  0  0  0  0  0  0  0  0  0
   42.1247   19.5003   37.6144 H   0  0  0  0  0  0  0  0  0  0  0  0
   43.0855   17.3841   36.7740 H   0  0  0  0  0  0  0  0  0  0  0  0
   42.7570   18.3337   35.3197 H   0  0  0  0  0  0  0  0  0  0  0  0
   45.3781   18.1347   36.8806 H   0  0  0  0  0  0  0  0  0  0  0  0
   45.0146   17.5490   35.1833 H   0  0  0  0  0  0  0  0  0  0  0  0
   46.4157   19.6537   35.5194 H   0  0  0  0  0  0  0  0  0  0  0  0
   45.0184   19.6015   34.3122 H   0  0  0  0  0  0  0  0  0  0  0  0
   45.2152   21.0618   36.9146 H   0  0  0  0  0  0  0  0  0  0  0  0
   44.9149   21.6851   35.2462 H   0  0  0  0  0  0  0  0  0  0  0  0
   39.4159   23.2379   34.8234 H   0  0  0  0  0  0  0  0  0  0  0  0
   39.1343   22.7080   39.1185 H   0  0  0  0  0  0  0  0  0  0  0  0
   37.0816   25.8565   37.1567 H   0  0  0  0  0  0  0  0  0  0  0  0
  2  1  1  0
  3  2  1  0
  3  4  1  0
  5  4  1  0
  6  5  1  0
  7  6  1  0
  7  8  1  0
  8  3  1  0
  9 11  1  0
  9  1  1  0
 10 15  2  0
 10 11  1  0
 11 12  2  0
 12 13  1  0
 14 13  2  0
 15 14  1  0
  1 16  1  0
  1 17  1  0
  2 18  1  0
  2 19  1  0
  3 20  1  0
  4 21  1  0
  4 22  1  0
  5 23  1  0
  5 24  1  0
  6 25  1  0
  6 26  1  0
  7 27  1  0
  7 28  1  0
  8 29  1  0
  8 30  1  0
 10 31  1  0
 12 32  1  0
 14 33  1  0
M  ISO  8  16   8  17   8  18   8  19   8  20  13  21  13  22  13  23  13
M  ISO  8  24  13  25  13  26  13  27  13  28  13  29  13  30  13  31  14
M  ISO  2  32  14  33  14
M  END
>  <minimizedAffinity>  (1) 
-3.24707818

>  <minimizedRMSD>  (1) 
2.04364395

$$$$
