
     RDKit          3D

 24 25  0  0  0  0  0  0  0  0999 V2000
   41.6210   21.7830   37.4180 C   0  0  0  0  0  0  0  0  0  0  0  0
   42.7550   21.8750   36.4380 C   0  0  0  0  0  0  0  0  0  0  0  0
   43.1390   23.2500   36.1890 N   0  0  0  0  0  0  0  0  0  0  0  0
   44.0830   23.9190   36.8630 N   0  0  0  0  0  0  0  0  0  0  0  0
   44.1710   25.1550   36.3700 C   0  0  0  0  0  0  0  0  0  0  0  0
   43.2660   25.3010   35.3480 C   0  0  0  0  0  0  0  0  0  0  0  0
   42.6310   24.0770   35.2630 C   0  0  0  0  0  0  0  0  0  0  0  0
   40.3920   21.6800   36.7010 O   0  0  0  0  0  0  0  0  0  0  0  0
   39.0240   23.3930   35.7630 C   0  0  0  0  0  0  0  0  0  0  0  0
   39.4950   22.7170   36.9200 C   0  0  0  0  0  0  0  0  0  0  0  0
   39.0280   23.1380   38.1640 C   0  0  0  0  0  0  0  0  0  0  0  0
   38.1490   24.1710   38.1990 N   0  0  0  0  0  0  0  0  0  0  0  0
   37.7290   24.7820   37.0820 C   0  0  0  0  0  0  0  0  0  0  0  0
   38.1700   24.3870   35.8770 N   0  0  0  0  0  0  0  0  0  0  0  0
   41.7532   20.8939   38.0520 H   0  0  0  0  0  0  0  0  0  0  0  0
   41.6057   22.6813   38.0527 H   0  0  0  0  0  0  0  0  0  0  0  0
   43.6210   21.3309   36.8430 H   0  0  0  0  0  0  0  0  0  0  0  0
   42.4221   21.4346   35.4866 H   0  0  0  0  0  0  0  0  0  0  0  0
   44.8602   25.9348   36.7262 H   0  0  0  0  0  0  0  0  0  0  0  0
   43.0862   26.1950   34.7328 H   0  0  0  0  0  0  0  0  0  0  0  0
   41.8346   23.8210   34.5487 H   0  0  0  0  0  0  0  0  0  0  0  0
   39.3749   23.0840   34.7673 H   0  0  0  0  0  0  0  0  0  0  0  0
   39.3622   22.6473   39.0900 H   0  0  0  0  0  0  0  0  0  0  0  0
   37.0153   25.6160   37.1536 H   0  0  0  0  0  0  0  0  0  0  0  0
  2  1  1  0
  3  2  1  0
  3  4  1  0
  5  4  2  0
  6  5  1  0
  7  6  2  0
  7  3  1  0
  8 10  1  0
  8  1  1  0
  9 14  2  0
  9 10  1  0
 10 11  2  0
 11 12  1  0
 13 12  2  0
 14 13  1  0
  1 15  1  0
  1 16  1  0
  2 17  1  0
  2 18  1  0
  5 19  1  0
  6 20  1  0
  7 21  1  0
  9 22  1  0
 11 23  1  0
 13 24  1  0
M  ISO  8  15   8  16   8  17   8  18   8  19  14  20  14  21  14  22  14
M  ISO  2  23  14  24  14
M  END
>  <minimizedAffinity>  (1) 
-3.24822903

>  <minimizedRMSD>  (1) 
2.11023641

$$$$
