
     RDKit          3D

 25 26  0  0  0  0  0  0  0  0999 V2000
   40.5810   22.4800   37.4950 C   0  0  0  0  0  0  0  0  0  0  0  0
   41.5370   21.4580   36.9380 C   0  0  0  0  0  0  0  0  0  0  0  0
   42.8210   22.1010   36.6050 C   0  0  0  0  0  0  0  0  0  0  0  0
   43.0540   23.4520   36.7980 C   0  0  0  0  0  0  0  0  0  0  0  0
   44.2800   24.0460   36.4770 C   0  0  0  0  0  0  0  0  0  0  0  0
   45.2660   23.2700   35.9610 N   0  0  0  0  0  0  0  0  0  0  0  0
   45.0000   21.9440   35.7860 C   0  0  0  0  0  0  0  0  0  0  0  0
   43.8190   21.3740   36.0970 N   0  0  0  0  0  0  0  0  0  0  0  0
   39.4830   22.6450   36.6030 O   0  0  0  0  0  0  0  0  0  0  0  0
   40.0340   24.5090   35.2250 C   0  0  0  0  0  0  0  0  0  0  0  0
   39.2020   23.9590   36.2490 C   0  0  0  0  0  0  0  0  0  0  0  0
   38.2040   24.7670   36.7880 C   0  0  0  0  0  0  0  0  0  0  0  0
   38.0800   26.0170   36.3180 N   0  0  0  0  0  0  0  0  0  0  0  0
   38.8770   26.5070   35.3560 C   0  0  0  0  0  0  0  0  0  0  0  0
   39.8500   25.7460   34.8160 N   0  0  0  0  0  0  0  0  0  0  0  0
   40.2100   22.1392   38.4728 H   0  0  0  0  0  0  0  0  0  0  0  0
   41.1027   23.4412   37.6130 H   0  0  0  0  0  0  0  0  0  0  0  0
   41.7068   20.6709   37.6874 H   0  0  0  0  0  0  0  0  0  0  0  0
   41.1057   21.0174   36.0271 H   0  0  0  0  0  0  0  0  0  0  0  0
   42.2515   24.0774   37.2162 H   0  0  0  0  0  0  0  0  0  0  0  0
   44.4411   25.1219   36.6400 H   0  0  0  0  0  0  0  0  0  0  0  0
   45.7921   21.3051   35.3685 H   0  0  0  0  0  0  0  0  0  0  0  0
   40.8305   23.8963   34.7776 H   0  0  0  0  0  0  0  0  0  0  0  0
   37.5362   24.3906   37.5770 H   0  0  0  0  0  0  0  0  0  0  0  0
   38.7350   27.5397   35.0046 H   0  0  0  0  0  0  0  0  0  0  0  0
  2  1  1  0
  3  4  2  0
  3  2  1  0
  5  4  1  0
  6  5  2  0
  7  6  1  0
  7  8  2  0
  8  3  1  0
  9  1  1  0
 10 11  2  0
 11  9  1  0
 11 12  1  0
 13 12  2  0
 14 13  1  0
 15 10  1  0
 15 14  2  0
  1 16  1  0
  1 17  1  0
  2 18  1  0
  2 19  1  0
  4 20  1  0
  5 21  1  0
  7 22  1  0
 10 23  1  0
 12 24  1  0
 14 25  1  0
M  ISO  8  16   8  17   8  18   8  19   8  20  14  21  14  22  14  23  14
M  ISO  2  24  14  25  14
M  END
>  <minimizedAffinity>  (1) 
-3.32189727

>  <minimizedRMSD>  (1) 
3.7936182

$$$$
