
     RDKit          3D

 27 28  0  0  0  0  0  0  0  0999 V2000
   41.2880   21.7020   37.3400 C   0  0  0  0  0  0  0  0  0  0  0  0
   42.3600   21.8440   36.2930 C   0  0  0  0  0  0  0  0  0  0  0  0
   43.4090   20.8610   36.4710 N   0  0  0  0  0  0  0  0  0  0  0  0
   43.3060   19.6560   37.0340 C   0  0  0  0  0  0  0  0  0  0  0  0
   44.4390   18.8580   37.1060 C   0  0  0  0  0  0  0  0  0  0  0  0
   45.6440   19.3200   36.5990 C   0  0  0  0  0  0  0  0  0  0  0  0
   46.6750   18.5780   36.6730 O   0  0  0  0  0  0  0  0  0  0  0  0
   45.7060   20.5460   36.0370 N   0  0  0  0  0  0  0  0  0  0  0  0
   44.5890   21.3010   35.9800 C   0  0  0  0  0  0  0  0  0  0  0  0
   44.8010   22.4260   35.4250 O   0  0  0  0  0  0  0  0  0  0  0  0
   40.0120   21.8020   36.7150 O   0  0  0  0  0  0  0  0  0  0  0  0
   39.1220   23.8290   35.9260 C   0  0  0  0  0  0  0  0  0  0  0  0
   39.2850   22.9320   37.0050 C   0  0  0  0  0  0  0  0  0  0  0  0
   38.7040   23.2890   38.2070 C   0  0  0  0  0  0  0  0  0  0  0  0
   38.0260   24.4400   38.3030 N   0  0  0  0  0  0  0  0  0  0  0  0
   37.8910   25.2780   37.2390 C   0  0  0  0  0  0  0  0  0  0  0  0
   38.4420   24.9630   36.0540 N   0  0  0  0  0  0  0  0  0  0  0  0
   41.3814   20.7230   37.8328 H   0  0  0  0  0  0  0  0  0  0  0  0
   41.3962   22.4971   38.0923 H   0  0  0  0  0  0  0  0  0  0  0  0
   42.7977   22.8507   36.3637 H   0  0  0  0  0  0  0  0  0  0  0  0
   41.9017   21.6849   35.3058 H   0  0  0  0  0  0  0  0  0  0  0  0
   42.3436   19.3025   37.4326 H   0  0  0  0  0  0  0  0  0  0  0  0
   44.3812   17.8599   37.5648 H   0  0  0  0  0  0  0  0  0  0  0  0
   46.5950   20.9007   35.6564 H   0  0  0  0  0  0  0  0  0  0  0  0
   39.5707   23.5816   34.9526 H   0  0  0  0  0  0  0  0  0  0  0  0
   38.7981   22.6297   39.0824 H   0  0  0  0  0  0  0  0  0  0  0  0
   37.3287   26.2169   37.3492 H   0  0  0  0  0  0  0  0  0  0  0  0
  2  3  1  0
  2  1  1  0
  3  4  1  0
  4  5  2  0
  6  7  2  0
  6  5  1  0
  8  6  1  0
  9  8  1  0
  9  3  1  0
 10  9  2  0
 11 13  1  0
 11  1  1  0
 12 17  2  0
 12 13  1  0
 13 14  2  0
 14 15  1  0
 16 15  2  0
 17 16  1  0
  1 18  1  0
  1 19  1  0
  2 20  1  0
  2 21  1  0
  4 22  1  0
  5 23  1  0
  8 24  1  0
 12 25  1  0
 14 26  1  0
 16 27  1  0
M  ISO  8  18   8  19   8  20   8  21   8  22  14  23  14  24   9  25  14
M  ISO  2  26  14  27  14
M  END
>  <minimizedAffinity>  (1) 
-3.27122498

>  <minimizedRMSD>  (1) 
2.96824789

$$$$
