
     RDKit          3D

 18 18  0  0  0  0  0  0  0  0999 V2000
   39.5810   23.6900   35.6520 C   0  0  0  0  0  0  0  0  0  0  0  0
   39.5310   22.8650   36.7930 C   0  0  0  0  0  0  0  0  0  0  0  0
   38.7350   23.2730   37.8410 C   0  0  0  0  0  0  0  0  0  0  0  0
   38.0450   24.4350   37.7280 N   0  0  0  0  0  0  0  0  0  0  0  0
   38.1120   25.2040   36.6250 C   0  0  0  0  0  0  0  0  0  0  0  0
   38.8850   24.8250   35.5860 N   0  0  0  0  0  0  0  0  0  0  0  0
   40.3000   21.7330   36.7110 O   0  0  0  0  0  0  0  0  0  0  0  0
   41.4230   21.6710   37.5800 C   0  0  0  0  0  0  0  0  0  0  0  0
   42.4290   20.7140   37.0170 C   0  0  0  0  0  0  0  0  0  0  0  0
   42.6440   21.0730   35.2510 S   0  0  0  0  0  0  0  0  0  0  0  0
   40.2071   23.3915   34.7983 H   0  0  0  0  0  0  0  0  0  0  0  0
   38.6603   22.6657   38.7551 H   0  0  0  0  0  0  0  0  0  0  0  0
   37.5372   26.1403   36.5708 H   0  0  0  0  0  0  0  0  0  0  0  0
   41.8750   22.6699   37.6690 H   0  0  0  0  0  0  0  0  0  0  0  0
   41.1023   21.3275   38.5746 H   0  0  0  0  0  0  0  0  0  0  0  0
   43.3893   20.8358   37.5396 H   0  0  0  0  0  0  0  0  0  0  0  0
   42.0795   19.6796   37.1505 H   0  0  0  0  0  0  0  0  0  0  0  0
   43.3439   22.2416   35.1045 H   0  0  0  0  0  0  0  0  0  0  0  0
  1  2  2  0
  2  3  1  0
  4  3  2  0
  5  4  1  0
  6  1  1  0
  6  5  2  0
  7  2  1  0
  7  8  1  0
  9  8  1  0
 10  9  1  0
  1 11  1  0
  3 12  1  0
  5 13  1  0
  8 14  1  0
  8 15  1  0
  9 16  1  0
  9 17  1  0
 10 18  1  0
M  ISO  8  11  14  12  14  13  14  14   8  15   8  16   8  17   8  18  11
M  END
>  <minimizedAffinity>  (1) 
-2.58224154

>  <minimizedRMSD>  (1) 
0.173994109

$$$$
