
     RDKit          3D

 38 41  0  0  0  0  0  0  0  0999 V2000
   41.8370   22.8950   36.4170 C   0  0  0  0  0  0  0  0  0  0  0  0
   42.6420   24.0380   35.9030 C   0  0  0  0  0  0  0  0  0  0  0  0
   44.0830   23.8710   36.1730 C   0  0  0  0  0  0  0  0  0  0  0  0
   44.9560   23.0310   35.5240 C   0  0  0  0  0  0  0  0  0  0  0  0
   46.2140   23.1130   36.0090 N   0  0  0  0  0  0  0  0  0  0  0  0
   46.1680   24.0230   36.9930 C   0  0  0  0  0  0  0  0  0  0  0  0
   47.1140   24.5530   37.8710 C   0  0  0  0  0  0  0  0  0  0  0  0
   46.8520   25.4910   38.8190 C   0  0  0  0  0  0  0  0  0  0  0  0
   45.5560   25.9500   38.9160 C   0  0  0  0  0  0  0  0  0  0  0  0
   44.6090   25.4430   38.0630 C   0  0  0  0  0  0  0  0  0  0  0  0
   44.8750   24.5020   37.1140 C   0  0  0  0  0  0  0  0  0  0  0  0
   40.4780   23.2780   36.5710 O   0  0  0  0  0  0  0  0  0  0  0  0
   38.3050   22.5280   36.1650 C   0  0  0  0  0  0  0  0  0  0  0  0
   39.5850   22.7810   35.6600 C   0  0  0  0  0  0  0  0  0  0  0  0
   39.7900   22.5090   34.3400 C   0  0  0  0  0  0  0  0  0  0  0  0
   38.7910   22.0190   33.5770 N   0  0  0  0  0  0  0  0  0  0  0  0
   37.5560   21.7830   34.1010 C   0  0  0  0  0  0  0  0  0  0  0  0
   37.3400   22.0450   35.3940 N   0  0  0  0  0  0  0  0  0  0  0  0
   36.5210   21.2660   33.2700 N   0  0  0  0  0  0  0  0  0  0  0  0
   35.7190   20.2530   33.5470 N   0  0  0  0  0  0  0  0  0  0  0  0
   34.8620   20.0520   32.5150 C   0  0  0  0  0  0  0  0  0  0  0  0
   35.1550   21.0030   31.5350 C   0  0  0  0  0  0  0  0  0  0  0  0
   36.2100   21.7500   32.0520 C   0  0  0  0  0  0  0  0  0  0  0  0
   42.2373   22.5786   37.3915 H   0  0  0  0  0  0  0  0  0  0  0  0
   41.8951   22.0648   35.6977 H   0  0  0  0  0  0  0  0  0  0  0  0
   42.2954   24.9621   36.3886 H   0  0  0  0  0  0  0  0  0  0  0  0
   42.5059   24.0835   34.8124 H   0  0  0  0  0  0  0  0  0  0  0  0
   44.6623   22.3646   34.6996 H   0  0  0  0  0  0  0  0  0  0  0  0
   47.0387   22.5853   35.6890 H   0  0  0  0  0  0  0  0  0  0  0  0
   48.1474   24.1848   37.7900 H   0  0  0  0  0  0  0  0  0  0  0  0
   47.6434   25.8691   39.4829 H   0  0  0  0  0  0  0  0  0  0  0  0
   45.2859   26.7096   39.6644 H   0  0  0  0  0  0  0  0  0  0  0  0
   43.5780   25.8166   38.1498 H   0  0  0  0  0  0  0  0  0  0  0  0
   38.0944   22.7342   37.2248 H   0  0  0  0  0  0  0  0  0  0  0  0
   40.7786   22.6906   33.8931 H   0  0  0  0  0  0  0  0  0  0  0  0
   34.0794   19.2810   32.4600 H   0  0  0  0  0  0  0  0  0  0  0  0
   34.6583   21.1339   30.5623 H   0  0  0  0  0  0  0  0  0  0  0  0
   36.7062   22.5937   31.5501 H   0  0  0  0  0  0  0  0  0  0  0  0
  1 12  1  0
  2  3  1  0
  2  1  1  0
  3 11  1  0
  4  5  1  0
  4  3  2  0
  5  6  1  0
  6 11  2  0
  6  7  1  0
  7  8  2  0
  8  9  1  0
 10  9  2  0
 11 10  1  0
 14 13  2  0
 14 12  1  0
 15 14  1  0
 16 17  1  0
 16 15  2  0
 17 18  2  0
 18 13  1  0
 19 20  1  0
 19 17  1  0
 21 20  2  0
 22 23  2  0
 22 21  1  0
 23 19  1  0
  1 24  1  0
  1 25  1  0
  2 26  1  0
  2 27  1  0
  4 28  1  0
  5 29  1  0
  7 30  1  0
  8 31  1  0
  9 32  1  0
 10 33  1  0
 13 34  1  0
 15 35  1  0
 21 36  1  0
 22 37  1  0
 23 38  1  0
M  ISO  8  24   8  25   8  26   8  27   8  28  14  29   9  30  14  31  14
M  ISO  7  32  14  33  14  34  14  35  14  36  14  37  14  38  14
M  END
>  <minimizedAffinity>  (1) 
-5.53192902

>  <minimizedRMSD>  (1) 
4.30650377

$$$$
