
     RDKit          3D

 19 19  0  0  0  0  0  0  0  0999 V2000
   40.2250   22.3990   36.9980 C   0  0  0  0  0  0  0  0  0  0  0  0
   39.6740   23.1920   38.0010 C   0  0  0  0  0  0  0  0  0  0  0  0
   38.2980   23.4560   37.8950 C   0  0  0  0  0  0  0  0  0  0  0  0
   37.5890   22.9280   36.8340 N   0  0  0  0  0  0  0  0  0  0  0  0
   38.1970   22.1690   35.9050 C   0  0  0  0  0  0  0  0  0  0  0  0
   39.5220   21.9010   35.9850 N   0  0  0  0  0  0  0  0  0  0  0  0
   37.4250   21.6420   34.8210 N   0  0  0  0  0  0  0  0  0  0  0  0
   36.1720   21.0320   35.0610 C   0  0  0  0  0  0  0  0  0  0  0  0
   35.8130   20.8080   36.2910 N   0  0  0  0  0  0  0  0  0  0  0  0
   35.3260   20.6730   33.9550 N   0  0  0  0  0  0  0  0  0  0  0  0
   34.8750   20.3710   36.4690 H   0  0  0  0  0  0  0  0  0  0  0  0
   37.6290   24.2550   38.8630 N   0  0  0  0  0  0  0  0  0  0  0  0
   41.3003   22.1721   37.0461 H   0  0  0  0  0  0  0  0  0  0  0  0
   40.2807   23.5888   38.8284 H   0  0  0  0  0  0  0  0  0  0  0  0
   37.7851   21.7076   33.8582 H   0  0  0  0  0  0  0  0  0  0  0  0
   34.4130   20.2286   34.1280 H   0  0  0  0  0  0  0  0  0  0  0  0
   35.6330   20.8602   32.9898 H   0  0  0  0  0  0  0  0  0  0  0  0
   36.6198   24.4389   38.7704 H   0  0  0  0  0  0  0  0  0  0  0  0
   38.1537   24.6497   39.6566 H   0  0  0  0  0  0  0  0  0  0  0  0
  1  2  2  0
  3  2  1  0
  3 12  1  0
  4  3  2  0
  5  6  2  0
  5  4  1  0
  6  1  1  0
  7  8  1  0
  7  5  1  0
  8  9  2  0
  9 11  1  0
 10  8  1  0
  1 13  1  0
  2 14  1  0
  7 15  1  0
 10 16  1  0
 10 17  1  0
 12 18  1  0
 12 19  1  0
M  ISO  2  13  14  14  14
M  END
>  <minimizedAffinity>  (1) 
-3.85705018

>  <minimizedRMSD>  (1) 
0.512506485

$$$$
