
     RDKit          3D

 34 36  0  0  0  0  0  0  0  0999 V2000
   44.0010   23.1880   34.8850 C   0  0  0  0  0  0  0  0  0  0  0  0
   45.1580   23.4180   35.7950 C   0  0  0  0  0  0  0  0  0  0  0  0
   46.3840   22.7980   35.7400 C   0  0  0  0  0  0  0  0  0  0  0  0
   47.2100   23.2260   36.7010 N   0  0  0  0  0  0  0  0  0  0  0  0
   46.5360   24.1470   37.4160 C   0  0  0  0  0  0  0  0  0  0  0  0
   46.8430   24.9320   38.5120 C   0  0  0  0  0  0  0  0  0  0  0  0
   45.9740   25.8160   39.0750 C   0  0  0  0  0  0  0  0  0  0  0  0
   44.7220   25.9360   38.5270 C   0  0  0  0  0  0  0  0  0  0  0  0
   44.3950   25.1700   37.4420 C   0  0  0  0  0  0  0  0  0  0  0  0
   45.2710   24.2710   36.8630 C   0  0  0  0  0  0  0  0  0  0  0  0
   43.4610   21.8010   35.0120 C   0  0  0  0  0  0  0  0  0  0  0  0
   42.0750   21.7610   34.7630 O   0  0  0  0  0  0  0  0  0  0  0  0
   40.2240   23.0930   35.3200 C   0  0  0  0  0  0  0  0  0  0  0  0
   41.2270   22.2090   35.7330 C   0  0  0  0  0  0  0  0  0  0  0  0
   41.2830   21.8620   37.0640 C   0  0  0  0  0  0  0  0  0  0  0  0
   40.3710   22.3830   37.9350 N   0  0  0  0  0  0  0  0  0  0  0  0
   39.4130   23.2360   37.4990 C   0  0  0  0  0  0  0  0  0  0  0  0
   39.3410   23.5860   36.2010 N   0  0  0  0  0  0  0  0  0  0  0  0
   38.4380   23.7710   38.5170 C   0  0  0  0  0  0  0  0  0  0  0  0
   37.9840   24.9880   38.0940 F   0  0  0  0  0  0  0  0  0  0  0  0
   39.1470   23.9550   39.6900 F   0  0  0  0  0  0  0  0  0  0  0  0
   37.4240   22.8480   38.6940 F   0  0  0  0  0  0  0  0  0  0  0  0
   44.3272   23.3492   33.8469 H   0  0  0  0  0  0  0  0  0  0  0  0
   43.2028   23.8919   35.1630 H   0  0  0  0  0  0  0  0  0  0  0  0
   46.6543   22.0379   34.9922 H   0  0  0  0  0  0  0  0  0  0  0  0
   48.1772   22.9112   36.8633 H   0  0  0  0  0  0  0  0  0  0  0  0
   47.8458   24.8369   38.9540 H   0  0  0  0  0  0  0  0  0  0  0  0
   46.2682   26.4186   39.9470 H   0  0  0  0  0  0  0  0  0  0  0  0
   43.9913   26.6385   38.9543 H   0  0  0  0  0  0  0  0  0  0  0  0
   43.3886   25.2742   37.0103 H   0  0  0  0  0  0  0  0  0  0  0  0
   43.9731   21.1505   34.2877 H   0  0  0  0  0  0  0  0  0  0  0  0
   43.6365   21.4556   36.0415 H   0  0  0  0  0  0  0  0  0  0  0  0
   40.1591   23.3866   34.2619 H   0  0  0  0  0  0  0  0  0  0  0  0
   42.0581   21.1690   37.4231 H   0  0  0  0  0  0  0  0  0  0  0  0
  1 11  1  0
  1  2  1  0
  2 10  1  0
  3  2  2  0
  3  4  1  0
  4  5  1  0
  5  6  2  0
  6  7  1  0
  8  7  2  0
  9  8  1  0
 10  5  1  0
 10  9  2  0
 12 11  1  0
 12 14  1  0
 13 14  2  0
 13 18  1  0
 14 15  1  0
 15 16  2  0
 17 16  1  0
 17 19  1  0
 18 17  2  0
 19 22  1  0
 19 21  1  0
 20 19  1  0
  1 23  1  0
  1 24  1  0
  3 25  1  0
  4 26  1  0
  6 27  1  0
  7 28  1  0
  8 29  1  0
  9 30  1  0
 11 31  1  0
 11 32  1  0
 13 33  1  0
 15 34  1  0
M  ISO  8  23   8  24   8  25  14  26   9  27  14  28  14  29  14  30  14
M  ISO  4  31   8  32   8  33  14  34  14
M  END
>  <minimizedAffinity>  (1) 
-5.72959518

>  <minimizedRMSD>  (1) 
1.46015048

$$$$
