
     RDKit          3D

 38 41  0  0  0  0  0  0  0  0999 V2000
   44.5330   22.6890   35.1320 C   0  0  0  0  0  0  0  0  0  0  0  0
   45.5910   23.2000   36.0370 C   0  0  0  0  0  0  0  0  0  0  0  0
   46.8980   22.7840   36.0870 C   0  0  0  0  0  0  0  0  0  0  0  0
   47.6180   23.4410   37.0180 N   0  0  0  0  0  0  0  0  0  0  0  0
   46.7750   24.3080   37.5960 C   0  0  0  0  0  0  0  0  0  0  0  0
   46.9110   25.2440   38.5990 C   0  0  0  0  0  0  0  0  0  0  0  0
   45.8870   26.0410   39.0410 C   0  0  0  0  0  0  0  0  0  0  0  0
   44.6540   25.9050   38.4560 C   0  0  0  0  0  0  0  0  0  0  0  0
   44.5060   24.9760   37.4560 C   0  0  0  0  0  0  0  0  0  0  0  0
   45.5240   24.1770   37.0090 C   0  0  0  0  0  0  0  0  0  0  0  0
   43.9690   21.3910   35.5920 C   0  0  0  0  0  0  0  0  0  0  0  0
   42.6740   21.1860   35.0520 O   0  0  0  0  0  0  0  0  0  0  0  0
   40.5670   22.1940   34.9530 C   0  0  0  0  0  0  0  0  0  0  0  0
   41.6100   21.6920   35.7470 C   0  0  0  0  0  0  0  0  0  0  0  0
   41.4710   21.7550   37.1140 C   0  0  0  0  0  0  0  0  0  0  0  0
   40.3490   22.2890   37.6460 N   0  0  0  0  0  0  0  0  0  0  0  0
   39.3450   22.7730   36.8500 C   0  0  0  0  0  0  0  0  0  0  0  0
   39.4760   22.7140   35.5270 N   0  0  0  0  0  0  0  0  0  0  0  0
   38.1160   23.3590   37.4580 C   0  0  0  0  0  0  0  0  0  0  0  0
   38.2100   24.2000   38.6750 C   0  0  0  0  0  0  0  0  0  0  0  0
   37.8910   24.8470   37.3120 C   0  0  0  0  0  0  0  0  0  0  0  0
   44.9628   22.5514   34.1288 H   0  0  0  0  0  0  0  0  0  0  0  0
   43.7155   23.4250   35.1237 H   0  0  0  0  0  0  0  0  0  0  0  0
   47.3131   21.9992   35.4375 H   0  0  0  0  0  0  0  0  0  0  0  0
   48.6144   23.3044   37.2403 H   0  0  0  0  0  0  0  0  0  0  0  0
   47.8977   25.3578   39.0717 H   0  0  0  0  0  0  0  0  0  0  0  0
   46.0504   26.7725   39.8461 H   0  0  0  0  0  0  0  0  0  0  0  0
   43.8049   26.5247   38.7799 H   0  0  0  0  0  0  0  0  0  0  0  0
   43.5161   24.8678   36.9887 H   0  0  0  0  0  0  0  0  0  0  0  0
   44.6296   20.5745   35.2651 H   0  0  0  0  0  0  0  0  0  0  0  0
   43.8953   21.4073   36.6894 H   0  0  0  0  0  0  0  0  0  0  0  0
   40.6468   22.1598   33.8564 H   0  0  0  0  0  0  0  0  0  0  0  0
   42.2675   21.3734   37.7698 H   0  0  0  0  0  0  0  0  0  0  0  0
   37.5397   22.4552   37.2109 H   0  0  0  0  0  0  0  0  0  0  0  0
   37.4313   24.1361   39.4493 H   0  0  0  0  0  0  0  0  0  0  0  0
   38.9706   24.3601   39.4533 H   0  0  0  0  0  0  0  0  0  0  0  0
   38.6396   25.4748   36.8066 H   0  0  0  0  0  0  0  0  0  0  0  0
   37.0927   25.4887   36.9107 H   0  0  0  0  0  0  0  0  0  0  0  0
  1 11  1  0
  1  2  1  0
  2  3  2  0
  2 10  1  0
  3  4  1  0
  4  5  1  0
  5  6  2  0
  6  7  1  0
  8  7  2  0
  9  8  1  0
 10  9  2  0
 10  5  1  0
 12 11  1  0
 12 14  1  0
 13 18  2  0
 13 14  1  0
 14 15  2  0
 15 16  1  0
 17 19  1  0
 17 16  2  0
 18 17  1  0
 19 20  1  0
 21 19  1  0
 21 20  1  0
  1 22  1  0
  1 23  1  0
  3 24  1  0
  4 25  1  0
  6 26  1  0
  7 27  1  0
  8 28  1  0
  9 29  1  0
 11 30  1  0
 11 31  1  0
 13 32  1  0
 15 33  1  0
 19 34  1  0
 20 35  1  0
 20 36  1  0
 21 37  1  0
 21 38  1  0
M  ISO  8  22   8  23   8  24  14  25   9  26  14  27  14  28  14  29  14
M  ISO  8  30   8  31   8  32  14  33  14  34  13  35  13  36  13  37  13
M  ISO  1  38  13
M  END
>  <minimizedAffinity>  (1) 
-5.16955328

>  <minimizedRMSD>  (1) 
1.89335847

$$$$
