
     RDKit          3D

 32 34  0  0  0  0  0  0  0  0999 V2000
   43.5480   23.3820   35.1070 C   0  0  0  0  0  0  0  0  0  0  0  0
   44.8080   23.5360   35.8690 C   0  0  0  0  0  0  0  0  0  0  0  0
   45.9960   22.8540   35.6610 C   0  0  0  0  0  0  0  0  0  0  0  0
   46.9590   23.2290   36.5330 N   0  0  0  0  0  0  0  0  0  0  0  0
   46.4070   24.1680   37.3260 C   0  0  0  0  0  0  0  0  0  0  0  0
   46.8920   24.9100   38.3840 C   0  0  0  0  0  0  0  0  0  0  0  0
   46.1280   25.8350   39.0620 C   0  0  0  0  0  0  0  0  0  0  0  0
   44.8270   26.0280   38.6700 C   0  0  0  0  0  0  0  0  0  0  0  0
   44.3480   25.2880   37.6160 C   0  0  0  0  0  0  0  0  0  0  0  0
   45.0940   24.3660   36.9330 C   0  0  0  0  0  0  0  0  0  0  0  0
   42.7530   22.2060   35.5730 C   0  0  0  0  0  0  0  0  0  0  0  0
   41.3980   22.3570   35.1790 O   0  0  0  0  0  0  0  0  0  0  0  0
   39.5440   23.6650   35.7150 C   0  0  0  0  0  0  0  0  0  0  0  0
   40.5250   22.7730   36.1480 C   0  0  0  0  0  0  0  0  0  0  0  0
   40.5030   22.4250   37.4700 C   0  0  0  0  0  0  0  0  0  0  0  0
   39.5600   22.9360   38.2980 N   0  0  0  0  0  0  0  0  0  0  0  0
   38.6230   23.7980   37.8440 C   0  0  0  0  0  0  0  0  0  0  0  0
   38.6310   24.1540   36.5400 N   0  0  0  0  0  0  0  0  0  0  0  0
   37.6380   24.3490   38.6540 O   0  0  0  0  0  0  0  0  0  0  0  0
   43.7907   23.2475   34.0426 H   0  0  0  0  0  0  0  0  0  0  0  0
   42.9421   24.2863   35.2654 H   0  0  0  0  0  0  0  0  0  0  0  0
   46.1392   22.0954   34.8774 H   0  0  0  0  0  0  0  0  0  0  0  0
   47.9227   22.8686   36.5814 H   0  0  0  0  0  0  0  0  0  0  0  0
   47.9344   24.7562   38.6999 H   0  0  0  0  0  0  0  0  0  0  0  0
   46.5523   26.4070   39.9003 H   0  0  0  0  0  0  0  0  0  0  0  0
   44.1843   26.7563   39.1863 H   0  0  0  0  0  0  0  0  0  0  0  0
   43.3052   25.4457   37.3033 H   0  0  0  0  0  0  0  0  0  0  0  0
   43.1631   21.2878   35.1272 H   0  0  0  0  0  0  0  0  0  0  0  0
   42.8080   22.1412   36.6697 H   0  0  0  0  0  0  0  0  0  0  0  0
   39.5284   23.9708   34.6585 H   0  0  0  0  0  0  0  0  0  0  0  0
   41.2554   21.7259   37.8638 H   0  0  0  0  0  0  0  0  0  0  0  0
   36.9751   24.9761   38.2702 H   0  0  0  0  0  0  0  0  0  0  0  0
  1 11  1  0
  1  2  1  0
  2 10  1  0
  3  2  2  0
  3  4  1  0
  4  5  1  0
  5  6  2  0
  6  7  1  0
  8  7  2  0
  9  8  1  0
 10  5  1  0
 10  9  2  0
 12 11  1  0
 12 14  1  0
 13 14  2  0
 13 18  1  0
 14 15  1  0
 15 16  2  0
 17 16  1  0
 17 19  1  0
 18 17  2  0
  1 20  1  0
  1 21  1  0
  3 22  1  0
  4 23  1  0
  6 24  1  0
  7 25  1  0
  8 26  1  0
  9 27  1  0
 11 28  1  0
 11 29  1  0
 13 30  1  0
 15 31  1  0
 19 32  1  0
M  ISO  8  20   8  21   8  22  14  23   9  24  14  25  14  26  14  27  14
M  ISO  5  28   8  29   8  30  14  31  14  32   3
M  END
>  <minimizedAffinity>  (1) 
-4.92508316

>  <minimizedRMSD>  (1) 
0.643897593

$$$$
