
     RDKit          3D

 33 35  0  0  0  0  0  0  0  0999 V2000
   43.6700   23.2550   35.0910 C   0  0  0  0  0  0  0  0  0  0  0  0
   44.9110   23.4520   35.8780 C   0  0  0  0  0  0  0  0  0  0  0  0
   46.0990   22.7930   35.7060 C   0  0  0  0  0  0  0  0  0  0  0  0
   47.0390   23.1970   36.5780 N   0  0  0  0  0  0  0  0  0  0  0  0
   46.4700   24.1450   37.3500 C   0  0  0  0  0  0  0  0  0  0  0  0
   46.9190   24.9160   38.3970 C   0  0  0  0  0  0  0  0  0  0  0  0
   46.1260   25.8400   39.0410 C   0  0  0  0  0  0  0  0  0  0  0  0
   44.8120   26.0010   38.6120 C   0  0  0  0  0  0  0  0  0  0  0  0
   44.3740   25.2320   37.5710 C   0  0  0  0  0  0  0  0  0  0  0  0
   45.1590   24.3140   36.9320 C   0  0  0  0  0  0  0  0  0  0  0  0
   42.9310   22.0270   35.5120 C   0  0  0  0  0  0  0  0  0  0  0  0
   41.5750   22.0870   35.1500 O   0  0  0  0  0  0  0  0  0  0  0  0
   39.6980   23.4430   35.5550 C   0  0  0  0  0  0  0  0  0  0  0  0
   40.6860   22.5710   36.0550 C   0  0  0  0  0  0  0  0  0  0  0  0
   40.6640   22.2940   37.3910 C   0  0  0  0  0  0  0  0  0  0  0  0
   39.7150   22.8490   38.1920 N   0  0  0  0  0  0  0  0  0  0  0  0
   38.7790   23.6810   37.6820 C   0  0  0  0  0  0  0  0  0  0  0  0
   38.7780   23.9700   36.3730 N   0  0  0  0  0  0  0  0  0  0  0  0
   37.7540   24.3010   38.4510 N   0  0  0  0  0  0  0  0  0  0  0  0
   43.9346   23.1634   34.0272 H   0  0  0  0  0  0  0  0  0  0  0  0
   43.0158   24.1222   35.2643 H   0  0  0  0  0  0  0  0  0  0  0  0
   46.2653   22.0204   34.9408 H   0  0  0  0  0  0  0  0  0  0  0  0
   48.0065   22.8497   36.6437 H   0  0  0  0  0  0  0  0  0  0  0  0
   47.9580   24.7889   38.7351 H   0  0  0  0  0  0  0  0  0  0  0  0
   46.5224   26.4371   39.8755 H   0  0  0  0  0  0  0  0  0  0  0  0
   44.1441   26.7276   39.0978 H   0  0  0  0  0  0  0  0  0  0  0  0
   43.3359   25.3584   37.2297 H   0  0  0  0  0  0  0  0  0  0  0  0
   43.3903   21.1516   35.0297 H   0  0  0  0  0  0  0  0  0  0  0  0
   42.9904   21.9498   36.6077 H   0  0  0  0  0  0  0  0  0  0  0  0
   39.6825   23.6928   34.4838 H   0  0  0  0  0  0  0  0  0  0  0  0
   41.4175   21.6185   37.8223 H   0  0  0  0  0  0  0  0  0  0  0  0
   37.0734   24.9248   37.9943 H   0  0  0  0  0  0  0  0  0  0  0  0
   37.6929   24.1258   39.4642 H   0  0  0  0  0  0  0  0  0  0  0  0
  1 11  1  0
  1  2  1  0
  2 10  1  0
  3  2  2  0
  3  4  1  0
  4  5  1  0
  5  6  2  0
  6  7  1  0
  8  7  2  0
  9  8  1  0
 10  5  1  0
 10  9  2  0
 12 11  1  0
 12 14  1  0
 13 14  2  0
 13 18  1  0
 14 15  1  0
 15 16  2  0
 17 16  1  0
 17 19  1  0
 18 17  2  0
  1 20  1  0
  1 21  1  0
  3 22  1  0
  4 23  1  0
  6 24  1  0
  7 25  1  0
  8 26  1  0
  9 27  1  0
 11 28  1  0
 11 29  1  0
 13 30  1  0
 15 31  1  0
 19 32  1  0
 19 33  1  0
M  ISO  8  20   8  21   8  22  14  23   9  24  14  25  14  26  14  27  14
M  ISO  4  28   8  29   8  30  14  31  14
M  END
>  <minimizedAffinity>  (1) 
-4.87548876

>  <minimizedRMSD>  (1) 
0.825017691

$$$$
