
     RDKit          3D

 32 34  0  0  0  0  0  0  0  0999 V2000
   42.1570   23.3940   36.2990 C   0  0  0  0  0  0  0  0  0  0  0  0
   43.6020   23.1010   36.2060 C   0  0  0  0  0  0  0  0  0  0  0  0
   44.0490   21.9420   35.5610 C   0  0  0  0  0  0  0  0  0  0  0  0
   45.3990   21.6640   35.5060 C   0  0  0  0  0  0  0  0  0  0  0  0
   46.3600   22.4790   36.0610 C   0  0  0  0  0  0  0  0  0  0  0  0
   45.8900   23.6130   36.6880 C   0  0  0  0  0  0  0  0  0  0  0  0
   46.8690   24.4390   37.2420 C   0  0  0  0  0  0  0  0  0  0  0  0
   46.5210   25.6250   37.9000 C   0  0  0  0  0  0  0  0  0  0  0  0
   45.1750   25.8640   37.9310 C   0  0  0  0  0  0  0  0  0  0  0  0
   44.1600   25.1110   37.4180 C   0  0  0  0  0  0  0  0  0  0  0  0
   44.5380   23.9460   36.7760 C   0  0  0  0  0  0  0  0  0  0  0  0
   41.4720   22.2960   37.1040 C   0  0  0  0  0  0  0  0  0  0  0  0
   40.0370   22.5870   37.1460 C   0  0  0  0  0  0  0  0  0  0  0  0
   39.3990   23.1840   38.2310 C   0  0  0  0  0  0  0  0  0  0  0  0
   38.0260   23.4060   38.1490 C   0  0  0  0  0  0  0  0  0  0  0  0
   37.3760   23.0270   37.0050 N   0  0  0  0  0  0  0  0  0  0  0  0
   38.0310   22.4500   35.9700 C   0  0  0  0  0  0  0  0  0  0  0  0
   39.3630   22.2280   36.0370 N   0  0  0  0  0  0  0  0  0  0  0  0
   41.7241   23.4334   35.2885 H   0  0  0  0  0  0  0  0  0  0  0  0
   42.0086   24.3636   36.7969 H   0  0  0  0  0  0  0  0  0  0  0  0
   43.3253   21.2544   35.0990 H   0  0  0  0  0  0  0  0  0  0  0  0
   45.7237   20.7463   34.9937 H   0  0  0  0  0  0  0  0  0  0  0  0
   47.4326   22.2408   36.0075 H   0  0  0  0  0  0  0  0  0  0  0  0
   47.9284   24.1545   37.1606 H   0  0  0  0  0  0  0  0  0  0  0  0
   47.2619   26.3019   38.3504 H   0  0  0  0  0  0  0  0  0  0  0  0
   44.8689   26.7903   38.4392 H   0  0  0  0  0  0  0  0  0  0  0  0
   43.1059   25.4118   37.5093 H   0  0  0  0  0  0  0  0  0  0  0  0
   41.6404   21.3213   36.6228 H   0  0  0  0  0  0  0  0  0  0  0  0
   41.8825   22.2601   38.1239 H   0  0  0  0  0  0  0  0  0  0  0  0
   39.9646   23.4727   39.1292 H   0  0  0  0  0  0  0  0  0  0  0  0
   37.4788   23.8732   38.9810 H   0  0  0  0  0  0  0  0  0  0  0  0
   37.4746   22.1593   35.0667 H   0  0  0  0  0  0  0  0  0  0  0  0
  1 12  1  0
  2  1  1  0
  2 11  1  0
  3  2  2  0
  4  3  1  0
  4  5  2  0
  5  6  1  0
  6 11  2  0
  6  7  1  0
  7  8  2  0
  8  9  1  0
 10  9  2  0
 11 10  1  0
 12 13  1  0
 13 14  2  0
 15 14  1  0
 16 15  2  0
 17 18  2  0
 17 16  1  0
 18 13  1  0
  1 19  1  0
  1 20  1  0
  3 21  1  0
  4 22  1  0
  5 23  1  0
  7 24  1  0
  8 25  1  0
  9 26  1  0
 10 27  1  0
 12 28  1  0
 12 29  1  0
 14 30  1  0
 15 31  1  0
 17 32  1  0
M  ISO  8  19   8  20   8  21  14  22  14  23  14  24  14  25  14  26  14
M  ISO  6  27  14  28   8  29   8  30  14  31  14  32  14
M  END
>  <minimizedAffinity>  (1) 
-5.16056347

>  <minimizedRMSD>  (1) 
1.51214993

$$$$
