
     RDKit          3D

 32 33  0  0  0  0  0  0  0  0999 V2000
   41.1060   21.8070   37.4300 C   0  0  0  0  0  0  0  0  0  0  0  0
   39.7870   22.4910   37.3710 C   0  0  0  0  0  0  0  0  0  0  0  0
   39.2570   23.2670   38.4040 C   0  0  0  0  0  0  0  0  0  0  0  0
   38.0000   23.8480   38.1990 C   0  0  0  0  0  0  0  0  0  0  0  0
   37.3810   23.6160   37.0040 N   0  0  0  0  0  0  0  0  0  0  0  0
   37.9330   22.8580   36.0340 C   0  0  0  0  0  0  0  0  0  0  0  0
   39.1290   22.2960   36.2120 N   0  0  0  0  0  0  0  0  0  0  0  0
   41.9190   22.2730   36.2470 C   0  0  0  0  0  0  0  0  0  0  0  0
   42.4080   23.6980   36.4070 C   0  0  0  0  0  0  0  0  0  0  0  0
   41.9930   24.4530   35.1700 C   0  0  0  0  0  0  0  0  0  0  0  0
   43.0960   24.2770   34.1490 C   0  0  0  0  0  0  0  0  0  0  0  0
   44.2150   25.1870   34.6490 C   0  0  0  0  0  0  0  0  0  0  0  0
   44.6320   24.8330   36.0450 C   0  0  0  0  0  0  0  0  0  0  0  0
   43.8780   23.7060   36.6590 C   0  0  0  0  0  0  0  0  0  0  0  0
   41.6221   22.0688   38.3655 H   0  0  0  0  0  0  0  0  0  0  0  0
   40.9750   20.7152   37.4008 H   0  0  0  0  0  0  0  0  0  0  0  0
   39.8073   23.4163   39.3447 H   0  0  0  0  0  0  0  0  0  0  0  0
   37.5273   24.4698   38.9735 H   0  0  0  0  0  0  0  0  0  0  0  0
   37.3922   22.7024   35.0889 H   0  0  0  0  0  0  0  0  0  0  0  0
   41.2942   22.2133   35.3436 H   0  0  0  0  0  0  0  0  0  0  0  0
   42.8024   21.6221   36.1701 H   0  0  0  0  0  0  0  0  0  0  0  0
   41.9617   24.1982   37.2791 H   0  0  0  0  0  0  0  0  0  0  0  0
   41.0487   24.0463   34.7790 H   0  0  0  0  0  0  0  0  0  0  0  0
   41.8357   25.5179   35.3962 H   0  0  0  0  0  0  0  0  0  0  0  0
   42.7566   24.5882   33.1500 H   0  0  0  0  0  0  0  0  0  0  0  0
   43.4163   23.2293   34.0500 H   0  0  0  0  0  0  0  0  0  0  0  0
   45.0828   25.0859   33.9807 H   0  0  0  0  0  0  0  0  0  0  0  0
   43.8411   26.2215   34.6535 H   0  0  0  0  0  0  0  0  0  0  0  0
   45.6973   24.5599   36.0242 H   0  0  0  0  0  0  0  0  0  0  0  0
   44.4206   25.7179   36.6632 H   0  0  0  0  0  0  0  0  0  0  0  0
   44.0341   23.7479   37.7471 H   0  0  0  0  0  0  0  0  0  0  0  0
   44.2681   22.7920   36.1873 H   0  0  0  0  0  0  0  0  0  0  0  0
  2  1  1  0
  2  3  2  0
  4  3  1  0
  5  4  2  0
  6  7  2  0
  6  5  1  0
  7  2  1  0
  8  9  1  0
  8  1  1  0
  9 14  1  0
 10  9  1  0
 11 12  1  0
 11 10  1  0
 12 13  1  0
 13 14  1  0
  1 15  1  0
  1 16  1  0
  3 17  1  0
  4 18  1  0
  6 19  1  0
  8 20  1  0
  8 21  1  0
  9 22  1  0
 10 23  1  0
 10 24  1  0
 11 25  1  0
 11 26  1  0
 12 27  1  0
 12 28  1  0
 13 29  1  0
 13 30  1  0
 14 31  1  0
 14 32  1  0
M  ISO  8  15   8  16   8  17  14  18  14  19  14  20   8  21   8  22  13
M  ISO  8  23  13  24  13  25  13  26  13  27  13  28  13  29  13  30  13
M  ISO  2  31  13  32  13
M  END
>  <minimizedAffinity>  (1) 
-3.87761307

>  <minimizedRMSD>  (1) 
1.0297879

$$$$
