
     RDKit          3D

 23 24  0  0  0  0  0  0  0  0999 V2000
   41.1380   22.2930   36.0810 C   0  0  0  0  0  0  0  0  0  0  0  0
   42.1470   23.3660   35.9790 C   0  0  0  0  0  0  0  0  0  0  0  0
   41.9970   24.4920   35.1710 C   0  0  0  0  0  0  0  0  0  0  0  0
   43.0370   25.4300   35.1720 C   0  0  0  0  0  0  0  0  0  0  0  0
   44.1160   25.1900   35.9510 N   0  0  0  0  0  0  0  0  0  0  0  0
   44.2320   24.0920   36.7200 C   0  0  0  0  0  0  0  0  0  0  0  0
   43.2350   23.1790   36.7270 N   0  0  0  0  0  0  0  0  0  0  0  0
   40.7080   22.1720   37.5190 C   0  0  0  0  0  0  0  0  0  0  0  0
   39.4590   22.9730   37.6840 C   0  0  0  0  0  0  0  0  0  0  0  0
   38.5820   23.2510   36.6410 C   0  0  0  0  0  0  0  0  0  0  0  0
   37.5650   24.0060   37.1990 C   0  0  0  0  0  0  0  0  0  0  0  0
   37.8280   24.1660   38.5040 N   0  0  0  0  0  0  0  0  0  0  0  0
   38.9600   23.5520   38.8110 N   0  0  0  0  0  0  0  0  0  0  0  0
   41.5740   21.3412   35.7434 H   0  0  0  0  0  0  0  0  0  0  0  0
   40.2704   22.5321   35.4485 H   0  0  0  0  0  0  0  0  0  0  0  0
   41.0965   24.6382   34.5563 H   0  0  0  0  0  0  0  0  0  0  0  0
   42.9777   26.3387   34.5549 H   0  0  0  0  0  0  0  0  0  0  0  0
   45.1296   23.9387   37.3371 H   0  0  0  0  0  0  0  0  0  0  0  0
   40.5131   21.1177   37.7651 H   0  0  0  0  0  0  0  0  0  0  0  0
   41.4964   22.5417   38.1911 H   0  0  0  0  0  0  0  0  0  0  0  0
   38.6769   22.9364   35.5912 H   0  0  0  0  0  0  0  0  0  0  0  0
   36.6912   24.4060   36.6638 H   0  0  0  0  0  0  0  0  0  0  0  0
   37.2381   24.6880   39.1677 H   0  0  0  0  0  0  0  0  0  0  0  0
  1  8  1  0
  2  1  1  0
  2  7  2  0
  3  4  2  0
  3  2  1  0
  4  5  1  0
  5  6  2  0
  6  7  1  0
  8  9  1  0
  9 13  2  0
 10 11  2  0
 10  9  1  0
 11 12  1  0
 12 13  1  0
  1 14  1  0
  1 15  1  0
  3 16  1  0
  4 17  1  0
  6 18  1  0
  8 19  1  0
  8 20  1  0
 10 21  1  0
 11 22  1  0
 12 23  1  0
M  ISO  8  14   8  15   8  16  14  17  14  18  14  19   8  20   8  21  14
M  ISO  2  22  14  23   9
M  END
>  <minimizedAffinity>  (1) 
-3.6877296

>  <minimizedRMSD>  (1) 
5.46223259

$$$$
