
     RDKit          3D

 23 24  0  0  0  0  0  0  0  0999 V2000
   40.8250   21.9420   37.5800 C   0  0  0  0  0  0  0  0  0  0  0  0
   39.7300   22.9090   37.4860 C   0  0  0  0  0  0  0  0  0  0  0  0
   38.9180   23.2900   38.5570 C   0  0  0  0  0  0  0  0  0  0  0  0
   37.9020   24.2360   38.3080 C   0  0  0  0  0  0  0  0  0  0  0  0
   37.7750   24.7170   37.0460 N   0  0  0  0  0  0  0  0  0  0  0  0
   38.5740   24.3270   36.0390 C   0  0  0  0  0  0  0  0  0  0  0  0
   39.5450   23.4280   36.2620 N   0  0  0  0  0  0  0  0  0  0  0  0
   41.9160   22.3640   36.6340 C   0  0  0  0  0  0  0  0  0  0  0  0
   42.9280   21.3250   36.6010 C   0  0  0  0  0  0  0  0  0  0  0  0
   42.9830   20.0690   37.1160 C   0  0  0  0  0  0  0  0  0  0  0  0
   44.0750   19.2710   36.9400 C   0  0  0  0  0  0  0  0  0  0  0  0
   45.1670   19.9400   36.1350 C   0  0  0  0  0  0  0  0  0  0  0  0
   44.4420   21.6130   35.7590 S   0  0  0  0  0  0  0  0  0  0  0  0
   41.2137   21.9202   38.6088 H   0  0  0  0  0  0  0  0  0  0  0  0
   40.4644   20.9369   37.3157 H   0  0  0  0  0  0  0  0  0  0  0  0
   39.0661   22.8662   39.5612 H   0  0  0  0  0  0  0  0  0  0  0  0
   37.2327   24.5736   39.1130 H   0  0  0  0  0  0  0  0  0  0  0  0
   38.4323   24.7447   35.0313 H   0  0  0  0  0  0  0  0  0  0  0  0
   41.4982   22.5064   35.6265 H   0  0  0  0  0  0  0  0  0  0  0  0
   42.3611   23.3113   36.9725 H   0  0  0  0  0  0  0  0  0  0  0  0
   42.1256   19.6862   37.6891 H   0  0  0  0  0  0  0  0  0  0  0  0
   44.1533   18.2496   37.3408 H   0  0  0  0  0  0  0  0  0  0  0  0
   46.1482   19.5371   35.8435 H   0  0  0  0  0  0  0  0  0  0  0  0
  2  1  1  0
  2  3  2  0
  4  3  1  0
  5  4  2  0
  6  7  2  0
  6  5  1  0
  7  2  1  0
  8  1  1  0
  9  8  1  0
  9 10  2  0
 11 10  1  0
 12 11  2  0
 13 12  1  0
 13  9  1  0
  1 14  1  0
  1 15  1  0
  3 16  1  0
  4 17  1  0
  6 18  1  0
  8 19  1  0
  8 20  1  0
 10 21  1  0
 11 22  1  0
 12 23  1  0
M  ISO  8  14   8  15   8  16  14  17  14  18  14  19   8  20   8  21  14
M  ISO  2  22  14  23  14
M  END
>  <minimizedAffinity>  (1) 
-3.68709016

>  <minimizedRMSD>  (1) 
0.886459172

$$$$
