
     RDKit          3D

 24 25  0  0  0  0  0  0  0  0999 V2000
   37.7020   22.0340   34.7640 C   0  0  0  0  0  0  0  0  0  0  0  0
   38.1990   22.4870   36.0690 C   0  0  0  0  0  0  0  0  0  0  0  0
   37.3940   23.1440   37.0050 C   0  0  0  0  0  0  0  0  0  0  0  0
   37.9810   23.5330   38.2290 C   0  0  0  0  0  0  0  0  0  0  0  0
   39.2930   23.2440   38.4160 N   0  0  0  0  0  0  0  0  0  0  0  0
   40.0260   22.6100   37.4820 C   0  0  0  0  0  0  0  0  0  0  0  0
   39.5030   22.2300   36.3190 N   0  0  0  0  0  0  0  0  0  0  0  0
   38.4960   22.7850   33.6990 C   0  0  0  0  0  0  0  0  0  0  0  0
   37.4810   23.5340   32.8840 C   0  0  0  0  0  0  0  0  0  0  0  0
   36.5600   22.8230   32.1190 C   0  0  0  0  0  0  0  0  0  0  0  0
   35.6370   23.5310   31.3780 C   0  0  0  0  0  0  0  0  0  0  0  0
   35.6500   24.8560   31.4110 N   0  0  0  0  0  0  0  0  0  0  0  0
   36.5210   25.5570   32.1350 C   0  0  0  0  0  0  0  0  0  0  0  0
   37.4410   24.8880   32.8750 N   0  0  0  0  0  0  0  0  0  0  0  0
   37.8566   20.9503   34.6563 H   0  0  0  0  0  0  0  0  0  0  0  0
   36.6248   22.2329   34.6636 H   0  0  0  0  0  0  0  0  0  0  0  0
   36.3346   23.3517   36.7939 H   0  0  0  0  0  0  0  0  0  0  0  0
   37.3956   24.0515   39.0026 H   0  0  0  0  0  0  0  0  0  0  0  0
   41.0864   22.4003   37.6857 H   0  0  0  0  0  0  0  0  0  0  0  0
   39.2014   23.4854   34.1700 H   0  0  0  0  0  0  0  0  0  0  0  0
   39.0883   22.0983   33.0763 H   0  0  0  0  0  0  0  0  0  0  0  0
   36.5684   21.7231   32.1060 H   0  0  0  0  0  0  0  0  0  0  0  0
   34.8951   22.9997   30.7638 H   0  0  0  0  0  0  0  0  0  0  0  0
   36.4951   26.6567   32.1331 H   0  0  0  0  0  0  0  0  0  0  0  0
  1  2  1  0
  2  7  1  0
  2  3  2  0
  3  4  1  0
  4  5  2  0
  6  5  1  0
  7  6  2  0
  8  1  1  0
  9  8  1  0
 10  9  2  0
 11 12  2  0
 11 10  1  0
 12 13  1  0
 13 14  2  0
 14  9  1  0
  1 15  1  0
  1 16  1  0
  3 17  1  0
  4 18  1  0
  6 19  1  0
  8 20  1  0
  8 21  1  0
 10 22  1  0
 11 23  1  0
 13 24  1  0
M  ISO  8  15   8  16   8  17  14  18  14  19  14  20   8  21   8  22  14
M  ISO  2  23  14  24  14
M  END
>  <minimizedAffinity>  (1) 
-3.8699069

>  <minimizedRMSD>  (1) 
6.81031656

$$$$
