
     RDKit          3D

 17 17  0  0  0  0  0  0  0  0999 V2000
   39.6980   22.7720   37.4300 C   0  0  0  0  0  0  0  0  0  0  0  0
   39.0800   23.3190   38.5750 C   0  0  0  0  0  0  0  0  0  0  0  0
   37.8990   24.0420   38.3830 C   0  0  0  0  0  0  0  0  0  0  0  0
   37.4290   24.1720   37.1240 N   0  0  0  0  0  0  0  0  0  0  0  0
   38.0430   23.6370   36.0550 C   0  0  0  0  0  0  0  0  0  0  0  0
   39.1730   22.9390   36.1970 N   0  0  0  0  0  0  0  0  0  0  0  0
   40.9500   21.9850   37.4870 C   0  0  0  0  0  0  0  0  0  0  0  0
   41.9930   22.7600   36.6980 C   0  0  0  0  0  0  0  0  0  0  0  0
   41.8580   22.3670   35.3470 O   0  0  0  0  0  0  0  0  0  0  0  0
   39.5103   23.1819   39.5780 H   0  0  0  0  0  0  0  0  0  0  0  0
   37.3674   24.4925   39.2341 H   0  0  0  0  0  0  0  0  0  0  0  0
   37.6107   23.7753   35.0530 H   0  0  0  0  0  0  0  0  0  0  0  0
   41.2757   21.8669   38.5310 H   0  0  0  0  0  0  0  0  0  0  0  0
   40.8034   20.9796   37.0656 H   0  0  0  0  0  0  0  0  0  0  0  0
   41.8167   23.8412   36.7973 H   0  0  0  0  0  0  0  0  0  0  0  0
   43.0064   22.5501   37.0708 H   0  0  0  0  0  0  0  0  0  0  0  0
   41.5366   21.4315   35.3060 H   0  0  0  0  0  0  0  0  0  0  0  0
  1  7  1  0
  1  2  2  0
  3  2  1  0
  4  3  2  0
  5  6  2  0
  5  4  1  0
  6  1  1  0
  8  7  1  0
  9  8  1  0
  2 10  1  0
  3 11  1  0
  5 12  1  0
  7 13  1  0
  7 14  1  0
  8 15  1  0
  8 16  1  0
  9 17  1  0
M  ISO  8  10  14  11  14  12  14  13   8  14   8  15   8  16   8  17   3
M  END
>  <minimizedAffinity>  (1) 
-2.95690298

>  <minimizedRMSD>  (1) 
0.195273325

$$$$
