
     RDKit          3D

 21 22  0  0  0  0  0  0  0  0999 V2000
   40.8370   21.9350   37.5750 C   0  0  0  0  0  0  0  0  0  0  0  0
   39.7390   22.9030   37.4830 C   0  0  0  0  0  0  0  0  0  0  0  0
   38.9260   23.2850   38.5530 C   0  0  0  0  0  0  0  0  0  0  0  0
   37.9130   24.2250   38.3070 C   0  0  0  0  0  0  0  0  0  0  0  0
   37.7740   24.7160   37.0400 N   0  0  0  0  0  0  0  0  0  0  0  0
   38.5780   24.3200   36.0380 C   0  0  0  0  0  0  0  0  0  0  0  0
   39.5520   23.4210   36.2580 N   0  0  0  0  0  0  0  0  0  0  0  0
   41.9850   22.4590   36.7140 C   0  0  0  0  0  0  0  0  0  0  0  0
   42.9950   21.3470   36.6230 C   0  0  0  0  0  0  0  0  0  0  0  0
   42.9260   20.1310   37.2080 N   0  0  0  0  0  0  0  0  0  0  0  0
   43.9650   19.4130   36.9230 O   0  0  0  0  0  0  0  0  0  0  0  0
   44.7080   20.1680   36.1500 C   0  0  0  0  0  0  0  0  0  0  0  0
   44.1530   21.3740   35.9340 N   0  0  0  0  0  0  0  0  0  0  0  0
   41.1655   21.8381   38.6203 H   0  0  0  0  0  0  0  0  0  0  0  0
   40.5107   20.9448   37.2244 H   0  0  0  0  0  0  0  0  0  0  0  0
   39.0751   22.8621   39.5574 H   0  0  0  0  0  0  0  0  0  0  0  0
   37.2464   24.5586   39.1160 H   0  0  0  0  0  0  0  0  0  0  0  0
   38.4372   24.7356   35.0293 H   0  0  0  0  0  0  0  0  0  0  0  0
   41.6180   22.7217   35.7108 H   0  0  0  0  0  0  0  0  0  0  0  0
   42.4295   23.3643   37.1530 H   0  0  0  0  0  0  0  0  0  0  0  0
   45.6731   19.8518   35.7273 H   0  0  0  0  0  0  0  0  0  0  0  0
  2  1  1  0
  2  3  2  0
  4  3  1  0
  5  4  2  0
  6  7  2  0
  6  5  1  0
  7  2  1  0
  8  1  1  0
  9  8  1  0
  9 10  2  0
 11 10  1  0
 12 11  1  0
 13 12  2  0
 13  9  1  0
  1 14  1  0
  1 15  1  0
  3 16  1  0
  4 17  1  0
  6 18  1  0
  8 19  1  0
  8 20  1  0
 12 21  1  0
M  ISO  8  14   8  15   8  16  14  17  14  18  14  19   8  20   8  21  14
M  END
>  <minimizedAffinity>  (1) 
-3.53704834

>  <minimizedRMSD>  (1) 
0.767619491

$$$$
