
     RDKit          3D

 23 24  0  0  0  0  0  0  0  0999 V2000
   41.3860   22.3600   37.1620 C   0  0  0  0  0  0  0  0  0  0  0  0
   39.9420   22.6480   37.2480 C   0  0  0  0  0  0  0  0  0  0  0  0
   39.3140   23.2420   38.3460 C   0  0  0  0  0  0  0  0  0  0  0  0
   37.9320   23.4410   38.2580 C   0  0  0  0  0  0  0  0  0  0  0  0
   37.2800   23.0560   37.1310 N   0  0  0  0  0  0  0  0  0  0  0  0
   37.9240   22.4890   36.0960 C   0  0  0  0  0  0  0  0  0  0  0  0
   39.2530   22.2810   36.1450 N   0  0  0  0  0  0  0  0  0  0  0  0
   42.0120   23.3120   36.1810 C   0  0  0  0  0  0  0  0  0  0  0  0
   43.4710   23.4080   36.2740 C   0  0  0  0  0  0  0  0  0  0  0  0
   44.1140   24.4400   36.9290 C   0  0  0  0  0  0  0  0  0  0  0  0
   45.4470   24.2480   36.8410 N   0  0  0  0  0  0  0  0  0  0  0  0
   45.6470   23.1140   36.1440 C   0  0  0  0  0  0  0  0  0  0  0  0
   44.4480   22.6110   35.8040 N   0  0  0  0  0  0  0  0  0  0  0  0
   41.8488   22.4911   38.1513 H   0  0  0  0  0  0  0  0  0  0  0  0
   41.5413   21.3234   36.8282 H   0  0  0  0  0  0  0  0  0  0  0  0
   39.8813   23.5400   39.2401 H   0  0  0  0  0  0  0  0  0  0  0  0
   37.3811   23.9031   39.0905 H   0  0  0  0  0  0  0  0  0  0  0  0
   37.3591   22.1920   35.2000 H   0  0  0  0  0  0  0  0  0  0  0  0
   41.5900   24.3126   36.3562 H   0  0  0  0  0  0  0  0  0  0  0  0
   41.7876   22.9201   35.1780 H   0  0  0  0  0  0  0  0  0  0  0  0
   43.6206   25.2806   37.4388 H   0  0  0  0  0  0  0  0  0  0  0  0
   46.6242   22.6744   35.8953 H   0  0  0  0  0  0  0  0  0  0  0  0
   44.2994   21.7460   35.2650 H   0  0  0  0  0  0  0  0  0  0  0  0
  1  2  1  0
  2  3  2  0
  4  3  1  0
  5  4  2  0
  6  7  2  0
  6  5  1  0
  7  2  1  0
  8  9  1  0
  8  1  1  0
  9 10  2  0
 11 10  1  0
 12 11  2  0
 13 12  1  0
 13  9  1  0
  1 14  1  0
  1 15  1  0
  3 16  1  0
  4 17  1  0
  6 18  1  0
  8 19  1  0
  8 20  1  0
 10 21  1  0
 12 22  1  0
 13 23  1  0
M  ISO  8  14   8  15   8  16  14  17  14  18  14  19   8  20   8  21  14
M  ISO  2  22  14  23   9
M  END
>  <minimizedAffinity>  (1) 
-3.58036733

>  <minimizedRMSD>  (1) 
2.08159399

$$$$
