
     RDKit          3D

 28 29  0  0  0  0  0  0  0  0999 V2000
   42.0850   23.0600   36.6320 C   0  0  0  0  0  0  0  0  0  0  0  0
   41.2230   21.9930   37.2760 C   0  0  0  0  0  0  0  0  0  0  0  0
   39.8400   22.4990   37.2700 C   0  0  0  0  0  0  0  0  0  0  0  0
   39.3150   23.2540   38.3300 C   0  0  0  0  0  0  0  0  0  0  0  0
   37.9850   23.6910   38.2310 C   0  0  0  0  0  0  0  0  0  0  0  0
   37.2870   23.3620   37.1230 N   0  0  0  0  0  0  0  0  0  0  0  0
   37.8240   22.6380   36.1310 C   0  0  0  0  0  0  0  0  0  0  0  0
   39.0840   22.2090   36.1950 N   0  0  0  0  0  0  0  0  0  0  0  0
   41.6310   23.4140   35.3160 N   0  0  0  0  0  0  0  0  0  0  0  0
   41.4570   24.7560   34.8700 C   0  0  0  0  0  0  0  0  0  0  0  0
   40.2530   25.4110   34.9750 C   0  0  0  0  0  0  0  0  0  0  0  0
   40.1040   26.7020   34.5420 C   0  0  0  0  0  0  0  0  0  0  0  0
   41.1400   27.4040   33.9810 C   0  0  0  0  0  0  0  0  0  0  0  0
   42.3780   26.7640   33.8600 C   0  0  0  0  0  0  0  0  0  0  0  0
   42.5300   25.4470   34.3030 C   0  0  0  0  0  0  0  0  0  0  0  0
   42.0655   23.9590   37.2655 H   0  0  0  0  0  0  0  0  0  0  0  0
   43.1030   22.6544   36.5364 H   0  0  0  0  0  0  0  0  0  0  0  0
   41.2860   21.0576   36.7006 H   0  0  0  0  0  0  0  0  0  0  0  0
   41.5600   21.7805   38.3013 H   0  0  0  0  0  0  0  0  0  0  0  0
   39.9271   23.4959   39.2114 H   0  0  0  0  0  0  0  0  0  0  0  0
   37.5240   24.2851   39.0338 H   0  0  0  0  0  0  0  0  0  0  0  0
   37.2140   22.3937   35.2488 H   0  0  0  0  0  0  0  0  0  0  0  0
   41.4187   22.6526   34.6556 H   0  0  0  0  0  0  0  0  0  0  0  0
   39.3916   24.8877   35.4157 H   0  0  0  0  0  0  0  0  0  0  0  0
   39.1240   27.1903   34.6474 H   0  0  0  0  0  0  0  0  0  0  0  0
   41.0016   28.4394   33.6365 H   0  0  0  0  0  0  0  0  0  0  0  0
   43.2318   27.2971   33.4163 H   0  0  0  0  0  0  0  0  0  0  0  0
   43.5059   24.9492   34.2039 H   0  0  0  0  0  0  0  0  0  0  0  0
  1  2  1  0
  3  2  1  0
  3  4  2  0
  5  4  1  0
  6  5  2  0
  7  8  2  0
  7  6  1  0
  8  3  1  0
  9  1  1  0
 10 11  2  0
 10  9  1  0
 12 11  1  0
 13 12  2  0
 14 13  1  0
 14 15  2  0
 15 10  1  0
  1 16  1  0
  1 17  1  0
  2 18  1  0
  2 19  1  0
  4 20  1  0
  5 21  1  0
  7 22  1  0
  9 23  1  0
 11 24  1  0
 12 25  1  0
 13 26  1  0
 14 27  1  0
 15 28  1  0
M  ISO  8  16   8  17   8  18   8  19   8  20  14  21  14  22  14  24  14
M  ISO  4  25  14  26  14  27  14  28  14
M  END
>  <minimizedAffinity>  (1) 
-3.99189973

>  <minimizedRMSD>  (1) 
2.54554319

$$$$
