
     RDKit          3D

 30 31  0  0  1  0  0  0  0  0999 V2000
   40.9140   21.8840   37.1120 C   0  0  0  0  0  0  0  0  0  0  0  0
   39.7200   22.7440   37.2210 C   0  0  0  0  0  0  0  0  0  0  0  0
   39.2070   23.2180   38.4390 C   0  0  0  0  0  0  0  0  0  0  0  0
   38.0750   24.0200   38.3970 C   0  0  0  0  0  0  0  0  0  0  0  0
   37.5130   24.3160   37.2040 N   0  0  0  0  0  0  0  0  0  0  0  0
   38.0290   23.8450   36.0500 C   0  0  0  0  0  0  0  0  0  0  0  0
   39.1200   23.0680   36.0550 N   0  0  0  0  0  0  0  0  0  0  0  0
   42.1110   22.8230   36.9970 C   0  0  0  0  0  0  0  0  0  0  0  0
   42.0050   23.6860   35.8660 N   0  0  0  0  0  0  0  0  0  0  0  0
   43.1790   25.7560   35.4210 N   0  0  0  0  0  0  0  0  0  0  0  0
   44.6160   26.0680   35.3360 C   0  0  0  0  0  0  0  0  0  0  0  0
   45.1240   25.4400   36.6390 C   0  0  0  0  0  0  0  0  0  0  0  0
   44.1100   24.3500   36.9770 C   0  0  0  0  0  0  0  0  0  0  0  0
   43.2580   24.3640   35.7380 C   0  0  1  0  0  0  0  0  0  0  0  0
   41.0107   21.2519   38.0070 H   0  0  0  0  0  0  0  0  0  0  0  0
   40.8461   21.2153   36.2412 H   0  0  0  0  0  0  0  0  0  0  0  0
   39.6866   22.9621   39.3953 H   0  0  0  0  0  0  0  0  0  0  0  0
   37.6386   24.4117   39.3276 H   0  0  0  0  0  0  0  0  0  0  0  0
   37.5485   24.1019   35.0944 H   0  0  0  0  0  0  0  0  0  0  0  0
   42.1701   23.4367   37.9080 H   0  0  0  0  0  0  0  0  0  0  0  0
   43.0149   22.2085   36.8727 H   0  0  0  0  0  0  0  0  0  0  0  0
   41.8128   23.1349   35.0174 H   0  0  0  0  0  0  0  0  0  0  0  0
   42.6967   25.9194   34.5257 H   0  0  0  0  0  0  0  0  0  0  0  0
   45.0800   25.6019   34.4542 H   0  0  0  0  0  0  0  0  0  0  0  0
   44.8439   27.1386   35.2274 H   0  0  0  0  0  0  0  0  0  0  0  0
   46.1241   25.0055   36.4940 H   0  0  0  0  0  0  0  0  0  0  0  0
   45.2157   26.1821   37.4458 H   0  0  0  0  0  0  0  0  0  0  0  0
   44.5974   23.3746   37.1222 H   0  0  0  0  0  0  0  0  0  0  0  0
   43.5562   24.5174   37.9126 H   0  0  0  0  0  0  0  0  0  0  0  0
   43.6926   23.7797   34.9136 H   0  0  0  0  0  0  0  0  0  0  0  0
  1  2  1  0
  2  3  2  0
  4  3  1  0
  5  4  2  0
  6  7  2  0
  6  5  1  0
  7  2  1  0
  8  1  1  0
  9  8  1  0
 10 14  1  0
 11 10  1  0
 11 12  1  0
 12 13  1  0
 14  9  1  0
 14 13  1  0
  1 15  1  0
  1 16  1  0
  3 17  1  0
  4 18  1  0
  6 19  1  0
  8 20  1  0
  8 21  1  0
  9 22  1  0
 10 23  1  0
 11 24  1  0
 11 25  1  0
 12 26  1  0
 12 27  1  0
 13 28  1  0
 13 29  1  0
 14 30  1  6
M  ISO  8  15   8  16   8  17  14  18  14  19  14  20   8  21   8  22   5
M  ISO  8  23   5  24  13  25  13  26  13  27  13  28  13  29  13  30  13
M  END
>  <minimizedAffinity>  (1) 
-3.85710573

>  <minimizedRMSD>  (1) 
1.49697709

$$$$
