
     RDKit          3D

 25 26  0  0  0  0  0  0  0  0999 V2000
   41.2280   21.9850   37.1500 C   0  0  0  0  0  0  0  0  0  0  0  0
   39.8510   22.4900   37.2190 C   0  0  0  0  0  0  0  0  0  0  0  0
   39.3330   23.2080   38.3070 C   0  0  0  0  0  0  0  0  0  0  0  0
   38.0170   23.6470   38.2820 C   0  0  0  0  0  0  0  0  0  0  0  0
   37.2750   23.3500   37.1750 N   0  0  0  0  0  0  0  0  0  0  0  0
   37.8020   22.6570   36.1460 C   0  0  0  0  0  0  0  0  0  0  0  0
   39.0550   22.2310   36.1530 N   0  0  0  0  0  0  0  0  0  0  0  0
   42.0660   23.1340   36.5660 C   0  0  0  0  0  0  0  0  0  0  0  0
   41.5260   23.6090   35.3340 N   0  0  0  0  0  0  0  0  0  0  0  0
   41.1680   24.9320   34.9960 C   0  0  0  0  0  0  0  0  0  0  0  0
   41.9200   25.9680   34.4590 C   0  0  0  0  0  0  0  0  0  0  0  0
   41.1060   27.0100   34.3320 N   0  0  0  0  0  0  0  0  0  0  0  0
   39.8850   26.6630   34.7650 C   0  0  0  0  0  0  0  0  0  0  0  0
   39.9040   25.3850   35.1790 N   0  0  0  0  0  0  0  0  0  0  0  0
   41.5894   21.7192   38.1544 H   0  0  0  0  0  0  0  0  0  0  0  0
   41.2965   21.0783   36.5309 H   0  0  0  0  0  0  0  0  0  0  0  0
   39.9690   23.4226   39.1785 H   0  0  0  0  0  0  0  0  0  0  0  0
   37.5878   24.2128   39.1221 H   0  0  0  0  0  0  0  0  0  0  0  0
   37.1703   22.4385   35.2724 H   0  0  0  0  0  0  0  0  0  0  0  0
   42.0870   23.9628   37.2889 H   0  0  0  0  0  0  0  0  0  0  0  0
   43.0798   22.7540   36.3716 H   0  0  0  0  0  0  0  0  0  0  0  0
   41.3794   22.8999   34.6015 H   0  0  0  0  0  0  0  0  0  0  0  0
   42.9860   25.9328   34.1901 H   0  0  0  0  0  0  0  0  0  0  0  0
   39.0047   27.3224   34.7790 H   0  0  0  0  0  0  0  0  0  0  0  0
   39.1102   24.8519   35.5620 H   0  0  0  0  0  0  0  0  0  0  0  0
  1  2  1  0
  2  3  2  0
  4  3  1  0
  5  4  2  0
  6  7  2  0
  6  5  1  0
  7  2  1  0
  8  1  1  0
  9  8  1  0
 10 14  1  0
 10  9  1  0
 11 10  2  0
 12 11  1  0
 12 13  2  0
 13 14  1  0
  1 15  1  0
  1 16  1  0
  3 17  1  0
  4 18  1  0
  6 19  1  0
  8 20  1  0
  8 21  1  0
  9 22  1  0
 11 23  1  0
 13 24  1  0
 14 25  1  0
M  ISO  8  15   8  16   8  17  14  18  14  19  14  20   8  21   8  23  14
M  ISO  2  24  14  25   9
M  END
>  <minimizedAffinity>  (1) 
-3.66415381

>  <minimizedRMSD>  (1) 
2.57585406

$$$$
