
     RDKit          3D

 21 21  0  0  0  0  0  0  0  0999 V2000
   40.9630   21.9640   37.4630 C   0  0  0  0  0  0  0  0  0  0  0  0
   39.7230   22.7450   37.3930 C   0  0  0  0  0  0  0  0  0  0  0  0
   39.1340   23.3050   38.5360 C   0  0  0  0  0  0  0  0  0  0  0  0
   37.9460   24.0400   38.3900 C   0  0  0  0  0  0  0  0  0  0  0  0
   37.4260   24.1690   37.1300 N   0  0  0  0  0  0  0  0  0  0  0  0
   38.0290   23.6110   36.0590 C   0  0  0  0  0  0  0  0  0  0  0  0
   39.1500   22.9150   36.1860 N   0  0  0  0  0  0  0  0  0  0  0  0
   42.0270   22.7940   36.7360 C   0  0  0  0  0  0  0  0  0  0  0  0
   42.0800   22.4590   35.3360 N   0  0  0  0  0  0  0  0  0  0  0  0
   42.3730   23.6390   34.5560 C   0  0  0  0  0  0  0  0  0  0  0  0
   41.2545   21.8029   38.5114 H   0  0  0  0  0  0  0  0  0  0  0  0
   40.8412   20.9726   37.0022 H   0  0  0  0  0  0  0  0  0  0  0  0
   39.5931   23.1713   39.5267 H   0  0  0  0  0  0  0  0  0  0  0  0
   37.4499   24.4968   39.2590 H   0  0  0  0  0  0  0  0  0  0  0  0
   37.5817   23.7362   35.0619 H   0  0  0  0  0  0  0  0  0  0  0  0
   41.7832   23.8615   36.8408 H   0  0  0  0  0  0  0  0  0  0  0  0
   43.0072   22.5750   37.1846 H   0  0  0  0  0  0  0  0  0  0  0  0
   42.8169   21.7562   35.1812 H   0  0  0  0  0  0  0  0  0  0  0  0
   42.5823   24.4820   35.2309 H   0  0  0  0  0  0  0  0  0  0  0  0
   43.2516   23.4503   33.9216 H   0  0  0  0  0  0  0  0  0  0  0  0
   41.5082   23.8832   33.9216 H   0  0  0  0  0  0  0  0  0  0  0  0
  2  1  1  0
  2  3  2  0
  4  3  1  0
  5  4  2  0
  6  7  2  0
  6  5  1  0
  7  2  1  0
  8  1  1  0
  9  8  1  0
 10  9  1  0
  1 11  1  0
  1 12  1  0
  3 13  1  0
  4 14  1  0
  6 15  1  0
  8 16  1  0
  8 17  1  0
  9 18  1  0
 10 19  1  0
 10 20  1  0
 10 21  1  0
M  ISO  8  11   8  12   8  13  14  14  14  15  14  16   8  17   8  18   5
M  ISO  3  19   8  20   8  21   8
M  END
>  <minimizedAffinity>  (1) 
-2.9040606

>  <minimizedRMSD>  (1) 
0.261812717

$$$$
