
     RDKit          3D

 22 22  0  0  0  0  0  0  0  0999 V2000
   40.9450   21.9540   37.5630 C   0  0  0  0  0  0  0  0  0  0  0  0
   39.7180   22.7690   37.4560 C   0  0  0  0  0  0  0  0  0  0  0  0
   39.0780   23.3180   38.5780 C   0  0  0  0  0  0  0  0  0  0  0  0
   37.9150   24.0800   38.3770 C   0  0  0  0  0  0  0  0  0  0  0  0
   37.4810   24.2390   37.0930 N   0  0  0  0  0  0  0  0  0  0  0  0
   38.1170   23.7020   36.0480 C   0  0  0  0  0  0  0  0  0  0  0  0
   39.2160   22.9790   36.2210 N   0  0  0  0  0  0  0  0  0  0  0  0
   41.8740   22.4300   36.4650 C   0  0  0  0  0  0  0  0  0  0  0  0
   41.8950   21.5860   35.3180 N   0  0  0  0  0  0  0  0  0  0  0  0
   42.8720   20.5730   35.1210 C   0  0  0  0  0  0  0  0  0  0  0  0
   43.8960   20.3530   36.0860 N   0  0  0  0  0  0  0  0  0  0  0  0
   42.8960   19.8250   34.1100 O   0  0  0  0  0  0  0  0  0  0  0  0
   41.4137   22.1001   38.5474 H   0  0  0  0  0  0  0  0  0  0  0  0
   40.7212   20.8821   37.4582 H   0  0  0  0  0  0  0  0  0  0  0  0
   39.4773   23.1556   39.5900 H   0  0  0  0  0  0  0  0  0  0  0  0
   37.3748   24.5313   39.2223 H   0  0  0  0  0  0  0  0  0  0  0  0
   37.7251   23.8611   35.0326 H   0  0  0  0  0  0  0  0  0  0  0  0
   41.5519   23.4336   36.1502 H   0  0  0  0  0  0  0  0  0  0  0  0
   42.8912   22.4237   36.8836 H   0  0  0  0  0  0  0  0  0  0  0  0
   41.1692   21.7157   34.5987 H   0  0  0  0  0  0  0  0  0  0  0  0
   44.5987   19.6158   35.9323 H   0  0  0  0  0  0  0  0  0  0  0  0
   43.9339   20.9311   36.9376 H   0  0  0  0  0  0  0  0  0  0  0  0
  2  1  1  0
  2  3  2  0
  4  3  1  0
  5  4  2  0
  6  7  2  0
  6  5  1  0
  7  2  1  0
  8  1  1  0
  9  8  1  0
 10  9  1  0
 10 11  1  0
 12 10  2  0
  1 13  1  0
  1 14  1  0
  3 15  1  0
  4 16  1  0
  6 17  1  0
  8 18  1  0
  8 19  1  0
  9 20  1  0
 11 21  1  0
 11 22  1  0
M  ISO  7  13   8  14   8  15  14  16  14  17  14  18   8  19   8
M  END
>  <minimizedAffinity>  (1) 
-3.10536981

>  <minimizedRMSD>  (1) 
0.699939549

$$$$
