
     RDKit          3D

 35 36  0  0  0  0  0  0  0  0999 V2000
   41.9290   22.4860   36.9770 C   0  0  0  0  0  0  0  0  0  0  0  0
   40.5330   21.8760   36.7220 C   0  0  0  0  0  0  0  0  0  0  0  0
   39.5880   22.9840   36.9710 C   0  0  0  0  0  0  0  0  0  0  0  0
   38.9770   23.1430   38.2250 C   0  0  0  0  0  0  0  0  0  0  0  0
   38.1020   24.2180   38.3740 C   0  0  0  0  0  0  0  0  0  0  0  0
   37.8860   25.0530   37.2990 N   0  0  0  0  0  0  0  0  0  0  0  0
   38.4960   24.8590   36.1210 C   0  0  0  0  0  0  0  0  0  0  0  0
   39.3200   23.8490   35.9790 N   0  0  0  0  0  0  0  0  0  0  0  0
   42.2320   23.4840   35.9710 N   0  0  0  0  0  0  0  0  0  0  0  0
   43.2880   24.4420   35.9740 C   0  0  0  0  0  0  0  0  0  0  0  0
   43.2760   25.2360   34.8620 C   0  0  0  0  0  0  0  0  0  0  0  0
   44.2020   26.2100   34.6390 C   0  0  0  0  0  0  0  0  0  0  0  0
   45.2040   26.4250   35.5580 N   0  0  0  0  0  0  0  0  0  0  0  0
   45.2110   25.6360   36.6610 C   0  0  0  0  0  0  0  0  0  0  0  0
   44.2830   24.6660   36.8750 N   0  0  0  0  0  0  0  0  0  0  0  0
   46.2070   25.7130   37.7650 C   0  0  0  0  0  0  0  0  0  0  0  0
   45.5620   25.7350   39.1270 C   0  0  0  0  0  0  0  0  0  0  0  0
   47.0710   24.4530   37.6800 C   0  0  0  0  0  0  0  0  0  0  0  0
   41.9435   22.9566   37.9712 H   0  0  0  0  0  0  0  0  0  0  0  0
   42.6835   21.6871   36.9278 H   0  0  0  0  0  0  0  0  0  0  0  0
   40.3425   21.0412   37.4125 H   0  0  0  0  0  0  0  0  0  0  0  0
   40.4368   21.4677   35.7051 H   0  0  0  0  0  0  0  0  0  0  0  0
   39.1800   22.4493   39.0542 H   0  0  0  0  0  0  0  0  0  0  0  0
   37.5930   24.3966   39.3326 H   0  0  0  0  0  0  0  0  0  0  0  0
   38.3066   25.5421   35.2798 H   0  0  0  0  0  0  0  0  0  0  0  0
   41.6071   23.5038   35.1524 H   0  0  0  0  0  0  0  0  0  0  0  0
   42.4841   25.0820   34.1142 H   0  0  0  0  0  0  0  0  0  0  0  0
   44.1491   26.8229   33.7271 H   0  0  0  0  0  0  0  0  0  0  0  0
   46.7824   26.6434   37.6497 H   0  0  0  0  0  0  0  0  0  0  0  0
   46.3417   25.7084   39.9024 H   0  0  0  0  0  0  0  0  0  0  0  0
   44.9674   26.6539   39.2363 H   0  0  0  0  0  0  0  0  0  0  0  0
   44.9061   24.8587   39.2363 H   0  0  0  0  0  0  0  0  0  0  0  0
   47.3106   24.1036   38.6951 H   0  0  0  0  0  0  0  0  0  0  0  0
   46.5210   23.6669   37.1419 H   0  0  0  0  0  0  0  0  0  0  0  0
   48.0025   24.6827   37.1419 H   0  0  0  0  0  0  0  0  0  0  0  0
  2  3  1  0
  2  1  1  0
  3  4  2  0
  4  5  1  0
  6  5  2  0
  7  6  1  0
  8  7  2  0
  8  3  1  0
  9 10  1  0
  9  1  1  0
 10 15  1  0
 11 10  2  0
 12 11  1  0
 12 13  2  0
 13 14  1  0
 14 15  2  0
 14 16  1  0
 16 17  1  0
 18 16  1  0
  1 19  1  0
  1 20  1  0
  2 21  1  0
  2 22  1  0
  4 23  1  0
  5 24  1  0
  7 25  1  0
  9 26  1  0
 11 27  1  0
 12 28  1  0
 16 29  1  0
 17 30  1  0
 17 31  1  0
 17 32  1  0
 18 33  1  0
 18 34  1  0
 18 35  1  0
M  ISO  8  19   8  20   8  21   8  22   8  23  14  24  14  25  14  27  14
M  ISO  8  28  14  29   8  30   8  31   8  32   8  33   8  34   8  35   8
M  END
>  <minimizedAffinity>  (1) 
-4.56375837

>  <minimizedRMSD>  (1) 
1.17292762

$$$$
