
     RDKit          3D

 36 38  0  0  0  0  0  0  0  0999 V2000
   42.0800   23.6400   36.0180 N   0  0  0  0  0  0  0  0  0  0  0  0
   43.1960   24.5110   35.8220 C   0  0  0  0  0  0  0  0  0  0  0  0
   42.9250   25.4710   34.8880 C   0  0  0  0  0  0  0  0  0  0  0  0
   43.8740   26.4180   34.5240 C   0  0  0  0  0  0  0  0  0  0  0  0
   45.0980   26.3910   35.1060 N   0  0  0  0  0  0  0  0  0  0  0  0
   45.3660   25.4360   36.0350 C   0  0  0  0  0  0  0  0  0  0  0  0
   44.4440   24.5070   36.3960 N   0  0  0  0  0  0  0  0  0  0  0  0
   46.6650   25.3710   36.6850 C   0  0  0  0  0  0  0  0  0  0  0  0
   47.7470   26.0960   36.2370 C   0  0  0  0  0  0  0  0  0  0  0  0
   48.9240   25.9560   36.9290 C   0  0  0  0  0  0  0  0  0  0  0  0
   48.9970   25.1180   38.0220 C   0  0  0  0  0  0  0  0  0  0  0  0
   47.9160   24.3870   38.4760 C   0  0  0  0  0  0  0  0  0  0  0  0
   46.7430   24.5480   37.7610 C   0  0  0  0  0  0  0  0  0  0  0  0
   41.9360   22.5680   36.9850 C   0  0  0  0  0  0  0  0  0  0  0  0
   40.6060   21.8250   36.7620 C   0  0  0  0  0  0  0  0  0  0  0  0
   39.5650   22.8650   36.9300 C   0  0  0  0  0  0  0  0  0  0  0  0
   39.0410   23.1640   38.1970 C   0  0  0  0  0  0  0  0  0  0  0  0
   38.0730   24.1560   38.2760 C   0  0  0  0  0  0  0  0  0  0  0  0
   37.6810   24.7870   37.1270 N   0  0  0  0  0  0  0  0  0  0  0  0
   38.2150   24.4660   35.9180 C   0  0  0  0  0  0  0  0  0  0  0  0
   39.1300   23.5280   35.8450 N   0  0  0  0  0  0  0  0  0  0  0  0
   41.2755   23.7928   35.3932 H   0  0  0  0  0  0  0  0  0  0  0  0
   41.9328   25.4944   34.4136 H   0  0  0  0  0  0  0  0  0  0  0  0
   43.6344   27.1827   33.7705 H   0  0  0  0  0  0  0  0  0  0  0  0
   47.6711   26.7587   35.3623 H   0  0  0  0  0  0  0  0  0  0  0  0
   49.8153   26.5160   36.6097 H   0  0  0  0  0  0  0  0  0  0  0  0
   49.9554   25.0279   38.5543 H   0  0  0  0  0  0  0  0  0  0  0  0
   47.9838   23.7208   39.3487 H   0  0  0  0  0  0  0  0  0  0  0  0
   45.8467   23.9923   38.0739 H   0  0  0  0  0  0  0  0  0  0  0  0
   42.7708   21.8609   36.8704 H   0  0  0  0  0  0  0  0  0  0  0  0
   41.9423   22.9958   37.9984 H   0  0  0  0  0  0  0  0  0  0  0  0
   40.4789   21.0245   37.5056 H   0  0  0  0  0  0  0  0  0  0  0  0
   40.5581   21.3421   35.7748 H   0  0  0  0  0  0  0  0  0  0  0  0
   39.3851   22.6312   39.0958 H   0  0  0  0  0  0  0  0  0  0  0  0
   37.6293   24.4297   39.2446 H   0  0  0  0  0  0  0  0  0  0  0  0
   37.8827   24.9883   35.0088 H   0  0  0  0  0  0  0  0  0  0  0  0
  1 14  1  0
  2  1  1  0
  2  7  1  0
  3  2  2  0
  4  3  1  0
  4  5  2  0
  5  6  1  0
  6  7  2  0
  6  8  1  0
  8 13  1  0
  9  8  2  0
  9 10  1  0
 10 11  2  0
 11 12  1  0
 13 12  2  0
 15 16  1  0
 15 14  1  0
 16 17  2  0
 17 18  1  0
 19 18  2  0
 20 19  1  0
 21 20  2  0
 21 16  1  0
  1 22  1  0
  3 23  1  0
  4 24  1  0
  9 25  1  0
 10 26  1  0
 11 27  1  0
 12 28  1  0
 13 29  1  0
 14 30  1  0
 14 31  1  0
 15 32  1  0
 15 33  1  0
 17 34  1  0
 18 35  1  0
 20 36  1  0
M  ISO  8  23  14  24  14  25  14  26  14  27  14  28  14  29  14  30   8
M  ISO  6  31   8  32   8  33   8  34  14  35  14  36  14
M  END
>  <minimizedAffinity>  (1) 
-4.61590528

>  <minimizedRMSD>  (1) 
1.03831339

$$$$
