
     RDKit          3D

 38 40  0  0  0  0  0  0  0  0999 V2000
   42.0380   23.5620   35.9220 N   0  0  0  0  0  0  0  0  0  0  0  0
   43.0880   24.5240   35.8220 C   0  0  0  0  0  0  0  0  0  0  0  0
   42.9210   25.3040   34.6880 C   0  0  0  0  0  0  0  0  0  0  0  0
   43.8280   26.3100   34.3600 C   0  0  0  0  0  0  0  0  0  0  0  0
   44.9030   26.5360   35.1720 N   0  0  0  0  0  0  0  0  0  0  0  0
   45.0450   25.7610   36.2760 C   0  0  0  0  0  0  0  0  0  0  0  0
   44.1890   24.7740   36.6290 N   0  0  0  0  0  0  0  0  0  0  0  0
   46.1430   25.9510   37.1570 N   0  0  0  0  0  0  0  0  0  0  0  0
   46.0280   25.9870   38.6040 C   0  0  0  0  0  0  0  0  0  0  0  0
   46.7530   24.7530   39.0950 C   0  0  0  0  0  0  0  0  0  0  0  0
   48.0520   24.5670   38.5840 N   0  0  0  0  0  0  0  0  0  0  0  0
   48.5090   25.3610   37.5110 C   0  0  0  0  0  0  0  0  0  0  0  0
   47.4960   26.1330   36.7450 C   0  0  0  0  0  0  0  0  0  0  0  0
   41.8940   22.5110   36.9090 C   0  0  0  0  0  0  0  0  0  0  0  0
   40.5440   21.7920   36.7450 C   0  0  0  0  0  0  0  0  0  0  0  0
   39.5280   22.8480   36.9310 C   0  0  0  0  0  0  0  0  0  0  0  0
   39.0280   23.1670   38.2000 C   0  0  0  0  0  0  0  0  0  0  0  0
   38.0820   24.1750   38.2980 C   0  0  0  0  0  0  0  0  0  0  0  0
   37.6810   24.8090   37.1580 N   0  0  0  0  0  0  0  0  0  0  0  0
   38.1830   24.4770   35.9550 C   0  0  0  0  0  0  0  0  0  0  0  0
   39.0800   23.5230   35.8580 N   0  0  0  0  0  0  0  0  0  0  0  0
   41.2965   23.6220   35.2096 H   0  0  0  0  0  0  0  0  0  0  0  0
   42.0549   25.1252   34.0338 H   0  0  0  0  0  0  0  0  0  0  0  0
   43.6795   26.9170   33.4547 H   0  0  0  0  0  0  0  0  0  0  0  0
   46.5000   26.8960   39.0052 H   0  0  0  0  0  0  0  0  0  0  0  0
   44.9778   26.0019   38.9309 H   0  0  0  0  0  0  0  0  0  0  0  0
   46.8263   24.8170   40.1907 H   0  0  0  0  0  0  0  0  0  0  0  0
   46.1635   23.8956   38.7381 H   0  0  0  0  0  0  0  0  0  0  0  0
   48.6687   23.8510   38.9937 H   0  0  0  0  0  0  0  0  0  0  0  0
   49.5768   25.4070   37.2507 H   0  0  0  0  0  0  0  0  0  0  0  0
   47.7717   26.8005   35.9153 H   0  0  0  0  0  0  0  0  0  0  0  0
   42.7086   21.7828   36.7824 H   0  0  0  0  0  0  0  0  0  0  0  0
   41.9358   22.9601   37.9123 H   0  0  0  0  0  0  0  0  0  0  0  0
   40.4613   21.3472   35.7423 H   0  0  0  0  0  0  0  0  0  0  0  0
   40.4226   20.9683   37.4639 H   0  0  0  0  0  0  0  0  0  0  0  0
   39.3771   22.6315   39.0952 H   0  0  0  0  0  0  0  0  0  0  0  0
   37.6629   24.4583   39.2748 H   0  0  0  0  0  0  0  0  0  0  0  0
   37.8420   25.0049   35.0522 H   0  0  0  0  0  0  0  0  0  0  0  0
  1 14  1  0
  2  1  1  0
  2  7  1  0
  3  2  2  0
  4  3  1  0
  4  5  2  0
  5  6  1  0
  6  7  2  0
  6  8  1  0
  8  9  1  0
  9 10  1  0
 11 10  1  0
 12 11  1  0
 13  8  1  0
 13 12  2  0
 15 14  1  0
 15 16  1  0
 16 17  2  0
 17 18  1  0
 19 18  2  0
 20 19  1  0
 21 20  2  0
 21 16  1  0
  1 22  1  0
  3 23  1  0
  4 24  1  0
  9 25  1  0
  9 26  1  0
 10 27  1  0
 10 28  1  0
 11 29  1  0
 12 30  1  0
 13 31  1  0
 14 32  1  0
 14 33  1  0
 15 34  1  0
 15 35  1  0
 17 36  1  0
 18 37  1  0
 20 38  1  0
M  ISO  8  23  14  24  14  25  13  26  13  27  13  28  13  30  13  31  13
M  ISO  7  32   8  33   8  34   8  35   8  36  14  37  14  38  14
M  END
>  <minimizedAffinity>  (1) 
-4.69697762

>  <minimizedRMSD>  (1) 
1.12367249

$$$$
