
     RDKit          3D

 39 41  0  0  0  0  0  0  0  0999 V2000
   41.9370   23.6990   35.8650 N   0  0  0  0  0  0  0  0  0  0  0  0
   42.8700   24.6980   35.4560 C   0  0  0  0  0  0  0  0  0  0  0  0
   42.2780   25.6260   34.6430 C   0  0  0  0  0  0  0  0  0  0  0  0
   43.0170   26.6770   34.1040 C   0  0  0  0  0  0  0  0  0  0  0  0
   44.3470   26.7980   34.3850 N   0  0  0  0  0  0  0  0  0  0  0  0
   44.9140   25.8650   35.1970 C   0  0  0  0  0  0  0  0  0  0  0  0
   44.2190   24.8290   35.7340 N   0  0  0  0  0  0  0  0  0  0  0  0
   46.2870   25.8850   35.5610 N   0  0  0  0  0  0  0  0  0  0  0  0
   47.2640   26.8700   35.1380 C   0  0  0  0  0  0  0  0  0  0  0  0
   48.3930   26.8680   36.1700 C   0  0  0  0  0  0  0  0  0  0  0  0
   47.9150   26.7400   37.4510 O   0  0  0  0  0  0  0  0  0  0  0  0
   47.2480   25.5690   37.7050 C   0  0  0  0  0  0  0  0  0  0  0  0
   46.7980   24.8420   36.4360 C   0  0  0  0  0  0  0  0  0  0  0  0
   42.0410   22.7780   36.9810 C   0  0  0  0  0  0  0  0  0  0  0  0
   40.8170   21.8400   37.0030 C   0  0  0  0  0  0  0  0  0  0  0  0
   39.6560   22.7540   37.1120 C   0  0  0  0  0  0  0  0  0  0  0  0
   39.1900   23.1910   38.3610 C   0  0  0  0  0  0  0  0  0  0  0  0
   38.1030   24.0570   38.3790 C   0  0  0  0  0  0  0  0  0  0  0  0
   37.5460   24.4360   37.1910 N   0  0  0  0  0  0  0  0  0  0  0  0
   38.0290   23.9890   36.0000 C   0  0  0  0  0  0  0  0  0  0  0  0
   39.0560   23.1710   35.9830 N   0  0  0  0  0  0  0  0  0  0  0  0
   41.0818   23.6220   35.2962 H   0  0  0  0  0  0  0  0  0  0  0  0
   41.2058   25.5412   34.4123 H   0  0  0  0  0  0  0  0  0  0  0  0
   42.5264   27.4123   33.4493 H   0  0  0  0  0  0  0  0  0  0  0  0
   47.6604   26.6046   34.1468 H   0  0  0  0  0  0  0  0  0  0  0  0
   46.8045   27.8669   35.0674 H   0  0  0  0  0  0  0  0  0  0  0  0
   49.0685   26.0265   35.9566 H   0  0  0  0  0  0  0  0  0  0  0  0
   48.9227   27.8294   36.0980 H   0  0  0  0  0  0  0  0  0  0  0  0
   47.9154   24.9027   38.2712 H   0  0  0  0  0  0  0  0  0  0  0  0
   46.3414   25.8266   38.2721 H   0  0  0  0  0  0  0  0  0  0  0  0
   46.0084   24.1124   36.6687 H   0  0  0  0  0  0  0  0  0  0  0  0
   47.6209   24.2803   35.9698 H   0  0  0  0  0  0  0  0  0  0  0  0
   42.9576   22.1791   36.8755 H   0  0  0  0  0  0  0  0  0  0  0  0
   42.0763   23.3495   37.9202 H   0  0  0  0  0  0  0  0  0  0  0  0
   40.7622   21.2494   36.0766 H   0  0  0  0  0  0  0  0  0  0  0  0
   40.8590   21.1143   37.8286 H   0  0  0  0  0  0  0  0  0  0  0  0
   39.6686   22.8596   39.2943 H   0  0  0  0  0  0  0  0  0  0  0  0
   37.6991   24.4299   39.3318 H   0  0  0  0  0  0  0  0  0  0  0  0
   37.5621   24.3109   35.0575 H   0  0  0  0  0  0  0  0  0  0  0  0
  1 14  1  0
  2  7  1  0
  2  1  1  0
  3  2  2  0
  4  5  2  0
  4  3  1  0
  5  6  1  0
  6  8  1  0
  6  7  2  0
  8 13  1  0
  9  8  1  0
  9 10  1  0
 10 11  1  0
 11 12  1  0
 13 12  1  0
 14 15  1  0
 15 16  1  0
 16 17  2  0
 17 18  1  0
 19 18  2  0
 20 19  1  0
 21 20  2  0
 21 16  1  0
  1 22  1  0
  3 23  1  0
  4 24  1  0
  9 25  1  0
  9 26  1  0
 10 27  1  0
 10 28  1  0
 12 29  1  0
 12 30  1  0
 13 31  1  0
 13 32  1  0
 14 33  1  0
 14 34  1  0
 15 35  1  0
 15 36  1  0
 17 37  1  0
 18 38  1  0
 20 39  1  0
M  ISO  8  23  14  24  14  25  13  26  13  27  13  28  13  29  13  30  13
M  ISO  8  31  13  32  13  33   8  34   8  35   8  36   8  37  14  38  14
M  ISO  1  39  14
M  END
>  <minimizedAffinity>  (1) 
-4.4928298

>  <minimizedRMSD>  (1) 
0.469683141

$$$$
