
     RDKit          3D

 35 37  0  0  0  0  0  0  0  0999 V2000
   41.9730   23.6650   35.8600 N   0  0  0  0  0  0  0  0  0  0  0  0
   42.8730   24.7040   35.4820 C   0  0  0  0  0  0  0  0  0  0  0  0
   42.3410   25.5010   34.5050 C   0  0  0  0  0  0  0  0  0  0  0  0
   43.0300   26.5660   33.9610 C   0  0  0  0  0  0  0  0  0  0  0  0
   44.3040   26.8490   34.4090 N   0  0  0  0  0  0  0  0  0  0  0  0
   44.8080   26.0470   35.3790 C   0  0  0  0  0  0  0  0  0  0  0  0
   44.1520   24.9960   35.9280 N   0  0  0  0  0  0  0  0  0  0  0  0
   46.1460   26.2950   35.8960 C   0  0  0  0  0  0  0  0  0  0  0  0
   46.6070   25.7960   37.0940 C   0  0  0  0  0  0  0  0  0  0  0  0
   47.8920   26.0880   37.4970 C   0  0  0  0  0  0  0  0  0  0  0  0
   48.6890   26.8680   36.7020 C   0  0  0  0  0  0  0  0  0  0  0  0
   48.2110   27.3680   35.4880 C   0  0  0  0  0  0  0  0  0  0  0  0
   46.9500   27.0580   35.1340 N   0  0  0  0  0  0  0  0  0  0  0  0
   42.0680   22.7620   36.9900 C   0  0  0  0  0  0  0  0  0  0  0  0
   40.8470   21.8250   37.0290 C   0  0  0  0  0  0  0  0  0  0  0  0
   39.6790   22.7370   37.0880 C   0  0  0  0  0  0  0  0  0  0  0  0
   39.1860   23.2180   38.3110 C   0  0  0  0  0  0  0  0  0  0  0  0
   38.0930   24.0700   38.2670 C   0  0  0  0  0  0  0  0  0  0  0  0
   37.5530   24.4010   37.0620 N   0  0  0  0  0  0  0  0  0  0  0  0
   38.0580   23.9160   35.9110 C   0  0  0  0  0  0  0  0  0  0  0  0
   39.0930   23.1080   35.9370 N   0  0  0  0  0  0  0  0  0  0  0  0
   41.1504   23.5400   35.2528 H   0  0  0  0  0  0  0  0  0  0  0  0
   41.3263   25.2847   34.1396 H   0  0  0  0  0  0  0  0  0  0  0  0
   42.5675   27.1838   33.1771 H   0  0  0  0  0  0  0  0  0  0  0  0
   45.9561   25.1707   37.7228 H   0  0  0  0  0  0  0  0  0  0  0  0
   48.2752   25.6971   38.4511 H   0  0  0  0  0  0  0  0  0  0  0  0
   49.7148   27.1030   37.0221 H   0  0  0  0  0  0  0  0  0  0  0  0
   48.8445   27.9944   34.8428 H   0  0  0  0  0  0  0  0  0  0  0  0
   42.9843   22.1604   36.8978 H   0  0  0  0  0  0  0  0  0  0  0  0
   42.0963   23.3518   37.9181 H   0  0  0  0  0  0  0  0  0  0  0  0
   40.8072   21.2007   36.1242 H   0  0  0  0  0  0  0  0  0  0  0  0
   40.8794   21.1320   37.8826 H   0  0  0  0  0  0  0  0  0  0  0  0
   39.6485   22.9304   39.2667 H   0  0  0  0  0  0  0  0  0  0  0  0
   37.6664   24.4745   39.1967 H   0  0  0  0  0  0  0  0  0  0  0  0
   37.6034   24.1968   34.9495 H   0  0  0  0  0  0  0  0  0  0  0  0
  1 14  1  0
  2  1  1  0
  2  7  1  0
  3  2  2  0
  4  5  2  0
  4  3  1  0
  5  6  1  0
  6  8  1  0
  6  7  2  0
  8  9  2  0
  9 10  1  0
 11 10  2  0
 12 11  1  0
 13 12  2  0
 13  8  1  0
 14 15  1  0
 15 16  1  0
 16 17  2  0
 18 17  1  0
 19 18  2  0
 20 21  2  0
 20 19  1  0
 21 16  1  0
  1 22  1  0
  3 23  1  0
  4 24  1  0
  9 25  1  0
 10 26  1  0
 11 27  1  0
 12 28  1  0
 14 29  1  0
 14 30  1  0
 15 31  1  0
 15 32  1  0
 17 33  1  0
 18 34  1  0
 20 35  1  0
M  ISO  8  23  14  24  14  25  14  26  14  27  14  28  14  29   8  30   8
M  ISO  5  31   8  32   8  33  14  34  14  35  14
M  END
>  <minimizedAffinity>  (1) 
-4.51958799

>  <minimizedRMSD>  (1) 
0.314085871

$$$$
