
     RDKit          3D

 34 36  0  0  0  0  0  0  0  0999 V2000
   41.9340   23.6580   35.8390 N   0  0  0  0  0  0  0  0  0  0  0  0
   42.8290   24.7070   35.4530 C   0  0  0  0  0  0  0  0  0  0  0  0
   42.2510   25.4980   34.4850 C   0  0  0  0  0  0  0  0  0  0  0  0
   42.9360   26.5780   33.9370 C   0  0  0  0  0  0  0  0  0  0  0  0
   44.2080   26.8680   34.3650 N   0  0  0  0  0  0  0  0  0  0  0  0
   44.7490   26.0690   35.3230 C   0  0  0  0  0  0  0  0  0  0  0  0
   44.1140   25.0100   35.8770 N   0  0  0  0  0  0  0  0  0  0  0  0
   46.0920   26.2850   35.8520 C   0  0  0  0  0  0  0  0  0  0  0  0
   46.4080   25.7320   37.0850 C   0  0  0  0  0  0  0  0  0  0  0  0
   47.6610   25.9010   37.6390 C   0  0  0  0  0  0  0  0  0  0  0  0
   48.6160   26.6100   36.9970 N   0  0  0  0  0  0  0  0  0  0  0  0
   48.2920   27.1370   35.8030 C   0  0  0  0  0  0  0  0  0  0  0  0
   47.0750   26.9800   35.2520 N   0  0  0  0  0  0  0  0  0  0  0  0
   42.0370   22.7650   36.9760 C   0  0  0  0  0  0  0  0  0  0  0  0
   40.8210   21.8250   37.0390 C   0  0  0  0  0  0  0  0  0  0  0  0
   39.6560   22.7410   37.1060 C   0  0  0  0  0  0  0  0  0  0  0  0
   39.1730   23.2210   38.3330 C   0  0  0  0  0  0  0  0  0  0  0  0
   38.0840   24.0770   38.3130 C   0  0  0  0  0  0  0  0  0  0  0  0
   37.5300   24.4160   37.1150 N   0  0  0  0  0  0  0  0  0  0  0  0
   38.0290   23.9290   35.9540 C   0  0  0  0  0  0  0  0  0  0  0  0
   39.0600   23.1170   35.9620 N   0  0  0  0  0  0  0  0  0  0  0  0
   41.1133   23.5207   35.2320 H   0  0  0  0  0  0  0  0  0  0  0  0
   41.2313   25.2723   34.1395 H   0  0  0  0  0  0  0  0  0  0  0  0
   42.4598   27.1978   33.1630 H   0  0  0  0  0  0  0  0  0  0  0  0
   45.6489   25.1505   37.6288 H   0  0  0  0  0  0  0  0  0  0  0  0
   47.8856   25.4519   38.6177 H   0  0  0  0  0  0  0  0  0  0  0  0
   49.0500   27.7177   35.2569 H   0  0  0  0  0  0  0  0  0  0  0  0
   42.9536   22.1643   36.8818 H   0  0  0  0  0  0  0  0  0  0  0  0
   42.0684   23.3659   37.8968 H   0  0  0  0  0  0  0  0  0  0  0  0
   40.7693   21.1932   36.1400 H   0  0  0  0  0  0  0  0  0  0  0  0
   40.8650   21.1360   37.8953 H   0  0  0  0  0  0  0  0  0  0  0  0
   39.6448   22.9265   39.2820 H   0  0  0  0  0  0  0  0  0  0  0  0
   37.6722   24.4775   39.2511 H   0  0  0  0  0  0  0  0  0  0  0  0
   37.5670   24.2160   34.9978 H   0  0  0  0  0  0  0  0  0  0  0  0
  1 14  1  0
  2  1  1  0
  2  7  1  0
  3  2  2  0
  4  5  2  0
  4  3  1  0
  5  6  1  0
  6  8  1  0
  6  7  2  0
  8  9  2  0
  9 10  1  0
 11 10  2  0
 12 11  1  0
 13 12  2  0
 13  8  1  0
 14 15  1  0
 15 16  1  0
 16 17  2  0
 18 17  1  0
 19 18  2  0
 20 21  2  0
 20 19  1  0
 21 16  1  0
  1 22  1  0
  3 23  1  0
  4 24  1  0
  9 25  1  0
 10 26  1  0
 12 27  1  0
 14 28  1  0
 14 29  1  0
 15 30  1  0
 15 31  1  0
 17 32  1  0
 18 33  1  0
 20 34  1  0
M  ISO  8  23  14  24  14  25  14  26  14  27  14  28   8  29   8  30   8
M  ISO  4  31   8  32  14  33  14  34  14
M  END
>  <minimizedAffinity>  (1) 
-4.41363287

>  <minimizedRMSD>  (1) 
0.335800886

$$$$
