
     RDKit          3D

 34 36  0  0  0  0  0  0  0  0999 V2000
   41.9280   23.6700   35.8250 N   0  0  0  0  0  0  0  0  0  0  0  0
   42.8180   24.7200   35.4420 C   0  0  0  0  0  0  0  0  0  0  0  0
   42.2410   25.5140   34.4760 C   0  0  0  0  0  0  0  0  0  0  0  0
   42.9300   26.5920   33.9310 C   0  0  0  0  0  0  0  0  0  0  0  0
   44.2120   26.8800   34.3590 N   0  0  0  0  0  0  0  0  0  0  0  0
   44.7410   26.0730   35.3130 C   0  0  0  0  0  0  0  0  0  0  0  0
   44.1030   25.0140   35.8670 N   0  0  0  0  0  0  0  0  0  0  0  0
   46.0850   26.2880   35.8380 C   0  0  0  0  0  0  0  0  0  0  0  0
   46.3980   25.7270   37.0760 C   0  0  0  0  0  0  0  0  0  0  0  0
   47.6280   25.8710   37.6510 C   0  0  0  0  0  0  0  0  0  0  0  0
   48.5730   26.5800   37.0040 N   0  0  0  0  0  0  0  0  0  0  0  0
   48.2790   27.1350   35.7920 C   0  0  0  0  0  0  0  0  0  0  0  0
   47.0650   26.9850   35.2360 N   0  0  0  0  0  0  0  0  0  0  0  0
   42.0310   22.7900   36.9720 C   0  0  0  0  0  0  0  0  0  0  0  0
   40.8190   21.8410   37.0270 C   0  0  0  0  0  0  0  0  0  0  0  0
   39.6540   22.7510   37.1350 C   0  0  0  0  0  0  0  0  0  0  0  0
   39.1830   23.2030   38.3780 C   0  0  0  0  0  0  0  0  0  0  0  0
   38.0970   24.0600   38.3760 C   0  0  0  0  0  0  0  0  0  0  0  0
   37.5350   24.4280   37.1900 N   0  0  0  0  0  0  0  0  0  0  0  0
   38.0160   23.9710   36.0170 C   0  0  0  0  0  0  0  0  0  0  0  0
   39.0480   23.1560   36.0010 N   0  0  0  0  0  0  0  0  0  0  0  0
   41.1143   23.5202   35.2115 H   0  0  0  0  0  0  0  0  0  0  0  0
   41.2205   25.2923   34.1305 H   0  0  0  0  0  0  0  0  0  0  0  0
   42.4546   27.2153   33.1593 H   0  0  0  0  0  0  0  0  0  0  0  0
   45.6276   25.1488   37.6073 H   0  0  0  0  0  0  0  0  0  0  0  0
   47.8440   25.4147   38.6283 H   0  0  0  0  0  0  0  0  0  0  0  0
   49.0488   27.7147   35.2616 H   0  0  0  0  0  0  0  0  0  0  0  0
   42.9536   22.1963   36.8924 H   0  0  0  0  0  0  0  0  0  0  0  0
   42.0522   23.3975   37.8888 H   0  0  0  0  0  0  0  0  0  0  0  0
   40.7567   21.2333   36.1122 H   0  0  0  0  0  0  0  0  0  0  0  0
   40.8777   21.1282   37.8627 H   0  0  0  0  0  0  0  0  0  0  0  0
   39.6595   22.8876   39.3179 H   0  0  0  0  0  0  0  0  0  0  0  0
   37.6902   24.4415   39.3242 H   0  0  0  0  0  0  0  0  0  0  0  0
   37.5450   24.2799   35.0721 H   0  0  0  0  0  0  0  0  0  0  0  0
  1 14  1  0
  2  1  1  0
  2  7  1  0
  3  2  2  0
  4  5  2  0
  4  3  1  0
  5  6  1  0
  6  8  1  0
  6  7  2  0
  8  9  2  0
  9 10  1  0
 11 10  2  0
 12 11  1  0
 13 12  2  0
 13  8  1  0
 14 15  1  0
 15 16  1  0
 16 17  2  0
 18 17  1  0
 19 18  2  0
 20 19  1  0
 21 20  2  0
 21 16  1  0
  1 22  1  0
  3 23  1  0
  4 24  1  0
  9 25  1  0
 10 26  1  0
 12 27  1  0
 14 28  1  0
 14 29  1  0
 15 30  1  0
 15 31  1  0
 17 32  1  0
 18 33  1  0
 20 34  1  0
M  ISO  8  23  14  24  14  25  14  26  14  27  14  28   8  29   8  30   8
M  ISO  4  31   8  32  14  33  14  34  14
M  END
>  <minimizedAffinity>  (1) 
-4.41064882

>  <minimizedRMSD>  (1) 
0.37997359

$$$$
