
     RDKit          3D

 33 35  0  0  0  0  0  0  0  0999 V2000
   42.0440   22.7790   36.9770 C   0  0  0  0  0  0  0  0  0  0  0  0
   40.8020   21.8670   36.9890 C   0  0  0  0  0  0  0  0  0  0  0  0
   39.6590   22.7990   37.0770 C   0  0  0  0  0  0  0  0  0  0  0  0
   39.1480   23.2100   38.3160 C   0  0  0  0  0  0  0  0  0  0  0  0
   38.0790   24.0950   38.3230 C   0  0  0  0  0  0  0  0  0  0  0  0
   37.5780   24.5220   37.1220 N   0  0  0  0  0  0  0  0  0  0  0  0
   38.0980   24.1030   35.9400 C   0  0  0  0  0  0  0  0  0  0  0  0
   39.1080   23.2660   35.9440 N   0  0  0  0  0  0  0  0  0  0  0  0
   42.0060   23.6630   35.8270 N   0  0  0  0  0  0  0  0  0  0  0  0
   42.9070   24.7160   35.4820 C   0  0  0  0  0  0  0  0  0  0  0  0
   42.3850   25.4960   34.4820 C   0  0  0  0  0  0  0  0  0  0  0  0
   43.1150   26.5700   33.9670 C   0  0  0  0  0  0  0  0  0  0  0  0
   44.3590   26.8550   34.4570 N   0  0  0  0  0  0  0  0  0  0  0  0
   44.8480   26.0640   35.4500 C   0  0  0  0  0  0  0  0  0  0  0  0
   44.1700   25.0140   35.9730 N   0  0  0  0  0  0  0  0  0  0  0  0
   46.1060   26.1780   36.1020 N   0  0  0  0  0  0  0  0  0  0  0  0
   47.1930   26.7200   35.4790 C   0  0  0  0  0  0  0  0  0  0  0  0
   48.2500   26.6830   36.3790 C   0  0  0  0  0  0  0  0  0  0  0  0
   47.7760   26.1190   37.5280 N   0  0  0  0  0  0  0  0  0  0  0  0
   46.4640   25.8140   37.3460 C   0  0  0  0  0  0  0  0  0  0  0  0
   42.0616   23.3810   37.8975 H   0  0  0  0  0  0  0  0  0  0  0  0
   42.9474   22.1541   36.9194 H   0  0  0  0  0  0  0  0  0  0  0  0
   40.7479   21.2717   36.0656 H   0  0  0  0  0  0  0  0  0  0  0  0
   40.8197   21.1474   37.8208 H   0  0  0  0  0  0  0  0  0  0  0  0
   39.5824   22.8412   39.2569 H   0  0  0  0  0  0  0  0  0  0  0  0
   37.6443   24.4453   39.2708 H   0  0  0  0  0  0  0  0  0  0  0  0
   37.6769   24.4615   34.9891 H   0  0  0  0  0  0  0  0  0  0  0  0
   41.2254   23.5108   35.1724 H   0  0  0  0  0  0  0  0  0  0  0  0
   41.3843   25.2744   34.0826 H   0  0  0  0  0  0  0  0  0  0  0  0
   42.6873   27.1886   33.1643 H   0  0  0  0  0  0  0  0  0  0  0  0
   47.2257   27.1138   34.4524 H   0  0  0  0  0  0  0  0  0  0  0  0
   49.2748   27.0404   36.1999 H   0  0  0  0  0  0  0  0  0  0  0  0
   45.8046   25.3470   38.0924 H   0  0  0  0  0  0  0  0  0  0  0  0
  1  2  1  0
  2  3  1  0
  3  4  2  0
  4  5  1  0
  6  5  2  0
  7  8  2  0
  7  6  1  0
  8  3  1  0
  9  1  1  0
 10  9  1  0
 10 15  1  0
 11 10  2  0
 12 13  2  0
 12 11  1  0
 13 14  1  0
 14 15  2  0
 14 16  1  0
 16 20  1  0
 17 16  1  0
 17 18  2  0
 18 19  1  0
 20 19  2  0
  1 21  1  0
  1 22  1  0
  2 23  1  0
  2 24  1  0
  4 25  1  0
  5 26  1  0
  7 27  1  0
  9 28  1  0
 11 29  1  0
 12 30  1  0
 17 31  1  0
 18 32  1  0
 20 33  1  0
M  ISO  8  21   8  22   8  23   8  24   8  25  14  26  14  27  14  29  14
M  ISO  4  30  14  31  14  32  14  33  14
M  END
>  <minimizedAffinity>  (1) 
-4.43632269

>  <minimizedRMSD>  (1) 
0.279779792

$$$$
