
     RDKit          3D

 32 34  0  0  0  0  0  0  0  0999 V2000
   41.9610   23.6610   35.8280 N   0  0  0  0  0  0  0  0  0  0  0  0
   42.8110   24.7330   35.4330 C   0  0  0  0  0  0  0  0  0  0  0  0
   42.2480   25.5220   34.4770 C   0  0  0  0  0  0  0  0  0  0  0  0
   42.9210   26.5890   33.9350 C   0  0  0  0  0  0  0  0  0  0  0  0
   44.1970   26.8900   34.3500 N   0  0  0  0  0  0  0  0  0  0  0  0
   44.7580   26.1060   35.3020 C   0  0  0  0  0  0  0  0  0  0  0  0
   44.0670   25.0400   35.8340 N   0  0  0  0  0  0  0  0  0  0  0  0
   46.0920   26.2580   35.8740 C   0  0  0  0  0  0  0  0  0  0  0  0
   47.0010   26.9060   35.1420 C   0  0  0  0  0  0  0  0  0  0  0  0
   48.5410   26.8830   36.2120 S   0  0  0  0  0  0  0  0  0  0  0  0
   47.5580   25.9270   37.5310 C   0  0  0  0  0  0  0  0  0  0  0  0
   46.5590   25.8480   37.0310 N   0  0  0  0  0  0  0  0  0  0  0  0
   42.0630   22.7950   36.9770 C   0  0  0  0  0  0  0  0  0  0  0  0
   40.8520   21.8350   37.0390 C   0  0  0  0  0  0  0  0  0  0  0  0
   39.6810   22.7430   37.0920 C   0  0  0  0  0  0  0  0  0  0  0  0
   39.1950   23.2250   38.3200 C   0  0  0  0  0  0  0  0  0  0  0  0
   38.0960   24.0740   38.2820 C   0  0  0  0  0  0  0  0  0  0  0  0
   37.5470   24.3930   37.0610 N   0  0  0  0  0  0  0  0  0  0  0  0
   38.0520   23.9020   35.9050 C   0  0  0  0  0  0  0  0  0  0  0  0
   39.0890   23.1000   35.9310 N   0  0  0  0  0  0  0  0  0  0  0  0
   41.1608   23.4783   35.2057 H   0  0  0  0  0  0  0  0  0  0  0  0
   41.2282   25.2991   34.1300 H   0  0  0  0  0  0  0  0  0  0  0  0
   42.4367   27.2066   33.1643 H   0  0  0  0  0  0  0  0  0  0  0  0
   46.8759   27.3501   34.1435 H   0  0  0  0  0  0  0  0  0  0  0  0
   47.8818   25.5544   38.5140 H   0  0  0  0  0  0  0  0  0  0  0  0
   42.9891   22.2058   36.9055 H   0  0  0  0  0  0  0  0  0  0  0  0
   42.0761   23.4115   37.8879 H   0  0  0  0  0  0  0  0  0  0  0  0
   40.8122   21.1965   36.1441 H   0  0  0  0  0  0  0  0  0  0  0  0
   40.8971   21.1494   37.8981 H   0  0  0  0  0  0  0  0  0  0  0  0
   39.6660   22.9413   39.2727 H   0  0  0  0  0  0  0  0  0  0  0  0
   37.6724   24.4837   39.2108 H   0  0  0  0  0  0  0  0  0  0  0  0
   37.5924   24.1758   34.9439 H   0  0  0  0  0  0  0  0  0  0  0  0
  1 13  1  0
  2  1  1  0
  2  7  1  0
  3  2  2  0
  4  5  2  0
  4  3  1  0
  5  6  1  0
  6  7  2  0
  6  8  1  0
  8 12  1  0
  9  8  2  0
  9 10  1  0
 10 11  1  0
 12 11  2  0
 13 14  1  0
 14 15  1  0
 15 16  2  0
 17 16  1  0
 18 17  2  0
 19 20  2  0
 19 18  1  0
 20 15  1  0
  1 21  1  0
  3 22  1  0
  4 23  1  0
  9 24  1  0
 11 25  1  0
 13 26  1  0
 13 27  1  0
 14 28  1  0
 14 29  1  0
 16 30  1  0
 17 31  1  0
 19 32  1  0
M  ISO  8  22  14  23  14  24  14  25  14  26   8  27   8  28   8  29   8
M  ISO  3  30  14  31  14  32  14
M  END
>  <minimizedAffinity>  (1) 
-4.22123289

>  <minimizedRMSD>  (1) 
0.469273359

$$$$
