
     RDKit          3D

 28 29  0  0  0  0  0  0  0  0999 V2000
   42.0830   22.7900   37.0060 C   0  0  0  0  0  0  0  0  0  0  0  0
   40.8710   21.8420   37.0250 C   0  0  0  0  0  0  0  0  0  0  0  0
   39.6980   22.7410   37.0810 C   0  0  0  0  0  0  0  0  0  0  0  0
   39.1880   23.2100   38.2980 C   0  0  0  0  0  0  0  0  0  0  0  0
   38.0930   24.0590   38.2590 C   0  0  0  0  0  0  0  0  0  0  0  0
   37.5630   24.3950   37.0450 N   0  0  0  0  0  0  0  0  0  0  0  0
   38.0800   23.9220   35.8860 C   0  0  0  0  0  0  0  0  0  0  0  0
   39.1170   23.1200   35.9290 N   0  0  0  0  0  0  0  0  0  0  0  0
   42.0010   23.6750   35.8600 N   0  0  0  0  0  0  0  0  0  0  0  0
   42.8860   24.7310   35.4830 C   0  0  0  0  0  0  0  0  0  0  0  0
   42.3290   25.5130   34.5050 C   0  0  0  0  0  0  0  0  0  0  0  0
   43.0210   26.5880   33.9600 C   0  0  0  0  0  0  0  0  0  0  0  0
   44.2920   26.8830   34.4060 N   0  0  0  0  0  0  0  0  0  0  0  0
   44.8130   26.0890   35.3780 C   0  0  0  0  0  0  0  0  0  0  0  0
   44.1650   25.0350   35.9280 N   0  0  0  0  0  0  0  0  0  0  0  0
   46.1020   26.2340   35.9670 N   0  0  0  0  0  0  0  0  0  0  0  0
   42.0921   23.3885   37.9289 H   0  0  0  0  0  0  0  0  0  0  0  0
   43.0061   22.1955   36.9385 H   0  0  0  0  0  0  0  0  0  0  0  0
   40.8453   21.2256   36.1143 H   0  0  0  0  0  0  0  0  0  0  0  0
   40.9015   21.1412   37.8724 H   0  0  0  0  0  0  0  0  0  0  0  0
   39.6422   22.9139   39.2551 H   0  0  0  0  0  0  0  0  0  0  0  0
   37.6584   24.4552   39.1886 H   0  0  0  0  0  0  0  0  0  0  0  0
   37.6358   24.2068   34.9208 H   0  0  0  0  0  0  0  0  0  0  0  0
   41.1973   23.5216   35.2344 H   0  0  0  0  0  0  0  0  0  0  0  0
   41.3149   25.2855   34.1445 H   0  0  0  0  0  0  0  0  0  0  0  0
   42.5559   27.2020   33.1747 H   0  0  0  0  0  0  0  0  0  0  0  0
   46.4096   25.5797   36.7006 H   0  0  0  0  0  0  0  0  0  0  0  0
   46.7264   26.9932   35.6593 H   0  0  0  0  0  0  0  0  0  0  0  0
  1  2  1  0
  2  3  1  0
  3  4  2  0
  5  4  1  0
  6  5  2  0
  7  8  2  0
  7  6  1  0
  8  3  1  0
  9  1  1  0
 10  9  1  0
 10 15  1  0
 11 10  2  0
 12 13  2  0
 12 11  1  0
 13 14  1  0
 14 15  2  0
 14 16  1  0
  1 17  1  0
  1 18  1  0
  2 19  1  0
  2 20  1  0
  4 21  1  0
  5 22  1  0
  7 23  1  0
  9 24  1  0
 11 25  1  0
 12 26  1  0
 16 27  1  0
 16 28  1  0
M  ISO  8  17   8  18   8  19   8  20   8  21  14  22  14  23  14  25  14
M  ISO  1  26  14
M  END
>  <minimizedAffinity>  (1) 
-3.71109629

>  <minimizedRMSD>  (1) 
0.31569159

$$$$
