
     RDKit          3D

 50 53  0  0  0  0  0  0  0  0999 V2000
   42.0840   23.5010   35.5860 N   0  0  0  0  0  0  0  0  0  0  0  0
   42.8770   24.6540   35.2440 C   0  0  0  0  0  0  0  0  0  0  0  0
   42.2360   25.4760   34.3500 C   0  0  0  0  0  0  0  0  0  0  0  0
   42.8650   26.6360   33.8700 C   0  0  0  0  0  0  0  0  0  0  0  0
   44.1200   26.9560   34.2910 N   0  0  0  0  0  0  0  0  0  0  0  0
   44.7230   26.1160   35.1790 C   0  0  0  0  0  0  0  0  0  0  0  0
   44.1530   24.9860   35.6680 N   0  0  0  0  0  0  0  0  0  0  0  0
   46.0160   26.2920   35.7380 N   0  0  0  0  0  0  0  0  0  0  0  0
   46.8610   27.0920   35.0550 C   0  0  0  0  0  0  0  0  0  0  0  0
   48.1190   27.3310   35.5170 C   0  0  0  0  0  0  0  0  0  0  0  0
   48.5520   26.7390   36.7220 C   0  0  0  0  0  0  0  0  0  0  0  0
   49.7180   26.9340   37.1920 O   0  0  0  0  0  0  0  0  0  0  0  0
   47.6770   25.9510   37.3650 N   0  0  0  0  0  0  0  0  0  0  0  0
   46.4370   25.7230   36.8990 C   0  0  0  0  0  0  0  0  0  0  0  0
   45.5850   24.9890   37.4730 O   0  0  0  0  0  0  0  0  0  0  0  0
   42.0170   22.8490   36.8880 C   0  0  0  0  0  0  0  0  0  0  0  0
   40.7490   21.9610   36.9500 C   0  0  0  0  0  0  0  0  0  0  0  0
   39.6580   22.9410   37.1130 C   0  0  0  0  0  0  0  0  0  0  0  0
   39.0620   23.1710   38.3480 C   0  0  0  0  0  0  0  0  0  0  0  0
   38.0530   24.1030   38.4280 C   0  0  0  0  0  0  0  0  0  0  0  0
   37.6790   24.7600   37.3000 N   0  0  0  0  0  0  0  0  0  0  0  0
   38.2750   24.5220   36.0920 C   0  0  0  0  0  0  0  0  0  0  0  0
   39.2230   23.6340   36.0640 N   0  0  0  0  0  0  0  0  0  0  0  0
   37.8380   25.2470   34.9300 N   0  0  0  0  0  0  0  0  0  0  0  0
   37.9620   24.5570   33.6390 C   0  0  0  0  0  0  0  0  0  0  0  0
   37.8970   25.4930   32.4760 C   0  0  0  0  0  0  0  0  0  0  0  0
   38.3830   26.7900   32.9190 N   0  0  0  0  0  0  0  0  0  0  0  0
   37.3640   27.3370   33.7890 C   0  0  0  0  0  0  0  0  0  0  0  0
   37.3100   26.5960   35.0990 C   0  0  0  0  0  0  0  0  0  0  0  0
   41.5064   23.0967   34.8351 H   0  0  0  0  0  0  0  0  0  0  0  0
   41.2217   25.2237   34.0072 H   0  0  0  0  0  0  0  0  0  0  0  0
   42.3434   27.2871   33.1530 H   0  0  0  0  0  0  0  0  0  0  0  0
   46.5297   27.5562   34.1144 H   0  0  0  0  0  0  0  0  0  0  0  0
   48.7978   27.9857   34.9508 H   0  0  0  0  0  0  0  0  0  0  0  0
   47.9658   25.5048   38.2473 H   0  0  0  0  0  0  0  0  0  0  0  0
   42.9108   22.2243   37.0328 H   0  0  0  0  0  0  0  0  0  0  0  0
   41.9731   23.6108   37.6803 H   0  0  0  0  0  0  0  0  0  0  0  0
   40.6256   21.3843   36.0214 H   0  0  0  0  0  0  0  0  0  0  0  0
   40.7836   21.2159   37.7585 H   0  0  0  0  0  0  0  0  0  0  0  0
   39.3900   22.6198   39.2416 H   0  0  0  0  0  0  0  0  0  0  0  0
   37.5584   24.3120   39.3880 H   0  0  0  0  0  0  0  0  0  0  0  0
   38.9272   24.0300   33.6130 H   0  0  0  0  0  0  0  0  0  0  0  0
   37.1154   23.8601   33.5522 H   0  0  0  0  0  0  0  0  0  0  0  0
   36.8580   25.5827   32.1260 H   0  0  0  0  0  0  0  0  0  0  0  0
   38.5124   25.1162   31.6457 H   0  0  0  0  0  0  0  0  0  0  0  0
   39.2687   26.6811   33.4334 H   0  0  0  0  0  0  0  0  0  0  0  0
   37.5900   28.3956   33.9848 H   0  0  0  0  0  0  0  0  0  0  0  0
   36.3889   27.2339   33.2905 H   0  0  0  0  0  0  0  0  0  0  0  0
   36.2666   26.5386   35.4425 H   0  0  0  0  0  0  0  0  0  0  0  0
   37.9182   27.1317   35.8427 H   0  0  0  0  0  0  0  0  0  0  0  0
  1 16  1  0
  2  1  1  0
  2  7  1  0
  3  2  2  0
  4  5  2  0
  4  3  1  0
  5  6  1  0
  6  7  2  0
  6  8  1  0
  8 14  1  0
  9 10  2  0
  9  8  1  0
 10 11  1  0
 11 12  2  0
 11 13  1  0
 14 13  1  0
 14 15  2  0
 16 17  1  0
 17 18  1  0
 18 19  2  0
 19 20  1  0
 21 20  2  0
 22 21  1  0
 23 22  2  0
 23 18  1  0
 24 29  1  0
 24 22  1  0
 25 24  1  0
 26 27  1  0
 26 25  1  0
 27 28  1  0
 28 29  1  0
  1 30  1  0
  3 31  1  0
  4 32  1  0
  9 33  1  0
 10 34  1  0
 13 35  1  0
 16 36  1  0
 16 37  1  0
 17 38  1  0
 17 39  1  0
 19 40  1  0
 20 41  1  0
 25 42  1  0
 25 43  1  0
 26 44  1  0
 26 45  1  0
 27 46  1  0
 28 47  1  0
 28 48  1  0
 29 49  1  0
 29 50  1  0
M  ISO  8  31  14  32  14  33  14  34  14  35   9  36   8  37   8  38   8
M  ISO  8  39   8  40  14  41  14  42  13  43  13  44  13  45  13  46   5
M  ISO  4  47  13  48  13  49  13  50  13
M  END
>  <minimizedAffinity>  (1) 
-6.00158405

>  <minimizedRMSD>  (1) 
0.980512261

$$$$
