
     RDKit          3D

 46 49  0  0  0  0  0  0  0  0999 V2000
   41.8530   22.6690   36.9300 C   0  0  0  0  0  0  0  0  0  0  0  0
   40.5130   21.8990   37.0200 C   0  0  0  0  0  0  0  0  0  0  0  0
   39.5220   22.9770   37.2260 C   0  0  0  0  0  0  0  0  0  0  0  0
   38.9660   23.2270   38.4810 C   0  0  0  0  0  0  0  0  0  0  0  0
   38.0570   24.2500   38.5920 C   0  0  0  0  0  0  0  0  0  0  0  0
   37.7320   24.9730   37.4920 N   0  0  0  0  0  0  0  0  0  0  0  0
   38.2890   24.7080   36.2830 C   0  0  0  0  0  0  0  0  0  0  0  0
   39.1460   23.7370   36.1990 N   0  0  0  0  0  0  0  0  0  0  0  0
   37.9010   25.5250   35.1180 C   0  0  0  0  0  0  0  0  0  0  0  0
   37.5070   26.8280   35.3440 C   0  0  0  0  0  0  0  0  0  0  0  0
   37.1340   27.6390   34.2900 C   0  0  0  0  0  0  0  0  0  0  0  0
   37.1910   27.0480   33.0450 C   0  0  0  0  0  0  0  0  0  0  0  0
   37.5740   25.7570   32.7540 C   0  0  0  0  0  0  0  0  0  0  0  0
   37.9450   24.9650   33.8460 C   0  0  0  0  0  0  0  0  0  0  0  0
   41.9630   23.2840   35.6100 N   0  0  0  0  0  0  0  0  0  0  0  0
   42.7180   24.4660   35.2770 C   0  0  0  0  0  0  0  0  0  0  0  0
   42.0420   25.2760   34.4000 C   0  0  0  0  0  0  0  0  0  0  0  0
   42.6360   26.4600   33.9230 C   0  0  0  0  0  0  0  0  0  0  0  0
   43.8900   26.8110   34.3310 N   0  0  0  0  0  0  0  0  0  0  0  0
   44.5250   25.9760   35.2060 C   0  0  0  0  0  0  0  0  0  0  0  0
   43.9930   24.8200   35.6960 N   0  0  0  0  0  0  0  0  0  0  0  0
   45.8150   26.1850   35.7510 N   0  0  0  0  0  0  0  0  0  0  0  0
   46.6390   26.9880   35.0500 C   0  0  0  0  0  0  0  0  0  0  0  0
   47.8970   27.2610   35.5070 C   0  0  0  0  0  0  0  0  0  0  0  0
   48.3430   26.7120   36.7050 C   0  0  0  0  0  0  0  0  0  0  0  0
   49.5070   26.9300   37.1860 O   0  0  0  0  0  0  0  0  0  0  0  0
   47.4870   25.9180   37.3700 N   0  0  0  0  0  0  0  0  0  0  0  0
   46.2440   25.6420   36.9250 C   0  0  0  0  0  0  0  0  0  0  0  0
   45.4070   24.9010   37.5150 O   0  0  0  0  0  0  0  0  0  0  0  0
   41.8816   23.4502   37.7039 H   0  0  0  0  0  0  0  0  0  0  0  0
   42.6911   21.9738   37.0859 H   0  0  0  0  0  0  0  0  0  0  0  0
   40.3103   21.3484   36.0895 H   0  0  0  0  0  0  0  0  0  0  0  0
   40.5014   21.1418   37.8178 H   0  0  0  0  0  0  0  0  0  0  0  0
   39.2476   22.6224   39.3557 H   0  0  0  0  0  0  0  0  0  0  0  0
   37.5968   24.4808   39.5641 H   0  0  0  0  0  0  0  0  0  0  0  0
   37.4899   27.2234   36.3703 H   0  0  0  0  0  0  0  0  0  0  0  0
   36.8143   28.6817   34.4332 H   0  0  0  0  0  0  0  0  0  0  0  0
   36.8986   27.6764   32.1908 H   0  0  0  0  0  0  0  0  0  0  0  0
   37.5873   25.3716   31.7238 H   0  0  0  0  0  0  0  0  0  0  0  0
   38.2644   23.9224   33.7015 H   0  0  0  0  0  0  0  0  0  0  0  0
   41.4507   22.8284   34.8413 H   0  0  0  0  0  0  0  0  0  0  0  0
   41.0306   24.9989   34.0678 H   0  0  0  0  0  0  0  0  0  0  0  0
   42.0878   27.1039   33.2195 H   0  0  0  0  0  0  0  0  0  0  0  0
   46.2959   27.4274   34.1018 H   0  0  0  0  0  0  0  0  0  0  0  0
   48.5604   27.9179   34.9252 H   0  0  0  0  0  0  0  0  0  0  0  0
   47.7941   25.5010   38.2604 H   0  0  0  0  0  0  0  0  0  0  0  0
  1  2  1  0
  2  3  1  0
  3  4  2  0
  4  5  1  0
  6  5  2  0
  7  6  1  0
  8  7  2  0
  8  3  1  0
  9 10  2  0
  9  7  1  0
 11 10  1  0
 12 11  2  0
 13 12  1  0
 13 14  2  0
 14  9  1  0
 15  1  1  0
 16 15  1  0
 16 21  1  0
 17 16  2  0
 18 19  2  0
 18 17  1  0
 19 20  1  0
 20 21  2  0
 20 22  1  0
 22 28  1  0
 23 24  2  0
 23 22  1  0
 24 25  1  0
 25 26  2  0
 25 27  1  0
 28 27  1  0
 28 29  2  0
  1 30  1  0
  1 31  1  0
  2 32  1  0
  2 33  1  0
  4 34  1  0
  5 35  1  0
 10 36  1  0
 11 37  1  0
 12 38  1  0
 13 39  1  0
 14 40  1  0
 15 41  1  0
 17 42  1  0
 18 43  1  0
 23 44  1  0
 24 45  1  0
 27 46  1  0
M  ISO  8  30   8  31   8  32   8  33   8  34  14  35  14  36  14  37  14
M  ISO  8  38  14  39  14  40  14  42  14  43  14  44  14  45  14  46   9
M  END
>  <minimizedAffinity>  (1) 
-6.0400815

>  <minimizedRMSD>  (1) 
1.17824602

$$$$
