
     RDKit          3D

 48 51  0  0  0  0  0  0  0  0999 V2000
   41.9060   23.4260   35.5970 N   0  0  0  0  0  0  0  0  0  0  0  0
   42.7200   24.5680   35.2720 C   0  0  0  0  0  0  0  0  0  0  0  0
   42.0990   25.4180   34.3910 C   0  0  0  0  0  0  0  0  0  0  0  0
   42.7480   26.5710   33.9290 C   0  0  0  0  0  0  0  0  0  0  0  0
   44.0120   26.8630   34.3550 N   0  0  0  0  0  0  0  0  0  0  0  0
   44.5950   25.9940   35.2330 C   0  0  0  0  0  0  0  0  0  0  0  0
   44.0030   24.8670   35.7050 N   0  0  0  0  0  0  0  0  0  0  0  0
   45.8860   26.1450   35.7990 N   0  0  0  0  0  0  0  0  0  0  0  0
   46.7430   26.9430   35.1300 C   0  0  0  0  0  0  0  0  0  0  0  0
   48.0020   27.1610   35.6150 C   0  0  0  0  0  0  0  0  0  0  0  0
   48.4160   26.5530   36.8120 C   0  0  0  0  0  0  0  0  0  0  0  0
   49.5810   26.7340   37.2930 O   0  0  0  0  0  0  0  0  0  0  0  0
   47.5320   25.7710   37.4350 N   0  0  0  0  0  0  0  0  0  0  0  0
   46.2860   25.5530   36.9610 C   0  0  0  0  0  0  0  0  0  0  0  0
   45.4250   24.8260   37.5160 O   0  0  0  0  0  0  0  0  0  0  0  0
   41.8460   22.7380   36.8810 C   0  0  0  0  0  0  0  0  0  0  0  0
   40.5220   21.9430   36.9770 C   0  0  0  0  0  0  0  0  0  0  0  0
   39.5050   22.9920   37.1930 C   0  0  0  0  0  0  0  0  0  0  0  0
   38.9880   23.2450   38.4600 C   0  0  0  0  0  0  0  0  0  0  0  0
   38.0500   24.2380   38.5980 C   0  0  0  0  0  0  0  0  0  0  0  0
   37.6620   24.9330   37.4960 N   0  0  0  0  0  0  0  0  0  0  0  0
   38.1810   24.6650   36.2730 C   0  0  0  0  0  0  0  0  0  0  0  0
   39.0680   23.7220   36.1710 N   0  0  0  0  0  0  0  0  0  0  0  0
   37.7930   25.3780   35.1010 N   0  0  0  0  0  0  0  0  0  0  0  0
   38.0400   24.9970   33.7020 C   0  0  0  0  0  0  0  0  0  0  0  0
   38.7160   26.2800   33.2090 C   0  0  0  0  0  0  0  0  0  0  0  0
   37.7280   27.3110   33.7560 C   0  0  0  0  0  0  0  0  0  0  0  0
   37.0740   26.6290   34.9520 C   0  0  0  0  0  0  0  0  0  0  0  0
   41.3049   23.0575   34.8461 H   0  0  0  0  0  0  0  0  0  0  0  0
   41.0802   25.1915   34.0436 H   0  0  0  0  0  0  0  0  0  0  0  0
   42.2382   27.2420   33.2219 H   0  0  0  0  0  0  0  0  0  0  0  0
   46.4275   27.4202   34.1905 H   0  0  0  0  0  0  0  0  0  0  0  0
   48.6945   27.8156   35.0655 H   0  0  0  0  0  0  0  0  0  0  0  0
   47.8118   25.3142   38.3148 H   0  0  0  0  0  0  0  0  0  0  0  0
   42.6967   22.0458   36.9665 H   0  0  0  0  0  0  0  0  0  0  0  0
   41.8913   23.4759   37.6956 H   0  0  0  0  0  0  0  0  0  0  0  0
   40.3262   21.3913   36.0457 H   0  0  0  0  0  0  0  0  0  0  0  0
   40.5334   21.1864   37.7754 H   0  0  0  0  0  0  0  0  0  0  0  0
   39.3232   22.6627   39.3310 H   0  0  0  0  0  0  0  0  0  0  0  0
   37.6196   24.4674   39.5839 H   0  0  0  0  0  0  0  0  0  0  0  0
   38.7070   24.1257   33.6252 H   0  0  0  0  0  0  0  0  0  0  0  0
   37.1490   24.6886   33.1354 H   0  0  0  0  0  0  0  0  0  0  0  0
   39.7207   26.4059   33.6389 H   0  0  0  0  0  0  0  0  0  0  0  0
   38.8924   26.3296   32.1244 H   0  0  0  0  0  0  0  0  0  0  0  0
   38.2553   28.2235   34.0711 H   0  0  0  0  0  0  0  0  0  0  0  0
   36.9906   27.6203   33.0006 H   0  0  0  0  0  0  0  0  0  0  0  0
   37.1789   27.2468   35.8561 H   0  0  0  0  0  0  0  0  0  0  0  0
   35.9951   26.4739   34.8040 H   0  0  0  0  0  0  0  0  0  0  0  0
  1 16  1  0
  2  1  1  0
  2  7  1  0
  3  2  2  0
  4  5  2  0
  4  3  1  0
  5  6  1  0
  6  7  2  0
  6  8  1  0
  8 14  1  0
  9 10  2  0
  9  8  1  0
 10 11  1  0
 11 12  2  0
 11 13  1  0
 14 13  1  0
 14 15  2  0
 16 17  1  0
 17 18  1  0
 18 19  2  0
 19 20  1  0
 21 20  2  0
 22 21  1  0
 23 22  2  0
 23 18  1  0
 24 22  1  0
 25 24  1  0
 26 25  1  0
 26 27  1  0
 27 28  1  0
 28 24  1  0
  1 29  1  0
  3 30  1  0
  4 31  1  0
  9 32  1  0
 10 33  1  0
 13 34  1  0
 16 35  1  0
 16 36  1  0
 17 37  1  0
 17 38  1  0
 19 39  1  0
 20 40  1  0
 25 41  1  0
 25 42  1  0
 26 43  1  0
 26 44  1  0
 27 45  1  0
 27 46  1  0
 28 47  1  0
 28 48  1  0
M  ISO  8  30  14  31  14  32  14  33  14  34   9  35   8  36   8  37   8
M  ISO  8  38   8  39  14  40  14  41  13  42  13  43  13  44  13  45  13
M  ISO  3  46  13  47  13  48  13
M  END
>  <minimizedAffinity>  (1) 
-5.89301205

>  <minimizedRMSD>  (1) 
0.959502697

$$$$
