
     RDKit          3D

 44 47  0  0  0  0  0  0  0  0999 V2000
   41.9710   23.4200   35.6250 N   0  0  0  0  0  0  0  0  0  0  0  0
   42.7880   24.5650   35.3050 C   0  0  0  0  0  0  0  0  0  0  0  0
   42.1670   25.4040   34.4150 C   0  0  0  0  0  0  0  0  0  0  0  0
   42.8170   26.5590   33.9470 C   0  0  0  0  0  0  0  0  0  0  0  0
   44.0750   26.8550   34.3810 N   0  0  0  0  0  0  0  0  0  0  0  0
   44.6590   26.0040   35.2630 C   0  0  0  0  0  0  0  0  0  0  0  0
   44.0670   24.8740   35.7420 N   0  0  0  0  0  0  0  0  0  0  0  0
   45.9520   26.1490   35.8330 N   0  0  0  0  0  0  0  0  0  0  0  0
   46.8000   26.9590   35.1630 C   0  0  0  0  0  0  0  0  0  0  0  0
   48.0610   27.1700   35.6240 C   0  0  0  0  0  0  0  0  0  0  0  0
   48.4940   26.5400   36.8110 C   0  0  0  0  0  0  0  0  0  0  0  0
   49.6630   26.6950   37.2970 O   0  0  0  0  0  0  0  0  0  0  0  0
   47.6090   25.7430   37.4420 N   0  0  0  0  0  0  0  0  0  0  0  0
   46.3620   25.5400   36.9780 C   0  0  0  0  0  0  0  0  0  0  0  0
   45.5040   24.8090   37.5280 O   0  0  0  0  0  0  0  0  0  0  0  0
   41.8850   22.7540   36.9190 C   0  0  0  0  0  0  0  0  0  0  0  0
   40.5660   21.9510   36.9960 C   0  0  0  0  0  0  0  0  0  0  0  0
   39.5430   22.9930   37.1980 C   0  0  0  0  0  0  0  0  0  0  0  0
   38.9800   23.2220   38.4490 C   0  0  0  0  0  0  0  0  0  0  0  0
   38.0350   24.2120   38.5720 C   0  0  0  0  0  0  0  0  0  0  0  0
   37.6860   24.9270   37.4690 N   0  0  0  0  0  0  0  0  0  0  0  0
   38.2510   24.6860   36.2440 C   0  0  0  0  0  0  0  0  0  0  0  0
   39.1400   23.7410   36.1740 N   0  0  0  0  0  0  0  0  0  0  0  0
   37.8130   25.5050   35.1170 C   0  0  0  0  0  0  0  0  0  0  0  0
   37.4810   26.8190   35.3080 C   0  0  0  0  0  0  0  0  0  0  0  0
   37.0620   27.6000   34.2280 C   0  0  0  0  0  0  0  0  0  0  0  0
   37.0070   26.9940   33.0120 N   0  0  0  0  0  0  0  0  0  0  0  0
   37.3320   25.7070   32.8220 C   0  0  0  0  0  0  0  0  0  0  0  0
   37.7310   24.9810   33.8800 N   0  0  0  0  0  0  0  0  0  0  0  0
   41.3918   23.0354   34.8650 H   0  0  0  0  0  0  0  0  0  0  0  0
   41.1508   25.1707   34.0643 H   0  0  0  0  0  0  0  0  0  0  0  0
   42.3111   27.2235   33.2312 H   0  0  0  0  0  0  0  0  0  0  0  0
   46.4676   27.4516   34.2373 H   0  0  0  0  0  0  0  0  0  0  0  0
   48.7445   27.8319   35.0721 H   0  0  0  0  0  0  0  0  0  0  0  0
   47.8976   25.2719   38.3113 H   0  0  0  0  0  0  0  0  0  0  0  0
   42.7385   22.0702   37.0374 H   0  0  0  0  0  0  0  0  0  0  0  0
   41.9050   23.5060   37.7216 H   0  0  0  0  0  0  0  0  0  0  0  0
   40.3863   21.3988   36.0618 H   0  0  0  0  0  0  0  0  0  0  0  0
   40.5705   21.1932   37.7934 H   0  0  0  0  0  0  0  0  0  0  0  0
   39.2844   22.6239   39.3206 H   0  0  0  0  0  0  0  0  0  0  0  0
   37.5688   24.4226   39.5458 H   0  0  0  0  0  0  0  0  0  0  0  0
   37.5442   27.2608   36.3134 H   0  0  0  0  0  0  0  0  0  0  0  0
   36.7888   28.6579   34.3557 H   0  0  0  0  0  0  0  0  0  0  0  0
   37.2732   25.2550   31.8209 H   0  0  0  0  0  0  0  0  0  0  0  0
  1 16  1  0
  2  1  1  0
  2  7  1  0
  3  2  2  0
  4  5  2  0
  4  3  1  0
  5  6  1  0
  6  7  2  0
  6  8  1  0
  8 14  1  0
  9 10  2  0
  9  8  1  0
 10 11  1  0
 11 12  2  0
 11 13  1  0
 14 13  1  0
 14 15  2  0
 16 17  1  0
 17 18  1  0
 18 19  2  0
 19 20  1  0
 21 20  2  0
 22 21  1  0
 23 22  2  0
 23 18  1  0
 24 25  2  0
 24 22  1  0
 26 25  1  0
 27 26  2  0
 28 27  1  0
 28 29  2  0
 29 24  1  0
  1 30  1  0
  3 31  1  0
  4 32  1  0
  9 33  1  0
 10 34  1  0
 13 35  1  0
 16 36  1  0
 16 37  1  0
 17 38  1  0
 17 39  1  0
 19 40  1  0
 20 41  1  0
 25 42  1  0
 26 43  1  0
 28 44  1  0
M  ISO  8  31  14  32  14  33  14  34  14  35   9  36   8  37   8  38   8
M  ISO  6  39   8  40  14  41  14  42  14  43  14  44  14
M  END
>  <minimizedAffinity>  (1) 
-5.9096756

>  <minimizedRMSD>  (1) 
1.15032947

$$$$
