
     RDKit          3D

 42 45  0  0  0  0  0  0  0  0999 V2000
   41.9390   23.3280   35.6210 N   0  0  0  0  0  0  0  0  0  0  0  0
   42.7090   24.4920   35.2660 C   0  0  0  0  0  0  0  0  0  0  0  0
   42.0640   25.2850   34.3510 C   0  0  0  0  0  0  0  0  0  0  0  0
   42.6770   26.4500   33.8570 C   0  0  0  0  0  0  0  0  0  0  0  0
   43.9220   26.8000   34.2860 N   0  0  0  0  0  0  0  0  0  0  0  0
   44.5330   25.9940   35.1930 C   0  0  0  0  0  0  0  0  0  0  0  0
   43.9770   24.8570   35.6980 N   0  0  0  0  0  0  0  0  0  0  0  0
   45.8190   26.1960   35.7600 N   0  0  0  0  0  0  0  0  0  0  0  0
   46.6400   27.0070   35.0490 C   0  0  0  0  0  0  0  0  0  0  0  0
   47.9040   27.2610   35.5230 C   0  0  0  0  0  0  0  0  0  0  0  0
   48.3470   26.6940   36.7230 C   0  0  0  0  0  0  0  0  0  0  0  0
   49.5130   26.9030   37.2010 O   0  0  0  0  0  0  0  0  0  0  0  0
   47.4820   25.8970   37.3820 N   0  0  0  0  0  0  0  0  0  0  0  0
   46.2430   25.6460   36.9230 C   0  0  0  0  0  0  0  0  0  0  0  0
   45.4030   24.9090   37.5050 O   0  0  0  0  0  0  0  0  0  0  0  0
   41.8670   22.6990   36.9330 C   0  0  0  0  0  0  0  0  0  0  0  0
   40.5420   21.9070   37.0470 C   0  0  0  0  0  0  0  0  0  0  0  0
   39.5270   22.9590   37.2290 C   0  0  0  0  0  0  0  0  0  0  0  0
   38.9810   23.2290   38.4790 C   0  0  0  0  0  0  0  0  0  0  0  0
   38.0460   24.2260   38.5970 C   0  0  0  0  0  0  0  0  0  0  0  0
   37.6830   24.9150   37.5000 N   0  0  0  0  0  0  0  0  0  0  0  0
   38.2340   24.6340   36.2720 C   0  0  0  0  0  0  0  0  0  0  0  0
   39.1120   23.6870   36.2000 N   0  0  0  0  0  0  0  0  0  0  0  0
   37.8720   25.3560   35.0510 C   0  0  0  0  0  0  0  0  0  0  0  0
   38.0120   24.9700   33.6380 C   0  0  0  0  0  0  0  0  0  0  0  0
   37.2830   26.5150   32.8180 S   0  0  0  0  0  0  0  0  0  0  0  0
   36.9660   27.2940   34.4130 C   0  0  0  0  0  0  0  0  0  0  0  0
   37.3330   26.5430   35.2820 N   0  0  0  0  0  0  0  0  0  0  0  0
   41.3820   22.8958   34.8701 H   0  0  0  0  0  0  0  0  0  0  0  0
   41.0589   25.0071   34.0009 H   0  0  0  0  0  0  0  0  0  0  0  0
   42.1512   27.0792   33.1238 H   0  0  0  0  0  0  0  0  0  0  0  0
   46.2985   27.4559   34.1046 H   0  0  0  0  0  0  0  0  0  0  0  0
   48.5763   27.9183   34.9521 H   0  0  0  0  0  0  0  0  0  0  0  0
   47.7806   25.4652   38.2682 H   0  0  0  0  0  0  0  0  0  0  0  0
   42.7175   22.0129   37.0590 H   0  0  0  0  0  0  0  0  0  0  0  0
   41.9037   23.4715   37.7152 H   0  0  0  0  0  0  0  0  0  0  0  0
   40.3494   21.3291   36.1311 H   0  0  0  0  0  0  0  0  0  0  0  0
   40.5505   21.1735   37.8667 H   0  0  0  0  0  0  0  0  0  0  0  0
   39.2944   22.6512   39.3610 H   0  0  0  0  0  0  0  0  0  0  0  0
   37.5994   24.4588   39.5749 H   0  0  0  0  0  0  0  0  0  0  0  0
   38.4205   24.0527   33.1889 H   0  0  0  0  0  0  0  0  0  0  0  0
   36.5148   28.2853   34.5670 H   0  0  0  0  0  0  0  0  0  0  0  0
  1 16  1  0
  2  1  1  0
  2  7  1  0
  3  2  2  0
  4  5  2  0
  4  3  1  0
  5  6  1  0
  6  7  2  0
  6  8  1  0
  8 14  1  0
  9 10  2  0
  9  8  1  0
 10 11  1  0
 11 12  2  0
 11 13  1  0
 14 13  1  0
 14 15  2  0
 16 17  1  0
 17 18  1  0
 18 19  2  0
 19 20  1  0
 21 20  2  0
 22 21  1  0
 23 22  2  0
 23 18  1  0
 24 28  1  0
 24 22  1  0
 25 24  2  0
 26 25  1  0
 26 27  1  0
 27 28  2  0
  1 29  1  0
  3 30  1  0
  4 31  1  0
  9 32  1  0
 10 33  1  0
 13 34  1  0
 16 35  1  0
 16 36  1  0
 17 37  1  0
 17 38  1  0
 19 39  1  0
 20 40  1  0
 25 41  1  0
 27 42  1  0
M  ISO  8  30  14  31  14  32  14  33  14  34   9  35   8  36   8  37   8
M  ISO  5  38   8  39  14  40  14  41  14  42  14
M  END
>  <minimizedAffinity>  (1) 
-5.62853479

>  <minimizedRMSD>  (1) 
1.04472017

$$$$
