
     RDKit          3D

 39 41  0  0  0  0  0  0  0  0999 V2000
   42.8030   24.4950   35.2940 C   0  0  0  0  0  0  0  0  0  0  0  0
   42.1200   25.3010   34.4170 C   0  0  0  0  0  0  0  0  0  0  0  0
   42.6980   26.4700   33.9210 C   0  0  0  0  0  0  0  0  0  0  0  0
   43.9630   26.8290   34.3080 N   0  0  0  0  0  0  0  0  0  0  0  0
   44.6090   26.0000   35.1850 C   0  0  0  0  0  0  0  0  0  0  0  0
   44.0860   24.8560   35.6890 N   0  0  0  0  0  0  0  0  0  0  0  0
   45.9040   26.2350   35.7130 N   0  0  0  0  0  0  0  0  0  0  0  0
   46.7040   27.0600   35.0220 C   0  0  0  0  0  0  0  0  0  0  0  0
   47.9510   27.3600   35.4770 C   0  0  0  0  0  0  0  0  0  0  0  0
   48.4180   26.8060   36.6840 C   0  0  0  0  0  0  0  0  0  0  0  0
   49.5720   27.0550   37.1560 O   0  0  0  0  0  0  0  0  0  0  0  0
   47.5840   25.9840   37.3420 N   0  0  0  0  0  0  0  0  0  0  0  0
   46.3520   25.6890   36.8880 C   0  0  0  0  0  0  0  0  0  0  0  0
   45.5400   24.9240   37.4740 O   0  0  0  0  0  0  0  0  0  0  0  0
   42.0540   23.3190   35.6630 N   0  0  0  0  0  0  0  0  0  0  0  0
   41.9380   22.7390   36.9910 C   0  0  0  0  0  0  0  0  0  0  0  0
   40.6220   21.9270   37.0820 C   0  0  0  0  0  0  0  0  0  0  0  0
   39.5900   22.9710   37.2480 C   0  0  0  0  0  0  0  0  0  0  0  0
   38.9880   23.2160   38.4770 C   0  0  0  0  0  0  0  0  0  0  0  0
   38.0400   24.2050   38.5570 C   0  0  0  0  0  0  0  0  0  0  0  0
   37.7240   24.9060   37.4370 N   0  0  0  0  0  0  0  0  0  0  0  0
   38.3280   24.6480   36.2390 C   0  0  0  0  0  0  0  0  0  0  0  0
   39.2210   23.7050   36.2020 N   0  0  0  0  0  0  0  0  0  0  0  0
   37.8860   25.4970   35.0790 C   0  0  0  0  0  0  0  0  0  0  0  0
   41.1040   25.0215   34.1014 H   0  0  0  0  0  0  0  0  0  0  0  0
   42.1378   27.1044   33.2184 H   0  0  0  0  0  0  0  0  0  0  0  0
   46.3487   27.4987   34.0779 H   0  0  0  0  0  0  0  0  0  0  0  0
   48.5965   28.0380   34.8994 H   0  0  0  0  0  0  0  0  0  0  0  0
   47.8994   25.5635   38.2278 H   0  0  0  0  0  0  0  0  0  0  0  0
   41.5476   22.8392   34.9052 H   0  0  0  0  0  0  0  0  0  0  0  0
   42.7939   22.0737   37.1774 H   0  0  0  0  0  0  0  0  0  0  0  0
   41.9289   23.5410   37.7438 H   0  0  0  0  0  0  0  0  0  0  0  0
   40.4521   21.3474   36.1626 H   0  0  0  0  0  0  0  0  0  0  0  0
   40.6256   21.1911   37.8996 H   0  0  0  0  0  0  0  0  0  0  0  0
   39.2655   22.6300   39.3656 H   0  0  0  0  0  0  0  0  0  0  0  0
   37.5436   24.4267   39.5133 H   0  0  0  0  0  0  0  0  0  0  0  0
   37.4088   26.4135   35.4562 H   0  0  0  0  0  0  0  0  0  0  0  0
   38.7596   25.7640   34.4662 H   0  0  0  0  0  0  0  0  0  0  0  0
   37.1663   24.9345   34.4662 H   0  0  0  0  0  0  0  0  0  0  0  0
  1 15  1  0
  1  6  1  0
  2  1  2  0
  3  4  2  0
  3  2  1  0
  4  5  1  0
  5  6  2  0
  5  7  1  0
  7 13  1  0
  8  9  2  0
  8  7  1  0
  9 10  1  0
 10 11  2  0
 10 12  1  0
 13 12  1  0
 13 14  2  0
 15 16  1  0
 16 17  1  0
 17 18  1  0
 18 19  2  0
 19 20  1  0
 21 20  2  0
 22 21  1  0
 23 22  2  0
 23 18  1  0
 24 22  1  0
  2 25  1  0
  3 26  1  0
  8 27  1  0
  9 28  1  0
 12 29  1  0
 15 30  1  0
 16 31  1  0
 16 32  1  0
 17 33  1  0
 17 34  1  0
 19 35  1  0
 20 36  1  0
 24 37  1  0
 24 38  1  0
 24 39  1  0
M  ISO  8  25  14  26  14  27  14  28  14  29   9  31   8  32   8  33   8
M  ISO  6  34   8  35  14  36  14  37   8  38   8  39   8
M  END
>  <minimizedAffinity>  (1) 
-5.03492594

>  <minimizedRMSD>  (1) 
0.499492735

$$$$
