
     RDKit          3D

 34 37  0  0  0  0  0  0  0  0999 V2000
   37.8110   23.1210   37.0220 C   0  0  0  0  0  0  0  0  0  0  0  0
   38.8400   23.9530   36.6050 C   0  0  0  0  0  0  0  0  0  0  0  0
   39.2520   23.8620   35.2820 C   0  0  0  0  0  0  0  0  0  0  0  0
   38.6160   22.9600   34.4810 N   0  0  0  0  0  0  0  0  0  0  0  0
   37.6170   22.1670   34.9260 C   0  0  0  0  0  0  0  0  0  0  0  0
   37.2200   22.2580   36.2100 N   0  0  0  0  0  0  0  0  0  0  0  0
   36.9790   21.2340   34.0480 N   0  0  0  0  0  0  0  0  0  0  0  0
   36.5980   21.6260   32.7440 C   0  0  0  0  0  0  0  0  0  0  0  0
   36.6900   22.8810   32.4080 N   0  0  0  0  0  0  0  0  0  0  0  0
   36.1160   20.6600   31.8000 N   0  0  0  0  0  0  0  0  0  0  0  0
   36.3970   23.1630   31.4530 H   0  0  0  0  0  0  0  0  0  0  0  0
   40.2870   24.6670   34.7730 N   0  0  0  0  0  0  0  0  0  0  0  0
   41.5670   24.6270   35.1840 C   0  0  0  0  0  0  0  0  0  0  0  0
   42.2950   25.5240   34.4940 N   0  0  0  0  0  0  0  0  0  0  0  0
   41.4400   26.1300   33.6370 C   0  0  0  0  0  0  0  0  0  0  0  0
   41.7270   27.1250   32.7230 C   0  0  0  0  0  0  0  0  0  0  0  0
   40.6790   27.5760   31.9670 N   0  0  0  0  0  0  0  0  0  0  0  0
   39.4470   27.0380   32.1500 C   0  0  0  0  0  0  0  0  0  0  0  0
   39.1650   26.0570   33.0530 N   0  0  0  0  0  0  0  0  0  0  0  0
   40.1720   25.5870   33.8180 C   0  0  0  0  0  0  0  0  0  0  0  0
   38.4440   27.5930   31.3030 N   0  0  0  0  0  0  0  0  0  0  0  0
   38.4220   28.2650   30.1380 C   0  0  0  0  0  0  0  0  0  0  0  0
   37.1520   28.5470   29.7970 N   0  0  0  0  0  0  0  0  0  0  0  0
   36.3730   28.0400   30.7700 C   0  0  0  0  0  0  0  0  0  0  0  0
   37.1660   27.4570   31.6910 N   0  0  0  0  0  0  0  0  0  0  0  0
   37.4732   23.1805   38.0672 H   0  0  0  0  0  0  0  0  0  0  0  0
   39.3141   24.6618   37.2999 H   0  0  0  0  0  0  0  0  0  0  0  0
   36.7965   20.2720   34.3677 H   0  0  0  0  0  0  0  0  0  0  0  0
   35.8415   20.9579   30.8530 H   0  0  0  0  0  0  0  0  0  0  0  0
   36.0443   19.6683   32.0690 H   0  0  0  0  0  0  0  0  0  0  0  0
   41.9597   23.9611   35.9665 H   0  0  0  0  0  0  0  0  0  0  0  0
   42.7423   27.5326   32.6089 H   0  0  0  0  0  0  0  0  0  0  0  0
   39.3103   28.5425   29.5516 H   0  0  0  0  0  0  0  0  0  0  0  0
   35.2749   28.0924   30.8075 H   0  0  0  0  0  0  0  0  0  0  0  0
  2  1  2  0
  3  2  1  0
  4  5  1  0
  4  3  2  0
  5  6  2  0
  6  1  1  0
  7  5  1  0
  8  7  1  0
  9  8  2  0
 10  8  1  0
 11  9  1  0
 12 13  1  0
 12  3  1  0
 14 13  2  0
 15 20  2  0
 15 14  1  0
 16 15  1  0
 17 18  1  0
 17 16  2  0
 18 19  2  0
 19 20  1  0
 20 12  1  0
 21 25  1  0
 21 18  1  0
 22 21  1  0
 23 22  2  0
 23 24  1  0
 24 25  2  0
  1 26  1  0
  2 27  1  0
  7 28  1  0
 10 29  1  0
 10 30  1  0
 13 31  1  0
 16 32  1  0
 22 33  1  0
 24 34  1  0
M  ISO  6  26  14  27  14  31  14  32  14  33  14  34  14
M  END
>  <minimizedAffinity>  (1) 
-5.10705137

>  <minimizedRMSD>  (1) 
4.54596949

$$$$
