
     RDKit          3D

 44 47  0  0  0  0  0  0  0  0999 V2000
   42.0590   22.7610   36.9950 C   0  0  0  0  0  0  0  0  0  0  0  0
   40.7270   21.9750   36.9940 C   0  0  0  0  0  0  0  0  0  0  0  0
   39.7070   23.0400   37.1050 C   0  0  0  0  0  0  0  0  0  0  0  0
   38.8990   23.1610   38.2260 C   0  0  0  0  0  0  0  0  0  0  0  0
   37.9800   24.1660   38.2630 C   0  0  0  0  0  0  0  0  0  0  0  0
   37.8850   25.0130   37.2090 N   0  0  0  0  0  0  0  0  0  0  0  0
   38.6900   24.8830   36.1050 C   0  0  0  0  0  0  0  0  0  0  0  0
   39.5530   23.9140   36.1060 N   0  0  0  0  0  0  0  0  0  0  0  0
   38.5000   25.8770   34.9990 C   0  0  0  0  0  0  0  0  0  0  0  0
   37.7710   25.2680   33.8500 C   0  0  0  0  0  0  0  0  0  0  0  0
   36.9040   25.8380   32.9950 N   0  0  0  0  0  0  0  0  0  0  0  0
   36.4900   24.9420   32.1250 O   0  0  0  0  0  0  0  0  0  0  0  0
   37.0750   23.7990   32.4020 C   0  0  0  0  0  0  0  0  0  0  0  0
   37.8770   23.9650   33.4670 N   0  0  0  0  0  0  0  0  0  0  0  0
   42.3490   23.2330   35.6580 N   0  0  0  0  0  0  0  0  0  0  0  0
   43.0620   24.4400   35.2830 C   0  0  0  0  0  0  0  0  0  0  0  0
   42.3440   25.2490   34.4300 C   0  0  0  0  0  0  0  0  0  0  0  0
   42.8870   26.4430   33.9690 C   0  0  0  0  0  0  0  0  0  0  0  0
   44.1440   26.8270   34.3580 N   0  0  0  0  0  0  0  0  0  0  0  0
   44.8250   25.9830   35.2140 C   0  0  0  0  0  0  0  0  0  0  0  0
   44.3390   24.8220   35.6840 N   0  0  0  0  0  0  0  0  0  0  0  0
   46.1130   26.2680   35.7130 N   0  0  0  0  0  0  0  0  0  0  0  0
   46.8850   27.1180   35.0350 C   0  0  0  0  0  0  0  0  0  0  0  0
   48.1290   27.4490   35.5100 C   0  0  0  0  0  0  0  0  0  0  0  0
   48.6040   26.9030   36.7050 C   0  0  0  0  0  0  0  0  0  0  0  0
   49.7360   27.1820   37.1820 O   0  0  0  0  0  0  0  0  0  0  0  0
   47.8050   26.0550   37.3530 N   0  0  0  0  0  0  0  0  0  0  0  0
   46.5770   25.7210   36.8960 C   0  0  0  0  0  0  0  0  0  0  0  0
   45.7910   24.9230   37.4780 O   0  0  0  0  0  0  0  0  0  0  0  0
   41.9755   23.6208   37.6760 H   0  0  0  0  0  0  0  0  0  0  0  0
   42.8713   22.1000   37.3317 H   0  0  0  0  0  0  0  0  0  0  0  0
   40.6046   21.4072   36.0598 H   0  0  0  0  0  0  0  0  0  0  0  0
   40.6641   21.2311   37.8019 H   0  0  0  0  0  0  0  0  0  0  0  0
   38.9983   22.4599   39.0678 H   0  0  0  0  0  0  0  0  0  0  0  0
   37.3235   24.2886   39.1370 H   0  0  0  0  0  0  0  0  0  0  0  0
   37.9213   26.7316   35.3794 H   0  0  0  0  0  0  0  0  0  0  0  0
   39.4902   26.2054   34.6502 H   0  0  0  0  0  0  0  0  0  0  0  0
   36.9314   22.8579   31.8510 H   0  0  0  0  0  0  0  0  0  0  0  0
   42.0103   22.6445   34.8835 H   0  0  0  0  0  0  0  0  0  0  0  0
   41.3349   24.9485   34.1116 H   0  0  0  0  0  0  0  0  0  0  0  0
   42.3051   27.0825   33.2889 H   0  0  0  0  0  0  0  0  0  0  0  0
   46.5236   27.5550   34.0924 H   0  0  0  0  0  0  0  0  0  0  0  0
   48.7587   28.1514   34.9442 H   0  0  0  0  0  0  0  0  0  0  0  0
   48.1356   25.6385   38.2351 H   0  0  0  0  0  0  0  0  0  0  0  0
  2  1  1  0
  2  3  1  0
  3  4  2  0
  4  5  1  0
  6  5  2  0
  7  8  2  0
  7  6  1  0
  8  3  1  0
  9  7  1  0
 10  9  1  0
 11 10  2  0
 12 13  1  0
 12 11  1  0
 13 14  2  0
 14 10  1  0
 15  1  1  0
 16 15  1  0
 16 21  1  0
 17 16  2  0
 18 19  2  0
 18 17  1  0
 19 20  1  0
 20 21  2  0
 20 22  1  0
 22 28  1  0
 23 24  2  0
 23 22  1  0
 24 25  1  0
 25 26  2  0
 25 27  1  0
 28 27  1  0
 28 29  2  0
  1 30  1  0
  1 31  1  0
  2 32  1  0
  2 33  1  0
  4 34  1  0
  5 35  1  0
  9 36  1  0
  9 37  1  0
 13 38  1  0
 15 39  1  0
 17 40  1  0
 18 41  1  0
 23 42  1  0
 24 43  1  0
 27 44  1  0
M  ISO  8  30   8  31   8  32   8  33   8  34  14  35  14  36   8  37   8
M  ISO  6  38  14  40  14  41  14  42  14  43  14  44   9
M  END
>  <minimizedAffinity>  (1) 
-5.39469385

>  <minimizedRMSD>  (1) 
0.762381971

$$$$
