
     RDKit          3D

 40 42  0  0  0  0  0  0  0  0999 V2000
   42.2030   23.2690   35.6800 N   0  0  0  0  0  0  0  0  0  0  0  0
   42.9170   24.4570   35.2740 C   0  0  0  0  0  0  0  0  0  0  0  0
   42.2070   25.2350   34.3830 C   0  0  0  0  0  0  0  0  0  0  0  0
   42.7480   26.4190   33.8810 C   0  0  0  0  0  0  0  0  0  0  0  0
   43.9990   26.8270   34.2680 N   0  0  0  0  0  0  0  0  0  0  0  0
   44.6740   26.0210   35.1610 C   0  0  0  0  0  0  0  0  0  0  0  0
   44.1840   24.8690   35.6680 N   0  0  0  0  0  0  0  0  0  0  0  0
   45.9530   26.3250   35.6620 N   0  0  0  0  0  0  0  0  0  0  0  0
   46.7310   27.1530   34.9690 C   0  0  0  0  0  0  0  0  0  0  0  0
   47.9700   27.4990   35.4290 C   0  0  0  0  0  0  0  0  0  0  0  0
   48.4440   26.9860   36.6400 C   0  0  0  0  0  0  0  0  0  0  0  0
   49.5800   27.2770   37.1110 O   0  0  0  0  0  0  0  0  0  0  0  0
   47.6420   26.1570   37.3120 N   0  0  0  0  0  0  0  0  0  0  0  0
   46.4170   25.8140   36.8590 C   0  0  0  0  0  0  0  0  0  0  0  0
   45.6290   25.0310   37.4670 O   0  0  0  0  0  0  0  0  0  0  0  0
   42.0470   22.7600   37.0340 C   0  0  0  0  0  0  0  0  0  0  0  0
   40.7660   21.8970   37.1230 C   0  0  0  0  0  0  0  0  0  0  0  0
   39.6880   22.9030   37.1570 C   0  0  0  0  0  0  0  0  0  0  0  0
   39.0170   23.2200   38.3350 C   0  0  0  0  0  0  0  0  0  0  0  0
   38.0320   24.1600   38.2910 C   0  0  0  0  0  0  0  0  0  0  0  0
   37.7380   24.7530   37.1060 N   0  0  0  0  0  0  0  0  0  0  0  0
   38.4120   24.4270   35.9540 C   0  0  0  0  0  0  0  0  0  0  0  0
   39.3370   23.5310   36.0420 N   0  0  0  0  0  0  0  0  0  0  0  0
   37.9840   25.1540   34.7180 C   0  0  0  0  0  0  0  0  0  0  0  0
   38.2290   23.9470   33.3570 S   0  0  0  0  0  0  0  0  0  0  0  0
   41.7558   22.7230   34.9298 H   0  0  0  0  0  0  0  0  0  0  0  0
   41.2028   24.9182   34.0647 H   0  0  0  0  0  0  0  0  0  0  0  0
   42.1686   27.0281   33.1716 H   0  0  0  0  0  0  0  0  0  0  0  0
   46.3720   27.5639   34.0139 H   0  0  0  0  0  0  0  0  0  0  0  0
   48.5986   28.1855   34.8428 H   0  0  0  0  0  0  0  0  0  0  0  0
   47.9688   25.7655   38.2069 H   0  0  0  0  0  0  0  0  0  0  0  0
   42.9207   22.1454   37.2964 H   0  0  0  0  0  0  0  0  0  0  0  0
   41.9659   23.6051   37.7335 H   0  0  0  0  0  0  0  0  0  0  0  0
   40.6684   21.2429   36.2440 H   0  0  0  0  0  0  0  0  0  0  0  0
   40.7573   21.2237   37.9928 H   0  0  0  0  0  0  0  0  0  0  0  0
   39.2766   22.7221   39.2809 H   0  0  0  0  0  0  0  0  0  0  0  0
   37.4824   24.4347   39.2034 H   0  0  0  0  0  0  0  0  0  0  0  0
   36.9268   25.4494   34.7885 H   0  0  0  0  0  0  0  0  0  0  0  0
   38.5571   26.0796   34.5608 H   0  0  0  0  0  0  0  0  0  0  0  0
   38.4805   22.7081   33.8851 H   0  0  0  0  0  0  0  0  0  0  0  0
  1 16  1  0
  2  7  1  0
  2  1  1  0
  3  2  2  0
  4  5  2  0
  4  3  1  0
  5  6  1  0
  6  8  1  0
  6  7  2  0
  8 14  1  0
  9 10  2  0
  9  8  1  0
 10 11  1  0
 11 12  2  0
 11 13  1  0
 14 13  1  0
 14 15  2  0
 16 17  1  0
 17 18  1  0
 18 19  2  0
 20 19  1  0
 21 20  2  0
 22 23  2  0
 22 21  1  0
 23 18  1  0
 24 22  1  0
 25 24  1  0
  1 26  1  0
  3 27  1  0
  4 28  1  0
  9 29  1  0
 10 30  1  0
 13 31  1  0
 16 32  1  0
 16 33  1  0
 17 34  1  0
 17 35  1  0
 19 36  1  0
 20 37  1  0
 24 38  1  0
 24 39  1  0
 25 40  1  0
M  ISO  8  27  14  28  14  29  14  30  14  31   9  32   8  33   8  34   8
M  ISO  6  35   8  36  14  37  14  38   8  39   8  40  11
M  END
>  <minimizedAffinity>  (1) 
-4.93583632

>  <minimizedRMSD>  (1) 
0.466785431

$$$$
