
     RDKit          3D

 47 50  0  0  0  0  0  0  0  0999 V2000
   42.2660   22.8010   37.1700 C   0  0  0  0  0  0  0  0  0  0  0  0
   41.1240   21.7660   37.2750 C   0  0  0  0  0  0  0  0  0  0  0  0
   39.9070   22.5870   37.0450 C   0  0  0  0  0  0  0  0  0  0  0  0
   39.2270   23.1730   38.0960 C   0  0  0  0  0  0  0  0  0  0  0  0
   38.1150   23.9090   37.8130 C   0  0  0  0  0  0  0  0  0  0  0  0
   37.7130   24.0410   36.5110 N   0  0  0  0  0  0  0  0  0  0  0  0
   38.4140   23.4430   35.4880 C   0  0  0  0  0  0  0  0  0  0  0  0
   39.4580   22.7580   35.8120 N   0  0  0  0  0  0  0  0  0  0  0  0
   37.8490   23.6610   34.1310 C   0  0  0  0  0  0  0  0  0  0  0  0
   38.0240   25.0010   33.5860 C   0  0  0  0  0  0  0  0  0  0  0  0
   36.9830   25.3260   32.7070 C   0  0  0  0  0  0  0  0  0  0  0  0
   36.9080   26.5460   32.0440 C   0  0  0  0  0  0  0  0  0  0  0  0
   37.8830   27.4570   32.2570 N   0  0  0  0  0  0  0  0  0  0  0  0
   38.8860   27.1500   33.1010 C   0  0  0  0  0  0  0  0  0  0  0  0
   38.9440   25.9670   33.7350 N   0  0  0  0  0  0  0  0  0  0  0  0
   42.2890   23.3850   35.8460 N   0  0  0  0  0  0  0  0  0  0  0  0
   43.0290   24.5500   35.4110 C   0  0  0  0  0  0  0  0  0  0  0  0
   42.3360   25.3140   34.5040 C   0  0  0  0  0  0  0  0  0  0  0  0
   42.8990   26.4650   33.9780 C   0  0  0  0  0  0  0  0  0  0  0  0
   44.1640   26.8660   34.3530 N   0  0  0  0  0  0  0  0  0  0  0  0
   44.8180   26.0690   35.2650 C   0  0  0  0  0  0  0  0  0  0  0  0
   44.3040   24.9450   35.7970 N   0  0  0  0  0  0  0  0  0  0  0  0
   46.1070   26.3540   35.7550 N   0  0  0  0  0  0  0  0  0  0  0  0
   46.8970   27.1560   35.0350 C   0  0  0  0  0  0  0  0  0  0  0  0
   48.1520   27.4740   35.4880 C   0  0  0  0  0  0  0  0  0  0  0  0
   48.6220   26.9680   36.7030 C   0  0  0  0  0  0  0  0  0  0  0  0
   49.7720   27.2420   37.1550 O   0  0  0  0  0  0  0  0  0  0  0  0
   47.8040   26.1700   37.3920 N   0  0  0  0  0  0  0  0  0  0  0  0
   46.5700   25.8520   36.9550 C   0  0  0  0  0  0  0  0  0  0  0  0
   45.7680   25.0990   37.5800 O   0  0  0  0  0  0  0  0  0  0  0  0
   42.1071   23.5947   37.9148 H   0  0  0  0  0  0  0  0  0  0  0  0
   43.2259   22.2977   37.3577 H   0  0  0  0  0  0  0  0  0  0  0  0
   41.2256   20.9857   36.5064 H   0  0  0  0  0  0  0  0  0  0  0  0
   41.1108   21.2309   38.2360 H   0  0  0  0  0  0  0  0  0  0  0  0
   39.5737   23.0489   39.1325 H   0  0  0  0  0  0  0  0  0  0  0  0
   37.5469   24.3916   38.6220 H   0  0  0  0  0  0  0  0  0  0  0  0
   38.3324   22.9503   33.4446 H   0  0  0  0  0  0  0  0  0  0  0  0
   36.7632   23.5145   34.2291 H   0  0  0  0  0  0  0  0  0  0  0  0
   36.1901   24.5836   32.5336 H   0  0  0  0  0  0  0  0  0  0  0  0
   36.0736   26.7646   31.3614 H   0  0  0  0  0  0  0  0  0  0  0  0
   39.6812   27.8894   33.2766 H   0  0  0  0  0  0  0  0  0  0  0  0
   41.7126   22.9179   35.1315 H   0  0  0  0  0  0  0  0  0  0  0  0
   41.3259   25.0093   34.1929 H   0  0  0  0  0  0  0  0  0  0  0  0
   42.3306   27.0660   33.2529 H   0  0  0  0  0  0  0  0  0  0  0  0
   46.5401   27.5620   34.0770 H   0  0  0  0  0  0  0  0  0  0  0  0
   48.7956   28.1345   34.8884 H   0  0  0  0  0  0  0  0  0  0  0  0
   48.1277   25.7833   38.2901 H   0  0  0  0  0  0  0  0  0  0  0  0
  1  2  1  0
  3  2  1  0
  3  4  2  0
  5  4  1  0
  6  5  2  0
  7  8  2  0
  7  6  1  0
  8  3  1  0
  9  7  1  0
 10 15  1  0
 10  9  1  0
 11 10  2  0
 12 13  2  0
 12 11  1  0
 13 14  1  0
 14 15  2  0
 16  1  1  0
 17 22  1  0
 17 16  1  0
 18 17  2  0
 19 20  2  0
 19 18  1  0
 20 21  1  0
 21 23  1  0
 21 22  2  0
 23 29  1  0
 24 25  2  0
 24 23  1  0
 25 26  1  0
 26 27  2  0
 26 28  1  0
 29 28  1  0
 29 30  2  0
  1 31  1  0
  1 32  1  0
  2 33  1  0
  2 34  1  0
  4 35  1  0
  5 36  1  0
  9 37  1  0
  9 38  1  0
 11 39  1  0
 12 40  1  0
 14 41  1  0
 16 42  1  0
 18 43  1  0
 19 44  1  0
 24 45  1  0
 25 46  1  0
 28 47  1  0
M  ISO  8  31   8  32   8  33   8  34   8  35  14  36  14  37   8  38   8
M  ISO  8  39  14  40  14  41  14  43  14  44  14  45  14  46  14  47   9
M  END
>  <minimizedAffinity>  (1) 
-5.38456249

>  <minimizedRMSD>  (1) 
1.52069485

$$$$
