
     RDKit          3D

 45 48  0  0  0  0  0  0  0  0999 V2000
   42.2950   22.8780   37.1160 C   0  0  0  0  0  0  0  0  0  0  0  0
   41.2090   21.7770   37.1870 C   0  0  0  0  0  0  0  0  0  0  0  0
   39.9530   22.5280   36.9340 C   0  0  0  0  0  0  0  0  0  0  0  0
   39.2520   23.1330   37.9570 C   0  0  0  0  0  0  0  0  0  0  0  0
   38.1050   23.7990   37.6500 C   0  0  0  0  0  0  0  0  0  0  0  0
   37.6920   23.8430   36.3440 N   0  0  0  0  0  0  0  0  0  0  0  0
   38.4130   23.2300   35.3460 C   0  0  0  0  0  0  0  0  0  0  0  0
   39.4920   22.6130   35.6910 N   0  0  0  0  0  0  0  0  0  0  0  0
   37.8260   23.3590   33.9890 C   0  0  0  0  0  0  0  0  0  0  0  0
   37.8400   24.7410   33.4510 C   0  0  0  0  0  0  0  0  0  0  0  0
   38.7450   25.8570   33.7160 C   0  0  0  0  0  0  0  0  0  0  0  0
   38.0040   27.1790   32.6590 S   0  0  0  0  0  0  0  0  0  0  0  0
   36.6480   26.0370   32.0610 C   0  0  0  0  0  0  0  0  0  0  0  0
   36.8490   24.9690   32.6150 N   0  0  0  0  0  0  0  0  0  0  0  0
   42.2200   23.5480   35.8420 N   0  0  0  0  0  0  0  0  0  0  0  0
   42.9960   24.6870   35.3810 C   0  0  0  0  0  0  0  0  0  0  0  0
   42.3370   25.4540   34.4580 C   0  0  0  0  0  0  0  0  0  0  0  0
   42.9520   26.5830   33.9210 C   0  0  0  0  0  0  0  0  0  0  0  0
   44.2210   26.9430   34.3070 N   0  0  0  0  0  0  0  0  0  0  0  0
   44.8410   26.1400   35.2380 C   0  0  0  0  0  0  0  0  0  0  0  0
   44.2900   25.0340   35.7900 N   0  0  0  0  0  0  0  0  0  0  0  0
   46.1340   26.3950   35.7380 N   0  0  0  0  0  0  0  0  0  0  0  0
   46.9510   27.1740   35.0340 C   0  0  0  0  0  0  0  0  0  0  0  0
   48.2030   27.4650   35.4730 C   0  0  0  0  0  0  0  0  0  0  0  0
   48.6580   26.9350   36.7030 C   0  0  0  0  0  0  0  0  0  0  0  0
   49.8160   27.1710   37.1670 O   0  0  0  0  0  0  0  0  0  0  0  0
   47.8070   26.1500   37.3910 N   0  0  0  0  0  0  0  0  0  0  0  0
   46.5730   25.8740   36.9390 C   0  0  0  0  0  0  0  0  0  0  0  0
   45.7420   25.1390   37.5570 O   0  0  0  0  0  0  0  0  0  0  0  0
   42.1311   23.6069   37.9234 H   0  0  0  0  0  0  0  0  0  0  0  0
   43.2885   22.4199   37.2305 H   0  0  0  0  0  0  0  0  0  0  0  0
   41.3729   21.0100   36.4158 H   0  0  0  0  0  0  0  0  0  0  0  0
   41.2040   21.2349   38.1441 H   0  0  0  0  0  0  0  0  0  0  0  0
   39.6112   23.0785   38.9953 H   0  0  0  0  0  0  0  0  0  0  0  0
   37.5187   24.2942   38.4381 H   0  0  0  0  0  0  0  0  0  0  0  0
   38.3970   22.7158   33.3033 H   0  0  0  0  0  0  0  0  0  0  0  0
   36.7701   23.0617   34.0711 H   0  0  0  0  0  0  0  0  0  0  0  0
   39.6293   25.8989   34.3689 H   0  0  0  0  0  0  0  0  0  0  0  0
   35.8383   26.2784   31.3567 H   0  0  0  0  0  0  0  0  0  0  0  0
   41.5305   23.1727   35.1752 H   0  0  0  0  0  0  0  0  0  0  0  0
   41.3206   25.1785   34.1400 H   0  0  0  0  0  0  0  0  0  0  0  0
   42.4157   27.1933   33.1795 H   0  0  0  0  0  0  0  0  0  0  0  0
   46.6054   27.5911   34.0766 H   0  0  0  0  0  0  0  0  0  0  0  0
   48.8613   28.1111   34.8736 H   0  0  0  0  0  0  0  0  0  0  0  0
   48.1115   25.7498   38.2899 H   0  0  0  0  0  0  0  0  0  0  0  0
  1  2  1  0
  3  2  1  0
  3  4  2  0
  5  4  1  0
  6  5  2  0
  7  8  2  0
  7  6  1  0
  8  3  1  0
  9  7  1  0
 10 11  2  0
 10  9  1  0
 12 11  1  0
 13 14  2  0
 13 12  1  0
 14 10  1  0
 15  1  1  0
 16 21  1  0
 16 15  1  0
 17 16  2  0
 18 19  2  0
 18 17  1  0
 19 20  1  0
 20 22  1  0
 20 21  2  0
 22 28  1  0
 23 24  2  0
 23 22  1  0
 24 25  1  0
 25 26  2  0
 25 27  1  0
 28 27  1  0
 28 29  2  0
  1 30  1  0
  1 31  1  0
  2 32  1  0
  2 33  1  0
  4 34  1  0
  5 35  1  0
  9 36  1  0
  9 37  1  0
 11 38  1  0
 13 39  1  0
 15 40  1  0
 17 41  1  0
 18 42  1  0
 23 43  1  0
 24 44  1  0
 27 45  1  0
M  ISO  8  30   8  31   8  32   8  33   8  34  14  35  14  36   8  37   8
M  ISO  7  38  14  39  14  41  14  42  14  43  14  44  14  45   9
M  END
>  <minimizedAffinity>  (1) 
-5.23288631

>  <minimizedRMSD>  (1) 
1.58873105

$$$$
