
     RDKit          3D

 33 35  0  0  1  0  0  0  0  0999 V2000
   39.6340   22.5380   37.1920 C   0  0  0  0  0  0  0  0  0  0  0  0
   38.9230   23.6290   36.6950 C   0  0  0  0  0  0  0  0  0  0  0  0
   39.5630   24.5100   35.8270 C   0  0  0  0  0  0  0  0  0  0  0  0
   40.8640   24.2410   35.5180 N   0  0  0  0  0  0  0  0  0  0  0  0
   41.5380   23.1800   36.0080 C   0  0  0  0  0  0  0  0  0  0  0  0
   40.9280   22.3290   36.8440 N   0  0  0  0  0  0  0  0  0  0  0  0
   38.9350   25.6350   35.2720 N   0  0  0  0  0  0  0  0  0  0  0  0
   39.2800   27.0560   35.3810 C   0  0  0  0  0  0  0  0  0  0  0  0
   37.8630   27.6230   35.5470 C   0  0  0  0  0  0  0  0  0  0  0  0
   37.2350   26.9910   34.3170 C   0  0  0  0  0  0  0  0  0  0  0  0
   37.7590   25.5640   34.4430 C   0  0  1  0  0  0  0  0  0  0  0  0
   37.9890   25.0450   33.1340 N   0  0  0  0  0  0  0  0  0  0  0  0
   38.0160   23.7850   32.7060 C   0  0  0  0  0  0  0  0  0  0  0  0
   38.2580   23.4700   31.3860 C   0  0  0  0  0  0  0  0  0  0  0  0
   38.4860   24.4930   30.4580 C   0  0  0  0  0  0  0  0  0  0  0  0
   38.7380   24.1890   29.0920 N   0  0  0  0  0  0  0  0  0  0  0  0
   38.4540   25.7700   30.9160 N   0  0  0  0  0  0  0  0  0  0  0  0
   38.2090   26.0220   32.2360 C   0  0  0  0  0  0  0  0  0  0  0  0
   38.2290   27.2760   32.4250 O   0  0  0  0  0  0  0  0  0  0  0  0
   39.1376   21.8353   37.8774 H   0  0  0  0  0  0  0  0  0  0  0  0
   37.8740   23.7913   36.9836 H   0  0  0  0  0  0  0  0  0  0  0  0
   42.5870   23.0138   35.7216 H   0  0  0  0  0  0  0  0  0  0  0  0
   39.9140   27.2625   36.2559 H   0  0  0  0  0  0  0  0  0  0  0  0
   39.8653   27.4705   34.5470 H   0  0  0  0  0  0  0  0  0  0  0  0
   37.3857   27.2848   36.4786 H   0  0  0  0  0  0  0  0  0  0  0  0
   37.7872   28.7181   35.6182 H   0  0  0  0  0  0  0  0  0  0  0  0
   37.5827   27.4715   33.3906 H   0  0  0  0  0  0  0  0  0  0  0  0
   36.1394   27.0753   34.2657 H   0  0  0  0  0  0  0  0  0  0  0  0
   37.0501   24.8696   34.9177 H   0  0  0  0  0  0  0  0  0  0  0  0
   37.8402   22.9721   33.4259 H   0  0  0  0  0  0  0  0  0  0  0  0
   38.2719   22.4186   31.0630 H   0  0  0  0  0  0  0  0  0  0  0  0
   38.7554   23.2084   28.7774 H   0  0  0  0  0  0  0  0  0  0  0  0
   38.9032   24.9494   28.4172 H   0  0  0  0  0  0  0  0  0  0  0  0
  2  1  2  0
  3  2  1  0
  4  3  2  0
  4  5  1  0
  5  6  2  0
  6  1  1  0
  7  8  1  0
  7  3  1  0
  8  9  1  0
 10 11  1  0
 10  9  1  0
 11  7  1  0
 12 11  1  0
 13 12  1  0
 14 13  2  0
 15 17  2  0
 15 14  1  0
 16 15  1  0
 17 18  1  0
 18 19  2  0
 18 12  1  0
  1 20  1  0
  2 21  1  0
  5 22  1  0
  8 23  1  0
  8 24  1  0
  9 25  1  0
  9 26  1  0
 10 27  1  0
 10 28  1  0
 11 29  1  1
 13 30  1  0
 14 31  1  0
 16 32  1  0
 16 33  1  0
M  ISO  8  20  14  21  14  22  14  23  13  24  13  25  13  26  13  27  13
M  ISO  4  28  13  29  13  30  14  31  14
M  END
>  <minimizedAffinity>  (1) 
-4.82313013

>  <minimizedRMSD>  (1) 
1.03032529

$$$$
