
     RDKit          3D

 38 41  0  0  1  0  0  0  0  0999 V2000
   41.0880   21.9030   37.2230 C   0  0  0  0  0  0  0  0  0  0  0  0
   40.3270   23.0570   36.9800 C   0  0  0  0  0  0  0  0  0  0  0  0
   40.4430   23.6480   35.7010 C   0  0  0  0  0  0  0  0  0  0  0  0
   41.2800   23.0600   34.7970 N   0  0  0  0  0  0  0  0  0  0  0  0
   41.9900   21.9490   35.0790 C   0  0  0  0  0  0  0  0  0  0  0  0
   41.8920   21.3730   36.2920 N   0  0  0  0  0  0  0  0  0  0  0  0
   39.7280   24.8160   35.3320 N   0  0  0  0  0  0  0  0  0  0  0  0
   40.2150   26.1130   34.9150 C   0  0  0  0  0  0  0  0  0  0  0  0
   39.2170   26.9820   35.6920 C   0  0  0  0  0  0  0  0  0  0  0  0
   37.9330   26.3460   35.1800 C   0  0  0  0  0  0  0  0  0  0  0  0
   38.2630   24.8610   35.3270 C   0  0  1  0  0  0  0  0  0  0  0  0
   37.7540   24.0740   34.1750 C   0  0  0  0  0  0  0  0  0  0  0  0
   37.8500   22.6950   34.1080 C   0  0  0  0  0  0  0  0  0  0  0  0
   37.3830   21.9400   33.0480 C   0  0  0  0  0  0  0  0  0  0  0  0
   36.7870   22.5610   31.9880 C   0  0  0  0  0  0  0  0  0  0  0  0
   36.6640   23.9270   31.9970 C   0  0  0  0  0  0  0  0  0  0  0  0
   36.0600   24.5490   30.9190 C   0  0  0  0  0  0  0  0  0  0  0  0
   35.9140   25.9230   30.8850 C   0  0  0  0  0  0  0  0  0  0  0  0
   36.3860   26.6630   31.9530 C   0  0  0  0  0  0  0  0  0  0  0  0
   36.9870   26.0030   33.0170 C   0  0  0  0  0  0  0  0  0  0  0  0
   37.1420   24.6440   33.0720 C   0  0  0  0  0  0  0  0  0  0  0  0
   41.0221   21.4188   38.2085 H   0  0  0  0  0  0  0  0  0  0  0  0
   39.6687   23.4832   37.7514 H   0  0  0  0  0  0  0  0  0  0  0  0
   42.6510   21.5121   34.3160 H   0  0  0  0  0  0  0  0  0  0  0  0
   41.2537   26.2886   35.2316 H   0  0  0  0  0  0  0  0  0  0  0  0
   40.2578   26.2841   33.8292 H   0  0  0  0  0  0  0  0  0  0  0  0
   39.3299   26.8729   36.7807 H   0  0  0  0  0  0  0  0  0  0  0  0
   39.3081   28.0683   35.5447 H   0  0  0  0  0  0  0  0  0  0  0  0
   37.7397   26.6148   34.1310 H   0  0  0  0  0  0  0  0  0  0  0  0
   37.0257   26.6635   35.7147 H   0  0  0  0  0  0  0  0  0  0  0  0
   37.8043   24.4333   36.2307 H   0  0  0  0  0  0  0  0  0  0  0  0
   38.3262   22.1682   34.9481 H   0  0  0  0  0  0  0  0  0  0  0  0
   37.4910   20.8454   33.0586 H   0  0  0  0  0  0  0  0  0  0  0  0
   36.4104   21.9733   31.1378 H   0  0  0  0  0  0  0  0  0  0  0  0
   35.6914   23.9426   30.0785 H   0  0  0  0  0  0  0  0  0  0  0  0
   35.4331   26.4165   30.0275 H   0  0  0  0  0  0  0  0  0  0  0  0
   36.2870   27.7585   31.9600 H   0  0  0  0  0  0  0  0  0  0  0  0
   37.3581   26.6041   33.8602 H   0  0  0  0  0  0  0  0  0  0  0  0
  2  1  2  0
  3  2  1  0
  4  5  1  0
  4  3  2  0
  5  6  2  0
  6  1  1  0
  7  3  1  0
  8  7  1  0
  8  9  1  0
 10 11  1  0
 10  9  1  0
 11  7  1  0
 12 11  1  0
 13 12  2  0
 14 13  1  0
 15 16  1  0
 15 14  2  0
 16 21  2  0
 17 16  1  0
 18 17  2  0
 18 19  1  0
 19 20  2  0
 20 21  1  0
 21 12  1  0
  1 22  1  0
  2 23  1  0
  5 24  1  0
  8 25  1  0
  8 26  1  0
  9 27  1  0
  9 28  1  0
 10 29  1  0
 10 30  1  0
 11 31  1  1
 13 32  1  0
 14 33  1  0
 15 34  1  0
 17 35  1  0
 18 36  1  0
 19 37  1  0
 20 38  1  0
M  ISO  8  22  14  23  14  24  14  25  13  26  13  27  13  28  13  29  13
M  ISO  8  30  13  31  13  32  14  33  14  34  14  35  14  36  14  37  14
M  ISO  1  38  14
M  END
>  <minimizedAffinity>  (1) 
-5.11545134

>  <minimizedRMSD>  (1) 
1.06320453

$$$$
