
     RDKit          3D

 36 39  0  0  1  0  0  0  0  0999 V2000
   41.1450   21.7990   37.4660 C   0  0  0  0  0  0  0  0  0  0  0  0
   40.4660   22.9830   37.1090 C   0  0  0  0  0  0  0  0  0  0  0  0
   40.6220   23.4080   35.7730 C   0  0  0  0  0  0  0  0  0  0  0  0
   41.4030   22.6730   34.9040 N   0  0  0  0  0  0  0  0  0  0  0  0
   42.0240   21.5420   35.3250 C   0  0  0  0  0  0  0  0  0  0  0  0
   41.8960   21.1110   36.5950 N   0  0  0  0  0  0  0  0  0  0  0  0
   39.9960   24.5800   35.2750 N   0  0  0  0  0  0  0  0  0  0  0  0
   40.5820   25.7910   34.6990 C   0  0  0  0  0  0  0  0  0  0  0  0
   39.6820   26.8240   35.3870 C   0  0  0  0  0  0  0  0  0  0  0  0
   38.3330   26.2510   34.9820 C   0  0  0  0  0  0  0  0  0  0  0  0
   38.5610   24.7670   35.2630 C   0  0  1  0  0  0  0  0  0  0  0  0
   38.0150   23.9340   34.1650 C   0  0  0  0  0  0  0  0  0  0  0  0
   38.0460   22.5860   33.8850 C   0  0  0  0  0  0  0  0  0  0  0  0
   37.3790   22.3740   32.7390 N   0  0  0  0  0  0  0  0  0  0  0  0
   36.9040   23.5370   32.2420 C   0  0  0  0  0  0  0  0  0  0  0  0
   36.1670   23.8110   31.0980 C   0  0  0  0  0  0  0  0  0  0  0  0
   35.7960   25.1110   30.8080 C   0  0  0  0  0  0  0  0  0  0  0  0
   36.1810   26.1060   31.6840 C   0  0  0  0  0  0  0  0  0  0  0  0
   36.9130   25.8020   32.8120 C   0  0  0  0  0  0  0  0  0  0  0  0
   37.2920   24.5030   33.1160 C   0  0  0  0  0  0  0  0  0  0  0  0
   41.0547   21.4269   38.4972 H   0  0  0  0  0  0  0  0  0  0  0  0
   39.8512   23.5418   37.8299 H   0  0  0  0  0  0  0  0  0  0  0  0
   42.6415   20.9683   34.6182 H   0  0  0  0  0  0  0  0  0  0  0  0
   41.6397   25.9123   34.9756 H   0  0  0  0  0  0  0  0  0  0  0  0
   40.6080   25.8346   33.6002 H   0  0  0  0  0  0  0  0  0  0  0  0
   39.8186   26.8315   36.4785 H   0  0  0  0  0  0  0  0  0  0  0  0
   39.8589   27.8733   35.1084 H   0  0  0  0  0  0  0  0  0  0  0  0
   38.1174   26.4340   33.9190 H   0  0  0  0  0  0  0  0  0  0  0  0
   37.4732   26.6892   35.5100 H   0  0  0  0  0  0  0  0  0  0  0  0
   38.0733   24.4785   36.2058 H   0  0  0  0  0  0  0  0  0  0  0  0
   38.5346   21.8134   34.4968 H   0  0  0  0  0  0  0  0  0  0  0  0
   37.2476   21.4518   32.2995 H   0  0  0  0  0  0  0  0  0  0  0  0
   35.8779   22.9932   30.4216 H   0  0  0  0  0  0  0  0  0  0  0  0
   35.2115   25.3454   29.9061 H   0  0  0  0  0  0  0  0  0  0  0  0
   35.9014   27.1502   31.4803 H   0  0  0  0  0  0  0  0  0  0  0  0
   37.2057   26.6153   33.4923 H   0  0  0  0  0  0  0  0  0  0  0  0
  2  1  2  0
  3  2  1  0
  4  5  1  0
  4  3  2  0
  5  6  2  0
  6  1  1  0
  7  3  1  0
  8  7  1  0
  8  9  1  0
 10 11  1  0
 10  9  1  0
 11  7  1  0
 12 11  1  0
 13 12  2  0
 14 13  1  0
 15 14  1  0
 15 20  2  0
 16 15  1  0
 17 16  2  0
 17 18  1  0
 18 19  2  0
 19 20  1  0
 20 12  1  0
  1 21  1  0
  2 22  1  0
  5 23  1  0
  8 24  1  0
  8 25  1  0
  9 26  1  0
  9 27  1  0
 10 28  1  0
 10 29  1  0
 11 30  1  1
 13 31  1  0
 14 32  1  0
 16 33  1  0
 17 34  1  0
 18 35  1  0
 19 36  1  0
M  ISO  8  21  14  22  14  23  14  24  13  25  13  26  13  27  13  28  13
M  ISO  8  29  13  30  13  31  14  32   9  33  14  34  14  35  14  36  14
M  END
>  <minimizedAffinity>  (1) 
-4.93210649

>  <minimizedRMSD>  (1) 
1.25607717

$$$$
