
     RDKit          3D

 30 32  0  0  1  0  0  0  0  0999 V2000
   40.0050   22.2480   36.5900 C   0  0  0  0  0  0  0  0  0  0  0  0
   39.2590   23.4000   36.3540 C   0  0  0  0  0  0  0  0  0  0  0  0
   39.7510   24.3260   35.4400 C   0  0  0  0  0  0  0  0  0  0  0  0
   40.9510   24.0730   34.8040 N   0  0  0  0  0  0  0  0  0  0  0  0
   41.6470   22.9320   35.0670 C   0  0  0  0  0  0  0  0  0  0  0  0
   41.1820   22.0350   35.9430 N   0  0  0  0  0  0  0  0  0  0  0  0
   39.0780   25.5300   35.1180 N   0  0  0  0  0  0  0  0  0  0  0  0
   39.4640   26.9100   35.2490 C   0  0  0  0  0  0  0  0  0  0  0  0
   38.1530   27.4960   35.7310 C   0  0  0  0  0  0  0  0  0  0  0  0
   37.2340   26.9530   34.6400 C   0  0  0  0  0  0  0  0  0  0  0  0
   37.7350   25.5340   34.5370 C   0  0  1  0  0  0  0  0  0  0  0  0
   37.6970   25.0200   33.1610 C   0  0  0  0  0  0  0  0  0  0  0  0
   37.4100   23.7140   32.8570 C   0  0  0  0  0  0  0  0  0  0  0  0
   37.3810   23.2560   31.5400 C   0  0  0  0  0  0  0  0  0  0  0  0
   37.6470   24.1550   30.5610 N   0  0  0  0  0  0  0  0  0  0  0  0
   37.9300   25.4470   30.8530 C   0  0  0  0  0  0  0  0  0  0  0  0
   37.9570   25.8870   32.1400 N   0  0  0  0  0  0  0  0  0  0  0  0
   39.6375   21.5009   37.3089 H   0  0  0  0  0  0  0  0  0  0  0  0
   38.3065   23.5730   36.8762 H   0  0  0  0  0  0  0  0  0  0  0  0
   42.6018   22.7465   34.5533 H   0  0  0  0  0  0  0  0  0  0  0  0
   40.2681   27.0421   35.9879 H   0  0  0  0  0  0  0  0  0  0  0  0
   39.8728   27.3688   34.3367 H   0  0  0  0  0  0  0  0  0  0  0  0
   37.8757   27.1223   36.7277 H   0  0  0  0  0  0  0  0  0  0  0  0
   38.1416   28.5885   35.8591 H   0  0  0  0  0  0  0  0  0  0  0  0
   36.1775   26.9893   34.9442 H   0  0  0  0  0  0  0  0  0  0  0  0
   37.2608   27.5174   33.6962 H   0  0  0  0  0  0  0  0  0  0  0  0
   37.0791   24.8448   35.0890 H   0  0  0  0  0  0  0  0  0  0  0  0
   37.1969   23.0087   33.6738 H   0  0  0  0  0  0  0  0  0  0  0  0
   37.1512   22.2063   31.3049 H   0  0  0  0  0  0  0  0  0  0  0  0
   38.1415   26.1523   30.0358 H   0  0  0  0  0  0  0  0  0  0  0  0
  2  1  2  0
  3  2  1  0
  4  5  1  0
  4  3  2  0
  5  6  2  0
  6  1  1  0
  7  8  1  0
  7  3  1  0
  8  9  1  0
 10  9  1  0
 11 10  1  0
 11  7  1  0
 12 11  1  0
 13 12  2  0
 14 13  1  0
 15 16  1  0
 15 14  2  0
 16 17  2  0
 17 12  1  0
  1 18  1  0
  2 19  1  0
  5 20  1  0
  8 21  1  0
  8 22  1  0
  9 23  1  0
  9 24  1  0
 10 25  1  0
 10 26  1  0
 11 27  1  1
 13 28  1  0
 14 29  1  0
 16 30  1  0
M  ISO  8  18  14  19  14  20  14  21  13  22  13  23  13  24  13  25  13
M  ISO  5  26  13  27  13  28  14  29  14  30  14
M  END
>  <minimizedAffinity>  (1) 
-4.3145051

>  <minimizedRMSD>  (1) 
0.843898356

$$$$
