
     RDKit          3D

 32 34  0  0  1  0  0  0  0  0999 V2000
   39.8630   22.3850   36.8590 C   0  0  0  0  0  0  0  0  0  0  0  0
   39.1210   23.5020   36.4920 C   0  0  0  0  0  0  0  0  0  0  0  0
   39.6720   24.4270   35.5780 C   0  0  0  0  0  0  0  0  0  0  0  0
   40.9220   24.1720   35.0970 N   0  0  0  0  0  0  0  0  0  0  0  0
   41.6190   23.0680   35.4790 C   0  0  0  0  0  0  0  0  0  0  0  0
   41.1030   22.1880   36.3430 N   0  0  0  0  0  0  0  0  0  0  0  0
   38.9810   25.5780   35.1610 N   0  0  0  0  0  0  0  0  0  0  0  0
   39.3580   26.9860   35.2990 C   0  0  0  0  0  0  0  0  0  0  0  0
   37.9910   27.5550   35.6200 C   0  0  0  0  0  0  0  0  0  0  0  0
   37.1840   26.9610   34.4770 C   0  0  0  0  0  0  0  0  0  0  0  0
   37.7050   25.5380   34.4860 C   0  0  1  0  0  0  0  0  0  0  0  0
   37.8010   24.9290   33.1610 C   0  0  0  0  0  0  0  0  0  0  0  0
   37.4480   23.5890   32.9670 C   0  0  0  0  0  0  0  0  0  0  0  0
   37.5310   22.9910   31.7200 C   0  0  0  0  0  0  0  0  0  0  0  0
   37.9680   23.6880   30.6100 C   0  0  0  0  0  0  0  0  0  0  0  0
   38.3050   24.9970   30.8340 C   0  0  0  0  0  0  0  0  0  0  0  0
   38.2320   25.6270   32.0740 C   0  0  0  0  0  0  0  0  0  0  0  0
   39.4437   21.6581   37.5702 H   0  0  0  0  0  0  0  0  0  0  0  0
   38.1160   23.6635   36.9089 H   0  0  0  0  0  0  0  0  0  0  0  0
   42.6254   22.8963   35.0695 H   0  0  0  0  0  0  0  0  0  0  0  0
   40.0754   27.1445   36.1177 H   0  0  0  0  0  0  0  0  0  0  0  0
   39.8686   27.4306   34.4320 H   0  0  0  0  0  0  0  0  0  0  0  0
   37.6256   27.2122   36.5993 H   0  0  0  0  0  0  0  0  0  0  0  0
   37.9511   28.6517   35.6949 H   0  0  0  0  0  0  0  0  0  0  0  0
   37.3971   27.4660   33.5233 H   0  0  0  0  0  0  0  0  0  0  0  0
   36.0934   27.0520   34.5884 H   0  0  0  0  0  0  0  0  0  0  0  0
   36.9898   24.8884   35.0118 H   0  0  0  0  0  0  0  0  0  0  0  0
   37.0964   22.9965   33.8245 H   0  0  0  0  0  0  0  0  0  0  0  0
   37.2419   21.9353   31.6110 H   0  0  0  0  0  0  0  0  0  0  0  0
   38.0404   23.2241   29.6152 H   0  0  0  0  0  0  0  0  0  0  0  0
   38.6568   25.5901   29.9770 H   0  0  0  0  0  0  0  0  0  0  0  0
   38.5212   26.6835   32.1749 H   0  0  0  0  0  0  0  0  0  0  0  0
  2  1  2  0
  3  2  1  0
  4  5  1  0
  4  3  2  0
  5  6  2  0
  6  1  1  0
  7  8  1  0
  7  3  1  0
  8  9  1  0
 10 11  1  0
 10  9  1  0
 11  7  1  0
 12 11  1  0
 13 12  2  0
 14 13  1  0
 15 16  1  0
 15 14  2  0
 16 17  2  0
 17 12  1  0
  1 18  1  0
  2 19  1  0
  5 20  1  0
  8 21  1  0
  8 22  1  0
  9 23  1  0
  9 24  1  0
 10 25  1  0
 10 26  1  0
 11 27  1  1
 13 28  1  0
 14 29  1  0
 15 30  1  0
 16 31  1  0
 17 32  1  0
M  ISO  8  18  14  19  14  20  14  21  13  22  13  23  13  24  13  25  13
M  ISO  7  26  13  27  13  28  14  29  14  30  14  31  14  32  14
M  END
>  <minimizedAffinity>  (1) 
-4.36578321

>  <minimizedRMSD>  (1) 
1.01906919

$$$$
