
     RDKit          3D

 28 30  0  0  1  0  0  0  0  0999 V2000
   40.0180   22.4410   37.0680 C   0  0  0  0  0  0  0  0  0  0  0  0
   39.2390   23.5200   36.6610 C   0  0  0  0  0  0  0  0  0  0  0  0
   39.7860   24.4110   35.7080 C   0  0  0  0  0  0  0  0  0  0  0  0
   41.0430   24.1790   35.2320 N   0  0  0  0  0  0  0  0  0  0  0  0
   41.7730   23.1090   35.6600 C   0  0  0  0  0  0  0  0  0  0  0  0
   41.2660   22.2530   36.5640 N   0  0  0  0  0  0  0  0  0  0  0  0
   39.0680   25.5180   35.2340 N   0  0  0  0  0  0  0  0  0  0  0  0
   39.4000   26.9490   35.2850 C   0  0  0  0  0  0  0  0  0  0  0  0
   38.0240   27.5060   35.6060 C   0  0  0  0  0  0  0  0  0  0  0  0
   37.2600   26.8510   34.4700 C   0  0  0  0  0  0  0  0  0  0  0  0
   37.7970   25.4320   34.5780 C   0  0  1  0  0  0  0  0  0  0  0  0
   37.8160   24.7630   33.2540 C   0  0  0  0  0  0  0  0  0  0  0  0
   38.1430   25.6470   32.0570 C   0  0  0  0  0  0  0  0  0  0  0  0
   38.0410   24.4570   30.7610 S   0  0  0  0  0  0  0  0  0  0  0  0
   37.5990   22.9890   31.8780 C   0  0  0  0  0  0  0  0  0  0  0  0
   37.5510   23.4700   33.1720 N   0  0  0  0  0  0  0  0  0  0  0  0
   39.6184   21.7311   37.8072 H   0  0  0  0  0  0  0  0  0  0  0  0
   38.2289   23.6753   37.0679 H   0  0  0  0  0  0  0  0  0  0  0  0
   42.7853   22.9453   35.2619 H   0  0  0  0  0  0  0  0  0  0  0  0
   40.1301   27.1742   36.0763 H   0  0  0  0  0  0  0  0  0  0  0  0
   39.8733   27.3555   34.3790 H   0  0  0  0  0  0  0  0  0  0  0  0
   37.6628   27.1809   36.5928 H   0  0  0  0  0  0  0  0  0  0  0  0
   37.9496   28.6017   35.6689 H   0  0  0  0  0  0  0  0  0  0  0  0
   37.5020   27.3067   33.4985 H   0  0  0  0  0  0  0  0  0  0  0  0
   36.1655   26.9395   34.5347 H   0  0  0  0  0  0  0  0  0  0  0  0
   37.1440   24.7847   35.1819 H   0  0  0  0  0  0  0  0  0  0  0  0
   38.3762   26.7211   32.0140 H   0  0  0  0  0  0  0  0  0  0  0  0
   37.4159   21.9530   31.5568 H   0  0  0  0  0  0  0  0  0  0  0  0
  2  1  2  0
  3  2  1  0
  4  5  1  0
  4  3  2  0
  5  6  2  0
  6  1  1  0
  7  8  1  0
  7  3  1  0
  8  9  1  0
 10 11  1  0
 10  9  1  0
 11  7  1  0
 12 11  1  0
 13 12  2  0
 14 15  1  0
 14 13  1  0
 15 16  2  0
 16 12  1  0
  1 17  1  0
  2 18  1  0
  5 19  1  0
  8 20  1  0
  8 21  1  0
  9 22  1  0
  9 23  1  0
 10 24  1  0
 10 25  1  0
 11 26  1  1
 13 27  1  0
 15 28  1  0
M  ISO  8  17  14  18  14  19  14  20  13  21  13  22  13  23  13  24  13
M  ISO  4  25  13  26  13  27  14  28  14
M  END
>  <minimizedAffinity>  (1) 
-4.12326574

>  <minimizedRMSD>  (1) 
0.763390779

$$$$
