
     RDKit          3D

 28 30  0  0  1  0  0  0  0  0999 V2000
   40.2200   22.1950   36.8830 C   0  0  0  0  0  0  0  0  0  0  0  0
   39.4830   23.3690   36.6720 C   0  0  0  0  0  0  0  0  0  0  0  0
   39.8290   24.1660   35.5610 C   0  0  0  0  0  0  0  0  0  0  0  0
   40.8540   23.7540   34.7570 N   0  0  0  0  0  0  0  0  0  0  0  0
   41.5370   22.6070   35.0070 C   0  0  0  0  0  0  0  0  0  0  0  0
   41.2240   21.8380   36.0550 N   0  0  0  0  0  0  0  0  0  0  0  0
   39.1560   25.3640   35.2540 N   0  0  0  0  0  0  0  0  0  0  0  0
   39.6670   26.7310   35.1670 C   0  0  0  0  0  0  0  0  0  0  0  0
   38.5020   27.4460   35.8660 C   0  0  0  0  0  0  0  0  0  0  0  0
   37.3540   26.8890   35.0380 C   0  0  0  0  0  0  0  0  0  0  0  0
   37.7370   25.4280   34.9530 C   0  0  1  0  0  0  0  0  0  0  0  0
   37.5790   25.0000   33.5590 N   0  0  0  0  0  0  0  0  0  0  0  0
   37.3720   25.8180   32.5000 C   0  0  0  0  0  0  0  0  0  0  0  0
   37.2690   25.0940   31.3560 N   0  0  0  0  0  0  0  0  0  0  0  0
   37.4170   23.8090   31.7290 C   0  0  0  0  0  0  0  0  0  0  0  0
   37.6060   23.7550   33.0800 N   0  0  0  0  0  0  0  0  0  0  0  0
   39.9748   21.5518   37.7410 H   0  0  0  0  0  0  0  0  0  0  0  0
   38.6649   23.6579   37.3482 H   0  0  0  0  0  0  0  0  0  0  0  0
   42.3578   22.3070   34.3390 H   0  0  0  0  0  0  0  0  0  0  0  0
   40.6162   26.8552   35.7089 H   0  0  0  0  0  0  0  0  0  0  0  0
   39.9133   27.0885   34.1563 H   0  0  0  0  0  0  0  0  0  0  0  0
   38.4211   27.1644   36.9263 H   0  0  0  0  0  0  0  0  0  0  0  0
   38.5720   28.5432   35.9021 H   0  0  0  0  0  0  0  0  0  0  0  0
   36.3877   27.0238   35.5460 H   0  0  0  0  0  0  0  0  0  0  0  0
   37.2210   27.3790   34.0622 H   0  0  0  0  0  0  0  0  0  0  0  0
   37.1302   24.8079   35.6292 H   0  0  0  0  0  0  0  0  0  0  0  0
   37.2978   26.9139   32.5583 H   0  0  0  0  0  0  0  0  0  0  0  0
   37.3900   22.9414   31.0534 H   0  0  0  0  0  0  0  0  0  0  0  0
  2  1  2  0
  3  2  1  0
  4  5  1  0
  4  3  2  0
  5  6  2  0
  6  1  1  0
  7  3  1  0
  8  7  1  0
  8  9  1  0
 10  9  1  0
 11 10  1  0
 11  7  1  0
 12 11  1  0
 13 12  1  0
 14 15  1  0
 14 13  2  0
 15 16  2  0
 16 12  1  0
  1 17  1  0
  2 18  1  0
  5 19  1  0
  8 20  1  0
  8 21  1  0
  9 22  1  0
  9 23  1  0
 10 24  1  0
 10 25  1  0
 11 26  1  1
 13 27  1  0
 15 28  1  0
M  ISO  8  17  14  18  14  19  14  20  13  21  13  22  13  23  13  24  13
M  ISO  4  25  13  26  13  27  14  28  14
M  END
>  <minimizedAffinity>  (1) 
-4.14168978

>  <minimizedRMSD>  (1) 
0.323031902

$$$$
