
     RDKit          3D

 35 37  0  0  1  0  0  0  0  0999 V2000
   41.2590   21.7340   37.5800 C   0  0  0  0  0  0  0  0  0  0  0  0
   40.7910   22.8600   36.9110 C   0  0  0  0  0  0  0  0  0  0  0  0
   41.3660   23.2450   35.7120 C   0  0  0  0  0  0  0  0  0  0  0  0
   42.4040   22.4650   35.2320 N   0  0  0  0  0  0  0  0  0  0  0  0
   42.8400   21.3690   35.9100 C   0  0  0  0  0  0  0  0  0  0  0  0
   42.2670   21.0130   37.0720 N   0  0  0  0  0  0  0  0  0  0  0  0
   40.9540   24.3540   34.9720 N   0  0  0  0  0  0  0  0  0  0  0  0
   41.7020   25.5630   34.5770 C   0  0  0  0  0  0  0  0  0  0  0  0
   40.6230   26.6030   34.8250 C   0  0  0  0  0  0  0  0  0  0  0  0
   39.4930   25.9550   34.0180 C   0  0  0  0  0  0  0  0  0  0  0  0
   39.6540   24.5240   34.4060 C   0  0  2  0  0  0  0  0  0  0  0  0
   38.5420   23.9360   35.0590 N   0  0  0  0  0  0  0  0  0  0  0  0
   38.5070   24.4650   36.4340 C   0  0  0  0  0  0  0  0  0  0  0  0
   37.3390   23.8710   37.1910 C   0  0  0  0  0  0  0  0  0  0  0  0
   37.2010   22.5150   37.0590 O   0  0  0  0  0  0  0  0  0  0  0  0
   37.2750   22.0790   35.7250 C   0  0  0  0  0  0  0  0  0  0  0  0
   38.6620   22.4960   35.2480 C   0  0  0  0  0  0  0  0  0  0  0  0
   40.7982   21.4336   38.5326 H   0  0  0  0  0  0  0  0  0  0  0  0
   39.9623   23.4458   37.3355 H   0  0  0  0  0  0  0  0  0  0  0  0
   43.6681   20.7696   35.5037 H   0  0  0  0  0  0  0  0  0  0  0  0
   42.0091   25.5312   33.5212 H   0  0  0  0  0  0  0  0  0  0  0  0
   42.6494   25.7282   35.1111 H   0  0  0  0  0  0  0  0  0  0  0  0
   40.3714   26.6928   35.8921 H   0  0  0  0  0  0  0  0  0  0  0  0
   40.8803   27.6347   34.5433 H   0  0  0  0  0  0  0  0  0  0  0  0
   39.6342   26.0991   32.9367 H   0  0  0  0  0  0  0  0  0  0  0  0
   38.4947   26.3708   34.2192 H   0  0  0  0  0  0  0  0  0  0  0  0
   39.6273   23.8856   33.5106 H   0  0  0  0  0  0  0  0  0  0  0  0
   39.4439   24.2042   36.9480 H   0  0  0  0  0  0  0  0  0  0  0  0
   38.3923   25.5583   36.3959 H   0  0  0  0  0  0  0  0  0  0  0  0
   37.4711   24.0995   38.2589 H   0  0  0  0  0  0  0  0  0  0  0  0
   36.4307   24.3187   36.7614 H   0  0  0  0  0  0  0  0  0  0  0  0
   37.1594   20.9865   35.6687 H   0  0  0  0  0  0  0  0  0  0  0  0
   36.4775   22.5133   35.1043 H   0  0  0  0  0  0  0  0  0  0  0  0
   38.9187   21.9960   34.3024 H   0  0  0  0  0  0  0  0  0  0  0  0
   39.4573   22.2233   35.9573 H   0  0  0  0  0  0  0  0  0  0  0  0
  2  1  2  0
  3  2  1  0
  4  3  2  0
  4  5  1  0
  5  6  2  0
  6  1  1  0
  7  3  1  0
  8  9  1  0
  8  7  1  0
 10 11  1  0
 10  9  1  0
 11  7  1  0
 11 12  1  0
 12 17  1  0
 12 13  1  0
 13 14  1  0
 15 14  1  0
 16 15  1  0
 17 16  1  0
  1 18  1  0
  2 19  1  0
  5 20  1  0
  8 21  1  0
  8 22  1  0
  9 23  1  0
  9 24  1  0
 10 25  1  0
 10 26  1  0
 11 27  1  6
 13 28  1  0
 13 29  1  0
 14 30  1  0
 14 31  1  0
 16 32  1  0
 16 33  1  0
 17 34  1  0
 17 35  1  0
M  ISO  8  18  14  19  14  20  14  21  13  22  13  23  13  24  13  25  13
M  ISO  8  26  13  27  13  28  13  29  13  30  13  31  13  32  13  33  13
M  ISO  2  34  13  35  13
M  END
>  <minimizedAffinity>  (1) 
-4.15931225

>  <minimizedRMSD>  (1) 
1.8296988

$$$$
