
     RDKit          3D

 29 31  0  0  1  0  0  0  0  0999 V2000
   38.7870   22.3660   36.1340 C   0  0  0  0  0  0  0  0  0  0  0  0
   38.2180   23.6170   35.8750 C   0  0  0  0  0  0  0  0  0  0  0  0
   38.9620   24.5370   35.1290 C   0  0  0  0  0  0  0  0  0  0  0  0
   40.2140   24.1710   34.6860 N   0  0  0  0  0  0  0  0  0  0  0  0
   40.7310   22.9450   34.9590 C   0  0  0  0  0  0  0  0  0  0  0  0
   40.0090   22.0550   35.6820 N   0  0  0  0  0  0  0  0  0  0  0  0
   38.4960   25.8290   34.8040 N   0  0  0  0  0  0  0  0  0  0  0  0
   39.0300   27.1440   35.0830 C   0  0  0  0  0  0  0  0  0  0  0  0
   37.7290   27.8610   35.4210 C   0  0  0  0  0  0  0  0  0  0  0  0
   36.9360   27.5090   34.1570 C   0  0  0  0  0  0  0  0  0  0  0  0
   37.2660   26.0370   34.0490 C   0  0  1  0  0  0  0  0  0  0  0  0
   37.3280   25.5510   32.6690 C   0  0  0  0  0  0  0  0  0  0  0  0
   36.7200   24.3850   32.2110 C   0  0  0  0  0  0  0  0  0  0  0  0
   36.9930   24.2500   30.8630 C   0  0  0  0  0  0  0  0  0  0  0  0
   37.7420   25.3170   30.5540 N   0  0  0  0  0  0  0  0  0  0  0  0
   37.9480   26.0910   31.6070 N   0  0  0  0  0  0  0  0  0  0  0  0
   38.2217   21.6252   36.7185 H   0  0  0  0  0  0  0  0  0  0  0  0
   37.2143   23.8702   36.2472 H   0  0  0  0  0  0  0  0  0  0  0  0
   41.7331   22.6753   34.5942 H   0  0  0  0  0  0  0  0  0  0  0  0
   39.7285   27.1340   35.9327 H   0  0  0  0  0  0  0  0  0  0  0  0
   39.6234   27.5956   34.2744 H   0  0  0  0  0  0  0  0  0  0  0  0
   37.2587   27.4583   36.3302 H   0  0  0  0  0  0  0  0  0  0  0  0
   37.8205   28.9346   35.6423 H   0  0  0  0  0  0  0  0  0  0  0  0
   35.8573   27.6779   34.2904 H   0  0  0  0  0  0  0  0  0  0  0  0
   37.1851   28.1085   33.2690 H   0  0  0  0  0  0  0  0  0  0  0  0
   36.4546   25.4309   34.4782 H   0  0  0  0  0  0  0  0  0  0  0  0
   36.1234   23.6892   32.8192 H   0  0  0  0  0  0  0  0  0  0  0  0
   36.6667   23.4429   30.1907 H   0  0  0  0  0  0  0  0  0  0  0  0
   38.1119   25.5109   29.6125 H   0  0  0  0  0  0  0  0  0  0  0  0
  2  1  2  0
  3  2  1  0
  4  5  1  0
  4  3  2  0
  5  6  2  0
  6  1  1  0
  7  8  1  0
  7  3  1  0
  8  9  1  0
 10  9  1  0
 11 10  1  0
 11  7  1  0
 12 11  1  0
 13 12  1  0
 14 13  2  0
 15 14  1  0
 15 16  1  0
 16 12  2  0
  1 17  1  0
  2 18  1  0
  5 19  1  0
  8 20  1  0
  8 21  1  0
  9 22  1  0
  9 23  1  0
 10 24  1  0
 10 25  1  0
 11 26  1  1
 13 27  1  0
 14 28  1  0
 15 29  1  0
M  ISO  8  17  14  18  14  19  14  20  13  21  13  22  13  23  13  24  13
M  ISO  5  25  13  26  13  27  14  28  14  29   9
M  END
>  <minimizedAffinity>  (1) 
-4.22672796

>  <minimizedRMSD>  (1) 
1.4908452

$$$$
