
     RDKit          3D

 25 26  0  0  1  0  0  0  0  0999 V2000
   41.1350   21.8530   37.5210 C   0  0  0  0  0  0  0  0  0  0  0  0
   40.3490   22.9730   37.2680 C   0  0  0  0  0  0  0  0  0  0  0  0
   40.2590   23.4230   35.9580 C   0  0  0  0  0  0  0  0  0  0  0  0
   40.9460   22.7510   34.9610 N   0  0  0  0  0  0  0  0  0  0  0  0
   41.6990   21.6610   35.2710 C   0  0  0  0  0  0  0  0  0  0  0  0
   41.7900   21.2200   36.5400 N   0  0  0  0  0  0  0  0  0  0  0  0
   39.4940   24.5510   35.5660 N   0  0  0  0  0  0  0  0  0  0  0  0
   39.9200   25.8180   34.9910 C   0  0  0  0  0  0  0  0  0  0  0  0
   39.0080   26.7570   35.7680 C   0  0  0  0  0  0  0  0  0  0  0  0
   37.6730   26.0740   35.5090 C   0  0  0  0  0  0  0  0  0  0  0  0
   38.0720   24.6260   35.6850 C   0  0  2  0  0  0  0  0  0  0  0  0
   37.4890   24.1480   36.9640 C   0  0  0  0  0  0  0  0  0  0  0  0
   41.2202   21.4788   38.5519 H   0  0  0  0  0  0  0  0  0  0  0  0
   39.8152   23.4862   38.0814 H   0  0  0  0  0  0  0  0  0  0  0  0
   42.2414   21.1323   34.4733 H   0  0  0  0  0  0  0  0  0  0  0  0
   40.9832   26.0218   35.1862 H   0  0  0  0  0  0  0  0  0  0  0  0
   39.8445   25.8873   33.8958 H   0  0  0  0  0  0  0  0  0  0  0  0
   39.2574   26.7794   36.8391 H   0  0  0  0  0  0  0  0  0  0  0  0
   39.0600   27.8150   35.4713 H   0  0  0  0  0  0  0  0  0  0  0  0
   37.3041   26.2738   34.4922 H   0  0  0  0  0  0  0  0  0  0  0  0
   36.8511   26.4076   36.1596 H   0  0  0  0  0  0  0  0  0  0  0  0
   37.6778   23.9471   34.9145 H   0  0  0  0  0  0  0  0  0  0  0  0
   38.0359   24.5964   37.8065 H   0  0  0  0  0  0  0  0  0  0  0  0
   36.4301   24.4413   37.0166 H   0  0  0  0  0  0  0  0  0  0  0  0
   37.5690   23.0522   37.0166 H   0  0  0  0  0  0  0  0  0  0  0  0
  2  1  2  0
  3  2  1  0
  4  5  1  0
  4  3  2  0
  5  6  2  0
  6  1  1  0
  7 11  1  0
  7  3  1  0
  8  7  1  0
  8  9  1  0
 10 11  1  0
 10  9  1  0
 11 12  1  0
  1 13  1  0
  2 14  1  0
  5 15  1  0
  8 16  1  0
  8 17  1  0
  9 18  1  0
  9 19  1  0
 10 20  1  0
 10 21  1  0
 11 22  1  6
 12 23  1  0
 12 24  1  0
 12 25  1  0
M  ISO  8  13  14  14  14  15  14  16  13  17  13  18  13  19  13  20  13
M  ISO  5  21  13  22  13  23   8  24   8  25   8
M  END
>  <minimizedAffinity>  (1) 
-3.6099391

>  <minimizedRMSD>  (1) 
1.01567745

$$$$
