
     RDKit          3D

 34 35  0  0  1  0  0  0  0  0999 V2000
   39.6570   22.3980   36.9030 C   0  0  0  0  0  0  0  0  0  0  0  0
   38.9480   23.5340   36.4910 C   0  0  0  0  0  0  0  0  0  0  0  0
   39.6160   24.4600   35.6590 C   0  0  0  0  0  0  0  0  0  0  0  0
   40.9200   24.2180   35.2870 N   0  0  0  0  0  0  0  0  0  0  0  0
   41.5470   23.0860   35.7300 C   0  0  0  0  0  0  0  0  0  0  0  0
   40.9290   22.1940   36.5210 N   0  0  0  0  0  0  0  0  0  0  0  0
   38.9740   25.6270   35.2010 N   0  0  0  0  0  0  0  0  0  0  0  0
   39.3310   27.0190   35.3760 C   0  0  0  0  0  0  0  0  0  0  0  0
   37.9400   27.5930   35.6150 C   0  0  0  0  0  0  0  0  0  0  0  0
   37.2830   27.0470   34.3350 C   0  0  0  0  0  0  0  0  0  0  0  0
   37.7650   25.6180   34.4270 C   0  0  1  0  0  0  0  0  0  0  0  0
   37.8280   24.9360   33.1040 C   0  0  0  0  0  0  0  0  0  0  0  0
   36.6760   25.4280   32.2350 C   0  0  0  0  0  0  0  0  0  0  0  0
   37.6880   23.4500   33.1600 C   0  0  0  0  0  0  0  0  0  0  0  0
   39.1050   25.2400   32.3480 C   0  0  0  0  0  0  0  0  0  0  0  0
   39.1631   21.6593   37.5513 H   0  0  0  0  0  0  0  0  0  0  0  0
   37.9067   23.6993   36.8046 H   0  0  0  0  0  0  0  0  0  0  0  0
   42.5888   22.9007   35.4293 H   0  0  0  0  0  0  0  0  0  0  0  0
   39.9936   27.1694   36.2411 H   0  0  0  0  0  0  0  0  0  0  0  0
   39.8934   27.4713   34.5459 H   0  0  0  0  0  0  0  0  0  0  0  0
   37.4733   27.1962   36.5286 H   0  0  0  0  0  0  0  0  0  0  0  0
   37.8786   28.6800   35.7723 H   0  0  0  0  0  0  0  0  0  0  0  0
   37.6541   27.5520   33.4310 H   0  0  0  0  0  0  0  0  0  0  0  0
   36.1934   27.1796   34.2638 H   0  0  0  0  0  0  0  0  0  0  0  0
   37.0380   24.9825   34.9539 H   0  0  0  0  0  0  0  0  0  0  0  0
   35.8553   25.7785   32.8781 H   0  0  0  0  0  0  0  0  0  0  0  0
   37.0235   26.2562   31.5999 H   0  0  0  0  0  0  0  0  0  0  0  0
   36.3180   24.6043   31.5999 H   0  0  0  0  0  0  0  0  0  0  0  0
   37.6573   23.1239   34.2101 H   0  0  0  0  0  0  0  0  0  0  0  0
   36.7576   23.1501   32.6556 H   0  0  0  0  0  0  0  0  0  0  0  0
   38.5460   22.9816   32.6556 H   0  0  0  0  0  0  0  0  0  0  0  0
   39.9176   25.4334   33.0637 H   0  0  0  0  0  0  0  0  0  0  0  0
   39.3703   24.3799   31.7157 H   0  0  0  0  0  0  0  0  0  0  0  0
   38.9544   26.1274   31.7157 H   0  0  0  0  0  0  0  0  0  0  0  0
  2  1  2  0
  3  2  1  0
  4  3  2  0
  4  5  1  0
  5  6  2  0
  6  1  1  0
  7  8  1  0
  7  3  1  0
  8  9  1  0
 10 11  1  0
 10  9  1  0
 11  7  1  0
 12 14  1  0
 12 11  1  0
 13 12  1  0
 15 12  1  0
  1 16  1  0
  2 17  1  0
  5 18  1  0
  8 19  1  0
  8 20  1  0
  9 21  1  0
  9 22  1  0
 10 23  1  0
 10 24  1  0
 11 25  1  1
 13 26  1  0
 13 27  1  0
 13 28  1  0
 14 29  1  0
 14 30  1  0
 14 31  1  0
 15 32  1  0
 15 33  1  0
 15 34  1  0
M  ISO  8  16  14  17  14  18  14  19  13  20  13  21  13  22  13  23  13
M  ISO  8  24  13  25  13  26   8  27   8  28   8  29   8  30   8  31   8
M  ISO  3  32   8  33   8  34   8
M  END
>  <minimizedAffinity>  (1) 
-4.00734663

>  <minimizedRMSD>  (1) 
0.780864656

$$$$
