
     RDKit          3D

 31 33  0  0  0  0  0  0  0  0999 V2000
   39.2090   21.8070   30.0340 C   0  0  0  0  0  0  0  0  0  0  0  0
   39.2340   22.9940   30.7700 C   0  0  0  0  0  0  0  0  0  0  0  0
   38.1140   23.2600   31.5500 C   0  0  0  0  0  0  0  0  0  0  0  0
   37.0890   22.3620   31.5430 N   0  0  0  0  0  0  0  0  0  0  0  0
   37.1080   21.2360   30.8230 C   0  0  0  0  0  0  0  0  0  0  0  0
   38.1900   20.9540   30.0530 N   0  0  0  0  0  0  0  0  0  0  0  0
   36.0200   20.3190   30.8370 N   0  0  0  0  0  0  0  0  0  0  0  0
   35.4220   19.9540   32.0730 C   0  0  0  0  0  0  0  0  0  0  0  0
   35.9820   20.3380   33.1880 N   0  0  0  0  0  0  0  0  0  0  0  0
   34.2150   19.1720   32.0880 N   0  0  0  0  0  0  0  0  0  0  0  0
   35.5490   20.0530   34.0900 H   0  0  0  0  0  0  0  0  0  0  0  0
   38.0350   24.4290   32.3310 N   0  0  0  0  0  0  0  0  0  0  0  0
   38.0000   25.6810   31.8540 C   0  0  0  0  0  0  0  0  0  0  0  0
   37.9240   26.5590   32.8790 N   0  0  0  0  0  0  0  0  0  0  0  0
   37.9130   25.8210   34.0110 C   0  0  0  0  0  0  0  0  0  0  0  0
   37.8440   26.2990   35.3000 C   0  0  0  0  0  0  0  0  0  0  0  0
   37.8480   25.3440   36.2840 N   0  0  0  0  0  0  0  0  0  0  0  0
   37.9160   24.0260   35.9460 C   0  0  0  0  0  0  0  0  0  0  0  0
   37.9840   23.5720   34.6640 N   0  0  0  0  0  0  0  0  0  0  0  0
   37.9820   24.4860   33.6620 C   0  0  0  0  0  0  0  0  0  0  0  0
   37.9210   22.9860   37.0070 C   0  0  0  0  0  0  0  0  0  0  0  0
   40.0788   21.5655   29.4054 H   0  0  0  0  0  0  0  0  0  0  0  0
   40.0926   23.6807   30.7345 H   0  0  0  0  0  0  0  0  0  0  0  0
   35.6674   19.9215   29.9546 H   0  0  0  0  0  0  0  0  0  0  0  0
   33.7832   18.9085   32.9852 H   0  0  0  0  0  0  0  0  0  0  0  0
   33.7824   18.8755   31.2015 H   0  0  0  0  0  0  0  0  0  0  0  0
   38.0288   25.9532   30.7886 H   0  0  0  0  0  0  0  0  0  0  0  0
   37.7894   27.3743   35.5254 H   0  0  0  0  0  0  0  0  0  0  0  0
   37.9187   23.4700   37.9948 H   0  0  0  0  0  0  0  0  0  0  0  0
   37.0259   22.3547   36.9059 H   0  0  0  0  0  0  0  0  0  0  0  0
   38.8221   22.3633   36.9059 H   0  0  0  0  0  0  0  0  0  0  0  0
  1  6  2  0
  1  2  1  0
  2  3  2  0
  3 12  1  0
  4  3  1  0
  5  7  1  0
  5  4  2  0
  6  5  1  0
  7  8  1  0
  8 10  1  0
  8  9  2  0
  9 11  1  0
 12 20  1  0
 13 12  1  0
 13 14  2  0
 14 15  1  0
 15 16  2  0
 16 17  1  0
 18 17  2  0
 18 21  1  0
 19 18  1  0
 20 15  1  0
 20 19  2  0
  1 22  1  0
  2 23  1  0
  7 24  1  0
 10 25  1  0
 10 26  1  0
 13 27  1  0
 16 28  1  0
 21 29  1  0
 21 30  1  0
 21 31  1  0
M  ISO  7  22  14  23  14  27  14  28  14  29   8  30   8  31   8
M  END
>  <minimizedAffinity>  (1) 
-4.83613443

>  <minimizedRMSD>  (1) 
3.81441402

$$$$
