
     RDKit          3D

 49 53  0  0  1  0  0  0  0  0999 V2000
   39.2290   26.0260   32.6020 C   0  0  2  0  0  0  0  0  0  0  0  0
   38.6640   26.7490   31.4240 C   0  0  0  0  0  0  0  0  0  0  0  0
   39.6100   26.3750   30.3170 C   0  0  0  0  0  0  0  0  0  0  0  0
   40.0490   25.0120   30.6420 C   0  0  0  0  0  0  0  0  0  0  0  0
   39.5340   24.6800   32.0420 C   0  0  2  0  0  0  0  0  0  0  0  0
   38.9490   22.1960   35.9580 C   0  0  0  0  0  0  0  0  0  0  0  0
   38.4970   23.4540   35.5560 C   0  0  0  0  0  0  0  0  0  0  0  0
   39.3980   24.5100   35.4380 C   0  0  0  0  0  0  0  0  0  0  0  0
   40.7110   24.2710   35.7260 N   0  0  0  0  0  0  0  0  0  0  0  0
   41.1110   23.0250   36.1150 C   0  0  0  0  0  0  0  0  0  0  0  0
   40.2380   21.9970   36.2300 N   0  0  0  0  0  0  0  0  0  0  0  0
   38.9930   25.7860   35.0410 N   0  0  0  0  0  0  0  0  0  0  0  0
   39.1110   27.0600   35.7590 C   0  0  0  0  0  0  0  0  0  0  0  0
   37.7230   27.6180   35.4060 C   0  0  0  0  0  0  0  0  0  0  0  0
   37.8780   27.5440   33.8920 C   0  0  0  0  0  0  0  0  0  0  0  0
   38.3500   26.0950   33.7840 C   0  0  1  0  0  0  0  0  0  0  0  0
   38.3930   23.7900   31.8570 C   0  0  0  0  0  0  0  0  0  0  0  0
   38.5290   22.4630   32.0270 N   0  0  0  0  0  0  0  0  0  0  0  0
   37.4370   21.7040   31.8350 C   0  0  0  0  0  0  0  0  0  0  0  0
   36.2020   22.1470   31.4850 N   0  0  0  0  0  0  0  0  0  0  0  0
   36.0410   23.4820   31.3090 C   0  0  0  0  0  0  0  0  0  0  0  0
   34.7980   23.9590   30.9550 C   0  0  0  0  0  0  0  0  0  0  0  0
   34.6220   25.3150   30.7770 C   0  0  0  0  0  0  0  0  0  0  0  0
   35.6920   26.1640   30.9540 C   0  0  0  0  0  0  0  0  0  0  0  0
   36.9160   25.6330   31.3080 C   0  0  0  0  0  0  0  0  0  0  0  0
   37.1590   24.2970   31.5010 C   0  0  0  0  0  0  0  0  0  0  0  0
   40.1402   26.4673   33.0321 H   0  0  0  0  0  0  0  0  0  0  0  0
   37.6416   26.4083   31.2033 H   0  0  0  0  0  0  0  0  0  0  0  0
   38.5825   27.8351   31.5782 H   0  0  0  0  0  0  0  0  0  0  0  0
   40.4682   27.0627   30.2920 H   0  0  0  0  0  0  0  0  0  0  0  0
   39.1337   26.4325   29.3271 H   0  0  0  0  0  0  0  0  0  0  0  0
   39.6350   24.3009   29.9120 H   0  0  0  0  0  0  0  0  0  0  0  0
   41.1463   24.9421   30.6083 H   0  0  0  0  0  0  0  0  0  0  0  0
   40.2071   24.1509   32.7327 H   0  0  0  0  0  0  0  0  0  0  0  0
   38.2362   21.3634   36.0508 H   0  0  0  0  0  0  0  0  0  0  0  0
   37.4314   23.6113   35.3328 H   0  0  0  0  0  0  0  0  0  0  0  0
   42.1734   22.8515   36.3415 H   0  0  0  0  0  0  0  0  0  0  0  0
   39.2430   26.9197   36.8420 H   0  0  0  0  0  0  0  0  0  0  0  0
   39.9721   27.6911   35.4942 H   0  0  0  0  0  0  0  0  0  0  0  0
   36.9060   26.9821   35.7777 H   0  0  0  0  0  0  0  0  0  0  0  0
   37.4631   28.5997   35.8286 H   0  0  0  0  0  0  0  0  0  0  0  0
   36.9245   27.7095   33.3691 H   0  0  0  0  0  0  0  0  0  0  0  0
   38.5412   28.2975   33.4420 H   0  0  0  0  0  0  0  0  0  0  0  0
   37.5559   25.3488   33.6334 H   0  0  0  0  0  0  0  0  0  0  0  0
   37.5548   20.6193   31.9748 H   0  0  0  0  0  0  0  0  0  0  0  0
   33.9553   23.2658   30.8159 H   0  0  0  0  0  0  0  0  0  0  0  0
   33.6364   25.7149   30.4963 H   0  0  0  0  0  0  0  0  0  0  0  0
   35.5730   27.2487   30.8154 H   0  0  0  0  0  0  0  0  0  0  0  0
   37.7556   26.3304   31.4449 H   0  0  0  0  0  0  0  0  0  0  0  0
  1 16  1  0
  2  1  1  0
  3  4  1  0
  3  2  1  0
  4  5  1  0
  5  1  1  0
  6 11  2  0
  7  6  1  0
  8  7  2  0
  8  9  1  0
  9 10  2  0
 10 11  1  0
 12  8  1  0
 12 13  1  0
 14 13  1  0
 15 14  1  0
 16 15  1  0
 16 12  1  0
 17 18  2  0
 17  5  1  0
 19 18  1  0
 20 19  2  0
 21 20  1  0
 21 26  2  0
 22 21  1  0
 23 24  1  0
 23 22  2  0
 24 25  2  0
 25 26  1  0
 26 17  1  0
  1 27  1  1
  2 28  1  0
  2 29  1  0
  3 30  1  0
  3 31  1  0
  4 32  1  0
  4 33  1  0
  5 34  1  1
  6 35  1  0
  7 36  1  0
 10 37  1  0
 13 38  1  0
 13 39  1  0
 14 40  1  0
 14 41  1  0
 15 42  1  0
 15 43  1  0
 16 44  1  6
 19 45  1  0
 22 46  1  0
 23 47  1  0
 24 48  1  0
 25 49  1  0
M  ISO  8  27  13  28  13  29  13  30  13  31  13  32  13  33  13  34  13
M  ISO  8  35  14  36  14  37  14  38  13  39  13  40  13  41  13  42  13
M  ISO  7  43  13  44  13  45  14  46  14  47  14  48  14  49  14
M  END
>  <minimizedAffinity>  (1) 
-5.63022184

>  <minimizedRMSD>  (1) 
3.68486881

$$$$
