
     RDKit          3D

 49 53  0  0  1  0  0  0  0  0999 V2000
   38.1080   25.2360   32.8730 C   0  0  2  0  0  0  0  0  0  0  0  0
   37.8590   26.5010   32.0550 C   0  0  0  0  0  0  0  0  0  0  0  0
   38.0230   25.9260   30.6560 C   0  0  0  0  0  0  0  0  0  0  0  0
   37.2870   24.6410   30.7590 C   0  0  0  0  0  0  0  0  0  0  0  0
   37.1460   24.3350   32.2330 C   0  0  1  0  0  0  0  0  0  0  0  0
   39.7240   22.2200   36.6470 C   0  0  0  0  0  0  0  0  0  0  0  0
   38.9840   23.3630   36.2910 C   0  0  0  0  0  0  0  0  0  0  0  0
   39.6360   24.3570   35.5610 C   0  0  0  0  0  0  0  0  0  0  0  0
   40.9500   24.1690   35.2340 N   0  0  0  0  0  0  0  0  0  0  0  0
   41.6340   23.0580   35.5910 C   0  0  0  0  0  0  0  0  0  0  0  0
   41.0190   22.0860   36.2980 N   0  0  0  0  0  0  0  0  0  0  0  0
   38.9960   25.5440   35.1500 N   0  0  0  0  0  0  0  0  0  0  0  0
   39.3340   26.9330   35.4580 C   0  0  0  0  0  0  0  0  0  0  0  0
   37.9010   27.4320   35.6960 C   0  0  0  0  0  0  0  0  0  0  0  0
   37.3670   27.0350   34.3350 C   0  0  0  0  0  0  0  0  0  0  0  0
   37.8380   25.5860   34.3140 C   0  0  1  0  0  0  0  0  0  0  0  0
   37.3140   22.8720   32.4400 C   0  0  0  0  0  0  0  0  0  0  0  0
   38.6200   22.4630   32.7070 C   0  0  0  0  0  0  0  0  0  0  0  0
   38.5570   21.1020   32.7870 N   0  0  0  0  0  0  0  0  0  0  0  0
   37.2710   20.7010   32.5800 C   0  0  0  0  0  0  0  0  0  0  0  0
   36.6310   19.4670   32.5480 C   0  0  0  0  0  0  0  0  0  0  0  0
   35.2550   19.4030   32.3010 C   0  0  0  0  0  0  0  0  0  0  0  0
   34.4970   20.5580   32.0840 C   0  0  0  0  0  0  0  0  0  0  0  0
   35.1230   21.8020   32.1140 C   0  0  0  0  0  0  0  0  0  0  0  0
   36.4770   21.7810   32.3610 C   0  0  0  0  0  0  0  0  0  0  0  0
   39.1124   24.7877   32.8896 H   0  0  0  0  0  0  0  0  0  0  0  0
   36.8485   26.9038   32.2181 H   0  0  0  0  0  0  0  0  0  0  0  0
   38.5147   27.3515   32.2934 H   0  0  0  0  0  0  0  0  0  0  0  0
   39.0833   25.7605   30.4142 H   0  0  0  0  0  0  0  0  0  0  0  0
   37.6500   26.5868   29.8596 H   0  0  0  0  0  0  0  0  0  0  0  0
   36.2940   24.7351   30.2951 H   0  0  0  0  0  0  0  0  0  0  0  0
   37.8252   23.8352   30.2384 H   0  0  0  0  0  0  0  0  0  0  0  0
   36.1625   24.5248   32.6877 H   0  0  0  0  0  0  0  0  0  0  0  0
   39.2355   21.4195   37.2219 H   0  0  0  0  0  0  0  0  0  0  0  0
   37.9276   23.4689   36.5786 H   0  0  0  0  0  0  0  0  0  0  0  0
   42.6904   22.9465   35.3055 H   0  0  0  0  0  0  0  0  0  0  0  0
   39.9644   27.0228   36.3550 H   0  0  0  0  0  0  0  0  0  0  0  0
   39.9222   27.4737   34.7019 H   0  0  0  0  0  0  0  0  0  0  0  0
   37.3986   26.9043   36.5201 H   0  0  0  0  0  0  0  0  0  0  0  0
   37.7790   28.4833   35.9958 H   0  0  0  0  0  0  0  0  0  0  0  0
   36.2712   27.1143   34.2817 H   0  0  0  0  0  0  0  0  0  0  0  0
   37.7042   27.6566   33.4924 H   0  0  0  0  0  0  0  0  0  0  0  0
   37.1129   24.8515   34.6946 H   0  0  0  0  0  0  0  0  0  0  0  0
   39.5089   23.0997   32.8272 H   0  0  0  0  0  0  0  0  0  0  0  0
   39.3544   20.4774   32.9740 H   0  0  0  0  0  0  0  0  0  0  0  0
   37.2047   18.5437   32.7164 H   0  0  0  0  0  0  0  0  0  0  0  0
   34.7583   18.4218   32.2770 H   0  0  0  0  0  0  0  0  0  0  0  0
   33.4165   20.4848   31.8914 H   0  0  0  0  0  0  0  0  0  0  0  0
   34.5715   22.7397   31.9510 H   0  0  0  0  0  0  0  0  0  0  0  0
  1 16  1  0
  2  1  1  0
  3  4  1  0
  3  2  1  0
  4  5  1  0
  5 17  1  0
  5  1  1  0
  7  6  2  0
  8  7  1  0
  9  8  2  0
  9 10  1  0
 10 11  2  0
 11  6  1  0
 12 13  1  0
 12  8  1  0
 13 14  1  0
 15 14  1  0
 16 15  1  0
 16 12  1  0
 17 18  2  0
 18 19  1  0
 20 19  1  0
 21 20  2  0
 22 21  1  0
 23 24  1  0
 23 22  2  0
 24 25  2  0
 25 17  1  0
 25 20  1  0
  1 26  1  1
  2 27  1  0
  2 28  1  0
  3 29  1  0
  3 30  1  0
  4 31  1  0
  4 32  1  0
  5 33  1  1
  6 34  1  0
  7 35  1  0
 10 36  1  0
 13 37  1  0
 13 38  1  0
 14 39  1  0
 14 40  1  0
 15 41  1  0
 15 42  1  0
 16 43  1  1
 18 44  1  0
 19 45  1  0
 21 46  1  0
 22 47  1  0
 23 48  1  0
 24 49  1  0
M  ISO  8  26  13  27  13  28  13  29  13  30  13  31  13  32  13  33  13
M  ISO  8  34  14  35  14  36  14  37  13  38  13  39  13  40  13  41  13
M  ISO  8  42  13  43  13  44  14  45   9  46  14  47  14  48  14  49  14
M  END
>  <minimizedAffinity>  (1) 
-6.13675165

>  <minimizedRMSD>  (1) 
2.14598489

$$$$
