
     RDKit          3D

 50 53  0  0  1  0  0  0  0  0999 V2000
   39.7840   22.2770   36.7950 C   0  0  0  0  0  0  0  0  0  0  0  0
   39.0250   23.3350   36.2730 C   0  0  0  0  0  0  0  0  0  0  0  0
   39.7130   24.3670   35.5940 C   0  0  0  0  0  0  0  0  0  0  0  0
   41.0710   24.2890   35.4760 N   0  0  0  0  0  0  0  0  0  0  0  0
   41.7510   23.2250   36.0110 C   0  0  0  0  0  0  0  0  0  0  0  0
   41.1110   22.2370   36.6610 N   0  0  0  0  0  0  0  0  0  0  0  0
   39.0330   25.4570   35.0460 N   0  0  0  0  0  0  0  0  0  0  0  0
   39.1890   26.8880   35.3310 C   0  0  0  0  0  0  0  0  0  0  0  0
   37.6940   27.2500   35.3410 C   0  0  0  0  0  0  0  0  0  0  0  0
   37.4330   26.7750   33.9130 C   0  0  0  0  0  0  0  0  0  0  0  0
   37.9950   25.3510   34.0450 C   0  0  1  0  0  0  0  0  0  0  0  0
   38.4770   24.9910   32.6850 C   0  0  2  0  0  0  0  0  0  0  0  0
   37.7930   25.8220   31.6370 C   0  0  0  0  0  0  0  0  0  0  0  0
   38.2680   25.1700   30.3690 C   0  0  0  0  0  0  0  0  0  0  0  0
   38.3960   23.7350   30.7020 C   0  0  0  0  0  0  0  0  0  0  0  0
   38.2340   23.6110   32.2170 C   0  0  2  0  0  0  0  0  0  0  0  0
   37.0360   22.9700   32.6000 N   0  0  0  0  0  0  0  0  0  0  0  0
   35.9230   22.9810   31.7500 C   0  0  0  0  0  0  0  0  0  0  0  0
   35.0460   21.7790   32.1440 C   0  0  0  0  0  0  0  0  0  0  0  0
   35.8400   20.4920   31.8970 C   0  0  0  0  0  0  0  0  0  0  0  0
   37.1130   20.5020   32.6810 C   0  0  0  0  0  0  0  0  0  0  0  0
   37.2510   21.8130   33.4070 C   0  0  0  0  0  0  0  0  0  0  0  0
   39.2732   21.4611   37.3273 H   0  0  0  0  0  0  0  0  0  0  0  0
   37.9313   23.3609   36.3880 H   0  0  0  0  0  0  0  0  0  0  0  0
   42.8450   23.1787   35.9060 H   0  0  0  0  0  0  0  0  0  0  0  0
   39.6717   27.0721   36.3021 H   0  0  0  0  0  0  0  0  0  0  0  0
   39.8258   27.4582   34.6386 H   0  0  0  0  0  0  0  0  0  0  0  0
   37.1210   26.6865   36.0922 H   0  0  0  0  0  0  0  0  0  0  0  0
   37.4201   28.2849   35.5938 H   0  0  0  0  0  0  0  0  0  0  0  0
   37.9831   27.3712   33.1701 H   0  0  0  0  0  0  0  0  0  0  0  0
   36.3918   26.8491   33.5660 H   0  0  0  0  0  0  0  0  0  0  0  0
   37.2942   24.5655   34.3643 H   0  0  0  0  0  0  0  0  0  0  0  0
   39.5594   25.1502   32.7995 H   0  0  0  0  0  0  0  0  0  0  0  0
   36.6986   25.7642   31.7314 H   0  0  0  0  0  0  0  0  0  0  0  0
   38.0239   26.8957   31.6993 H   0  0  0  0  0  0  0  0  0  0  0  0
   39.2398   25.5839   30.0618 H   0  0  0  0  0  0  0  0  0  0  0  0
   37.5749   25.3400   29.5319 H   0  0  0  0  0  0  0  0  0  0  0  0
   37.6126   23.1571   30.1899 H   0  0  0  0  0  0  0  0  0  0  0  0
   39.3713   23.3426   30.3783 H   0  0  0  0  0  0  0  0  0  0  0  0
   38.9400   22.9258   32.7090 H   0  0  0  0  0  0  0  0  0  0  0  0
   36.2461   22.8861   30.7028 H   0  0  0  0  0  0  0  0  0  0  0  0
   35.3642   23.9236   31.8460 H   0  0  0  0  0  0  0  0  0  0  0  0
   34.7769   21.8498   33.2082 H   0  0  0  0  0  0  0  0  0  0  0  0
   34.1248   21.7732   31.5429 H   0  0  0  0  0  0  0  0  0  0  0  0
   35.2328   19.6277   32.2041 H   0  0  0  0  0  0  0  0  0  0  0  0
   36.0828   20.4244   30.8263 H   0  0  0  0  0  0  0  0  0  0  0  0
   37.0993   19.6793   33.4111 H   0  0  0  0  0  0  0  0  0  0  0  0
   37.9639   20.3735   31.9959 H   0  0  0  0  0  0  0  0  0  0  0  0
   38.2684   21.8692   33.8213 H   0  0  0  0  0  0  0  0  0  0  0  0
   36.4668   21.8236   34.1783 H   0  0  0  0  0  0  0  0  0  0  0  0
  2  1  2  0
  3  2  1  0
  4  3  2  0
  4  5  1  0
  5  6  2  0
  6  1  1  0
  7  8  1  0
  7  3  1  0
  8  9  1  0
 10 11  1  0
 10  9  1  0
 11  7  1  0
 12 11  1  0
 13 12  1  0
 14 15  1  0
 14 13  1  0
 15 16  1  0
 16 17  1  0
 16 12  1  0
 17 22  1  0
 18 19  1  0
 18 17  1  0
 20 19  1  0
 20 21  1  0
 21 22  1  0
  1 23  1  0
  2 24  1  0
  5 25  1  0
  8 26  1  0
  8 27  1  0
  9 28  1  0
  9 29  1  0
 10 30  1  0
 10 31  1  0
 11 32  1  1
 12 33  1  1
 13 34  1  0
 13 35  1  0
 14 36  1  0
 14 37  1  0
 15 38  1  0
 15 39  1  0
 16 40  1  1
 18 41  1  0
 18 42  1  0
 19 43  1  0
 19 44  1  0
 20 45  1  0
 20 46  1  0
 21 47  1  0
 21 48  1  0
 22 49  1  0
 22 50  1  0
M  ISO  8  23  14  24  14  25  14  26  13  27  13  28  13  29  13  30  13
M  ISO  8  31  13  32  13  33  13  34  13  35  13  36  13  37  13  38  13
M  ISO  8  39  13  40  13  41  13  42  13  43  13  44  13  45  13  46  13
M  ISO  4  47  13  48  13  49  13  50  13
M  END
>  <minimizedAffinity>  (1) 
-5.13089561

>  <minimizedRMSD>  (1) 
1.16078377

$$$$
