
     RDKit          3D

 51 54  0  0  1  0  0  0  0  0999 V2000
   39.7460   22.2030   36.4650 C   0  0  0  0  0  0  0  0  0  0  0  0
   39.0270   23.3170   36.0250 C   0  0  0  0  0  0  0  0  0  0  0  0
   39.7180   24.4150   35.4930 C   0  0  0  0  0  0  0  0  0  0  0  0
   41.0810   24.3460   35.4260 N   0  0  0  0  0  0  0  0  0  0  0  0
   41.7380   23.2340   35.8690 C   0  0  0  0  0  0  0  0  0  0  0  0
   41.0900   22.1840   36.3790 N   0  0  0  0  0  0  0  0  0  0  0  0
   39.0590   25.5600   35.0370 N   0  0  0  0  0  0  0  0  0  0  0  0
   39.1990   26.9410   35.4940 C   0  0  0  0  0  0  0  0  0  0  0  0
   37.7100   27.3190   35.4650 C   0  0  0  0  0  0  0  0  0  0  0  0
   37.5030   26.9890   33.9900 C   0  0  0  0  0  0  0  0  0  0  0  0
   38.0760   25.5750   33.9840 C   0  0  1  0  0  0  0  0  0  0  0  0
   38.5910   25.3510   32.6190 C   0  0  2  0  0  0  0  0  0  0  0  0
   37.9690   26.2550   31.6200 C   0  0  0  0  0  0  0  0  0  0  0  0
   38.4970   25.7420   30.3280 C   0  0  0  0  0  0  0  0  0  0  0  0
   38.6540   24.2770   30.5410 C   0  0  0  0  0  0  0  0  0  0  0  0
   38.4970   24.0130   32.0160 C   0  0  2  0  0  0  0  0  0  0  0  0
   37.2810   23.2170   32.2760 C   0  0  0  0  0  0  0  0  0  0  0  0
   37.7010   21.9340   32.9620 C   0  0  0  0  0  0  0  0  0  0  0  0
   36.5220   21.0930   33.3790 C   0  0  0  0  0  0  0  0  0  0  0  0
   35.2360   21.5630   32.7170 C   0  0  0  0  0  0  0  0  0  0  0  0
   35.5490   21.7090   31.2660 C   0  0  0  0  0  0  0  0  0  0  0  0
   36.4540   22.9290   31.0430 C   0  0  0  0  0  0  0  0  0  0  0  0
   39.2120   21.3372   36.8837 H   0  0  0  0  0  0  0  0  0  0  0  0
   37.9294   23.3327   36.0952 H   0  0  0  0  0  0  0  0  0  0  0  0
   42.8356   23.2023   35.8036 H   0  0  0  0  0  0  0  0  0  0  0  0
   39.6269   27.0052   36.5053 H   0  0  0  0  0  0  0  0  0  0  0  0
   39.8741   27.5809   34.9069 H   0  0  0  0  0  0  0  0  0  0  0  0
   37.0979   26.6943   36.1322 H   0  0  0  0  0  0  0  0  0  0  0  0
   37.4380   28.3307   35.8003 H   0  0  0  0  0  0  0  0  0  0  0  0
   36.4398   27.0052   33.7082 H   0  0  0  0  0  0  0  0  0  0  0  0
   37.9619   27.6903   33.2776 H   0  0  0  0  0  0  0  0  0  0  0  0
   37.3723   24.7544   34.1878 H   0  0  0  0  0  0  0  0  0  0  0  0
   39.6553   25.5414   32.8217 H   0  0  0  0  0  0  0  0  0  0  0  0
   36.8717   26.1859   31.6538 H   0  0  0  0  0  0  0  0  0  0  0  0
   38.2020   27.3162   31.7921 H   0  0  0  0  0  0  0  0  0  0  0  0
   39.4662   26.2062   30.0929 H   0  0  0  0  0  0  0  0  0  0  0  0
   37.8296   25.9715   29.4843 H   0  0  0  0  0  0  0  0  0  0  0  0
   37.8828   23.7311   29.9778 H   0  0  0  0  0  0  0  0  0  0  0  0
   39.6401   23.9386   30.1903 H   0  0  0  0  0  0  0  0  0  0  0  0
   39.2647   23.3736   32.4761 H   0  0  0  0  0  0  0  0  0  0  0  0
   36.6181   23.8134   32.9201 H   0  0  0  0  0  0  0  0  0  0  0  0
   38.3238   21.3500   32.2684 H   0  0  0  0  0  0  0  0  0  0  0  0
   38.2571   22.2063   33.8712 H   0  0  0  0  0  0  0  0  0  0  0  0
   36.7098   20.0479   33.0919 H   0  0  0  0  0  0  0  0  0  0  0  0
   36.4016   21.1860   34.4684 H   0  0  0  0  0  0  0  0  0  0  0  0
   34.4377   20.8204   32.8628 H   0  0  0  0  0  0  0  0  0  0  0  0
   34.8834   22.5107   33.1501 H   0  0  0  0  0  0  0  0  0  0  0  0
   36.0642   20.8039   30.9118 H   0  0  0  0  0  0  0  0  0  0  0  0
   34.6118   21.8483   30.7072 H   0  0  0  0  0  0  0  0  0  0  0  0
   37.1269   22.7288   30.1961 H   0  0  0  0  0  0  0  0  0  0  0  0
   35.8211   23.8033   30.8309 H   0  0  0  0  0  0  0  0  0  0  0  0
  2  1  2  0
  3  2  1  0
  4  3  2  0
  4  5  1  0
  5  6  2  0
  6  1  1  0
  7  3  1  0
  7  8  1  0
  9  8  1  0
 10  9  1  0
 11 10  1  0
 11  7  1  0
 12 11  1  0
 13 12  1  0
 14 15  1  0
 14 13  1  0
 15 16  1  0
 16 17  1  0
 16 12  1  0
 17 18  1  0
 18 19  1  0
 20 19  1  0
 21 20  1  0
 22 21  1  0
 22 17  1  0
  1 23  1  0
  2 24  1  0
  5 25  1  0
  8 26  1  0
  8 27  1  0
  9 28  1  0
  9 29  1  0
 10 30  1  0
 10 31  1  0
 11 32  1  1
 12 33  1  1
 13 34  1  0
 13 35  1  0
 14 36  1  0
 14 37  1  0
 15 38  1  0
 15 39  1  0
 16 40  1  1
 17 41  1  0
 18 42  1  0
 18 43  1  0
 19 44  1  0
 19 45  1  0
 20 46  1  0
 20 47  1  0
 21 48  1  0
 21 49  1  0
 22 50  1  0
 22 51  1  0
M  ISO  8  23  14  24  14  25  14  26  13  27  13  28  13  29  13  30  13
M  ISO  8  31  13  32  13  33  13  34  13  35  13  36  13  37  13  38  13
M  ISO  8  39  13  40  13  41  13  42  13  43  13  44  13  45  13  46  13
M  ISO  5  47  13  48  13  49  13  50  13  51  13
M  END
>  <minimizedAffinity>  (1) 
-5.23867702

>  <minimizedRMSD>  (1) 
1.49401379

$$$$
