
     RDKit          3D

 48 51  0  0  1  0  0  0  0  0999 V2000
   40.3520   22.1870   37.2600 C   0  0  0  0  0  0  0  0  0  0  0  0
   39.5160   23.2180   36.8240 C   0  0  0  0  0  0  0  0  0  0  0  0
   40.0150   24.0410   35.7880 C   0  0  0  0  0  0  0  0  0  0  0  0
   41.2770   23.7780   35.2830 N   0  0  0  0  0  0  0  0  0  0  0  0
   42.0250   22.7580   35.7630 C   0  0  0  0  0  0  0  0  0  0  0  0
   41.5660   21.9710   36.7410 N   0  0  0  0  0  0  0  0  0  0  0  0
   39.2610   25.0990   35.2620 N   0  0  0  0  0  0  0  0  0  0  0  0
   39.5790   26.5200   35.2240 C   0  0  0  0  0  0  0  0  0  0  0  0
   38.1860   27.0430   35.5900 C   0  0  0  0  0  0  0  0  0  0  0  0
   37.4700   26.3720   34.4250 C   0  0  0  0  0  0  0  0  0  0  0  0
   37.9730   24.9380   34.6390 C   0  0  1  0  0  0  0  0  0  0  0  0
   38.0260   24.2820   33.2930 C   0  0  2  0  0  0  0  0  0  0  0  0
   37.4270   25.2630   32.2790 C   0  0  0  0  0  0  0  0  0  0  0  0
   37.4210   24.4150   31.0300 C   0  0  0  0  0  0  0  0  0  0  0  0
   37.2000   23.0490   31.5250 C   0  0  0  0  0  0  0  0  0  0  0  0
   37.2190   23.1120   33.0500 C   0  0  1  0  0  0  0  0  0  0  0  0
   37.4630   21.7460   33.4720 C   0  0  0  0  0  0  0  0  0  0  0  0
   36.8580   21.5930   34.8820 C   0  0  0  0  0  0  0  0  0  0  0  0
   35.6530   20.7120   34.7520 C   0  0  0  0  0  0  0  0  0  0  0  0
   35.7340   20.0230   33.4260 C   0  0  0  0  0  0  0  0  0  0  0  0
   36.8660   20.6500   32.6790 C   0  0  0  0  0  0  0  0  0  0  0  0
   39.9971   21.5251   38.0637 H   0  0  0  0  0  0  0  0  0  0  0  0
   38.5211   23.3811   37.2639 H   0  0  0  0  0  0  0  0  0  0  0  0
   43.0247   22.5738   35.3426 H   0  0  0  0  0  0  0  0  0  0  0  0
   40.3403   26.7993   35.9672 H   0  0  0  0  0  0  0  0  0  0  0  0
   40.0127   26.8989   34.2868 H   0  0  0  0  0  0  0  0  0  0  0  0
   37.8382   26.6833   36.5697 H   0  0  0  0  0  0  0  0  0  0  0  0
   38.0654   28.1307   35.7010 H   0  0  0  0  0  0  0  0  0  0  0  0
   37.7863   26.7809   33.4540 H   0  0  0  0  0  0  0  0  0  0  0  0
   36.3771   26.4950   34.4032 H   0  0  0  0  0  0  0  0  0  0  0  0
   37.3411   24.2996   35.2739 H   0  0  0  0  0  0  0  0  0  0  0  0
   39.0855   23.9956   33.2196 H   0  0  0  0  0  0  0  0  0  0  0  0
   36.4098   25.5691   32.5648 H   0  0  0  0  0  0  0  0  0  0  0  0
   37.9785   26.2099   32.1826 H   0  0  0  0  0  0  0  0  0  0  0  0
   38.3840   24.4885   30.5035 H   0  0  0  0  0  0  0  0  0  0  0  0
   36.6536   24.7318   30.3084 H   0  0  0  0  0  0  0  0  0  0  0  0
   36.2265   22.6746   31.1755 H   0  0  0  0  0  0  0  0  0  0  0  0
   37.9799   22.3683   31.1529 H   0  0  0  0  0  0  0  0  0  0  0  0
   36.3565   23.3190   33.7005 H   0  0  0  0  0  0  0  0  0  0  0  0
   38.5526   21.6314   33.3735 H   0  0  0  0  0  0  0  0  0  0  0  0
   37.5916   21.1312   35.5591 H   0  0  0  0  0  0  0  0  0  0  0  0
   36.5828   22.5734   35.2981 H   0  0  0  0  0  0  0  0  0  0  0  0
   35.6445   19.9671   35.5613 H   0  0  0  0  0  0  0  0  0  0  0  0
   34.7309   21.3078   34.8209 H   0  0  0  0  0  0  0  0  0  0  0  0
   35.9240   18.9490   33.5689 H   0  0  0  0  0  0  0  0  0  0  0  0
   34.7904   20.1268   32.8703 H   0  0  0  0  0  0  0  0  0  0  0  0
   37.6337   19.8882   32.4781 H   0  0  0  0  0  0  0  0  0  0  0  0
   36.4846   21.0612   31.7327 H   0  0  0  0  0  0  0  0  0  0  0  0
  2  1  2  0
  3  2  1  0
  4  5  1  0
  4  3  2  0
  5  6  2  0
  6  1  1  0
  7  3  1  0
  8  7  1  0
  8  9  1  0
 10 11  1  0
 10  9  1  0
 11  7  1  0
 12 11  1  0
 13 12  1  0
 14 15  1  0
 14 13  1  0
 15 16  1  0
 16 12  1  0
 16 17  1  0
 17 18  1  0
 19 18  1  0
 20 19  1  0
 21 20  1  0
 21 17  1  0
  1 22  1  0
  2 23  1  0
  5 24  1  0
  8 25  1  0
  8 26  1  0
  9 27  1  0
  9 28  1  0
 10 29  1  0
 10 30  1  0
 11 31  1  1
 12 32  1  6
 13 33  1  0
 13 34  1  0
 14 35  1  0
 14 36  1  0
 15 37  1  0
 15 38  1  0
 16 39  1  1
 17 40  1  0
 18 41  1  0
 18 42  1  0
 19 43  1  0
 19 44  1  0
 20 45  1  0
 20 46  1  0
 21 47  1  0
 21 48  1  0
M  ISO  8  22  14  23  14  24  14  25  13  26  13  27  13  28  13  29  13
M  ISO  8  30  13  31  13  32  13  33  13  34  13  35  13  36  13  37  13
M  ISO  8  38  13  39  13  40  13  41  13  42  13  43  13  44  13  45  13
M  ISO  3  46  13  47  13  48  13
M  END
>  <minimizedAffinity>  (1) 
-5.2531991

>  <minimizedRMSD>  (1) 
0.874176025

$$$$
