
     RDKit          3D

 45 48  0  0  1  0  0  0  0  0999 V2000
   36.3860   23.7580   32.0570 C   0  0  2  0  0  0  0  0  0  0  0  0
   35.2800   23.9470   31.0190 C   0  0  0  0  0  0  0  0  0  0  0  0
   35.2030   25.4700   31.0210 C   0  0  0  0  0  0  0  0  0  0  0  0
   36.6270   25.8650   31.0610 C   0  0  0  0  0  0  0  0  0  0  0  0
   37.4230   24.6400   31.5200 C   0  0  1  0  0  0  0  0  0  0  0  0
   40.3800   22.0880   34.7300 C   0  0  0  0  0  0  0  0  0  0  0  0
   39.3200   21.7600   33.8550 C   0  0  0  0  0  0  0  0  0  0  0  0
   38.0170   22.0680   34.2410 C   0  0  0  0  0  0  0  0  0  0  0  0
   37.8340   22.6760   35.4520 N   0  0  0  0  0  0  0  0  0  0  0  0
   38.8660   22.9820   36.2700 C   0  0  0  0  0  0  0  0  0  0  0  0
   40.1250   22.6900   35.9140 N   0  0  0  0  0  0  0  0  0  0  0  0
   36.9070   21.7770   33.4330 N   0  0  0  0  0  0  0  0  0  0  0  0
   35.7530   20.9410   33.7240 C   0  0  0  0  0  0  0  0  0  0  0  0
   35.6570   20.2610   32.3480 C   0  0  0  0  0  0  0  0  0  0  0  0
   35.5070   21.5440   31.5560 C   0  0  0  0  0  0  0  0  0  0  0  0
   36.7190   22.2910   32.1020 C   0  0  1  0  0  0  0  0  0  0  0  0
   38.4770   25.1010   32.3890 N   0  0  0  0  0  0  0  0  0  0  0  0
   39.7870   24.9890   32.0940 C   0  0  0  0  0  0  0  0  0  0  0  0
   40.8210   25.4200   32.8580 C   0  0  0  0  0  0  0  0  0  0  0  0
   40.5490   26.0370   34.0550 C   0  0  0  0  0  0  0  0  0  0  0  0
   41.3810   26.4940   34.8800 O   0  0  0  0  0  0  0  0  0  0  0  0
   39.2200   26.1450   34.3450 N   0  0  0  0  0  0  0  0  0  0  0  0
   38.1940   25.7020   33.5600 C   0  0  0  0  0  0  0  0  0  0  0  0
   37.0230   25.8690   33.9540 O   0  0  0  0  0  0  0  0  0  0  0  0
   36.1732   24.0143   33.1053 H   0  0  0  0  0  0  0  0  0  0  0  0
   34.3332   23.4864   31.3375 H   0  0  0  0  0  0  0  0  0  0  0  0
   35.4697   23.4857   30.0386 H   0  0  0  0  0  0  0  0  0  0  0  0
   34.7127   25.8440   30.1101 H   0  0  0  0  0  0  0  0  0  0  0  0
   34.6125   25.8770   31.8551 H   0  0  0  0  0  0  0  0  0  0  0  0
   36.9598   26.1776   30.0602 H   0  0  0  0  0  0  0  0  0  0  0  0
   36.7791   26.7100   31.7486 H   0  0  0  0  0  0  0  0  0  0  0  0
   37.9804   24.0606   30.7692 H   0  0  0  0  0  0  0  0  0  0  0  0
   41.4166   21.8528   34.4471 H   0  0  0  0  0  0  0  0  0  0  0  0
   39.5192   21.2719   32.8896 H   0  0  0  0  0  0  0  0  0  0  0  0
   38.6712   23.4740   37.2344 H   0  0  0  0  0  0  0  0  0  0  0  0
   35.9478   20.2234   34.5346 H   0  0  0  0  0  0  0  0  0  0  0  0
   34.8497   21.4580   34.0800 H   0  0  0  0  0  0  0  0  0  0  0  0
   36.5668   19.7016   32.0847 H   0  0  0  0  0  0  0  0  0  0  0  0
   34.8797   19.4937   32.2175 H   0  0  0  0  0  0  0  0  0  0  0  0
   34.5639   22.0629   31.7826 H   0  0  0  0  0  0  0  0  0  0  0  0
   35.4703   21.4285   30.4627 H   0  0  0  0  0  0  0  0  0  0  0  0
   37.6525   22.1564   31.5360 H   0  0  0  0  0  0  0  0  0  0  0  0
   40.0421   24.5010   31.1418 H   0  0  0  0  0  0  0  0  0  0  0  0
   41.8598   25.2781   32.5251 H   0  0  0  0  0  0  0  0  0  0  0  0
   38.9686   26.6006   35.2339 H   0  0  0  0  0  0  0  0  0  0  0  0
  1 16  1  0
  2  3  1  0
  2  1  1  0
  3  4  1  0
  4  5  1  0
  5  1  1  0
  5 17  1  0
  6 11  2  0
  7  8  2  0
  7  6  1  0
  8  9  1  0
  9 10  2  0
 11 10  1  0
 12 13  1  0
 12  8  1  0
 14 13  1  0
 15 16  1  0
 15 14  1  0
 16 12  1  0
 17 23  1  0
 18 17  1  0
 18 19  2  0
 19 20  1  0
 20 22  1  0
 20 21  2  0
 23 24  2  0
 23 22  1  0
  1 25  1  1
  2 26  1  0
  2 27  1  0
  3 28  1  0
  3 29  1  0
  4 30  1  0
  4 31  1  0
  5 32  1  6
  6 33  1  0
  7 34  1  0
 10 35  1  0
 13 36  1  0
 13 37  1  0
 14 38  1  0
 14 39  1  0
 15 40  1  0
 15 41  1  0
 16 42  1  6
 18 43  1  0
 19 44  1  0
 22 45  1  0
M  ISO  8  25  13  26  13  27  13  28  13  29  13  30  13  31  13  32  13
M  ISO  8  33  14  34  14  35  14  36  13  37  13  38  13  39  13  40  13
M  ISO  5  41  13  42  13  43  14  44  14  45   9
M  END
>  <minimizedAffinity>  (1) 
-5.32256031

>  <minimizedRMSD>  (1) 
4.30845785

$$$$
