
     RDKit          3D

 47 50  0  0  1  0  0  0  0  0999 V2000
   40.0340   22.4890   36.9970 C   0  0  0  0  0  0  0  0  0  0  0  0
   39.1790   23.3610   36.3170 C   0  0  0  0  0  0  0  0  0  0  0  0
   39.7390   24.3170   35.4380 C   0  0  0  0  0  0  0  0  0  0  0  0
   41.0970   24.3490   35.2910 N   0  0  0  0  0  0  0  0  0  0  0  0
   41.8780   23.4640   35.9890 C   0  0  0  0  0  0  0  0  0  0  0  0
   41.3680   22.5570   36.8210 N   0  0  0  0  0  0  0  0  0  0  0  0
   38.9450   25.2200   34.7290 N   0  0  0  0  0  0  0  0  0  0  0  0
   38.9550   26.6750   34.7490 C   0  0  0  0  0  0  0  0  0  0  0  0
   37.4300   26.8880   34.7380 C   0  0  0  0  0  0  0  0  0  0  0  0
   37.1880   26.1330   33.4340 C   0  0  0  0  0  0  0  0  0  0  0  0
   37.9100   24.8250   33.7970 C   0  0  1  0  0  0  0  0  0  0  0  0
   38.4070   24.2720   32.5090 C   0  0  2  0  0  0  0  0  0  0  0  0
   37.9100   25.0630   31.3390 C   0  0  0  0  0  0  0  0  0  0  0  0
   38.2900   24.1910   30.1830 C   0  0  0  0  0  0  0  0  0  0  0  0
   38.1640   22.8050   30.6840 C   0  0  0  0  0  0  0  0  0  0  0  0
   38.0030   22.8900   32.1910 C   0  0  2  0  0  0  0  0  0  0  0  0
   36.7050   22.4740   32.6330 N   0  0  0  0  0  0  0  0  0  0  0  0
   36.8510   21.4260   33.6150 C   0  0  0  0  0  0  0  0  0  0  0  0
   35.8360   20.4060   33.2970 C   0  0  0  0  0  0  0  0  0  0  0  0
   34.8760   21.0630   32.3670 C   0  0  0  0  0  0  0  0  0  0  0  0
   35.8360   21.9990   31.6090 C   0  0  0  0  0  0  0  0  0  0  0  0
   39.6132   21.7393   37.6832 H   0  0  0  0  0  0  0  0  0  0  0  0
   38.0902   23.3047   36.4629 H   0  0  0  0  0  0  0  0  0  0  0  0
   42.9693   23.5046   35.8567 H   0  0  0  0  0  0  0  0  0  0  0  0
   39.4273   27.0779   35.6571 H   0  0  0  0  0  0  0  0  0  0  0  0
   39.5216   27.1693   33.9461 H   0  0  0  0  0  0  0  0  0  0  0  0
   36.9276   26.4243   35.5997 H   0  0  0  0  0  0  0  0  0  0  0  0
   37.0620   27.9227   34.8007 H   0  0  0  0  0  0  0  0  0  0  0  0
   37.6488   26.6361   32.5711 H   0  0  0  0  0  0  0  0  0  0  0  0
   36.1367   26.0312   33.1266 H   0  0  0  0  0  0  0  0  0  0  0  0
   37.3052   24.0405   34.2754 H   0  0  0  0  0  0  0  0  0  0  0  0
   39.4956   24.3149   32.6608 H   0  0  0  0  0  0  0  0  0  0  0  0
   36.8206   25.2069   31.3888 H   0  0  0  0  0  0  0  0  0  0  0  0
   38.3292   26.0784   31.2825 H   0  0  0  0  0  0  0  0  0  0  0  0
   39.3244   24.3952   29.8696 H   0  0  0  0  0  0  0  0  0  0  0  0
   37.6512   24.3704   29.3056 H   0  0  0  0  0  0  0  0  0  0  0  0
   37.2835   22.3204   30.2369 H   0  0  0  0  0  0  0  0  0  0  0  0
   39.0494   22.2094   30.4171 H   0  0  0  0  0  0  0  0  0  0  0  0
   38.6321   22.1830   32.7517 H   0  0  0  0  0  0  0  0  0  0  0  0
   37.8589   20.9893   33.5569 H   0  0  0  0  0  0  0  0  0  0  0  0
   36.7152   21.8162   34.6345 H   0  0  0  0  0  0  0  0  0  0  0  0
   36.3052   19.5373   32.8120 H   0  0  0  0  0  0  0  0  0  0  0  0
   35.3334   20.0392   34.2041 H   0  0  0  0  0  0  0  0  0  0  0  0
   34.3978   20.3365   31.6936 H   0  0  0  0  0  0  0  0  0  0  0  0
   34.0282   21.5657   32.8553 H   0  0  0  0  0  0  0  0  0  0  0  0
   36.3973   21.4489   30.8393 H   0  0  0  0  0  0  0  0  0  0  0  0
   35.3167   22.8082   31.0747 H   0  0  0  0  0  0  0  0  0  0  0  0
  2  1  2  0
  3  2  1  0
  4  3  2  0
  4  5  1  0
  5  6  2  0
  6  1  1  0
  7  8  1  0
  7  3  1  0
  9  8  1  0
 10 11  1  0
 10  9  1  0
 11  7  1  0
 12 11  1  0
 13 12  1  0
 14 15  1  0
 14 13  1  0
 15 16  1  0
 16 12  1  0
 16 17  1  0
 17 18  1  0
 19 18  1  0
 20 19  1  0
 21 20  1  0
 21 17  1  0
  1 22  1  0
  2 23  1  0
  5 24  1  0
  8 25  1  0
  8 26  1  0
  9 27  1  0
  9 28  1  0
 10 29  1  0
 10 30  1  0
 11 31  1  1
 12 32  1  1
 13 33  1  0
 13 34  1  0
 14 35  1  0
 14 36  1  0
 15 37  1  0
 15 38  1  0
 16 39  1  1
 18 40  1  0
 18 41  1  0
 19 42  1  0
 19 43  1  0
 20 44  1  0
 20 45  1  0
 21 46  1  0
 21 47  1  0
M  ISO  8  22  14  23  14  24  14  25  13  26  13  27  13  28  13  29  13
M  ISO  8  30  13  31  13  32  13  33  13  34  13  35  13  36  13  37  13
M  ISO  8  38  13  39  13  40  13  41  13  42  13  43  13  44  13  45  13
M  ISO  2  46  13  47  13
M  END
>  <minimizedAffinity>  (1) 
-5.04558945

>  <minimizedRMSD>  (1) 
1.26995099

$$$$
