
     RDKit          3D

 48 51  0  0  1  0  0  0  0  0999 V2000
   39.5940   22.2740   36.6240 C   0  0  0  0  0  0  0  0  0  0  0  0
   38.9110   23.4040   36.1550 C   0  0  0  0  0  0  0  0  0  0  0  0
   39.6510   24.4360   35.5770 C   0  0  0  0  0  0  0  0  0  0  0  0
   41.0080   24.3020   35.4920 N   0  0  0  0  0  0  0  0  0  0  0  0
   41.6260   23.1730   35.9670 C   0  0  0  0  0  0  0  0  0  0  0  0
   40.9250   22.1800   36.5220 N   0  0  0  0  0  0  0  0  0  0  0  0
   39.0550   25.6000   35.0860 N   0  0  0  0  0  0  0  0  0  0  0  0
   39.2810   27.0010   35.4670 C   0  0  0  0  0  0  0  0  0  0  0  0
   37.8090   27.4470   35.4610 C   0  0  0  0  0  0  0  0  0  0  0  0
   37.5760   27.0880   33.9990 C   0  0  0  0  0  0  0  0  0  0  0  0
   38.0450   25.6240   34.0500 C   0  0  1  0  0  0  0  0  0  0  0  0
   38.5140   25.3160   32.6930 C   0  0  2  0  0  0  0  0  0  0  0  0
   37.9020   26.2290   31.6730 C   0  0  0  0  0  0  0  0  0  0  0  0
   38.4840   25.6580   30.3860 C   0  0  0  0  0  0  0  0  0  0  0  0
   38.4620   24.1960   30.6240 C   0  0  0  0  0  0  0  0  0  0  0  0
   38.3180   23.9840   32.1240 C   0  0  2  0  0  0  0  0  0  0  0  0
   37.1540   23.2350   32.4700 N   0  0  0  0  0  0  0  0  0  0  0  0
   36.1210   23.1060   31.5290 C   0  0  0  0  0  0  0  0  0  0  0  0
   35.1550   22.0270   32.0220 C   0  0  0  0  0  0  0  0  0  0  0  0
   35.8610   20.8350   32.0140 O   0  0  0  0  0  0  0  0  0  0  0  0
   36.6900   20.8990   33.1320 C   0  0  0  0  0  0  0  0  0  0  0  0
   37.5630   22.0750   33.1820 C   0  0  0  0  0  0  0  0  0  0  0  0
   39.0270   21.4509   37.0834 H   0  0  0  0  0  0  0  0  0  0  0  0
   37.8167   23.4758   36.2405 H   0  0  0  0  0  0  0  0  0  0  0  0
   42.7196   23.0835   35.8895 H   0  0  0  0  0  0  0  0  0  0  0  0
   39.7438   27.0959   36.4604 H   0  0  0  0  0  0  0  0  0  0  0  0
   39.9686   27.5761   34.8294 H   0  0  0  0  0  0  0  0  0  0  0  0
   37.1806   26.8662   36.1522 H   0  0  0  0  0  0  0  0  0  0  0  0
   37.5819   28.4748   35.7805 H   0  0  0  0  0  0  0  0  0  0  0  0
   38.1899   27.6970   33.3192 H   0  0  0  0  0  0  0  0  0  0  0  0
   36.5554   27.2512   33.6225 H   0  0  0  0  0  0  0  0  0  0  0  0
   37.2951   24.8604   34.3040 H   0  0  0  0  0  0  0  0  0  0  0  0
   39.5926   25.4320   32.8750 H   0  0  0  0  0  0  0  0  0  0  0  0
   36.8038   26.1668   31.6823 H   0  0  0  0  0  0  0  0  0  0  0  0
   38.1156   27.2961   31.8331 H   0  0  0  0  0  0  0  0  0  0  0  0
   39.5116   26.0160   30.2249 H   0  0  0  0  0  0  0  0  0  0  0  0
   37.9227   25.9575   29.4886 H   0  0  0  0  0  0  0  0  0  0  0  0
   37.6107   23.7414   30.0961 H   0  0  0  0  0  0  0  0  0  0  0  0
   39.3843   23.7267   30.2511 H   0  0  0  0  0  0  0  0  0  0  0  0
   39.0656   23.3147   32.5747 H   0  0  0  0  0  0  0  0  0  0  0  0
   36.5396   22.8136   30.5547 H   0  0  0  0  0  0  0  0  0  0  0  0
   35.5925   24.0636   31.4124 H   0  0  0  0  0  0  0  0  0  0  0  0
   34.8132   22.2596   33.0414 H   0  0  0  0  0  0  0  0  0  0  0  0
   34.2641   21.9665   31.3797 H   0  0  0  0  0  0  0  0  0  0  0  0
   36.0543   20.9061   34.0297 H   0  0  0  0  0  0  0  0  0  0  0  0
   37.3528   20.0228   33.0771 H   0  0  0  0  0  0  0  0  0  0  0  0
   38.5427   21.7735   32.7828 H   0  0  0  0  0  0  0  0  0  0  0  0
   37.5546   22.3813   34.2385 H   0  0  0  0  0  0  0  0  0  0  0  0
  2  1  2  0
  3  2  1  0
  4  3  2  0
  4  5  1  0
  5  6  2  0
  6  1  1  0
  7  8  1  0
  7  3  1  0
  9  8  1  0
 10 11  1  0
 10  9  1  0
 11  7  1  0
 12 11  1  0
 13 12  1  0
 14 15  1  0
 14 13  1  0
 15 16  1  0
 16 17  1  0
 16 12  1  0
 17 22  1  0
 18 19  1  0
 18 17  1  0
 20 19  1  0
 20 21  1  0
 21 22  1  0
  1 23  1  0
  2 24  1  0
  5 25  1  0
  8 26  1  0
  8 27  1  0
  9 28  1  0
  9 29  1  0
 10 30  1  0
 10 31  1  0
 11 32  1  1
 12 33  1  1
 13 34  1  0
 13 35  1  0
 14 36  1  0
 14 37  1  0
 15 38  1  0
 15 39  1  0
 16 40  1  1
 18 41  1  0
 18 42  1  0
 19 43  1  0
 19 44  1  0
 21 45  1  0
 21 46  1  0
 22 47  1  0
 22 48  1  0
M  ISO  8  23  14  24  14  25  14  26  13  27  13  28  13  29  13  30  13
M  ISO  8  31  13  32  13  33  13  34  13  35  13  36  13  37  13  38  13
M  ISO  8  39  13  40  13  41  13  42  13  43  13  44  13  45  13  46  13
M  ISO  2  47  13  48  13
M  END
>  <minimizedAffinity>  (1) 
-4.927248

>  <minimizedRMSD>  (1) 
1.33075237

$$$$
