
     RDKit          3D

 37 39  0  0  1  0  0  0  0  0999 V2000
   39.8640   22.6050   37.2320 C   0  0  0  0  0  0  0  0  0  0  0  0
   39.1070   23.6650   36.7410 C   0  0  0  0  0  0  0  0  0  0  0  0
   39.6750   24.4910   35.7630 C   0  0  0  0  0  0  0  0  0  0  0  0
   40.9430   24.2210   35.3320 N   0  0  0  0  0  0  0  0  0  0  0  0
   41.6480   23.1760   35.8370 C   0  0  0  0  0  0  0  0  0  0  0  0
   41.1150   22.3820   36.7710 N   0  0  0  0  0  0  0  0  0  0  0  0
   38.9600   25.5790   35.2270 N   0  0  0  0  0  0  0  0  0  0  0  0
   39.3040   27.0000   35.2510 C   0  0  0  0  0  0  0  0  0  0  0  0
   37.9150   27.5540   35.5390 C   0  0  0  0  0  0  0  0  0  0  0  0
   37.2250   26.9170   34.3440 C   0  0  0  0  0  0  0  0  0  0  0  0
   37.7160   25.4820   34.5320 C   0  0  1  0  0  0  0  0  0  0  0  0
   37.8270   24.8940   33.1550 C   0  0  2  0  0  0  0  0  0  0  0  0
   36.7220   25.4580   32.2780 C   0  0  0  0  0  0  0  0  0  0  0  0
   36.9140   24.6010   31.0360 C   0  0  0  0  0  0  0  0  0  0  0  0
   37.1010   23.2440   31.6230 C   0  0  0  0  0  0  0  0  0  0  0  0
   37.5270   23.4370   33.0580 C   0  0  1  0  0  0  0  0  0  0  0  0
   38.7880   22.7090   33.2090 N   0  0  0  0  0  0  0  0  0  0  0  0
   39.4405   21.9431   38.0018 H   0  0  0  0  0  0  0  0  0  0  0  0
   38.0880   23.8493   37.1120 H   0  0  0  0  0  0  0  0  0  0  0  0
   42.6678   22.9809   35.4739 H   0  0  0  0  0  0  0  0  0  0  0  0
   40.0216   27.2408   36.0492 H   0  0  0  0  0  0  0  0  0  0  0  0
   39.8003   27.3902   34.3502 H   0  0  0  0  0  0  0  0  0  0  0  0
   37.5097   27.2014   36.4989 H   0  0  0  0  0  0  0  0  0  0  0  0
   37.8263   28.6457   35.6407 H   0  0  0  0  0  0  0  0  0  0  0  0
   37.5648   27.3491   33.3912 H   0  0  0  0  0  0  0  0  0  0  0  0
   36.1333   27.0449   34.3006 H   0  0  0  0  0  0  0  0  0  0  0  0
   37.0540   24.8289   35.1196 H   0  0  0  0  0  0  0  0  0  0  0  0
   38.8660   25.1163   32.8702 H   0  0  0  0  0  0  0  0  0  0  0  0
   35.7285   25.3111   32.7267 H   0  0  0  0  0  0  0  0  0  0  0  0
   36.7725   26.5434   32.1066 H   0  0  0  0  0  0  0  0  0  0  0  0
   37.8007   24.9158   30.4661 H   0  0  0  0  0  0  0  0  0  0  0  0
   36.0812   24.6641   30.3201 H   0  0  0  0  0  0  0  0  0  0  0  0
   36.1565   22.6816   31.5820 H   0  0  0  0  0  0  0  0  0  0  0  0
   37.8579   22.6755   31.0626 H   0  0  0  0  0  0  0  0  0  0  0  0
   36.7869   23.1030   33.8001 H   0  0  0  0  0  0  0  0  0  0  0  0
   38.9970   22.5883   34.2103 H   0  0  0  0  0  0  0  0  0  0  0  0
   38.7067   21.7849   32.7615 H   0  0  0  0  0  0  0  0  0  0  0  0
  2  1  2  0
  3  2  1  0
  4  3  2  0
  4  5  1  0
  5  6  2  0
  6  1  1  0
  7  8  1  0
  7  3  1  0
  8  9  1  0
 10 11  1  0
 10  9  1  0
 11  7  1  0
 12 11  1  0
 13 12  1  0
 14 15  1  0
 14 13  1  0
 15 16  1  0
 16 12  1  0
 16 17  1  0
  1 18  1  0
  2 19  1  0
  5 20  1  0
  8 21  1  0
  8 22  1  0
  9 23  1  0
  9 24  1  0
 10 25  1  0
 10 26  1  0
 11 27  1  1
 12 28  1  6
 13 29  1  0
 13 30  1  0
 14 31  1  0
 14 32  1  0
 15 33  1  0
 15 34  1  0
 16 35  1  1
 17 36  1  0
 17 37  1  0
M  ISO  8  18  14  19  14  20  14  21  13  22  13  23  13  24  13  25  13
M  ISO  8  26  13  27  13  28  13  29  13  30  13  31  13  32  13  33  13
M  ISO  4  34  13  35  13  36   5  37   5
M  END
>  <minimizedAffinity>  (1) 
-4.50560713

>  <minimizedRMSD>  (1) 
0.0268412344

$$$$
