
     RDKit          3D

 36 38  0  0  1  0  0  0  0  0999 V2000
   39.8220   22.5880   37.2230 C   0  0  0  0  0  0  0  0  0  0  0  0
   39.0590   23.6710   36.7350 C   0  0  0  0  0  0  0  0  0  0  0  0
   39.6370   24.5050   35.7640 C   0  0  0  0  0  0  0  0  0  0  0  0
   40.9210   24.2230   35.3390 N   0  0  0  0  0  0  0  0  0  0  0  0
   41.6090   23.1630   35.8460 C   0  0  0  0  0  0  0  0  0  0  0  0
   41.0630   22.3560   36.7780 N   0  0  0  0  0  0  0  0  0  0  0  0
   38.9520   25.5990   35.2270 N   0  0  0  0  0  0  0  0  0  0  0  0
   39.3080   27.0120   35.2540 C   0  0  0  0  0  0  0  0  0  0  0  0
   37.9140   27.5820   35.5360 C   0  0  0  0  0  0  0  0  0  0  0  0
   37.2080   26.9380   34.3510 C   0  0  0  0  0  0  0  0  0  0  0  0
   37.7110   25.5070   34.5190 C   0  0  1  0  0  0  0  0  0  0  0  0
   37.8160   24.9200   33.1470 C   0  0  2  0  0  0  0  0  0  0  0  0
   36.7030   25.4600   32.2790 C   0  0  0  0  0  0  0  0  0  0  0  0
   36.8730   24.5840   31.0530 C   0  0  0  0  0  0  0  0  0  0  0  0
   37.1940   23.2510   31.6010 C   0  0  0  0  0  0  0  0  0  0  0  0
   37.5370   23.4650   33.0760 C   0  0  1  0  0  0  0  0  0  0  0  0
   38.5730   22.6390   33.4860 O   0  0  0  0  0  0  0  0  0  0  0  0
   39.3884   21.9220   37.9835 H   0  0  0  0  0  0  0  0  0  0  0  0
   38.0399   23.8565   37.1051 H   0  0  0  0  0  0  0  0  0  0  0  0
   42.6295   22.9612   35.4885 H   0  0  0  0  0  0  0  0  0  0  0  0
   40.0231   27.2456   36.0565 H   0  0  0  0  0  0  0  0  0  0  0  0
   39.8133   27.3982   34.3565 H   0  0  0  0  0  0  0  0  0  0  0  0
   37.5088   27.2448   36.5015 H   0  0  0  0  0  0  0  0  0  0  0  0
   37.8369   28.6761   35.6202 H   0  0  0  0  0  0  0  0  0  0  0  0
   37.5260   27.3768   33.3937 H   0  0  0  0  0  0  0  0  0  0  0  0
   36.1144   27.0549   34.3325 H   0  0  0  0  0  0  0  0  0  0  0  0
   37.0508   24.8445   35.0980 H   0  0  0  0  0  0  0  0  0  0  0  0
   38.8454   25.1593   32.8419 H   0  0  0  0  0  0  0  0  0  0  0  0
   35.7171   25.3204   32.7464 H   0  0  0  0  0  0  0  0  0  0  0  0
   36.7516   26.5416   32.0847 H   0  0  0  0  0  0  0  0  0  0  0  0
   37.6935   24.9535   30.4204 H   0  0  0  0  0  0  0  0  0  0  0  0
   35.9762   24.5726   30.4161 H   0  0  0  0  0  0  0  0  0  0  0  0
   36.3271   22.5807   31.5048 H   0  0  0  0  0  0  0  0  0  0  0  0
   38.0310   22.7867   31.0590 H   0  0  0  0  0  0  0  0  0  0  0  0
   36.7353   23.1881   33.7764 H   0  0  0  0  0  0  0  0  0  0  0  0
   38.6038   22.6145   34.4752 H   0  0  0  0  0  0  0  0  0  0  0  0
  2  1  2  0
  3  2  1  0
  4  3  2  0
  4  5  1  0
  5  6  2  0
  6  1  1  0
  7  8  1  0
  7  3  1  0
  8  9  1  0
 10 11  1  0
 10  9  1  0
 11  7  1  0
 12 11  1  0
 13 12  1  0
 14 15  1  0
 14 13  1  0
 15 16  1  0
 16 12  1  0
 16 17  1  0
  1 18  1  0
  2 19  1  0
  5 20  1  0
  8 21  1  0
  8 22  1  0
  9 23  1  0
  9 24  1  0
 10 25  1  0
 10 26  1  0
 11 27  1  1
 12 28  1  6
 13 29  1  0
 13 30  1  0
 14 31  1  0
 14 32  1  0
 15 33  1  0
 15 34  1  0
 16 35  1  1
 17 36  1  0
M  ISO  8  18  14  19  14  20  14  21  13  22  13  23  13  24  13  25  13
M  ISO  8  26  13  27  13  28  13  29  13  30  13  31  13  32  13  33  13
M  ISO  3  34  13  35  13  36   3
M  END
>  <minimizedAffinity>  (1) 
-4.53444386

>  <minimizedRMSD>  (1) 
0.0261649005

$$$$
