
     RDKit          3D

 42 45  0  0  1  0  0  0  0  0999 V2000
   40.0830   22.2750   36.8520 C   0  0  0  0  0  0  0  0  0  0  0  0
   39.1730   23.1140   36.1760 C   0  0  0  0  0  0  0  0  0  0  0  0
   39.7100   24.1260   35.3850 C   0  0  0  0  0  0  0  0  0  0  0  0
   41.0840   24.2610   35.2980 N   0  0  0  0  0  0  0  0  0  0  0  0
   41.9130   23.4270   35.9690 C   0  0  0  0  0  0  0  0  0  0  0  0
   41.4200   22.4400   36.7410 N   0  0  0  0  0  0  0  0  0  0  0  0
   38.8910   25.0220   34.6630 N   0  0  0  0  0  0  0  0  0  0  0  0
   38.8260   26.4870   34.7520 C   0  0  0  0  0  0  0  0  0  0  0  0
   37.2950   26.6010   34.6610 C   0  0  0  0  0  0  0  0  0  0  0  0
   37.1450   25.8830   33.3340 C   0  0  0  0  0  0  0  0  0  0  0  0
   37.9330   24.6060   33.6630 C   0  0  1  0  0  0  0  0  0  0  0  0
   38.5430   24.1720   32.3810 C   0  0  2  0  0  0  0  0  0  0  0  0
   37.7970   24.6980   31.1950 C   0  0  0  0  0  0  0  0  0  0  0  0
   38.4240   23.9320   30.0590 C   0  0  0  0  0  0  0  0  0  0  0  0
   38.7610   22.6100   30.6340 C   0  0  0  0  0  0  0  0  0  0  0  0
   38.5560   22.7080   32.1270 C   0  0  2  0  0  0  0  0  0  0  0  0
   37.3160   21.9900   32.4540 C   0  0  0  0  0  0  0  0  0  0  0  0
   36.9230   21.4310   33.6010 C   0  0  0  0  0  0  0  0  0  0  0  0
   35.7410   20.7920   33.7550 C   0  0  0  0  0  0  0  0  0  0  0  0
   34.9400   20.7670   32.5600 C   0  0  0  0  0  0  0  0  0  0  0  0
   35.9660   21.6620   31.3510 S   0  0  0  0  0  0  0  0  0  0  0  0
   39.6944   21.4648   37.4865 H   0  0  0  0  0  0  0  0  0  0  0  0
   38.0859   22.9748   36.2697 H   0  0  0  0  0  0  0  0  0  0  0  0
   43.0018   23.5572   35.8825 H   0  0  0  0  0  0  0  0  0  0  0  0
   39.2225   26.8706   35.7036 H   0  0  0  0  0  0  0  0  0  0  0  0
   39.4109   27.0556   34.0140 H   0  0  0  0  0  0  0  0  0  0  0  0
   36.7830   26.0800   35.4834 H   0  0  0  0  0  0  0  0  0  0  0  0
   36.8680   27.6125   34.7287 H   0  0  0  0  0  0  0  0  0  0  0  0
   37.5997   26.4467   32.5061 H   0  0  0  0  0  0  0  0  0  0  0  0
   36.1105   25.7269   32.9943 H   0  0  0  0  0  0  0  0  0  0  0  0
   37.3572   23.7568   34.0597 H   0  0  0  0  0  0  0  0  0  0  0  0
   39.5661   24.5599   32.4944 H   0  0  0  0  0  0  0  0  0  0  0  0
   36.7208   24.4845   31.2740 H   0  0  0  0  0  0  0  0  0  0  0  0
   37.8631   25.7900   31.0807 H   0  0  0  0  0  0  0  0  0  0  0  0
   39.3310   24.4418   29.7020 H   0  0  0  0  0  0  0  0  0  0  0  0
   37.7506   23.8485   29.1932 H   0  0  0  0  0  0  0  0  0  0  0  0
   38.1018   21.8366   30.2129 H   0  0  0  0  0  0  0  0  0  0  0  0
   39.7999   22.3351   30.3994 H   0  0  0  0  0  0  0  0  0  0  0  0
   39.3238   22.2454   32.7646 H   0  0  0  0  0  0  0  0  0  0  0  0
   37.5972   21.4936   34.4679 H   0  0  0  0  0  0  0  0  0  0  0  0
   35.4224   20.3349   34.7035 H   0  0  0  0  0  0  0  0  0  0  0  0
   33.9476   20.3161   32.4124 H   0  0  0  0  0  0  0  0  0  0  0  0
  2  1  2  0
  3  2  1  0
  4  3  2  0
  4  5  1  0
  5  6  2  0
  6  1  1  0
  7  8  1  0
  7  3  1  0
  9  8  1  0
 10 11  1  0
 10  9  1  0
 11  7  1  0
 12 11  1  0
 13 12  1  0
 14 15  1  0
 14 13  1  0
 15 16  1  0
 16 12  1  0
 16 17  1  0
 17 18  2  0
 18 19  1  0
 20 19  2  0
 21 17  1  0
 21 20  1  0
  1 22  1  0
  2 23  1  0
  5 24  1  0
  8 25  1  0
  8 26  1  0
  9 27  1  0
  9 28  1  0
 10 29  1  0
 10 30  1  0
 11 31  1  1
 12 32  1  6
 13 33  1  0
 13 34  1  0
 14 35  1  0
 14 36  1  0
 15 37  1  0
 15 38  1  0
 16 39  1  1
 18 40  1  0
 19 41  1  0
 20 42  1  0
M  ISO  8  22  14  23  14  24  14  25  13  26  13  27  13  28  13  29  13
M  ISO  8  30  13  31  13  32  13  33  13  34  13  35  13  36  13  37  13
M  ISO  5  38  13  39  13  40  14  41  14  42  14
M  END
>  <minimizedAffinity>  (1) 
-4.85971642

>  <minimizedRMSD>  (1) 
1.53843164

$$$$
