
     RDKit          3D

 32 34  0  0  1  0  0  0  0  0999 V2000
   39.7530   22.8770   37.5560 C   0  0  0  0  0  0  0  0  0  0  0  0
   38.9630   23.1720   38.6970 C   0  0  0  0  0  0  0  0  0  0  0  0
   37.9610   24.1220   38.5550 C   0  0  0  0  0  0  0  0  0  0  0  0
   37.7850   24.7230   37.3340 N   0  0  0  0  0  0  0  0  0  0  0  0
   38.5730   24.4030   36.2720 C   0  0  0  0  0  0  0  0  0  0  0  0
   39.5490   23.4890   36.3760 N   0  0  0  0  0  0  0  0  0  0  0  0
   38.3350   25.0650   35.0380 N   0  0  0  0  0  0  0  0  0  0  0  0
   38.3290   24.2240   33.8610 C   0  0  0  0  0  0  0  0  0  0  0  0
   37.4170   24.7270   32.7710 C   0  0  0  0  0  0  0  0  0  0  0  0
   37.4800   26.2210   32.6340 C   0  0  0  0  0  0  0  0  0  0  0  0
   37.1360   26.8630   33.9660 C   0  0  0  0  0  0  0  0  0  0  0  0
   38.1200   26.4850   35.0110 C   0  0  2  0  0  0  0  0  0  0  0  0
   39.4420   27.1930   34.8960 C   0  0  0  0  0  0  0  0  0  0  0  0
   40.0660   27.1020   33.4870 C   0  0  0  0  0  0  0  0  0  0  0  0
   40.7240   26.5200   34.7000 C   0  0  0  0  0  0  0  0  0  0  0  0
   40.5539   22.1275   37.6388 H   0  0  0  0  0  0  0  0  0  0  0  0
   39.1380   22.6667   39.6583 H   0  0  0  0  0  0  0  0  0  0  0  0
   37.3186   24.3887   39.4072 H   0  0  0  0  0  0  0  0  0  0  0  0
   39.3533   24.1736   33.4631 H   0  0  0  0  0  0  0  0  0  0  0  0
   37.9538   23.2369   34.1689 H   0  0  0  0  0  0  0  0  0  0  0  0
   37.7170   24.2693   31.8168 H   0  0  0  0  0  0  0  0  0  0  0  0
   36.3853   24.4519   33.0354 H   0  0  0  0  0  0  0  0  0  0  0  0
   38.4951   26.5198   32.3336 H   0  0  0  0  0  0  0  0  0  0  0  0
   36.7610   26.5511   31.8697 H   0  0  0  0  0  0  0  0  0  0  0  0
   37.1384   27.9568   33.8490 H   0  0  0  0  0  0  0  0  0  0  0  0
   36.1420   26.5099   34.2778 H   0  0  0  0  0  0  0  0  0  0  0  0
   37.6654   26.8121   35.9578 H   0  0  0  0  0  0  0  0  0  0  0  0
   39.1352   27.9475   35.6354 H   0  0  0  0  0  0  0  0  0  0  0  0
   40.4823   27.9979   33.0032 H   0  0  0  0  0  0  0  0  0  0  0  0
   39.7484   26.7297   32.5018 H   0  0  0  0  0  0  0  0  0  0  0  0
   40.7850   25.4274   34.8117 H   0  0  0  0  0  0  0  0  0  0  0  0
   41.7197   26.6337   35.1534 H   0  0  0  0  0  0  0  0  0  0  0  0
  1  2  2  0
  3  2  1  0
  4  3  2  0
  5  6  2  0
  5  4  1  0
  6  1  1  0
  7  5  1  0
  8  7  1  0
  9  8  1  0
 10  9  1  0
 10 11  1  0
 11 12  1  0
 12  7  1  0
 13 12  1  0
 14 15  1  0
 14 13  1  0
 15 13  1  0
  1 16  1  0
  2 17  1  0
  3 18  1  0
  8 19  1  0
  8 20  1  0
  9 21  1  0
  9 22  1  0
 10 23  1  0
 10 24  1  0
 11 25  1  0
 11 26  1  0
 12 27  1  1
 13 28  1  0
 14 29  1  0
 14 30  1  0
 15 31  1  0
 15 32  1  0
M  ISO  8  16  14  17  14  18  14  19  13  20  13  21  13  22  13  23  13
M  ISO  8  24  13  25  13  26  13  27  13  28  13  29  13  30  13  31  13
M  ISO  1  32  13
M  END
>  <minimizedAffinity>  (1) 
-4.7508316

>  <minimizedRMSD>  (1) 
1.01168668

$$$$
