
     RDKit          3D

 37 38  0  0  1  0  0  0  0  0999 V2000
   39.6870   22.7870   37.7400 C   0  0  0  0  0  0  0  0  0  0  0  0
   38.8780   23.4250   38.7160 C   0  0  0  0  0  0  0  0  0  0  0  0
   37.8730   24.2920   38.2540 C   0  0  0  0  0  0  0  0  0  0  0  0
   37.7380   24.4660   36.8920 N   0  0  0  0  0  0  0  0  0  0  0  0
   38.5510   23.8190   36.0120 C   0  0  0  0  0  0  0  0  0  0  0  0
   39.5070   22.9950   36.4370 N   0  0  0  0  0  0  0  0  0  0  0  0
   38.3270   24.0690   34.6220 N   0  0  0  0  0  0  0  0  0  0  0  0
   38.3640   22.8760   33.7920 C   0  0  0  0  0  0  0  0  0  0  0  0
   37.4990   22.9870   32.5800 C   0  0  0  0  0  0  0  0  0  0  0  0
   37.4570   24.3740   31.9800 C   0  0  0  0  0  0  0  0  0  0  0  0
   37.0950   25.3770   33.0290 C   0  0  0  0  0  0  0  0  0  0  0  0
   38.0900   25.4040   34.1470 C   0  0  2  0  0  0  0  0  0  0  0  0
   39.2860   26.2530   33.9410 C   0  0  0  0  0  0  0  0  0  0  0  0
   39.4760   27.0690   35.2250 C   0  0  0  0  0  0  0  0  0  0  0  0
   39.2770   27.1710   32.7680 C   0  0  0  0  0  0  0  0  0  0  0  0
   40.5190   25.3600   33.8590 C   0  0  0  0  0  0  0  0  0  0  0  0
   40.4834   22.1029   38.0683 H   0  0  0  0  0  0  0  0  0  0  0  0
   39.0314   23.2480   39.7908 H   0  0  0  0  0  0  0  0  0  0  0  0
   37.2121   24.8175   38.9590 H   0  0  0  0  0  0  0  0  0  0  0  0
   39.4014   22.7048   33.4688 H   0  0  0  0  0  0  0  0  0  0  0  0
   37.9815   22.0402   34.3963 H   0  0  0  0  0  0  0  0  0  0  0  0
   37.8806   22.2917   31.8178 H   0  0  0  0  0  0  0  0  0  0  0  0
   36.4737   22.7462   32.8974 H   0  0  0  0  0  0  0  0  0  0  0  0
   38.4456   24.6213   31.5658 H   0  0  0  0  0  0  0  0  0  0  0  0
   36.7002   24.3984   31.1821 H   0  0  0  0  0  0  0  0  0  0  0  0
   37.0529   26.3744   32.5670 H   0  0  0  0  0  0  0  0  0  0  0  0
   36.1195   25.0914   33.4495 H   0  0  0  0  0  0  0  0  0  0  0  0
   37.6306   25.9623   34.9760 H   0  0  0  0  0  0  0  0  0  0  0  0
   39.3245   26.4182   36.0988 H   0  0  0  0  0  0  0  0  0  0  0  0
   40.4947   27.4834   35.2487 H   0  0  0  0  0  0  0  0  0  0  0  0
   38.7452   27.8908   35.2487 H   0  0  0  0  0  0  0  0  0  0  0  0
   39.2668   28.2136   33.1184 H   0  0  0  0  0  0  0  0  0  0  0  0
   40.1769   26.9975   32.1597 H   0  0  0  0  0  0  0  0  0  0  0  0
   38.3807   26.9798   32.1597 H   0  0  0  0  0  0  0  0  0  0  0  0
   40.8607   25.1125   34.8749 H   0  0  0  0  0  0  0  0  0  0  0  0
   40.2661   24.4342   33.3215 H   0  0  0  0  0  0  0  0  0  0  0  0
   41.3198   25.8890   33.3215 H   0  0  0  0  0  0  0  0  0  0  0  0
  1  2  2  0
  3  2  1  0
  4  3  2  0
  5  6  2  0
  5  4  1  0
  6  1  1  0
  7  5  1  0
  8  7  1  0
  9  8  1  0
 10  9  1  0
 10 11  1  0
 11 12  1  0
 12  7  1  0
 13 12  1  0
 13 14  1  0
 15 13  1  0
 16 13  1  0
  1 17  1  0
  2 18  1  0
  3 19  1  0
  8 20  1  0
  8 21  1  0
  9 22  1  0
  9 23  1  0
 10 24  1  0
 10 25  1  0
 11 26  1  0
 11 27  1  0
 12 28  1  1
 14 29  1  0
 14 30  1  0
 14 31  1  0
 15 32  1  0
 15 33  1  0
 15 34  1  0
 16 35  1  0
 16 36  1  0
 16 37  1  0
M  ISO  8  17  14  18  14  19  14  20  13  21  13  22  13  23  13  24  13
M  ISO  8  25  13  26  13  27  13  28  13  29   8  30   8  31   8  32   8
M  ISO  5  33   8  34   8  35   8  36   8  37   8
M  END
>  <minimizedAffinity>  (1) 
-4.62558556

>  <minimizedRMSD>  (1) 
2.15271664

$$$$
