
     RDKit          3D

 26 27  0  0  1  0  0  0  0  0999 V2000
   39.6690   22.8100   37.6200 C   0  0  0  0  0  0  0  0  0  0  0  0
   38.9240   23.2770   38.7210 C   0  0  0  0  0  0  0  0  0  0  0  0
   37.9910   24.2710   38.4720 C   0  0  0  0  0  0  0  0  0  0  0  0
   37.8410   24.7430   37.1990 N   0  0  0  0  0  0  0  0  0  0  0  0
   38.5820   24.2600   36.1780 C   0  0  0  0  0  0  0  0  0  0  0  0
   39.4910   23.2990   36.3900 N   0  0  0  0  0  0  0  0  0  0  0  0
   38.3840   24.7900   34.8630 N   0  0  0  0  0  0  0  0  0  0  0  0
   38.3090   23.8260   33.7980 C   0  0  0  0  0  0  0  0  0  0  0  0
   37.4310   24.2660   32.6540 C   0  0  0  0  0  0  0  0  0  0  0  0
   37.5110   25.7450   32.3790 C   0  0  0  0  0  0  0  0  0  0  0  0
   37.1790   26.4750   33.6480 C   0  0  0  0  0  0  0  0  0  0  0  0
   38.2720   26.2100   34.6670 C   0  0  2  0  0  0  0  0  0  0  0  0
   39.7930   26.9660   34.0290 S   0  0  0  0  0  0  0  0  0  0  0  0
   40.4184   22.0204   37.7780 H   0  0  0  0  0  0  0  0  0  0  0  0
   39.0760   22.8711   39.7320 H   0  0  0  0  0  0  0  0  0  0  0  0
   37.3778   24.6755   39.2907 H   0  0  0  0  0  0  0  0  0  0  0  0
   39.3244   23.6530   33.4119 H   0  0  0  0  0  0  0  0  0  0  0  0
   37.8629   22.9122   34.2174 H   0  0  0  0  0  0  0  0  0  0  0  0
   37.7403   23.7247   31.7477 H   0  0  0  0  0  0  0  0  0  0  0  0
   36.3914   24.0416   32.9349 H   0  0  0  0  0  0  0  0  0  0  0  0
   38.5277   26.0089   32.0524 H   0  0  0  0  0  0  0  0  0  0  0  0
   36.8038   26.0231   31.5837 H   0  0  0  0  0  0  0  0  0  0  0  0
   37.1151   27.5546   33.4472 H   0  0  0  0  0  0  0  0  0  0  0  0
   36.2122   26.1241   34.0382 H   0  0  0  0  0  0  0  0  0  0  0  0
   38.0544   26.6500   35.6514 H   0  0  0  0  0  0  0  0  0  0  0  0
   40.5825   27.3584   35.0776 H   0  0  0  0  0  0  0  0  0  0  0  0
  1  2  2  0
  3  2  1  0
  4  3  2  0
  5  6  2  0
  5  4  1  0
  6  1  1  0
  7  5  1  0
  8  7  1  0
  9  8  1  0
 10  9  1  0
 10 11  1  0
 11 12  1  0
 12  7  1  0
 13 12  1  0
  1 14  1  0
  2 15  1  0
  3 16  1  0
  8 17  1  0
  8 18  1  0
  9 19  1  0
  9 20  1  0
 10 21  1  0
 10 22  1  0
 11 23  1  0
 11 24  1  0
 12 25  1  1
 13 26  1  0
M  ISO  8  14  14  15  14  16  14  17  13  18  13  19  13  20  13  21  13
M  ISO  5  22  13  23  13  24  13  25  13  26  11
M  END
>  <minimizedAffinity>  (1) 
-4.00774336

>  <minimizedRMSD>  (1) 
1.25313127

$$$$
