
     RDKit          3D

 35 36  0  0  1  0  0  0  0  0999 V2000
   39.3880   22.5800   37.7470 C   0  0  0  0  0  0  0  0  0  0  0  0
   38.8050   23.5440   38.6180 C   0  0  0  0  0  0  0  0  0  0  0  0
   38.0050   24.5660   38.0550 C   0  0  0  0  0  0  0  0  0  0  0  0
   37.8470   24.5560   36.7030 N   0  0  0  0  0  0  0  0  0  0  0  0
   38.4220   23.6150   35.9050 C   0  0  0  0  0  0  0  0  0  0  0  0
   39.1870   22.6340   36.4210 N   0  0  0  0  0  0  0  0  0  0  0  0
   38.2040   23.6840   34.5040 N   0  0  0  0  0  0  0  0  0  0  0  0
   37.8810   22.4750   33.8360 C   0  0  0  0  0  0  0  0  0  0  0  0
   36.9540   22.6520   32.6580 C   0  0  0  0  0  0  0  0  0  0  0  0
   37.2350   23.9020   31.8750 C   0  0  0  0  0  0  0  0  0  0  0  0
   37.2350   25.1120   32.7940 C   0  0  0  0  0  0  0  0  0  0  0  0
   38.3080   24.9460   33.8120 C   0  0  1  0  0  0  0  0  0  0  0  0
   38.5190   26.1000   34.6920 C   0  0  0  0  0  0  0  0  0  0  0  0
   39.8570   26.4100   35.0970 N   0  0  0  0  0  0  0  0  0  0  0  0
   40.6850   27.0100   34.0640 C   0  0  0  0  0  0  0  0  0  0  0  0
   40.2410   27.2590   32.8830 N   0  0  0  0  0  0  0  0  0  0  0  0
   42.0720   27.4050   34.1900 N   0  0  0  0  0  0  0  0  0  0  0  0
   40.7310   27.6740   32.0910 H   0  0  0  0  0  0  0  0  0  0  0  0
   40.0130   21.7784   38.1675 H   0  0  0  0  0  0  0  0  0  0  0  0
   38.9729   23.4951   39.7040 H   0  0  0  0  0  0  0  0  0  0  0  0
   37.5312   25.3353   38.6825 H   0  0  0  0  0  0  0  0  0  0  0  0
   38.8149   22.0191   33.4755 H   0  0  0  0  0  0  0  0  0  0  0  0
   37.3528   21.8412   34.5636 H   0  0  0  0  0  0  0  0  0  0  0  0
   37.0674   21.7861   31.9891 H   0  0  0  0  0  0  0  0  0  0  0  0
   35.9306   22.7334   33.0530 H   0  0  0  0  0  0  0  0  0  0  0  0
   38.2191   23.8137   31.3916 H   0  0  0  0  0  0  0  0  0  0  0  0
   36.4512   24.0310   31.1141 H   0  0  0  0  0  0  0  0  0  0  0  0
   37.4223   26.0223   32.2055 H   0  0  0  0  0  0  0  0  0  0  0  0
   36.2588   25.2000   33.2933 H   0  0  0  0  0  0  0  0  0  0  0  0
   39.2468   24.9115   33.2398 H   0  0  0  0  0  0  0  0  0  0  0  0
   38.1238   26.9840   34.1701 H   0  0  0  0  0  0  0  0  0  0  0  0
   38.0096   25.8245   35.6272 H   0  0  0  0  0  0  0  0  0  0  0  0
   40.2060   26.2222   36.0477 H   0  0  0  0  0  0  0  0  0  0  0  0
   42.5633   27.8234   33.3872 H   0  0  0  0  0  0  0  0  0  0  0  0
   42.5676   27.2676   35.0824 H   0  0  0  0  0  0  0  0  0  0  0  0
  1  2  2  0
  3  2  1  0
  4  3  2  0
  5  6  2  0
  5  4  1  0
  6  1  1  0
  7  5  1  0
  8  7  1  0
  9  8  1  0
 10  9  1  0
 10 11  1  0
 11 12  1  0
 12  7  1  0
 12 13  1  0
 13 14  1  0
 15 17  1  0
 15 14  1  0
 16 15  2  0
 18 16  1  0
  1 19  1  0
  2 20  1  0
  3 21  1  0
  8 22  1  0
  8 23  1  0
  9 24  1  0
  9 25  1  0
 10 26  1  0
 10 27  1  0
 11 28  1  0
 11 29  1  0
 12 30  1  6
 13 31  1  0
 13 32  1  0
 14 33  1  0
 17 34  1  0
 17 35  1  0
M  ISO  8  19  14  20  14  21  14  22  13  23  13  24  13  25  13  26  13
M  ISO  6  27  13  28  13  29  13  30  13  31   8  32   8
M  END
>  <minimizedAffinity>  (1) 
-4.43096781

>  <minimizedRMSD>  (1) 
1.81822288

$$$$
