
     RDKit          3D

 43 45  0  0  1  0  0  0  0  0999 V2000
   40.0760   22.3720   37.0890 C   0  0  0  0  0  0  0  0  0  0  0  0
   39.2730   23.1550   37.9660 C   0  0  0  0  0  0  0  0  0  0  0  0
   38.1370   23.8160   37.4340 C   0  0  0  0  0  0  0  0  0  0  0  0
   37.8910   23.6510   36.1050 N   0  0  0  0  0  0  0  0  0  0  0  0
   38.6860   22.8930   35.3030 C   0  0  0  0  0  0  0  0  0  0  0  0
   39.7710   22.2540   35.7830 N   0  0  0  0  0  0  0  0  0  0  0  0
   38.3540   22.7800   33.9210 N   0  0  0  0  0  0  0  0  0  0  0  0
   38.3870   21.4780   33.3540 C   0  0  0  0  0  0  0  0  0  0  0  0
   37.3950   21.2760   32.2380 C   0  0  0  0  0  0  0  0  0  0  0  0
   37.2650   22.4950   31.3580 C   0  0  0  0  0  0  0  0  0  0  0  0
   36.8820   23.6880   32.2260 C   0  0  0  0  0  0  0  0  0  0  0  0
   38.0050   23.9560   33.1660 C   0  0  1  0  0  0  0  0  0  0  0  0
   37.8790   25.1810   33.9780 C   0  0  0  0  0  0  0  0  0  0  0  0
   38.7380   26.2470   33.5500 N   0  0  0  0  0  0  0  0  0  0  0  0
   39.2530   26.8710   34.7710 C   0  0  0  0  0  0  0  0  0  0  0  0
   38.1620   27.3070   35.7040 C   0  0  0  0  0  0  0  0  0  0  0  0
   37.1150   28.1550   35.0570 C   0  0  0  0  0  0  0  0  0  0  0  0
   36.8150   27.7970   33.6410 C   0  0  0  0  0  0  0  0  0  0  0  0
   38.0050   27.2830   32.8700 C   0  0  0  0  0  0  0  0  0  0  0  0
   40.9617   21.8541   37.4857 H   0  0  0  0  0  0  0  0  0  0  0  0
   39.5281   23.2451   39.0322 H   0  0  0  0  0  0  0  0  0  0  0  0
   37.4835   24.4346   38.0668 H   0  0  0  0  0  0  0  0  0  0  0  0
   39.3970   21.2979   32.9572 H   0  0  0  0  0  0  0  0  0  0  0  0
   38.1174   20.7729   34.1541 H   0  0  0  0  0  0  0  0  0  0  0  0
   37.7255   20.4278   31.6205 H   0  0  0  0  0  0  0  0  0  0  0  0
   36.4121   21.0837   32.6929 H   0  0  0  0  0  0  0  0  0  0  0  0
   36.4857   22.3232   30.6009 H   0  0  0  0  0  0  0  0  0  0  0  0
   38.2204   22.6933   30.8502 H   0  0  0  0  0  0  0  0  0  0  0  0
   36.7081   24.5698   31.5919 H   0  0  0  0  0  0  0  0  0  0  0  0
   35.9601   23.4715   32.7857 H   0  0  0  0  0  0  0  0  0  0  0  0
   38.8672   24.1955   32.5263 H   0  0  0  0  0  0  0  0  0  0  0  0
   36.8374   25.5300   33.9208 H   0  0  0  0  0  0  0  0  0  0  0  0
   38.1780   24.9191   35.0037 H   0  0  0  0  0  0  0  0  0  0  0  0
   39.8936   26.1454   35.2936 H   0  0  0  0  0  0  0  0  0  0  0  0
   39.8139   27.7693   34.4735 H   0  0  0  0  0  0  0  0  0  0  0  0
   37.6763   26.4087   36.1128 H   0  0  0  0  0  0  0  0  0  0  0  0
   38.6352   27.9227   36.4831 H   0  0  0  0  0  0  0  0  0  0  0  0
   36.1869   28.0585   35.6395 H   0  0  0  0  0  0  0  0  0  0  0  0
   37.5100   29.1815   35.0424 H   0  0  0  0  0  0  0  0  0  0  0  0
   36.0391   27.0173   33.6389 H   0  0  0  0  0  0  0  0  0  0  0  0
   36.4896   28.7219   33.1423 H   0  0  0  0  0  0  0  0  0  0  0  0
   38.6876   28.1254   32.6845 H   0  0  0  0  0  0  0  0  0  0  0  0
   37.6165   26.8414   31.9405 H   0  0  0  0  0  0  0  0  0  0  0  0
  1  2  2  0
  3  2  1  0
  4  3  2  0
  5  6  2  0
  5  4  1  0
  6  1  1  0
  7  5  1  0
  8  7  1  0
  9  8  1  0
 10 11  1  0
 10  9  1  0
 11 12  1  0
 12  7  1  0
 12 13  1  0
 14 13  1  0
 14 15  1  0
 15 16  1  0
 17 16  1  0
 18 17  1  0
 19 14  1  0
 19 18  1  0
  1 20  1  0
  2 21  1  0
  3 22  1  0
  8 23  1  0
  8 24  1  0
  9 25  1  0
  9 26  1  0
 10 27  1  0
 10 28  1  0
 11 29  1  0
 11 30  1  0
 12 31  1  6
 13 32  1  0
 13 33  1  0
 15 34  1  0
 15 35  1  0
 16 36  1  0
 16 37  1  0
 17 38  1  0
 17 39  1  0
 18 40  1  0
 18 41  1  0
 19 42  1  0
 19 43  1  0
M  ISO  8  20  14  21  14  22  14  23  13  24  13  25  13  26  13  27  13
M  ISO  8  28  13  29  13  30  13  31  13  32   8  33   8  34  13  35  13
M  ISO  8  36  13  37  13  38  13  39  13  40  13  41  13  42  13  43  13
M  END
>  <minimizedAffinity>  (1) 
-5.03112125

>  <minimizedRMSD>  (1) 
3.04491019

$$$$
