
     RDKit          3D

 51 55  0  0  1  0  0  0  0  0999 V2000
   40.1200   22.7240   37.9210 C   0  0  0  0  0  0  0  0  0  0  0  0
   39.0390   23.1670   38.7450 C   0  0  0  0  0  0  0  0  0  0  0  0
   37.8560   23.5940   38.1130 C   0  0  0  0  0  0  0  0  0  0  0  0
   37.8840   23.5340   36.7730 N   0  0  0  0  0  0  0  0  0  0  0  0
   38.8820   23.1260   35.9940 C   0  0  0  0  0  0  0  0  0  0  0  0
   40.0090   22.7190   36.5840 N   0  0  0  0  0  0  0  0  0  0  0  0
   38.7460   23.1300   34.5760 N   0  0  0  0  0  0  0  0  0  0  0  0
   39.1540   21.9310   33.9060 C   0  0  0  0  0  0  0  0  0  0  0  0
   38.4020   21.6490   32.6600 C   0  0  0  0  0  0  0  0  0  0  0  0
   37.9930   22.8880   31.9030 C   0  0  0  0  0  0  0  0  0  0  0  0
   37.2680   23.8180   32.8410 C   0  0  0  0  0  0  0  0  0  0  0  0
   38.2270   24.2880   33.8940 C   0  0  1  0  0  0  0  0  0  0  0  0
   37.7200   25.2990   34.8390 C   0  0  0  0  0  0  0  0  0  0  0  0
   37.7880   26.6820   34.2790 C   0  0  2  0  0  0  0  0  0  0  0  0
   37.9760   27.8550   35.1610 C   0  0  0  0  0  0  0  0  0  0  0  0
   36.6040   27.6250   34.4790 C   0  0  1  0  0  0  0  0  0  0  0  0
   36.3130   28.6170   33.4370 C   0  0  0  0  0  0  0  0  0  0  0  0
   36.6470   28.1380   32.1660 C   0  0  0  0  0  0  0  0  0  0  0  0
   36.4840   28.9550   31.0450 C   0  0  0  0  0  0  0  0  0  0  0  0
   35.9910   30.2570   31.1520 C   0  0  0  0  0  0  0  0  0  0  0  0
   35.6660   30.7110   32.4130 C   0  0  0  0  0  0  0  0  0  0  0  0
   35.1570   31.9720   32.6580 C   0  0  0  0  0  0  0  0  0  0  0  0
   34.8250   32.4000   33.9450 C   0  0  0  0  0  0  0  0  0  0  0  0
   35.0040   31.5440   35.0370 C   0  0  0  0  0  0  0  0  0  0  0  0
   35.5130   30.2840   34.8010 C   0  0  0  0  0  0  0  0  0  0  0  0
   35.8270   29.9030   33.5150 C   0  0  0  0  0  0  0  0  0  0  0  0
   41.0550   22.3828   38.3893 H   0  0  0  0  0  0  0  0  0  0  0  0
   39.1291   23.1740   39.8413 H   0  0  0  0  0  0  0  0  0  0  0  0
   36.9783   23.9487   38.6732 H   0  0  0  0  0  0  0  0  0  0  0  0
   40.2205   22.0224   33.6528 H   0  0  0  0  0  0  0  0  0  0  0  0
   38.9512   21.0976   34.5948 H   0  0  0  0  0  0  0  0  0  0  0  0
   39.0360   21.0348   32.0036 H   0  0  0  0  0  0  0  0  0  0  0  0
   37.4763   21.1326   32.9540 H   0  0  0  0  0  0  0  0  0  0  0  0
   38.8876   23.3892   31.5048 H   0  0  0  0  0  0  0  0  0  0  0  0
   37.3322   22.6125   31.0679 H   0  0  0  0  0  0  0  0  0  0  0  0
   36.8826   24.6821   32.2800 H   0  0  0  0  0  0  0  0  0  0  0  0
   36.4252   23.2909   33.3120 H   0  0  0  0  0  0  0  0  0  0  0  0
   39.0215   24.8378   33.3681 H   0  0  0  0  0  0  0  0  0  0  0  0
   36.6721   25.0654   35.0786 H   0  0  0  0  0  0  0  0  0  0  0  0
   38.3538   25.2679   35.7375 H   0  0  0  0  0  0  0  0  0  0  0  0
   38.3374   26.2985   33.4066 H   0  0  0  0  0  0  0  0  0  0  0  0
   38.0794   27.7139   36.2470 H   0  0  0  0  0  0  0  0  0  0  0  0
   38.6923   28.6889   35.1992 H   0  0  0  0  0  0  0  0  0  0  0  0
   35.5528   27.4765   34.7670 H   0  0  0  0  0  0  0  0  0  0  0  0
   37.0385   27.1167   32.0492 H   0  0  0  0  0  0  0  0  0  0  0  0
   36.7508   28.5628   30.0525 H   0  0  0  0  0  0  0  0  0  0  0  0
   35.8667   30.8957   30.2651 H   0  0  0  0  0  0  0  0  0  0  0  0
   35.0087   32.6602   31.8128 H   0  0  0  0  0  0  0  0  0  0  0  0
   34.4221   33.4117   34.1005 H   0  0  0  0  0  0  0  0  0  0  0  0
   34.7458   31.8671   36.0563 H   0  0  0  0  0  0  0  0  0  0  0  0
   35.6677   29.5858   35.6368 H   0  0  0  0  0  0  0  0  0  0  0  0
  1  2  2  0
  3  2  1  0
  4  3  2  0
  5  6  2  0
  5  4  1  0
  6  1  1  0
  7  5  1  0
  8  7  1  0
  9  8  1  0
 10  9  1  0
 10 11  1  0
 11 12  1  0
 12  7  1  0
 12 13  1  0
 14 16  1  0
 14 13  1  0
 14 15  1  0
 16 15  1  0
 17 26  1  0
 17 16  1  0
 18 17  2  0
 19 20  2  0
 19 18  1  0
 20 21  1  0
 21 22  1  0
 21 26  2  0
 22 23  2  0
 23 24  1  0
 25 24  2  0
 26 25  1  0
  1 27  1  0
  2 28  1  0
  3 29  1  0
  8 30  1  0
  8 31  1  0
  9 32  1  0
  9 33  1  0
 10 34  1  0
 10 35  1  0
 11 36  1  0
 11 37  1  0
 12 38  1  6
 13 39  1  0
 13 40  1  0
 14 41  1  6
 15 42  1  0
 15 43  1  0
 16 44  1  1
 18 45  1  0
 19 46  1  0
 20 47  1  0
 22 48  1  0
 23 49  1  0
 24 50  1  0
 25 51  1  0
M  ISO  8  27  14  28  14  29  14  30  13  31  13  32  13  33  13  34  13
M  ISO  8  35  13  36  13  37  13  38  13  39   8  40   8  41  13  42  13
M  ISO  8  43  13  44  13  45  14  46  14  47  14  48  14  49  14  50  14
M  ISO  1  51  14
M  END
>  <minimizedAffinity>  (1) 
-6.29130697

>  <minimizedRMSD>  (1) 
1.2341125

$$$$
