
     RDKit          3D

 35 37  0  0  1  0  0  0  0  0999 V2000
   39.9170   22.8240   37.8410 C   0  0  0  0  0  0  0  0  0  0  0  0
   38.8590   23.3180   38.6490 C   0  0  0  0  0  0  0  0  0  0  0  0
   37.7270   23.8310   38.0100 C   0  0  0  0  0  0  0  0  0  0  0  0
   37.7450   23.8100   36.6570 N   0  0  0  0  0  0  0  0  0  0  0  0
   38.7490   23.3420   35.9030 C   0  0  0  0  0  0  0  0  0  0  0  0
   39.8230   22.8540   36.5130 N   0  0  0  0  0  0  0  0  0  0  0  0
   38.6530   23.3740   34.4790 N   0  0  0  0  0  0  0  0  0  0  0  0
   39.0240   22.1640   33.8010 C   0  0  0  0  0  0  0  0  0  0  0  0
   38.3110   21.9520   32.5110 C   0  0  0  0  0  0  0  0  0  0  0  0
   38.0440   23.2400   31.7610 C   0  0  0  0  0  0  0  0  0  0  0  0
   37.2990   24.1760   32.6700 C   0  0  0  0  0  0  0  0  0  0  0  0
   38.2110   24.5700   33.8140 C   0  0  1  0  0  0  0  0  0  0  0  0
   37.5670   25.5500   34.7360 C   0  0  0  0  0  0  0  0  0  0  0  0
   37.8450   26.9550   34.2290 C   0  0  0  0  0  0  0  0  0  0  0  0
   37.0870   28.1130   34.7790 C   0  0  0  0  0  0  0  0  0  0  0  0
   36.7480   27.5820   33.3790 C   0  0  0  0  0  0  0  0  0  0  0  0
   40.8206   22.4136   38.3154 H   0  0  0  0  0  0  0  0  0  0  0  0
   38.9285   23.2975   39.7466 H   0  0  0  0  0  0  0  0  0  0  0  0
   36.8707   24.2289   38.5743 H   0  0  0  0  0  0  0  0  0  0  0  0
   40.1045   22.1982   33.5979 H   0  0  0  0  0  0  0  0  0  0  0  0
   38.7444   21.3297   34.4611 H   0  0  0  0  0  0  0  0  0  0  0  0
   38.9251   21.2975   31.8750 H   0  0  0  0  0  0  0  0  0  0  0  0
   37.3356   21.5010   32.7458 H   0  0  0  0  0  0  0  0  0  0  0  0
   38.9975   23.6975   31.4583 H   0  0  0  0  0  0  0  0  0  0  0  0
   37.4467   23.0346   30.8604 H   0  0  0  0  0  0  0  0  0  0  0  0
   36.9978   25.0739   32.1105 H   0  0  0  0  0  0  0  0  0  0  0  0
   36.3985   23.6805   33.0619 H   0  0  0  0  0  0  0  0  0  0  0  0
   39.0919   25.0973   33.4192 H   0  0  0  0  0  0  0  0  0  0  0  0
   36.4814   25.3745   34.7624 H   0  0  0  0  0  0  0  0  0  0  0  0
   37.9742   25.4315   35.7510 H   0  0  0  0  0  0  0  0  0  0  0  0
   38.9207   26.7535   34.1187 H   0  0  0  0  0  0  0  0  0  0  0  0
   36.3809   27.9624   35.6089 H   0  0  0  0  0  0  0  0  0  0  0  0
   37.3628   29.0955   35.1897 H   0  0  0  0  0  0  0  0  0  0  0  0
   37.0061   28.1694   32.4855 H   0  0  0  0  0  0  0  0  0  0  0  0
   35.8412   27.2210   32.8717 H   0  0  0  0  0  0  0  0  0  0  0  0
  1  2  2  0
  3  2  1  0
  4  3  2  0
  5  6  2  0
  5  4  1  0
  6  1  1  0
  7  5  1  0
  8  7  1  0
  9  8  1  0
 10  9  1  0
 10 11  1  0
 11 12  1  0
 12  7  1  0
 12 13  1  0
 14 13  1  0
 14 15  1  0
 16 14  1  0
 16 15  1  0
  1 17  1  0
  2 18  1  0
  3 19  1  0
  8 20  1  0
  8 21  1  0
  9 22  1  0
  9 23  1  0
 10 24  1  0
 10 25  1  0
 11 26  1  0
 11 27  1  0
 12 28  1  6
 13 29  1  0
 13 30  1  0
 14 31  1  0
 15 32  1  0
 15 33  1  0
 16 34  1  0
 16 35  1  0
M  ISO  8  17  14  18  14  19  14  20  13  21  13  22  13  23  13  24  13
M  ISO  8  25  13  26  13  27  13  28  13  29   8  30   8  31  13  32  13
M  ISO  3  33  13  34  13  35  13
M  END
>  <minimizedAffinity>  (1) 
-4.16456223

>  <minimizedRMSD>  (1) 
2.24252391

$$$$
