
     RDKit          3D

 48 52  0  0  1  0  0  0  0  0999 V2000
   39.8700   22.8720   37.9170 C   0  0  0  0  0  0  0  0  0  0  0  0
   38.7900   23.4720   38.6370 C   0  0  0  0  0  0  0  0  0  0  0  0
   37.6800   23.9460   37.9140 C   0  0  0  0  0  0  0  0  0  0  0  0
   37.7660   23.7730   36.5850 N   0  0  0  0  0  0  0  0  0  0  0  0
   38.7610   23.2170   35.8990 C   0  0  0  0  0  0  0  0  0  0  0  0
   39.8150   22.7680   36.5840 N   0  0  0  0  0  0  0  0  0  0  0  0
   38.6890   23.1150   34.4840 N   0  0  0  0  0  0  0  0  0  0  0  0
   39.0030   21.8240   33.9410 C   0  0  0  0  0  0  0  0  0  0  0  0
   38.3600   21.5500   32.6380 C   0  0  0  0  0  0  0  0  0  0  0  0
   38.1120   22.7660   31.7850 C   0  0  0  0  0  0  0  0  0  0  0  0
   37.3960   23.8170   32.6030 C   0  0  0  0  0  0  0  0  0  0  0  0
   38.3220   24.2570   33.6970 C   0  0  1  0  0  0  0  0  0  0  0  0
   37.8550   25.3960   34.5260 C   0  0  0  0  0  0  0  0  0  0  0  0
   37.8520   26.6750   33.7700 C   0  0  2  0  0  0  0  0  0  0  0  0
   37.0260   27.8270   34.2130 C   0  0  0  0  0  0  0  0  0  0  0  0
   36.6390   27.0580   32.9400 C   0  0  1  0  0  0  0  0  0  0  0  0
   36.8310   27.8240   31.7290 N   0  0  0  0  0  0  0  0  0  0  0  0
   36.0410   28.9140   31.5070 C   0  0  0  0  0  0  0  0  0  0  0  0
   36.3960   29.4720   30.3210 N   0  0  0  0  0  0  0  0  0  0  0  0
   37.4010   28.7450   29.7990 C   0  0  0  0  0  0  0  0  0  0  0  0
   38.1900   28.7600   28.6680 C   0  0  0  0  0  0  0  0  0  0  0  0
   39.1560   27.8330   28.4450 N   0  0  0  0  0  0  0  0  0  0  0  0
   39.3610   26.8470   29.3650 C   0  0  0  0  0  0  0  0  0  0  0  0
   38.6020   26.8090   30.4800 N   0  0  0  0  0  0  0  0  0  0  0  0
   37.6600   27.7180   30.6920 C   0  0  0  0  0  0  0  0  0  0  0  0
   37.9650   29.7930   27.7200 N   0  0  0  0  0  0  0  0  0  0  0  0
   40.7488   22.4948   38.4606 H   0  0  0  0  0  0  0  0  0  0  0  0
   38.8263   23.5611   39.7328 H   0  0  0  0  0  0  0  0  0  0  0  0
   36.8129   24.4195   38.3976 H   0  0  0  0  0  0  0  0  0  0  0  0
   40.0932   21.7592   33.8097 H   0  0  0  0  0  0  0  0  0  0  0  0
   38.6181   21.0768   34.6506 H   0  0  0  0  0  0  0  0  0  0  0  0
   39.0091   20.8638   32.0743 H   0  0  0  0  0  0  0  0  0  0  0  0
   37.3709   21.1258   32.8653 H   0  0  0  0  0  0  0  0  0  0  0  0
   37.4908   22.4875   30.9210 H   0  0  0  0  0  0  0  0  0  0  0  0
   39.0727   23.1681   31.4309 H   0  0  0  0  0  0  0  0  0  0  0  0
   37.1364   24.6747   31.9651 H   0  0  0  0  0  0  0  0  0  0  0  0
   36.4679   23.4066   33.0275 H   0  0  0  0  0  0  0  0  0  0  0  0
   39.2090   24.6792   33.2021 H   0  0  0  0  0  0  0  0  0  0  0  0
   36.8321   25.1865   34.8722 H   0  0  0  0  0  0  0  0  0  0  0  0
   38.5491   25.5051   35.3724 H   0  0  0  0  0  0  0  0  0  0  0  0
   38.9243   26.5426   33.5634 H   0  0  0  0  0  0  0  0  0  0  0  0
   36.4043   27.7417   35.1164 H   0  0  0  0  0  0  0  0  0  0  0  0
   37.2292   28.8816   34.4509 H   0  0  0  0  0  0  0  0  0  0  0  0
   35.7797   26.4929   32.5499 H   0  0  0  0  0  0  0  0  0  0  0  0
   35.2488   29.2797   32.1769 H   0  0  0  0  0  0  0  0  0  0  0  0
   40.1397   26.0880   29.1991 H   0  0  0  0  0  0  0  0  0  0  0  0
   38.5339   29.8380   26.8626 H   0  0  0  0  0  0  0  0  0  0  0  0
   37.2329   30.4973   27.8898 H   0  0  0  0  0  0  0  0  0  0  0  0
  1  2  2  0
  3  2  1  0
  4  3  2  0
  5  6  2  0
  5  4  1  0
  6  1  1  0
  7  5  1  0
  8  7  1  0
  9  8  1  0
 10 11  1  0
 10  9  1  0
 11 12  1  0
 12  7  1  0
 12 13  1  0
 14 15  1  0
 14 13  1  0
 16 14  1  0
 16 15  1  0
 17 16  1  0
 18 17  1  0
 19 18  2  0
 20 19  1  0
 20 25  2  0
 21 20  1  0
 22 21  2  0
 22 23  1  0
 23 24  2  0
 24 25  1  0
 25 17  1  0
 26 21  1  0
  1 27  1  0
  2 28  1  0
  3 29  1  0
  8 30  1  0
  8 31  1  0
  9 32  1  0
  9 33  1  0
 10 34  1  0
 10 35  1  0
 11 36  1  0
 11 37  1  0
 12 38  1  6
 13 39  1  0
 13 40  1  0
 14 41  1  6
 15 42  1  0
 15 43  1  0
 16 44  1  1
 18 45  1  0
 23 46  1  0
 26 47  1  0
 26 48  1  0
M  ISO  8  27  14  28  14  29  14  30  13  31  13  32  13  33  13  34  13
M  ISO  8  35  13  36  13  37  13  38  13  39   8  40   8  41  13  42  13
M  ISO  4  43  13  44  13  45  14  46  14
M  END
>  <minimizedAffinity>  (1) 
-5.87010241

>  <minimizedRMSD>  (1) 
0.987680376

$$$$
