
     RDKit          3D

 51 54  0  0  1  0  0  0  0  0999 V2000
   39.9620   22.8430   37.9090 C   0  0  0  0  0  0  0  0  0  0  0  0
   38.8640   23.3040   38.6990 C   0  0  0  0  0  0  0  0  0  0  0  0
   37.7000   23.7300   38.0330 C   0  0  0  0  0  0  0  0  0  0  0  0
   37.7570   23.6520   36.6940 N   0  0  0  0  0  0  0  0  0  0  0  0
   38.7680   23.2260   35.9450 C   0  0  0  0  0  0  0  0  0  0  0  0
   39.8740   22.8220   36.5770 N   0  0  0  0  0  0  0  0  0  0  0  0
   38.6620   23.2130   34.5300 N   0  0  0  0  0  0  0  0  0  0  0  0
   39.0620   21.9940   33.8920 C   0  0  0  0  0  0  0  0  0  0  0  0
   38.3740   21.7430   32.6010 C   0  0  0  0  0  0  0  0  0  0  0  0
   38.0240   22.9950   31.8270 C   0  0  0  0  0  0  0  0  0  0  0  0
   37.2640   23.9350   32.7330 C   0  0  0  0  0  0  0  0  0  0  0  0
   38.1760   24.3830   33.8310 C   0  0  1  0  0  0  0  0  0  0  0  0
   37.6550   25.4110   34.7500 C   0  0  0  0  0  0  0  0  0  0  0  0
   37.8730   26.7860   34.2250 C   0  0  2  0  0  0  0  0  0  0  0  0
   37.0130   27.9140   34.6880 C   0  0  0  0  0  0  0  0  0  0  0  0
   36.8840   27.3990   33.2560 C   0  0  1  0  0  0  0  0  0  0  0  0
   37.3990   28.3060   32.1550 C   0  0  0  0  0  0  0  0  0  0  0  0
   38.3040   27.5480   31.2030 C   0  0  0  0  0  0  0  0  0  0  0  0
   38.6270   28.4600   30.0420 C   0  0  0  0  0  0  0  0  0  0  0  0
   37.3370   28.7310   29.2710 C   0  0  0  0  0  0  0  0  0  0  0  0
   36.5120   29.6110   30.1800 C   0  0  0  0  0  0  0  0  0  0  0  0
   36.2170   28.8820   31.4590 C   0  0  0  0  0  0  0  0  0  0  0  0
   40.8852   22.5034   38.4013 H   0  0  0  0  0  0  0  0  0  0  0  0
   38.9270   23.3252   39.7970 H   0  0  0  0  0  0  0  0  0  0  0  0
   36.8122   24.0983   38.5680 H   0  0  0  0  0  0  0  0  0  0  0  0
   40.1451   22.0388   33.7054 H   0  0  0  0  0  0  0  0  0  0  0  0
   38.7865   21.1715   34.5685 H   0  0  0  0  0  0  0  0  0  0  0  0
   39.0328   21.1238   31.9745 H   0  0  0  0  0  0  0  0  0  0  0  0
   37.4227   21.2466   32.8429 H   0  0  0  0  0  0  0  0  0  0  0  0
   38.9460   23.4833   31.4784 H   0  0  0  0  0  0  0  0  0  0  0  0
   37.4037   22.7337   30.9570 H   0  0  0  0  0  0  0  0  0  0  0  0
   36.9208   24.8074   32.1575 H   0  0  0  0  0  0  0  0  0  0  0  0
   36.3891   23.4212   33.1580 H   0  0  0  0  0  0  0  0  0  0  0  0
   39.0001   24.9226   33.3414 H   0  0  0  0  0  0  0  0  0  0  0  0
   36.5757   25.2501   34.8885 H   0  0  0  0  0  0  0  0  0  0  0  0
   38.1949   25.3207   35.7041 H   0  0  0  0  0  0  0  0  0  0  0  0
   38.9569   26.5996   34.2067 H   0  0  0  0  0  0  0  0  0  0  0  0
   36.2070   27.7287   35.4133 H   0  0  0  0  0  0  0  0  0  0  0  0
   37.2005   28.8963   35.1462 H   0  0  0  0  0  0  0  0  0  0  0  0
   36.0791   27.0026   32.6196 H   0  0  0  0  0  0  0  0  0  0  0  0
   38.0118   29.1165   32.5765 H   0  0  0  0  0  0  0  0  0  0  0  0
   39.2309   27.2585   31.7197 H   0  0  0  0  0  0  0  0  0  0  0  0
   37.8047   26.6354   30.8454 H   0  0  0  0  0  0  0  0  0  0  0  0
   39.0418   29.4071   30.4174 H   0  0  0  0  0  0  0  0  0  0  0  0
   39.3695   27.9860   29.3832 H   0  0  0  0  0  0  0  0  0  0  0  0
   37.5541   29.2489   28.3252 H   0  0  0  0  0  0  0  0  0  0  0  0
   36.8107   27.8013   29.0090 H   0  0  0  0  0  0  0  0  0  0  0  0
   37.0713   30.5312   30.4043 H   0  0  0  0  0  0  0  0  0  0  0  0
   35.5662   29.8662   29.6797 H   0  0  0  0  0  0  0  0  0  0  0  0
   35.7295   29.5884   32.1470 H   0  0  0  0  0  0  0  0  0  0  0  0
   35.5842   28.0266   31.1801 H   0  0  0  0  0  0  0  0  0  0  0  0
  1  2  2  0
  3  2  1  0
  4  3  2  0
  5  6  2  0
  5  4  1  0
  6  1  1  0
  7  5  1  0
  8  7  1  0
  9  8  1  0
 10  9  1  0
 10 11  1  0
 11 12  1  0
 12  7  1  0
 12 13  1  0
 14 15  1  0
 14 13  1  0
 16 14  1  0
 16 15  1  0
 17 16  1  0
 18 17  1  0
 19 18  1  0
 20 19  1  0
 20 21  1  0
 21 22  1  0
 22 17  1  0
  1 23  1  0
  2 24  1  0
  3 25  1  0
  8 26  1  0
  8 27  1  0
  9 28  1  0
  9 29  1  0
 10 30  1  0
 10 31  1  0
 11 32  1  0
 11 33  1  0
 12 34  1  6
 13 35  1  0
 13 36  1  0
 14 37  1  6
 15 38  1  0
 15 39  1  0
 16 40  1  6
 17 41  1  0
 18 42  1  0
 18 43  1  0
 19 44  1  0
 19 45  1  0
 20 46  1  0
 20 47  1  0
 21 48  1  0
 21 49  1  0
 22 50  1  0
 22 51  1  0
M  ISO  8  23  14  24  14  25  14  26  13  27  13  28  13  29  13  30  13
M  ISO  8  31  13  32  13  33  13  34  13  35   8  36   8  37  13  38  13
M  ISO  8  39  13  40  13  41  13  42  13  43  13  44  13  45  13  46  13
M  ISO  5  47  13  48  13  49  13  50  13  51  13
M  END
>  <minimizedAffinity>  (1) 
-5.42276096

>  <minimizedRMSD>  (1) 
0.363293529

$$$$
