
     RDKit          3D

 48 51  0  0  1  0  0  0  0  0999 V2000
   39.8900   22.8200   37.8970 C   0  0  0  0  0  0  0  0  0  0  0  0
   38.8320   23.4230   38.6460 C   0  0  0  0  0  0  0  0  0  0  0  0
   37.7140   23.9180   37.9490 C   0  0  0  0  0  0  0  0  0  0  0  0
   37.7740   23.7600   36.6180 N   0  0  0  0  0  0  0  0  0  0  0  0
   38.7470   23.2020   35.9040 C   0  0  0  0  0  0  0  0  0  0  0  0
   39.8090   22.7320   36.5650 N   0  0  0  0  0  0  0  0  0  0  0  0
   38.6500   23.1190   34.4880 N   0  0  0  0  0  0  0  0  0  0  0  0
   38.9500   21.8390   33.9180 C   0  0  0  0  0  0  0  0  0  0  0  0
   38.2190   21.5630   32.6580 C   0  0  0  0  0  0  0  0  0  0  0  0
   37.9690   22.7900   31.8060 C   0  0  0  0  0  0  0  0  0  0  0  0
   37.3130   23.8520   32.6510 C   0  0  0  0  0  0  0  0  0  0  0  0
   38.2720   24.2790   33.7230 C   0  0  1  0  0  0  0  0  0  0  0  0
   37.8420   25.4070   34.5740 C   0  0  0  0  0  0  0  0  0  0  0  0
   37.8580   26.7040   33.8460 C   0  0  2  0  0  0  0  0  0  0  0  0
   37.1630   27.8920   34.4280 C   0  0  0  0  0  0  0  0  0  0  0  0
   36.5980   27.2150   33.1750 C   0  0  1  0  0  0  0  0  0  0  0  0
   36.7750   28.0510   32.0020 N   0  0  0  0  0  0  0  0  0  0  0  0
   37.9380   28.0290   31.3250 C   0  0  0  0  0  0  0  0  0  0  0  0
   38.0310   28.8520   30.2200 C   0  0  0  0  0  0  0  0  0  0  0  0
   39.3240   28.8420   29.4480 C   0  0  0  0  0  0  0  0  0  0  0  0
   36.9840   29.6490   29.8400 C   0  0  0  0  0  0  0  0  0  0  0  0
   37.1350   30.3810   28.8150 O   0  0  0  0  0  0  0  0  0  0  0  0
   35.8270   29.6610   30.5260 N   0  0  0  0  0  0  0  0  0  0  0  0
   35.7810   28.8350   31.6060 C   0  0  0  0  0  0  0  0  0  0  0  0
   34.6980   28.8470   32.2500 O   0  0  0  0  0  0  0  0  0  0  0  0
   40.7748   22.4266   38.4188 H   0  0  0  0  0  0  0  0  0  0  0  0
   38.8904   23.4983   39.7419 H   0  0  0  0  0  0  0  0  0  0  0  0
   36.8612   24.3952   38.4539 H   0  0  0  0  0  0  0  0  0  0  0  0
   40.0293   21.7954   33.7103 H   0  0  0  0  0  0  0  0  0  0  0  0
   38.6327   21.0793   34.6475 H   0  0  0  0  0  0  0  0  0  0  0  0
   38.8080   20.8463   32.0669 H   0  0  0  0  0  0  0  0  0  0  0  0
   37.2325   21.1691   32.9437 H   0  0  0  0  0  0  0  0  0  0  0  0
   37.3086   22.5272   30.9665 H   0  0  0  0  0  0  0  0  0  0  0  0
   38.9237   23.1678   31.4113 H   0  0  0  0  0  0  0  0  0  0  0  0
   37.0530   24.7163   32.0221 H   0  0  0  0  0  0  0  0  0  0  0  0
   36.3960   23.4518   33.1082 H   0  0  0  0  0  0  0  0  0  0  0  0
   39.1457   24.7060   33.2089 H   0  0  0  0  0  0  0  0  0  0  0  0
   36.8186   25.2128   34.9276 H   0  0  0  0  0  0  0  0  0  0  0  0
   38.5500   25.4839   35.4124 H   0  0  0  0  0  0  0  0  0  0  0  0
   38.8833   26.5000   33.5037 H   0  0  0  0  0  0  0  0  0  0  0  0
   36.6324   27.8030   35.3875 H   0  0  0  0  0  0  0  0  0  0  0  0
   37.4634   28.9176   34.6887 H   0  0  0  0  0  0  0  0  0  0  0  0
   35.6624   26.7330   32.8550 H   0  0  0  0  0  0  0  0  0  0  0  0
   38.7744   27.3862   31.6369 H   0  0  0  0  0  0  0  0  0  0  0  0
   40.1704   28.8355   30.1505 H   0  0  0  0  0  0  0  0  0  0  0  0
   39.3661   27.9435   28.8148 H   0  0  0  0  0  0  0  0  0  0  0  0
   39.3799   29.7397   28.8148 H   0  0  0  0  0  0  0  0  0  0  0  0
   35.0309   30.2546   30.2525 H   0  0  0  0  0  0  0  0  0  0  0  0
  1  2  2  0
  3  2  1  0
  4  3  2  0
  5  6  2  0
  5  4  1  0
  6  1  1  0
  7  5  1  0
  8  7  1  0
  9  8  1  0
 10 11  1  0
 10  9  1  0
 11 12  1  0
 12  7  1  0
 12 13  1  0
 14 15  1  0
 14 13  1  0
 16 14  1  0
 16 15  1  0
 17 16  1  0
 18 17  1  0
 19 18  2  0
 20 19  1  0
 21 19  1  0
 21 23  1  0
 22 21  2  0
 23 24  1  0
 24 17  1  0
 24 25  2  0
  1 26  1  0
  2 27  1  0
  3 28  1  0
  8 29  1  0
  8 30  1  0
  9 31  1  0
  9 32  1  0
 10 33  1  0
 10 34  1  0
 11 35  1  0
 11 36  1  0
 12 37  1  6
 13 38  1  0
 13 39  1  0
 14 40  1  6
 15 41  1  0
 15 42  1  0
 16 43  1  1
 18 44  1  0
 20 45  1  0
 20 46  1  0
 20 47  1  0
 23 48  1  0
M  ISO  8  26  14  27  14  28  14  29  13  30  13  31  13  32  13  33  13
M  ISO  8  34  13  35  13  36  13  37  13  38   8  39   8  40  13  41  13
M  ISO  7  42  13  43  13  44  14  45   8  46   8  47   8  48   9
M  END
>  <minimizedAffinity>  (1) 
-5.80477762

>  <minimizedRMSD>  (1) 
1.19747627

$$$$
