
     RDKit          3D

 42 44  0  0  1  0  0  0  0  0999 V2000
   39.8980   22.8450   37.8960 C   0  0  0  0  0  0  0  0  0  0  0  0
   38.8340   23.4010   38.6740 C   0  0  0  0  0  0  0  0  0  0  0  0
   37.7100   23.9100   37.9950 C   0  0  0  0  0  0  0  0  0  0  0  0
   37.7720   23.8110   36.6600 N   0  0  0  0  0  0  0  0  0  0  0  0
   38.7530   23.2980   35.9220 C   0  0  0  0  0  0  0  0  0  0  0  0
   39.8250   22.8110   36.5580 N   0  0  0  0  0  0  0  0  0  0  0  0
   38.6590   23.2740   34.5080 N   0  0  0  0  0  0  0  0  0  0  0  0
   38.9750   22.0200   33.8880 C   0  0  0  0  0  0  0  0  0  0  0  0
   38.2790   21.7990   32.5880 C   0  0  0  0  0  0  0  0  0  0  0  0
   38.0300   23.0650   31.8050 C   0  0  0  0  0  0  0  0  0  0  0  0
   37.3340   24.0600   32.6910 C   0  0  0  0  0  0  0  0  0  0  0  0
   38.2690   24.4560   33.7920 C   0  0  1  0  0  0  0  0  0  0  0  0
   37.7740   25.5220   34.7020 C   0  0  0  0  0  0  0  0  0  0  0  0
   37.7970   26.8600   33.9720 C   0  0  2  0  0  0  0  0  0  0  0  0
   37.0010   27.9890   34.4980 C   0  0  0  0  0  0  0  0  0  0  0  0
   36.5650   27.2550   33.2280 C   0  0  1  0  0  0  0  0  0  0  0  0
   36.4920   27.9550   32.0080 N   0  0  0  0  0  0  0  0  0  0  0  0
   36.4640   27.4010   30.7110 C   0  0  0  0  0  0  0  0  0  0  0  0
   35.6880   26.4570   30.4120 N   0  0  0  0  0  0  0  0  0  0  0  0
   37.3470   27.9450   29.7040 N   0  0  0  0  0  0  0  0  0  0  0  0
   35.0340   26.0220   31.0540 H   0  0  0  0  0  0  0  0  0  0  0  0
   40.7870   22.4404   38.4020 H   0  0  0  0  0  0  0  0  0  0  0  0
   38.8921   23.4302   39.7721 H   0  0  0  0  0  0  0  0  0  0  0  0
   36.8501   24.3533   38.5185 H   0  0  0  0  0  0  0  0  0  0  0  0
   40.0601   21.9844   33.7109 H   0  0  0  0  0  0  0  0  0  0  0  0
   38.6339   21.2293   34.5724 H   0  0  0  0  0  0  0  0  0  0  0  0
   38.8972   21.1278   31.9738 H   0  0  0  0  0  0  0  0  0  0  0  0
   37.2939   21.3692   32.8221 H   0  0  0  0  0  0  0  0  0  0  0  0
   38.9890   23.4823   31.4641 H   0  0  0  0  0  0  0  0  0  0  0  0
   37.4012   22.8431   30.9301 H   0  0  0  0  0  0  0  0  0  0  0  0
   37.0557   24.9477   32.1040 H   0  0  0  0  0  0  0  0  0  0  0  0
   36.4227   23.6128   33.1147 H   0  0  0  0  0  0  0  0  0  0  0  0
   39.1408   24.9269   33.3143 H   0  0  0  0  0  0  0  0  0  0  0  0
   36.7444   25.2908   35.0126 H   0  0  0  0  0  0  0  0  0  0  0  0
   38.4200   25.5765   35.5906 H   0  0  0  0  0  0  0  0  0  0  0  0
   38.8597   26.7439   33.7129 H   0  0  0  0  0  0  0  0  0  0  0  0
   36.4252   27.8719   35.4279 H   0  0  0  0  0  0  0  0  0  0  0  0
   37.2103   29.0361   34.7620 H   0  0  0  0  0  0  0  0  0  0  0  0
   35.7068   26.6778   32.8533 H   0  0  0  0  0  0  0  0  0  0  0  0
   36.4551   28.9825   32.0695 H   0  0  0  0  0  0  0  0  0  0  0  0
   37.3428   27.5554   28.7505 H   0  0  0  0  0  0  0  0  0  0  0  0
   37.9804   28.7222   29.9399 H   0  0  0  0  0  0  0  0  0  0  0  0
  1  2  2  0
  3  2  1  0
  4  3  2  0
  5  6  2  0
  5  4  1  0
  6  1  1  0
  7  5  1  0
  8  7  1  0
  9  8  1  0
 10  9  1  0
 10 11  1  0
 11 12  1  0
 12  7  1  0
 12 13  1  0
 14 15  1  0
 14 13  1  0
 16 14  1  0
 16 15  1  0
 17 16  1  0
 18 17  1  0
 19 18  2  0
 19 21  1  0
 20 18  1  0
  1 22  1  0
  2 23  1  0
  3 24  1  0
  8 25  1  0
  8 26  1  0
  9 27  1  0
  9 28  1  0
 10 29  1  0
 10 30  1  0
 11 31  1  0
 11 32  1  0
 12 33  1  6
 13 34  1  0
 13 35  1  0
 14 36  1  6
 15 37  1  0
 15 38  1  0
 16 39  1  1
 17 40  1  0
 20 41  1  0
 20 42  1  0
M  ISO  8  22  14  23  14  24  14  25  13  26  13  27  13  28  13  29  13
M  ISO  8  30  13  31  13  32  13  33  13  34   8  35   8  36  13  37  13
M  ISO  2  38  13  39  13
M  END
>  <minimizedAffinity>  (1) 
-5.17439747

>  <minimizedRMSD>  (1) 
0.332203716

$$$$
