
     RDKit          3D

 42 45  0  0  1  0  0  0  0  0999 V2000
   39.9000   22.8320   37.8570 C   0  0  0  0  0  0  0  0  0  0  0  0
   38.8250   23.3490   38.6460 C   0  0  0  0  0  0  0  0  0  0  0  0
   37.6960   23.8610   37.9790 C   0  0  0  0  0  0  0  0  0  0  0  0
   37.7630   23.8020   36.6390 N   0  0  0  0  0  0  0  0  0  0  0  0
   38.7550   23.3240   35.8940 C   0  0  0  0  0  0  0  0  0  0  0  0
   39.8320   22.8360   36.5170 N   0  0  0  0  0  0  0  0  0  0  0  0
   38.6630   23.3400   34.4750 N   0  0  0  0  0  0  0  0  0  0  0  0
   38.9840   22.1080   33.8160 C   0  0  0  0  0  0  0  0  0  0  0  0
   38.2700   21.9220   32.5260 C   0  0  0  0  0  0  0  0  0  0  0  0
   38.0180   23.2050   31.7680 C   0  0  0  0  0  0  0  0  0  0  0  0
   37.3350   24.1910   32.6780 C   0  0  0  0  0  0  0  0  0  0  0  0
   38.2650   24.5530   33.7940 C   0  0  1  0  0  0  0  0  0  0  0  0
   37.7930   25.5980   34.7280 C   0  0  0  0  0  0  0  0  0  0  0  0
   37.7790   26.9400   34.0810 C   0  0  2  0  0  0  0  0  0  0  0  0
   37.0590   28.0810   34.7260 C   0  0  0  0  0  0  0  0  0  0  0  0
   36.4990   27.4490   33.4430 C   0  0  1  0  0  0  0  0  0  0  0  0
   36.5990   28.3690   32.2780 C   0  0  0  0  0  0  0  0  0  0  0  0
   37.6010   28.2980   31.3040 C   0  0  0  0  0  0  0  0  0  0  0  0
   37.2750   29.3450   30.4410 C   0  0  0  0  0  0  0  0  0  0  0  0
   36.1290   29.9770   30.9230 C   0  0  0  0  0  0  0  0  0  0  0  0
   35.7730   29.3490   32.0190 O   0  0  0  0  0  0  0  0  0  0  0  0
   40.7932   22.4263   38.3546 H   0  0  0  0  0  0  0  0  0  0  0  0
   38.8790   23.3466   39.7447 H   0  0  0  0  0  0  0  0  0  0  0  0
   36.8283   24.2762   38.5127 H   0  0  0  0  0  0  0  0  0  0  0  0
   40.0664   22.0894   33.6207 H   0  0  0  0  0  0  0  0  0  0  0  0
   38.6661   21.2924   34.4822 H   0  0  0  0  0  0  0  0  0  0  0  0
   38.8739   21.2582   31.8899 H   0  0  0  0  0  0  0  0  0  0  0  0
   37.2841   21.4985   32.7681 H   0  0  0  0  0  0  0  0  0  0  0  0
   38.9755   23.6235   31.4243 H   0  0  0  0  0  0  0  0  0  0  0  0
   37.3777   23.0004   30.8973 H   0  0  0  0  0  0  0  0  0  0  0  0
   37.0717   25.0954   32.1099 H   0  0  0  0  0  0  0  0  0  0  0  0
   36.4189   23.7424   33.0897 H   0  0  0  0  0  0  0  0  0  0  0  0
   39.1338   25.0408   33.3280 H   0  0  0  0  0  0  0  0  0  0  0  0
   36.7735   25.3491   35.0578 H   0  0  0  0  0  0  0  0  0  0  0  0
   38.4827   25.6339   35.5842 H   0  0  0  0  0  0  0  0  0  0  0  0
   38.8105   26.7851   33.7318 H   0  0  0  0  0  0  0  0  0  0  0  0
   36.5396   27.9321   35.6842 H   0  0  0  0  0  0  0  0  0  0  0  0
   37.3355   29.1002   35.0338 H   0  0  0  0  0  0  0  0  0  0  0  0
   35.5805   26.9486   33.1025 H   0  0  0  0  0  0  0  0  0  0  0  0
   38.4402   27.5902   31.2354 H   0  0  0  0  0  0  0  0  0  0  0  0
   37.8290   29.6249   29.5328 H   0  0  0  0  0  0  0  0  0  0  0  0
   35.6192   30.8399   30.4696 H   0  0  0  0  0  0  0  0  0  0  0  0
  1  2  2  0
  3  2  1  0
  4  3  2  0
  5  6  2  0
  5  4  1  0
  6  1  1  0
  7  5  1  0
  8  7  1  0
  9  8  1  0
 10  9  1  0
 10 11  1  0
 11 12  1  0
 12  7  1  0
 12 13  1  0
 14 15  1  0
 14 13  1  0
 16 14  1  0
 16 15  1  0
 17 16  1  0
 18 17  2  0
 19 20  2  0
 19 18  1  0
 20 21  1  0
 21 17  1  0
  1 22  1  0
  2 23  1  0
  3 24  1  0
  8 25  1  0
  8 26  1  0
  9 27  1  0
  9 28  1  0
 10 29  1  0
 10 30  1  0
 11 31  1  0
 11 32  1  0
 12 33  1  6
 13 34  1  0
 13 35  1  0
 14 36  1  6
 15 37  1  0
 15 38  1  0
 16 39  1  1
 18 40  1  0
 19 41  1  0
 20 42  1  0
M  ISO  8  22  14  23  14  24  14  25  13  26  13  27  13  28  13  29  13
M  ISO  8  30  13  31  13  32  13  33  13  34   8  35   8  36  13  37  13
M  ISO  5  38  13  39  13  40  14  41  14  42  14
M  END
>  <minimizedAffinity>  (1) 
-5.07759333

>  <minimizedRMSD>  (1) 
0.524886489

$$$$
