
     RDKit          3D

 41 44  0  0  1  0  0  0  0  0999 V2000
   39.8870   22.8310   37.8370 C   0  0  0  0  0  0  0  0  0  0  0  0
   38.8090   23.3460   38.6230 C   0  0  0  0  0  0  0  0  0  0  0  0
   37.6830   23.8570   37.9490 C   0  0  0  0  0  0  0  0  0  0  0  0
   37.7570   23.8000   36.6110 N   0  0  0  0  0  0  0  0  0  0  0  0
   38.7530   23.3250   35.8670 C   0  0  0  0  0  0  0  0  0  0  0  0
   39.8240   22.8380   36.4960 N   0  0  0  0  0  0  0  0  0  0  0  0
   38.6650   23.3460   34.4460 N   0  0  0  0  0  0  0  0  0  0  0  0
   39.0060   22.1210   33.7840 C   0  0  0  0  0  0  0  0  0  0  0  0
   38.2840   21.9210   32.5010 C   0  0  0  0  0  0  0  0  0  0  0  0
   37.9960   23.1970   31.7450 C   0  0  0  0  0  0  0  0  0  0  0  0
   37.3180   24.1770   32.6620 C   0  0  0  0  0  0  0  0  0  0  0  0
   38.2540   24.5510   33.7690 C   0  0  1  0  0  0  0  0  0  0  0  0
   37.7910   25.5980   34.7010 C   0  0  0  0  0  0  0  0  0  0  0  0
   37.7550   26.9380   34.0510 C   0  0  2  0  0  0  0  0  0  0  0  0
   37.1130   28.0970   34.7320 C   0  0  0  0  0  0  0  0  0  0  0  0
   36.4500   27.4680   33.4890 C   0  0  1  0  0  0  0  0  0  0  0  0
   36.5430   28.3070   32.3080 N   0  0  0  0  0  0  0  0  0  0  0  0
   35.6090   29.1630   31.8530 C   0  0  0  0  0  0  0  0  0  0  0  0
   35.9830   29.7970   30.7390 N   0  0  0  0  0  0  0  0  0  0  0  0
   37.2260   29.3160   30.4700 C   0  0  0  0  0  0  0  0  0  0  0  0
   37.5390   28.4150   31.4370 N   0  0  0  0  0  0  0  0  0  0  0  0
   40.7784   22.4243   38.3371 H   0  0  0  0  0  0  0  0  0  0  0  0
   38.8579   23.3431   39.7219 H   0  0  0  0  0  0  0  0  0  0  0  0
   36.8116   24.2702   38.4781 H   0  0  0  0  0  0  0  0  0  0  0  0
   40.0867   22.1251   33.5786 H   0  0  0  0  0  0  0  0  0  0  0  0
   38.7121   21.2986   34.4528 H   0  0  0  0  0  0  0  0  0  0  0  0
   38.8961   21.2706   31.8588 H   0  0  0  0  0  0  0  0  0  0  0  0
   37.3096   21.4772   32.7534 H   0  0  0  0  0  0  0  0  0  0  0  0
   38.9396   23.6283   31.3796 H   0  0  0  0  0  0  0  0  0  0  0  0
   37.3394   22.9780   30.8901 H   0  0  0  0  0  0  0  0  0  0  0  0
   37.0406   25.0783   32.0956 H   0  0  0  0  0  0  0  0  0  0  0  0
   36.4124   23.7182   33.0855 H   0  0  0  0  0  0  0  0  0  0  0  0
   39.1138   25.0458   33.2937 H   0  0  0  0  0  0  0  0  0  0  0  0
   36.7790   25.3433   35.0489 H   0  0  0  0  0  0  0  0  0  0  0  0
   38.4975   25.6443   35.5429 H   0  0  0  0  0  0  0  0  0  0  0  0
   38.7581   26.7575   33.6372 H   0  0  0  0  0  0  0  0  0  0  0  0
   36.6557   27.9678   35.7240 H   0  0  0  0  0  0  0  0  0  0  0  0
   37.4354   29.1105   35.0127 H   0  0  0  0  0  0  0  0  0  0  0  0
   35.4824   27.0135   33.2299 H   0  0  0  0  0  0  0  0  0  0  0  0
   34.6394   29.3233   32.3471 H   0  0  0  0  0  0  0  0  0  0  0  0
   37.8637   29.6047   29.6215 H   0  0  0  0  0  0  0  0  0  0  0  0
  1  2  2  0
  3  2  1  0
  4  3  2  0
  5  6  2  0
  5  4  1  0
  6  1  1  0
  7  5  1  0
  8  7  1  0
  9  8  1  0
 10  9  1  0
 10 11  1  0
 11 12  1  0
 12  7  1  0
 12 13  1  0
 14 13  1  0
 14 15  1  0
 16 14  1  0
 16 15  1  0
 17 16  1  0
 18 17  1  0
 19 18  2  0
 20 19  1  0
 20 21  2  0
 21 17  1  0
  1 22  1  0
  2 23  1  0
  3 24  1  0
  8 25  1  0
  8 26  1  0
  9 27  1  0
  9 28  1  0
 10 29  1  0
 10 30  1  0
 11 31  1  0
 11 32  1  0
 12 33  1  6
 13 34  1  0
 13 35  1  0
 14 36  1  6
 15 37  1  0
 15 38  1  0
 16 39  1  1
 18 40  1  0
 20 41  1  0
M  ISO  8  22  14  23  14  24  14  25  13  26  13  27  13  28  13  29  13
M  ISO  8  30  13  31  13  32  13  33  13  34   8  35   8  36  13  37  13
M  ISO  4  38  13  39  13  40  14  41  14
M  END
>  <minimizedAffinity>  (1) 
-4.86971092

>  <minimizedRMSD>  (1) 
0.41861707

$$$$
