
     RDKit          3D

 17 18  0  0  0  0  0  0  0  0999 V2000
   40.0240   22.6730   37.7030 C   0  0  0  0  0  0  0  0  0  0  0  0
   39.1600   23.3180   38.6300 C   0  0  0  0  0  0  0  0  0  0  0  0
   37.8690   23.6470   38.2320 C   0  0  0  0  0  0  0  0  0  0  0  0
   37.5040   23.3240   36.9550 N   0  0  0  0  0  0  0  0  0  0  0  0
   38.3530   22.7080   36.0960 C   0  0  0  0  0  0  0  0  0  0  0  0
   39.6070   22.3780   36.4510 N   0  0  0  0  0  0  0  0  0  0  0  0
   37.7720   22.4340   34.7500 C   0  0  0  0  0  0  0  0  0  0  0  0
   38.1170   23.1840   33.6330 C   0  0  0  0  0  0  0  0  0  0  0  0
   37.0510   22.3170   32.3520 S   0  0  0  0  0  0  0  0  0  0  0  0
   36.3630   21.1040   33.6610 C   0  0  0  0  0  0  0  0  0  0  0  0
   36.9220   21.4450   34.7020 N   0  0  0  0  0  0  0  0  0  0  0  0
   35.3940   20.0170   33.4660 O   0  0  0  0  0  0  0  0  0  0  0  0
   41.0473   22.4100   38.0091 H   0  0  0  0  0  0  0  0  0  0  0  0
   39.5077   23.5532   39.6468 H   0  0  0  0  0  0  0  0  0  0  0  0
   37.1692   24.1473   38.9176 H   0  0  0  0  0  0  0  0  0  0  0  0
   38.8086   24.0330   33.5293 H   0  0  0  0  0  0  0  0  0  0  0  0
   35.1179   19.4563   34.2338 H   0  0  0  0  0  0  0  0  0  0  0  0
  1  2  2  0
  3  2  1  0
  4  3  2  0
  5  6  2  0
  5  4  1  0
  6  1  1  0
  7  5  1  0
  8  7  2  0
  9  8  1  0
  9 10  1  0
 10 11  2  0
 11  7  1  0
 12 10  1  0
  1 13  1  0
  2 14  1  0
  3 15  1  0
  8 16  1  0
 12 17  1  0
M  ISO  5  13  14  14  14  15  14  16  14  17   3
M  END
>  <minimizedAffinity>  (1) 
-3.679003

>  <minimizedRMSD>  (1) 
0.80402869

$$$$
