
     RDKit          3D

 33 36  0  0  0  0  0  0  0  0999 V2000
   38.3660   25.0970   34.7200 C   0  0  0  0  0  0  0  0  0  0  0  0
   38.7180   26.4070   34.4990 C   0  0  0  0  0  0  0  0  0  0  0  0
   38.0580   26.6040   32.7520 S   0  0  0  0  0  0  0  0  0  0  0  0
   37.4300   24.8020   32.7130 C   0  0  0  0  0  0  0  0  0  0  0  0
   37.7560   24.4000   33.8210 N   0  0  0  0  0  0  0  0  0  0  0  0
   39.8150   22.8580   37.3130 C   0  0  0  0  0  0  0  0  0  0  0  0
   39.0150   23.1910   38.4290 C   0  0  0  0  0  0  0  0  0  0  0  0
   38.0120   24.1610   38.2660 C   0  0  0  0  0  0  0  0  0  0  0  0
   37.8570   24.7370   37.0350 N   0  0  0  0  0  0  0  0  0  0  0  0
   38.6540   24.3790   35.9950 C   0  0  0  0  0  0  0  0  0  0  0  0
   39.6360   23.4480   36.1000 N   0  0  0  0  0  0  0  0  0  0  0  0
   36.7560   24.3320   31.4860 C   0  0  0  0  0  0  0  0  0  0  0  0
   37.2000   22.9850   31.0380 C   0  0  0  0  0  0  0  0  0  0  0  0
   38.3450   22.8790   30.3380 N   0  0  0  0  0  0  0  0  0  0  0  0
   38.8370   21.7090   29.8940 C   0  0  0  0  0  0  0  0  0  0  0  0
   38.1430   20.5900   30.1680 N   0  0  0  0  0  0  0  0  0  0  0  0
   37.0080   20.6540   30.8570 C   0  0  0  0  0  0  0  0  0  0  0  0
   36.3710   19.4320   31.0820 C   0  0  0  0  0  0  0  0  0  0  0  0
   35.1770   19.4640   31.8020 C   0  0  0  0  0  0  0  0  0  0  0  0
   34.6980   20.6790   32.2440 C   0  0  0  0  0  0  0  0  0  0  0  0
   35.3210   21.8910   32.0260 C   0  0  0  0  0  0  0  0  0  0  0  0
   36.4810   21.8450   31.3250 C   0  0  0  0  0  0  0  0  0  0  0  0
   39.2335   27.1267   35.1519 H   0  0  0  0  0  0  0  0  0  0  0  0
   40.6045   22.1007   37.4280 H   0  0  0  0  0  0  0  0  0  0  0  0
   39.1737   22.7026   39.4018 H   0  0  0  0  0  0  0  0  0  0  0  0
   37.3665   24.4505   39.1084 H   0  0  0  0  0  0  0  0  0  0  0  0
   35.6733   24.2950   31.6770 H   0  0  0  0  0  0  0  0  0  0  0  0
   37.0171   25.0392   30.6850 H   0  0  0  0  0  0  0  0  0  0  0  0
   39.7773   21.6684   29.3247 H   0  0  0  0  0  0  0  0  0  0  0  0
   36.7919   18.4869   30.7083 H   0  0  0  0  0  0  0  0  0  0  0  0
   34.6266   18.5354   32.0137 H   0  0  0  0  0  0  0  0  0  0  0  0
   33.7544   20.6825   32.8093 H   0  0  0  0  0  0  0  0  0  0  0  0
   34.9019   22.8374   32.3984 H   0  0  0  0  0  0  0  0  0  0  0  0
  1 10  1  0
  2  1  2  0
  3  2  1  0
  4  3  1  0
  4  5  2  0
  5  1  1  0
  6  7  2  0
  8  7  1  0
  9  8  2  0
 10 11  2  0
 10  9  1  0
 11  6  1  0
 12  4  1  0
 13 22  1  0
 13 12  1  0
 14 13  2  0
 15 16  2  0
 15 14  1  0
 16 17  1  0
 17 18  1  0
 17 22  2  0
 18 19  2  0
 19 20  1  0
 21 20  2  0
 22 21  1  0
  2 23  1  0
  6 24  1  0
  7 25  1  0
  8 26  1  0
 12 27  1  0
 12 28  1  0
 15 29  1  0
 18 30  1  0
 19 31  1  0
 20 32  1  0
 21 33  1  0
M  ISO  8  23  14  24  14  25  14  26  14  27   8  28   8  29  14  30  14
M  ISO  3  31  14  32  14  33  14
M  END
>  <minimizedAffinity>  (1) 
-5.58800077

>  <minimizedRMSD>  (1) 
3.66138935

$$$$
