
     RDKit          3D

 19 20  0  0  0  0  0  0  0  0999 V2000
   40.0210   22.6690   37.6960 C   0  0  0  0  0  0  0  0  0  0  0  0
   39.1530   23.3070   38.6270 C   0  0  0  0  0  0  0  0  0  0  0  0
   37.8660   23.6430   38.2160 C   0  0  0  0  0  0  0  0  0  0  0  0
   37.5000   23.3420   36.9340 N   0  0  0  0  0  0  0  0  0  0  0  0
   38.3540   22.7330   36.0740 C   0  0  0  0  0  0  0  0  0  0  0  0
   39.6160   22.3880   36.4300 N   0  0  0  0  0  0  0  0  0  0  0  0
   37.7930   22.4770   34.7150 C   0  0  0  0  0  0  0  0  0  0  0  0
   38.1350   23.2500   33.6130 C   0  0  0  0  0  0  0  0  0  0  0  0
   37.0900   22.3790   32.3170 S   0  0  0  0  0  0  0  0  0  0  0  0
   36.4130   21.1360   33.6010 C   0  0  0  0  0  0  0  0  0  0  0  0
   36.9600   21.4740   34.6500 N   0  0  0  0  0  0  0  0  0  0  0  0
   35.4480   20.0940   33.1540 C   0  0  0  0  0  0  0  0  0  0  0  0
   41.0404   22.3981   38.0082 H   0  0  0  0  0  0  0  0  0  0  0  0
   39.4921   23.5297   39.6494 H   0  0  0  0  0  0  0  0  0  0  0  0
   37.1635   24.1368   38.9036 H   0  0  0  0  0  0  0  0  0  0  0  0
   38.8129   24.1118   33.5254 H   0  0  0  0  0  0  0  0  0  0  0  0
   34.9988   19.6089   34.0332 H   0  0  0  0  0  0  0  0  0  0  0  0
   34.6572   20.5619   32.5493 H   0  0  0  0  0  0  0  0  0  0  0  0
   35.9751   19.3413   32.5493 H   0  0  0  0  0  0  0  0  0  0  0  0
  1  2  2  0
  3  2  1  0
  4  3  2  0
  5  6  2  0
  5  4  1  0
  6  1  1  0
  7  5  1  0
  8  7  2  0
  9 10  1  0
  9  8  1  0
 10 11  2  0
 11  7  1  0
 12 10  1  0
  1 13  1  0
  2 14  1  0
  3 15  1  0
  8 16  1  0
 12 17  1  0
 12 18  1  0
 12 19  1  0
M  ISO  7  13  14  14  14  15  14  16  14  17   8  18   8  19   8
M  END
>  <minimizedAffinity>  (1) 
-3.8257277

>  <minimizedRMSD>  (1) 
0.862423003

$$$$
