
     RDKit          3D

 27 29  0  0  0  0  0  0  0  0999 V2000
   37.9890   22.6180   34.4660 C   0  0  0  0  0  0  0  0  0  0  0  0
   38.5100   23.3260   33.3970 C   0  0  0  0  0  0  0  0  0  0  0  0
   37.4200   22.6250   32.0340 S   0  0  0  0  0  0  0  0  0  0  0  0
   36.4880   21.5080   33.2560 C   0  0  0  0  0  0  0  0  0  0  0  0
   37.0210   21.7610   34.3340 N   0  0  0  0  0  0  0  0  0  0  0  0
   40.1130   22.5850   37.5240 C   0  0  0  0  0  0  0  0  0  0  0  0
   39.2240   23.1480   38.4720 C   0  0  0  0  0  0  0  0  0  0  0  0
   37.9550   23.5130   38.0440 C   0  0  0  0  0  0  0  0  0  0  0  0
   37.6040   23.3200   36.7330 N   0  0  0  0  0  0  0  0  0  0  0  0
   38.4920   22.7760   35.8600 C   0  0  0  0  0  0  0  0  0  0  0  0
   39.7390   22.4060   36.2360 N   0  0  0  0  0  0  0  0  0  0  0  0
   35.4010   20.6250   32.7380 C   0  0  0  0  0  0  0  0  0  0  0  0
   35.9890   19.3120   32.4240 C   0  0  0  0  0  0  0  0  0  0  0  0
   35.2330   18.1750   32.6350 C   0  0  0  0  0  0  0  0  0  0  0  0
   35.7130   16.8890   32.3640 C   0  0  0  0  0  0  0  0  0  0  0  0
   36.9640   16.7870   31.8790 N   0  0  0  0  0  0  0  0  0  0  0  0
   37.7240   17.8990   31.6650 C   0  0  0  0  0  0  0  0  0  0  0  0
   37.2380   19.1450   31.9350 N   0  0  0  0  0  0  0  0  0  0  0  0
   39.3170   24.0724   33.3567 H   0  0  0  0  0  0  0  0  0  0  0  0
   41.1240   22.2884   37.8400 H   0  0  0  0  0  0  0  0  0  0  0  0
   39.5307   23.2920   39.5185 H   0  0  0  0  0  0  0  0  0  0  0  0
   37.2368   23.9536   38.7511 H   0  0  0  0  0  0  0  0  0  0  0  0
   34.6182   20.5099   33.5022 H   0  0  0  0  0  0  0  0  0  0  0  0
   34.9490   21.0655   31.8371 H   0  0  0  0  0  0  0  0  0  0  0  0
   34.2130   18.2852   33.0319 H   0  0  0  0  0  0  0  0  0  0  0  0
   35.0930   15.9977   32.5402 H   0  0  0  0  0  0  0  0  0  0  0  0
   38.7443   17.7897   31.2687 H   0  0  0  0  0  0  0  0  0  0  0  0
  1 10  1  0
  2  1  2  0
  3  4  1  0
  3  2  1  0
  4  5  2  0
  5  1  1  0
  6  7  2  0
  8  7  1  0
  9  8  2  0
 10 11  2  0
 10  9  1  0
 11  6  1  0
 12  4  1  0
 13 14  2  0
 13 12  1  0
 15 14  1  0
 16 15  2  0
 17 16  1  0
 17 18  2  0
 18 13  1  0
  2 19  1  0
  6 20  1  0
  7 21  1  0
  8 22  1  0
 12 23  1  0
 12 24  1  0
 14 25  1  0
 15 26  1  0
 17 27  1  0
M  ISO  8  19  14  20  14  21  14  22  14  23   8  24   8  25  14  26  14
M  ISO  1  27  14
M  END
>  <minimizedAffinity>  (1) 
-4.56661129

>  <minimizedRMSD>  (1) 
0.507666111

$$$$
