
     RDKit          3D

 26 27  0  0  0  0  0  0  0  0999 V2000
   37.7940   22.5800   34.7890 C   0  0  0  0  0  0  0  0  0  0  0  0
   38.0740   23.3880   33.7120 C   0  0  0  0  0  0  0  0  0  0  0  0
   37.0530   22.5060   32.3960 S   0  0  0  0  0  0  0  0  0  0  0  0
   36.4590   21.2000   33.6450 C   0  0  0  0  0  0  0  0  0  0  0  0
   37.0090   21.5400   34.6920 N   0  0  0  0  0  0  0  0  0  0  0  0
   39.9980   22.7360   37.7750 C   0  0  0  0  0  0  0  0  0  0  0  0
   39.1370   23.3560   38.7100 C   0  0  0  0  0  0  0  0  0  0  0  0
   37.8420   23.6990   38.2970 C   0  0  0  0  0  0  0  0  0  0  0  0
   37.4930   23.4150   37.0210 N   0  0  0  0  0  0  0  0  0  0  0  0
   38.3540   22.8150   36.1450 C   0  0  0  0  0  0  0  0  0  0  0  0
   39.6050   22.4670   36.4980 N   0  0  0  0  0  0  0  0  0  0  0  0
   35.5410   20.1370   33.1730 C   0  0  0  0  0  0  0  0  0  0  0  0
   36.1300   19.2320   32.2260 N   0  0  0  0  0  0  0  0  0  0  0  0
   35.6180   17.9210   32.0830 C   0  0  0  0  0  0  0  0  0  0  0  0
   34.8120   17.3860   32.9400 N   0  0  0  0  0  0  0  0  0  0  0  0
   35.9740   17.1030   30.9550 N   0  0  0  0  0  0  0  0  0  0  0  0
   34.4230   16.4270   32.8590 H   0  0  0  0  0  0  0  0  0  0  0  0
   38.7071   24.2846   33.6399 H   0  0  0  0  0  0  0  0  0  0  0  0
   41.0164   22.4624   38.0881 H   0  0  0  0  0  0  0  0  0  0  0  0
   39.4751   23.5640   39.7359 H   0  0  0  0  0  0  0  0  0  0  0  0
   37.1341   24.1823   38.9864 H   0  0  0  0  0  0  0  0  0  0  0  0
   35.2079   19.5557   34.0454 H   0  0  0  0  0  0  0  0  0  0  0  0
   34.7108   20.6409   32.6564 H   0  0  0  0  0  0  0  0  0  0  0  0
   36.9269   19.5382   31.6497 H   0  0  0  0  0  0  0  0  0  0  0  0
   35.5911   16.1508   30.8681 H   0  0  0  0  0  0  0  0  0  0  0  0
   36.6119   17.4694   30.2340 H   0  0  0  0  0  0  0  0  0  0  0  0
  1 10  1  0
  2  1  2  0
  3  4  1  0
  3  2  1  0
  4  5  2  0
  5  1  1  0
  6  7  2  0
  8  7  1  0
  9  8  2  0
 10 11  2  0
 10  9  1  0
 11  6  1  0
 12  4  1  0
 13 12  1  0
 14 13  1  0
 14 15  2  0
 16 14  1  0
 17 15  1  0
  2 18  1  0
  6 19  1  0
  7 20  1  0
  8 21  1  0
 12 22  1  0
 12 23  1  0
 13 24  1  0
 16 25  1  0
 16 26  1  0
M  ISO  6  18  14  19  14  20  14  21  14  22   8  23   8
M  END
>  <minimizedAffinity>  (1) 
-4.54814911

>  <minimizedRMSD>  (1) 
0.616217196

$$$$
