
     RDKit          3D

 26 28  0  0  0  0  0  0  0  0999 V2000
   37.9260   22.6080   34.3740 C   0  0  0  0  0  0  0  0  0  0  0  0
   38.3630   23.3670   33.3070 C   0  0  0  0  0  0  0  0  0  0  0  0
   37.2190   22.6810   31.9960 S   0  0  0  0  0  0  0  0  0  0  0  0
   36.3950   21.4980   33.2160 C   0  0  0  0  0  0  0  0  0  0  0  0
   36.9800   21.7280   34.2740 N   0  0  0  0  0  0  0  0  0  0  0  0
   40.1700   22.4230   37.3380 C   0  0  0  0  0  0  0  0  0  0  0  0
   39.3720   23.0390   38.3280 C   0  0  0  0  0  0  0  0  0  0  0  0
   38.1190   23.4880   37.9550 C   0  0  0  0  0  0  0  0  0  0  0  0
   37.7060   23.3200   36.6560 N   0  0  0  0  0  0  0  0  0  0  0  0
   38.5050   22.7240   35.7460 C   0  0  0  0  0  0  0  0  0  0  0  0
   39.7530   22.2640   36.0660 N   0  0  0  0  0  0  0  0  0  0  0  0
   35.3080   20.6020   32.7130 C   0  0  0  0  0  0  0  0  0  0  0  0
   35.9270   19.3620   32.4140 N   0  0  0  0  0  0  0  0  0  0  0  0
   37.1040   19.1160   31.8250 C   0  0  0  0  0  0  0  0  0  0  0  0
   37.2370   17.7300   31.7710 C   0  0  0  0  0  0  0  0  0  0  0  0
   36.1320   17.1960   32.3320 N   0  0  0  0  0  0  0  0  0  0  0  0
   35.3320   18.1910   32.7240 C   0  0  0  0  0  0  0  0  0  0  0  0
   39.1445   24.1387   33.2464 H   0  0  0  0  0  0  0  0  0  0  0  0
   41.1702   22.0591   37.6160 H   0  0  0  0  0  0  0  0  0  0  0  0
   39.7352   23.1571   39.3596 H   0  0  0  0  0  0  0  0  0  0  0  0
   37.4605   23.9741   38.6899 H   0  0  0  0  0  0  0  0  0  0  0  0
   34.5365   20.4671   33.4854 H   0  0  0  0  0  0  0  0  0  0  0  0
   34.8137   21.0281   31.8275 H   0  0  0  0  0  0  0  0  0  0  0  0
   37.8242   19.8613   31.4563 H   0  0  0  0  0  0  0  0  0  0  0  0
   38.0866   17.1734   31.3487 H   0  0  0  0  0  0  0  0  0  0  0  0
   34.3548   18.0757   33.2157 H   0  0  0  0  0  0  0  0  0  0  0  0
  1 10  1  0
  2  1  2  0
  3  4  1  0
  3  2  1  0
  4  5  2  0
  5  1  1  0
  6  7  2  0
  8  7  1  0
  9  8  2  0
 10 11  2  0
 10  9  1  0
 11  6  1  0
 12  4  1  0
 13 12  1  0
 13 17  1  0
 14 13  1  0
 15 14  2  0
 15 16  1  0
 16 17  2  0
  2 18  1  0
  6 19  1  0
  7 20  1  0
  8 21  1  0
 12 22  1  0
 12 23  1  0
 14 24  1  0
 15 25  1  0
 17 26  1  0
M  ISO  8  18  14  19  14  20  14  21  14  22   8  23   8  24  14  25  14
M  ISO  1  26  14
M  END
>  <minimizedAffinity>  (1) 
-4.15812206

>  <minimizedRMSD>  (1) 
0.575509369

$$$$
