
     RDKit          3D

 39 43  0  0  0  0  0  0  0  0999 V2000
   35.8210   19.2140   32.5200 N   0  0  0  0  0  0  0  0  0  0  0  0
   37.0360   19.0090   31.9660 C   0  0  0  0  0  0  0  0  0  0  0  0
   37.1090   17.7160   31.6270 N   0  0  0  0  0  0  0  0  0  0  0  0
   35.9570   17.1080   31.9600 C   0  0  0  0  0  0  0  0  0  0  0  0
   35.1840   18.0480   32.5060 N   0  0  0  0  0  0  0  0  0  0  0  0
   35.6360   15.7360   31.7650 N   0  0  0  0  0  0  0  0  0  0  0  0
   35.9960   14.9850   30.7090 C   0  0  0  0  0  0  0  0  0  0  0  0
   35.5130   13.7250   30.8630 N   0  0  0  0  0  0  0  0  0  0  0  0
   34.8450   13.6960   32.0300 C   0  0  0  0  0  0  0  0  0  0  0  0
   34.1670   12.6600   32.6540 C   0  0  0  0  0  0  0  0  0  0  0  0
   34.1200   11.5170   32.1000 O   0  0  0  0  0  0  0  0  0  0  0  0
   33.5840   12.9070   33.8250 N   0  0  0  0  0  0  0  0  0  0  0  0
   33.6680   14.1470   34.3670 C   0  0  0  0  0  0  0  0  0  0  0  0
   33.0040   14.3010   35.6300 N   0  0  0  0  0  0  0  0  0  0  0  0
   34.3260   15.1540   33.7640 N   0  0  0  0  0  0  0  0  0  0  0  0
   34.9220   14.9540   32.5950 C   0  0  0  0  0  0  0  0  0  0  0  0
   35.3100   20.4570   33.0300 C   0  0  0  0  0  0  0  0  0  0  0  0
   37.9060   22.5540   34.6180 C   0  0  0  0  0  0  0  0  0  0  0  0
   38.3290   23.2840   33.5170 C   0  0  0  0  0  0  0  0  0  0  0  0
   37.2010   22.5470   32.2090 S   0  0  0  0  0  0  0  0  0  0  0  0
   36.3900   21.3910   33.4730 C   0  0  0  0  0  0  0  0  0  0  0  0
   36.9730   21.6700   34.5040 N   0  0  0  0  0  0  0  0  0  0  0  0
   40.1550   22.5900   37.5750 C   0  0  0  0  0  0  0  0  0  0  0  0
   39.3010   23.1620   38.5480 C   0  0  0  0  0  0  0  0  0  0  0  0
   38.0190   23.5060   38.1640 C   0  0  0  0  0  0  0  0  0  0  0  0
   37.6040   23.2910   36.8760 N   0  0  0  0  0  0  0  0  0  0  0  0
   38.4830   22.7330   35.9840 C   0  0  0  0  0  0  0  0  0  0  0  0
   39.7480   22.3740   36.2900 N   0  0  0  0  0  0  0  0  0  0  0  0
   37.8211   19.7656   31.8202 H   0  0  0  0  0  0  0  0  0  0  0  0
   36.5900   15.3369   29.8527 H   0  0  0  0  0  0  0  0  0  0  0  0
   33.0721   12.1605   34.3165 H   0  0  0  0  0  0  0  0  0  0  0  0
   33.0183   15.2113   36.1118 H   0  0  0  0  0  0  0  0  0  0  0  0
   32.5131   13.5012   36.0547 H   0  0  0  0  0  0  0  0  0  0  0  0
   34.7247   20.9473   32.2382 H   0  0  0  0  0  0  0  0  0  0  0  0
   34.6927   20.2243   33.9102 H   0  0  0  0  0  0  0  0  0  0  0  0
   39.0990   24.0652   33.4343 H   0  0  0  0  0  0  0  0  0  0  0  0
   41.1791   22.3107   37.8634 H   0  0  0  0  0  0  0  0  0  0  0  0
   39.6474   23.3277   39.5788 H   0  0  0  0  0  0  0  0  0  0  0  0
   37.3294   23.9539   38.8947 H   0  0  0  0  0  0  0  0  0  0  0  0
  1 17  1  0
  2  1  1  0
  3  4  1  0
  3  2  2  0
  4  5  2  0
  5  1  1  0
  6  4  1  0
  6 16  1  0
  7  8  2  0
  7  6  1  0
  8  9  1  0
  9 16  2  0
  9 10  1  0
 10 12  1  0
 11 10  2  0
 12 13  1  0
 13 14  1  0
 15 13  2  0
 16 15  1  0
 17 21  1  0
 18 27  1  0
 19 18  2  0
 20 21  1  0
 20 19  1  0
 21 22  2  0
 22 18  1  0
 23 24  2  0
 25 24  1  0
 26 25  2  0
 27 28  2  0
 27 26  1  0
 28 23  1  0
  2 29  1  0
  7 30  1  0
 12 31  1  0
 14 32  1  0
 14 33  1  0
 17 34  1  0
 17 35  1  0
 19 36  1  0
 23 37  1  0
 24 38  1  0
 25 39  1  0
M  ISO  8  29  14  30  14  31   9  34   8  35   8  36  14  37  14  38  14
M  ISO  1  39  14
M  END
>  <minimizedAffinity>  (1) 
-5.92995644

>  <minimizedRMSD>  (1) 
0.570195735

$$$$
