
     RDKit          3D

 25 27  0  0  0  0  0  0  0  0999 V2000
   37.8960   22.5260   34.5780 C   0  0  0  0  0  0  0  0  0  0  0  0
   38.3400   23.2500   33.4820 C   0  0  0  0  0  0  0  0  0  0  0  0
   37.2250   22.5100   32.1640 S   0  0  0  0  0  0  0  0  0  0  0  0
   36.3880   21.3580   33.4230 C   0  0  0  0  0  0  0  0  0  0  0  0
   36.9620   21.6410   34.4690 N   0  0  0  0  0  0  0  0  0  0  0  0
   40.1010   22.5730   37.5720 C   0  0  0  0  0  0  0  0  0  0  0  0
   39.2430   23.1610   38.5290 C   0  0  0  0  0  0  0  0  0  0  0  0
   37.9670   23.5120   38.1230 C   0  0  0  0  0  0  0  0  0  0  0  0
   37.5760   23.2840   36.8260 N   0  0  0  0  0  0  0  0  0  0  0  0
   38.4560   22.7140   35.9520 C   0  0  0  0  0  0  0  0  0  0  0  0
   39.7060   22.3520   36.2880 N   0  0  0  0  0  0  0  0  0  0  0  0
   35.3100   20.4280   32.9720 C   0  0  0  0  0  0  0  0  0  0  0  0
   35.8150   19.1430   32.5690 N   0  0  0  0  0  0  0  0  0  0  0  0
   36.9780   18.9140   31.9100 C   0  0  0  0  0  0  0  0  0  0  0  0
   37.0840   17.5920   31.7220 N   0  0  0  0  0  0  0  0  0  0  0  0
   35.9980   16.9830   32.2550 C   0  0  0  0  0  0  0  0  0  0  0  0
   35.2400   17.9680   32.7680 N   0  0  0  0  0  0  0  0  0  0  0  0
   39.1150   24.0270   33.4067 H   0  0  0  0  0  0  0  0  0  0  0  0
   41.1189   22.2852   37.8738 H   0  0  0  0  0  0  0  0  0  0  0  0
   39.5782   23.3340   39.5623 H   0  0  0  0  0  0  0  0  0  0  0  0
   37.2681   23.9722   38.8370 H   0  0  0  0  0  0  0  0  0  0  0  0
   34.6015   20.2830   33.8008 H   0  0  0  0  0  0  0  0  0  0  0  0
   34.8253   20.8830   32.0956 H   0  0  0  0  0  0  0  0  0  0  0  0
   37.7031   19.6760   31.5881 H   0  0  0  0  0  0  0  0  0  0  0  0
   35.7808   15.9047   32.2660 H   0  0  0  0  0  0  0  0  0  0  0  0
  1 10  1  0
  2  1  2  0
  3  4  1  0
  3  2  1  0
  4  5  2  0
  5  1  1  0
  6  7  2  0
  8  7  1  0
  9  8  2  0
 10 11  2  0
 10  9  1  0
 11  6  1  0
 12  4  1  0
 13 17  1  0
 13 12  1  0
 14 13  1  0
 15 14  2  0
 15 16  1  0
 16 17  2  0
  2 18  1  0
  6 19  1  0
  7 20  1  0
  8 21  1  0
 12 22  1  0
 12 23  1  0
 14 24  1  0
 16 25  1  0
M  ISO  8  18  14  19  14  20  14  21  14  22   8  23   8  24  14  25  14
M  END
>  <minimizedAffinity>  (1) 
-4.29004049

>  <minimizedRMSD>  (1) 
0.350363404

$$$$
