
     RDKit          3D

 38 41  0  0  0  0  0  0  0  0999 V2000
   37.8870   22.5110   34.5750 C   0  0  0  0  0  0  0  0  0  0  0  0
   38.3280   23.2320   33.4740 C   0  0  0  0  0  0  0  0  0  0  0  0
   37.2220   22.4930   32.1640 S   0  0  0  0  0  0  0  0  0  0  0  0
   36.3830   21.3410   33.4160 C   0  0  0  0  0  0  0  0  0  0  0  0
   36.9550   21.6260   34.4710 N   0  0  0  0  0  0  0  0  0  0  0  0
   40.0800   22.5770   37.5790 C   0  0  0  0  0  0  0  0  0  0  0  0
   39.2150   23.1730   38.5320 C   0  0  0  0  0  0  0  0  0  0  0  0
   37.9410   23.5240   38.1170 C   0  0  0  0  0  0  0  0  0  0  0  0
   37.5640   23.2850   36.8190 N   0  0  0  0  0  0  0  0  0  0  0  0
   38.4520   22.7040   35.9540 C   0  0  0  0  0  0  0  0  0  0  0  0
   39.6920   22.3460   36.2950 N   0  0  0  0  0  0  0  0  0  0  0  0
   35.3140   20.4100   32.9740 C   0  0  0  0  0  0  0  0  0  0  0  0
   35.8070   19.1270   32.5780 N   0  0  0  0  0  0  0  0  0  0  0  0
   36.9650   18.8980   31.9030 C   0  0  0  0  0  0  0  0  0  0  0  0
   37.0750   17.5660   31.7190 N   0  0  0  0  0  0  0  0  0  0  0  0
   36.0030   16.9720   32.2710 C   0  0  0  0  0  0  0  0  0  0  0  0
   35.2430   17.9400   32.7880 N   0  0  0  0  0  0  0  0  0  0  0  0
   35.8100   15.5630   32.2500 N   0  0  0  0  0  0  0  0  0  0  0  0
   34.6260   15.0340   31.5980 C   0  0  0  0  0  0  0  0  0  0  0  0
   34.0350   14.0260   32.5830 C   0  0  0  0  0  0  0  0  0  0  0  0
   34.5930   14.1250   33.8460 O   0  0  0  0  0  0  0  0  0  0  0  0
   35.9430   13.7970   33.8360 C   0  0  0  0  0  0  0  0  0  0  0  0
   36.7480   14.6330   32.8530 C   0  0  0  0  0  0  0  0  0  0  0  0
   39.1017   24.0101   33.3962 H   0  0  0  0  0  0  0  0  0  0  0  0
   41.0968   22.2924   37.8874 H   0  0  0  0  0  0  0  0  0  0  0  0
   39.5449   23.3506   39.5662 H   0  0  0  0  0  0  0  0  0  0  0  0
   37.2371   23.9905   38.8219 H   0  0  0  0  0  0  0  0  0  0  0  0
   34.6071   20.2707   33.8052 H   0  0  0  0  0  0  0  0  0  0  0  0
   34.8348   20.8604   32.0922 H   0  0  0  0  0  0  0  0  0  0  0  0
   37.6827   19.6612   31.5675 H   0  0  0  0  0  0  0  0  0  0  0  0
   33.9061   15.8405   31.3946 H   0  0  0  0  0  0  0  0  0  0  0  0
   34.8659   14.5679   30.6309 H   0  0  0  0  0  0  0  0  0  0  0  0
   32.9523   14.2035   32.6614 H   0  0  0  0  0  0  0  0  0  0  0  0
   34.2546   13.0184   32.2001 H   0  0  0  0  0  0  0  0  0  0  0  0
   36.3498   13.9541   34.8458 H   0  0  0  0  0  0  0  0  0  0  0  0
   36.0251   12.7464   33.5204 H   0  0  0  0  0  0  0  0  0  0  0  0
   37.1957   13.9890   32.0818 H   0  0  0  0  0  0  0  0  0  0  0  0
   37.5704   15.1625   33.3562 H   0  0  0  0  0  0  0  0  0  0  0  0
  1 10  1  0
  2  1  2  0
  3  4  1  0
  3  2  1  0
  4  5  2  0
  5  1  1  0
  6  7  2  0
  8  7  1  0
  9  8  2  0
 10 11  2  0
 10  9  1  0
 11  6  1  0
 12  4  1  0
 13 17  1  0
 13 12  1  0
 14 13  1  0
 15 14  2  0
 15 16  1  0
 16 17  2  0
 18 16  1  0
 18 23  1  0
 19 18  1  0
 19 20  1  0
 20 21  1  0
 22 21  1  0
 23 22  1  0
  2 24  1  0
  6 25  1  0
  7 26  1  0
  8 27  1  0
 12 28  1  0
 12 29  1  0
 14 30  1  0
 19 31  1  0
 19 32  1  0
 20 33  1  0
 20 34  1  0
 22 35  1  0
 22 36  1  0
 23 37  1  0
 23 38  1  0
M  ISO  8  24  14  25  14  26  14  27  14  28   8  29   8  30  14  31  13
M  ISO  7  32  13  33  13  34  13  35  13  36  13  37  13  38  13
M  END
>  <minimizedAffinity>  (1) 
-5.18074322

>  <minimizedRMSD>  (1) 
0.0404667631

$$$$
