
     RDKit          3D

 37 40  0  0  0  0  0  0  0  0999 V2000
   35.2720   20.3540   32.8770 C   0  0  0  0  0  0  0  0  0  0  0  0
   35.7740   19.0560   32.5200 N   0  0  0  0  0  0  0  0  0  0  0  0
   36.9430   18.8160   31.8930 C   0  0  0  0  0  0  0  0  0  0  0  0
   37.0600   17.4890   31.7350 N   0  0  0  0  0  0  0  0  0  0  0  0
   35.9680   16.8930   32.2600 C   0  0  0  0  0  0  0  0  0  0  0  0
   35.2030   17.8810   32.7310 N   0  0  0  0  0  0  0  0  0  0  0  0
   35.7220   15.4910   32.2860 N   0  0  0  0  0  0  0  0  0  0  0  0
   36.6460   14.6130   32.9700 C   0  0  0  0  0  0  0  0  0  0  0  0
   36.4020   13.1980   32.4510 C   0  0  0  0  0  0  0  0  0  0  0  0
   35.0520   12.8680   32.7920 N   0  0  0  0  0  0  0  0  0  0  0  0
   34.1510   13.6070   31.9680 C   0  0  0  0  0  0  0  0  0  0  0  0
   34.5520   14.9940   31.6270 C   0  0  0  0  0  0  0  0  0  0  0  0
   37.8440   22.4780   34.4780 C   0  0  0  0  0  0  0  0  0  0  0  0
   38.2820   23.1950   33.3680 C   0  0  0  0  0  0  0  0  0  0  0  0
   37.1760   22.4360   32.0680 S   0  0  0  0  0  0  0  0  0  0  0  0
   36.3410   21.2920   33.3330 C   0  0  0  0  0  0  0  0  0  0  0  0
   36.9190   21.5970   34.3640 N   0  0  0  0  0  0  0  0  0  0  0  0
   40.0540   22.5940   37.4600 C   0  0  0  0  0  0  0  0  0  0  0  0
   39.1740   23.1550   38.4250 C   0  0  0  0  0  0  0  0  0  0  0  0
   37.8830   23.4660   38.0220 C   0  0  0  0  0  0  0  0  0  0  0  0
   37.5020   23.2250   36.7250 N   0  0  0  0  0  0  0  0  0  0  0  0
   38.4030   22.6810   35.8460 C   0  0  0  0  0  0  0  0  0  0  0  0
   39.6540   22.3660   36.1880 N   0  0  0  0  0  0  0  0  0  0  0  0
   34.5409   20.2348   33.6902 H   0  0  0  0  0  0  0  0  0  0  0  0
   34.8179   20.7890   31.9745 H   0  0  0  0  0  0  0  0  0  0  0  0
   37.6715   19.5737   31.5686 H   0  0  0  0  0  0  0  0  0  0  0  0
   37.6813   14.9179   32.7575 H   0  0  0  0  0  0  0  0  0  0  0  0
   36.4917   14.6591   34.0581 H   0  0  0  0  0  0  0  0  0  0  0  0
   37.0980   12.4927   32.9286 H   0  0  0  0  0  0  0  0  0  0  0  0
   36.5639   13.1390   31.3646 H   0  0  0  0  0  0  0  0  0  0  0  0
   34.7725   12.1978   33.5225 H   0  0  0  0  0  0  0  0  0  0  0  0
   33.2087   13.1710   31.6048 H   0  0  0  0  0  0  0  0  0  0  0  0
   33.9838   15.6048   30.9100 H   0  0  0  0  0  0  0  0  0  0  0  0
   39.0512   23.9766   33.2820 H   0  0  0  0  0  0  0  0  0  0  0  0
   41.0830   22.3396   37.7540 H   0  0  0  0  0  0  0  0  0  0  0  0
   39.5056   23.3368   39.4580 H   0  0  0  0  0  0  0  0  0  0  0  0
   37.1698   23.9026   38.7367 H   0  0  0  0  0  0  0  0  0  0  0  0
  1 16  1  0
  2  6  1  0
  2  1  1  0
  3  2  1  0
  4  3  2  0
  4  5  1  0
  5  7  1  0
  5  6  2  0
  7  8  1  0
  9 10  1  0
  9  8  1  0
 11 10  1  0
 12 11  2  0
 12  7  1  0
 13 22  1  0
 14 13  2  0
 15 16  1  0
 15 14  1  0
 16 17  2  0
 17 13  1  0
 18 19  2  0
 20 19  1  0
 21 20  2  0
 22 23  2  0
 22 21  1  0
 23 18  1  0
  1 24  1  0
  1 25  1  0
  3 26  1  0
  8 27  1  0
  8 28  1  0
  9 29  1  0
  9 30  1  0
 10 31  1  0
 11 32  1  0
 12 33  1  0
 14 34  1  0
 18 35  1  0
 19 36  1  0
 20 37  1  0
M  ISO  8  24   8  25   8  26  14  27  13  28  13  29  13  30  13  32  13
M  ISO  5  33  13  34  14  35  14  36  14  37  14
M  END
>  <minimizedAffinity>  (1) 
-5.01875544

>  <minimizedRMSD>  (1) 
0.119117387

$$$$
