
     RDKit          3D

 31 34  0  0  0  0  0  0  0  0999 V2000
   37.9290   22.5200   34.5670 C   0  0  0  0  0  0  0  0  0  0  0  0
   38.3990   23.2150   33.4720 C   0  0  0  0  0  0  0  0  0  0  0  0
   37.2910   22.4870   32.1600 S   0  0  0  0  0  0  0  0  0  0  0  0
   36.4110   21.3660   33.4240 C   0  0  0  0  0  0  0  0  0  0  0  0
   36.9810   21.6570   34.4650 N   0  0  0  0  0  0  0  0  0  0  0  0
   40.0930   22.5810   37.5920 C   0  0  0  0  0  0  0  0  0  0  0  0
   39.2300   23.1700   38.5350 C   0  0  0  0  0  0  0  0  0  0  0  0
   37.9540   23.5220   38.1080 C   0  0  0  0  0  0  0  0  0  0  0  0
   37.5790   23.2910   36.8090 N   0  0  0  0  0  0  0  0  0  0  0  0
   38.4800   22.7110   35.9510 C   0  0  0  0  0  0  0  0  0  0  0  0
   39.7160   22.3540   36.3070 N   0  0  0  0  0  0  0  0  0  0  0  0
   35.3240   20.4600   32.9530 C   0  0  0  0  0  0  0  0  0  0  0  0
   35.8050   19.1600   32.5590 N   0  0  0  0  0  0  0  0  0  0  0  0
   36.9650   18.9060   31.9250 C   0  0  0  0  0  0  0  0  0  0  0  0
   37.0300   17.5830   31.7460 N   0  0  0  0  0  0  0  0  0  0  0  0
   35.9300   16.9990   32.2550 C   0  0  0  0  0  0  0  0  0  0  0  0
   35.1880   18.0140   32.7550 N   0  0  0  0  0  0  0  0  0  0  0  0
   35.6210   15.6090   32.2630 N   0  0  0  0  0  0  0  0  0  0  0  0
   36.3920   14.6730   32.8440 C   0  0  0  0  0  0  0  0  0  0  0  0
   35.8420   13.4370   32.6880 N   0  0  0  0  0  0  0  0  0  0  0  0
   34.7060   13.6390   31.9920 C   0  0  0  0  0  0  0  0  0  0  0  0
   34.5860   14.9730   31.7400 N   0  0  0  0  0  0  0  0  0  0  0  0
   39.1920   23.9735   33.3953 H   0  0  0  0  0  0  0  0  0  0  0  0
   41.1075   22.2947   37.9064 H   0  0  0  0  0  0  0  0  0  0  0  0
   39.5529   23.3455   39.5718 H   0  0  0  0  0  0  0  0  0  0  0  0
   37.2463   23.9852   38.8113 H   0  0  0  0  0  0  0  0  0  0  0  0
   34.5965   20.3322   33.7681 H   0  0  0  0  0  0  0  0  0  0  0  0
   34.8696   20.9252   32.0658 H   0  0  0  0  0  0  0  0  0  0  0  0
   37.7165   19.6464   31.6135 H   0  0  0  0  0  0  0  0  0  0  0  0
   37.3353   14.8772   33.3717 H   0  0  0  0  0  0  0  0  0  0  0  0
   33.9957   12.8592   31.6800 H   0  0  0  0  0  0  0  0  0  0  0  0
  1 10  1  0
  2  1  2  0
  3  4  1  0
  3  2  1  0
  4  5  2  0
  5  1  1  0
  6  7  2  0
  8  7  1  0
  9  8  2  0
 10 11  2  0
 10  9  1  0
 11  6  1  0
 12  4  1  0
 13 17  1  0
 13 12  1  0
 14 13  1  0
 15 14  2  0
 15 16  1  0
 16 18  1  0
 16 17  2  0
 18 19  1  0
 20 19  2  0
 21 20  1  0
 22 21  2  0
 22 18  1  0
  2 23  1  0
  6 24  1  0
  7 25  1  0
  8 26  1  0
 12 27  1  0
 12 28  1  0
 14 29  1  0
 19 30  1  0
 21 31  1  0
M  ISO  8  23  14  24  14  25  14  26  14  27   8  28   8  29  14  30  14
M  ISO  1  31  14
M  END
>  <minimizedAffinity>  (1) 
-4.96162128

>  <minimizedRMSD>  (1) 
0.0726437271

$$$$
