
     RDKit          3D

 32 35  0  0  0  0  0  0  0  0999 V2000
   38.1890   22.6130   34.4700 C   0  0  0  0  0  0  0  0  0  0  0  0
   38.8740   23.2000   33.4240 C   0  0  0  0  0  0  0  0  0  0  0  0
   37.8370   22.5640   31.9920 S   0  0  0  0  0  0  0  0  0  0  0  0
   36.6790   21.6240   33.1510 C   0  0  0  0  0  0  0  0  0  0  0  0
   37.1530   21.8780   34.2480 N   0  0  0  0  0  0  0  0  0  0  0  0
   40.0260   22.6670   37.6940 C   0  0  0  0  0  0  0  0  0  0  0  0
   39.0570   23.1920   38.5630 C   0  0  0  0  0  0  0  0  0  0  0  0
   37.8220   23.5060   38.0160 C   0  0  0  0  0  0  0  0  0  0  0  0
   37.5830   23.3000   36.6740 N   0  0  0  0  0  0  0  0  0  0  0  0
   38.5860   22.7830   35.8990 C   0  0  0  0  0  0  0  0  0  0  0  0
   39.7900   22.4660   36.3780 N   0  0  0  0  0  0  0  0  0  0  0  0
   35.5410   20.8410   32.5840 C   0  0  0  0  0  0  0  0  0  0  0  0
   35.8520   19.4600   32.3900 N   0  0  0  0  0  0  0  0  0  0  0  0
   37.0100   18.9630   31.8820 C   0  0  0  0  0  0  0  0  0  0  0  0
   36.9120   17.6210   31.8620 N   0  0  0  0  0  0  0  0  0  0  0  0
   35.7080   17.2720   32.3500 C   0  0  0  0  0  0  0  0  0  0  0  0
   35.0950   18.4150   32.6590 N   0  0  0  0  0  0  0  0  0  0  0  0
   35.2550   15.8920   32.4760 C   0  0  0  0  0  0  0  0  0  0  0  0
   35.6730   14.7840   31.7690 C   0  0  0  0  0  0  0  0  0  0  0  0
   34.9770   13.7460   32.2320 N   0  0  0  0  0  0  0  0  0  0  0  0
   34.1320   14.1630   33.2100 C   0  0  0  0  0  0  0  0  0  0  0  0
   34.3200   15.4880   33.3450 N   0  0  0  0  0  0  0  0  0  0  0  0
   39.7630   23.8478   33.4281 H   0  0  0  0  0  0  0  0  0  0  0  0
   41.0156   22.4091   38.0992 H   0  0  0  0  0  0  0  0  0  0  0  0
   39.2680   23.3476   39.6313 H   0  0  0  0  0  0  0  0  0  0  0  0
   37.0295   23.9213   38.6558 H   0  0  0  0  0  0  0  0  0  0  0  0
   34.6876   20.9140   33.2742 H   0  0  0  0  0  0  0  0  0  0  0  0
   35.3098   21.2669   31.5965 H   0  0  0  0  0  0  0  0  0  0  0  0
   37.8752   19.5535   31.5462 H   0  0  0  0  0  0  0  0  0  0  0  0
   36.4345   14.7614   30.9755 H   0  0  0  0  0  0  0  0  0  0  0  0
   33.4297   13.5381   33.7812 H   0  0  0  0  0  0  0  0  0  0  0  0
   33.8231   16.0959   34.0117 H   0  0  0  0  0  0  0  0  0  0  0  0
  1 10  1  0
  2  1  2  0
  3  4  1  0
  3  2  1  0
  4  5  2  0
  5  1  1  0
  6  7  2  0
  8  7  1  0
  9  8  2  0
 10 11  2  0
 10  9  1  0
 11  6  1  0
 12  4  1  0
 13 12  1  0
 13 17  1  0
 14 13  1  0
 15 14  2  0
 15 16  1  0
 16 18  1  0
 16 17  2  0
 18 22  1  0
 19 20  1  0
 19 18  2  0
 20 21  2  0
 21 22  1  0
  2 23  1  0
  6 24  1  0
  7 25  1  0
  8 26  1  0
 12 27  1  0
 12 28  1  0
 14 29  1  0
 19 30  1  0
 21 31  1  0
 22 32  1  0
M  ISO  8  23  14  24  14  25  14  26  14  27   8  28   8  29  14  30  14
M  ISO  2  31  14  32   9
M  END
>  <minimizedAffinity>  (1) 
-4.89650536

>  <minimizedRMSD>  (1) 
0.551729441

$$$$
