
     RDKit          3D

 34 37  0  0  0  0  0  0  0  0999 V2000
   35.3310   20.4840   32.9480 C   0  0  0  0  0  0  0  0  0  0  0  0
   37.9430   22.5260   34.5710 C   0  0  0  0  0  0  0  0  0  0  0  0
   38.4350   23.2210   33.4730 C   0  0  0  0  0  0  0  0  0  0  0  0
   37.3220   22.4890   32.1490 S   0  0  0  0  0  0  0  0  0  0  0  0
   36.4260   21.3900   33.4000 C   0  0  0  0  0  0  0  0  0  0  0  0
   36.9860   21.6710   34.4600 N   0  0  0  0  0  0  0  0  0  0  0  0
   40.1090   22.5860   37.5980 C   0  0  0  0  0  0  0  0  0  0  0  0
   39.2240   23.1740   38.5460 C   0  0  0  0  0  0  0  0  0  0  0  0
   37.9630   23.5130   38.1140 C   0  0  0  0  0  0  0  0  0  0  0  0
   37.5780   23.2900   36.8160 N   0  0  0  0  0  0  0  0  0  0  0  0
   38.4850   22.7180   35.9600 C   0  0  0  0  0  0  0  0  0  0  0  0
   39.7270   22.3620   36.3030 N   0  0  0  0  0  0  0  0  0  0  0  0
   35.8000   19.1810   32.5550 N   0  0  0  0  0  0  0  0  0  0  0  0
   36.9530   18.9130   31.9160 C   0  0  0  0  0  0  0  0  0  0  0  0
   37.0140   17.5890   31.7340 N   0  0  0  0  0  0  0  0  0  0  0  0
   35.9120   17.0190   32.2540 C   0  0  0  0  0  0  0  0  0  0  0  0
   35.1910   18.0280   32.7480 N   0  0  0  0  0  0  0  0  0  0  0  0
   35.6370   15.5870   32.2390 C   0  0  0  0  0  0  0  0  0  0  0  0
   36.6090   14.8280   32.8700 C   0  0  0  0  0  0  0  0  0  0  0  0
   36.4220   13.4430   32.9000 C   0  0  0  0  0  0  0  0  0  0  0  0
   35.2940   12.8570   32.3140 C   0  0  0  0  0  0  0  0  0  0  0  0
   34.3560   13.6910   31.6950 C   0  0  0  0  0  0  0  0  0  0  0  0
   34.5480   15.0420   31.6710 N   0  0  0  0  0  0  0  0  0  0  0  0
   34.6138   20.3633   33.7733 H   0  0  0  0  0  0  0  0  0  0  0  0
   34.8684   20.9458   32.0633 H   0  0  0  0  0  0  0  0  0  0  0  0
   39.2348   23.9728   33.4010 H   0  0  0  0  0  0  0  0  0  0  0  0
   41.1244   22.3050   37.9142 H   0  0  0  0  0  0  0  0  0  0  0  0
   39.5373   23.3506   39.5855 H   0  0  0  0  0  0  0  0  0  0  0  0
   37.2529   23.9695   38.8192 H   0  0  0  0  0  0  0  0  0  0  0  0
   37.7079   19.6483   31.6007 H   0  0  0  0  0  0  0  0  0  0  0  0
   37.4923   15.2962   33.3289 H   0  0  0  0  0  0  0  0  0  0  0  0
   37.1716   12.8049   33.3909 H   0  0  0  0  0  0  0  0  0  0  0  0
   35.1483   11.7670   32.3394 H   0  0  0  0  0  0  0  0  0  0  0  0
   33.4609   13.2562   31.2262 H   0  0  0  0  0  0  0  0  0  0  0  0
  1  5  1  0
  2 11  1  0
  3  2  2  0
  4  5  1  0
  4  3  1  0
  5  6  2  0
  6  2  1  0
  7  8  2  0
  9  8  1  0
 10  9  2  0
 11 12  2  0
 11 10  1  0
 12  7  1  0
 13 17  1  0
 13  1  1  0
 14 13  1  0
 15 14  2  0
 15 16  1  0
 16 17  2  0
 18 16  1  0
 18 19  2  0
 19 20  1  0
 21 20  2  0
 22 21  1  0
 23 22  2  0
 23 18  1  0
  1 24  1  0
  1 25  1  0
  3 26  1  0
  7 27  1  0
  8 28  1  0
  9 29  1  0
 14 30  1  0
 19 31  1  0
 20 32  1  0
 21 33  1  0
 22 34  1  0
M  ISO  8  24   8  25   8  26  14  27  14  28  14  29  14  30  14  31  14
M  ISO  3  32  14  33  14  34  14
M  END
>  <minimizedAffinity>  (1) 
-4.91588879

>  <minimizedRMSD>  (1) 
0.0990573242

$$$$
