
     RDKit          3D

 32 35  0  0  0  0  0  0  0  0999 V2000
   35.3300   20.3620   32.9980 C   0  0  0  0  0  0  0  0  0  0  0  0
   37.8700   22.5140   34.5930 C   0  0  0  0  0  0  0  0  0  0  0  0
   38.2810   23.2530   33.4950 C   0  0  0  0  0  0  0  0  0  0  0  0
   37.1730   22.4870   32.1920 S   0  0  0  0  0  0  0  0  0  0  0  0
   36.3830   21.3110   33.4580 C   0  0  0  0  0  0  0  0  0  0  0  0
   36.9610   21.6110   34.4860 N   0  0  0  0  0  0  0  0  0  0  0  0
   40.0890   22.5660   37.5680 C   0  0  0  0  0  0  0  0  0  0  0  0
   39.2470   23.1710   38.5350 C   0  0  0  0  0  0  0  0  0  0  0  0
   37.9670   23.5330   38.1290 C   0  0  0  0  0  0  0  0  0  0  0  0
   37.5620   23.3010   36.8390 N   0  0  0  0  0  0  0  0  0  0  0  0
   38.4400   22.7080   35.9620 C   0  0  0  0  0  0  0  0  0  0  0  0
   39.6800   22.3400   36.2970 N   0  0  0  0  0  0  0  0  0  0  0  0
   35.8540   19.1040   32.5650 N   0  0  0  0  0  0  0  0  0  0  0  0
   37.0230   18.9120   31.9040 C   0  0  0  0  0  0  0  0  0  0  0  0
   37.1540   17.5960   31.6790 N   0  0  0  0  0  0  0  0  0  0  0  0
   36.0840   16.9580   32.1880 C   0  0  0  0  0  0  0  0  0  0  0  0
   35.3120   17.9070   32.7220 N   0  0  0  0  0  0  0  0  0  0  0  0
   35.6420   15.5760   32.2690 C   0  0  0  0  0  0  0  0  0  0  0  0
   36.2870   14.5700   32.9600 C   0  0  0  0  0  0  0  0  0  0  0  0
   35.4970   13.4600   32.7400 C   0  0  0  0  0  0  0  0  0  0  0  0
   34.4400   13.7750   31.9670 N   0  0  0  0  0  0  0  0  0  0  0  0
   34.5240   15.0630   31.6760 N   0  0  0  0  0  0  0  0  0  0  0  0
   34.6336   20.1825   33.8304 H   0  0  0  0  0  0  0  0  0  0  0  0
   34.8308   20.8228   32.1328 H   0  0  0  0  0  0  0  0  0  0  0  0
   39.0333   24.0513   33.4128 H   0  0  0  0  0  0  0  0  0  0  0  0
   41.1077   22.2706   37.8597 H   0  0  0  0  0  0  0  0  0  0  0  0
   39.5921   23.3469   39.5645 H   0  0  0  0  0  0  0  0  0  0  0  0
   37.2779   24.0064   38.8438 H   0  0  0  0  0  0  0  0  0  0  0  0
   37.7357   19.6951   31.6059 H   0  0  0  0  0  0  0  0  0  0  0  0
   37.2139   14.6373   33.5484 H   0  0  0  0  0  0  0  0  0  0  0  0
   35.7023   12.4564   33.1407 H   0  0  0  0  0  0  0  0  0  0  0  0
   33.6994   13.1293   31.6579 H   0  0  0  0  0  0  0  0  0  0  0  0
  1  5  1  0
  2 11  1  0
  3  2  2  0
  4  5  1  0
  4  3  1  0
  5  6  2  0
  6  2  1  0
  7  8  2  0
  9  8  1  0
 10  9  2  0
 11 12  2  0
 11 10  1  0
 12  7  1  0
 13 17  1  0
 13  1  1  0
 14 13  1  0
 15 14  2  0
 15 16  1  0
 16 18  1  0
 16 17  2  0
 18 19  1  0
 20 19  2  0
 21 20  1  0
 22 21  1  0
 22 18  2  0
  1 23  1  0
  1 24  1  0
  3 25  1  0
  7 26  1  0
  8 27  1  0
  9 28  1  0
 14 29  1  0
 19 30  1  0
 20 31  1  0
 21 32  1  0
M  ISO  8  23   8  24   8  25  14  26  14  27  14  28  14  29  14  30  14
M  ISO  2  31  14  32   9
M  END
>  <minimizedAffinity>  (1) 
-4.8074317

>  <minimizedRMSD>  (1) 
0.27998051

$$$$
