
     RDKit          3D

 31 33  0  0  0  0  0  0  0  0999 V2000
   37.9650   22.5240   34.5510 C   0  0  0  0  0  0  0  0  0  0  0  0
   38.4770   23.1980   33.4450 C   0  0  0  0  0  0  0  0  0  0  0  0
   37.3740   22.4770   32.1190 S   0  0  0  0  0  0  0  0  0  0  0  0
   36.4460   21.4030   33.3690 C   0  0  0  0  0  0  0  0  0  0  0  0
   37.0000   21.6910   34.4150 N   0  0  0  0  0  0  0  0  0  0  0  0
   40.0970   22.5790   37.5850 C   0  0  0  0  0  0  0  0  0  0  0  0
   39.2150   23.1700   38.5190 C   0  0  0  0  0  0  0  0  0  0  0  0
   37.9410   23.5220   38.0830 C   0  0  0  0  0  0  0  0  0  0  0  0
   37.5940   23.2880   36.7860 N   0  0  0  0  0  0  0  0  0  0  0  0
   38.4860   22.7170   35.9320 C   0  0  0  0  0  0  0  0  0  0  0  0
   39.7310   22.3540   36.2980 N   0  0  0  0  0  0  0  0  0  0  0  0
   35.3440   20.5130   32.8940 C   0  0  0  0  0  0  0  0  0  0  0  0
   35.7880   19.1960   32.5500 N   0  0  0  0  0  0  0  0  0  0  0  0
   36.9370   18.8890   31.8940 C   0  0  0  0  0  0  0  0  0  0  0  0
   36.9910   17.5610   31.7650 N   0  0  0  0  0  0  0  0  0  0  0  0
   35.8790   17.0210   32.3390 C   0  0  0  0  0  0  0  0  0  0  0  0
   35.1750   18.0540   32.8040 N   0  0  0  0  0  0  0  0  0  0  0  0
   35.5570   15.5810   32.4110 C   0  0  0  0  0  0  0  0  0  0  0  0
   36.8230   14.8270   32.7560 C   0  0  0  0  0  0  0  0  0  0  0  0
   39.2896   23.9359   33.3730 H   0  0  0  0  0  0  0  0  0  0  0  0
   41.1081   22.2937   37.9110 H   0  0  0  0  0  0  0  0  0  0  0  0
   39.5265   23.3463   39.5591 H   0  0  0  0  0  0  0  0  0  0  0  0
   37.2229   23.9835   38.7768 H   0  0  0  0  0  0  0  0  0  0  0  0
   34.5928   20.4305   33.6933 H   0  0  0  0  0  0  0  0  0  0  0  0
   34.9300   20.9660   31.9811 H   0  0  0  0  0  0  0  0  0  0  0  0
   37.6889   19.6063   31.5333 H   0  0  0  0  0  0  0  0  0  0  0  0
   34.7978   15.4081   33.1880 H   0  0  0  0  0  0  0  0  0  0  0  0
   35.1600   15.2330   31.4460 H   0  0  0  0  0  0  0  0  0  0  0  0
   36.9266   14.7653   33.8494 H   0  0  0  0  0  0  0  0  0  0  0  0
   36.7717   13.8122   32.3347 H   0  0  0  0  0  0  0  0  0  0  0  0
   37.6909   15.3555   32.3347 H   0  0  0  0  0  0  0  0  0  0  0  0
  1 10  1  0
  2  1  2  0
  3  4  1  0
  3  2  1  0
  4  5  2  0
  5  1  1  0
  6  7  2  0
  8  7  1  0
  9  8  2  0
 10 11  2  0
 10  9  1  0
 11  6  1  0
 12  4  1  0
 13 17  1  0
 13 12  1  0
 14 13  1  0
 15 14  2  0
 15 16  1  0
 16 18  1  0
 16 17  2  0
 18 19  1  0
  2 20  1  0
  6 21  1  0
  7 22  1  0
  8 23  1  0
 12 24  1  0
 12 25  1  0
 14 26  1  0
 18 27  1  0
 18 28  1  0
 19 29  1  0
 19 30  1  0
 19 31  1  0
M  ISO  8  20  14  21  14  22  14  23  14  24   8  25   8  26  14  27   8
M  ISO  4  28   8  29   8  30   8  31   8
M  END
>  <minimizedAffinity>  (1) 
-4.49316692

>  <minimizedRMSD>  (1) 
0.115495883

$$$$
