
     RDKit          3D

 38 41  0  0  0  0  0  0  0  0999 V2000
   37.8370   22.4940   34.4400 C   0  0  0  0  0  0  0  0  0  0  0  0
   38.2890   23.2350   33.3490 C   0  0  0  0  0  0  0  0  0  0  0  0
   37.2010   22.4780   32.0110 S   0  0  0  0  0  0  0  0  0  0  0  0
   36.3670   21.3050   33.2640 C   0  0  0  0  0  0  0  0  0  0  0  0
   36.9200   21.5940   34.3160 N   0  0  0  0  0  0  0  0  0  0  0  0
   40.0230   22.5730   37.4390 C   0  0  0  0  0  0  0  0  0  0  0  0
   39.1480   23.1380   38.3990 C   0  0  0  0  0  0  0  0  0  0  0  0
   37.8630   23.4630   37.9850 C   0  0  0  0  0  0  0  0  0  0  0  0
   37.4800   23.2330   36.6770 N   0  0  0  0  0  0  0  0  0  0  0  0
   38.3800   22.6880   35.8190 C   0  0  0  0  0  0  0  0  0  0  0  0
   39.6420   22.3480   36.1510 N   0  0  0  0  0  0  0  0  0  0  0  0
   35.3230   20.3700   32.7800 C   0  0  0  0  0  0  0  0  0  0  0  0
   35.8560   19.2100   32.1180 N   0  0  0  0  0  0  0  0  0  0  0  0
   36.2320   19.1510   30.8230 C   0  0  0  0  0  0  0  0  0  0  0  0
   36.6750   17.9060   30.5790 N   0  0  0  0  0  0  0  0  0  0  0  0
   36.5730   17.1870   31.7210 C   0  0  0  0  0  0  0  0  0  0  0  0
   36.0690   18.0130   32.6400 N   0  0  0  0  0  0  0  0  0  0  0  0
   36.9340   15.7520   31.9740 C   0  0  0  0  0  0  0  0  0  0  0  0
   35.8440   15.0350   32.7440 C   0  0  0  0  0  0  0  0  0  0  0  0
   34.7550   14.9700   31.6910 C   0  0  0  0  0  0  0  0  0  0  0  0
   35.4800   14.8820   30.3560 C   0  0  0  0  0  0  0  0  0  0  0  0
   36.9540   14.9390   30.6950 C   0  0  0  0  0  0  0  0  0  0  0  0
   39.0522   24.0249   33.2880 H   0  0  0  0  0  0  0  0  0  0  0  0
   41.0457   22.3067   37.7444 H   0  0  0  0  0  0  0  0  0  0  0  0
   39.4745   23.3129   39.4347 H   0  0  0  0  0  0  0  0  0  0  0  0
   37.1502   23.9033   38.6977 H   0  0  0  0  0  0  0  0  0  0  0  0
   34.7274   20.0361   33.6424 H   0  0  0  0  0  0  0  0  0  0  0  0
   34.7170   20.9150   32.0413 H   0  0  0  0  0  0  0  0  0  0  0  0
   36.1843   19.9755   30.0965 H   0  0  0  0  0  0  0  0  0  0  0  0
   37.9037   15.8071   32.4903 H   0  0  0  0  0  0  0  0  0  0  0  0
   36.1636   14.0309   33.0595 H   0  0  0  0  0  0  0  0  0  0  0  0
   35.5455   15.5284   33.6807 H   0  0  0  0  0  0  0  0  0  0  0  0
   34.1249   14.0816   31.8448 H   0  0  0  0  0  0  0  0  0  0  0  0
   34.0922   15.8467   31.7368 H   0  0  0  0  0  0  0  0  0  0  0  0
   35.2007   15.7273   29.7098 H   0  0  0  0  0  0  0  0  0  0  0  0
   35.2210   13.9632   29.8095 H   0  0  0  0  0  0  0  0  0  0  0  0
   37.3675   13.9337   30.8634 H   0  0  0  0  0  0  0  0  0  0  0  0
   37.5827   15.3661   29.8998 H   0  0  0  0  0  0  0  0  0  0  0  0
  1 10  1  0
  2  1  2  0
  3  4  1  0
  3  2  1  0
  4  5  2  0
  5  1  1  0
  6  7  2  0
  8  7  1  0
  9  8  2  0
 10 11  2  0
 10  9  1  0
 11  6  1  0
 12  4  1  0
 13 17  1  0
 13 12  1  0
 14 13  1  0
 15 14  2  0
 15 16  1  0
 16 18  1  0
 16 17  2  0
 18 19  1  0
 20 19  1  0
 21 22  1  0
 21 20  1  0
 22 18  1  0
  2 23  1  0
  6 24  1  0
  7 25  1  0
  8 26  1  0
 12 27  1  0
 12 28  1  0
 14 29  1  0
 18 30  1  0
 19 31  1  0
 19 32  1  0
 20 33  1  0
 20 34  1  0
 21 35  1  0
 21 36  1  0
 22 37  1  0
 22 38  1  0
M  ISO  8  23  14  24  14  25  14  26  14  27   8  28   8  29  14  30  13
M  ISO  8  31  13  32  13  33  13  34  13  35  13  36  13  37  13  38  13
M  END
>  <minimizedAffinity>  (1) 
-4.62970924

>  <minimizedRMSD>  (1) 
1.05963564

$$$$
