
     RDKit          3D

 38 41  0  0  0  0  0  0  0  0999 V2000
   36.9770   24.2220   31.5380 C   0  0  0  0  0  0  0  0  0  0  0  0
   36.7270   22.8180   31.5000 N   0  0  0  0  0  0  0  0  0  0  0  0
   37.5440   21.9280   30.9000 C   0  0  0  0  0  0  0  0  0  0  0  0
   37.0360   20.7020   31.0380 N   0  0  0  0  0  0  0  0  0  0  0  0
   35.8660   20.8110   31.7440 C   0  0  0  0  0  0  0  0  0  0  0  0
   35.7350   22.1180   31.9950 N   0  0  0  0  0  0  0  0  0  0  0  0
   38.7610   21.8910   30.1700 N   0  0  0  0  0  0  0  0  0  0  0  0
   39.4620   20.7170   30.1870 C   0  0  0  0  0  0  0  0  0  0  0  0
   40.6560   20.7230   29.4820 C   0  0  0  0  0  0  0  0  0  0  0  0
   41.0750   21.8760   28.8150 C   0  0  0  0  0  0  0  0  0  0  0  0
   42.1500   21.8140   28.2060 O   0  0  0  0  0  0  0  0  0  0  0  0
   40.3080   22.9760   28.8640 N   0  0  0  0  0  0  0  0  0  0  0  0
   39.1410   23.0370   29.5290 C   0  0  0  0  0  0  0  0  0  0  0  0
   38.3940   24.0450   29.5990 O   0  0  0  0  0  0  0  0  0  0  0  0
   34.9430   19.7060   32.1360 C   0  0  0  0  0  0  0  0  0  0  0  0
   35.3210   18.5620   31.4520 F   0  0  0  0  0  0  0  0  0  0  0  0
   35.1080   19.4900   33.4780 F   0  0  0  0  0  0  0  0  0  0  0  0
   33.6170   20.0400   31.8880 F   0  0  0  0  0  0  0  0  0  0  0  0
   38.1590   25.0520   34.9280 C   0  0  0  0  0  0  0  0  0  0  0  0
   38.1600   26.4360   34.8270 C   0  0  0  0  0  0  0  0  0  0  0  0
   37.5560   26.5940   33.0640 S   0  0  0  0  0  0  0  0  0  0  0  0
   37.4340   24.7310   32.8490 C   0  0  0  0  0  0  0  0  0  0  0  0
   37.8030   24.3200   33.9490 N   0  0  0  0  0  0  0  0  0  0  0  0
   39.8280   22.8890   37.4480 C   0  0  0  0  0  0  0  0  0  0  0  0
   39.0690   23.2150   38.6100 C   0  0  0  0  0  0  0  0  0  0  0  0
   38.0430   24.1380   38.4830 C   0  0  0  0  0  0  0  0  0  0  0  0
   37.7920   24.7030   37.2590 N   0  0  0  0  0  0  0  0  0  0  0  0
   38.5660   24.3420   36.1760 C   0  0  0  0  0  0  0  0  0  0  0  0
   39.5660   23.4610   36.2380 N   0  0  0  0  0  0  0  0  0  0  0  0
   36.0454   24.7436   31.2733 H   0  0  0  0  0  0  0  0  0  0  0  0
   37.7950   24.4122   30.8276 H   0  0  0  0  0  0  0  0  0  0  0  0
   39.1026   19.8270   30.7243 H   0  0  0  0  0  0  0  0  0  0  0  0
   41.2761   19.8151   29.4480 H   0  0  0  0  0  0  0  0  0  0  0  0
   40.6303   23.8180   28.3659 H   0  0  0  0  0  0  0  0  0  0  0  0
   38.4335   27.2073   35.5620 H   0  0  0  0  0  0  0  0  0  0  0  0
   40.6456   22.1576   37.5295 H   0  0  0  0  0  0  0  0  0  0  0  0
   39.2915   22.7470   39.5803 H   0  0  0  0  0  0  0  0  0  0  0  0
   37.4350   24.4151   39.3568 H   0  0  0  0  0  0  0  0  0  0  0  0
  1 22  1  0
  2  1  1  0
  2  6  1  0
  3  4  2  0
  3  2  1  0
  4  5  1  0
  5  6  2  0
  5 15  1  0
  7  8  1  0
  7  3  1  0
  9  8  2  0
 10 12  1  0
 10  9  1  0
 11 10  2  0
 12 13  1  0
 13 14  2  0
 13  7  1  0
 15 17  1  0
 16 15  1  0
 18 15  1  0
 19 28  1  0
 20 19  2  0
 21 20  1  0
 22 21  1  0
 22 23  2  0
 23 19  1  0
 24 25  2  0
 26 25  1  0
 27 26  2  0
 28 29  2  0
 28 27  1  0
 29 24  1  0
  1 30  1  0
  1 31  1  0
  8 32  1  0
  9 33  1  0
 12 34  1  0
 20 35  1  0
 24 36  1  0
 25 37  1  0
 26 38  1  0
M  ISO  8  30   8  31   8  32  14  33  14  34   9  35  14  36  14  37  14
M  ISO  1  38  14
M  END
>  <minimizedAffinity>  (1) 
-5.82649994

>  <minimizedRMSD>  (1) 
3.05753016

$$$$
