
     RDKit          3D

 28 30  0  0  0  0  0  0  0  0999 V2000
   38.0360   22.5440   34.4670 C   0  0  0  0  0  0  0  0  0  0  0  0
   38.6220   23.1750   33.3920 C   0  0  0  0  0  0  0  0  0  0  0  0
   37.5450   22.4920   32.0230 S   0  0  0  0  0  0  0  0  0  0  0  0
   36.5080   21.4730   33.2360 C   0  0  0  0  0  0  0  0  0  0  0  0
   37.0400   21.7540   34.3070 N   0  0  0  0  0  0  0  0  0  0  0  0
   40.0660   22.6330   37.5850 C   0  0  0  0  0  0  0  0  0  0  0  0
   39.1200   23.1690   38.4950 C   0  0  0  0  0  0  0  0  0  0  0  0
   37.8630   23.4710   38.0260 C   0  0  0  0  0  0  0  0  0  0  0  0
   37.5560   23.2500   36.7020 N   0  0  0  0  0  0  0  0  0  0  0  0
   38.5100   22.7300   35.8720 C   0  0  0  0  0  0  0  0  0  0  0  0
   39.7500   22.4180   36.2770 N   0  0  0  0  0  0  0  0  0  0  0  0
   35.3930   20.6380   32.7270 C   0  0  0  0  0  0  0  0  0  0  0  0
   35.7840   19.2790   32.4700 N   0  0  0  0  0  0  0  0  0  0  0  0
   36.9370   18.8770   31.8580 C   0  0  0  0  0  0  0  0  0  0  0  0
   36.9390   17.5480   31.8020 N   0  0  0  0  0  0  0  0  0  0  0  0
   35.7940   17.0820   32.3740 C   0  0  0  0  0  0  0  0  0  0  0  0
   35.1260   18.1740   32.7640 N   0  0  0  0  0  0  0  0  0  0  0  0
   35.3870   15.6580   32.5250 C   0  0  0  0  0  0  0  0  0  0  0  0
   36.5170   14.9030   32.8420 F   0  0  0  0  0  0  0  0  0  0  0  0
   34.5380   15.5840   33.6100 F   0  0  0  0  0  0  0  0  0  0  0  0
   34.7460   15.1760   31.4000 F   0  0  0  0  0  0  0  0  0  0  0  0
   39.4710   23.8732   33.3506 H   0  0  0  0  0  0  0  0  0  0  0  0
   41.0764   22.3855   37.9424 H   0  0  0  0  0  0  0  0  0  0  0  0
   39.3847   23.3389   39.5491 H   0  0  0  0  0  0  0  0  0  0  0  0
   37.1055   23.8876   38.7061 H   0  0  0  0  0  0  0  0  0  0  0  0
   34.5864   20.6357   33.4750 H   0  0  0  0  0  0  0  0  0  0  0  0
   35.0642   21.0731   31.7717 H   0  0  0  0  0  0  0  0  0  0  0  0
   37.7285   19.5390   31.4767 H   0  0  0  0  0  0  0  0  0  0  0  0
  1 10  1  0
  2  1  2  0
  3  4  1  0
  3  2  1  0
  4  5  2  0
  5  1  1  0
  6  7  2  0
  8  7  1  0
  9  8  2  0
 10 11  2  0
 10  9  1  0
 11  6  1  0
 12  4  1  0
 13 12  1  0
 13 17  1  0
 14 13  1  0
 15 14  2  0
 15 16  1  0
 16 18  1  0
 16 17  2  0
 18 19  1  0
 18 20  1  0
 21 18  1  0
  2 22  1  0
  6 23  1  0
  7 24  1  0
  8 25  1  0
 12 26  1  0
 12 27  1  0
 14 28  1  0
M  ISO  7  22  14  23  14  24  14  25  14  26   8  27   8  28  14
M  END
>  <minimizedAffinity>  (1) 
-4.79153156

>  <minimizedRMSD>  (1) 
0.415397584

$$$$
