
     RDKit          3D

 42 46  0  0  0  0  0  0  0  0999 V2000
   35.6450   19.1920   32.2500 N   0  0  0  0  0  0  0  0  0  0  0  0
   36.6750   18.8830   31.4650 C   0  0  0  0  0  0  0  0  0  0  0  0
   36.7600   17.5560   31.5150 N   0  0  0  0  0  0  0  0  0  0  0  0
   35.8160   17.0120   32.2980 C   0  0  0  0  0  0  0  0  0  0  0  0
   35.1380   18.0580   32.7440 N   0  0  0  0  0  0  0  0  0  0  0  0
   37.7080   19.4020   30.5960 C   0  0  0  0  0  0  0  0  0  0  0  0
   38.8940   19.8990   30.8260 N   0  0  0  0  0  0  0  0  0  0  0  0
   39.9130   20.2840   30.1430 C   0  0  0  0  0  0  0  0  0  0  0  0
   39.7860   20.1690   28.8400 N   0  0  0  0  0  0  0  0  0  0  0  0
   38.6470   19.6770   28.3440 C   0  0  0  0  0  0  0  0  0  0  0  0
   38.5820   19.5520   26.9860 C   0  0  0  0  0  0  0  0  0  0  0  0
   37.4680   19.0270   26.3790 C   0  0  0  0  0  0  0  0  0  0  0  0
   36.4050   18.6260   27.1910 C   0  0  0  0  0  0  0  0  0  0  0  0
   36.5570   18.7880   28.5420 C   0  0  0  0  0  0  0  0  0  0  0  0
   37.6620   19.3160   29.2180 C   0  0  0  0  0  0  0  0  0  0  0  0
   35.6050   15.5640   32.5560 C   0  0  0  0  0  0  0  0  0  0  0  0
   36.7680   15.0270   33.0790 F   0  0  0  0  0  0  0  0  0  0  0  0
   34.6070   15.4750   33.4990 F   0  0  0  0  0  0  0  0  0  0  0  0
   35.1830   14.8890   31.4100 F   0  0  0  0  0  0  0  0  0  0  0  0
   35.1830   20.5340   32.5040 C   0  0  0  0  0  0  0  0  0  0  0  0
   37.7730   22.5840   34.1280 C   0  0  0  0  0  0  0  0  0  0  0  0
   37.9370   23.5080   33.1340 C   0  0  0  0  0  0  0  0  0  0  0  0
   36.6690   22.8490   31.9180 S   0  0  0  0  0  0  0  0  0  0  0  0
   36.1930   21.4380   33.0400 C   0  0  0  0  0  0  0  0  0  0  0  0
   36.9290   21.6490   33.9890 N   0  0  0  0  0  0  0  0  0  0  0  0
   40.3360   22.2170   36.7950 C   0  0  0  0  0  0  0  0  0  0  0  0
   39.6580   22.8490   37.8810 C   0  0  0  0  0  0  0  0  0  0  0  0
   38.3870   23.3630   37.6790 C   0  0  0  0  0  0  0  0  0  0  0  0
   37.8220   23.2440   36.4340 N   0  0  0  0  0  0  0  0  0  0  0  0
   38.5290   22.6200   35.4200 C   0  0  0  0  0  0  0  0  0  0  0  0
   39.7550   22.1080   35.5600 N   0  0  0  0  0  0  0  0  0  0  0  0
   40.8242   20.6805   30.6146 H   0  0  0  0  0  0  0  0  0  0  0  0
   39.4336   19.8763   26.3699 H   0  0  0  0  0  0  0  0  0  0  0  0
   37.4144   18.9252   25.2850 H   0  0  0  0  0  0  0  0  0  0  0  0
   35.4858   18.1987   26.7639 H   0  0  0  0  0  0  0  0  0  0  0  0
   35.7123   18.4656   29.1685 H   0  0  0  0  0  0  0  0  0  0  0  0
   34.8161   20.9545   31.5561 H   0  0  0  0  0  0  0  0  0  0  0  0
   34.4019   20.4515   33.2741 H   0  0  0  0  0  0  0  0  0  0  0  0
   38.6094   24.3760   33.0672 H   0  0  0  0  0  0  0  0  0  0  0  0
   41.3453   21.8095   36.9537 H   0  0  0  0  0  0  0  0  0  0  0  0
   40.1392   22.9271   38.8671 H   0  0  0  0  0  0  0  0  0  0  0  0
   37.8430   23.8555   38.4985 H   0  0  0  0  0  0  0  0  0  0  0  0
  1 20  1  0
  1  5  1  0
  2  3  2  0
  2  1  1  0
  3  4  1  0
  4 16  1  0
  4  5  2  0
  6  7  2  0
  6  2  1  0
  8  7  1  0
  9  8  2  0
 10  9  1  0
 10 15  2  0
 11 10  1  0
 12 11  2  0
 12 13  1  0
 13 14  2  0
 14 15  1  0
 15  6  1  0
 16 17  1  0
 16 18  1  0
 19 16  1  0
 20 24  1  0
 21 30  1  0
 22 21  2  0
 23 24  1  0
 23 22  1  0
 24 25  2  0
 25 21  1  0
 26 27  2  0
 28 27  1  0
 29 28  2  0
 30 31  2  0
 30 29  1  0
 31 26  1  0
  8 32  1  0
 11 33  1  0
 12 34  1  0
 13 35  1  0
 14 36  1  0
 20 37  1  0
 20 38  1  0
 22 39  1  0
 26 40  1  0
 27 41  1  0
 28 42  1  0
M  ISO  8  32  14  33  14  34  14  35  14  36  14  37   8  38   8  39  14
M  ISO  3  40  14  41  14  42  14
M  END
>  <minimizedAffinity>  (1) 
-5.73151064

>  <minimizedRMSD>  (1) 
0.937544703

$$$$
