
     RDKit          3D

 34 37  0  0  0  0  0  0  0  0999 V2000
   35.2330   20.6260   32.6770 C   0  0  0  0  0  0  0  0  0  0  0  0
   35.6730   19.2940   32.4350 N   0  0  0  0  0  0  0  0  0  0  0  0
   36.7960   18.9920   31.7520 C   0  0  0  0  0  0  0  0  0  0  0  0
   36.9290   17.6570   31.6880 N   0  0  0  0  0  0  0  0  0  0  0  0
   35.8610   17.1050   32.3490 C   0  0  0  0  0  0  0  0  0  0  0  0
   35.1310   18.1530   32.7820 N   0  0  0  0  0  0  0  0  0  0  0  0
   37.8660   19.6430   31.0850 N   0  0  0  0  0  0  0  0  0  0  0  0
   39.0900   19.8550   31.6590 C   0  0  0  0  0  0  0  0  0  0  0  0
   39.9220   20.4840   30.7850 N   0  0  0  0  0  0  0  0  0  0  0  0
   39.1410   20.6350   29.6730 C   0  0  0  0  0  0  0  0  0  0  0  0
   37.8920   20.1330   29.8320 N   0  0  0  0  0  0  0  0  0  0  0  0
   35.5690   15.6580   32.5440 C   0  0  0  0  0  0  0  0  0  0  0  0
   36.7340   15.0500   33.0270 F   0  0  0  0  0  0  0  0  0  0  0  0
   34.6060   15.5490   33.5100 F   0  0  0  0  0  0  0  0  0  0  0  0
   35.1560   15.0550   31.3670 F   0  0  0  0  0  0  0  0  0  0  0  0
   37.8680   22.6410   34.2900 C   0  0  0  0  0  0  0  0  0  0  0  0
   38.0630   23.5730   33.3070 C   0  0  0  0  0  0  0  0  0  0  0  0
   36.8100   22.9590   32.0680 S   0  0  0  0  0  0  0  0  0  0  0  0
   36.2830   21.5370   33.1790 C   0  0  0  0  0  0  0  0  0  0  0  0
   37.0100   21.7120   34.1560 N   0  0  0  0  0  0  0  0  0  0  0  0
   40.4220   22.1830   36.9590 C   0  0  0  0  0  0  0  0  0  0  0  0
   39.7650   22.8310   38.0500 C   0  0  0  0  0  0  0  0  0  0  0  0
   38.5190   23.3800   37.8430 C   0  0  0  0  0  0  0  0  0  0  0  0
   37.9470   23.2900   36.5970 N   0  0  0  0  0  0  0  0  0  0  0  0
   38.6320   22.6520   35.5840 C   0  0  0  0  0  0  0  0  0  0  0  0
   39.8370   22.1050   35.7310 N   0  0  0  0  0  0  0  0  0  0  0  0
   34.4242   20.5906   33.4217 H   0  0  0  0  0  0  0  0  0  0  0  0
   34.9072   21.0289   31.7066 H   0  0  0  0  0  0  0  0  0  0  0  0
   39.3629   19.5587   32.6826 H   0  0  0  0  0  0  0  0  0  0  0  0
   39.4898   21.1138   28.7462 H   0  0  0  0  0  0  0  0  0  0  0  0
   38.7526   24.4288   33.2610 H   0  0  0  0  0  0  0  0  0  0  0  0
   41.4168   21.7397   37.1132 H   0  0  0  0  0  0  0  0  0  0  0  0
   40.2458   22.8903   39.0376 H   0  0  0  0  0  0  0  0  0  0  0  0
   37.9887   23.8840   38.6645 H   0  0  0  0  0  0  0  0  0  0  0  0
  1 19  1  0
  2  1  1  0
  2  6  1  0
  3  2  1  0
  4  3  2  0
  4  5  1  0
  5 12  1  0
  5  6  2  0
  7  8  1  0
  7  3  1  0
  9  8  2  0
 10 11  2  0
 10  9  1  0
 11  7  1  0
 12 13  1  0
 12 14  1  0
 15 12  1  0
 16 25  1  0
 17 16  2  0
 18 19  1  0
 18 17  1  0
 19 20  2  0
 20 16  1  0
 21 22  2  0
 23 22  1  0
 24 23  2  0
 25 26  2  0
 25 24  1  0
 26 21  1  0
  1 27  1  0
  1 28  1  0
  8 29  1  0
 10 30  1  0
 17 31  1  0
 21 32  1  0
 22 33  1  0
 23 34  1  0
M  ISO  8  27   8  28   8  29  14  30  14  31  14  32  14  33  14  34  14
M  END
>  <minimizedAffinity>  (1) 
-5.14550304

>  <minimizedRMSD>  (1) 
0.466138572

$$$$
