
     RDKit          3D

 41 44  0  0  0  0  0  0  0  0999 V2000
   35.7150   19.3030   32.3350 N   0  0  0  0  0  0  0  0  0  0  0  0
   36.8740   18.9530   31.7400 C   0  0  0  0  0  0  0  0  0  0  0  0
   36.9890   17.6180   31.7370 N   0  0  0  0  0  0  0  0  0  0  0  0
   35.8710   17.1060   32.3480 C   0  0  0  0  0  0  0  0  0  0  0  0
   35.1330   18.1790   32.6900 N   0  0  0  0  0  0  0  0  0  0  0  0
   40.1580   20.7530   29.9370 C   0  0  0  0  0  0  0  0  0  0  0  0
   38.9890   20.5980   29.2200 C   0  0  0  0  0  0  0  0  0  0  0  0
   37.8760   19.9990   29.7760 C   0  0  0  0  0  0  0  0  0  0  0  0
   38.0240   19.5700   31.1030 C   0  0  0  0  0  0  0  0  0  0  0  0
   39.1920   19.7080   31.8680 C   0  0  0  0  0  0  0  0  0  0  0  0
   40.2590   20.3170   31.2410 C   0  0  0  0  0  0  0  0  0  0  0  0
   41.5600   21.5140   29.2190 S   0  0  0  0  0  0  0  0  0  0  0  0
   41.1400   22.6000   28.2670 O   0  0  0  0  0  0  0  0  0  0  0  0
   42.3940   20.5320   28.4490 O   0  0  0  0  0  0  0  0  0  0  0  0
   35.5500   15.6670   32.5730 C   0  0  0  0  0  0  0  0  0  0  0  0
   36.6900   15.0290   33.0300 F   0  0  0  0  0  0  0  0  0  0  0  0
   34.5920   15.6120   33.5490 F   0  0  0  0  0  0  0  0  0  0  0  0
   35.0650   15.0710   31.4140 F   0  0  0  0  0  0  0  0  0  0  0  0
   35.2920   20.6540   32.4940 C   0  0  0  0  0  0  0  0  0  0  0  0
   37.8710   22.6590   34.2050 C   0  0  0  0  0  0  0  0  0  0  0  0
   38.0900   23.6110   33.2230 C   0  0  0  0  0  0  0  0  0  0  0  0
   36.8680   22.9940   31.9460 S   0  0  0  0  0  0  0  0  0  0  0  0
   36.3240   21.5640   33.0350 C   0  0  0  0  0  0  0  0  0  0  0  0
   37.0210   21.7300   34.0320 N   0  0  0  0  0  0  0  0  0  0  0  0
   40.3630   22.1980   36.9210 C   0  0  0  0  0  0  0  0  0  0  0  0
   39.6800   22.8390   38.0000 C   0  0  0  0  0  0  0  0  0  0  0  0
   38.4290   23.3880   37.7650 C   0  0  0  0  0  0  0  0  0  0  0  0
   37.8890   23.2980   36.5030 N   0  0  0  0  0  0  0  0  0  0  0  0
   38.6010   22.6650   35.5080 C   0  0  0  0  0  0  0  0  0  0  0  0
   39.8050   22.1230   35.6840 N   0  0  0  0  0  0  0  0  0  0  0  0
   38.9429   20.9598   28.1822 H   0  0  0  0  0  0  0  0  0  0  0  0
   36.9380   19.8674   29.2167 H   0  0  0  0  0  0  0  0  0  0  0  0
   39.2532   19.3515   32.9068 H   0  0  0  0  0  0  0  0  0  0  0  0
   41.2028   20.4566   31.7885 H   0  0  0  0  0  0  0  0  0  0  0  0
   42.2974   22.0297   30.2520 H   0  0  0  0  0  0  0  0  0  0  0  0
   34.9817   21.0342   31.5095 H   0  0  0  0  0  0  0  0  0  0  0  0
   34.4739   20.6393   33.2292 H   0  0  0  0  0  0  0  0  0  0  0  0
   38.7757   24.4709   33.2003 H   0  0  0  0  0  0  0  0  0  0  0  0
   41.3563   21.7582   37.0943 H   0  0  0  0  0  0  0  0  0  0  0  0
   40.1383   22.8958   38.9984 H   0  0  0  0  0  0  0  0  0  0  0  0
   37.8769   23.8876   38.5747 H   0  0  0  0  0  0  0  0  0  0  0  0
  1 19  1  0
  1  5  1  0
  2  1  1  0
  3  2  2  0
  3  4  1  0
  4 15  1  0
  4  5  2  0
  6 11  2  0
  7  8  2  0
  7  6  1  0
  8  9  1  0
  9  2  1  0
  9 10  2  0
 11 10  1  0
 12  6  1  0
 13 12  2  0
 14 12  2  0
 15 16  1  0
 15 17  1  0
 18 15  1  0
 19 23  1  0
 20 29  1  0
 21 20  2  0
 22 23  1  0
 22 21  1  0
 23 24  2  0
 24 20  1  0
 25 26  2  0
 27 26  1  0
 28 27  2  0
 29 30  2  0
 29 28  1  0
 30 25  1  0
  7 31  1  0
  8 32  1  0
 10 33  1  0
 11 34  1  0
 12 35  1  0
 19 36  1  0
 19 37  1  0
 21 38  1  0
 25 39  1  0
 26 40  1  0
 27 41  1  0
M  ISO  8  31  14  32  14  33  14  34  14  35  11  36   8  37   8  38  14
M  ISO  3  39  14  40  14  41  14
M  END
>  <minimizedAffinity>  (1) 
-4.89635038

>  <minimizedRMSD>  (1) 
0.537499845

$$$$
