
     RDKit          3D

 34 36  0  0  0  0  0  0  0  0999 V2000
   37.7630   22.5070   34.0240 C   0  0  0  0  0  0  0  0  0  0  0  0
   38.0600   23.3480   32.9830 C   0  0  0  0  0  0  0  0  0  0  0  0
   36.8120   22.7450   31.7500 S   0  0  0  0  0  0  0  0  0  0  0  0
   36.1330   21.4410   32.9360 C   0  0  0  0  0  0  0  0  0  0  0  0
   36.8420   21.6320   33.9300 N   0  0  0  0  0  0  0  0  0  0  0  0
   40.2330   22.2280   36.7960 C   0  0  0  0  0  0  0  0  0  0  0  0
   39.4950   22.8410   37.8550 C   0  0  0  0  0  0  0  0  0  0  0  0
   38.2190   23.3130   37.5900 C   0  0  0  0  0  0  0  0  0  0  0  0
   37.7130   23.1740   36.3250 N   0  0  0  0  0  0  0  0  0  0  0  0
   38.4760   22.5730   35.3440 C   0  0  0  0  0  0  0  0  0  0  0  0
   39.7050   22.1030   35.5440 N   0  0  0  0  0  0  0  0  0  0  0  0
   35.0460   20.5950   32.4350 C   0  0  0  0  0  0  0  0  0  0  0  0
   35.4520   19.2580   32.0990 N   0  0  0  0  0  0  0  0  0  0  0  0
   36.1930   18.9190   31.0170 C   0  0  0  0  0  0  0  0  0  0  0  0
   36.3640   17.6150   31.0610 N   0  0  0  0  0  0  0  0  0  0  0  0
   35.7520   17.0940   32.1440 C   0  0  0  0  0  0  0  0  0  0  0  0
   35.1990   18.1410   32.7620 N   0  0  0  0  0  0  0  0  0  0  0  0
   35.7020   15.6510   32.5360 C   0  0  0  0  0  0  0  0  0  0  0  0
   36.9210   15.2930   33.0850 F   0  0  0  0  0  0  0  0  0  0  0  0
   34.7340   15.5380   33.5070 F   0  0  0  0  0  0  0  0  0  0  0  0
   35.3450   14.8430   31.4590 F   0  0  0  0  0  0  0  0  0  0  0  0
   36.8070   19.6460   29.8880 C   0  0  0  0  0  0  0  0  0  0  0  0
   36.7580   18.8580   28.5560 C   0  0  0  0  0  0  0  0  0  0  0  0
   38.8146   24.1443   32.9026 H   0  0  0  0  0  0  0  0  0  0  0  0
   41.2467   21.8494   36.9940 H   0  0  0  0  0  0  0  0  0  0  0  0
   39.9308   22.9364   38.8605 H   0  0  0  0  0  0  0  0  0  0  0  0
   37.6233   23.7908   38.3817 H   0  0  0  0  0  0  0  0  0  0  0  0
   34.2685   20.5355   33.2109 H   0  0  0  0  0  0  0  0  0  0  0  0
   34.6836   21.0600   31.5063 H   0  0  0  0  0  0  0  0  0  0  0  0
   36.2710   20.5968   29.7516 H   0  0  0  0  0  0  0  0  0  0  0  0
   37.8671   19.8012   30.1371 H   0  0  0  0  0  0  0  0  0  0  0  0
   36.6910   17.7810   28.7694 H   0  0  0  0  0  0  0  0  0  0  0  0
   35.8777   19.1724   27.9762 H   0  0  0  0  0  0  0  0  0  0  0  0
   37.6705   19.0609   27.9762 H   0  0  0  0  0  0  0  0  0  0  0  0
  1 10  1  0
  2  1  2  0
  3  4  1  0
  3  2  1  0
  4  5  2  0
  5  1  1  0
  6  7  2  0
  8  7  1  0
  9  8  2  0
 10 11  2  0
 10  9  1  0
 11  6  1  0
 12  4  1  0
 13 12  1  0
 13 17  1  0
 14 15  2  0
 14 13  1  0
 15 16  1  0
 16 18  1  0
 16 17  2  0
 18 19  1  0
 18 20  1  0
 21 18  1  0
 22 14  1  0
 23 22  1  0
  2 24  1  0
  6 25  1  0
  7 26  1  0
  8 27  1  0
 12 28  1  0
 12 29  1  0
 22 30  1  0
 22 31  1  0
 23 32  1  0
 23 33  1  0
 23 34  1  0
M  ISO  8  24  14  25  14  26  14  27  14  28   8  29   8  30   8  31   8
M  ISO  3  32   8  33   8  34   8
M  END
>  <minimizedAffinity>  (1) 
-4.92495871

>  <minimizedRMSD>  (1) 
0.864055336

$$$$
