
     RDKit          3D

 35 38  0  0  0  0  0  0  0  0999 V2000
   35.2180   20.6420   32.6580 C   0  0  0  0  0  0  0  0  0  0  0  0
   35.6650   19.3060   32.4300 N   0  0  0  0  0  0  0  0  0  0  0  0
   36.8040   18.9960   31.7770 C   0  0  0  0  0  0  0  0  0  0  0  0
   36.9290   17.6740   31.7340 N   0  0  0  0  0  0  0  0  0  0  0  0
   35.8490   17.1180   32.3710 C   0  0  0  0  0  0  0  0  0  0  0  0
   35.1180   18.1650   32.7710 N   0  0  0  0  0  0  0  0  0  0  0  0
   37.8890   19.6450   31.1290 N   0  0  0  0  0  0  0  0  0  0  0  0
   38.9960   20.1390   31.7160 N   0  0  0  0  0  0  0  0  0  0  0  0
   39.7740   20.6930   30.7580 C   0  0  0  0  0  0  0  0  0  0  0  0
   39.1600   20.5580   29.5120 C   0  0  0  0  0  0  0  0  0  0  0  0
   37.9600   19.8860   29.7830 C   0  0  0  0  0  0  0  0  0  0  0  0
   35.5630   15.6630   32.5530 C   0  0  0  0  0  0  0  0  0  0  0  0
   36.7190   15.0450   33.0020 F   0  0  0  0  0  0  0  0  0  0  0  0
   34.5980   15.5570   33.5150 F   0  0  0  0  0  0  0  0  0  0  0  0
   35.1060   15.0900   31.3720 F   0  0  0  0  0  0  0  0  0  0  0  0
   37.8510   22.6510   34.2770 C   0  0  0  0  0  0  0  0  0  0  0  0
   38.0420   23.6010   33.2970 C   0  0  0  0  0  0  0  0  0  0  0  0
   36.7900   22.9960   32.0640 S   0  0  0  0  0  0  0  0  0  0  0  0
   36.2660   21.5590   33.1540 C   0  0  0  0  0  0  0  0  0  0  0  0
   36.9960   21.7140   34.1420 N   0  0  0  0  0  0  0  0  0  0  0  0
   40.4240   22.1740   36.9220 C   0  0  0  0  0  0  0  0  0  0  0  0
   39.7790   22.8160   38.0230 C   0  0  0  0  0  0  0  0  0  0  0  0
   38.5260   23.3720   37.8260 C   0  0  0  0  0  0  0  0  0  0  0  0
   37.9490   23.2860   36.5830 N   0  0  0  0  0  0  0  0  0  0  0  0
   38.6240   22.6520   35.5630 C   0  0  0  0  0  0  0  0  0  0  0  0
   39.8290   22.1030   35.7010 N   0  0  0  0  0  0  0  0  0  0  0  0
   34.4073   20.6117   33.4009 H   0  0  0  0  0  0  0  0  0  0  0  0
   34.8916   21.0350   31.6838 H   0  0  0  0  0  0  0  0  0  0  0  0
   40.7456   21.1776   30.9347 H   0  0  0  0  0  0  0  0  0  0  0  0
   39.5338   20.9018   28.5363 H   0  0  0  0  0  0  0  0  0  0  0  0
   37.2021   19.6001   29.0388 H   0  0  0  0  0  0  0  0  0  0  0  0
   38.7289   24.4592   33.2567 H   0  0  0  0  0  0  0  0  0  0  0  0
   41.4199   21.7290   37.0642 H   0  0  0  0  0  0  0  0  0  0  0  0
   40.2675   22.8677   39.0072 H   0  0  0  0  0  0  0  0  0  0  0  0
   38.0014   23.8745   38.6521 H   0  0  0  0  0  0  0  0  0  0  0  0
  1 19  1  0
  2  1  1  0
  2  6  1  0
  3  2  1  0
  4  3  2  0
  4  5  1  0
  5 12  1  0
  5  6  2  0
  7  8  1  0
  7  3  1  0
  9  8  2  0
 10 11  2  0
 10  9  1  0
 11  7  1  0
 12 13  1  0
 12 14  1  0
 15 12  1  0
 16 25  1  0
 17 16  2  0
 18 19  1  0
 18 17  1  0
 19 20  2  0
 20 16  1  0
 21 22  2  0
 23 22  1  0
 24 23  2  0
 25 26  2  0
 25 24  1  0
 26 21  1  0
  1 27  1  0
  1 28  1  0
  9 29  1  0
 10 30  1  0
 11 31  1  0
 17 32  1  0
 21 33  1  0
 22 34  1  0
 23 35  1  0
M  ISO  8  27   8  28   8  29  14  30  14  31  14  32  14  33  14  34  14
M  ISO  1  35  14
M  END
>  <minimizedAffinity>  (1) 
-5.15465117

>  <minimizedRMSD>  (1) 
0.455373615

$$$$
