
     RDKit          3D

 42 46  0  0  0  0  0  0  0  0999 V2000
   34.8230   19.7370   32.0170 C   0  0  0  0  0  0  0  0  0  0  0  0
   35.3550   18.4030   31.9480 N   0  0  0  0  0  0  0  0  0  0  0  0
   36.2880   18.0310   31.0680 C   0  0  0  0  0  0  0  0  0  0  0  0
   36.5620   16.7450   31.2620 N   0  0  0  0  0  0  0  0  0  0  0  0
   35.7820   16.2870   32.2910 C   0  0  0  0  0  0  0  0  0  0  0  0
   35.0690   17.3440   32.6660 N   0  0  0  0  0  0  0  0  0  0  0  0
   37.0540   18.5780   30.0220 N   0  0  0  0  0  0  0  0  0  0  0  0
   38.2170   19.2630   30.1210 N   0  0  0  0  0  0  0  0  0  0  0  0
   38.6330   19.6170   28.8940 C   0  0  0  0  0  0  0  0  0  0  0  0
   37.7220   19.1590   27.9390 C   0  0  0  0  0  0  0  0  0  0  0  0
   36.7290   18.5020   28.6850 C   0  0  0  0  0  0  0  0  0  0  0  0
   35.7550   14.8940   32.8520 C   0  0  0  0  0  0  0  0  0  0  0  0
   36.9680   14.6420   33.4590 F   0  0  0  0  0  0  0  0  0  0  0  0
   34.7530   14.8570   33.7750 F   0  0  0  0  0  0  0  0  0  0  0  0
   35.4820   13.9710   31.8370 F   0  0  0  0  0  0  0  0  0  0  0  0
   37.5320   22.0710   32.8760 C   0  0  0  0  0  0  0  0  0  0  0  0
   37.2500   23.0850   31.9730 C   0  0  0  0  0  0  0  0  0  0  0  0
   35.7640   22.3380   31.1590 S   0  0  0  0  0  0  0  0  0  0  0  0
   35.8420   20.7910   32.2260 C   0  0  0  0  0  0  0  0  0  0  0  0
   36.8230   21.0200   32.9360 N   0  0  0  0  0  0  0  0  0  0  0  0
   40.8720   21.8840   34.4900 C   0  0  0  0  0  0  0  0  0  0  0  0
   40.5610   22.4290   35.7800 C   0  0  0  0  0  0  0  0  0  0  0  0
   39.2660   22.8220   36.0270 C   0  0  0  0  0  0  0  0  0  0  0  0
   38.3280   22.6810   35.0480 N   0  0  0  0  0  0  0  0  0  0  0  0
   38.6830   22.1520   33.8300 C   0  0  0  0  0  0  0  0  0  0  0  0
   39.9160   21.7540   33.5240 N   0  0  0  0  0  0  0  0  0  0  0  0
   38.8850   23.3830   37.3200 C   0  0  0  0  0  0  0  0  0  0  0  0
   38.0320   24.4520   37.5110 C   0  0  0  0  0  0  0  0  0  0  0  0
   37.9500   24.6450   38.8420 N   0  0  0  0  0  0  0  0  0  0  0  0
   38.7270   23.7240   39.4420 C   0  0  0  0  0  0  0  0  0  0  0  0
   39.3160   22.9310   38.5110 N   0  0  0  0  0  0  0  0  0  0  0  0
   34.1076   19.7795   32.8515 H   0  0  0  0  0  0  0  0  0  0  0  0
   34.3562   19.9401   31.0419 H   0  0  0  0  0  0  0  0  0  0  0  0
   39.5512   20.1816   28.6745 H   0  0  0  0  0  0  0  0  0  0  0  0
   37.7711   19.2846   26.8473 H   0  0  0  0  0  0  0  0  0  0  0  0
   35.8382   18.0080   28.2698 H   0  0  0  0  0  0  0  0  0  0  0  0
   37.7568   24.0447   31.7940 H   0  0  0  0  0  0  0  0  0  0  0  0
   41.9022   21.5642   34.2746 H   0  0  0  0  0  0  0  0  0  0  0  0
   41.3381   22.5301   36.5519 H   0  0  0  0  0  0  0  0  0  0  0  0
   37.5197   25.0324   36.7295 H   0  0  0  0  0  0  0  0  0  0  0  0
   38.8647   23.6279   40.5291 H   0  0  0  0  0  0  0  0  0  0  0  0
   39.9600   22.1454   38.6815 H   0  0  0  0  0  0  0  0  0  0  0  0
  1 19  1  0
  2  1  1  0
  2  6  1  0
  3  4  2  0
  3  2  1  0
  4  5  1  0
  5  6  2  0
  5 12  1  0
  7  8  1  0
  7  3  1  0
  9  8  2  0
 10 11  2  0
 10  9  1  0
 11  7  1  0
 12 13  1  0
 12 14  1  0
 15 12  1  0
 16 20  1  0
 16 25  1  0
 17 16  2  0
 18 17  1  0
 18 19  1  0
 19 20  2  0
 21 22  2  0
 22 23  1  0
 23 27  1  0
 24 23  2  0
 25 24  1  0
 26 25  2  0
 26 21  1  0
 27 28  2  0
 27 31  1  0
 28 29  1  0
 29 30  2  0
 31 30  1  0
  1 32  1  0
  1 33  1  0
  9 34  1  0
 10 35  1  0
 11 36  1  0
 17 37  1  0
 21 38  1  0
 22 39  1  0
 28 40  1  0
 30 41  1  0
 31 42  1  0
M  ISO  8  32   8  33   8  34  14  35  14  36  14  37  14  38  14  39  14
M  ISO  3  40  14  41  14  42   9
M  END
>  <minimizedAffinity>  (1) 
-5.62650824

>  <minimizedRMSD>  (1) 
1.76304662

$$$$
