
     RDKit          3D

 42 46  0  0  0  0  0  0  0  0999 V2000
   34.7940   20.1850   32.0650 C   0  0  0  0  0  0  0  0  0  0  0  0
   35.2670   18.8290   31.9950 N   0  0  0  0  0  0  0  0  0  0  0  0
   36.2610   18.4260   31.1980 C   0  0  0  0  0  0  0  0  0  0  0  0
   36.4580   17.1270   31.3620 N   0  0  0  0  0  0  0  0  0  0  0  0
   35.5540   16.6760   32.3020 C   0  0  0  0  0  0  0  0  0  0  0  0
   34.8560   17.7630   32.6490 N   0  0  0  0  0  0  0  0  0  0  0  0
   37.1460   18.9720   30.2510 N   0  0  0  0  0  0  0  0  0  0  0  0
   38.3250   19.5900   30.4720 N   0  0  0  0  0  0  0  0  0  0  0  0
   38.8620   19.9670   29.2970 C   0  0  0  0  0  0  0  0  0  0  0  0
   38.0240   19.5920   28.2560 C   0  0  0  0  0  0  0  0  0  0  0  0
   36.9450   18.9660   28.8850 C   0  0  0  0  0  0  0  0  0  0  0  0
   35.4060   15.2770   32.8060 C   0  0  0  0  0  0  0  0  0  0  0  0
   36.6200   14.8490   33.2990 F   0  0  0  0  0  0  0  0  0  0  0  0
   34.4800   15.3050   33.8140 F   0  0  0  0  0  0  0  0  0  0  0  0
   34.9440   14.4400   31.7820 F   0  0  0  0  0  0  0  0  0  0  0  0
   37.4800   22.3510   33.3680 C   0  0  0  0  0  0  0  0  0  0  0  0
   37.4370   23.3520   32.4090 C   0  0  0  0  0  0  0  0  0  0  0  0
   36.0690   22.6760   31.3580 S   0  0  0  0  0  0  0  0  0  0  0  0
   35.8440   21.1690   32.4500 C   0  0  0  0  0  0  0  0  0  0  0  0
   36.6960   21.3470   33.3260 N   0  0  0  0  0  0  0  0  0  0  0  0
   40.4970   22.1330   35.5380 C   0  0  0  0  0  0  0  0  0  0  0  0
   39.9350   22.5390   36.7820 C   0  0  0  0  0  0  0  0  0  0  0  0
   38.5860   22.8620   36.8350 C   0  0  0  0  0  0  0  0  0  0  0  0
   37.8470   22.7810   35.6930 N   0  0  0  0  0  0  0  0  0  0  0  0
   38.4480   22.3820   34.5190 C   0  0  0  0  0  0  0  0  0  0  0  0
   39.7270   22.0610   34.4060 N   0  0  0  0  0  0  0  0  0  0  0  0
   37.9430   23.2930   38.1050 C   0  0  0  0  0  0  0  0  0  0  0  0
   38.7850   23.8140   39.2200 C   0  0  0  0  0  0  0  0  0  0  0  0
   37.8850   24.7440   38.4810 C   0  0  0  0  0  0  0  0  0  0  0  0
   33.9851   20.2321   32.8089 H   0  0  0  0  0  0  0  0  0  0  0  0
   34.4539   20.4581   31.0552 H   0  0  0  0  0  0  0  0  0  0  0  0
   39.8208   20.4932   29.1793 H   0  0  0  0  0  0  0  0  0  0  0  0
   38.1754   19.7518   27.1782 H   0  0  0  0  0  0  0  0  0  0  0  0
   36.0721   18.5357   28.3723 H   0  0  0  0  0  0  0  0  0  0  0  0
   38.0344   24.2697   32.3041 H   0  0  0  0  0  0  0  0  0  0  0  0
   41.5646   21.8734   35.4846 H   0  0  0  0  0  0  0  0  0  0  0  0
   40.5595   22.5957   37.6858 H   0  0  0  0  0  0  0  0  0  0  0  0
   37.1964   22.4930   37.9924 H   0  0  0  0  0  0  0  0  0  0  0  0
   38.5535   23.5359   40.2588 H   0  0  0  0  0  0  0  0  0  0  0  0
   39.8599   23.7970   39.4532 H   0  0  0  0  0  0  0  0  0  0  0  0
   38.3105   25.5042   37.8093 H   0  0  0  0  0  0  0  0  0  0  0  0
   37.0851   25.4436   38.7650 H   0  0  0  0  0  0  0  0  0  0  0  0
  1 19  1  0
  2  1  1  0
  2  6  1  0
  3  4  2  0
  3  2  1  0
  4  5  1  0
  5  6  2  0
  5 12  1  0
  7  8  1  0
  7  3  1  0
  9  8  2  0
 10 11  2  0
 10  9  1  0
 11  7  1  0
 12 13  1  0
 12 14  1  0
 15 12  1  0
 16 25  1  0
 17 16  2  0
 18 17  1  0
 18 19  1  0
 19 20  2  0
 20 16  1  0
 21 22  2  0
 22 23  1  0
 23 27  1  0
 24 23  2  0
 25 24  1  0
 26 25  2  0
 26 21  1  0
 27 29  1  0
 27 28  1  0
 29 28  1  0
  1 30  1  0
  1 31  1  0
  9 32  1  0
 10 33  1  0
 11 34  1  0
 17 35  1  0
 21 36  1  0
 22 37  1  0
 27 38  1  0
 28 39  1  0
 28 40  1  0
 29 41  1  0
 29 42  1  0
M  ISO  8  30   8  31   8  32  14  33  14  34  14  35  14  36  14  37  14
M  ISO  5  38  13  39  13  40  13  41  13  42  13
M  END
>  <minimizedAffinity>  (1) 
-5.60828495

>  <minimizedRMSD>  (1) 
1.1267662

$$$$
