
     RDKit          3D

 42 46  0  0  0  0  0  0  0  0999 V2000
   34.8320   19.7600   32.0420 C   0  0  0  0  0  0  0  0  0  0  0  0
   35.3750   18.4310   31.9680 N   0  0  0  0  0  0  0  0  0  0  0  0
   36.3160   18.0650   31.0940 C   0  0  0  0  0  0  0  0  0  0  0  0
   36.5970   16.7870   31.2800 N   0  0  0  0  0  0  0  0  0  0  0  0
   35.8150   16.3140   32.3040 C   0  0  0  0  0  0  0  0  0  0  0  0
   35.0900   17.3660   32.6840 N   0  0  0  0  0  0  0  0  0  0  0  0
   37.0780   18.6320   30.0550 N   0  0  0  0  0  0  0  0  0  0  0  0
   38.2350   19.3270   30.1580 N   0  0  0  0  0  0  0  0  0  0  0  0
   38.6390   19.6960   28.9270 C   0  0  0  0  0  0  0  0  0  0  0  0
   37.7360   19.2410   27.9730 C   0  0  0  0  0  0  0  0  0  0  0  0
   36.7590   18.5720   28.7140 C   0  0  0  0  0  0  0  0  0  0  0  0
   35.8030   14.9210   32.8510 C   0  0  0  0  0  0  0  0  0  0  0  0
   37.0080   14.6660   33.4580 F   0  0  0  0  0  0  0  0  0  0  0  0
   34.7930   14.8620   33.7720 F   0  0  0  0  0  0  0  0  0  0  0  0
   35.5310   14.0020   31.8310 F   0  0  0  0  0  0  0  0  0  0  0  0
   37.5260   22.1310   32.8800 C   0  0  0  0  0  0  0  0  0  0  0  0
   37.2140   23.1360   31.9850 C   0  0  0  0  0  0  0  0  0  0  0  0
   35.7270   22.3610   31.1900 S   0  0  0  0  0  0  0  0  0  0  0  0
   35.8490   20.8200   32.2550 C   0  0  0  0  0  0  0  0  0  0  0  0
   36.8350   21.0650   32.9500 N   0  0  0  0  0  0  0  0  0  0  0  0
   40.8940   21.9750   34.4630 C   0  0  0  0  0  0  0  0  0  0  0  0
   40.5830   22.5100   35.7570 C   0  0  0  0  0  0  0  0  0  0  0  0
   39.2820   22.8860   36.0180 C   0  0  0  0  0  0  0  0  0  0  0  0
   38.3290   22.7410   35.0470 N   0  0  0  0  0  0  0  0  0  0  0  0
   38.6900   22.2200   33.8230 C   0  0  0  0  0  0  0  0  0  0  0  0
   39.9290   21.8390   33.5090 N   0  0  0  0  0  0  0  0  0  0  0  0
   38.9080   23.4230   37.2820 N   0  0  0  0  0  0  0  0  0  0  0  0
   38.1230   24.5260   37.2350 C   0  0  0  0  0  0  0  0  0  0  0  0
   37.8570   24.9100   38.5530 C   0  0  0  0  0  0  0  0  0  0  0  0
   38.4960   24.0200   39.3580 N   0  0  0  0  0  0  0  0  0  0  0  0
   39.1390   23.1080   38.5860 C   0  0  0  0  0  0  0  0  0  0  0  0
   34.1169   19.7948   32.8771 H   0  0  0  0  0  0  0  0  0  0  0  0
   34.3604   19.9642   31.0694 H   0  0  0  0  0  0  0  0  0  0  0  0
   39.5499   20.2728   28.7087 H   0  0  0  0  0  0  0  0  0  0  0  0
   37.7807   19.3769   26.8823 H   0  0  0  0  0  0  0  0  0  0  0  0
   35.8726   18.0744   28.2936 H   0  0  0  0  0  0  0  0  0  0  0  0
   37.7008   24.1048   31.7993 H   0  0  0  0  0  0  0  0  0  0  0  0
   41.9263   21.6698   34.2367 H   0  0  0  0  0  0  0  0  0  0  0  0
   41.3643   22.6179   36.5237 H   0  0  0  0  0  0  0  0  0  0  0  0
   37.7608   25.0281   36.3257 H   0  0  0  0  0  0  0  0  0  0  0  0
   37.2480   25.7671   38.8763 H   0  0  0  0  0  0  0  0  0  0  0  0
   39.7412   22.2625   38.9500 H   0  0  0  0  0  0  0  0  0  0  0  0
  1 19  1  0
  2  1  1  0
  2  6  1  0
  3  4  2  0
  3  2  1  0
  4  5  1  0
  5  6  2  0
  5 12  1  0
  7  8  1  0
  7  3  1  0
  9  8  2  0
 10 11  2  0
 10  9  1  0
 11  7  1  0
 12 13  1  0
 12 14  1  0
 15 12  1  0
 16 20  1  0
 16 25  1  0
 17 16  2  0
 18 17  1  0
 18 19  1  0
 19 20  2  0
 21 22  2  0
 22 23  1  0
 23 27  1  0
 24 23  2  0
 25 24  1  0
 26 25  2  0
 26 21  1  0
 27 31  1  0
 28 27  1  0
 28 29  2  0
 29 30  1  0
 31 30  2  0
  1 32  1  0
  1 33  1  0
  9 34  1  0
 10 35  1  0
 11 36  1  0
 17 37  1  0
 21 38  1  0
 22 39  1  0
 28 40  1  0
 29 41  1  0
 31 42  1  0
M  ISO  8  32   8  33   8  34  14  35  14  36  14  37  14  38  14  39  14
M  ISO  3  40  14  41  14  42  14
M  END
>  <minimizedAffinity>  (1) 
-5.42883062

>  <minimizedRMSD>  (1) 
1.71407628

$$$$
