
     RDKit          3D

 36 39  0  0  0  0  0  0  0  0999 V2000
   35.1320   20.5620   32.4700 C   0  0  0  0  0  0  0  0  0  0  0  0
   35.5670   19.2040   32.2810 N   0  0  0  0  0  0  0  0  0  0  0  0
   36.6500   18.8660   31.5740 C   0  0  0  0  0  0  0  0  0  0  0  0
   36.7830   17.5500   31.5860 N   0  0  0  0  0  0  0  0  0  0  0  0
   35.7500   17.0170   32.3280 C   0  0  0  0  0  0  0  0  0  0  0  0
   35.0430   18.0810   32.7230 N   0  0  0  0  0  0  0  0  0  0  0  0
   37.6710   19.4890   30.8360 N   0  0  0  0  0  0  0  0  0  0  0  0
   38.8250   20.0150   31.2890 N   0  0  0  0  0  0  0  0  0  0  0  0
   39.5300   20.5160   30.2600 C   0  0  0  0  0  0  0  0  0  0  0  0
   38.8320   20.3220   29.0800 C   0  0  0  0  0  0  0  0  0  0  0  0
   37.6600   19.6700   29.4670 C   0  0  0  0  0  0  0  0  0  0  0  0
   35.4970   15.5740   32.6110 C   0  0  0  0  0  0  0  0  0  0  0  0
   36.6680   14.9900   33.0340 F   0  0  0  0  0  0  0  0  0  0  0  0
   34.5610   15.5160   33.6050 F   0  0  0  0  0  0  0  0  0  0  0  0
   34.9960   14.9330   31.4770 F   0  0  0  0  0  0  0  0  0  0  0  0
   37.8170   22.5780   33.9970 C   0  0  0  0  0  0  0  0  0  0  0  0
   37.9310   23.5540   33.0330 C   0  0  0  0  0  0  0  0  0  0  0  0
   36.6310   22.9540   31.8560 S   0  0  0  0  0  0  0  0  0  0  0  0
   36.2010   21.4790   32.9460 C   0  0  0  0  0  0  0  0  0  0  0  0
   36.9760   21.6270   33.8890 N   0  0  0  0  0  0  0  0  0  0  0  0
   40.5140   22.0020   36.5000 C   0  0  0  0  0  0  0  0  0  0  0  0
   39.9800   22.7180   37.6120 C   0  0  0  0  0  0  0  0  0  0  0  0
   38.7570   23.3510   37.4690 C   0  0  0  0  0  0  0  0  0  0  0  0
   38.0960   23.2730   36.2680 N   0  0  0  0  0  0  0  0  0  0  0  0
   38.6660   22.5650   35.2350 C   0  0  0  0  0  0  0  0  0  0  0  0
   39.8410   21.9360   35.3200 N   0  0  0  0  0  0  0  0  0  0  0  0
   37.9750   24.2790   38.7680 S   0  0  0  0  0  0  0  0  0  0  0  0
   34.3188   20.5647   33.2108 H   0  0  0  0  0  0  0  0  0  0  0  0
   34.8098   20.9327   31.4857 H   0  0  0  0  0  0  0  0  0  0  0  0
   40.5116   21.0054   30.3427 H   0  0  0  0  0  0  0  0  0  0  0  0
   39.1338   20.6162   28.0639 H   0  0  0  0  0  0  0  0  0  0  0  0
   36.8550   19.3508   28.7887 H   0  0  0  0  0  0  0  0  0  0  0  0
   38.5954   24.4289   32.9777 H   0  0  0  0  0  0  0  0  0  0  0  0
   41.4854   21.4953   36.5983 H   0  0  0  0  0  0  0  0  0  0  0  0
   40.5288   22.7663   38.5641 H   0  0  0  0  0  0  0  0  0  0  0  0
   38.3823   23.7956   39.9835 H   0  0  0  0  0  0  0  0  0  0  0  0
  1 19  1  0
  2  1  1  0
  2  6  1  0
  3  4  2  0
  3  2  1  0
  4  5  1  0
  5 12  1  0
  5  6  2  0
  7  8  1  0
  7  3  1  0
  9  8  2  0
 10 11  2  0
 10  9  1  0
 11  7  1  0
 12 13  1  0
 12 14  1  0
 15 12  1  0
 16 25  1  0
 17 16  2  0
 18 19  1  0
 18 17  1  0
 19 20  2  0
 20 16  1  0
 21 22  2  0
 23 22  1  0
 23 27  1  0
 24 23  2  0
 25 26  2  0
 25 24  1  0
 26 21  1  0
  1 28  1  0
  1 29  1  0
  9 30  1  0
 10 31  1  0
 11 32  1  0
 17 33  1  0
 21 34  1  0
 22 35  1  0
 27 36  1  0
M  ISO  8  28   8  29   8  30  14  31  14  32  14  33  14  34  14  35  14
M  ISO  1  36  11
M  END
>  <minimizedAffinity>  (1) 
-5.29507637

>  <minimizedRMSD>  (1) 
0.349206805

$$$$
