
     RDKit          3D

 42 45  0  0  1  0  0  0  0  0999 V2000
   38.1630   25.2880   34.0630 N   0  0  0  0  0  0  0  0  0  0  0  0
   39.5280   25.7980   33.8710 C   0  0  0  0  0  0  0  0  0  0  0  0
   39.8600   26.4610   35.2120 C   0  0  0  0  0  0  0  0  0  0  0  0
   38.5090   26.8900   35.7820 C   0  0  0  0  0  0  0  0  0  0  0  0
   37.5330   26.4000   34.7220 C   0  0  1  0  0  0  0  0  0  0  0  0
   37.7420   22.9050   34.5310 C   0  0  0  0  0  0  0  0  0  0  0  0
   37.3240   21.6490   34.1560 C   0  0  0  0  0  0  0  0  0  0  0  0
   36.8660   21.4350   32.8720 C   0  0  0  0  0  0  0  0  0  0  0  0
   36.8340   22.4920   31.9700 C   0  0  0  0  0  0  0  0  0  0  0  0
   37.2590   23.7240   32.3850 C   0  0  0  0  0  0  0  0  0  0  0  0
   37.7230   23.9910   33.6470 C   0  0  0  0  0  0  0  0  0  0  0  0
   40.0150   22.8580   37.4100 C   0  0  0  0  0  0  0  0  0  0  0  0
   39.2260   23.3520   38.4570 C   0  0  0  0  0  0  0  0  0  0  0  0
   37.9090   23.7030   38.1670 C   0  0  0  0  0  0  0  0  0  0  0  0
   37.4350   23.5570   36.9030 N   0  0  0  0  0  0  0  0  0  0  0  0
   38.2230   23.0770   35.9180 C   0  0  0  0  0  0  0  0  0  0  0  0
   39.4990   22.7340   36.1840 N   0  0  0  0  0  0  0  0  0  0  0  0
   37.0640   27.4340   33.8600 N   0  0  0  0  0  0  0  0  0  0  0  0
   36.1530   28.3680   34.1790 C   0  0  0  0  0  0  0  0  0  0  0  0
   35.7160   29.3630   33.3180 C   0  0  0  0  0  0  0  0  0  0  0  0
   36.2840   29.3420   32.0730 C   0  0  0  0  0  0  0  0  0  0  0  0
   35.9160   30.2330   31.2490 O   0  0  0  0  0  0  0  0  0  0  0  0
   37.2020   28.4360   31.6860 N   0  0  0  0  0  0  0  0  0  0  0  0
   37.5560   27.5140   32.6030 C   0  0  0  0  0  0  0  0  0  0  0  0
   38.4240   26.6510   32.2450 O   0  0  0  0  0  0  0  0  0  0  0  0
   40.2271   24.9764   33.6559 H   0  0  0  0  0  0  0  0  0  0  0  0
   39.6083   26.4917   33.0211 H   0  0  0  0  0  0  0  0  0  0  0  0
   40.3550   25.7459   35.8855 H   0  0  0  0  0  0  0  0  0  0  0  0
   40.5493   27.3102   35.0953 H   0  0  0  0  0  0  0  0  0  0  0  0
   38.3163   26.4091   36.7524 H   0  0  0  0  0  0  0  0  0  0  0  0
   38.4386   27.9703   35.9767 H   0  0  0  0  0  0  0  0  0  0  0  0
   36.5938   26.0571   35.1807 H   0  0  0  0  0  0  0  0  0  0  0  0
   37.3548   20.8187   34.8768 H   0  0  0  0  0  0  0  0  0  0  0  0
   36.5284   20.4343   32.5643 H   0  0  0  0  0  0  0  0  0  0  0  0
   36.4737   22.3405   30.9418 H   0  0  0  0  0  0  0  0  0  0  0  0
   37.2265   24.5518   31.6613 H   0  0  0  0  0  0  0  0  0  0  0  0
   41.0605   22.5719   37.5976 H   0  0  0  0  0  0  0  0  0  0  0  0
   39.6324   23.4592   39.4736 H   0  0  0  0  0  0  0  0  0  0  0  0
   37.2556   24.0970   38.9594 H   0  0  0  0  0  0  0  0  0  0  0  0
   35.7247   28.3417   35.1918 H   0  0  0  0  0  0  0  0  0  0  0  0
   34.9682   30.1136   33.6136 H   0  0  0  0  0  0  0  0  0  0  0  0
   37.6112   28.4471   30.7409 H   0  0  0  0  0  0  0  0  0  0  0  0
  1  5  1  0
  2  1  1  0
  2  3  1  0
  3  4  1  0
  5  4  1  0
  6 16  1  0
  7  6  2  0
  8  7  1  0
  9 10  1  0
  9  8  2  0
 10 11  2  0
 11  1  1  0
 11  6  1  0
 12 13  2  0
 14 13  1  0
 15 14  2  0
 16 17  2  0
 16 15  1  0
 17 12  1  0
 18 19  1  0
 18  5  1  0
 20 19  2  0
 21 20  1  0
 22 21  2  0
 23 21  1  0
 23 24  1  0
 24 18  1  0
 25 24  2  0
  2 26  1  0
  2 27  1  0
  3 28  1  0
  3 29  1  0
  4 30  1  0
  4 31  1  0
  5 32  1  1
  7 33  1  0
  8 34  1  0
  9 35  1  0
 10 36  1  0
 12 37  1  0
 13 38  1  0
 14 39  1  0
 19 40  1  0
 20 41  1  0
 23 42  1  0
M  ISO  8  26  13  27  13  28  13  29  13  30  13  31  13  32  13  33  14
M  ISO  8  34  14  35  14  36  14  37  14  38  14  39  14  40  14  41  14
M  ISO  1  42   9
M  END
>  <minimizedAffinity>  (1) 
-6.1022954

>  <minimizedRMSD>  (1) 
0.532043695

$$$$
