
     RDKit          3D

 48 51  0  0  1  0  0  0  0  0999 V2000
   37.7420   22.9190   34.5580 C   0  0  0  0  0  0  0  0  0  0  0  0
   37.3280   21.6650   34.1760 C   0  0  0  0  0  0  0  0  0  0  0  0
   36.8850   21.4580   32.8740 C   0  0  0  0  0  0  0  0  0  0  0  0
   36.8710   22.5140   31.9880 C   0  0  0  0  0  0  0  0  0  0  0  0
   37.2900   23.7390   32.4070 C   0  0  0  0  0  0  0  0  0  0  0  0
   37.7390   24.0110   33.6820 C   0  0  0  0  0  0  0  0  0  0  0  0
   38.1780   25.3000   34.1160 N   0  0  0  0  0  0  0  0  0  0  0  0
   39.5610   25.7740   34.0310 C   0  0  0  0  0  0  0  0  0  0  0  0
   39.8140   26.4410   35.3760 C   0  0  0  0  0  0  0  0  0  0  0  0
   38.4300   26.9090   35.8440 C   0  0  0  0  0  0  0  0  0  0  0  0
   37.5300   26.4300   34.7020 C   0  0  1  0  0  0  0  0  0  0  0  0
   37.3010   27.6040   33.8320 C   0  0  0  0  0  0  0  0  0  0  0  0
   36.4910   27.4290   32.6090 C   0  0  0  0  0  0  0  0  0  0  0  0
   36.3410   28.8230   31.9850 C   0  0  0  0  0  0  0  0  0  0  0  0
   35.3050   29.6240   32.7550 C   0  0  0  0  0  0  0  0  0  0  0  0
   35.2440   29.0200   34.1400 C   0  0  0  0  0  0  0  0  0  0  0  0
   36.6120   28.6620   34.6840 C   0  0  0  0  0  0  0  0  0  0  0  0
   39.9590   22.8110   37.4740 C   0  0  0  0  0  0  0  0  0  0  0  0
   39.1540   23.3210   38.5140 C   0  0  0  0  0  0  0  0  0  0  0  0
   37.8480   23.7000   38.1930 C   0  0  0  0  0  0  0  0  0  0  0  0
   37.4010   23.5680   36.9190 N   0  0  0  0  0  0  0  0  0  0  0  0
   38.1990   23.0750   35.9510 C   0  0  0  0  0  0  0  0  0  0  0  0
   39.4790   22.6960   36.2300 N   0  0  0  0  0  0  0  0  0  0  0  0
   37.3470   20.8321   34.8943 H   0  0  0  0  0  0  0  0  0  0  0  0
   36.5488   20.4607   32.5541 H   0  0  0  0  0  0  0  0  0  0  0  0
   36.5251   22.3681   30.9541 H   0  0  0  0  0  0  0  0  0  0  0  0
   37.2692   24.5657   31.6816 H   0  0  0  0  0  0  0  0  0  0  0  0
   40.2525   24.9324   33.8773 H   0  0  0  0  0  0  0  0  0  0  0  0
   39.7187   26.4600   33.1857 H   0  0  0  0  0  0  0  0  0  0  0  0
   40.2430   25.7231   36.0906 H   0  0  0  0  0  0  0  0  0  0  0  0
   40.5312   27.2717   35.3007 H   0  0  0  0  0  0  0  0  0  0  0  0
   38.1502   26.4382   36.7980 H   0  0  0  0  0  0  0  0  0  0  0  0
   38.3681   27.9907   36.0341 H   0  0  0  0  0  0  0  0  0  0  0  0
   36.5290   26.0738   34.9870 H   0  0  0  0  0  0  0  0  0  0  0  0
   38.3014   27.8614   33.4538 H   0  0  0  0  0  0  0  0  0  0  0  0
   37.0013   26.7516   31.9085 H   0  0  0  0  0  0  0  0  0  0  0  0
   35.5101   26.9881   32.8402 H   0  0  0  0  0  0  0  0  0  0  0  0
   37.3082   29.3457   32.0225 H   0  0  0  0  0  0  0  0  0  0  0  0
   36.0155   28.7192   30.9394 H   0  0  0  0  0  0  0  0  0  0  0  0
   35.6066   30.6802   32.8132 H   0  0  0  0  0  0  0  0  0  0  0  0
   34.3234   29.5881   32.2599 H   0  0  0  0  0  0  0  0  0  0  0  0
   34.7742   29.7460   34.8199 H   0  0  0  0  0  0  0  0  0  0  0  0
   34.6608   28.0899   34.0708 H   0  0  0  0  0  0  0  0  0  0  0  0
   36.4981   28.2759   35.7077 H   0  0  0  0  0  0  0  0  0  0  0  0
   37.2334   29.5696   34.6703 H   0  0  0  0  0  0  0  0  0  0  0  0
   40.9935   22.5042   37.6880 H   0  0  0  0  0  0  0  0  0  0  0  0
   39.5400   23.4168   39.5396 H   0  0  0  0  0  0  0  0  0  0  0  0
   37.1841   24.1043   38.9713 H   0  0  0  0  0  0  0  0  0  0  0  0
  1 22  1  0
  2  1  2  0
  3  2  1  0
  4  5  1  0
  4  3  2  0
  5  6  2  0
  6  7  1  0
  6  1  1  0
  7 11  1  0
  8  7  1  0
  8  9  1  0
  9 10  1  0
 11 10  1  0
 12 17  1  0
 12 11  1  0
 13 12  1  0
 14 13  1  0
 14 15  1  0
 15 16  1  0
 16 17  1  0
 18 19  2  0
 20 19  1  0
 21 20  2  0
 22 23  2  0
 22 21  1  0
 23 18  1  0
  2 24  1  0
  3 25  1  0
  4 26  1  0
  5 27  1  0
  8 28  1  0
  8 29  1  0
  9 30  1  0
  9 31  1  0
 10 32  1  0
 10 33  1  0
 11 34  1  1
 12 35  1  0
 13 36  1  0
 13 37  1  0
 14 38  1  0
 14 39  1  0
 15 40  1  0
 15 41  1  0
 16 42  1  0
 16 43  1  0
 17 44  1  0
 17 45  1  0
 18 46  1  0
 19 47  1  0
 20 48  1  0
M  ISO  8  24  14  25  14  26  14  27  14  28  13  29  13  30  13  31  13
M  ISO  8  32  13  33  13  34  13  35  13  36  13  37  13  38  13  39  13
M  ISO  8  40  13  41  13  42  13  43  13  44  13  45  13  46  14  47  14
M  ISO  1  48  14
M  END
>  <minimizedAffinity>  (1) 
-5.90454626

>  <minimizedRMSD>  (1) 
0.856472969

$$$$
