
     RDKit          3D

 47 50  0  0  1  0  0  0  0  0999 V2000
   37.8630   23.0270   34.3620 C   0  0  0  0  0  0  0  0  0  0  0  0
   37.5150   21.7830   33.8830 C   0  0  0  0  0  0  0  0  0  0  0  0
   37.1020   21.6450   32.5690 C   0  0  0  0  0  0  0  0  0  0  0  0
   37.0480   22.7670   31.7560 C   0  0  0  0  0  0  0  0  0  0  0  0
   37.4010   23.9830   32.2690 C   0  0  0  0  0  0  0  0  0  0  0  0
   37.8160   24.1750   33.5620 C   0  0  0  0  0  0  0  0  0  0  0  0
   38.1770   25.4450   34.0800 N   0  0  0  0  0  0  0  0  0  0  0  0
   39.5500   25.9950   34.0580 C   0  0  0  0  0  0  0  0  0  0  0  0
   39.7300   26.5880   35.4520 C   0  0  0  0  0  0  0  0  0  0  0  0
   38.3220   26.9530   35.9050 C   0  0  0  0  0  0  0  0  0  0  0  0
   37.4540   26.5310   34.7350 C   0  0  1  0  0  0  0  0  0  0  0  0
   37.0120   27.5330   33.8810 N   0  0  0  0  0  0  0  0  0  0  0  0
   37.5590   27.6510   32.5730 C   0  0  0  0  0  0  0  0  0  0  0  0
   36.5440   28.3240   31.6760 C   0  0  0  0  0  0  0  0  0  0  0  0
   35.1650   28.3450   32.2660 C   0  0  0  0  0  0  0  0  0  0  0  0
   35.1290   29.0660   33.6030 C   0  0  0  0  0  0  0  0  0  0  0  0
   36.3990   28.7070   34.3850 C   0  0  0  0  0  0  0  0  0  0  0  0
   40.0420   22.8400   37.3010 C   0  0  0  0  0  0  0  0  0  0  0  0
   39.2120   23.2330   38.3580 C   0  0  0  0  0  0  0  0  0  0  0  0
   37.8850   23.5660   38.0480 C   0  0  0  0  0  0  0  0  0  0  0  0
   37.4510   23.4970   36.7560 N   0  0  0  0  0  0  0  0  0  0  0  0
   38.2950   23.1100   35.7670 C   0  0  0  0  0  0  0  0  0  0  0  0
   39.5780   22.7860   36.0500 N   0  0  0  0  0  0  0  0  0  0  0  0
   37.5651   20.9034   34.5417 H   0  0  0  0  0  0  0  0  0  0  0  0
   36.8202   20.6575   32.1747 H   0  0  0  0  0  0  0  0  0  0  0  0
   36.7242   22.6789   30.7084 H   0  0  0  0  0  0  0  0  0  0  0  0
   37.3493   24.8594   31.6062 H   0  0  0  0  0  0  0  0  0  0  0  0
   40.2872   25.1999   33.8727 H   0  0  0  0  0  0  0  0  0  0  0  0
   39.6971   26.7368   33.2592 H   0  0  0  0  0  0  0  0  0  0  0  0
   40.1765   25.8484   36.1329 H   0  0  0  0  0  0  0  0  0  0  0  0
   40.4036   27.4576   35.4493 H   0  0  0  0  0  0  0  0  0  0  0  0
   38.0473   26.4029   36.8171 H   0  0  0  0  0  0  0  0  0  0  0  0
   38.2150   28.0187   36.1558 H   0  0  0  0  0  0  0  0  0  0  0  0
   36.4774   26.1976   35.1159 H   0  0  0  0  0  0  0  0  0  0  0  0
   38.4773   28.2555   32.6100 H   0  0  0  0  0  0  0  0  0  0  0  0
   37.8007   26.6529   32.1788 H   0  0  0  0  0  0  0  0  0  0  0  0
   36.5079   27.7826   30.7191 H   0  0  0  0  0  0  0  0  0  0  0  0
   36.8620   29.3687   31.5442 H   0  0  0  0  0  0  0  0  0  0  0  0
   34.4876   28.8580   31.5675 H   0  0  0  0  0  0  0  0  0  0  0  0
   34.8508   27.3041   32.4327 H   0  0  0  0  0  0  0  0  0  0  0  0
   35.0902   30.1528   33.4374 H   0  0  0  0  0  0  0  0  0  0  0  0
   34.2380   28.7610   34.1714 H   0  0  0  0  0  0  0  0  0  0  0  0
   36.1339   28.5455   35.4403 H   0  0  0  0  0  0  0  0  0  0  0  0
   37.1122   29.5378   34.2797 H   0  0  0  0  0  0  0  0  0  0  0  0
   41.0895   22.5724   37.5037 H   0  0  0  0  0  0  0  0  0  0  0  0
   39.5860   23.2788   39.3914 H   0  0  0  0  0  0  0  0  0  0  0  0
   37.1956   23.8821   38.8448 H   0  0  0  0  0  0  0  0  0  0  0  0
  1 22  1  0
  2  1  2  0
  3  2  1  0
  4  5  1  0
  4  3  2  0
  5  6  2  0
  6  7  1  0
  6  1  1  0
  7 11  1  0
  8  7  1  0
  8  9  1  0
  9 10  1  0
 11 10  1  0
 12 17  1  0
 12 11  1  0
 13 12  1  0
 14 15  1  0
 14 13  1  0
 15 16  1  0
 16 17  1  0
 18 19  2  0
 20 19  1  0
 21 20  2  0
 22 23  2  0
 22 21  1  0
 23 18  1  0
  2 24  1  0
  3 25  1  0
  4 26  1  0
  5 27  1  0
  8 28  1  0
  8 29  1  0
  9 30  1  0
  9 31  1  0
 10 32  1  0
 10 33  1  0
 11 34  1  1
 13 35  1  0
 13 36  1  0
 14 37  1  0
 14 38  1  0
 15 39  1  0
 15 40  1  0
 16 41  1  0
 16 42  1  0
 17 43  1  0
 17 44  1  0
 18 45  1  0
 19 46  1  0
 20 47  1  0
M  ISO  8  24  14  25  14  26  14  27  14  28  13  29  13  30  13  31  13
M  ISO  8  32  13  33  13  34  13  35  13  36  13  37  13  38  13  39  13
M  ISO  8  40  13  41  13  42  13  43  13  44  13  45  14  46  14  47  14
M  END
>  <minimizedAffinity>  (1) 
-5.67933273

>  <minimizedRMSD>  (1) 
0.953110039

$$$$
