
     RDKit          3D

 38 41  0  0  1  0  0  0  0  0999 V2000
   37.8950   22.9500   34.3160 C   0  0  0  0  0  0  0  0  0  0  0  0
   37.5980   21.6890   33.8500 C   0  0  0  0  0  0  0  0  0  0  0  0
   37.2030   21.5320   32.5390 C   0  0  0  0  0  0  0  0  0  0  0  0
   37.1100   22.6390   31.7120 C   0  0  0  0  0  0  0  0  0  0  0  0
   37.4140   23.8700   32.2130 C   0  0  0  0  0  0  0  0  0  0  0  0
   37.8120   24.0900   33.5080 C   0  0  0  0  0  0  0  0  0  0  0  0
   38.1300   25.3880   34.0300 N   0  0  0  0  0  0  0  0  0  0  0  0
   39.4270   26.0440   33.9070 C   0  0  0  0  0  0  0  0  0  0  0  0
   39.6840   26.6090   35.3120 C   0  0  0  0  0  0  0  0  0  0  0  0
   38.2730   26.8870   35.8590 C   0  0  0  0  0  0  0  0  0  0  0  0
   37.3750   26.3630   34.7620 C   0  0  1  0  0  0  0  0  0  0  0  0
   36.7680   27.3690   33.9570 N   0  0  0  0  0  0  0  0  0  0  0  0
   36.5210   27.4380   32.6510 C   0  0  0  0  0  0  0  0  0  0  0  0
   35.9210   28.6090   32.3640 N   0  0  0  0  0  0  0  0  0  0  0  0
   35.7940   29.2820   33.5330 C   0  0  0  0  0  0  0  0  0  0  0  0
   36.3210   28.4980   34.4860 N   0  0  0  0  0  0  0  0  0  0  0  0
   40.0610   22.8980   37.2760 C   0  0  0  0  0  0  0  0  0  0  0  0
   39.1970   23.2410   38.3250 C   0  0  0  0  0  0  0  0  0  0  0  0
   37.8550   23.4920   38.0060 C   0  0  0  0  0  0  0  0  0  0  0  0
   37.4590   23.3930   36.7180 N   0  0  0  0  0  0  0  0  0  0  0  0
   38.3140   23.0610   35.7320 C   0  0  0  0  0  0  0  0  0  0  0  0
   39.6130   22.8160   36.0210 N   0  0  0  0  0  0  0  0  0  0  0  0
   37.6751   20.8171   34.5162 H   0  0  0  0  0  0  0  0  0  0  0  0
   36.9625   20.5312   32.1509 H   0  0  0  0  0  0  0  0  0  0  0  0
   36.7948   22.5265   30.6641 H   0  0  0  0  0  0  0  0  0  0  0  0
   37.3358   24.7370   31.5405 H   0  0  0  0  0  0  0  0  0  0  0  0
   40.2071   25.3211   33.6262 H   0  0  0  0  0  0  0  0  0  0  0  0
   39.4403   26.8193   33.1268 H   0  0  0  0  0  0  0  0  0  0  0  0
   40.2100   25.8746   35.9396 H   0  0  0  0  0  0  0  0  0  0  0  0
   40.3202   27.5062   35.3001 H   0  0  0  0  0  0  0  0  0  0  0  0
   38.1011   26.3478   36.8022 H   0  0  0  0  0  0  0  0  0  0  0  0
   38.0993   27.9478   36.0923 H   0  0  0  0  0  0  0  0  0  0  0  0
   36.4893   25.8871   35.2082 H   0  0  0  0  0  0  0  0  0  0  0  0
   36.7693   26.6570   31.9173 H   0  0  0  0  0  0  0  0  0  0  0  0
   35.3463   30.2769   33.6735 H   0  0  0  0  0  0  0  0  0  0  0  0
   41.1207   22.6940   37.4893 H   0  0  0  0  0  0  0  0  0  0  0  0
   39.5589   23.3108   39.3614 H   0  0  0  0  0  0  0  0  0  0  0  0
   37.1357   23.7653   38.7921 H   0  0  0  0  0  0  0  0  0  0  0  0
  1 21  1  0
  2  1  2  0
  3  2  1  0
  4  5  1  0
  4  3  2  0
  5  6  2  0
  6  7  1  0
  6  1  1  0
  7 11  1  0
  8  7  1  0
  8  9  1  0
  9 10  1  0
 11 10  1  0
 12 16  1  0
 12 11  1  0
 13 12  1  0
 14 13  2  0
 14 15  1  0
 15 16  2  0
 17 18  2  0
 19 18  1  0
 20 19  2  0
 21 22  2  0
 21 20  1  0
 22 17  1  0
  2 23  1  0
  3 24  1  0
  4 25  1  0
  5 26  1  0
  8 27  1  0
  8 28  1  0
  9 29  1  0
  9 30  1  0
 10 31  1  0
 10 32  1  0
 11 33  1  1
 13 34  1  0
 15 35  1  0
 17 36  1  0
 18 37  1  0
 19 38  1  0
M  ISO  8  23  14  24  14  25  14  26  14  27  13  28  13  29  13  30  13
M  ISO  8  31  13  32  13  33  13  34  14  35  14  36  14  37  14  38  14
M  END
>  <minimizedAffinity>  (1) 
-5.52342796

>  <minimizedRMSD>  (1) 
0.256179839

$$$$
