
     RDKit          3D

 26 27  0  0  0  0  0  0  0  0999 V2000
   38.3980   23.8470   37.0690 C   0  0  0  0  0  0  0  0  0  0  0  0
   39.0670   22.8070   36.4120 C   0  0  0  0  0  0  0  0  0  0  0  0
   39.1780   22.9050   35.0120 C   0  0  0  0  0  0  0  0  0  0  0  0
   38.6380   23.9840   34.3960 N   0  0  0  0  0  0  0  0  0  0  0  0
   38.0000   24.9630   35.0700 C   0  0  0  0  0  0  0  0  0  0  0  0
   37.8710   24.9100   36.4120 N   0  0  0  0  0  0  0  0  0  0  0  0
   36.3970   28.2770   32.9680 C   0  0  0  0  0  0  0  0  0  0  0  0
   36.8290   27.1480   32.3050 C   0  0  0  0  0  0  0  0  0  0  0  0
   37.3630   26.0300   32.9320 C   0  0  0  0  0  0  0  0  0  0  0  0
   37.4550   26.0820   34.3080 C   0  0  0  0  0  0  0  0  0  0  0  0
   37.0310   27.1990   35.0120 C   0  0  0  0  0  0  0  0  0  0  0  0
   36.5080   28.2850   34.3430 C   0  0  0  0  0  0  0  0  0  0  0  0
   35.7460   29.6130   32.0600 S   0  0  0  0  0  0  0  0  0  0  0  0
   35.9410   29.4610   30.5890 O   0  0  0  0  0  0  0  0  0  0  0  0
   34.2570   29.6690   32.3160 O   0  0  0  0  0  0  0  0  0  0  0  0
   38.2520   23.7910   38.5710 C   0  0  0  0  0  0  0  0  0  0  0  0
   39.4720   23.5070   39.1840 F   0  0  0  0  0  0  0  0  0  0  0  0
   37.8320   25.0080   39.0550 F   0  0  0  0  0  0  0  0  0  0  0  0
   37.3300   22.8030   38.8950 F   0  0  0  0  0  0  0  0  0  0  0  0
   39.4864   21.9531   36.9642 H   0  0  0  0  0  0  0  0  0  0  0  0
   39.6911   22.1238   34.4319 H   0  0  0  0  0  0  0  0  0  0  0  0
   36.7452   27.1318   31.2083 H   0  0  0  0  0  0  0  0  0  0  0  0
   37.6951   25.1496   32.3622 H   0  0  0  0  0  0  0  0  0  0  0  0
   37.1123   27.2186   36.1088 H   0  0  0  0  0  0  0  0  0  0  0  0
   36.1760   29.1665   34.9111 H   0  0  0  0  0  0  0  0  0  0  0  0
   36.4007   30.7470   32.4628 H   0  0  0  0  0  0  0  0  0  0  0  0
  1 16  1  0
  2  1  2  0
  3  2  1  0
  4  3  2  0
  4  5  1  0
  5  6  2  0
  6  1  1  0
  7 12  2  0
  8  9  2  0
  8  7  1  0
  9 10  1  0
 10 11  2  0
 10  5  1  0
 12 11  1  0
 13 15  2  0
 13  7  1  0
 14 13  2  0
 16 19  1  0
 16 18  1  0
 16 17  1  0
  2 20  1  0
  3 21  1  0
  8 22  1  0
  9 23  1  0
 11 24  1  0
 12 25  1  0
 13 26  1  0
M  ISO  7  20  14  21  14  22  14  23  14  24  14  25  14  26  11
M  END
>  <minimizedAffinity>  (1) 
-5.57806587

>  <minimizedRMSD>  (1) 
1.32537019

$$$$
