
     RDKit          3D

 29 30  0  0  0  0  0  0  0  0999 V2000
   38.1570   23.9110   37.0070 C   0  0  0  0  0  0  0  0  0  0  0  0
   38.1350   22.7420   36.2370 C   0  0  0  0  0  0  0  0  0  0  0  0
   38.1040   22.8830   34.8360 C   0  0  0  0  0  0  0  0  0  0  0  0
   38.0970   24.1310   34.3230 N   0  0  0  0  0  0  0  0  0  0  0  0
   38.1180   25.2370   35.1070 C   0  0  0  0  0  0  0  0  0  0  0  0
   38.1480   25.1260   36.4420 N   0  0  0  0  0  0  0  0  0  0  0  0
   38.1060   26.5420   34.3850 C   0  0  0  0  0  0  0  0  0  0  0  0
   37.5210   27.6400   35.1740 C   0  0  0  0  0  0  0  0  0  0  0  0
   36.3900   28.3800   34.5630 C   0  0  0  0  0  0  0  0  0  0  0  0
   36.3200   28.4400   33.0870 C   0  0  0  0  0  0  0  0  0  0  0  0
   37.3330   27.5920   32.3720 C   0  0  0  0  0  0  0  0  0  0  0  0
   37.3300   26.2470   33.0950 C   0  0  0  0  0  0  0  0  0  0  0  0
   38.1900   23.8090   38.5100 C   0  0  0  0  0  0  0  0  0  0  0  0
   39.4520   23.4760   38.9710 F   0  0  0  0  0  0  0  0  0  0  0  0
   37.8470   25.0110   39.0820 F   0  0  0  0  0  0  0  0  0  0  0  0
   37.2780   22.8290   38.8990 F   0  0  0  0  0  0  0  0  0  0  0  0
   38.1417   21.7486   36.7094 H   0  0  0  0  0  0  0  0  0  0  0  0
   38.0860   22.0010   34.1789 H   0  0  0  0  0  0  0  0  0  0  0  0
   39.1232   26.9080   34.1818 H   0  0  0  0  0  0  0  0  0  0  0  0
   37.1643   27.2132   36.1230 H   0  0  0  0  0  0  0  0  0  0  0  0
   38.3273   28.3816   35.2731 H   0  0  0  0  0  0  0  0  0  0  0  0
   35.4610   27.9087   34.9163 H   0  0  0  0  0  0  0  0  0  0  0  0
   36.5423   29.4238   34.8749 H   0  0  0  0  0  0  0  0  0  0  0  0
   35.3176   28.1084   32.7785 H   0  0  0  0  0  0  0  0  0  0  0  0
   36.5379   29.4818   32.8094 H   0  0  0  0  0  0  0  0  0  0  0  0
   37.0481   27.4613   31.3176 H   0  0  0  0  0  0  0  0  0  0  0  0
   38.3303   28.0560   32.3817 H   0  0  0  0  0  0  0  0  0  0  0  0
   36.3033   25.9211   33.3179 H   0  0  0  0  0  0  0  0  0  0  0  0
   37.7744   25.4358   32.4997 H   0  0  0  0  0  0  0  0  0  0  0  0
  1 13  1  0
  2  1  2  0
  3  2  1  0
  4  3  2  0
  4  5  1  0
  5  6  2  0
  6  1  1  0
  7  5  1  0
  7  8  1  0
  9  8  1  0
 10  9  1  0
 11 10  1  0
 11 12  1  0
 12  7  1  0
 13 16  1  0
 13 14  1  0
 13 15  1  0
  2 17  1  0
  3 18  1  0
  7 19  1  0
  8 20  1  0
  8 21  1  0
  9 22  1  0
  9 23  1  0
 10 24  1  0
 10 25  1  0
 11 26  1  0
 11 27  1  0
 12 28  1  0
 12 29  1  0
M  ISO  8  17  14  18  14  19  13  20  13  21  13  22  13  23  13  24  13
M  ISO  5  25  13  26  13  27  13  28  13  29  13
M  END
>  <minimizedAffinity>  (1) 
-5.44898891

>  <minimizedRMSD>  (1) 
0.304373115

$$$$
