
     RDKit          3D

 33 36  0  0  0  0  0  0  0  0999 V2000
   43.1720   23.1370   35.7870 C   0  0  0  0  0  0  0  0  0  0  0  0
   42.0270   23.2100   36.5630 C   0  0  0  0  0  0  0  0  0  0  0  0
   40.7590   23.1410   36.0300 C   0  0  0  0  0  0  0  0  0  0  0  0
   40.6940   22.9980   34.6770 N   0  0  0  0  0  0  0  0  0  0  0  0
   41.7820   22.9280   33.9130 C   0  0  0  0  0  0  0  0  0  0  0  0
   42.9980   22.9950   34.4440 N   0  0  0  0  0  0  0  0  0  0  0  0
   44.5460   23.2660   36.1940 C   0  0  0  0  0  0  0  0  0  0  0  0
   45.4640   22.3330   35.6790 C   0  0  0  0  0  0  0  0  0  0  0  0
   46.8060   22.2930   35.9650 C   0  0  0  0  0  0  0  0  0  0  0  0
   47.3300   23.2290   36.8250 C   0  0  0  0  0  0  0  0  0  0  0  0
   46.4870   24.1690   37.3670 C   0  0  0  0  0  0  0  0  0  0  0  0
   46.9930   25.0900   38.2580 C   0  0  0  0  0  0  0  0  0  0  0  0
   46.1930   26.0360   38.8710 C   0  0  0  0  0  0  0  0  0  0  0  0
   44.8340   26.0110   38.5360 C   0  0  0  0  0  0  0  0  0  0  0  0
   44.3790   25.0730   37.6410 C   0  0  0  0  0  0  0  0  0  0  0  0
   45.1590   24.1380   37.0290 C   0  0  0  0  0  0  0  0  0  0  0  0
   39.6040   23.2220   36.9030 C   0  0  0  0  0  0  0  0  0  0  0  0
   38.3820   23.7650   36.5110 C   0  0  0  0  0  0  0  0  0  0  0  0
   37.5760   23.6490   37.6200 N   0  0  0  0  0  0  0  0  0  0  0  0
   38.2980   23.0690   38.5930 C   0  0  0  0  0  0  0  0  0  0  0  0
   39.5210   22.8000   38.1940 N   0  0  0  0  0  0  0  0  0  0  0  0
   42.1351   23.3281   37.6513 H   0  0  0  0  0  0  0  0  0  0  0  0
   41.6724   22.8128   32.8245 H   0  0  0  0  0  0  0  0  0  0  0  0
   45.0735   21.5709   34.9886 H   0  0  0  0  0  0  0  0  0  0  0  0
   47.4513   21.5250   35.5137 H   0  0  0  0  0  0  0  0  0  0  0  0
   48.4015   23.2254   37.0739 H   0  0  0  0  0  0  0  0  0  0  0  0
   48.0683   25.0719   38.4890 H   0  0  0  0  0  0  0  0  0  0  0  0
   46.6018   26.7682   39.5829 H   0  0  0  0  0  0  0  0  0  0  0  0
   44.1376   26.7348   38.9846 H   0  0  0  0  0  0  0  0  0  0  0  0
   43.3056   25.0771   37.4007 H   0  0  0  0  0  0  0  0  0  0  0  0
   38.1198   24.1919   35.5317 H   0  0  0  0  0  0  0  0  0  0  0  0
   37.9132   22.8467   39.5992 H   0  0  0  0  0  0  0  0  0  0  0  0
   40.2681   22.3577   38.7483 H   0  0  0  0  0  0  0  0  0  0  0  0
  1  7  1  0
  1  2  2  0
  3  2  1  0
  3 17  1  0
  4  3  2  0
  5  6  2  0
  5  4  1  0
  6  1  1  0
  7 16  2  0
  8  9  2  0
  8  7  1  0
  9 10  1  0
 10 11  2  0
 11 12  1  0
 12 13  2  0
 14 13  1  0
 15 14  2  0
 16 11  1  0
 16 15  1  0
 17 21  1  0
 18 17  2  0
 18 19  1  0
 19 20  2  0
 21 20  1  0
  2 22  1  0
  5 23  1  0
  8 24  1  0
  9 25  1  0
 10 26  1  0
 12 27  1  0
 13 28  1  0
 14 29  1  0
 15 30  1  0
 18 31  1  0
 20 32  1  0
 21 33  1  0
M  ISO  8  22  14  23  14  24  14  25  14  26  14  27  14  28  14  29  14
M  ISO  4  30  14  31  14  32  14  33   9
M  END
>  <minimizedAffinity>  (1) 
-5.95052958

>  <minimizedRMSD>  (1) 
4.76063347

$$$$
