
     RDKit          3D

 33 35  0  0  1  0  0  0  0  0999 V2000
   37.7750   23.0250   34.3400 C   0  0  0  0  0  0  0  0  0  0  0  0
   37.4380   21.7730   33.8570 C   0  0  0  0  0  0  0  0  0  0  0  0
   36.9700   21.6590   32.5640 C   0  0  0  0  0  0  0  0  0  0  0  0
   36.8410   22.7850   31.7660 C   0  0  0  0  0  0  0  0  0  0  0  0
   37.1860   24.0130   32.2800 C   0  0  0  0  0  0  0  0  0  0  0  0
   37.6600   24.1760   33.5720 C   0  0  0  0  0  0  0  0  0  0  0  0
   38.0140   25.4540   34.0930 N   0  0  0  0  0  0  0  0  0  0  0  0
   39.3080   26.1250   33.8740 C   0  0  0  0  0  0  0  0  0  0  0  0
   39.6920   26.6550   35.2500 C   0  0  0  0  0  0  0  0  0  0  0  0
   38.3530   26.8930   35.9500 C   0  0  0  0  0  0  0  0  0  0  0  0
   37.3530   26.4370   34.9090 C   0  0  1  0  0  0  0  0  0  0  0  0
   36.9490   27.5530   34.1500 O   0  0  0  0  0  0  0  0  0  0  0  0
   40.0950   22.8980   37.1670 C   0  0  0  0  0  0  0  0  0  0  0  0
   39.2890   23.2070   38.2730 C   0  0  0  0  0  0  0  0  0  0  0  0
   37.9190   23.4630   38.0340 C   0  0  0  0  0  0  0  0  0  0  0  0
   37.4680   23.3960   36.7650 N   0  0  0  0  0  0  0  0  0  0  0  0
   38.2700   23.0970   35.7270 C   0  0  0  0  0  0  0  0  0  0  0  0
   39.5780   22.8500   35.9330 N   0  0  0  0  0  0  0  0  0  0  0  0
   37.5416   20.8822   34.4940 H   0  0  0  0  0  0  0  0  0  0  0  0
   36.6982   20.6706   32.1649 H   0  0  0  0  0  0  0  0  0  0  0  0
   36.4675   22.6975   30.7350 H   0  0  0  0  0  0  0  0  0  0  0  0
   37.0815   24.9015   31.6399 H   0  0  0  0  0  0  0  0  0  0  0  0
   40.0603   25.4113   33.5070 H   0  0  0  0  0  0  0  0  0  0  0  0
   39.2469   26.9215   33.1178 H   0  0  0  0  0  0  0  0  0  0  0  0
   40.2927   25.9149   35.7990 H   0  0  0  0  0  0  0  0  0  0  0  0
   40.3048   27.5668   35.1934 H   0  0  0  0  0  0  0  0  0  0  0  0
   38.2724   26.2928   36.8683 H   0  0  0  0  0  0  0  0  0  0  0  0
   38.2060   27.9343   36.2725 H   0  0  0  0  0  0  0  0  0  0  0  0
   36.4531   25.9943   35.3608 H   0  0  0  0  0  0  0  0  0  0  0  0
   36.6832   28.2872   34.7586 H   0  0  0  0  0  0  0  0  0  0  0  0
   41.1654   22.6925   37.3156 H   0  0  0  0  0  0  0  0  0  0  0  0
   39.7077   23.2486   39.2894 H   0  0  0  0  0  0  0  0  0  0  0  0
   37.2386   23.7105   38.8621 H   0  0  0  0  0  0  0  0  0  0  0  0
  1 17  1  0
  2  1  2  0
  3  2  1  0
  4  5  1  0
  4  3  2  0
  5  6  2  0
  6  7  1  0
  6  1  1  0
  7 11  1  0
  8  7  1  0
  8  9  1  0
  9 10  1  0
 11 10  1  0
 12 11  1  0
 13 14  2  0
 15 14  1  0
 16 15  2  0
 17 18  2  0
 17 16  1  0
 18 13  1  0
  2 19  1  0
  3 20  1  0
  4 21  1  0
  5 22  1  0
  8 23  1  0
  8 24  1  0
  9 25  1  0
  9 26  1  0
 10 27  1  0
 10 28  1  0
 11 29  1  1
 12 30  1  0
 13 31  1  0
 14 32  1  0
 15 33  1  0
M  ISO  8  19  14  20  14  21  14  22  14  23  13  24  13  25  13  26  13
M  ISO  7  27  13  28  13  29  13  30   3  31  14  32  14  33  14
M  END
>  <minimizedAffinity>  (1) 
-4.87870026

>  <minimizedRMSD>  (1) 
0.0728576034

$$$$
