
     RDKit          3D

 34 36  0  0  1  0  0  0  0  0999 V2000
   37.7730   23.0140   34.3200 C   0  0  0  0  0  0  0  0  0  0  0  0
   37.4150   21.7790   33.8460 C   0  0  0  0  0  0  0  0  0  0  0  0
   36.9160   21.6640   32.5520 C   0  0  0  0  0  0  0  0  0  0  0  0
   36.7900   22.8060   31.7630 C   0  0  0  0  0  0  0  0  0  0  0  0
   37.1600   24.0180   32.2750 C   0  0  0  0  0  0  0  0  0  0  0  0
   37.6570   24.1720   33.5490 C   0  0  0  0  0  0  0  0  0  0  0  0
   38.0410   25.4500   34.0750 N   0  0  0  0  0  0  0  0  0  0  0  0
   39.3510   26.0900   33.8500 C   0  0  0  0  0  0  0  0  0  0  0  0
   39.7340   26.6090   35.2390 C   0  0  0  0  0  0  0  0  0  0  0  0
   38.4060   26.8840   35.9360 C   0  0  0  0  0  0  0  0  0  0  0  0
   37.3910   26.4370   34.8980 C   0  0  1  0  0  0  0  0  0  0  0  0
   36.8370   27.5420   34.1570 N   0  0  0  0  0  0  0  0  0  0  0  0
   40.1560   22.8450   37.1000 C   0  0  0  0  0  0  0  0  0  0  0  0
   39.3640   23.1690   38.2200 C   0  0  0  0  0  0  0  0  0  0  0  0
   38.0060   23.4470   38.0080 C   0  0  0  0  0  0  0  0  0  0  0  0
   37.5110   23.3930   36.7480 N   0  0  0  0  0  0  0  0  0  0  0  0
   38.2940   23.0770   35.6910 C   0  0  0  0  0  0  0  0  0  0  0  0
   39.6160   22.8050   35.8770 N   0  0  0  0  0  0  0  0  0  0  0  0
   37.5210   20.8877   34.4819 H   0  0  0  0  0  0  0  0  0  0  0  0
   36.6236   20.6805   32.1554 H   0  0  0  0  0  0  0  0  0  0  0  0
   36.3967   22.7326   30.7384 H   0  0  0  0  0  0  0  0  0  0  0  0
   37.0559   24.9104   31.6403 H   0  0  0  0  0  0  0  0  0  0  0  0
   40.0885   25.3600   33.4851 H   0  0  0  0  0  0  0  0  0  0  0  0
   39.3169   26.8834   33.0888 H   0  0  0  0  0  0  0  0  0  0  0  0
   40.3103   25.8511   35.7898 H   0  0  0  0  0  0  0  0  0  0  0  0
   40.3667   27.5072   35.1851 H   0  0  0  0  0  0  0  0  0  0  0  0
   38.3135   26.2963   36.8612 H   0  0  0  0  0  0  0  0  0  0  0  0
   38.2827   27.9319   36.2469 H   0  0  0  0  0  0  0  0  0  0  0  0
   36.5105   25.9871   35.3799 H   0  0  0  0  0  0  0  0  0  0  0  0
   36.4812   28.2516   34.8134 H   0  0  0  0  0  0  0  0  0  0  0  0
   37.5687   27.9590   33.5640 H   0  0  0  0  0  0  0  0  0  0  0  0
   41.2253   22.6236   37.2326 H   0  0  0  0  0  0  0  0  0  0  0  0
   39.7982   23.2028   39.2301 H   0  0  0  0  0  0  0  0  0  0  0  0
   37.3514   23.7055   38.8534 H   0  0  0  0  0  0  0  0  0  0  0  0
  1 17  1  0
  2  1  2  0
  3  2  1  0
  4  5  1  0
  4  3  2  0
  5  6  2  0
  6  7  1  0
  6  1  1  0
  7 11  1  0
  8  7  1  0
  8  9  1  0
  9 10  1  0
 11 10  1  0
 12 11  1  0
 13 14  2  0
 15 14  1  0
 16 15  2  0
 17 18  2  0
 17 16  1  0
 18 13  1  0
  2 19  1  0
  3 20  1  0
  4 21  1  0
  5 22  1  0
  8 23  1  0
  8 24  1  0
  9 25  1  0
  9 26  1  0
 10 27  1  0
 10 28  1  0
 11 29  1  1
 12 30  1  0
 12 31  1  0
 13 32  1  0
 14 33  1  0
 15 34  1  0
M  ISO  8  19  14  20  14  21  14  22  14  23  13  24  13  25  13  26  13
M  ISO  8  27  13  28  13  29  13  30   5  31   5  32  14  33  14  34  14
M  END
>  <minimizedAffinity>  (1) 
-4.8877821

>  <minimizedRMSD>  (1) 
0.0594292432

$$$$
