
     RDKit          3D

 28 30  0  0  0  0  0  0  0  0999 V2000
   43.0050   23.4570   35.6550 C   0  0  0  0  0  0  0  0  0  0  0  0
   41.8560   23.5820   36.4400 C   0  0  0  0  0  0  0  0  0  0  0  0
   40.7510   22.8070   36.1250 C   0  0  0  0  0  0  0  0  0  0  0  0
   40.8440   21.9450   35.0450 N   0  0  0  0  0  0  0  0  0  0  0  0
   41.9720   21.8630   34.3230 C   0  0  0  0  0  0  0  0  0  0  0  0
   43.0390   22.6020   34.6160 N   0  0  0  0  0  0  0  0  0  0  0  0
   44.1940   24.1900   35.8720 N   0  0  0  0  0  0  0  0  0  0  0  0
   45.1970   23.5960   36.5400 C   0  0  0  0  0  0  0  0  0  0  0  0
   46.3470   24.3290   36.7400 C   0  0  0  0  0  0  0  0  0  0  0  0
   46.3700   25.6110   36.2350 C   0  0  0  0  0  0  0  0  0  0  0  0
   47.4630   26.5170   36.3410 N   0  0  0  0  0  0  0  0  0  0  0  0
   45.3360   26.1640   35.5700 N   0  0  0  0  0  0  0  0  0  0  0  0
   44.1980   25.4350   35.3730 C   0  0  0  0  0  0  0  0  0  0  0  0
   43.2140   25.9190   34.7580 O   0  0  0  0  0  0  0  0  0  0  0  0
   39.5620   22.9420   36.9440 C   0  0  0  0  0  0  0  0  0  0  0  0
   38.2990   23.2250   36.4200 C   0  0  0  0  0  0  0  0  0  0  0  0
   37.4510   23.2730   37.4840 N   0  0  0  0  0  0  0  0  0  0  0  0
   38.1860   23.0290   38.5830 C   0  0  0  0  0  0  0  0  0  0  0  0
   39.4540   22.8270   38.2810 N   0  0  0  0  0  0  0  0  0  0  0  0
   41.8290   24.2803   37.2895 H   0  0  0  0  0  0  0  0  0  0  0  0
   42.0156   21.1696   33.4702 H   0  0  0  0  0  0  0  0  0  0  0  0
   45.1041   22.5652   36.9126 H   0  0  0  0  0  0  0  0  0  0  0  0
   47.2089   23.9090   37.2792 H   0  0  0  0  0  0  0  0  0  0  0  0
   47.3921   27.4596   35.9319 H   0  0  0  0  0  0  0  0  0  0  0  0
   48.3247   26.2299   36.8268 H   0  0  0  0  0  0  0  0  0  0  0  0
   38.0413   23.3782   35.3616 H   0  0  0  0  0  0  0  0  0  0  0  0
   37.7809   23.0013   39.6053 H   0  0  0  0  0  0  0  0  0  0  0  0
   40.2163   22.6206   38.9422 H   0  0  0  0  0  0  0  0  0  0  0  0
  1  7  1  0
  1  2  2  0
  3  2  1  0
  3 15  1  0
  4  3  2  0
  5  6  2  0
  5  4  1  0
  6  1  1  0
  7  8  1  0
  8  9  2  0
 10 11  1  0
 10  9  1  0
 12 10  2  0
 13 12  1  0
 13  7  1  0
 14 13  2  0
 15 19  1  0
 16 15  2  0
 16 17  1  0
 17 18  2  0
 19 18  1  0
  2 20  1  0
  5 21  1  0
  8 22  1  0
  9 23  1  0
 11 24  1  0
 11 25  1  0
 16 26  1  0
 18 27  1  0
 19 28  1  0
M  ISO  7  20  14  21  14  22  14  23  14  26  14  27  14  28   9
M  END
>  <minimizedAffinity>  (1) 
-4.24818087

>  <minimizedRMSD>  (1) 
4.42858505

$$$$
