
     RDKit          3D

 20 21  0  0  0  0  0  0  0  0999 V2000
   42.7880   21.0650   36.8130 C   0  0  0  0  0  0  0  0  0  0  0  0
   41.4930   21.3910   37.2230 C   0  0  0  0  0  0  0  0  0  0  0  0
   41.0140   22.6550   36.9100 C   0  0  0  0  0  0  0  0  0  0  0  0
   41.8250   23.5110   36.2220 N   0  0  0  0  0  0  0  0  0  0  0  0
   43.0670   23.1520   35.8460 C   0  0  0  0  0  0  0  0  0  0  0  0
   43.5550   21.9300   36.1390 N   0  0  0  0  0  0  0  0  0  0  0  0
   39.6550   22.9920   37.3430 C   0  0  0  0  0  0  0  0  0  0  0  0
   38.6990   23.5400   36.4880 C   0  0  0  0  0  0  0  0  0  0  0  0
   37.5810   23.7090   37.2480 N   0  0  0  0  0  0  0  0  0  0  0  0
   37.8720   23.2800   38.4870 C   0  0  0  0  0  0  0  0  0  0  0  0
   39.1160   22.8460   38.5590 N   0  0  0  0  0  0  0  0  0  0  0  0
   43.3200   19.7440   37.1280 C   0  0  0  0  0  0  0  0  0  0  0  0
   44.5090   19.4380   36.8470 O   0  0  0  0  0  0  0  0  0  0  0  0
   42.5430   18.7720   37.7460 O   0  0  0  0  0  0  0  0  0  0  0  0
   40.8735   20.6694   37.7757 H   0  0  0  0  0  0  0  0  0  0  0  0
   43.6929   23.8666   35.2914 H   0  0  0  0  0  0  0  0  0  0  0  0
   38.8220   23.7846   35.4226 H   0  0  0  0  0  0  0  0  0  0  0  0
   37.1662   23.2892   39.3307 H   0  0  0  0  0  0  0  0  0  0  0  0
   39.5841   22.4662   39.3942 H   0  0  0  0  0  0  0  0  0  0  0  0
   42.9301   17.8835   37.9482 H   0  0  0  0  0  0  0  0  0  0  0  0
  1 12  1  0
  1  2  2  0
  3  2  1  0
  3  7  1  0
  4  3  2  0
  5  6  2  0
  5  4  1  0
  6  1  1  0
  7 11  1  0
  8  9  1  0
  8  7  2  0
  9 10  2  0
 10 11  1  0
 12 14  1  0
 13 12  2  0
  2 15  1  0
  5 16  1  0
  8 17  1  0
 10 18  1  0
 11 19  1  0
 14 20  1  0
M  ISO  6  15  14  16  14  17  14  18  14  19   9  20   3
M  END
>  <minimizedAffinity>  (1) 
-4.33283901

>  <minimizedRMSD>  (1) 
1.26194119

$$$$
