
     RDKit          3D

 24 25  0  0  0  0  0  0  0  0999 V2000
   42.4580   20.9110   37.2630 C   0  0  0  0  0  0  0  0  0  0  0  0
   41.2040   21.4340   37.5900 C   0  0  0  0  0  0  0  0  0  0  0  0
   40.8030   22.6390   36.9970 C   0  0  0  0  0  0  0  0  0  0  0  0
   41.6600   23.2470   36.1230 N   0  0  0  0  0  0  0  0  0  0  0  0
   42.8630   22.6950   35.8420 C   0  0  0  0  0  0  0  0  0  0  0  0
   43.2680   21.5400   36.4000 N   0  0  0  0  0  0  0  0  0  0  0  0
   39.4970   23.1600   37.3560 C   0  0  0  0  0  0  0  0  0  0  0  0
   38.7330   23.9560   36.4920 C   0  0  0  0  0  0  0  0  0  0  0  0
   37.5860   24.2420   37.1760 N   0  0  0  0  0  0  0  0  0  0  0  0
   37.6860   23.6360   38.3850 C   0  0  0  0  0  0  0  0  0  0  0  0
   38.8190   22.9810   38.5200 N   0  0  0  0  0  0  0  0  0  0  0  0
   42.8720   19.6960   37.8560 N   0  0  0  0  0  0  0  0  0  0  0  0
   42.9920   18.5030   37.0880 C   0  0  0  0  0  0  0  0  0  0  0  0
   43.1440   18.6090   35.8070 N   0  0  0  0  0  0  0  0  0  0  0  0
   42.9340   17.2570   37.8060 N   0  0  0  0  0  0  0  0  0  0  0  0
   43.2330   17.7140   35.2430 H   0  0  0  0  0  0  0  0  0  0  0  0
   40.5450   20.9106   38.2984 H   0  0  0  0  0  0  0  0  0  0  0  0
   43.5314   23.2073   35.1344 H   0  0  0  0  0  0  0  0  0  0  0  0
   39.0009   24.2820   35.4762 H   0  0  0  0  0  0  0  0  0  0  0  0
   36.9097   23.6862   39.1627 H   0  0  0  0  0  0  0  0  0  0  0  0
   39.1291   22.4420   39.3411 H   0  0  0  0  0  0  0  0  0  0  0  0
   43.0908   19.6735   38.8622 H   0  0  0  0  0  0  0  0  0  0  0  0
   43.0158   16.3652   37.2973 H   0  0  0  0  0  0  0  0  0  0  0  0
   42.8107   17.2571   38.8286 H   0  0  0  0  0  0  0  0  0  0  0  0
  1  2  2  0
  1 12  1  0
  3  7  1  0
  3  2  1  0
  4  3  2  0
  5  4  1  0
  5  6  2  0
  6  1  1  0
  7 11  1  0
  8  9  1  0
  8  7  2  0
  9 10  2  0
 10 11  1  0
 13 15  1  0
 13 12  1  0
 14 13  2  0
 16 14  1  0
  2 17  1  0
  5 18  1  0
  8 19  1  0
 10 20  1  0
 11 21  1  0
 12 22  1  0
 15 23  1  0
 15 24  1  0
M  ISO  5  17  14  18  14  19  14  20  14  21   9
M  END
>  <minimizedAffinity>  (1) 
-4.59626532

>  <minimizedRMSD>  (1) 
0.94081974

$$$$
