
     RDKit          3D

 18 19  0  0  0  0  0  0  0  0999 V2000
   42.4220   20.6200   36.9360 C   0  0  0  0  0  0  0  0  0  0  0  0
   41.3670   21.3540   37.5260 C   0  0  0  0  0  0  0  0  0  0  0  0
   40.6230   22.1700   36.6890 C   0  0  0  0  0  0  0  0  0  0  0  0
   40.9560   22.2110   35.3630 N   0  0  0  0  0  0  0  0  0  0  0  0
   41.9600   21.4990   34.8450 C   0  0  0  0  0  0  0  0  0  0  0  0
   42.6920   20.7050   35.6300 N   0  0  0  0  0  0  0  0  0  0  0  0
   39.5280   22.9430   37.2610 C   0  0  0  0  0  0  0  0  0  0  0  0
   38.7860   23.8970   36.5440 C   0  0  0  0  0  0  0  0  0  0  0  0
   37.8710   24.3810   37.4380 N   0  0  0  0  0  0  0  0  0  0  0  0
   38.0640   23.7510   38.6120 C   0  0  0  0  0  0  0  0  0  0  0  0
   39.0630   22.8710   38.5360 N   0  0  0  0  0  0  0  0  0  0  0  0
   43.1790   19.7980   37.7440 O   0  0  0  0  0  0  0  0  0  0  0  0
   41.1469   21.2804   38.6012 H   0  0  0  0  0  0  0  0  0  0  0  0
   42.1842   21.5668   33.7702 H   0  0  0  0  0  0  0  0  0  0  0  0
   38.9135   24.1909   35.4917 H   0  0  0  0  0  0  0  0  0  0  0  0
   37.4720   23.9386   39.5199 H   0  0  0  0  0  0  0  0  0  0  0  0
   39.4111   22.2613   39.2896 H   0  0  0  0  0  0  0  0  0  0  0  0
   43.9237   19.2729   37.3569 H   0  0  0  0  0  0  0  0  0  0  0  0
  1  2  2  0
  1 12  1  0
  3  7  1  0
  3  2  1  0
  4  3  2  0
  5  4  1  0
  5  6  2  0
  6  1  1  0
  7 11  1  0
  8  7  2  0
  8  9  1  0
  9 10  2  0
 11 10  1  0
  2 13  1  0
  5 14  1  0
  8 15  1  0
 10 16  1  0
 11 17  1  0
 12 18  1  0
M  ISO  6  13  14  14  14  15  14  16  14  17   9  18   3
M  END
>  <minimizedAffinity>  (1) 
-4.01574707

>  <minimizedRMSD>  (1) 
0.212348536

$$$$
