
     RDKit          3D

 24 26  0  0  0  0  0  0  0  0999 V2000
   43.2010   22.9590   35.9300 C   0  0  0  0  0  0  0  0  0  0  0  0
   42.0540   23.2770   36.6630 C   0  0  0  0  0  0  0  0  0  0  0  0
   40.8290   22.7290   36.2500 C   0  0  0  0  0  0  0  0  0  0  0  0
   40.8270   21.9110   35.1480 N   0  0  0  0  0  0  0  0  0  0  0  0
   41.9610   21.6410   34.4850 C   0  0  0  0  0  0  0  0  0  0  0  0
   43.1330   22.1500   34.8590 N   0  0  0  0  0  0  0  0  0  0  0  0
   39.6320   23.0620   37.0150 C   0  0  0  0  0  0  0  0  0  0  0  0
   38.5500   23.7740   36.4870 C   0  0  0  0  0  0  0  0  0  0  0  0
   37.6530   23.8750   37.4980 N   0  0  0  0  0  0  0  0  0  0  0  0
   38.1880   23.2460   38.5800 C   0  0  0  0  0  0  0  0  0  0  0  0
   39.3750   22.7540   38.3020 N   0  0  0  0  0  0  0  0  0  0  0  0
   44.4480   23.5490   36.3960 C   0  0  0  0  0  0  0  0  0  0  0  0
   44.5200   24.6710   37.1880 C   0  0  0  0  0  0  0  0  0  0  0  0
   45.8220   24.9680   37.4500 N   0  0  0  0  0  0  0  0  0  0  0  0
   46.5780   24.0260   36.8160 C   0  0  0  0  0  0  0  0  0  0  0  0
   45.7250   23.1860   36.1910 N   0  0  0  0  0  0  0  0  0  0  0  0
   42.1096   23.9388   37.5399 H   0  0  0  0  0  0  0  0  0  0  0  0
   41.9217   20.9798   33.6067 H   0  0  0  0  0  0  0  0  0  0  0  0
   38.4484   24.1691   35.4654 H   0  0  0  0  0  0  0  0  0  0  0  0
   37.6924   23.1606   39.5583 H   0  0  0  0  0  0  0  0  0  0  0  0
   39.9900   22.2336   38.9438 H   0  0  0  0  0  0  0  0  0  0  0  0
   43.6548   25.2427   37.5548 H   0  0  0  0  0  0  0  0  0  0  0  0
   47.6762   23.9625   36.8142 H   0  0  0  0  0  0  0  0  0  0  0  0
   46.0158   22.3726   35.6300 H   0  0  0  0  0  0  0  0  0  0  0  0
  1 12  1  0
  1  2  2  0
  3  2  1  0
  3  7  1  0
  4  3  2  0
  5  6  2  0
  5  4  1  0
  6  1  1  0
  7 11  1  0
  8  7  2  0
  8  9  1  0
  9 10  2  0
 11 10  1  0
 12 13  2  0
 13 14  1  0
 15 14  2  0
 16 12  1  0
 16 15  1  0
  2 17  1  0
  5 18  1  0
  8 19  1  0
 10 20  1  0
 11 21  1  0
 13 22  1  0
 15 23  1  0
 16 24  1  0
M  ISO  8  17  14  18  14  19  14  20  14  21   9  22  14  23  14  24   9
M  END
>  <minimizedAffinity>  (1) 
-4.12163782

>  <minimizedRMSD>  (1) 
3.07611012

$$$$
