
     RDKit          3D

 24 26  0  0  0  0  0  0  0  0999 V2000
   42.6860   20.9950   36.9080 C   0  0  0  0  0  0  0  0  0  0  0  0
   41.3940   21.3610   37.2860 C   0  0  0  0  0  0  0  0  0  0  0  0
   40.9460   22.6430   36.9750 C   0  0  0  0  0  0  0  0  0  0  0  0
   41.8040   23.4760   36.3120 N   0  0  0  0  0  0  0  0  0  0  0  0
   43.0390   23.0830   35.9670 C   0  0  0  0  0  0  0  0  0  0  0  0
   43.4810   21.8520   36.2610 N   0  0  0  0  0  0  0  0  0  0  0  0
   39.5890   23.0230   37.3740 C   0  0  0  0  0  0  0  0  0  0  0  0
   38.6660   23.6100   36.5210 C   0  0  0  0  0  0  0  0  0  0  0  0
   37.5380   23.8070   37.2610 N   0  0  0  0  0  0  0  0  0  0  0  0
   37.8010   23.3470   38.5060 C   0  0  0  0  0  0  0  0  0  0  0  0
   39.0350   22.8690   38.5950 N   0  0  0  0  0  0  0  0  0  0  0  0
   43.1770   19.6250   37.2350 C   0  0  0  0  0  0  0  0  0  0  0  0
   43.3440   18.6360   36.1100 C   0  0  0  0  0  0  0  0  0  0  0  0
   44.5410   19.1930   36.8070 C   0  0  0  0  0  0  0  0  0  0  0  0
   40.7427   20.6523   37.8184 H   0  0  0  0  0  0  0  0  0  0  0  0
   43.7001   23.7822   35.4341 H   0  0  0  0  0  0  0  0  0  0  0  0
   38.8142   23.8651   35.4613 H   0  0  0  0  0  0  0  0  0  0  0  0
   37.0825   23.3669   39.3387 H   0  0  0  0  0  0  0  0  0  0  0  0
   39.4813   22.4617   39.4292 H   0  0  0  0  0  0  0  0  0  0  0  0
   42.6433   19.6457   38.1966 H   0  0  0  0  0  0  0  0  0  0  0  0
   43.1200   18.9355   35.0755 H   0  0  0  0  0  0  0  0  0  0  0  0
   42.9655   17.6251   35.8981 H   0  0  0  0  0  0  0  0  0  0  0  0
   45.1429   18.5475   37.4636 H   0  0  0  0  0  0  0  0  0  0  0  0
   45.4523   19.7163   36.4819 H   0  0  0  0  0  0  0  0  0  0  0  0
  1 12  1  0
  1  2  2  0
  3  2  1  0
  3  7  1  0
  4  3  2  0
  5  6  2  0
  5  4  1  0
  6  1  1  0
  7 11  1  0
  8  9  1  0
  8  7  2  0
  9 10  2  0
 10 11  1  0
 13 14  1  0
 13 12  1  0
 14 12  1  0
  2 15  1  0
  5 16  1  0
  8 17  1  0
 10 18  1  0
 11 19  1  0
 12 20  1  0
 13 21  1  0
 13 22  1  0
 14 23  1  0
 14 24  1  0
M  ISO  8  15  14  16  14  17  14  18  14  19   9  20  13  21  13  22  13
M  ISO  2  23  13  24  13
M  END
>  <minimizedAffinity>  (1) 
-4.12262487

>  <minimizedRMSD>  (1) 
1.50677156

$$$$
