
     RDKit          3D

 23 24  0  0  0  0  0  0  0  0999 V2000
   38.4210   23.8560   37.0810 C   0  0  0  0  0  0  0  0  0  0  0  0
   39.1460   22.8520   36.4430 C   0  0  0  0  0  0  0  0  0  0  0  0
   39.2980   22.9380   35.0410 C   0  0  0  0  0  0  0  0  0  0  0  0
   38.7160   24.0060   34.4170 N   0  0  0  0  0  0  0  0  0  0  0  0
   38.0200   24.9580   35.0690 C   0  0  0  0  0  0  0  0  0  0  0  0
   37.8690   24.8880   36.4040 N   0  0  0  0  0  0  0  0  0  0  0  0
   37.4260   26.0740   34.3300 C   0  0  0  0  0  0  0  0  0  0  0  0
   37.0560   27.2140   35.0040 C   0  0  0  0  0  0  0  0  0  0  0  0
   36.4920   28.2650   34.2820 C   0  0  0  0  0  0  0  0  0  0  0  0
   36.2980   28.1900   32.9300 C   0  0  0  0  0  0  0  0  0  0  0  0
   36.6780   27.0280   32.2630 C   0  0  0  0  0  0  0  0  0  0  0  0
   37.2410   25.9660   32.9460 C   0  0  0  0  0  0  0  0  0  0  0  0
   38.2340   23.8050   38.5750 C   0  0  0  0  0  0  0  0  0  0  0  0
   39.4620   23.5390   39.2090 F   0  0  0  0  0  0  0  0  0  0  0  0
   37.7910   25.0150   39.0520 F   0  0  0  0  0  0  0  0  0  0  0  0
   37.3310   22.8170   38.8800 F   0  0  0  0  0  0  0  0  0  0  0  0
   39.5857   22.0196   37.0121 H   0  0  0  0  0  0  0  0  0  0  0  0
   39.8598   22.1792   34.4766 H   0  0  0  0  0  0  0  0  0  0  0  0
   37.2021   27.2952   36.0912 H   0  0  0  0  0  0  0  0  0  0  0  0
   36.1946   29.1804   34.8146 H   0  0  0  0  0  0  0  0  0  0  0  0
   35.8505   29.0312   32.3803 H   0  0  0  0  0  0  0  0  0  0  0  0
   36.5278   26.9540   31.1758 H   0  0  0  0  0  0  0  0  0  0  0  0
   37.5386   25.0518   32.4115 H   0  0  0  0  0  0  0  0  0  0  0  0
  1 13  1  0
  2  1  2  0
  3  2  1  0
  4  3  2  0
  4  5  1  0
  5  6  2  0
  6  1  1  0
  7  8  2  0
  7  5  1  0
  9  8  1  0
 10  9  2  0
 11 10  1  0
 11 12  2  0
 12  7  1  0
 13 16  1  0
 13 15  1  0
 13 14  1  0
  2 17  1  0
  3 18  1  0
  8 19  1  0
  9 20  1  0
 10 21  1  0
 11 22  1  0
 12 23  1  0
M  ISO  7  17  14  18  14  19  14  20  14  21  14  22  14  23  14
M  END
>  <minimizedAffinity>  (1) 
-5.26259518

>  <minimizedRMSD>  (1) 
1.11092937

$$$$
