
     RDKit          3D

 25 27  0  0  0  0  0  0  0  0999 V2000
   40.9900   23.1270   35.2580 C   0  0  0  0  0  0  0  0  0  0  0  0
   40.4210   24.4010   35.3070 C   0  0  0  0  0  0  0  0  0  0  0  0
   39.0480   24.4940   35.0370 C   0  0  0  0  0  0  0  0  0  0  0  0
   38.3540   23.3450   34.7460 N   0  0  0  0  0  0  0  0  0  0  0  0
   38.9630   22.1490   34.7150 C   0  0  0  0  0  0  0  0  0  0  0  0
   40.2830   22.0300   34.9700 N   0  0  0  0  0  0  0  0  0  0  0  0
   38.4200   25.8150   35.0810 C   0  0  0  0  0  0  0  0  0  0  0  0
   37.3150   26.1710   34.3070 C   0  0  0  0  0  0  0  0  0  0  0  0
   37.0350   27.4620   34.6280 N   0  0  0  0  0  0  0  0  0  0  0  0
   37.9440   27.8420   35.5540 C   0  0  0  0  0  0  0  0  0  0  0  0
   38.7860   26.8650   35.8390 N   0  0  0  0  0  0  0  0  0  0  0  0
   42.4170   23.0110   35.5350 C   0  0  0  0  0  0  0  0  0  0  0  0
   43.0780   24.0010   36.2340 C   0  0  0  0  0  0  0  0  0  0  0  0
   44.4440   23.9160   36.5140 C   0  0  0  0  0  0  0  0  0  0  0  0
   45.0710   22.8210   36.0670 N   0  0  0  0  0  0  0  0  0  0  0  0
   44.4560   21.8390   35.3850 C   0  0  0  0  0  0  0  0  0  0  0  0
   43.1350   21.9550   35.1320 N   0  0  0  0  0  0  0  0  0  0  0  0
   41.0219   25.2907   35.5463 H   0  0  0  0  0  0  0  0  0  0  0  0
   38.3756   21.2498   34.4775 H   0  0  0  0  0  0  0  0  0  0  0  0
   36.7799   25.5368   33.5848 H   0  0  0  0  0  0  0  0  0  0  0  0
   37.9781   28.8410   36.0131 H   0  0  0  0  0  0  0  0  0  0  0  0
   39.5678   26.8999   36.5087 H   0  0  0  0  0  0  0  0  0  0  0  0
   42.5142   24.8800   36.5797 H   0  0  0  0  0  0  0  0  0  0  0  0
   44.9739   24.7036   37.0698 H   0  0  0  0  0  0  0  0  0  0  0  0
   45.0180   20.9586   35.0400 H   0  0  0  0  0  0  0  0  0  0  0  0
  1  2  2  0
  1 12  1  0
  3  7  1  0
  3  2  1  0
  4  3  2  0
  5  4  1  0
  5  6  2  0
  6  1  1  0
  7 11  1  0
  8  9  1  0
  8  7  2  0
  9 10  2  0
 10 11  1  0
 12 13  2  0
 13 14  1  0
 15 14  2  0
 16 15  1  0
 17 16  2  0
 17 12  1  0
  2 18  1  0
  5 19  1  0
  8 20  1  0
 10 21  1  0
 11 22  1  0
 13 23  1  0
 14 24  1  0
 16 25  1  0
M  ISO  8  18  14  19  14  20  14  21  14  22   9  23  14  24  14  25  14
M  END
>  <minimizedAffinity>  (1) 
-3.46476841

>  <minimizedRMSD>  (1) 
4.13947773

$$$$
