
     RDKit          3D

 28 31  0  0  0  0  0  0  0  0999 V2000
   42.4070   21.1670   35.5490 C   0  0  0  0  0  0  0  0  0  0  0  0
   41.4610   21.6270   36.4680 C   0  0  0  0  0  0  0  0  0  0  0  0
   40.5050   22.5530   36.0860 C   0  0  0  0  0  0  0  0  0  0  0  0
   40.5510   22.9750   34.7810 N   0  0  0  0  0  0  0  0  0  0  0  0
   41.4660   22.5200   33.9210 C   0  0  0  0  0  0  0  0  0  0  0  0
   42.3820   21.6300   34.2940 N   0  0  0  0  0  0  0  0  0  0  0  0
   43.3320   20.2080   36.0950 N   0  0  0  0  0  0  0  0  0  0  0  0
   42.9120   19.0680   36.6660 C   0  0  0  0  0  0  0  0  0  0  0  0
   44.0470   18.4210   37.0600 N   0  0  0  0  0  0  0  0  0  0  0  0
   45.1260   19.1670   36.7270 C   0  0  0  0  0  0  0  0  0  0  0  0
   46.4950   19.0520   36.8560 C   0  0  0  0  0  0  0  0  0  0  0  0
   47.3500   20.0030   36.4050 N   0  0  0  0  0  0  0  0  0  0  0  0
   46.8610   21.1040   35.8060 C   0  0  0  0  0  0  0  0  0  0  0  0
   45.5300   21.2360   35.6700 N   0  0  0  0  0  0  0  0  0  0  0  0
   44.6720   20.3170   36.1050 C   0  0  0  0  0  0  0  0  0  0  0  0
   39.5340   23.0150   37.0580 C   0  0  0  0  0  0  0  0  0  0  0  0
   38.4400   23.8140   36.7440 C   0  0  0  0  0  0  0  0  0  0  0  0
   37.7840   24.0230   37.9210 N   0  0  0  0  0  0  0  0  0  0  0  0
   38.4770   23.3660   38.8940 C   0  0  0  0  0  0  0  0  0  0  0  0
   39.5360   22.7510   38.3920 N   0  0  0  0  0  0  0  0  0  0  0  0
   41.4756   21.2513   37.5017 H   0  0  0  0  0  0  0  0  0  0  0  0
   41.4622   22.8881   32.8844 H   0  0  0  0  0  0  0  0  0  0  0  0
   41.8734   18.7276   36.7900 H   0  0  0  0  0  0  0  0  0  0  0  0
   46.9079   18.1560   37.3425 H   0  0  0  0  0  0  0  0  0  0  0  0
   47.5402   21.8847   35.4330 H   0  0  0  0  0  0  0  0  0  0  0  0
   38.1615   24.1980   35.7515 H   0  0  0  0  0  0  0  0  0  0  0  0
   38.1933   23.3492   39.9566 H   0  0  0  0  0  0  0  0  0  0  0  0
   40.2244   22.1853   38.9087 H   0  0  0  0  0  0  0  0  0  0  0  0
  1  7  1  0
  1  2  2  0
  3  2  1  0
  3 16  1  0
  4  3  2  0
  5  6  2  0
  5  4  1  0
  6  1  1  0
  7 15  1  0
  7  8  1  0
  8  9  2  0
 10 11  2  0
 10  9  1  0
 12 11  1  0
 13 12  2  0
 14 13  1  0
 14 15  2  0
 15 10  1  0
 16 20  1  0
 17 16  2  0
 17 18  1  0
 18 19  2  0
 20 19  1  0
  2 21  1  0
  5 22  1  0
  8 23  1  0
 11 24  1  0
 13 25  1  0
 17 26  1  0
 19 27  1  0
 20 28  1  0
M  ISO  8  21  14  22  14  23  14  24  14  25  14  26  14  27  14  28   9
M  END
>  <minimizedAffinity>  (1) 
-4.00540781

>  <minimizedRMSD>  (1) 
2.79859447

$$$$
