
     RDKit          3D

 18 19  0  0  0  0  0  0  0  0999 V2000
   42.4340   20.8520   36.2460 C   0  0  0  0  0  0  0  0  0  0  0  0
   41.3910   21.4140   36.9880 C   0  0  0  0  0  0  0  0  0  0  0  0
   40.5880   22.3980   36.3870 C   0  0  0  0  0  0  0  0  0  0  0  0
   40.8690   22.7650   35.0810 N   0  0  0  0  0  0  0  0  0  0  0  0
   41.8790   22.1910   34.4250 C   0  0  0  0  0  0  0  0  0  0  0  0
   42.6590   21.2470   34.9880 N   0  0  0  0  0  0  0  0  0  0  0  0
   39.5120   22.9680   37.1730 C   0  0  0  0  0  0  0  0  0  0  0  0
   38.5740   23.8530   36.6550 C   0  0  0  0  0  0  0  0  0  0  0  0
   37.7290   24.1750   37.6650 N   0  0  0  0  0  0  0  0  0  0  0  0
   38.1690   23.4840   38.7560 C   0  0  0  0  0  0  0  0  0  0  0  0
   39.2320   22.7620   38.4730 N   0  0  0  0  0  0  0  0  0  0  0  0
   43.4560   19.6140   36.9840 S   0  0  0  0  0  0  0  0  0  0  0  0
   41.2025   21.0920   38.0228 H   0  0  0  0  0  0  0  0  0  0  0  0
   42.0822   22.4989   33.3887 H   0  0  0  0  0  0  0  0  0  0  0  0
   38.5262   24.2227   35.6201 H   0  0  0  0  0  0  0  0  0  0  0  0
   37.6947   23.5253   39.7476 H   0  0  0  0  0  0  0  0  0  0  0  0
   39.7511   22.1546   39.1230 H   0  0  0  0  0  0  0  0  0  0  0  0
   43.3767   19.7101   38.3483 H   0  0  0  0  0  0  0  0  0  0  0  0
  1 12  1  0
  1  2  2  0
  3  2  1  0
  3  7  1  0
  4  3  2  0
  5  6  2  0
  5  4  1  0
  6  1  1  0
  7 11  1  0
  8  7  2  0
  8  9  1  0
  9 10  2  0
 11 10  1  0
  2 13  1  0
  5 14  1  0
  8 15  1  0
 10 16  1  0
 11 17  1  0
 12 18  1  0
M  ISO  6  13  14  14  14  15  14  16  14  17   9  18  11
M  END
>  <minimizedAffinity>  (1) 
-3.58491755

>  <minimizedRMSD>  (1) 
0.631296217

$$$$
