
     RDKit          3D

 25 26  0  0  0  0  0  0  0  0999 V2000
   38.2170   23.8340   36.9720 C   0  0  0  0  0  0  0  0  0  0  0  0
   38.5390   22.7040   36.2010 C   0  0  0  0  0  0  0  0  0  0  0  0
   38.4850   22.8280   34.8010 C   0  0  0  0  0  0  0  0  0  0  0  0
   38.1220   24.0370   34.2910 N   0  0  0  0  0  0  0  0  0  0  0  0
   37.8190   25.1010   35.0590 C   0  0  0  0  0  0  0  0  0  0  0  0
   37.8640   25.0040   36.3930 N   0  0  0  0  0  0  0  0  0  0  0  0
   37.4510   26.3190   34.4270 N   0  0  0  0  0  0  0  0  0  0  0  0
   37.4020   27.6160   35.0930 C   0  0  0  0  0  0  0  0  0  0  0  0
   36.3590   28.3270   34.2200 C   0  0  0  0  0  0  0  0  0  0  0  0
   36.9040   27.9560   32.8460 C   0  0  0  0  0  0  0  0  0  0  0  0
   37.0700   26.4520   33.0220 C   0  0  0  0  0  0  0  0  0  0  0  0
   38.2650   23.7370   38.4730 C   0  0  0  0  0  0  0  0  0  0  0  0
   39.5570   23.3820   38.9010 F   0  0  0  0  0  0  0  0  0  0  0  0
   38.0040   24.9730   39.0330 F   0  0  0  0  0  0  0  0  0  0  0  0
   37.3400   22.8160   38.9020 F   0  0  0  0  0  0  0  0  0  0  0  0
   38.8238   21.7540   36.6767 H   0  0  0  0  0  0  0  0  0  0  0  0
   38.7269   21.9803   34.1431 H   0  0  0  0  0  0  0  0  0  0  0  0
   37.0671   27.5261   36.1369 H   0  0  0  0  0  0  0  0  0  0  0  0
   38.3699   28.1329   35.1707 H   0  0  0  0  0  0  0  0  0  0  0  0
   35.3459   27.9305   34.3825 H   0  0  0  0  0  0  0  0  0  0  0  0
   36.2416   29.4047   34.4068 H   0  0  0  0  0  0  0  0  0  0  0  0
   37.8646   28.4511   32.6410 H   0  0  0  0  0  0  0  0  0  0  0  0
   36.2678   28.2552   32.0000 H   0  0  0  0  0  0  0  0  0  0  0  0
   36.1265   25.9246   32.8177 H   0  0  0  0  0  0  0  0  0  0  0  0
   37.8079   26.0163   32.3323 H   0  0  0  0  0  0  0  0  0  0  0  0
  1 12  1  0
  2  1  2  0
  3  2  1  0
  4  3  2  0
  4  5  1  0
  5  6  2  0
  6  1  1  0
  7  5  1  0
  7  8  1  0
  9  8  1  0
 10 11  1  0
 10  9  1  0
 11  7  1  0
 12 13  1  0
 12 15  1  0
 12 14  1  0
  2 16  1  0
  3 17  1  0
  8 18  1  0
  8 19  1  0
  9 20  1  0
  9 21  1  0
 10 22  1  0
 10 23  1  0
 11 24  1  0
 11 25  1  0
M  ISO  8  16  14  17  14  18  13  19  13  20  13  21  13  22  13  23  13
M  ISO  2  24  13  25  13
M  END
>  <minimizedAffinity>  (1) 
-5.19200659

>  <minimizedRMSD>  (1) 
0.500070393

$$$$
