
     RDKit          3D

 35 39  0  0  0  0  0  0  0  0999 V2000
   40.5550   23.8930   35.3780 C   0  0  0  0  0  0  0  0  0  0  0  0
   41.7160   24.6220   35.1800 C   0  0  0  0  0  0  0  0  0  0  0  0
   42.8960   24.3130   35.7970 C   0  0  0  0  0  0  0  0  0  0  0  0
   42.8330   23.2120   36.6350 N   0  0  0  0  0  0  0  0  0  0  0  0
   41.7080   22.5140   36.8190 C   0  0  0  0  0  0  0  0  0  0  0  0
   40.5770   22.8420   36.2030 N   0  0  0  0  0  0  0  0  0  0  0  0
   39.4190   24.3810   34.6210 N   0  0  0  0  0  0  0  0  0  0  0  0
   38.9160   23.6670   33.5910 C   0  0  0  0  0  0  0  0  0  0  0  0
   37.8710   24.4390   33.1290 N   0  0  0  0  0  0  0  0  0  0  0  0
   37.7770   25.5610   33.8690 C   0  0  0  0  0  0  0  0  0  0  0  0
   36.9630   26.6750   33.8840 C   0  0  0  0  0  0  0  0  0  0  0  0
   37.1240   27.6790   34.7840 N   0  0  0  0  0  0  0  0  0  0  0  0
   38.1140   27.5980   35.7050 C   0  0  0  0  0  0  0  0  0  0  0  0
   38.9120   26.5130   35.6960 N   0  0  0  0  0  0  0  0  0  0  0  0
   38.7720   25.5270   34.8310 C   0  0  0  0  0  0  0  0  0  0  0  0
   44.1010   25.0710   35.5850 C   0  0  0  0  0  0  0  0  0  0  0  0
   44.4890   25.6050   34.3710 C   0  0  0  0  0  0  0  0  0  0  0  0
   45.6700   26.2250   34.5990 N   0  0  0  0  0  0  0  0  0  0  0  0
   45.9700   26.0630   35.9090 C   0  0  0  0  0  0  0  0  0  0  0  0
   45.0260   25.3630   36.5210 N   0  0  0  0  0  0  0  0  0  0  0  0
   45.1850   25.0760   37.9200 C   0  0  0  0  0  0  0  0  0  0  0  0
   44.7630   26.1580   38.9050 C   0  0  0  0  0  0  0  0  0  0  0  0
   46.1840   25.9060   38.7040 C   0  0  0  0  0  0  0  0  0  0  0  0
   41.6873   25.4849   34.4984 H   0  0  0  0  0  0  0  0  0  0  0  0
   41.7186   21.6474   37.4964 H   0  0  0  0  0  0  0  0  0  0  0  0
   39.2602   22.6946   33.2090 H   0  0  0  0  0  0  0  0  0  0  0  0
   36.1555   26.7525   33.1410 H   0  0  0  0  0  0  0  0  0  0  0  0
   38.2628   28.3998   36.4432 H   0  0  0  0  0  0  0  0  0  0  0  0
   43.9486   25.5395   33.4151 H   0  0  0  0  0  0  0  0  0  0  0  0
   46.8728   26.4579   36.3979 H   0  0  0  0  0  0  0  0  0  0  0  0
   44.9857   24.0033   37.7801 H   0  0  0  0  0  0  0  0  0  0  0  0
   44.3153   27.0914   38.5331 H   0  0  0  0  0  0  0  0  0  0  0  0
   44.1016   26.1853   39.7835 H   0  0  0  0  0  0  0  0  0  0  0  0
   46.7736   25.4367   39.5053 H   0  0  0  0  0  0  0  0  0  0  0  0
   47.0446   26.5338   38.4299 H   0  0  0  0  0  0  0  0  0  0  0  0
  1  6  1  0
  2  1  2  0
  2  3  1  0
  3  4  2  0
  4  5  1  0
  6  5  2  0
  7 15  1  0
  7  1  1  0
  8  7  1  0
  9  8  2  0
  9 10  1  0
 10 11  2  0
 10 15  1  0
 11 12  1  0
 12 13  2  0
 14 13  1  0
 15 14  2  0
 16  3  1  0
 16 20  1  0
 17 18  1  0
 17 16  2  0
 18 19  2  0
 19 20  1  0
 20 21  1  0
 21 23  1  0
 21 22  1  0
 23 22  1  0
  2 24  1  0
  5 25  1  0
  8 26  1  0
 11 27  1  0
 13 28  1  0
 17 29  1  0
 19 30  1  0
 21 31  1  0
 22 32  1  0
 22 33  1  0
 23 34  1  0
 23 35  1  0
M  ISO  8  24  14  25  14  26  14  27  14  28  14  29  14  30  14  31  13
M  ISO  4  32  13  33  13  34  13  35  13
M  END
>  <minimizedAffinity>  (1) 
-5.22895241

>  <minimizedRMSD>  (1) 
7.50357533

$$$$
