
     RDKit          3D

 41 45  0  0  0  0  0  0  0  0999 V2000
   40.1640   22.6070   34.6630 C   0  0  0  0  0  0  0  0  0  0  0  0
   39.9260   22.8110   33.3100 C   0  0  0  0  0  0  0  0  0  0  0  0
   40.6520   22.1850   32.3350 C   0  0  0  0  0  0  0  0  0  0  0  0
   41.6410   21.3260   32.7860 N   0  0  0  0  0  0  0  0  0  0  0  0
   41.8670   21.1260   34.0900 C   0  0  0  0  0  0  0  0  0  0  0  0
   41.1450   21.7530   35.0240 N   0  0  0  0  0  0  0  0  0  0  0  0
   39.3330   23.3960   35.5410 N   0  0  0  0  0  0  0  0  0  0  0  0
   38.5620   22.8240   36.4580 C   0  0  0  0  0  0  0  0  0  0  0  0
   37.9310   23.8640   37.0890 N   0  0  0  0  0  0  0  0  0  0  0  0
   38.3370   25.0390   36.5360 C   0  0  0  0  0  0  0  0  0  0  0  0
   38.0630   26.3820   36.7300 C   0  0  0  0  0  0  0  0  0  0  0  0
   38.6460   27.3510   35.9810 N   0  0  0  0  0  0  0  0  0  0  0  0
   39.5140   27.0110   35.0230 C   0  0  0  0  0  0  0  0  0  0  0  0
   39.7900   25.7070   34.8260 N   0  0  0  0  0  0  0  0  0  0  0  0
   39.2360   24.7300   35.5440 C   0  0  0  0  0  0  0  0  0  0  0  0
   40.3910   22.4180   30.9360 C   0  0  0  0  0  0  0  0  0  0  0  0
   41.0700   23.3890   30.1810 C   0  0  0  0  0  0  0  0  0  0  0  0
   40.5560   23.2410   28.9130 N   0  0  0  0  0  0  0  0  0  0  0  0
   39.6380   22.2410   28.9540 C   0  0  0  0  0  0  0  0  0  0  0  0
   39.5130   21.7240   30.1660 N   0  0  0  0  0  0  0  0  0  0  0  0
   38.5630   20.7110   30.3780 C   0  0  0  0  0  0  0  0  0  0  0  0
   37.5410   21.1620   31.3940 C   0  0  0  0  0  0  0  0  0  0  0  0
   36.9770   19.8830   31.9900 C   0  0  0  0  0  0  0  0  0  0  0  0
   38.0370   18.8280   31.7730 C   0  0  0  0  0  0  0  0  0  0  0  0
   39.2210   19.4990   31.1070 C   0  0  0  0  0  0  0  0  0  0  0  0
   39.1237   23.5018   33.0117 H   0  0  0  0  0  0  0  0  0  0  0  0
   42.6625   20.4320   34.3991 H   0  0  0  0  0  0  0  0  0  0  0  0
   38.4533   21.7493   36.6660 H   0  0  0  0  0  0  0  0  0  0  0  0
   37.3503   26.6724   37.5160 H   0  0  0  0  0  0  0  0  0  0  0  0
   39.9953   27.7835   34.4053 H   0  0  0  0  0  0  0  0  0  0  0  0
   41.8346   24.1017   30.5237 H   0  0  0  0  0  0  0  0  0  0  0  0
   39.0640   21.8997   28.0799 H   0  0  0  0  0  0  0  0  0  0  0  0
   38.1426   20.4687   29.3908 H   0  0  0  0  0  0  0  0  0  0  0  0
   38.0174   21.7734   32.1745 H   0  0  0  0  0  0  0  0  0  0  0  0
   36.7559   21.7832   30.9382 H   0  0  0  0  0  0  0  0  0  0  0  0
   36.7811   20.0145   33.0644 H   0  0  0  0  0  0  0  0  0  0  0  0
   36.0230   19.6024   31.5197 H   0  0  0  0  0  0  0  0  0  0  0  0
   38.3430   18.3994   32.7388 H   0  0  0  0  0  0  0  0  0  0  0  0
   37.6490   18.0142   31.1427 H   0  0  0  0  0  0  0  0  0  0  0  0
   39.7089   18.8222   30.3901 H   0  0  0  0  0  0  0  0  0  0  0  0
   40.0114   19.7915   31.8139 H   0  0  0  0  0  0  0  0  0  0  0  0
  1  6  1  0
  1  7  1  0
  2  1  2  0
  3  4  2  0
  3  2  1  0
  4  5  1  0
  5  6  2  0
  7 15  1  0
  7  8  1  0
  8  9  2  0
 10 11  2  0
 10  9  1  0
 12 11  1  0
 13 12  2  0
 14 13  1  0
 14 15  2  0
 15 10  1  0
 16  3  1  0
 17 16  2  0
 18 19  2  0
 18 17  1  0
 19 20  1  0
 20 21  1  0
 20 16  1  0
 21 25  1  0
 21 22  1  0
 22 23  1  0
 24 23  1  0
 25 24  1  0
  2 26  1  0
  5 27  1  0
  8 28  1  0
 11 29  1  0
 13 30  1  0
 17 31  1  0
 19 32  1  0
 21 33  1  0
 22 34  1  0
 22 35  1  0
 23 36  1  0
 23 37  1  0
 24 38  1  0
 24 39  1  0
 25 40  1  0
 25 41  1  0
M  ISO  8  26  14  27  14  28  14  29  14  30  14  31  14  32  14  33  13
M  ISO  8  34  13  35  13  36  13  37  13  38  13  39  13  40  13  41  13
M  END
>  <minimizedAffinity>  (1) 
-3.78947568

>  <minimizedRMSD>  (1) 
7.64654922

$$$$
