
     RDKit          3D

 34 37  0  0  0  0  0  0  0  0999 V2000
   38.4940   23.9770   35.7920 C   0  0  0  0  0  0  0  0  0  0  0  0
   39.7650   23.4310   35.7110 C   0  0  0  0  0  0  0  0  0  0  0  0
   40.4160   22.9050   36.7790 C   0  0  0  0  0  0  0  0  0  0  0  0
   39.7120   22.9560   37.9630 N   0  0  0  0  0  0  0  0  0  0  0  0
   38.4860   23.4820   38.0440 C   0  0  0  0  0  0  0  0  0  0  0  0
   37.8700   23.9900   36.9880 N   0  0  0  0  0  0  0  0  0  0  0  0
   37.9780   24.5020   34.5460 N   0  0  0  0  0  0  0  0  0  0  0  0
   37.9350   23.7360   33.4380 C   0  0  0  0  0  0  0  0  0  0  0  0
   37.4070   24.5440   32.4750 N   0  0  0  0  0  0  0  0  0  0  0  0
   37.1410   25.7710   33.0080 C   0  0  0  0  0  0  0  0  0  0  0  0
   36.6200   26.9680   32.5570 C   0  0  0  0  0  0  0  0  0  0  0  0
   36.4760   28.0460   33.3620 N   0  0  0  0  0  0  0  0  0  0  0  0
   36.8500   27.9660   34.6520 C   0  0  0  0  0  0  0  0  0  0  0  0
   37.3640   26.7960   35.1030 N   0  0  0  0  0  0  0  0  0  0  0  0
   37.5120   25.7330   34.3360 C   0  0  0  0  0  0  0  0  0  0  0  0
   41.7310   22.3320   36.6550 C   0  0  0  0  0  0  0  0  0  0  0  0
   42.0080   20.9770   36.8350 C   0  0  0  0  0  0  0  0  0  0  0  0
   43.3450   20.8450   36.6350 N   0  0  0  0  0  0  0  0  0  0  0  0
   43.8230   22.0870   36.3500 C   0  0  0  0  0  0  0  0  0  0  0  0
   42.8640   22.9950   36.3570 N   0  0  0  0  0  0  0  0  0  0  0  0
   43.2220   24.3450   36.0220 C   0  0  0  0  0  0  0  0  0  0  0  0
   44.3230   24.9310   36.8800 C   0  0  0  0  0  0  0  0  0  0  0  0
   40.2704   23.4236   34.7340 H   0  0  0  0  0  0  0  0  0  0  0  0
   37.9735   23.4932   39.0172 H   0  0  0  0  0  0  0  0  0  0  0  0
   38.2555   22.6889   33.3335 H   0  0  0  0  0  0  0  0  0  0  0  0
   36.3107   27.0479   31.5044 H   0  0  0  0  0  0  0  0  0  0  0  0
   36.7411   28.8297   35.3245 H   0  0  0  0  0  0  0  0  0  0  0  0
   41.2923   20.1805   37.0867 H   0  0  0  0  0  0  0  0  0  0  0  0
   44.8798   22.3078   36.1394 H   0  0  0  0  0  0  0  0  0  0  0  0
   43.5562   24.3624   34.9741 H   0  0  0  0  0  0  0  0  0  0  0  0
   42.3268   24.9599   36.1967 H   0  0  0  0  0  0  0  0  0  0  0  0
   44.0708   24.7968   37.9423 H   0  0  0  0  0  0  0  0  0  0  0  0
   45.2711   24.4182   36.6606 H   0  0  0  0  0  0  0  0  0  0  0  0
   44.4271   26.0039   36.6606 H   0  0  0  0  0  0  0  0  0  0  0  0
  1  6  1  0
  2  1  2  0
  2  3  1  0
  3  4  2  0
  4  5  1  0
  6  5  2  0
  7  1  1  0
  8  7  1  0
  9 10  1  0
  9  8  2  0
 10 15  2  0
 11 10  1  0
 11 12  2  0
 12 13  1  0
 13 14  2  0
 15  7  1  0
 15 14  1  0
 16  3  1  0
 16 17  2  0
 18 17  1  0
 19 20  1  0
 19 18  2  0
 20 16  1  0
 21 20  1  0
 21 22  1  0
  2 23  1  0
  5 24  1  0
  8 25  1  0
 11 26  1  0
 13 27  1  0
 17 28  1  0
 19 29  1  0
 21 30  1  0
 21 31  1  0
 22 32  1  0
 22 33  1  0
 22 34  1  0
M  ISO  8  23  14  24  14  25  14  26  14  27  14  28  14  29  14  30   8
M  ISO  4  31   8  32   8  33   8  34   8
M  END
>  <minimizedAffinity>  (1) 
-5.13447857

>  <minimizedRMSD>  (1) 
7.67473793

$$$$
