
     RDKit          3D

 27 28  0  0  0  0  0  0  0  0999 V2000
   38.2020   23.8210   36.9780 C   0  0  0  0  0  0  0  0  0  0  0  0
   38.4130   22.6160   36.2710 C   0  0  0  0  0  0  0  0  0  0  0  0
   38.3880   22.6920   34.8610 C   0  0  0  0  0  0  0  0  0  0  0  0
   38.1640   23.9090   34.2840 N   0  0  0  0  0  0  0  0  0  0  0  0
   37.9690   25.0230   35.0120 C   0  0  0  0  0  0  0  0  0  0  0  0
   37.9860   24.9850   36.3550 N   0  0  0  0  0  0  0  0  0  0  0  0
   37.7410   26.2590   34.3490 N   0  0  0  0  0  0  0  0  0  0  0  0
   37.7220   26.2920   32.8930 C   0  0  0  0  0  0  0  0  0  0  0  0
   37.3390   27.6390   32.3740 C   0  0  0  0  0  0  0  0  0  0  0  0
   36.2680   28.2720   33.0760 N   0  0  0  0  0  0  0  0  0  0  0  0
   36.3630   28.2600   34.5000 C   0  0  0  0  0  0  0  0  0  0  0  0
   37.5260   27.4890   35.0560 C   0  0  0  0  0  0  0  0  0  0  0  0
   38.2220   23.7790   38.4780 C   0  0  0  0  0  0  0  0  0  0  0  0
   39.4900   23.4730   38.9650 F   0  0  0  0  0  0  0  0  0  0  0  0
   37.8780   25.0260   38.9890 F   0  0  0  0  0  0  0  0  0  0  0  0
   37.2900   22.8420   38.9170 F   0  0  0  0  0  0  0  0  0  0  0  0
   38.5884   21.6642   36.7938 H   0  0  0  0  0  0  0  0  0  0  0  0
   38.5448   21.7948   34.2442 H   0  0  0  0  0  0  0  0  0  0  0  0
   38.7243   26.0376   32.5179 H   0  0  0  0  0  0  0  0  0  0  0  0
   36.9733   25.5655   32.5441 H   0  0  0  0  0  0  0  0  0  0  0  0
   38.2216   28.2926   32.4359 H   0  0  0  0  0  0  0  0  0  0  0  0
   36.9837   27.4833   31.3447 H   0  0  0  0  0  0  0  0  0  0  0  0
   36.2278   29.2549   32.7707 H   0  0  0  0  0  0  0  0  0  0  0  0
   36.4489   29.3012   34.8443 H   0  0  0  0  0  0  0  0  0  0  0  0
   35.4576   27.7512   34.8625 H   0  0  0  0  0  0  0  0  0  0  0  0
   37.3282   27.2610   36.1138 H   0  0  0  0  0  0  0  0  0  0  0  0
   38.4288   28.1076   34.9452 H   0  0  0  0  0  0  0  0  0  0  0  0
  1 13  1  0
  2  1  2  0
  3  2  1  0
  4  3  2  0
  4  5  1  0
  5  6  2  0
  6  1  1  0
  7  5  1  0
  7 12  1  0
  8  7  1  0
  9  8  1  0
  9 10  1  0
 10 11  1  0
 11 12  1  0
 13 16  1  0
 13 14  1  0
 13 15  1  0
  2 17  1  0
  3 18  1  0
  8 19  1  0
  8 20  1  0
  9 21  1  0
  9 22  1  0
 10 23  1  0
 11 24  1  0
 11 25  1  0
 12 26  1  0
 12 27  1  0
M  ISO  8  17  14  18  14  19  13  20  13  21  13  22  13  23   5  24  13
M  ISO  3  25  13  26  13  27  13
M  END
>  <minimizedAffinity>  (1) 
-5.18296766

>  <minimizedRMSD>  (1) 
0.475257695

$$$$
