
     RDKit          3D

 48 53  0  0  0  0  0  0  0  0999 V2000
   41.9220   22.2300   36.6330 C   0  0  0  0  0  0  0  0  0  0  0  0
   42.1850   20.8610   36.7320 C   0  0  0  0  0  0  0  0  0  0  0  0
   43.5140   20.7300   36.5020 N   0  0  0  0  0  0  0  0  0  0  0  0
   44.0080   21.9880   36.2770 C   0  0  0  0  0  0  0  0  0  0  0  0
   43.0500   22.8980   36.3550 N   0  0  0  0  0  0  0  0  0  0  0  0
   38.6580   23.9000   35.9330 C   0  0  0  0  0  0  0  0  0  0  0  0
   39.9260   23.3450   35.7900 C   0  0  0  0  0  0  0  0  0  0  0  0
   40.6130   22.7960   36.8120 C   0  0  0  0  0  0  0  0  0  0  0  0
   39.9500   22.8280   38.0280 N   0  0  0  0  0  0  0  0  0  0  0  0
   38.7340   23.3580   38.1730 C   0  0  0  0  0  0  0  0  0  0  0  0
   38.0830   23.8900   37.1490 N   0  0  0  0  0  0  0  0  0  0  0  0
   38.0970   24.4380   34.7030 N   0  0  0  0  0  0  0  0  0  0  0  0
   37.9690   23.6860   33.6040 C   0  0  0  0  0  0  0  0  0  0  0  0
   37.4210   24.5110   32.6750 N   0  0  0  0  0  0  0  0  0  0  0  0
   37.2250   25.7530   33.2270 C   0  0  0  0  0  0  0  0  0  0  0  0
   36.7210   26.9680   32.8010 C   0  0  0  0  0  0  0  0  0  0  0  0
   36.6670   28.0420   33.6310 N   0  0  0  0  0  0  0  0  0  0  0  0
   37.1020   27.9440   34.8890 C   0  0  0  0  0  0  0  0  0  0  0  0
   37.5960   26.7470   35.3020 N   0  0  0  0  0  0  0  0  0  0  0  0
   37.6640   25.6830   34.5210 C   0  0  0  0  0  0  0  0  0  0  0  0
   43.4210   24.2770   36.1340 C   0  0  0  0  0  0  0  0  0  0  0  0
   44.2050   24.9030   37.2540 C   0  0  0  0  0  0  0  0  0  0  0  0
   45.4060   25.5500   36.6700 C   0  0  0  0  0  0  0  0  0  0  0  0
   45.5970   26.4400   35.6380 C   0  0  0  0  0  0  0  0  0  0  0  0
   46.9340   26.6960   35.5460 N   0  0  0  0  0  0  0  0  0  0  0  0
   47.5720   25.9940   36.4840 C   0  0  0  0  0  0  0  0  0  0  0  0
   48.9140   25.9140   36.7940 C   0  0  0  0  0  0  0  0  0  0  0  0
   49.3350   25.1080   37.8240 C   0  0  0  0  0  0  0  0  0  0  0  0
   48.4520   24.3610   38.5760 C   0  0  0  0  0  0  0  0  0  0  0  0
   47.1280   24.4730   38.2310 C   0  0  0  0  0  0  0  0  0  0  0  0
   46.6550   25.2570   37.2190 C   0  0  0  0  0  0  0  0  0  0  0  0
   41.4649   20.0588   36.9506 H   0  0  0  0  0  0  0  0  0  0  0  0
   45.0628   22.2124   36.0599 H   0  0  0  0  0  0  0  0  0  0  0  0
   40.3912   23.3547   34.7932 H   0  0  0  0  0  0  0  0  0  0  0  0
   38.2609   23.3531   39.1661 H   0  0  0  0  0  0  0  0  0  0  0  0
   38.2472   22.6290   33.4799 H   0  0  0  0  0  0  0  0  0  0  0  0
   36.3560   27.0670   31.7681 H   0  0  0  0  0  0  0  0  0  0  0  0
   37.0619   28.8061   35.5711 H   0  0  0  0  0  0  0  0  0  0  0  0
   44.0307   24.3257   35.2197 H   0  0  0  0  0  0  0  0  0  0  0  0
   42.4812   24.8436   36.0575 H   0  0  0  0  0  0  0  0  0  0  0  0
   43.5877   25.6558   37.7661 H   0  0  0  0  0  0  0  0  0  0  0  0
   44.5022   24.1374   37.9858 H   0  0  0  0  0  0  0  0  0  0  0  0
   44.8106   26.8693   34.9999 H   0  0  0  0  0  0  0  0  0  0  0  0
   47.3779   27.3276   34.8642 H   0  0  0  0  0  0  0  0  0  0  0  0
   49.6473   26.4958   36.2162 H   0  0  0  0  0  0  0  0  0  0  0  0
   50.4090   25.0568   38.0561 H   0  0  0  0  0  0  0  0  0  0  0  0
   48.7880   23.7156   39.4010 H   0  0  0  0  0  0  0  0  0  0  0  0
   46.3972   23.8901   38.8108 H   0  0  0  0  0  0  0  0  0  0  0  0
  1  2  2  0
  1  8  1  0
  3  2  1  0
  4  5  1  0
  4  3  2  0
  5  1  1  0
  6 11  1  0
  7  6  2  0
  7  8  1  0
  8  9  2  0
  9 10  1  0
 11 10  2  0
 12  6  1  0
 13 12  1  0
 14 15  1  0
 14 13  2  0
 15 20  2  0
 16 15  1  0
 16 17  2  0
 17 18  1  0
 18 19  2  0
 20 12  1  0
 20 19  1  0
 21  5  1  0
 21 22  1  0
 23 31  1  0
 23 22  1  0
 24 23  2  0
 25 24  1  0
 25 26  1  0
 26 27  2  0
 26 31  1  0
 27 28  1  0
 28 29  2  0
 30 29  1  0
 31 30  2  0
  2 32  1  0
  4 33  1  0
  7 34  1  0
 10 35  1  0
 13 36  1  0
 16 37  1  0
 18 38  1  0
 21 39  1  0
 21 40  1  0
 22 41  1  0
 22 42  1  0
 24 43  1  0
 25 44  1  0
 27 45  1  0
 28 46  1  0
 29 47  1  0
 30 48  1  0
M  ISO  8  32  14  33  14  34  14  35  14  36  14  37  14  38  14  39   8
M  ISO  8  40   8  41   8  42   8  43  14  44   9  45  14  46  14  47  14
M  ISO  1  48  14
M  END
>  <minimizedAffinity>  (1) 
-6.50179768

>  <minimizedRMSD>  (1) 
1.9703449

$$$$
