
     RDKit          3D

 41 45  0  0  0  0  0  0  0  0999 V2000
   38.6650   23.8930   35.9280 C   0  0  0  0  0  0  0  0  0  0  0  0
   39.9200   23.3150   35.7720 C   0  0  0  0  0  0  0  0  0  0  0  0
   40.6100   22.7570   36.8050 C   0  0  0  0  0  0  0  0  0  0  0  0
   39.9650   22.8120   38.0110 N   0  0  0  0  0  0  0  0  0  0  0  0
   38.7590   23.3670   38.1600 C   0  0  0  0  0  0  0  0  0  0  0  0
   38.1040   23.9020   37.1550 N   0  0  0  0  0  0  0  0  0  0  0  0
   38.0980   24.4330   34.7000 N   0  0  0  0  0  0  0  0  0  0  0  0
   37.9600   23.6720   33.6070 C   0  0  0  0  0  0  0  0  0  0  0  0
   37.4070   24.5030   32.6800 N   0  0  0  0  0  0  0  0  0  0  0  0
   37.2240   25.7380   33.2280 C   0  0  0  0  0  0  0  0  0  0  0  0
   36.7250   26.9640   32.8170 C   0  0  0  0  0  0  0  0  0  0  0  0
   36.6740   28.0420   33.6240 N   0  0  0  0  0  0  0  0  0  0  0  0
   37.1240   27.9410   34.8910 C   0  0  0  0  0  0  0  0  0  0  0  0
   37.6140   26.7530   35.3090 N   0  0  0  0  0  0  0  0  0  0  0  0
   37.6730   25.6890   34.5390 C   0  0  0  0  0  0  0  0  0  0  0  0
   41.9140   22.1650   36.6050 C   0  0  0  0  0  0  0  0  0  0  0  0
   42.1900   20.8250   36.8590 C   0  0  0  0  0  0  0  0  0  0  0  0
   43.4990   20.6630   36.5530 N   0  0  0  0  0  0  0  0  0  0  0  0
   43.9690   21.8730   36.1340 C   0  0  0  0  0  0  0  0  0  0  0  0
   43.0180   22.7890   36.1620 N   0  0  0  0  0  0  0  0  0  0  0  0
   43.3520   24.1150   35.7500 C   0  0  0  0  0  0  0  0  0  0  0  0
   44.8280   24.4700   35.8620 C   0  0  0  0  0  0  0  0  0  0  0  0
   45.1540   25.0440   37.1690 C   0  0  0  0  0  0  0  0  0  0  0  0
   46.1810   24.7640   38.0530 C   0  0  0  0  0  0  0  0  0  0  0  0
   46.0300   25.5790   39.1250 N   0  0  0  0  0  0  0  0  0  0  0  0
   44.9500   26.3540   38.9440 C   0  0  0  0  0  0  0  0  0  0  0  0
   44.4430   26.0120   37.7640 N   0  0  0  0  0  0  0  0  0  0  0  0
   40.3753   23.3082   34.7707 H   0  0  0  0  0  0  0  0  0  0  0  0
   38.2986   23.3763   39.1589 H   0  0  0  0  0  0  0  0  0  0  0  0
   38.2321   22.6132   33.4850 H   0  0  0  0  0  0  0  0  0  0  0  0
   36.3540   27.0614   31.7860 H   0  0  0  0  0  0  0  0  0  0  0  0
   37.0930   28.8064   35.5693 H   0  0  0  0  0  0  0  0  0  0  0  0
   41.4925   20.0595   37.2298 H   0  0  0  0  0  0  0  0  0  0  0  0
   45.0046   22.0612   35.8146 H   0  0  0  0  0  0  0  0  0  0  0  0
   42.7830   24.8199   36.3740 H   0  0  0  0  0  0  0  0  0  0  0  0
   43.1006   24.1776   34.6809 H   0  0  0  0  0  0  0  0  0  0  0  0
   45.4252   23.5580   35.7152 H   0  0  0  0  0  0  0  0  0  0  0  0
   45.0570   25.2222   35.0927 H   0  0  0  0  0  0  0  0  0  0  0  0
   46.9752   24.0162   37.9114 H   0  0  0  0  0  0  0  0  0  0  0  0
   44.5622   27.1185   39.6333 H   0  0  0  0  0  0  0  0  0  0  0  0
   43.6011   26.4412   37.3542 H   0  0  0  0  0  0  0  0  0  0  0  0
  1  6  1  0
  2  1  2  0
  2  3  1  0
  3  4  2  0
  4  5  1  0
  6  5  2  0
  7  1  1  0
  8  7  1  0
  9 10  1  0
  9  8  2  0
 10 15  2  0
 11 10  1  0
 11 12  2  0
 12 13  1  0
 13 14  2  0
 15  7  1  0
 15 14  1  0
 16  3  1  0
 16 17  2  0
 18 17  1  0
 19 20  1  0
 19 18  2  0
 20 16  1  0
 21 22  1  0
 21 20  1  0
 22 23  1  0
 23 27  1  0
 23 24  2  0
 24 25  1  0
 26 25  2  0
 27 26  1  0
  2 28  1  0
  5 29  1  0
  8 30  1  0
 11 31  1  0
 13 32  1  0
 17 33  1  0
 19 34  1  0
 21 35  1  0
 21 36  1  0
 22 37  1  0
 22 38  1  0
 24 39  1  0
 26 40  1  0
 27 41  1  0
M  ISO  8  28  14  29  14  30  14  31  14  32  14  33  14  34  14  35   8
M  ISO  6  36   8  37   8  38   8  39  14  40  14  41   9
M  END
>  <minimizedAffinity>  (1) 
-5.94593096

>  <minimizedRMSD>  (1) 
1.02985883

$$$$
