
     RDKit          3D

 50 54  0  0  0  0  0  0  0  0999 V2000
   38.5360   23.9590   35.8710 C   0  0  0  0  0  0  0  0  0  0  0  0
   39.7780   23.3420   35.7800 C   0  0  0  0  0  0  0  0  0  0  0  0
   40.4200   22.8130   36.8550 C   0  0  0  0  0  0  0  0  0  0  0  0
   39.7390   22.9390   38.0380 N   0  0  0  0  0  0  0  0  0  0  0  0
   38.5420   23.5340   38.1280 C   0  0  0  0  0  0  0  0  0  0  0  0
   37.9370   24.0420   37.0660 N   0  0  0  0  0  0  0  0  0  0  0  0
   38.0350   24.4570   34.5970 N   0  0  0  0  0  0  0  0  0  0  0  0
   38.0140   23.6860   33.4970 C   0  0  0  0  0  0  0  0  0  0  0  0
   37.4900   24.4860   32.5260 N   0  0  0  0  0  0  0  0  0  0  0  0
   37.2040   25.7090   33.0380 C   0  0  0  0  0  0  0  0  0  0  0  0
   36.6820   26.8940   32.5840 C   0  0  0  0  0  0  0  0  0  0  0  0
   36.5100   27.9880   33.3740 N   0  0  0  0  0  0  0  0  0  0  0  0
   36.8670   27.9190   34.6650 C   0  0  0  0  0  0  0  0  0  0  0  0
   37.3860   26.7540   35.1330 N   0  0  0  0  0  0  0  0  0  0  0  0
   37.5560   25.6880   34.3740 C   0  0  0  0  0  0  0  0  0  0  0  0
   41.7100   22.1760   36.7280 C   0  0  0  0  0  0  0  0  0  0  0  0
   41.9050   20.8070   36.9250 C   0  0  0  0  0  0  0  0  0  0  0  0
   43.2260   20.6000   36.7200 N   0  0  0  0  0  0  0  0  0  0  0  0
   43.7790   21.8050   36.4140 C   0  0  0  0  0  0  0  0  0  0  0  0
   42.8730   22.7630   36.4160 N   0  0  0  0  0  0  0  0  0  0  0  0
   43.2950   24.1060   36.1000 C   0  0  0  0  0  0  0  0  0  0  0  0
   44.0330   24.7950   37.2110 C   0  0  0  0  0  0  0  0  0  0  0  0
   45.3670   25.3480   36.8070 C   0  0  0  0  0  0  0  0  0  0  0  0
   46.0770   25.7550   38.0890 C   0  0  0  0  0  0  0  0  0  0  0  0
   47.5320   26.0260   37.7430 C   0  0  0  0  0  0  0  0  0  0  0  0
   48.2690   24.7530   37.3890 C   0  0  0  0  0  0  0  0  0  0  0  0
   47.2420   23.7060   37.0140 C   0  0  0  0  0  0  0  0  0  0  0  0
   46.2340   24.3760   36.0800 C   0  0  0  0  0  0  0  0  0  0  0  0
   40.2628   23.2790   34.7946 H   0  0  0  0  0  0  0  0  0  0  0  0
   38.0496   23.6021   39.1093 H   0  0  0  0  0  0  0  0  0  0  0  0
   38.3458   22.6416   33.4014 H   0  0  0  0  0  0  0  0  0  0  0  0
   36.3874   26.9629   31.5264 H   0  0  0  0  0  0  0  0  0  0  0  0
   36.7423   28.7863   35.3300 H   0  0  0  0  0  0  0  0  0  0  0  0
   41.1457   20.0566   37.1904 H   0  0  0  0  0  0  0  0  0  0  0  0
   44.8454   21.9601   36.1932 H   0  0  0  0  0  0  0  0  0  0  0  0
   43.9556   24.0626   35.2215 H   0  0  0  0  0  0  0  0  0  0  0  0
   42.3812   24.6903   35.9166 H   0  0  0  0  0  0  0  0  0  0  0  0
   43.4109   25.6253   37.5766 H   0  0  0  0  0  0  0  0  0  0  0  0
   44.2243   24.0362   37.9841 H   0  0  0  0  0  0  0  0  0  0  0  0
   45.1912   26.1835   36.1134 H   0  0  0  0  0  0  0  0  0  0  0  0
   45.6142   26.6635   38.5018 H   0  0  0  0  0  0  0  0  0  0  0  0
   46.0014   24.9569   38.8423 H   0  0  0  0  0  0  0  0  0  0  0  0
   47.5725   26.7120   36.8841 H   0  0  0  0  0  0  0  0  0  0  0  0
   48.0175   26.4696   38.6248 H   0  0  0  0  0  0  0  0  0  0  0  0
   48.9429   24.9360   36.5391 H   0  0  0  0  0  0  0  0  0  0  0  0
   48.8700   24.4094   38.2438 H   0  0  0  0  0  0  0  0  0  0  0  0
   47.7311   22.8654   36.5001 H   0  0  0  0  0  0  0  0  0  0  0  0
   46.7414   23.3113   37.9104 H   0  0  0  0  0  0  0  0  0  0  0  0
   45.5982   23.6009   35.6273 H   0  0  0  0  0  0  0  0  0  0  0  0
   46.7945   24.9267   35.3102 H   0  0  0  0  0  0  0  0  0  0  0  0
  1  6  1  0
  2  1  2  0
  2  3  1  0
  3  4  2  0
  4  5  1  0
  6  5  2  0
  7  1  1  0
  8  7  1  0
  9 10  1  0
  9  8  2  0
 10 15  2  0
 11 10  1  0
 11 12  2  0
 12 13  1  0
 13 14  2  0
 15  7  1  0
 15 14  1  0
 16  3  1  0
 16 17  2  0
 18 17  1  0
 19 20  1  0
 19 18  2  0
 20 16  1  0
 21 20  1  0
 21 22  1  0
 23 22  1  0
 23 24  1  0
 25 24  1  0
 26 25  1  0
 27 26  1  0
 28 23  1  0
 28 27  1  0
  2 29  1  0
  5 30  1  0
  8 31  1  0
 11 32  1  0
 13 33  1  0
 17 34  1  0
 19 35  1  0
 21 36  1  0
 21 37  1  0
 22 38  1  0
 22 39  1  0
 23 40  1  0
 24 41  1  0
 24 42  1  0
 25 43  1  0
 25 44  1  0
 26 45  1  0
 26 46  1  0
 27 47  1  0
 27 48  1  0
 28 49  1  0
 28 50  1  0
M  ISO  8  29  14  30  14  31  14  32  14  33  14  34  14  35  14  36   8
M  ISO  8  37   8  38   8  39   8  40  13  41  13  42  13  43  13  44  13
M  ISO  6  45  13  46  13  47  13  48  13  49  13  50  13
M  END
>  <minimizedAffinity>  (1) 
-5.90309715

>  <minimizedRMSD>  (1) 
1.81233573

$$$$
