
     RDKit          3D

 42 46  0  0  0  0  0  0  0  0999 V2000
   38.7260   23.8810   35.9300 C   0  0  0  0  0  0  0  0  0  0  0  0
   40.0000   23.3570   35.7740 C   0  0  0  0  0  0  0  0  0  0  0  0
   40.7070   22.8060   36.7980 C   0  0  0  0  0  0  0  0  0  0  0  0
   40.0550   22.8120   38.0010 N   0  0  0  0  0  0  0  0  0  0  0  0
   38.8290   23.3160   38.1520 C   0  0  0  0  0  0  0  0  0  0  0  0
   38.1560   23.8470   37.1460 N   0  0  0  0  0  0  0  0  0  0  0  0
   38.1420   24.4240   34.7120 N   0  0  0  0  0  0  0  0  0  0  0  0
   37.9990   23.6500   33.6140 C   0  0  0  0  0  0  0  0  0  0  0  0
   37.4290   24.4810   32.6940 N   0  0  0  0  0  0  0  0  0  0  0  0
   37.2390   25.7120   33.2330 C   0  0  0  0  0  0  0  0  0  0  0  0
   36.7290   26.9340   32.8370 C   0  0  0  0  0  0  0  0  0  0  0  0
   36.6780   28.0150   33.6490 N   0  0  0  0  0  0  0  0  0  0  0  0
   37.1380   27.9190   34.9000 C   0  0  0  0  0  0  0  0  0  0  0  0
   37.6430   26.7330   35.3130 N   0  0  0  0  0  0  0  0  0  0  0  0
   37.7020   25.6660   34.5390 C   0  0  0  0  0  0  0  0  0  0  0  0
   42.0350   22.2690   36.5970 C   0  0  0  0  0  0  0  0  0  0  0  0
   42.3150   20.9040   36.6310 C   0  0  0  0  0  0  0  0  0  0  0  0
   43.6550   20.8120   36.4000 N   0  0  0  0  0  0  0  0  0  0  0  0
   44.1220   22.0790   36.2410 C   0  0  0  0  0  0  0  0  0  0  0  0
   43.1600   22.9660   36.3570 N   0  0  0  0  0  0  0  0  0  0  0  0
   43.4910   24.3550   36.2150 C   0  0  0  0  0  0  0  0  0  0  0  0
   44.3230   24.9380   37.3370 C   0  0  0  0  0  0  0  0  0  0  0  0
   45.5420   25.6020   36.8420 C   0  0  0  0  0  0  0  0  0  0  0  0
   45.6510   26.1620   35.5870 C   0  0  0  0  0  0  0  0  0  0  0  0
   46.8340   26.7590   35.2170 C   0  0  0  0  0  0  0  0  0  0  0  0
   47.8510   26.7810   36.0950 N   0  0  0  0  0  0  0  0  0  0  0  0
   47.7420   26.2320   37.3210 C   0  0  0  0  0  0  0  0  0  0  0  0
   46.5910   25.6420   37.7000 N   0  0  0  0  0  0  0  0  0  0  0  0
   40.4610   23.3881   34.7757 H   0  0  0  0  0  0  0  0  0  0  0  0
   38.3623   23.2887   39.1477 H   0  0  0  0  0  0  0  0  0  0  0  0
   38.2779   22.5932   33.4902 H   0  0  0  0  0  0  0  0  0  0  0  0
   36.3455   27.0326   31.8107 H   0  0  0  0  0  0  0  0  0  0  0  0
   37.1070   28.7841   35.5787 H   0  0  0  0  0  0  0  0  0  0  0  0
   41.6079   20.0798   36.8063 H   0  0  0  0  0  0  0  0  0  0  0  0
   45.1740   22.3300   36.0403 H   0  0  0  0  0  0  0  0  0  0  0  0
   44.0521   24.4768   35.2768 H   0  0  0  0  0  0  0  0  0  0  0  0
   42.5352   24.8993   36.2297 H   0  0  0  0  0  0  0  0  0  0  0  0
   43.7151   25.6751   37.8821 H   0  0  0  0  0  0  0  0  0  0  0  0
   44.6328   24.1101   37.9917 H   0  0  0  0  0  0  0  0  0  0  0  0
   44.8013   26.1318   34.8890 H   0  0  0  0  0  0  0  0  0  0  0  0
   46.9454   27.2103   34.2201 H   0  0  0  0  0  0  0  0  0  0  0  0
   48.5952   26.2655   38.0145 H   0  0  0  0  0  0  0  0  0  0  0  0
  1  6  1  0
  2  1  2  0
  2  3  1  0
  3  4  2  0
  4  5  1  0
  6  5  2  0
  7  1  1  0
  8  7  1  0
  9 10  1  0
  9  8  2  0
 10 15  2  0
 11 10  1  0
 11 12  2  0
 12 13  1  0
 13 14  2  0
 15  7  1  0
 15 14  1  0
 16 17  2  0
 16  3  1  0
 18 17  1  0
 19 20  1  0
 19 18  2  0
 20 16  1  0
 21 20  1  0
 21 22  1  0
 23 22  1  0
 23 28  1  0
 24 23  2  0
 25 24  1  0
 25 26  2  0
 26 27  1  0
 27 28  2  0
  2 29  1  0
  5 30  1  0
  8 31  1  0
 11 32  1  0
 13 33  1  0
 17 34  1  0
 19 35  1  0
 21 36  1  0
 21 37  1  0
 22 38  1  0
 22 39  1  0
 24 40  1  0
 25 41  1  0
 27 42  1  0
M  ISO  8  29  14  30  14  31  14  32  14  33  14  34  14  35  14  36   8
M  ISO  6  37   8  38   8  39   8  40  14  41  14  42  14
M  END
>  <minimizedAffinity>  (1) 
-5.65991449

>  <minimizedRMSD>  (1) 
1.29719257

$$$$
