
     RDKit          3D

 41 45  0  0  0  0  0  0  0  0999 V2000
   38.6140   23.9230   35.9090 C   0  0  0  0  0  0  0  0  0  0  0  0
   39.8830   23.3740   35.7730 C   0  0  0  0  0  0  0  0  0  0  0  0
   40.5570   22.8160   36.8210 C   0  0  0  0  0  0  0  0  0  0  0  0
   39.8850   22.8410   38.0100 N   0  0  0  0  0  0  0  0  0  0  0  0
   38.6650   23.3710   38.1370 C   0  0  0  0  0  0  0  0  0  0  0  0
   38.0240   23.9050   37.1210 N   0  0  0  0  0  0  0  0  0  0  0  0
   38.0620   24.4690   34.6790 N   0  0  0  0  0  0  0  0  0  0  0  0
   37.9420   23.7030   33.5720 C   0  0  0  0  0  0  0  0  0  0  0  0
   37.3980   24.5360   32.6450 N   0  0  0  0  0  0  0  0  0  0  0  0
   37.2000   25.7680   33.1930 C   0  0  0  0  0  0  0  0  0  0  0  0
   36.6990   26.9790   32.7660 C   0  0  0  0  0  0  0  0  0  0  0  0
   36.6310   28.0570   33.5770 N   0  0  0  0  0  0  0  0  0  0  0  0
   37.0630   27.9650   34.8560 C   0  0  0  0  0  0  0  0  0  0  0  0
   37.5540   26.7780   35.2770 N   0  0  0  0  0  0  0  0  0  0  0  0
   37.6290   25.7090   34.4950 C   0  0  0  0  0  0  0  0  0  0  0  0
   41.8810   22.2520   36.6410 C   0  0  0  0  0  0  0  0  0  0  0  0
   42.1480   20.8940   36.7490 C   0  0  0  0  0  0  0  0  0  0  0  0
   43.4780   20.7660   36.5170 N   0  0  0  0  0  0  0  0  0  0  0  0
   43.9600   22.0170   36.2820 C   0  0  0  0  0  0  0  0  0  0  0  0
   43.0030   22.9300   36.3540 N   0  0  0  0  0  0  0  0  0  0  0  0
   43.3560   24.2930   36.1290 C   0  0  0  0  0  0  0  0  0  0  0  0
   44.3790   24.8660   37.0970 C   0  0  0  0  0  0  0  0  0  0  0  0
   45.4230   25.6320   36.4600 C   0  0  0  0  0  0  0  0  0  0  0  0
   45.4230   26.4240   35.3540 C   0  0  0  0  0  0  0  0  0  0  0  0
   46.5400   27.0680   34.9200 C   0  0  0  0  0  0  0  0  0  0  0  0
   47.7430   26.7900   35.8110 C   0  0  0  0  0  0  0  0  0  0  0  0
   47.1090   25.6320   37.1640 S   0  0  0  0  0  0  0  0  0  0  0  0
   40.3629   23.3895   34.7833 H   0  0  0  0  0  0  0  0  0  0  0  0
   38.1808   23.3601   39.1247 H   0  0  0  0  0  0  0  0  0  0  0  0
   38.2209   22.6461   33.4489 H   0  0  0  0  0  0  0  0  0  0  0  0
   36.3424   27.0707   31.7294 H   0  0  0  0  0  0  0  0  0  0  0  0
   37.0160   28.8306   35.5332 H   0  0  0  0  0  0  0  0  0  0  0  0
   41.4314   20.0907   36.9752 H   0  0  0  0  0  0  0  0  0  0  0  0
   45.0136   22.2419   36.0598 H   0  0  0  0  0  0  0  0  0  0  0  0
   43.7672   24.3744   35.1120 H   0  0  0  0  0  0  0  0  0  0  0  0
   42.4349   24.8752   36.2790 H   0  0  0  0  0  0  0  0  0  0  0  0
   43.8539   25.5208   37.8081 H   0  0  0  0  0  0  0  0  0  0  0  0
   44.8658   24.0113   37.5894 H   0  0  0  0  0  0  0  0  0  0  0  0
   44.4865   26.5481   34.7905 H   0  0  0  0  0  0  0  0  0  0  0  0
   46.5705   27.7137   34.0300 H   0  0  0  0  0  0  0  0  0  0  0  0
   48.7646   27.1803   35.6925 H   0  0  0  0  0  0  0  0  0  0  0  0
  1  6  1  0
  2  1  2  0
  2  3  1  0
  3  4  2  0
  4  5  1  0
  6  5  2  0
  7  1  1  0
  8  7  1  0
  9 10  1  0
  9  8  2  0
 10 15  2  0
 11 10  1  0
 11 12  2  0
 12 13  1  0
 13 14  2  0
 15  7  1  0
 15 14  1  0
 16 17  2  0
 16  3  1  0
 18 17  1  0
 19 20  1  0
 19 18  2  0
 20 16  1  0
 21 20  1  0
 21 22  1  0
 23 22  1  0
 23 27  1  0
 24 23  2  0
 25 24  1  0
 25 26  2  0
 26 27  1  0
  2 28  1  0
  5 29  1  0
  8 30  1  0
 11 31  1  0
 13 32  1  0
 17 33  1  0
 19 34  1  0
 21 35  1  0
 21 36  1  0
 22 37  1  0
 22 38  1  0
 24 39  1  0
 25 40  1  0
 26 41  1  0
M  ISO  8  28  14  29  14  30  14  31  14  32  14  33  14  34  14  35   8
M  ISO  6  36   8  37   8  38   8  39  14  40  14  41  14
M  END
>  <minimizedAffinity>  (1) 
-5.495718

>  <minimizedRMSD>  (1) 
1.04002476

$$$$
