
     RDKit          3D

 24 25  0  0  0  0  0  0  0  0999 V2000
   43.2820   23.6310   36.2560 C   0  0  0  0  0  0  0  0  0  0  0  0
   41.8950   23.5790   36.0590 C   0  0  0  0  0  0  0  0  0  0  0  0
   41.3400   22.3670   35.6850 C   0  0  0  0  0  0  0  0  0  0  0  0
   42.1400   21.2820   35.5220 N   0  0  0  0  0  0  0  0  0  0  0  0
   43.4790   21.3690   35.7220 C   0  0  0  0  0  0  0  0  0  0  0  0
   44.0440   22.5350   36.0850 N   0  0  0  0  0  0  0  0  0  0  0  0
   39.9220   22.2430   35.4660 N   0  0  0  0  0  0  0  0  0  0  0  0
   39.0580   22.2980   36.4850 C   0  0  0  0  0  0  0  0  0  0  0  0
   37.8190   22.1470   35.9360 C   0  0  0  0  0  0  0  0  0  0  0  0
   37.9410   22.0060   34.6160 N   0  0  0  0  0  0  0  0  0  0  0  0
   39.2740   22.0640   34.2870 C   0  0  0  0  0  0  0  0  0  0  0  0
   36.6310   22.1500   36.7320 N   0  0  0  0  0  0  0  0  0  0  0  0
   35.7090   21.0930   36.5850 C   0  0  0  0  0  0  0  0  0  0  0  0
   35.4580   20.5620   35.4450 N   0  0  0  0  0  0  0  0  0  0  0  0
   35.0000   20.5620   37.7240 N   0  0  0  0  0  0  0  0  0  0  0  0
   35.9330   20.9010   34.5910 H   0  0  0  0  0  0  0  0  0  0  0  0
   43.7532   24.5792   36.5540 H   0  0  0  0  0  0  0  0  0  0  0  0
   41.2680   24.4722   36.1971 H   0  0  0  0  0  0  0  0  0  0  0  0
   44.1090   20.4776   35.5861 H   0  0  0  0  0  0  0  0  0  0  0  0
   39.2979   22.4368   37.5495 H   0  0  0  0  0  0  0  0  0  0  0  0
   39.7196   21.9829   33.2846 H   0  0  0  0  0  0  0  0  0  0  0  0
   36.4516   22.9117   37.4017 H   0  0  0  0  0  0  0  0  0  0  0  0
   34.3299   19.7898   37.5993 H   0  0  0  0  0  0  0  0  0  0  0  0
   35.1640   20.9552   38.6618 H   0  0  0  0  0  0  0  0  0  0  0  0
  2  1  2  0
  3  2  1  0
  4  3  2  0
  4  5  1  0
  5  6  2  0
  6  1  1  0
  7  3  1  0
  7  8  1  0
  9  8  2  0
  9 12  1  0
 10  9  1  0
 11 10  2  0
 11  7  1  0
 13 12  1  0
 13 15  1  0
 14 13  2  0
 16 14  1  0
  1 17  1  0
  2 18  1  0
  5 19  1  0
  8 20  1  0
 11 21  1  0
 12 22  1  0
 15 23  1  0
 15 24  1  0
M  ISO  5  17  14  18  14  19  14  20  14  21  14
M  END
>  <minimizedAffinity>  (1) 
-4.83965302

>  <minimizedRMSD>  (1) 
2.53611135

$$$$
