
     RDKit          3D

 31 34  0  0  0  0  0  0  0  0999 V2000
   40.8090   22.0050   37.5150 C   0  0  0  0  0  0  0  0  0  0  0  0
   39.9700   22.9240   36.8430 C   0  0  0  0  0  0  0  0  0  0  0  0
   40.5580   23.6450   35.7900 C   0  0  0  0  0  0  0  0  0  0  0  0
   41.8640   23.4400   35.4670 N   0  0  0  0  0  0  0  0  0  0  0  0
   42.6200   22.5440   36.1470 C   0  0  0  0  0  0  0  0  0  0  0  0
   42.0920   21.8360   37.1620 N   0  0  0  0  0  0  0  0  0  0  0  0
   39.7820   24.6040   35.0380 N   0  0  0  0  0  0  0  0  0  0  0  0
   38.8200   24.2080   34.2030 C   0  0  0  0  0  0  0  0  0  0  0  0
   38.2800   25.3230   33.6480 C   0  0  0  0  0  0  0  0  0  0  0  0
   38.9310   26.3650   34.1620 N   0  0  0  0  0  0  0  0  0  0  0  0
   39.8710   25.9340   35.0310 C   0  0  0  0  0  0  0  0  0  0  0  0
   37.1790   25.1410   32.6730 C   0  0  0  0  0  0  0  0  0  0  0  0
   36.5130   26.1490   32.0830 N   0  0  0  0  0  0  0  0  0  0  0  0
   35.5200   25.9930   31.2050 C   0  0  0  0  0  0  0  0  0  0  0  0
   35.1030   24.7690   30.8380 N   0  0  0  0  0  0  0  0  0  0  0  0
   35.7100   23.6860   31.3740 C   0  0  0  0  0  0  0  0  0  0  0  0
   35.2780   22.4550   30.9930 C   0  0  0  0  0  0  0  0  0  0  0  0
   35.8600   21.3140   31.5080 C   0  0  0  0  0  0  0  0  0  0  0  0
   36.8990   21.4830   32.4270 C   0  0  0  0  0  0  0  0  0  0  0  0
   37.2780   22.7530   32.7620 C   0  0  0  0  0  0  0  0  0  0  0  0
   36.7270   23.9060   32.2740 C   0  0  0  0  0  0  0  0  0  0  0  0
   40.3994   21.4143   38.3476 H   0  0  0  0  0  0  0  0  0  0  0  0
   38.9172   23.0662   37.1284 H   0  0  0  0  0  0  0  0  0  0  0  0
   43.6732   22.3945   35.8670 H   0  0  0  0  0  0  0  0  0  0  0  0
   38.5196   23.1692   34.0013 H   0  0  0  0  0  0  0  0  0  0  0  0
   40.5678   26.5541   35.6140 H   0  0  0  0  0  0  0  0  0  0  0  0
   35.0346   26.8812   30.7744 H   0  0  0  0  0  0  0  0  0  0  0  0
   34.4563   22.3669   30.2670 H   0  0  0  0  0  0  0  0  0  0  0  0
   35.5196   20.3122   31.2071 H   0  0  0  0  0  0  0  0  0  0  0  0
   37.4018   20.6117   32.8719 H   0  0  0  0  0  0  0  0  0  0  0  0
   38.0981   22.8569   33.4877 H   0  0  0  0  0  0  0  0  0  0  0  0
  2  1  2  0
  3  2  1  0
  4  3  2  0
  4  5  1  0
  5  6  2  0
  6  1  1  0
  7  3  1  0
  8  7  1  0
  9 10  1  0
  9  8  2  0
 10 11  2  0
 11  7  1  0
 12  9  1  0
 13 12  2  0
 14 13  1  0
 15 14  2  0
 15 16  1  0
 16 21  2  0
 17 16  1  0
 17 18  2  0
 18 19  1  0
 19 20  2  0
 21 12  1  0
 21 20  1  0
  1 22  1  0
  2 23  1  0
  5 24  1  0
  8 25  1  0
 11 26  1  0
 14 27  1  0
 17 28  1  0
 18 29  1  0
 19 30  1  0
 20 31  1  0
M  ISO  8  22  14  23  14  24  14  25  14  26  14  27  14  28  14  29  14
M  ISO  2  30  14  31  14
M  END
>  <minimizedAffinity>  (1) 
-5.25310183

>  <minimizedRMSD>  (1) 
3.61875796

$$$$
