
     RDKit          3D

 31 34  0  0  0  0  0  0  0  0999 V2000
   41.8070   21.3560   37.3380 C   0  0  0  0  0  0  0  0  0  0  0  0
   41.3690   22.6600   37.0080 C   0  0  0  0  0  0  0  0  0  0  0  0
   41.6200   23.0930   35.6930 C   0  0  0  0  0  0  0  0  0  0  0  0
   42.2460   22.2580   34.8470 N   0  0  0  0  0  0  0  0  0  0  0  0
   42.6510   21.0190   35.1880 C   0  0  0  0  0  0  0  0  0  0  0  0
   42.4290   20.5720   36.4380 N   0  0  0  0  0  0  0  0  0  0  0  0
   41.2130   24.3960   35.2790 N   0  0  0  0  0  0  0  0  0  0  0  0
   39.9220   24.7130   35.1300 C   0  0  0  0  0  0  0  0  0  0  0  0
   39.8920   26.0150   34.7350 C   0  0  0  0  0  0  0  0  0  0  0  0
   41.1630   26.4750   34.6480 N   0  0  0  0  0  0  0  0  0  0  0  0
   42.0070   25.4560   34.9900 C   0  0  0  0  0  0  0  0  0  0  0  0
   38.6450   26.7560   34.4590 C   0  0  0  0  0  0  0  0  0  0  0  0
   37.6770   27.1580   35.3620 C   0  0  0  0  0  0  0  0  0  0  0  0
   36.6980   27.8040   34.7360 N   0  0  0  0  0  0  0  0  0  0  0  0
   36.9870   27.8440   33.4260 C   0  0  0  0  0  0  0  0  0  0  0  0
   36.2710   28.4070   32.3830 C   0  0  0  0  0  0  0  0  0  0  0  0
   36.8190   28.2940   31.1260 C   0  0  0  0  0  0  0  0  0  0  0  0
   38.0240   27.6530   30.9070 C   0  0  0  0  0  0  0  0  0  0  0  0
   38.7260   27.0970   31.9620 C   0  0  0  0  0  0  0  0  0  0  0  0
   38.2010   27.1960   33.2240 C   0  0  0  0  0  0  0  0  0  0  0  0
   41.6351   20.9735   38.3549 H   0  0  0  0  0  0  0  0  0  0  0  0
   40.8588   23.3020   37.7412 H   0  0  0  0  0  0  0  0  0  0  0  0
   43.1585   20.3786   34.4515 H   0  0  0  0  0  0  0  0  0  0  0  0
   39.0573   24.0531   35.2940 H   0  0  0  0  0  0  0  0  0  0  0  0
   43.1060   25.4892   35.0238 H   0  0  0  0  0  0  0  0  0  0  0  0
   37.7124   26.9697   36.4452 H   0  0  0  0  0  0  0  0  0  0  0  0
   35.8602   28.2055   35.1808 H   0  0  0  0  0  0  0  0  0  0  0  0
   35.3120   28.9190   32.5510 H   0  0  0  0  0  0  0  0  0  0  0  0
   36.2819   28.7269   30.2692 H   0  0  0  0  0  0  0  0  0  0  0  0
   38.4280   27.5844   29.8862 H   0  0  0  0  0  0  0  0  0  0  0  0
   39.6852   26.5863   31.7912 H   0  0  0  0  0  0  0  0  0  0  0  0
  2  1  2  0
  3  2  1  0
  4  5  1  0
  4  3  2  0
  5  6  2  0
  6  1  1  0
  7  3  1  0
  8  7  1  0
  9  8  2  0
 10  9  1  0
 10 11  2  0
 11  7  1  0
 12  9  1  0
 12 13  2  0
 14 13  1  0
 15 14  1  0
 16 15  2  0
 17 16  1  0
 18 17  2  0
 18 19  1  0
 19 20  2  0
 20 15  1  0
 20 12  1  0
  1 21  1  0
  2 22  1  0
  5 23  1  0
  8 24  1  0
 11 25  1  0
 13 26  1  0
 14 27  1  0
 16 28  1  0
 17 29  1  0
 18 30  1  0
 19 31  1  0
M  ISO  8  21  14  22  14  23  14  24  14  25  14  26  14  27   9  28  14
M  ISO  3  29  14  30  14  31  14
M  END
>  <minimizedAffinity>  (1) 
-4.95136547

>  <minimizedRMSD>  (1) 
3.13615155

$$$$
