
     RDKit          3D

 21 22  0  0  0  0  0  0  0  0999 V2000
   38.4400   23.8370   37.0990 C   0  0  0  0  0  0  0  0  0  0  0  0
   39.2090   22.8240   36.4950 C   0  0  0  0  0  0  0  0  0  0  0  0
   39.3740   22.8920   35.1050 C   0  0  0  0  0  0  0  0  0  0  0  0
   38.7970   23.9050   34.4300 N   0  0  0  0  0  0  0  0  0  0  0  0
   38.0600   24.8670   35.0520 C   0  0  0  0  0  0  0  0  0  0  0  0
   37.8890   24.8230   36.3750 N   0  0  0  0  0  0  0  0  0  0  0  0
   37.4370   25.9620   34.3150 C   0  0  0  0  0  0  0  0  0  0  0  0
   37.1240   27.1350   35.0010 C   0  0  0  0  0  0  0  0  0  0  0  0
   36.5340   28.1620   34.2800 C   0  0  0  0  0  0  0  0  0  0  0  0
   36.2660   28.0570   32.9750 N   0  0  0  0  0  0  0  0  0  0  0  0
   36.5790   26.9070   32.3270 C   0  0  0  0  0  0  0  0  0  0  0  0
   37.1600   25.8640   32.9850 N   0  0  0  0  0  0  0  0  0  0  0  0
   38.2330   23.8110   38.5830 C   0  0  0  0  0  0  0  0  0  0  0  0
   39.4370   23.5710   39.2570 F   0  0  0  0  0  0  0  0  0  0  0  0
   37.7710   25.0330   39.0230 F   0  0  0  0  0  0  0  0  0  0  0  0
   37.3120   22.8190   38.8920 F   0  0  0  0  0  0  0  0  0  0  0  0
   39.6604   22.0149   37.0880 H   0  0  0  0  0  0  0  0  0  0  0  0
   39.9647   22.1310   34.5741 H   0  0  0  0  0  0  0  0  0  0  0  0
   37.3373   27.2417   36.0748 H   0  0  0  0  0  0  0  0  0  0  0  0
   36.2774   29.0964   34.8007 H   0  0  0  0  0  0  0  0  0  0  0  0
   36.3604   26.8146   31.2529 H   0  0  0  0  0  0  0  0  0  0  0  0
  1 13  1  0
  2  1  2  0
  3  2  1  0
  4  5  1  0
  4  3  2  0
  5  6  2  0
  6  1  1  0
  7  8  2  0
  7  5  1  0
  9  8  1  0
 10  9  2  0
 11 10  1  0
 11 12  2  0
 12  7  1  0
 13 16  1  0
 13 15  1  0
 13 14  1  0
  2 17  1  0
  3 18  1  0
  8 19  1  0
  9 20  1  0
 11 21  1  0
M  ISO  5  17  14  18  14  19  14  20  14  21  14
M  END
>  <minimizedAffinity>  (1) 
-5.02036619

>  <minimizedRMSD>  (1) 
1.06871271

$$$$
