
     RDKit          3D

 27 29  0  0  0  0  0  0  0  0999 V2000
   41.6240   21.4580   37.4200 C   0  0  0  0  0  0  0  0  0  0  0  0
   41.2240   22.7530   37.0450 C   0  0  0  0  0  0  0  0  0  0  0  0
   41.5400   23.1610   35.7370 C   0  0  0  0  0  0  0  0  0  0  0  0
   42.1950   22.3100   34.9210 N   0  0  0  0  0  0  0  0  0  0  0  0
   42.5640   21.0660   35.3200 C   0  0  0  0  0  0  0  0  0  0  0  0
   42.2690   20.6570   36.5780 N   0  0  0  0  0  0  0  0  0  0  0  0
   41.1690   24.4680   35.2700 N   0  0  0  0  0  0  0  0  0  0  0  0
   39.8670   24.7780   35.0500 C   0  0  0  0  0  0  0  0  0  0  0  0
   39.8730   26.0700   34.6220 C   0  0  0  0  0  0  0  0  0  0  0  0
   41.1320   26.5170   34.5870 N   0  0  0  0  0  0  0  0  0  0  0  0
   41.9550   25.5120   34.9930 C   0  0  0  0  0  0  0  0  0  0  0  0
   38.6830   26.8340   34.2620 C   0  0  0  0  0  0  0  0  0  0  0  0
   38.3320   27.0490   32.9460 C   0  0  0  0  0  0  0  0  0  0  0  0
   37.2390   27.7490   32.4870 C   0  0  0  0  0  0  0  0  0  0  0  0
   36.4200   28.2860   33.4860 C   0  0  0  0  0  0  0  0  0  0  0  0
   36.7230   28.1040   34.8260 C   0  0  0  0  0  0  0  0  0  0  0  0
   37.8380   27.3880   35.2030 C   0  0  0  0  0  0  0  0  0  0  0  0
   41.3976   21.0992   38.4349 H   0  0  0  0  0  0  0  0  0  0  0  0
   40.6893   23.4153   37.7418 H   0  0  0  0  0  0  0  0  0  0  0  0
   43.0972   20.3965   34.6290 H   0  0  0  0  0  0  0  0  0  0  0  0
   38.9928   24.1247   35.1880 H   0  0  0  0  0  0  0  0  0  0  0  0
   43.0511   25.5516   35.0766 H   0  0  0  0  0  0  0  0  0  0  0  0
   38.9950   26.6157   32.1827 H   0  0  0  0  0  0  0  0  0  0  0  0
   37.0257   27.8765   31.4154 H   0  0  0  0  0  0  0  0  0  0  0  0
   35.5247   28.8597   33.2045 H   0  0  0  0  0  0  0  0  0  0  0  0
   36.0668   28.5355   35.5962 H   0  0  0  0  0  0  0  0  0  0  0  0
   38.0589   27.2554   36.2724 H   0  0  0  0  0  0  0  0  0  0  0  0
  2  1  2  0
  3  2  1  0
  4  5  1  0
  4  3  2  0
  5  6  2  0
  6  1  1  0
  7  3  1  0
  8  7  1  0
  9  8  2  0
 10  9  1  0
 10 11  2  0
 11  7  1  0
 12  9  1  0
 12 17  1  0
 13 12  2  0
 14 13  1  0
 14 15  2  0
 15 16  1  0
 16 17  2  0
  1 18  1  0
  2 19  1  0
  5 20  1  0
  8 21  1  0
 11 22  1  0
 13 23  1  0
 14 24  1  0
 15 25  1  0
 16 26  1  0
 17 27  1  0
M  ISO  8  18  14  19  14  20  14  21  14  22  14  23  14  24  14  25  14
M  ISO  2  26  14  27  14
M  END
>  <minimizedAffinity>  (1) 
-4.50915766

>  <minimizedRMSD>  (1) 
2.78671432

$$$$
