
     RDKit          3D

 21 22  0  0  0  0  0  0  0  0999 V2000
   38.4330   23.8340   37.0960 C   0  0  0  0  0  0  0  0  0  0  0  0
   39.1930   22.8320   36.4720 C   0  0  0  0  0  0  0  0  0  0  0  0
   39.3490   22.9060   35.0760 C   0  0  0  0  0  0  0  0  0  0  0  0
   38.7620   23.9310   34.4290 N   0  0  0  0  0  0  0  0  0  0  0  0
   38.0330   24.8830   35.0670 C   0  0  0  0  0  0  0  0  0  0  0  0
   37.8720   24.8320   36.3970 N   0  0  0  0  0  0  0  0  0  0  0  0
   37.4230   25.9660   34.3070 C   0  0  0  0  0  0  0  0  0  0  0  0
   37.0820   27.1500   34.9580 C   0  0  0  0  0  0  0  0  0  0  0  0
   36.4980   28.2110   34.2790 C   0  0  0  0  0  0  0  0  0  0  0  0
   36.2850   28.0280   32.9670 N   0  0  0  0  0  0  0  0  0  0  0  0
   36.6030   26.8990   32.3100 C   0  0  0  0  0  0  0  0  0  0  0  0
   37.1730   25.8620   32.9750 N   0  0  0  0  0  0  0  0  0  0  0  0
   38.2440   23.7860   38.5950 C   0  0  0  0  0  0  0  0  0  0  0  0
   39.4510   23.5400   39.2360 F   0  0  0  0  0  0  0  0  0  0  0  0
   37.7670   25.0080   39.0470 F   0  0  0  0  0  0  0  0  0  0  0  0
   37.3300   22.8080   38.9040 F   0  0  0  0  0  0  0  0  0  0  0  0
   39.6501   22.0181   37.0540 H   0  0  0  0  0  0  0  0  0  0  0  0
   39.9323   22.1501   34.5297 H   0  0  0  0  0  0  0  0  0  0  0  0
   37.2803   27.2463   36.0357 H   0  0  0  0  0  0  0  0  0  0  0  0
   36.2256   29.1477   34.7874 H   0  0  0  0  0  0  0  0  0  0  0  0
   36.4010   26.8155   31.2319 H   0  0  0  0  0  0  0  0  0  0  0  0
  1 13  1  0
  2  1  2  0
  3  2  1  0
  4  5  1  0
  4  3  2  0
  5  6  2  0
  6  1  1  0
  7  8  2  0
  7  5  1  0
  9  8  1  0
 10  9  2  0
 11 10  1  0
 11 12  2  0
 12  7  1  0
 13 16  1  0
 13 15  1  0
 13 14  1  0
  2 17  1  0
  3 18  1  0
  8 19  1  0
  9 20  1  0
 11 21  1  0
M  ISO  5  17  14  18  14  19  14  20  14  21  14
M  END
>  <minimizedAffinity>  (1) 
-5.00822687

>  <minimizedRMSD>  (1) 
1.28325379

$$$$
