
     RDKit          3D

 26 28  0  0  0  0  0  0  0  0999 V2000
   44.2010   23.7440   36.5820 C   0  0  0  0  0  0  0  0  0  0  0  0
   42.7970   23.6580   36.5180 C   0  0  0  0  0  0  0  0  0  0  0  0
   42.1820   24.1220   35.3630 C   0  0  0  0  0  0  0  0  0  0  0  0
   42.9560   24.6290   34.3690 N   0  0  0  0  0  0  0  0  0  0  0  0
   44.3020   24.6970   34.4640 C   0  0  0  0  0  0  0  0  0  0  0  0
   44.9260   24.2520   35.5780 N   0  0  0  0  0  0  0  0  0  0  0  0
   40.7520   24.0720   35.2090 N   0  0  0  0  0  0  0  0  0  0  0  0
   40.1140   22.8970   35.0570 C   0  0  0  0  0  0  0  0  0  0  0  0
   38.7910   23.2280   34.9430 C   0  0  0  0  0  0  0  0  0  0  0  0
   38.6540   24.5550   35.0250 N   0  0  0  0  0  0  0  0  0  0  0  0
   39.8840   25.1010   35.1930 C   0  0  0  0  0  0  0  0  0  0  0  0
   37.6890   22.2870   34.7590 C   0  0  0  0  0  0  0  0  0  0  0  0
   36.9990   21.7690   35.8310 C   0  0  0  0  0  0  0  0  0  0  0  0
   35.9450   20.8720   35.6650 C   0  0  0  0  0  0  0  0  0  0  0  0
   35.5910   20.4960   34.3790 C   0  0  0  0  0  0  0  0  0  0  0  0
   36.2910   21.0230   33.3190 C   0  0  0  0  0  0  0  0  0  0  0  0
   37.3000   21.8860   33.5360 N   0  0  0  0  0  0  0  0  0  0  0  0
   44.7173   23.3830   37.4838 H   0  0  0  0  0  0  0  0  0  0  0  0
   42.2110   23.2400   37.3497 H   0  0  0  0  0  0  0  0  0  0  0  0
   44.8909   25.1148   33.6342 H   0  0  0  0  0  0  0  0  0  0  0  0
   40.5584   21.8911   35.0302 H   0  0  0  0  0  0  0  0  0  0  0  0
   40.1241   26.1696   35.2956 H   0  0  0  0  0  0  0  0  0  0  0  0
   37.2875   22.0716   36.8484 H   0  0  0  0  0  0  0  0  0  0  0  0
   35.4058   20.4712   36.5360 H   0  0  0  0  0  0  0  0  0  0  0  0
   34.7654   19.7892   34.2092 H   0  0  0  0  0  0  0  0  0  0  0  0
   36.0250   20.7380   32.2904 H   0  0  0  0  0  0  0  0  0  0  0  0
  2  1  2  0
  3  2  1  0
  4  5  1  0
  4  3  2  0
  5  6  2  0
  6  1  1  0
  7  3  1  0
  8  7  1  0
  9 10  1  0
  9  8  2  0
 10 11  2  0
 11  7  1  0
 12  9  1  0
 12 13  2  0
 14 13  1  0
 15 14  2  0
 16 17  2  0
 16 15  1  0
 17 12  1  0
  1 18  1  0
  2 19  1  0
  5 20  1  0
  8 21  1  0
 11 22  1  0
 13 23  1  0
 14 24  1  0
 15 25  1  0
 16 26  1  0
M  ISO  8  18  14  19  14  20  14  21  14  22  14  23  14  24  14  25  14
M  ISO  1  26  14
M  END
>  <minimizedAffinity>  (1) 
-4.0360322

>  <minimizedRMSD>  (1) 
3.59487939

$$$$
