
     RDKit          3D

 24 26  0  0  0  0  0  0  0  0999 V2000
   39.5610   22.6810   37.8500 C   0  0  0  0  0  0  0  0  0  0  0  0
   39.0970   23.7830   37.0990 C   0  0  0  0  0  0  0  0  0  0  0  0
   39.8360   24.1280   35.9640 C   0  0  0  0  0  0  0  0  0  0  0  0
   40.9340   23.4090   35.6440 N   0  0  0  0  0  0  0  0  0  0  0  0
   41.3490   22.3590   36.3860 C   0  0  0  0  0  0  0  0  0  0  0  0
   40.6440   22.0010   37.5010 N   0  0  0  0  0  0  0  0  0  0  0  0
   39.4390   25.2330   35.1420 N   0  0  0  0  0  0  0  0  0  0  0  0
   38.3210   25.1570   34.3780 C   0  0  0  0  0  0  0  0  0  0  0  0
   38.2490   26.3720   33.7350 C   0  0  0  0  0  0  0  0  0  0  0  0
   39.2970   27.1410   34.1140 N   0  0  0  0  0  0  0  0  0  0  0  0
   40.0340   26.4230   34.9930 C   0  0  0  0  0  0  0  0  0  0  0  0
   37.1870   26.7420   32.7940 C   0  0  0  0  0  0  0  0  0  0  0  0
   36.7640   28.0170   32.4710 C   0  0  0  0  0  0  0  0  0  0  0  0
   35.7520   27.7610   31.5460 C   0  0  0  0  0  0  0  0  0  0  0  0
   35.5880   26.4430   31.3380 N   0  0  0  0  0  0  0  0  0  0  0  0
   36.4670   25.8350   32.1030 N   0  0  0  0  0  0  0  0  0  0  0  0
   39.0076   22.3779   38.7510 H   0  0  0  0  0  0  0  0  0  0  0  0
   38.1971   24.3431   37.3931 H   0  0  0  0  0  0  0  0  0  0  0  0
   42.2481   21.7961   36.0948 H   0  0  0  0  0  0  0  0  0  0  0  0
   37.6244   24.3101   34.2912 H   0  0  0  0  0  0  0  0  0  0  0  0
   40.9547   26.7565   35.4941 H   0  0  0  0  0  0  0  0  0  0  0  0
   37.1305   28.9839   32.8463 H   0  0  0  0  0  0  0  0  0  0  0  0
   35.1600   28.5425   31.0473 H   0  0  0  0  0  0  0  0  0  0  0  0
   34.9084   25.9980   30.7048 H   0  0  0  0  0  0  0  0  0  0  0  0
  2  1  2  0
  3  2  1  0
  4  3  2  0
  4  5  1  0
  5  6  2  0
  6  1  1  0
  7  3  1  0
  8  7  1  0
  9 10  1  0
  9  8  2  0
 10 11  2  0
 11  7  1  0
 12  9  1  0
 13 12  1  0
 14 13  2  0
 15 14  1  0
 15 16  1  0
 16 12  2  0
  1 17  1  0
  2 18  1  0
  5 19  1  0
  8 20  1  0
 11 21  1  0
 13 22  1  0
 14 23  1  0
 15 24  1  0
M  ISO  8  17  14  18  14  19  14  20  14  21  14  22  14  23  14  24   9
M  END
>  <minimizedAffinity>  (1) 
-4.01606083

>  <minimizedRMSD>  (1) 
3.12349391

$$$$
