
     RDKit          3D

 24 26  0  0  0  0  0  0  0  0999 V2000
   42.0850   21.0430   37.3750 C   0  0  0  0  0  0  0  0  0  0  0  0
   41.6460   22.3400   37.0740 C   0  0  0  0  0  0  0  0  0  0  0  0
   41.8090   22.7890   35.7730 C   0  0  0  0  0  0  0  0  0  0  0  0
   42.3760   21.9710   34.8530 N   0  0  0  0  0  0  0  0  0  0  0  0
   42.7900   20.7210   35.1760 C   0  0  0  0  0  0  0  0  0  0  0  0
   42.6420   20.2600   36.4390 N   0  0  0  0  0  0  0  0  0  0  0  0
   41.3860   24.1050   35.3840 N   0  0  0  0  0  0  0  0  0  0  0  0
   40.0770   24.4160   35.3110 C   0  0  0  0  0  0  0  0  0  0  0  0
   40.0230   25.7220   34.9200 C   0  0  0  0  0  0  0  0  0  0  0  0
   41.2800   26.1830   34.7630 N   0  0  0  0  0  0  0  0  0  0  0  0
   42.1440   25.1640   35.0550 C   0  0  0  0  0  0  0  0  0  0  0  0
   38.7990   26.4900   34.7090 C   0  0  0  0  0  0  0  0  0  0  0  0
   38.2020   27.4040   35.5510 C   0  0  0  0  0  0  0  0  0  0  0  0
   37.0500   27.8750   34.9120 C   0  0  0  0  0  0  0  0  0  0  0  0
   37.0300   27.2040   33.7110 C   0  0  0  0  0  0  0  0  0  0  0  0
   38.0590   26.3980   33.6080 O   0  0  0  0  0  0  0  0  0  0  0  0
   41.9704   20.6596   38.3996 H   0  0  0  0  0  0  0  0  0  0  0  0
   41.1882   22.9789   37.8435 H   0  0  0  0  0  0  0  0  0  0  0  0
   43.2477   20.0797   34.4084 H   0  0  0  0  0  0  0  0  0  0  0  0
   39.2257   23.7524   35.5233 H   0  0  0  0  0  0  0  0  0  0  0  0
   43.2429   25.2037   35.0261 H   0  0  0  0  0  0  0  0  0  0  0  0
   38.5652   27.7075   36.5440 H   0  0  0  0  0  0  0  0  0  0  0  0
   36.3252   28.6137   35.2849 H   0  0  0  0  0  0  0  0  0  0  0  0
   36.2547   27.3272   32.9405 H   0  0  0  0  0  0  0  0  0  0  0  0
  2  1  2  0
  3  2  1  0
  4  5  1  0
  4  3  2  0
  5  6  2  0
  6  1  1  0
  7  3  1  0
  8  7  1  0
  9  8  2  0
 10  9  1  0
 10 11  2  0
 11  7  1  0
 12  9  1  0
 12 13  2  0
 14 13  1  0
 15 14  2  0
 16 15  1  0
 16 12  1  0
  1 17  1  0
  2 18  1  0
  5 19  1  0
  8 20  1  0
 11 21  1  0
 13 22  1  0
 14 23  1  0
 15 24  1  0
M  ISO  8  17  14  18  14  19  14  20  14  21  14  22  14  23  14  24  14
M  END
>  <minimizedAffinity>  (1) 
-3.90219092

>  <minimizedRMSD>  (1) 
2.45170712

$$$$
