
     RDKit          3D

 19 20  0  0  0  0  0  0  0  0999 V2000
   38.1930   23.7890   38.1340 C   0  0  0  0  0  0  0  0  0  0  0  0
   37.9570   24.7020   37.0900 C   0  0  0  0  0  0  0  0  0  0  0  0
   38.8480   24.6780   36.0220 C   0  0  0  0  0  0  0  0  0  0  0  0
   39.8830   23.8020   36.0210 N   0  0  0  0  0  0  0  0  0  0  0  0
   40.0750   22.9370   37.0490 C   0  0  0  0  0  0  0  0  0  0  0  0
   39.2300   22.9350   38.0990 N   0  0  0  0  0  0  0  0  0  0  0  0
   38.6820   25.5780   34.9100 N   0  0  0  0  0  0  0  0  0  0  0  0
   37.6540   25.4380   34.0490 C   0  0  0  0  0  0  0  0  0  0  0  0
   37.7960   26.4400   33.1340 C   0  0  0  0  0  0  0  0  0  0  0  0
   38.8950   27.1670   33.4460 N   0  0  0  0  0  0  0  0  0  0  0  0
   39.4410   26.6220   34.5560 C   0  0  0  0  0  0  0  0  0  0  0  0
   36.8730   26.6290   32.0280 C   0  0  0  0  0  0  0  0  0  0  0  0
   35.8410   27.3350   32.0250 O   0  0  0  0  0  0  0  0  0  0  0  0
   37.5132   23.7738   38.9987 H   0  0  0  0  0  0  0  0  0  0  0  0
   37.1084   25.4014   37.1169 H   0  0  0  0  0  0  0  0  0  0  0  0
   40.9223   22.2359   37.0252 H   0  0  0  0  0  0  0  0  0  0  0  0
   36.8637   24.6735   34.0782 H   0  0  0  0  0  0  0  0  0  0  0  0
   40.3454   26.9730   35.0745 H   0  0  0  0  0  0  0  0  0  0  0  0
   37.1066   26.0949   31.0952 H   0  0  0  0  0  0  0  0  0  0  0  0
  2  1  2  0
  3  2  1  0
  4  3  2  0
  4  5  1  0
  5  6  2  0
  6  1  1  0
  7  3  1  0
  8  7  1  0
  9 10  1  0
  9  8  2  0
 10 11  2  0
 11  7  1  0
 12  9  1  0
 13 12  2  0
  1 14  1  0
  2 15  1  0
  5 16  1  0
  8 17  1  0
 11 18  1  0
 12 19  1  0
M  ISO  6  14  14  15  14  16  14  17  14  18  14  19   6
M  END
>  <minimizedAffinity>  (1) 
-3.53824782

>  <minimizedRMSD>  (1) 
3.41044402

$$$$
