
     RDKit          3D

 20 21  0  0  0  0  0  0  0  0999 V2000
   38.3250   23.9020   37.0160 C   0  0  0  0  0  0  0  0  0  0  0  0
   38.9340   22.8730   36.2860 C   0  0  0  0  0  0  0  0  0  0  0  0
   38.9810   23.0090   34.8920 C   0  0  0  0  0  0  0  0  0  0  0  0
   38.4410   24.1210   34.3350 N   0  0  0  0  0  0  0  0  0  0  0  0
   37.8610   25.0930   35.0730 C   0  0  0  0  0  0  0  0  0  0  0  0
   37.7930   25.0010   36.4210 N   0  0  0  0  0  0  0  0  0  0  0  0
   37.3430   26.1910   34.3320 N   0  0  0  0  0  0  0  0  0  0  0  0
   37.1080   26.0060   33.0020 C   0  0  0  0  0  0  0  0  0  0  0  0
   36.6100   27.2180   32.5140 C   0  0  0  0  0  0  0  0  0  0  0  0
   36.5530   28.0910   33.5320 N   0  0  0  0  0  0  0  0  0  0  0  0
   36.9980   27.4660   34.6370 C   0  0  0  0  0  0  0  0  0  0  0  0
   38.2420   23.8140   38.5140 C   0  0  0  0  0  0  0  0  0  0  0  0
   39.4880   23.4800   39.0720 F   0  0  0  0  0  0  0  0  0  0  0  0
   37.8830   25.0230   39.0590 F   0  0  0  0  0  0  0  0  0  0  0  0
   37.3190   22.8390   38.8580 F   0  0  0  0  0  0  0  0  0  0  0  0
   39.3593   21.9915   36.7881 H   0  0  0  0  0  0  0  0  0  0  0  0
   39.4445   22.2329   34.2653 H   0  0  0  0  0  0  0  0  0  0  0  0
   37.2770   25.0843   32.4259 H   0  0  0  0  0  0  0  0  0  0  0  0
   36.3154   27.4213   31.4739 H   0  0  0  0  0  0  0  0  0  0  0  0
   37.0708   27.9204   35.6361 H   0  0  0  0  0  0  0  0  0  0  0  0
  1 12  1  0
  2  1  2  0
  3  2  1  0
  4  3  2  0
  4  5  1  0
  5  6  2  0
  6  1  1  0
  7 11  1  0
  7  5  1  0
  8  7  1  0
  9  8  2  0
  9 10  1  0
 10 11  2  0
 12 15  1  0
 12 14  1  0
 12 13  1  0
  2 16  1  0
  3 17  1  0
  8 18  1  0
  9 19  1  0
 11 20  1  0
M  ISO  5  16  14  17  14  18  14  19  14  20  14
M  END
>  <minimizedAffinity>  (1) 
-4.98415709

>  <minimizedRMSD>  (1) 
0.692608297

$$$$
