
     RDKit          3D

 33 36  0  0  0  0  0  0  0  0999 V2000
   37.8590   24.3030   38.2750 C   0  0  0  0  0  0  0  0  0  0  0  0
   37.7840   24.3560   36.8710 C   0  0  0  0  0  0  0  0  0  0  0  0
   38.7150   23.6190   36.1400 C   0  0  0  0  0  0  0  0  0  0  0  0
   39.6130   22.9140   36.8390 N   0  0  0  0  0  0  0  0  0  0  0  0
   39.6890   22.8600   38.1720 C   0  0  0  0  0  0  0  0  0  0  0  0
   38.7870   23.5750   38.8880 N   0  0  0  0  0  0  0  0  0  0  0  0
   38.7000   23.6230   34.7150 N   0  0  0  0  0  0  0  0  0  0  0  0
   37.7200   23.0220   34.0310 C   0  0  0  0  0  0  0  0  0  0  0  0
   38.0300   23.2270   32.7100 C   0  0  0  0  0  0  0  0  0  0  0  0
   39.1760   23.9400   32.6160 N   0  0  0  0  0  0  0  0  0  0  0  0
   39.6070   24.1950   33.8790 C   0  0  0  0  0  0  0  0  0  0  0  0
   40.7540   24.9030   34.2560 N   0  0  0  0  0  0  0  0  0  0  0  0
   41.0020   26.2170   34.1040 C   0  0  0  0  0  0  0  0  0  0  0  0
   42.2220   26.4460   34.6100 N   0  0  0  0  0  0  0  0  0  0  0  0
   42.7720   25.3120   35.0890 C   0  0  0  0  0  0  0  0  0  0  0  0
   43.9880   25.0950   35.6840 C   0  0  0  0  0  0  0  0  0  0  0  0
   44.8220   26.0410   35.8720 O   0  0  0  0  0  0  0  0  0  0  0  0
   44.3350   23.8780   36.0870 N   0  0  0  0  0  0  0  0  0  0  0  0
   43.4150   22.9290   35.8620 C   0  0  0  0  0  0  0  0  0  0  0  0
   43.6300   21.5810   36.2330 N   0  0  0  0  0  0  0  0  0  0  0  0
   42.2000   23.1010   35.2770 N   0  0  0  0  0  0  0  0  0  0  0  0
   41.8200   24.3420   34.8530 C   0  0  0  0  0  0  0  0  0  0  0  0
   37.2820   22.7730   31.5910 N   0  0  0  0  0  0  0  0  0  0  0  0
   37.1366   24.8744   38.8763 H   0  0  0  0  0  0  0  0  0  0  0  0
   37.0154   24.9596   36.3661 H   0  0  0  0  0  0  0  0  0  0  0  0
   40.4591   22.2546   38.6724 H   0  0  0  0  0  0  0  0  0  0  0  0
   36.8536   22.4808   34.4390 H   0  0  0  0  0  0  0  0  0  0  0  0
   40.3311   26.9616   33.6507 H   0  0  0  0  0  0  0  0  0  0  0  0
   45.2398   23.6789   36.5370 H   0  0  0  0  0  0  0  0  0  0  0  0
   42.9046   20.8738   36.0473 H   0  0  0  0  0  0  0  0  0  0  0  0
   44.5120   21.3067   36.6889 H   0  0  0  0  0  0  0  0  0  0  0  0
   37.6054   22.9829   30.6359 H   0  0  0  0  0  0  0  0  0  0  0  0
   36.4162   22.2339   31.7347 H   0  0  0  0  0  0  0  0  0  0  0  0
  1  6  2  0
  2  1  1  0
  3  4  1  0
  3  2  2  0
  4  5  2  0
  5  6  1  0
  7  3  1  0
  8  7  1  0
  9  8  2  0
 10  9  1  0
 10 11  2  0
 11 12  1  0
 11  7  1  0
 12 22  1  0
 13 12  1  0
 13 14  2  0
 14 15  1  0
 15 16  1  0
 16 17  2  0
 16 18  1  0
 19 18  1  0
 19 20  1  0
 21 19  2  0
 22 15  2  0
 22 21  1  0
 23  9  1  0
  1 24  1  0
  2 25  1  0
  5 26  1  0
  8 27  1  0
 13 28  1  0
 18 29  1  0
 20 30  1  0
 20 31  1  0
 23 32  1  0
 23 33  1  0
M  ISO  6  24  14  25  14  26  14  27  14  28  14  29   9
M  END
>  <minimizedAffinity>  (1) 
-5.29286957

>  <minimizedRMSD>  (1) 
3.17394733

$$$$
