
     RDKit          3D

 29 31  0  0  0  0  0  0  0  0999 V2000
   41.4530   21.6600   37.4220 C   0  0  0  0  0  0  0  0  0  0  0  0
   41.6700   22.9210   36.8490 C   0  0  0  0  0  0  0  0  0  0  0  0
   42.8030   23.0990   36.0750 C   0  0  0  0  0  0  0  0  0  0  0  0
   43.6340   22.0390   35.9190 N   0  0  0  0  0  0  0  0  0  0  0  0
   43.4300   20.8240   36.4680 C   0  0  0  0  0  0  0  0  0  0  0  0
   42.3090   20.6560   37.2310 N   0  0  0  0  0  0  0  0  0  0  0  0
   43.1070   24.3510   35.4500 N   0  0  0  0  0  0  0  0  0  0  0  0
   42.3570   24.7860   34.4130 C   0  0  0  0  0  0  0  0  0  0  0  0
   42.9230   25.9950   34.0700 C   0  0  0  0  0  0  0  0  0  0  0  0
   43.9700   26.2510   34.8850 N   0  0  0  0  0  0  0  0  0  0  0  0
   44.0890   25.2140   35.7590 C   0  0  0  0  0  0  0  0  0  0  0  0
   45.0790   25.0600   36.8200 C   0  0  0  0  0  0  0  0  0  0  0  0
   44.7670   25.6520   38.0250 C   0  0  0  0  0  0  0  0  0  0  0  0
   45.6490   25.5550   39.0830 C   0  0  0  0  0  0  0  0  0  0  0  0
   46.8320   24.8720   38.9400 C   0  0  0  0  0  0  0  0  0  0  0  0
   47.1150   24.2910   37.7230 C   0  0  0  0  0  0  0  0  0  0  0  0
   46.2580   24.3650   36.6370 C   0  0  0  0  0  0  0  0  0  0  0  0
   42.4920   26.8480   33.0320 N   0  0  0  0  0  0  0  0  0  0  0  0
   40.5589   21.4958   38.0413 H   0  0  0  0  0  0  0  0  0  0  0  0
   40.9598   23.7454   37.0102 H   0  0  0  0  0  0  0  0  0  0  0  0
   44.1397   19.9990   36.3075 H   0  0  0  0  0  0  0  0  0  0  0  0
   41.4925   24.2887   33.9489 H   0  0  0  0  0  0  0  0  0  0  0  0
   43.8200   26.1990   38.1433 H   0  0  0  0  0  0  0  0  0  0  0  0
   45.4029   26.0273   40.0455 H   0  0  0  0  0  0  0  0  0  0  0  0
   47.5385   24.7905   39.7792 H   0  0  0  0  0  0  0  0  0  0  0  0
   48.0628   23.7445   37.6088 H   0  0  0  0  0  0  0  0  0  0  0  0
   46.5050   23.8926   35.6748 H   0  0  0  0  0  0  0  0  0  0  0  0
   42.9856   27.7347   32.8557 H   0  0  0  0  0  0  0  0  0  0  0  0
   41.6838   26.5840   32.4506 H   0  0  0  0  0  0  0  0  0  0  0  0
  2  1  2  0
  3  2  1  0
  4  3  2  0
  4  5  1  0
  5  6  2  0
  6  1  1  0
  7 11  1  0
  7  3  1  0
  8  7  1  0
  9  8  2  0
  9 10  1  0
 10 11  2  0
 11 12  1  0
 12 13  2  0
 13 14  1  0
 15 14  2  0
 16 15  1  0
 17 12  1  0
 17 16  2  0
 18  9  1  0
  1 19  1  0
  2 20  1  0
  5 21  1  0
  8 22  1  0
 13 23  1  0
 14 24  1  0
 15 25  1  0
 16 26  1  0
 17 27  1  0
 18 28  1  0
 18 29  1  0
M  ISO  8  19  14  20  14  21  14  22  14  23  14  24  14  25  14  26  14
M  ISO  1  27  14
M  END
>  <minimizedAffinity>  (1) 
-4.93347454

>  <minimizedRMSD>  (1) 
3.81315279

$$$$
