
     RDKit          3D

 20 21  0  0  0  0  0  0  0  0999 V2000
   38.4330   23.8320   37.1020 C   0  0  0  0  0  0  0  0  0  0  0  0
   39.1700   22.8160   36.4810 C   0  0  0  0  0  0  0  0  0  0  0  0
   39.3280   22.8820   35.0820 C   0  0  0  0  0  0  0  0  0  0  0  0
   38.7470   23.9350   34.4340 N   0  0  0  0  0  0  0  0  0  0  0  0
   38.0440   24.8950   35.0650 C   0  0  0  0  0  0  0  0  0  0  0  0
   37.8790   24.8540   36.4030 N   0  0  0  0  0  0  0  0  0  0  0  0
   37.4600   25.9820   34.2970 C   0  0  0  0  0  0  0  0  0  0  0  0
   37.0690   27.2540   34.8940 C   0  0  0  0  0  0  0  0  0  0  0  0
   36.5330   28.1700   34.0250 C   0  0  0  0  0  0  0  0  0  0  0  0
   36.4080   27.8130   32.6610 C   0  0  0  0  0  0  0  0  0  0  0  0
   37.0850   26.0980   32.6280 S   0  0  0  0  0  0  0  0  0  0  0  0
   38.2440   23.7970   38.5850 C   0  0  0  0  0  0  0  0  0  0  0  0
   39.4390   23.5660   39.2490 F   0  0  0  0  0  0  0  0  0  0  0  0
   37.7690   25.0210   39.0410 F   0  0  0  0  0  0  0  0  0  0  0  0
   37.3180   22.8080   38.8960 F   0  0  0  0  0  0  0  0  0  0  0  0
   39.6105   21.9945   37.0651 H   0  0  0  0  0  0  0  0  0  0  0  0
   39.8964   22.1162   34.5338 H   0  0  0  0  0  0  0  0  0  0  0  0
   37.1952   27.4641   35.9664 H   0  0  0  0  0  0  0  0  0  0  0  0
   36.2078   29.1591   34.3799 H   0  0  0  0  0  0  0  0  0  0  0  0
   36.0071   28.4097   31.8284 H   0  0  0  0  0  0  0  0  0  0  0  0
  1 12  1  0
  2  1  2  0
  3  2  1  0
  4  5  1  0
  4  3  2  0
  5  6  2  0
  6  1  1  0
  7  8  2  0
  7  5  1  0
  9  8  1  0
 10  9  2  0
 11 10  1  0
 11  7  1  0
 12 15  1  0
 12 14  1  0
 12 13  1  0
  2 16  1  0
  3 17  1  0
  8 18  1  0
  9 19  1  0
 10 20  1  0
M  ISO  5  16  14  17  14  18  14  19  14  20  14
M  END
>  <minimizedAffinity>  (1) 
-4.9224453

>  <minimizedRMSD>  (1) 
0.966225922

$$$$
