
     RDKit          3D

 27 29  0  0  0  0  0  0  0  0999 V2000
   41.4620   21.6410   37.4190 C   0  0  0  0  0  0  0  0  0  0  0  0
   41.6540   22.9090   36.8420 C   0  0  0  0  0  0  0  0  0  0  0  0
   42.7880   23.1010   36.0690 C   0  0  0  0  0  0  0  0  0  0  0  0
   43.6280   22.0490   35.9240 N   0  0  0  0  0  0  0  0  0  0  0  0
   43.4410   20.8470   36.4750 C   0  0  0  0  0  0  0  0  0  0  0  0
   42.3250   20.6580   37.2360 N   0  0  0  0  0  0  0  0  0  0  0  0
   43.0720   24.3510   35.4400 N   0  0  0  0  0  0  0  0  0  0  0  0
   42.3150   24.7800   34.4080 C   0  0  0  0  0  0  0  0  0  0  0  0
   42.8440   25.9850   34.0470 C   0  0  0  0  0  0  0  0  0  0  0  0
   43.9000   26.2630   34.8550 N   0  0  0  0  0  0  0  0  0  0  0  0
   44.0400   25.2430   35.7230 C   0  0  0  0  0  0  0  0  0  0  0  0
   45.0290   25.0820   36.7830 C   0  0  0  0  0  0  0  0  0  0  0  0
   44.8130   25.6250   38.0370 C   0  0  0  0  0  0  0  0  0  0  0  0
   45.7230   25.4970   39.0680 C   0  0  0  0  0  0  0  0  0  0  0  0
   46.8590   24.8220   38.8500 N   0  0  0  0  0  0  0  0  0  0  0  0
   47.0810   24.2910   37.6380 C   0  0  0  0  0  0  0  0  0  0  0  0
   46.2020   24.4060   36.6170 N   0  0  0  0  0  0  0  0  0  0  0  0
   42.3770   26.8190   32.9990 N   0  0  0  0  0  0  0  0  0  0  0  0
   40.5705   21.4633   38.0384 H   0  0  0  0  0  0  0  0  0  0  0  0
   40.9286   23.7209   36.9989 H   0  0  0  0  0  0  0  0  0  0  0  0
   44.1653   20.0338   36.3198 H   0  0  0  0  0  0  0  0  0  0  0  0
   41.4542   24.2670   33.9542 H   0  0  0  0  0  0  0  0  0  0  0  0
   43.8809   26.1798   38.2199 H   0  0  0  0  0  0  0  0  0  0  0  0
   45.5180   25.9424   40.0527 H   0  0  0  0  0  0  0  0  0  0  0  0
   48.0172   23.7391   37.4678 H   0  0  0  0  0  0  0  0  0  0  0  0
   42.8475   27.7145   32.8049 H   0  0  0  0  0  0  0  0  0  0  0  0
   41.5674   26.5292   32.4321 H   0  0  0  0  0  0  0  0  0  0  0  0
  2  1  2  0
  3  2  1  0
  4  3  2  0
  4  5  1  0
  5  6  2  0
  6  1  1  0
  7 11  1  0
  7  3  1  0
  8  7  1  0
  9  8  2  0
  9 10  1  0
 10 11  2  0
 11 12  1  0
 12 13  2  0
 13 14  1  0
 15 14  2  0
 16 15  1  0
 17 12  1  0
 17 16  2  0
 18  9  1  0
  1 19  1  0
  2 20  1  0
  5 21  1  0
  8 22  1  0
 13 23  1  0
 14 24  1  0
 16 25  1  0
 18 26  1  0
 18 27  1  0
M  ISO  7  19  14  20  14  21  14  22  14  23  14  24  14  25  14
M  END
>  <minimizedAffinity>  (1) 
-4.33028173

>  <minimizedRMSD>  (1) 
3.7649076

$$$$
