
     RDKit          3D

 26 28  0  0  0  0  0  0  0  0999 V2000
   37.7850   23.4350   38.3990 C   0  0  0  0  0  0  0  0  0  0  0  0
   37.4740   23.4340   37.0350 C   0  0  0  0  0  0  0  0  0  0  0  0
   38.4700   23.1490   36.1100 C   0  0  0  0  0  0  0  0  0  0  0  0
   39.7030   22.8850   36.6080 N   0  0  0  0  0  0  0  0  0  0  0  0
   40.0180   22.8820   37.9120 C   0  0  0  0  0  0  0  0  0  0  0  0
   39.0200   23.1660   38.8070 N   0  0  0  0  0  0  0  0  0  0  0  0
   38.2140   23.1230   34.7120 N   0  0  0  0  0  0  0  0  0  0  0  0
   37.4580   22.1330   34.1820 C   0  0  0  0  0  0  0  0  0  0  0  0
   37.4310   22.4140   32.8330 C   0  0  0  0  0  0  0  0  0  0  0  0
   38.1530   23.5380   32.5940 N   0  0  0  0  0  0  0  0  0  0  0  0
   38.6420   23.9790   33.7760 C   0  0  0  0  0  0  0  0  0  0  0  0
   39.4610   25.1700   33.8850 C   0  0  0  0  0  0  0  0  0  0  0  0
   39.3340   26.4670   33.4520 C   0  0  0  0  0  0  0  0  0  0  0  0
   40.3990   27.2100   33.8090 N   0  0  0  0  0  0  0  0  0  0  0  0
   41.2310   26.3970   34.4810 C   0  0  0  0  0  0  0  0  0  0  0  0
   40.6500   25.1860   34.5140 N   0  0  0  0  0  0  0  0  0  0  0  0
   36.7580   21.6560   31.8450 N   0  0  0  0  0  0  0  0  0  0  0  0
   37.0019   23.6599   39.1381 H   0  0  0  0  0  0  0  0  0  0  0  0
   36.4507   23.6567   36.6985 H   0  0  0  0  0  0  0  0  0  0  0  0
   41.0407   22.6596   38.2506 H   0  0  0  0  0  0  0  0  0  0  0  0
   36.9756   21.2958   34.7077 H   0  0  0  0  0  0  0  0  0  0  0  0
   38.4723   26.8502   32.8858 H   0  0  0  0  0  0  0  0  0  0  0  0
   42.2018   26.6704   34.9201 H   0  0  0  0  0  0  0  0  0  0  0  0
   41.0681   24.3623   34.9697 H   0  0  0  0  0  0  0  0  0  0  0  0
   36.7962   21.9472   30.8578 H   0  0  0  0  0  0  0  0  0  0  0  0
   36.2301   20.8133   32.1133 H   0  0  0  0  0  0  0  0  0  0  0  0
  1  6  2  0
  2  1  1  0
  3  4  1  0
  3  2  2  0
  4  5  2  0
  5  6  1  0
  7  3  1  0
  8  7  1  0
  9  8  2  0
 10  9  1  0
 10 11  2  0
 11 12  1  0
 11  7  1  0
 12 16  1  0
 13 14  1  0
 13 12  2  0
 14 15  2  0
 15 16  1  0
 17  9  1  0
  1 18  1  0
  2 19  1  0
  5 20  1  0
  8 21  1  0
 13 22  1  0
 15 23  1  0
 16 24  1  0
 17 25  1  0
 17 26  1  0
M  ISO  7  18  14  19  14  20  14  21  14  22  14  23  14  24   9
M  END
>  <minimizedAffinity>  (1) 
-4.25168133

>  <minimizedRMSD>  (1) 
3.4659853

$$$$
