
     RDKit          3D

 20 21  0  0  0  0  0  0  0  0999 V2000
   41.0310   21.9050   37.3060 C   0  0  0  0  0  0  0  0  0  0  0  0
   40.3600   23.1330   37.0810 C   0  0  0  0  0  0  0  0  0  0  0  0
   40.4040   23.6110   35.7610 C   0  0  0  0  0  0  0  0  0  0  0  0
   41.0620   22.8940   34.8190 N   0  0  0  0  0  0  0  0  0  0  0  0
   41.6830   21.7370   35.0740 C   0  0  0  0  0  0  0  0  0  0  0  0
   41.6560   21.2490   36.3470 N   0  0  0  0  0  0  0  0  0  0  0  0
   39.7560   24.8520   35.4200 N   0  0  0  0  0  0  0  0  0  0  0  0
   38.4290   24.9480   35.3830 C   0  0  0  0  0  0  0  0  0  0  0  0
   38.1730   26.2450   35.0310 C   0  0  0  0  0  0  0  0  0  0  0  0
   39.3410   26.9020   34.8620 N   0  0  0  0  0  0  0  0  0  0  0  0
   40.3640   26.0320   35.1060 C   0  0  0  0  0  0  0  0  0  0  0  0
   36.8930   26.8190   34.8630 N   0  0  0  0  0  0  0  0  0  0  0  0
   41.7350   26.2690   35.0520 O   0  0  0  0  0  0  0  0  0  0  0  0
   41.0307   21.4817   38.3213 H   0  0  0  0  0  0  0  0  0  0  0  0
   39.8403   23.6746   37.8851 H   0  0  0  0  0  0  0  0  0  0  0  0
   42.2043   21.1909   34.2739 H   0  0  0  0  0  0  0  0  0  0  0  0
   37.6957   24.1549   35.5908 H   0  0  0  0  0  0  0  0  0  0  0  0
   36.8039   27.8096   34.5953 H   0  0  0  0  0  0  0  0  0  0  0  0
   36.0489   26.2469   35.0083 H   0  0  0  0  0  0  0  0  0  0  0  0
   42.3719   25.5388   35.2551 H   0  0  0  0  0  0  0  0  0  0  0  0
  2  1  2  0
  3  2  1  0
  4  5  1  0
  4  3  2  0
  5  6  2  0
  6  1  1  0
  7  3  1  0
  8  7  1  0
  9  8  2  0
 10  9  1  0
 10 11  2  0
 11  7  1  0
 12  9  1  0
 13 11  1  0
  1 14  1  0
  2 15  1  0
  5 16  1  0
  8 17  1  0
 12 18  1  0
 12 19  1  0
 13 20  1  0
M  ISO  5  14  14  15  14  16  14  17  14  20   3
M  END
>  <minimizedAffinity>  (1) 
-3.35337377

>  <minimizedRMSD>  (1) 
0.0653431416

$$$$
