
     RDKit          3D

 22 23  0  0  0  0  0  0  0  0999 V2000
   39.5380   22.6140   37.7260 C   0  0  0  0  0  0  0  0  0  0  0  0
   38.7520   23.2430   36.7330 C   0  0  0  0  0  0  0  0  0  0  0  0
   39.4270   23.7910   35.6420 C   0  0  0  0  0  0  0  0  0  0  0  0
   40.7750   23.6820   35.6110 N   0  0  0  0  0  0  0  0  0  0  0  0
   41.5030   23.0800   36.5640 C   0  0  0  0  0  0  0  0  0  0  0  0
   40.8550   22.5440   37.6300 N   0  0  0  0  0  0  0  0  0  0  0  0
   38.7180   24.4470   34.5860 N   0  0  0  0  0  0  0  0  0  0  0  0
   37.9630   23.7350   33.7320 C   0  0  0  0  0  0  0  0  0  0  0  0
   37.4430   24.6750   32.8720 C   0  0  0  0  0  0  0  0  0  0  0  0
   37.8910   25.9140   33.2250 N   0  0  0  0  0  0  0  0  0  0  0  0
   38.6890   25.7650   34.2990 C   0  0  0  0  0  0  0  0  0  0  0  0
   36.5690   24.3800   31.7800 N   0  0  0  0  0  0  0  0  0  0  0  0
   39.3880   26.8250   35.0160 C   0  0  0  0  0  0  0  0  0  0  0  0
   38.7550   27.6670   35.7220 O   0  0  0  0  0  0  0  0  0  0  0  0
   40.7670   26.9160   34.9250 O   0  0  0  0  0  0  0  0  0  0  0  0
   39.0407   22.1712   38.6016 H   0  0  0  0  0  0  0  0  0  0  0  0
   37.6566   23.2978   36.8171 H   0  0  0  0  0  0  0  0  0  0  0  0
   42.5985   23.0221   36.4835 H   0  0  0  0  0  0  0  0  0  0  0  0
   37.7981   22.6475   33.7226 H   0  0  0  0  0  0  0  0  0  0  0  0
   36.2870   23.4069   31.5945 H   0  0  0  0  0  0  0  0  0  0  0  0
   36.2213   25.1405   31.1787 H   0  0  0  0  0  0  0  0  0  0  0  0
   41.2488   27.6329   35.4088 H   0  0  0  0  0  0  0  0  0  0  0  0
  2  1  2  0
  3  2  1  0
  4  3  2  0
  4  5  1  0
  5  6  2  0
  6  1  1  0
  7  3  1  0
  8  7  1  0
  9 10  1  0
  9  8  2  0
 10 11  2  0
 11  7  1  0
 11 13  1  0
 12  9  1  0
 13 14  2  0
 15 13  1  0
  1 16  1  0
  2 17  1  0
  5 18  1  0
  8 19  1  0
 12 20  1  0
 12 21  1  0
 15 22  1  0
M  ISO  5  16  14  17  14  18  14  19  14  22   3
M  END
>  <minimizedAffinity>  (1) 
-3.95031571

>  <minimizedRMSD>  (1) 
2.3023684

$$$$
