
     RDKit          3D

 47 50  0  0  0  0  0  0  0  0999 V2000
   38.6760   26.3500   34.3020 C   0  0  0  0  0  0  0  0  0  0  0  0
   38.1800   23.8440   34.6920 N   0  0  0  0  0  0  0  0  0  0  0  0
   37.7850   22.8170   33.9440 C   0  0  0  0  0  0  0  0  0  0  0  0
   37.6270   23.3190   32.6920 C   0  0  0  0  0  0  0  0  0  0  0  0
   37.9220   24.6140   32.7030 N   0  0  0  0  0  0  0  0  0  0  0  0
   38.2850   24.9830   33.9790 C   0  0  0  0  0  0  0  0  0  0  0  0
   37.9150   24.0450   38.4020 C   0  0  0  0  0  0  0  0  0  0  0  0
   37.5770   24.2580   37.0470 C   0  0  0  0  0  0  0  0  0  0  0  0
   38.4340   23.6810   36.0830 C   0  0  0  0  0  0  0  0  0  0  0  0
   39.4650   23.0020   36.5450 N   0  0  0  0  0  0  0  0  0  0  0  0
   39.8060   22.7860   37.8150 C   0  0  0  0  0  0  0  0  0  0  0  0
   38.9950   23.3320   38.7530 N   0  0  0  0  0  0  0  0  0  0  0  0
   37.2130   22.5830   31.5470 N   0  0  0  0  0  0  0  0  0  0  0  0
   37.5600   27.0320   35.1230 C   0  0  0  0  0  0  0  0  0  0  0  0
   38.7130   27.1920   33.0220 C   0  0  0  0  0  0  0  0  0  0  0  0
   39.9840   26.5580   34.9590 C   0  0  0  0  0  0  0  0  0  0  0  0
   41.1800   26.7320   34.1720 C   0  0  0  0  0  0  0  0  0  0  0  0
   41.5740   27.5830   33.1700 C   0  0  0  0  0  0  0  0  0  0  0  0
   42.7770   27.6190   32.5100 C   0  0  0  0  0  0  0  0  0  0  0  0
   43.6930   26.6740   32.9160 C   0  0  0  0  0  0  0  0  0  0  0  0
   43.4010   25.7710   33.9140 C   0  0  0  0  0  0  0  0  0  0  0  0
   44.4110   24.8860   34.2210 C   0  0  0  0  0  0  0  0  0  0  0  0
   44.1950   23.9570   35.2130 C   0  0  0  0  0  0  0  0  0  0  0  0
   42.9890   23.9210   35.8760 C   0  0  0  0  0  0  0  0  0  0  0  0
   42.0340   24.8380   35.5090 C   0  0  0  0  0  0  0  0  0  0  0  0
   42.1660   25.8010   34.5310 C   0  0  0  0  0  0  0  0  0  0  0  0
   37.6209   21.7796   34.2709 H   0  0  0  0  0  0  0  0  0  0  0  0
   37.2767   24.4745   39.1882 H   0  0  0  0  0  0  0  0  0  0  0  0
   36.6918   24.8432   36.7571 H   0  0  0  0  0  0  0  0  0  0  0  0
   40.6952   22.1980   38.0863 H   0  0  0  0  0  0  0  0  0  0  0  0
   37.0036   21.5778   31.6289 H   0  0  0  0  0  0  0  0  0  0  0  0
   37.1227   23.0553   30.6361 H   0  0  0  0  0  0  0  0  0  0  0  0
   37.7655   26.9064   36.1963 H   0  0  0  0  0  0  0  0  0  0  0  0
   37.5281   28.1041   34.8788 H   0  0  0  0  0  0  0  0  0  0  0  0
   36.5914   26.5713   34.8788 H   0  0  0  0  0  0  0  0  0  0  0  0
   38.7599   28.2588   33.2861 H   0  0  0  0  0  0  0  0  0  0  0  0
   39.6001   26.9213   32.4306 H   0  0  0  0  0  0  0  0  0  0  0  0
   37.8056   27.0002   32.4306 H   0  0  0  0  0  0  0  0  0  0  0  0
   39.8835   27.4586   35.5826 H   0  0  0  0  0  0  0  0  0  0  0  0
   40.1603   25.5986   35.4673 H   0  0  0  0  0  0  0  0  0  0  0  0
   40.8314   28.3313   32.8559 H   0  0  0  0  0  0  0  0  0  0  0  0
   42.9934   28.3485   31.7157 H   0  0  0  0  0  0  0  0  0  0  0  0
   44.6803   26.6397   32.4321 H   0  0  0  0  0  0  0  0  0  0  0  0
   45.3705   24.9212   33.6842 H   0  0  0  0  0  0  0  0  0  0  0  0
   44.9878   23.2415   35.4768 H   0  0  0  0  0  0  0  0  0  0  0  0
   42.7970   23.1849   36.6706 H   0  0  0  0  0  0  0  0  0  0  0  0
   41.0744   24.8004   36.0455 H   0  0  0  0  0  0  0  0  0  0  0  0
  1 16  1  0
  1 14  1  0
  2  9  1  0
  3  2  1  0
  4  5  1  0
  4  3  2  0
  5  6  2  0
  6  1  1  0
  6  2  1  0
  7 12  2  0
  8  7  1  0
  9 10  1  0
  9  8  2  0
 10 11  2  0
 11 12  1  0
 13  4  1  0
 15  1  1  0
 17 26  1  0
 17 16  1  0
 18 17  2  0
 19 20  2  0
 19 18  1  0
 20 21  1  0
 21 22  1  0
 21 26  2  0
 22 23  2  0
 23 24  1  0
 25 24  2  0
 26 25  1  0
  3 27  1  0
  7 28  1  0
  8 29  1  0
 11 30  1  0
 13 31  1  0
 13 32  1  0
 14 33  1  0
 14 34  1  0
 14 35  1  0
 15 36  1  0
 15 37  1  0
 15 38  1  0
 16 39  1  0
 16 40  1  0
 18 41  1  0
 19 42  1  0
 20 43  1  0
 22 44  1  0
 23 45  1  0
 24 46  1  0
 25 47  1  0
M  ISO  8  27  14  28  14  29  14  30  14  33   8  34   8  35   8  36   8
M  ISO  8  37   8  38   8  39   8  40   8  41  14  42  14  43  14  44  14
M  ISO  3  45  14  46  14  47  14
M  END
>  <minimizedAffinity>  (1) 
-5.77620173

>  <minimizedRMSD>  (1) 
2.10572863

$$$$
