
     RDKit          3D

 45 48  0  0  0  0  0  0  0  0999 V2000
   38.6270   26.4080   34.3400 C   0  0  0  0  0  0  0  0  0  0  0  0
   38.2040   23.8880   34.6880 N   0  0  0  0  0  0  0  0  0  0  0  0
   37.8650   22.8390   33.9240 C   0  0  0  0  0  0  0  0  0  0  0  0
   37.7370   23.3520   32.6700 C   0  0  0  0  0  0  0  0  0  0  0  0
   37.9940   24.6700   32.6940 N   0  0  0  0  0  0  0  0  0  0  0  0
   38.2980   25.0320   33.9940 C   0  0  0  0  0  0  0  0  0  0  0  0
   37.8720   24.0580   38.3990 C   0  0  0  0  0  0  0  0  0  0  0  0
   37.5560   24.2860   37.0370 C   0  0  0  0  0  0  0  0  0  0  0  0
   38.4240   23.7200   36.0850 C   0  0  0  0  0  0  0  0  0  0  0  0
   39.4430   23.0340   36.5740 N   0  0  0  0  0  0  0  0  0  0  0  0
   39.7730   22.7970   37.8390 C   0  0  0  0  0  0  0  0  0  0  0  0
   38.9360   23.3420   38.7720 N   0  0  0  0  0  0  0  0  0  0  0  0
   37.3870   22.6130   31.5150 N   0  0  0  0  0  0  0  0  0  0  0  0
   37.4570   27.0710   35.0660 C   0  0  0  0  0  0  0  0  0  0  0  0
   38.7710   27.2320   33.0490 C   0  0  0  0  0  0  0  0  0  0  0  0
   39.8990   26.6180   35.0830 C   0  0  0  0  0  0  0  0  0  0  0  0
   41.0570   26.6900   34.1530 C   0  0  0  0  0  0  0  0  0  0  0  0
   41.2300   27.6540   33.2450 N   0  0  0  0  0  0  0  0  0  0  0  0
   42.2690   27.7260   32.4050 C   0  0  0  0  0  0  0  0  0  0  0  0
   43.1950   26.7760   32.4730 N   0  0  0  0  0  0  0  0  0  0  0  0
   43.0690   25.7780   33.3710 C   0  0  0  0  0  0  0  0  0  0  0  0
   44.0370   24.7830   33.4440 C   0  0  0  0  0  0  0  0  0  0  0  0
   43.8940   23.7640   34.3710 C   0  0  0  0  0  0  0  0  0  0  0  0
   42.8230   23.6870   35.2400 C   0  0  0  0  0  0  0  0  0  0  0  0
   41.8620   24.6700   35.1740 C   0  0  0  0  0  0  0  0  0  0  0  0
   42.0010   25.6910   34.2460 C   0  0  0  0  0  0  0  0  0  0  0  0
   37.7221   21.7953   34.2408 H   0  0  0  0  0  0  0  0  0  0  0  0
   37.2195   24.4847   39.1750 H   0  0  0  0  0  0  0  0  0  0  0  0
   36.6766   24.8757   36.7387 H   0  0  0  0  0  0  0  0  0  0  0  0
   40.6572   22.2041   38.1158 H   0  0  0  0  0  0  0  0  0  0  0  0
   37.2059   21.6015   31.5860 H   0  0  0  0  0  0  0  0  0  0  0  0
   37.3133   23.0866   30.6033 H   0  0  0  0  0  0  0  0  0  0  0  0
   37.6049   26.9872   36.1528 H   0  0  0  0  0  0  0  0  0  0  0  0
   37.4048   28.1329   34.7839 H   0  0  0  0  0  0  0  0  0  0  0  0
   36.5192   26.5701   34.7839 H   0  0  0  0  0  0  0  0  0  0  0  0
   38.9552   28.2858   33.3052 H   0  0  0  0  0  0  0  0  0  0  0  0
   39.6151   26.8451   32.4593 H   0  0  0  0  0  0  0  0  0  0  0  0
   37.8457   27.1543   32.4593 H   0  0  0  0  0  0  0  0  0  0  0  0
   39.8334   27.5592   35.6485 H   0  0  0  0  0  0  0  0  0  0  0  0
   40.0503   25.7674   35.7638 H   0  0  0  0  0  0  0  0  0  0  0  0
   42.3539   28.5481   31.6791 H   0  0  0  0  0  0  0  0  0  0  0  0
   44.9078   24.8048   32.7723 H   0  0  0  0  0  0  0  0  0  0  0  0
   44.6666   22.9823   34.4173 H   0  0  0  0  0  0  0  0  0  0  0  0
   42.7405   22.8633   35.9643 H   0  0  0  0  0  0  0  0  0  0  0  0
   40.9940   24.6460   35.8493 H   0  0  0  0  0  0  0  0  0  0  0  0
  1 14  1  0
  1 16  1  0
  2  9  1  0
  3  2  1  0
  4  5  1  0
  4  3  2  0
  5  6  2  0
  6  1  1  0
  6  2  1  0
  7 12  2  0
  8  7  1  0
  9 10  1  0
  9  8  2  0
 10 11  2  0
 11 12  1  0
 13  4  1  0
 15  1  1  0
 17 26  1  0
 17 16  1  0
 18 17  2  0
 19 20  2  0
 19 18  1  0
 20 21  1  0
 21 22  1  0
 21 26  2  0
 22 23  2  0
 23 24  1  0
 25 24  2  0
 26 25  1  0
  3 27  1  0
  7 28  1  0
  8 29  1  0
 11 30  1  0
 13 31  1  0
 13 32  1  0
 14 33  1  0
 14 34  1  0
 14 35  1  0
 15 36  1  0
 15 37  1  0
 15 38  1  0
 16 39  1  0
 16 40  1  0
 19 41  1  0
 22 42  1  0
 23 43  1  0
 24 44  1  0
 25 45  1  0
M  ISO  8  27  14  28  14  29  14  30  14  33   8  34   8  35   8  36   8
M  ISO  8  37   8  38   8  39   8  40   8  41  14  42  14  43  14  44  14
M  ISO  1  45  14
M  END
>  <minimizedAffinity>  (1) 
-5.46961021

>  <minimizedRMSD>  (1) 
2.10283494

$$$$
