
     RDKit          3D

 42 45  0  0  0  0  0  0  0  0999 V2000
   39.7820   26.2850   34.4540 C   0  0  0  0  0  0  0  0  0  0  0  0
   38.5330   24.0470   34.7150 N   0  0  0  0  0  0  0  0  0  0  0  0
   37.8810   23.2040   33.9160 C   0  0  0  0  0  0  0  0  0  0  0  0
   37.9490   23.7560   32.6680 C   0  0  0  0  0  0  0  0  0  0  0  0
   38.6310   24.9060   32.7350 N   0  0  0  0  0  0  0  0  0  0  0  0
   39.0150   25.1130   34.0360 C   0  0  0  0  0  0  0  0  0  0  0  0
   37.9040   23.9350   38.3790 C   0  0  0  0  0  0  0  0  0  0  0  0
   37.6800   24.2370   37.0210 C   0  0  0  0  0  0  0  0  0  0  0  0
   38.6680   23.7920   36.1120 C   0  0  0  0  0  0  0  0  0  0  0  0
   39.6940   23.1440   36.6310 N   0  0  0  0  0  0  0  0  0  0  0  0
   39.9360   22.8440   37.9050 C   0  0  0  0  0  0  0  0  0  0  0  0
   38.9970   23.2640   38.7880 N   0  0  0  0  0  0  0  0  0  0  0  0
   37.3840   23.1920   31.5010 N   0  0  0  0  0  0  0  0  0  0  0  0
   38.9900   27.1640   35.3910 C   0  0  0  0  0  0  0  0  0  0  0  0
   39.9650   27.2090   33.2170 C   0  0  0  0  0  0  0  0  0  0  0  0
   41.1650   26.0540   34.9360 C   0  0  0  0  0  0  0  0  0  0  0  0
   42.1130   26.6900   34.0260 N   0  0  0  0  0  0  0  0  0  0  0  0
   41.8520   27.4280   32.9070 C   0  0  0  0  0  0  0  0  0  0  0  0
   42.9960   27.8400   32.3420 N   0  0  0  0  0  0  0  0  0  0  0  0
   44.0260   27.3840   33.0730 C   0  0  0  0  0  0  0  0  0  0  0  0
   45.3840   27.5490   32.8900 C   0  0  0  0  0  0  0  0  0  0  0  0
   46.1850   26.9540   33.8200 N   0  0  0  0  0  0  0  0  0  0  0  0
   45.6310   26.2620   34.8320 C   0  0  0  0  0  0  0  0  0  0  0  0
   44.2950   26.1080   35.0010 N   0  0  0  0  0  0  0  0  0  0  0  0
   43.4750   26.6720   34.1170 C   0  0  0  0  0  0  0  0  0  0  0  0
   37.3908   22.2614   34.2010 H   0  0  0  0  0  0  0  0  0  0  0  0
   37.1642   24.2569   39.1267 H   0  0  0  0  0  0  0  0  0  0  0  0
   36.7880   24.7872   36.6870 H   0  0  0  0  0  0  0  0  0  0  0  0
   40.8351   22.2937   38.2194 H   0  0  0  0  0  0  0  0  0  0  0  0
   36.8754   22.2980   31.5553 H   0  0  0  0  0  0  0  0  0  0  0  0
   37.4810   23.6752   30.5966 H   0  0  0  0  0  0  0  0  0  0  0  0
   39.2286   26.8992   36.4317 H   0  0  0  0  0  0  0  0  0  0  0  0
   39.2493   28.2179   35.2121 H   0  0  0  0  0  0  0  0  0  0  0  0
   37.9148   27.0155   35.2121 H   0  0  0  0  0  0  0  0  0  0  0  0
   40.1685   28.2363   33.5536 H   0  0  0  0  0  0  0  0  0  0  0  0
   40.8090   26.8477   32.6111 H   0  0  0  0  0  0  0  0  0  0  0  0
   39.0470   27.1967   32.6111 H   0  0  0  0  0  0  0  0  0  0  0  0
   41.2787   26.4838   35.9422 H   0  0  0  0  0  0  0  0  0  0  0  0
   41.3633   24.9727   34.9731 H   0  0  0  0  0  0  0  0  0  0  0  0
   40.8458   27.6526   32.5235 H   0  0  0  0  0  0  0  0  0  0  0  0
   45.7946   28.1242   32.0471 H   0  0  0  0  0  0  0  0  0  0  0  0
   46.3025   25.7931   35.5663 H   0  0  0  0  0  0  0  0  0  0  0  0
  1 16  1  0
  1 14  1  0
  2  9  1  0
  3  2  1  0
  4  5  1  0
  4  3  2  0
  5  6  2  0
  6  1  1  0
  6  2  1  0
  7 12  2  0
  8  7  1  0
  9 10  1  0
  9  8  2  0
 10 11  2  0
 11 12  1  0
 13  4  1  0
 15  1  1  0
 17 25  1  0
 17 16  1  0
 18 17  1  0
 19 18  2  0
 19 20  1  0
 20 25  2  0
 21 20  1  0
 21 22  2  0
 22 23  1  0
 23 24  2  0
 25 24  1  0
  3 26  1  0
  7 27  1  0
  8 28  1  0
 11 29  1  0
 13 30  1  0
 13 31  1  0
 14 32  1  0
 14 33  1  0
 14 34  1  0
 15 35  1  0
 15 36  1  0
 15 37  1  0
 16 38  1  0
 16 39  1  0
 18 40  1  0
 21 41  1  0
 23 42  1  0
M  ISO  8  26  14  27  14  28  14  29  14  32   8  33   8  34   8  35   8
M  ISO  7  36   8  37   8  38   8  39   8  40  14  41  14  42  14
M  END
>  <minimizedAffinity>  (1) 
-5.15804005

>  <minimizedRMSD>  (1) 
2.91141891

$$$$
