
     RDKit          3D

 38 40  0  0  0  0  0  0  0  0999 V2000
   38.1650   23.8520   34.6820 N   0  0  0  0  0  0  0  0  0  0  0  0
   37.8910   22.8040   33.9000 C   0  0  0  0  0  0  0  0  0  0  0  0
   37.6880   23.3240   32.6600 C   0  0  0  0  0  0  0  0  0  0  0  0
   37.8410   24.6560   32.7150 N   0  0  0  0  0  0  0  0  0  0  0  0
   38.1490   25.0160   34.0100 C   0  0  0  0  0  0  0  0  0  0  0  0
   37.8820   23.9190   38.3960 C   0  0  0  0  0  0  0  0  0  0  0  0
   37.5140   24.1410   37.0440 C   0  0  0  0  0  0  0  0  0  0  0  0
   38.4350   23.6790   36.0700 C   0  0  0  0  0  0  0  0  0  0  0  0
   39.5300   23.0940   36.5280 N   0  0  0  0  0  0  0  0  0  0  0  0
   39.9010   22.8720   37.7880 C   0  0  0  0  0  0  0  0  0  0  0  0
   39.0350   23.3060   38.7350 N   0  0  0  0  0  0  0  0  0  0  0  0
   37.3630   22.5800   31.5040 N   0  0  0  0  0  0  0  0  0  0  0  0
   38.3740   26.4040   34.3770 C   0  0  0  0  0  0  0  0  0  0  0  0
   37.1000   27.0220   34.9610 C   0  0  0  0  0  0  0  0  0  0  0  0
   38.6230   27.2360   33.1040 C   0  0  0  0  0  0  0  0  0  0  0  0
   39.5420   26.6860   35.2490 C   0  0  0  0  0  0  0  0  0  0  0  0
   40.8160   26.5470   34.5850 N   0  0  0  0  0  0  0  0  0  0  0  0
   41.5670   27.3020   33.7620 C   0  0  0  0  0  0  0  0  0  0  0  0
   42.7320   26.6380   33.4320 C   0  0  0  0  0  0  0  0  0  0  0  0
   42.7150   25.4370   34.0620 N   0  0  0  0  0  0  0  0  0  0  0  0
   41.5460   25.4080   34.7510 C   0  0  0  0  0  0  0  0  0  0  0  0
   37.8404   21.7458   34.1961 H   0  0  0  0  0  0  0  0  0  0  0  0
   37.2050   24.2578   39.1941 H   0  0  0  0  0  0  0  0  0  0  0  0
   36.5733   24.6402   36.7686 H   0  0  0  0  0  0  0  0  0  0  0  0
   40.8464   22.3703   38.0422 H   0  0  0  0  0  0  0  0  0  0  0  0
   37.2665   21.5561   31.5608 H   0  0  0  0  0  0  0  0  0  0  0  0
   37.2226   23.0614   30.6043 H   0  0  0  0  0  0  0  0  0  0  0  0
   37.1508   26.9974   36.0596 H   0  0  0  0  0  0  0  0  0  0  0  0
   37.0091   28.0643   34.6214 H   0  0  0  0  0  0  0  0  0  0  0  0
   36.2251   26.4481   34.6214 H   0  0  0  0  0  0  0  0  0  0  0  0
   38.9279   28.2547   33.3856 H   0  0  0  0  0  0  0  0  0  0  0  0
   39.4199   26.7661   32.5089 H   0  0  0  0  0  0  0  0  0  0  0  0
   37.6990   27.2811   32.5089 H   0  0  0  0  0  0  0  0  0  0  0  0
   39.4558   27.7179   35.6200 H   0  0  0  0  0  0  0  0  0  0  0  0
   39.5219   25.9422   36.0592 H   0  0  0  0  0  0  0  0  0  0  0  0
   41.2921   28.3049   33.4034 H   0  0  0  0  0  0  0  0  0  0  0  0
   43.5303   27.0153   32.7760 H   0  0  0  0  0  0  0  0  0  0  0  0
   41.2238   24.5603   35.3736 H   0  0  0  0  0  0  0  0  0  0  0  0
  1  8  1  0
  2  1  1  0
  3  4  1  0
  3  2  2  0
  4  5  2  0
  5 13  1  0
  5  1  1  0
  6 11  2  0
  7  6  1  0
  8  9  1  0
  8  7  2  0
  9 10  2  0
 10 11  1  0
 12  3  1  0
 13 14  1  0
 13 16  1  0
 15 13  1  0
 17 21  1  0
 17 16  1  0
 18 17  1  0
 19 18  2  0
 19 20  1  0
 20 21  2  0
  2 22  1  0
  6 23  1  0
  7 24  1  0
 10 25  1  0
 12 26  1  0
 12 27  1  0
 14 28  1  0
 14 29  1  0
 14 30  1  0
 15 31  1  0
 15 32  1  0
 15 33  1  0
 16 34  1  0
 16 35  1  0
 18 36  1  0
 19 37  1  0
 21 38  1  0
M  ISO  8  22  14  23  14  24  14  25  14  28   8  29   8  30   8  31   8
M  ISO  7  32   8  33   8  34   8  35   8  36  14  37  14  38  14
M  END
>  <minimizedAffinity>  (1) 
-4.82492304

>  <minimizedRMSD>  (1) 
1.53430951

$$$$
