
     RDKit          3D

 41 43  0  0  0  0  0  0  0  0999 V2000
   38.6580   26.3350   34.3930 C   0  0  0  0  0  0  0  0  0  0  0  0
   38.1670   23.8290   34.7230 N   0  0  0  0  0  0  0  0  0  0  0  0
   37.7680   22.8000   33.9760 C   0  0  0  0  0  0  0  0  0  0  0  0
   37.6080   23.3140   32.7240 C   0  0  0  0  0  0  0  0  0  0  0  0
   37.9090   24.6190   32.7360 N   0  0  0  0  0  0  0  0  0  0  0  0
   38.2690   24.9710   34.0060 C   0  0  0  0  0  0  0  0  0  0  0  0
   37.8960   23.9080   38.4430 C   0  0  0  0  0  0  0  0  0  0  0  0
   37.5420   24.1280   37.0920 C   0  0  0  0  0  0  0  0  0  0  0  0
   38.4310   23.6560   36.1120 C   0  0  0  0  0  0  0  0  0  0  0  0
   39.5040   23.0570   36.5860 N   0  0  0  0  0  0  0  0  0  0  0  0
   39.8840   22.8260   37.8320 C   0  0  0  0  0  0  0  0  0  0  0  0
   39.0320   23.2770   38.7800 N   0  0  0  0  0  0  0  0  0  0  0  0
   37.1870   22.5940   31.5830 N   0  0  0  0  0  0  0  0  0  0  0  0
   37.5780   27.0430   35.1550 C   0  0  0  0  0  0  0  0  0  0  0  0
   38.7550   27.1670   33.0790 C   0  0  0  0  0  0  0  0  0  0  0  0
   40.0010   26.5040   35.0180 C   0  0  0  0  0  0  0  0  0  0  0  0
   41.0880   26.4190   34.0680 N   0  0  0  0  0  0  0  0  0  0  0  0
   41.4790   27.5300   33.3710 C   0  0  0  0  0  0  0  0  0  0  0  0
   42.4960   27.5870   32.4410 C   0  0  0  0  0  0  0  0  0  0  0  0
   43.1880   26.4220   32.1850 C   0  0  0  0  0  0  0  0  0  0  0  0
   44.1120   26.4800   31.3370 O   0  0  0  0  0  0  0  0  0  0  0  0
   42.8180   25.3190   32.8600 N   0  0  0  0  0  0  0  0  0  0  0  0
   41.8260   25.3450   33.7420 C   0  0  0  0  0  0  0  0  0  0  0  0
   41.5460   24.2710   34.3280 O   0  0  0  0  0  0  0  0  0  0  0  0
   37.6036   21.7616   34.2996 H   0  0  0  0  0  0  0  0  0  0  0  0
   37.2237   24.2628   39.2380 H   0  0  0  0  0  0  0  0  0  0  0  0
   36.6107   24.6464   36.8200 H   0  0  0  0  0  0  0  0  0  0  0  0
   40.8219   22.3065   38.0780 H   0  0  0  0  0  0  0  0  0  0  0  0
   36.9741   21.5890   31.6578 H   0  0  0  0  0  0  0  0  0  0  0  0
   37.0931   23.0743   30.6767 H   0  0  0  0  0  0  0  0  0  0  0  0
   37.7547   26.9272   36.2345 H   0  0  0  0  0  0  0  0  0  0  0  0
   37.5859   28.1117   34.8947 H   0  0  0  0  0  0  0  0  0  0  0  0
   36.6011   26.6095   34.8947 H   0  0  0  0  0  0  0  0  0  0  0  0
   38.8791   28.2314   33.3273 H   0  0  0  0  0  0  0  0  0  0  0  0
   39.6193   26.8244   32.4911 H   0  0  0  0  0  0  0  0  0  0  0  0
   37.8351   27.0325   32.4911 H   0  0  0  0  0  0  0  0  0  0  0  0
   40.0384   27.4900   35.5043 H   0  0  0  0  0  0  0  0  0  0  0  0
   40.1316   25.6822   35.7375 H   0  0  0  0  0  0  0  0  0  0  0  0
   40.9320   28.4632   33.5708 H   0  0  0  0  0  0  0  0  0  0  0  0
   42.7454   28.5252   31.9237 H   0  0  0  0  0  0  0  0  0  0  0  0
   43.3158   24.4337   32.6887 H   0  0  0  0  0  0  0  0  0  0  0  0
  1 16  1  0
  1 14  1  0
  2  9  1  0
  3  2  1  0
  4  5  1  0
  4  3  2  0
  5  6  2  0
  6  1  1  0
  6  2  1  0
  7 12  2  0
  8  7  1  0
  9 10  1  0
  9  8  2  0
 10 11  2  0
 11 12  1  0
 13  4  1  0
 15  1  1  0
 17 16  1  0
 18 17  1  0
 19 18  2  0
 20 19  1  0
 20 22  1  0
 21 20  2  0
 22 23  1  0
 23 17  1  0
 23 24  2  0
  3 25  1  0
  7 26  1  0
  8 27  1  0
 11 28  1  0
 13 29  1  0
 13 30  1  0
 14 31  1  0
 14 32  1  0
 14 33  1  0
 15 34  1  0
 15 35  1  0
 15 36  1  0
 16 37  1  0
 16 38  1  0
 18 39  1  0
 19 40  1  0
 22 41  1  0
M  ISO  8  25  14  26  14  27  14  28  14  31   8  32   8  33   8  34   8
M  ISO  7  35   8  36   8  37   8  38   8  39  14  40  14  41   9
M  END
>  <minimizedAffinity>  (1) 
-4.91281986

>  <minimizedRMSD>  (1) 
1.59171367

$$$$
