
     RDKit          3D

 43 45  0  0  0  0  0  0  0  0999 V2000
   37.7720   25.3310   34.3650 N   0  0  0  0  0  0  0  0  0  0  0  0
   37.4560   26.5920   34.6740 C   0  0  0  0  0  0  0  0  0  0  0  0
   36.8680   27.0930   33.5410 C   0  0  0  0  0  0  0  0  0  0  0  0
   36.8450   26.1450   32.6050 N   0  0  0  0  0  0  0  0  0  0  0  0
   37.4240   24.9990   33.1160 C   0  0  0  0  0  0  0  0  0  0  0  0
   40.3130   23.3150   36.2100 C   0  0  0  0  0  0  0  0  0  0  0  0
   39.7790   24.1580   35.2050 C   0  0  0  0  0  0  0  0  0  0  0  0
   38.4140   24.4870   35.3200 C   0  0  0  0  0  0  0  0  0  0  0  0
   37.7940   23.9640   36.3600 N   0  0  0  0  0  0  0  0  0  0  0  0
   38.2550   23.1710   37.3220 C   0  0  0  0  0  0  0  0  0  0  0  0
   39.5600   22.8490   37.2250 N   0  0  0  0  0  0  0  0  0  0  0  0
   36.3730   28.4060   33.4020 N   0  0  0  0  0  0  0  0  0  0  0  0
   37.5590   23.7530   32.3260 C   0  0  0  0  0  0  0  0  0  0  0  0
   38.9140   23.7110   31.6540 C   0  0  0  0  0  0  0  0  0  0  0  0
   36.5900   23.8720   31.1190 C   0  0  0  0  0  0  0  0  0  0  0  0
   37.1700   22.5100   33.0060 C   0  0  0  0  0  0  0  0  0  0  0  0
   36.4450   21.5160   32.2390 N   0  0  0  0  0  0  0  0  0  0  0  0
   35.4750   20.9590   33.2130 C   0  0  0  0  0  0  0  0  0  0  0  0
   35.4680   19.4800   33.0580 C   0  0  0  0  0  0  0  0  0  0  0  0
   36.1600   19.2630   31.7390 C   0  0  0  0  0  0  0  0  0  0  0  0
   37.2430   20.3630   31.8640 C   0  0  0  0  0  0  0  0  0  0  0  0
   37.6293   27.1132   35.6270 H   0  0  0  0  0  0  0  0  0  0  0  0
   41.3749   23.0322   36.1602 H   0  0  0  0  0  0  0  0  0  0  0  0
   40.3977   24.5361   34.3778 H   0  0  0  0  0  0  0  0  0  0  0  0
   37.6167   22.8037   38.1391 H   0  0  0  0  0  0  0  0  0  0  0  0
   35.9443   28.7034   32.5139 H   0  0  0  0  0  0  0  0  0  0  0  0
   36.4401   29.0676   34.1885 H   0  0  0  0  0  0  0  0  0  0  0  0
   39.7027   23.6866   32.4203 H   0  0  0  0  0  0  0  0  0  0  0  0
   38.9843   22.8102   31.0266 H   0  0  0  0  0  0  0  0  0  0  0  0
   39.0400   24.6057   31.0266 H   0  0  0  0  0  0  0  0  0  0  0  0
   35.5608   23.9984   31.4861 H   0  0  0  0  0  0  0  0  0  0  0  0
   36.8708   24.7424   30.5078 H   0  0  0  0  0  0  0  0  0  0  0  0
   36.6518   22.9595   30.5078 H   0  0  0  0  0  0  0  0  0  0  0  0
   38.0920   22.0338   33.3710 H   0  0  0  0  0  0  0  0  0  0  0  0
   36.4604   22.8308   33.7829 H   0  0  0  0  0  0  0  0  0  0  0  0
   35.7780   21.2259   34.2362 H   0  0  0  0  0  0  0  0  0  0  0  0
   34.4705   21.3678   33.0291 H   0  0  0  0  0  0  0  0  0  0  0  0
   36.0208   18.9960   33.8766 H   0  0  0  0  0  0  0  0  0  0  0  0
   34.4558   19.0504   33.0872 H   0  0  0  0  0  0  0  0  0  0  0  0
   35.4887   19.4374   30.8852 H   0  0  0  0  0  0  0  0  0  0  0  0
   36.5328   18.2442   31.5572 H   0  0  0  0  0  0  0  0  0  0  0  0
   37.9798   20.1145   32.6420 H   0  0  0  0  0  0  0  0  0  0  0  0
   37.8401   20.5092   30.9518 H   0  0  0  0  0  0  0  0  0  0  0  0
  1  2  1  0
  1  8  1  0
  3  2  2  0
  4  5  2  0
  4  3  1  0
  5  1  1  0
  6 11  2  0
  7  8  2  0
  7  6  1  0
  8  9  1  0
  9 10  2  0
 11 10  1  0
 12  3  1  0
 13 16  1  0
 13  5  1  0
 14 13  1  0
 15 13  1  0
 17 16  1  0
 17 18  1  0
 19 18  1  0
 20 21  1  0
 20 19  1  0
 21 17  1  0
  2 22  1  0
  6 23  1  0
  7 24  1  0
 10 25  1  0
 12 26  1  0
 12 27  1  0
 14 28  1  0
 14 29  1  0
 14 30  1  0
 15 31  1  0
 15 32  1  0
 15 33  1  0
 16 34  1  0
 16 35  1  0
 18 36  1  0
 18 37  1  0
 19 38  1  0
 19 39  1  0
 20 40  1  0
 20 41  1  0
 21 42  1  0
 21 43  1  0
M  ISO  8  22  14  23  14  24  14  25  14  28   8  29   8  30   8  31   8
M  ISO  8  32   8  33   8  34   8  35   8  36  13  37  13  38  13  39  13
M  ISO  4  40  13  41  13  42  13  43  13
M  END
>  <minimizedAffinity>  (1) 
-4.69490147

>  <minimizedRMSD>  (1) 
5.96775532

$$$$
