
     RDKit          3D

 23 25  0  0  0  0  0  0  0  0999 V2000
   38.0520   24.0040   38.1770 C   0  0  0  0  0  0  0  0  0  0  0  0
   37.6590   24.2110   36.8540 C   0  0  0  0  0  0  0  0  0  0  0  0
   38.3590   23.5380   35.8670 C   0  0  0  0  0  0  0  0  0  0  0  0
   39.3900   22.7100   36.2010 N   0  0  0  0  0  0  0  0  0  0  0  0
   39.7460   22.5320   37.5130 C   0  0  0  0  0  0  0  0  0  0  0  0
   39.0720   23.1810   38.4650 N   0  0  0  0  0  0  0  0  0  0  0  0
   40.8190   21.6730   37.8860 N   0  0  0  0  0  0  0  0  0  0  0  0
   38.1730   23.5630   34.4590 N   0  0  0  0  0  0  0  0  0  0  0  0
   38.6930   24.5550   33.7140 C   0  0  0  0  0  0  0  0  0  0  0  0
   38.3400   24.2900   32.4290 N   0  0  0  0  0  0  0  0  0  0  0  0
   37.6210   23.1510   32.4350 C   0  0  0  0  0  0  0  0  0  0  0  0
   37.0180   22.4330   31.4000 C   0  0  0  0  0  0  0  0  0  0  0  0
   36.3410   21.2900   31.7120 N   0  0  0  0  0  0  0  0  0  0  0  0
   36.2510   20.8560   32.9940 C   0  0  0  0  0  0  0  0  0  0  0  0
   36.8250   21.5370   33.9930 N   0  0  0  0  0  0  0  0  0  0  0  0
   37.4970   22.6590   33.7310 C   0  0  0  0  0  0  0  0  0  0  0  0
   37.5211   24.5199   38.9906 H   0  0  0  0  0  0  0  0  0  0  0  0
   36.8248   24.8833   36.6048 H   0  0  0  0  0  0  0  0  0  0  0  0
   41.0650   21.5578   38.8795 H   0  0  0  0  0  0  0  0  0  0  0  0
   41.3490   21.1669   37.1622 H   0  0  0  0  0  0  0  0  0  0  0  0
   39.2853   25.4095   34.0731 H   0  0  0  0  0  0  0  0  0  0  0  0
   37.0871   22.7804   30.3586 H   0  0  0  0  0  0  0  0  0  0  0  0
   35.6983   19.9311   33.2157 H   0  0  0  0  0  0  0  0  0  0  0  0
  1  6  2  0
  2  1  1  0
  3  4  1  0
  3  2  2  0
  4  5  2  0
  5  7  1  0
  5  6  1  0
  8  3  1  0
  9  8  1  0
 10 11  1  0
 10  9  2  0
 11 16  2  0
 12 13  2  0
 12 11  1  0
 13 14  1  0
 14 15  2  0
 16 15  1  0
 16  8  1  0
  1 17  1  0
  2 18  1  0
  7 19  1  0
  7 20  1  0
  9 21  1  0
 12 22  1  0
 14 23  1  0
M  ISO  5  17  14  18  14  21  14  22  14  23  14
M  END
>  <minimizedAffinity>  (1) 
-4.96723509

>  <minimizedRMSD>  (1) 
5.94405651

$$$$
