
     RDKit          3D

 19 20  0  0  0  0  0  0  0  0999 V2000
   38.1060   24.2030   38.5290 C   0  0  0  0  0  0  0  0  0  0  0  0
   37.7590   24.6730   37.2600 C   0  0  0  0  0  0  0  0  0  0  0  0
   38.4180   24.1230   36.1750 C   0  0  0  0  0  0  0  0  0  0  0  0
   39.3520   23.1710   36.3840 N   0  0  0  0  0  0  0  0  0  0  0  0
   39.6790   22.7260   37.6270 C   0  0  0  0  0  0  0  0  0  0  0  0
   39.0330   23.2660   38.6760 N   0  0  0  0  0  0  0  0  0  0  0  0
   40.6580   21.7270   37.8630 N   0  0  0  0  0  0  0  0  0  0  0  0
   38.1120   24.5600   34.8180 C   0  0  0  0  0  0  0  0  0  0  0  0
   38.3210   23.8170   33.6750 C   0  0  0  0  0  0  0  0  0  0  0  0
   37.9130   24.5590   32.6080 N   0  0  0  0  0  0  0  0  0  0  0  0
   37.4680   25.7280   33.1370 C   0  0  0  0  0  0  0  0  0  0  0  0
   37.5820   25.7500   34.4960 N   0  0  0  0  0  0  0  0  0  0  0  0
   37.6043   24.6151   39.4170 H   0  0  0  0  0  0  0  0  0  0  0  0
   36.9917   25.4501   37.1286 H   0  0  0  0  0  0  0  0  0  0  0  0
   40.8662   21.4273   38.8262 H   0  0  0  0  0  0  0  0  0  0  0  0
   41.1607   21.3013   37.0712 H   0  0  0  0  0  0  0  0  0  0  0  0
   38.7435   22.8023   33.6324 H   0  0  0  0  0  0  0  0  0  0  0  0
   37.0635   26.5587   32.5401 H   0  0  0  0  0  0  0  0  0  0  0  0
   37.3188   26.5133   35.1355 H   0  0  0  0  0  0  0  0  0  0  0  0
  1  6  2  0
  2  1  1  0
  3  4  1  0
  3  2  2  0
  4  5  2  0
  5  7  1  0
  5  6  1  0
  8  3  1  0
  9  8  2  0
 10 11  2  0
 10  9  1  0
 11 12  1  0
 12  8  1  0
  1 13  1  0
  2 14  1  0
  7 15  1  0
  7 16  1  0
  9 17  1  0
 11 18  1  0
 12 19  1  0
M  ISO  5  13  14  14  14  17  14  18  14  19   9
M  END
>  <minimizedAffinity>  (1) 
-4.10413074

>  <minimizedRMSD>  (1) 
4.6147337

$$$$
