
     RDKit          3D

 19 20  0  0  0  0  0  0  0  0999 V2000
   38.2290   24.1540   38.7260 C   0  0  0  0  0  0  0  0  0  0  0  0
   37.8150   24.9070   37.6200 C   0  0  0  0  0  0  0  0  0  0  0  0
   38.3160   24.5550   36.3770 C   0  0  0  0  0  0  0  0  0  0  0  0
   39.1710   23.5150   36.2750 N   0  0  0  0  0  0  0  0  0  0  0  0
   39.5630   22.7920   37.3710 C   0  0  0  0  0  0  0  0  0  0  0  0
   39.0810   23.1320   38.5690 N   0  0  0  0  0  0  0  0  0  0  0  0
   40.4600   21.7010   37.2720 N   0  0  0  0  0  0  0  0  0  0  0  0
   37.9160   25.3070   35.1930 C   0  0  0  0  0  0  0  0  0  0  0  0
   37.5160   26.6110   35.1770 C   0  0  0  0  0  0  0  0  0  0  0  0
   37.2320   26.9220   33.8670 C   0  0  0  0  0  0  0  0  0  0  0  0
   37.4660   25.8070   33.1270 C   0  0  0  0  0  0  0  0  0  0  0  0
   37.8730   24.8760   33.9730 O   0  0  0  0  0  0  0  0  0  0  0  0
   37.8525   24.4031   39.7291 H   0  0  0  0  0  0  0  0  0  0  0  0
   37.1162   25.7488   37.7342 H   0  0  0  0  0  0  0  0  0  0  0  0
   40.7327   21.1801   38.1177 H   0  0  0  0  0  0  0  0  0  0  0  0
   40.8399   21.4282   36.3543 H   0  0  0  0  0  0  0  0  0  0  0  0
   37.4360   27.2838   36.0436 H   0  0  0  0  0  0  0  0  0  0  0  0
   36.8806   27.8934   33.4890 H   0  0  0  0  0  0  0  0  0  0  0  0
   37.3415   25.6999   32.0393 H   0  0  0  0  0  0  0  0  0  0  0  0
  2  1  2  0
  3  2  1  0
  4  3  2  0
  4  5  1  0
  5  6  2  0
  6  1  1  0
  7  5  1  0
  8  3  1  0
  9  8  2  0
 10  9  1  0
 11 10  2  0
 11 12  1  0
 12  8  1  0
  1 13  1  0
  2 14  1  0
  7 15  1  0
  7 16  1  0
  9 17  1  0
 10 18  1  0
 11 19  1  0
M  ISO  5  13  14  14  14  17  14  18  14  19  14
M  END
>  <minimizedAffinity>  (1) 
-4.02449894

>  <minimizedRMSD>  (1) 
4.28814983

$$$$
