
     RDKit          3D

 24 24  0  0  0  0  0  0  0  0999 V2000
   38.0160   24.1910   38.5440 C   0  0  0  0  0  0  0  0  0  0  0  0
   37.8660   24.8790   37.3360 C   0  0  0  0  0  0  0  0  0  0  0  0
   38.6830   24.4770   36.2730 C   0  0  0  0  0  0  0  0  0  0  0  0
   39.5630   23.4650   36.4570 N   0  0  0  0  0  0  0  0  0  0  0  0
   39.6830   22.8140   37.6570 C   0  0  0  0  0  0  0  0  0  0  0  0
   38.8940   23.2020   38.6780 N   0  0  0  0  0  0  0  0  0  0  0  0
   40.6080   21.7530   37.8400 N   0  0  0  0  0  0  0  0  0  0  0  0
   38.5790   25.1650   34.9550 C   0  0  0  0  0  0  0  0  0  0  0  0
   39.9430   25.7860   34.6590 C   0  0  0  0  0  0  0  0  0  0  0  0
   37.5240   26.2240   35.0530 C   0  0  0  0  0  0  0  0  0  0  0  0
   38.2020   24.2140   33.8490 C   0  0  0  0  0  0  0  0  0  0  0  0
   37.3923   24.4751   39.4044 H   0  0  0  0  0  0  0  0  0  0  0  0
   37.1398   25.6979   37.2262 H   0  0  0  0  0  0  0  0  0  0  0  0
   40.6768   21.2815   38.7532 H   0  0  0  0  0  0  0  0  0  0  0  0
   41.2104   21.4546   37.0596 H   0  0  0  0  0  0  0  0  0  0  0  0
   40.4533   26.0183   35.6054 H   0  0  0  0  0  0  0  0  0  0  0  0
   40.5511   25.0760   34.0792 H   0  0  0  0  0  0  0  0  0  0  0  0
   39.8068   26.7108   34.0792 H   0  0  0  0  0  0  0  0  0  0  0  0
   37.3137   26.4351   36.1119 H   0  0  0  0  0  0  0  0  0  0  0  0
   37.8781   27.1411   34.5596 H   0  0  0  0  0  0  0  0  0  0  0  0
   36.6055   25.8734   34.5596 H   0  0  0  0  0  0  0  0  0  0  0  0
   37.8297   23.2748   34.2840 H   0  0  0  0  0  0  0  0  0  0  0  0
   37.4156   24.6674   33.2277 H   0  0  0  0  0  0  0  0  0  0  0  0
   39.0855   24.0054   33.2277 H   0  0  0  0  0  0  0  0  0  0  0  0
  1  6  2  0
  2  1  1  0
  3  4  1  0
  3  2  2  0
  4  5  2  0
  5  7  1  0
  5  6  1  0
  8 10  1  0
  8  3  1  0
  9  8  1  0
 11  8  1  0
  1 12  1  0
  2 13  1  0
  7 14  1  0
  7 15  1  0
  9 16  1  0
  9 17  1  0
  9 18  1  0
 10 19  1  0
 10 20  1  0
 10 21  1  0
 11 22  1  0
 11 23  1  0
 11 24  1  0
M  ISO  8  12  14  13  14  16   8  17   8  18   8  19   8  20   8  21   8
M  ISO  3  22   8  23   8  24   8
M  END
>  <minimizedAffinity>  (1) 
-4.0355525

>  <minimizedRMSD>  (1) 
3.92626429

$$$$
