
     RDKit          3D

 22 23  0  0  0  0  0  0  0  0999 V2000
   38.6920   23.3730   38.4250 C   0  0  0  0  0  0  0  0  0  0  0  0
   38.0990   24.3690   37.6440 C   0  0  0  0  0  0  0  0  0  0  0  0
   38.6230   24.6260   36.3910 C   0  0  0  0  0  0  0  0  0  0  0  0
   39.6860   23.9110   35.9650 N   0  0  0  0  0  0  0  0  0  0  0  0
   40.2520   22.9390   36.7500 C   0  0  0  0  0  0  0  0  0  0  0  0
   39.7440   22.6950   37.9550 N   0  0  0  0  0  0  0  0  0  0  0  0
   41.3810   22.1900   36.2820 N   0  0  0  0  0  0  0  0  0  0  0  0
   38.0940   25.6370   35.4810 C   0  0  0  0  0  0  0  0  0  0  0  0
   37.7400   25.2330   34.2110 C   0  0  0  0  0  0  0  0  0  0  0  0
   37.2240   26.1490   33.2840 C   0  0  0  0  0  0  0  0  0  0  0  0
   37.0850   27.4640   33.6860 C   0  0  0  0  0  0  0  0  0  0  0  0
   37.4280   27.9140   34.9500 C   0  0  0  0  0  0  0  0  0  0  0  0
   37.9300   26.9640   35.8180 C   0  0  0  0  0  0  0  0  0  0  0  0
   38.2936   23.1473   39.4252 H   0  0  0  0  0  0  0  0  0  0  0  0
   37.2340   24.9361   38.0184 H   0  0  0  0  0  0  0  0  0  0  0  0
   41.7992   21.4620   36.8787 H   0  0  0  0  0  0  0  0  0  0  0  0
   41.7740   22.3798   35.3490 H   0  0  0  0  0  0  0  0  0  0  0  0
   37.8641   24.1790   33.9219 H   0  0  0  0  0  0  0  0  0  0  0  0
   36.9391   25.8317   32.2700 H   0  0  0  0  0  0  0  0  0  0  0  0
   36.6813   28.1902   32.9652 H   0  0  0  0  0  0  0  0  0  0  0  0
   37.3077   28.9667   35.2455 H   0  0  0  0  0  0  0  0  0  0  0  0
   38.2140   27.2829   36.8317 H   0  0  0  0  0  0  0  0  0  0  0  0
  2  1  2  0
  3  2  1  0
  4  3  2  0
  4  5  1  0
  5  6  2  0
  6  1  1  0
  7  5  1  0
  8 13  1  0
  8  3  1  0
  9  8  2  0
 10 11  2  0
 10  9  1  0
 11 12  1  0
 12 13  2  0
  1 14  1  0
  2 15  1  0
  7 16  1  0
  7 17  1  0
  9 18  1  0
 10 19  1  0
 11 20  1  0
 12 21  1  0
 13 22  1  0
M  ISO  7  14  14  15  14  18  14  19  14  20  14  21  14  22  14
M  END
>  <minimizedAffinity>  (1) 
-4.2273016

>  <minimizedRMSD>  (1) 
4.4644618

$$$$
