
     RDKit          3D

 20 21  0  0  0  0  0  0  0  0999 V2000
   38.1480   23.8910   37.0170 C   0  0  0  0  0  0  0  0  0  0  0  0
   38.1410   22.7230   36.2300 C   0  0  0  0  0  0  0  0  0  0  0  0
   38.1030   22.8690   34.8330 C   0  0  0  0  0  0  0  0  0  0  0  0
   38.0750   24.1260   34.3280 N   0  0  0  0  0  0  0  0  0  0  0  0
   38.0820   25.2240   35.1150 C   0  0  0  0  0  0  0  0  0  0  0  0
   38.1180   25.1100   36.4430 N   0  0  0  0  0  0  0  0  0  0  0  0
   38.1880   23.7800   38.5090 C   0  0  0  0  0  0  0  0  0  0  0  0
   39.4580   23.4410   38.9540 F   0  0  0  0  0  0  0  0  0  0  0  0
   37.8560   24.9890   39.0860 F   0  0  0  0  0  0  0  0  0  0  0  0
   37.2820   22.8050   38.9100 F   0  0  0  0  0  0  0  0  0  0  0  0
   38.0510   26.5840   34.5130 C   0  0  0  0  0  0  0  0  0  0  0  0
   36.8980   27.4770   34.6320 C   0  0  0  0  0  0  0  0  0  0  0  0
   38.0080   27.7320   35.5550 C   0  0  0  0  0  0  0  0  0  0  0  0
   38.1646   21.7264   36.6950 H   0  0  0  0  0  0  0  0  0  0  0  0
   38.0962   21.9909   34.1705 H   0  0  0  0  0  0  0  0  0  0  0  0
   38.6455   26.2577   33.6470 H   0  0  0  0  0  0  0  0  0  0  0  0
   36.6896   28.1979   33.8277 H   0  0  0  0  0  0  0  0  0  0  0  0
   35.8216   27.3031   34.7772 H   0  0  0  0  0  0  0  0  0  0  0  0
   37.9027   27.5062   36.6264 H   0  0  0  0  0  0  0  0  0  0  0  0
   38.6433   28.5939   35.8071 H   0  0  0  0  0  0  0  0  0  0  0  0
  1  7  1  0
  2  1  2  0
  3  2  1  0
  4  3  2  0
  4  5  1  0
  5  6  2  0
  6  1  1  0
  7 10  1  0
  7  8  1  0
  7  9  1  0
 11 12  1  0
 11  5  1  0
 11 13  1  0
 12 13  1  0
  2 14  1  0
  3 15  1  0
 11 16  1  0
 12 17  1  0
 12 18  1  0
 13 19  1  0
 13 20  1  0
M  ISO  7  14  14  15  14  16  13  17  13  18  13  19  13  20  13
M  END
>  <minimizedAffinity>  (1) 
-4.68476009

>  <minimizedRMSD>  (1) 
0.249506518

$$$$
