
     RDKit          3D

 19 20  0  0  0  0  0  0  0  0999 V2000
   38.6050   23.4860   38.5000 C   0  0  0  0  0  0  0  0  0  0  0  0
   38.0350   24.4530   37.6570 C   0  0  0  0  0  0  0  0  0  0  0  0
   38.5690   24.6020   36.3870 C   0  0  0  0  0  0  0  0  0  0  0  0
   39.6060   23.8230   36.0140 N   0  0  0  0  0  0  0  0  0  0  0  0
   40.1440   22.8970   36.8390 C   0  0  0  0  0  0  0  0  0  0  0  0
   39.6290   22.7540   38.0590 N   0  0  0  0  0  0  0  0  0  0  0  0
   41.2410   22.0710   36.4470 N   0  0  0  0  0  0  0  0  0  0  0  0
   38.0800   25.5490   35.4320 C   0  0  0  0  0  0  0  0  0  0  0  0
   37.7550   26.8780   35.6080 C   0  0  0  0  0  0  0  0  0  0  0  0
   37.3040   27.6320   34.5880 C   0  0  0  0  0  0  0  0  0  0  0  0
   37.2020   26.9230   33.3420 C   0  0  0  0  0  0  0  0  0  0  0  0
   37.7560   25.2430   33.7160 S   0  0  0  0  0  0  0  0  0  0  0  0
   38.2105   23.3333   39.5154 H   0  0  0  0  0  0  0  0  0  0  0  0
   37.1911   25.0729   37.9939 H   0  0  0  0  0  0  0  0  0  0  0  0
   41.6234   21.3764   37.1045 H   0  0  0  0  0  0  0  0  0  0  0  0
   41.6498   22.1698   35.5068 H   0  0  0  0  0  0  0  0  0  0  0  0
   37.8668   27.3317   36.6038 H   0  0  0  0  0  0  0  0  0  0  0  0
   37.0379   28.6936   34.6981 H   0  0  0  0  0  0  0  0  0  0  0  0
   36.8614   27.3164   32.3728 H   0  0  0  0  0  0  0  0  0  0  0  0
  2  1  2  0
  3  2  1  0
  4  3  2  0
  4  5  1  0
  5  6  2  0
  6  1  1  0
  7  5  1  0
  8  9  2  0
  8  3  1  0
 10  9  1  0
 11 12  1  0
 11 10  2  0
 12  8  1  0
  1 13  1  0
  2 14  1  0
  7 15  1  0
  7 16  1  0
  9 17  1  0
 10 18  1  0
 11 19  1  0
M  ISO  5  13  14  14  14  17  14  18  14  19  14
M  END
>  <minimizedAffinity>  (1) 
-3.82655001

>  <minimizedRMSD>  (1) 
4.25001192

$$$$
