
     RDKit          3D

 16 16  0  0  0  0  0  0  0  0999 V2000
   38.2140   24.0720   37.0080 C   0  0  0  0  0  0  0  0  0  0  0  0
   38.3490   23.0420   36.0600 C   0  0  0  0  0  0  0  0  0  0  0  0
   38.2220   23.4110   34.7090 C   0  0  0  0  0  0  0  0  0  0  0  0
   37.9830   24.7080   34.4040 N   0  0  0  0  0  0  0  0  0  0  0  0
   37.8610   25.6620   35.3630 C   0  0  0  0  0  0  0  0  0  0  0  0
   37.9770   25.3410   36.6510 N   0  0  0  0  0  0  0  0  0  0  0  0
   38.3410   23.7390   38.4720 C   0  0  0  0  0  0  0  0  0  0  0  0
   39.6160   23.2400   38.7650 F   0  0  0  0  0  0  0  0  0  0  0  0
   38.1720   24.8730   39.2360 F   0  0  0  0  0  0  0  0  0  0  0  0
   37.3760   22.8030   38.8040 F   0  0  0  0  0  0  0  0  0  0  0  0
   37.6030   27.0540   35.0230 C   0  0  0  0  0  0  0  0  0  0  0  0
   37.0430   27.3880   33.9270 O   0  0  0  0  0  0  0  0  0  0  0  0
   37.9270   28.1310   35.8230 O   0  0  0  0  0  0  0  0  0  0  0  0
   38.5438   22.0017   36.3597 H   0  0  0  0  0  0  0  0  0  0  0  0
   38.3154   22.6578   33.9128 H   0  0  0  0  0  0  0  0  0  0  0  0
   37.7191   29.0511   35.5225 H   0  0  0  0  0  0  0  0  0  0  0  0
  1  7  1  0
  2  1  2  0
  3  2  1  0
  4  3  2  0
  4  5  1  0
  5  6  2  0
  6  1  1  0
  7  8  1  0
  7 10  1  0
  7  9  1  0
 11  5  1  0
 11 13  1  0
 12 11  2  0
  2 14  1  0
  3 15  1  0
 13 16  1  0
M  ISO  3  14  14  15  14  16   3
M  END
>  <minimizedAffinity>  (1) 
-4.51000071

>  <minimizedRMSD>  (1) 
0.407405794

$$$$
