
     RDKit          3D

 13 13  0  0  0  0  0  0  0  0999 V2000
   40.2820   22.3480   37.2940 C   0  0  0  0  0  0  0  0  0  0  0  0
   39.6350   23.1830   38.2240 C   0  0  0  0  0  0  0  0  0  0  0  0
   38.3490   23.6110   37.9280 C   0  0  0  0  0  0  0  0  0  0  0  0
   37.7630   23.2210   36.7740 N   0  0  0  0  0  0  0  0  0  0  0  0
   38.4110   22.4060   35.8820 C   0  0  0  0  0  0  0  0  0  0  0  0
   39.6600   21.9940   36.1750 N   0  0  0  0  0  0  0  0  0  0  0  0
   37.8150   21.9850   34.6660 N   0  0  0  0  0  0  0  0  0  0  0  0
   37.7010   24.4330   38.8340 O   0  0  0  0  0  0  0  0  0  0  0  0
   41.3023   21.9887   37.4937 H   0  0  0  0  0  0  0  0  0  0  0  0
   40.1334   23.4868   39.1564 H   0  0  0  0  0  0  0  0  0  0  0  0
   36.8610   22.2910   34.4270 H   0  0  0  0  0  0  0  0  0  0  0  0
   38.3361   21.3732   34.0218 H   0  0  0  0  0  0  0  0  0  0  0  0
   36.7829   24.7513   38.6449 H   0  0  0  0  0  0  0  0  0  0  0  0
  1  2  2  0
  3  2  1  0
  3  8  1  0
  4  3  2  0
  5  6  2  0
  5  4  1  0
  6  1  1  0
  7  5  1  0
  1  9  1  0
  2 10  1  0
  7 11  1  0
  7 12  1  0
  8 13  1  0
M  ISO  3   9  14  10  14  13   3
M  END
>  <minimizedAffinity>  (1) 
-2.97154522

>  <minimizedRMSD>  (1) 
0.484478414

$$$$
