
     RDKit          3D

 18 18  0  0  0  0  0  0  0  0999 V2000
   38.6970   23.3890   38.4890 C   0  0  0  0  0  0  0  0  0  0  0  0
   38.0050   24.3940   37.8100 C   0  0  0  0  0  0  0  0  0  0  0  0
   38.4260   24.6950   36.5070 C   0  0  0  0  0  0  0  0  0  0  0  0
   39.4620   24.0100   35.9820 N   0  0  0  0  0  0  0  0  0  0  0  0
   40.1180   23.0380   36.6660 C   0  0  0  0  0  0  0  0  0  0  0  0
   39.7220   22.7450   37.9060 N   0  0  0  0  0  0  0  0  0  0  0  0
   41.2070   22.3200   36.1100 N   0  0  0  0  0  0  0  0  0  0  0  0
   37.7390   25.7530   35.7200 C   0  0  0  0  0  0  0  0  0  0  0  0
   38.4350   27.0820   35.9310 C   0  0  0  0  0  0  0  0  0  0  0  0
   38.3993   23.1213   39.5136 H   0  0  0  0  0  0  0  0  0  0  0  0
   37.1645   24.9274   38.2780 H   0  0  0  0  0  0  0  0  0  0  0  0
   41.6781   21.5895   36.6626 H   0  0  0  0  0  0  0  0  0  0  0  0
   41.5270   22.5289   35.1535 H   0  0  0  0  0  0  0  0  0  0  0  0
   36.6926   25.8322   36.0498 H   0  0  0  0  0  0  0  0  0  0  0  0
   37.7719   25.4909   34.6522 H   0  0  0  0  0  0  0  0  0  0  0  0
   38.5364   27.2757   37.0091 H   0  0  0  0  0  0  0  0  0  0  0  0
   39.4326   27.0510   35.4686 H   0  0  0  0  0  0  0  0  0  0  0  0
   37.8413   27.8843   35.4686 H   0  0  0  0  0  0  0  0  0  0  0  0
  2  1  2  0
  3  2  1  0
  4  3  2  0
  4  5  1  0
  5  6  2  0
  6  1  1  0
  7  5  1  0
  8  9  1  0
  8  3  1  0
  1 10  1  0
  2 11  1  0
  7 12  1  0
  7 13  1  0
  8 14  1  0
  8 15  1  0
  9 16  1  0
  9 17  1  0
  9 18  1  0
M  ISO  7  10  14  11  14  14   8  15   8  16   8  17   8  18   8
M  END
>  <minimizedAffinity>  (1) 
-3.32913303

>  <minimizedRMSD>  (1) 
2.81596684

$$$$
