
     RDKit          3D

 24 25  0  0  0  0  0  0  0  0999 V2000
   40.7900   21.9900   37.5370 C   0  0  0  0  0  0  0  0  0  0  0  0
   40.1270   23.1660   37.1310 C   0  0  0  0  0  0  0  0  0  0  0  0
   40.2940   23.5560   35.8140 C   0  0  0  0  0  0  0  0  0  0  0  0
   41.0620   22.8180   34.9860 N   0  0  0  0  0  0  0  0  0  0  0  0
   41.6930   21.6870   35.3930 C   0  0  0  0  0  0  0  0  0  0  0  0
   41.5380   21.3030   36.6630 N   0  0  0  0  0  0  0  0  0  0  0  0
   42.5000   20.9110   34.5250 N   0  0  0  0  0  0  0  0  0  0  0  0
   39.6700   24.7130   35.3330 N   0  0  0  0  0  0  0  0  0  0  0  0
   40.2670   26.0050   35.0460 C   0  0  0  0  0  0  0  0  0  0  0  0
   39.1560   27.0200   35.3400 C   0  0  0  0  0  0  0  0  0  0  0  0
   37.9950   26.1530   35.8230 C   0  0  0  0  0  0  0  0  0  0  0  0
   38.2670   24.8900   35.0090 C   0  0  0  0  0  0  0  0  0  0  0  0
   40.6930   21.6355   38.5738 H   0  0  0  0  0  0  0  0  0  0  0  0
   39.5058   23.7466   37.8288 H   0  0  0  0  0  0  0  0  0  0  0  0
   42.9612   20.0591   34.8749 H   0  0  0  0  0  0  0  0  0  0  0  0
   42.6256   21.1987   33.5440 H   0  0  0  0  0  0  0  0  0  0  0  0
   41.1371   26.1832   35.6950 H   0  0  0  0  0  0  0  0  0  0  0  0
   40.6315   26.0747   34.0105 H   0  0  0  0  0  0  0  0  0  0  0  0
   39.4683   27.7287   36.1212 H   0  0  0  0  0  0  0  0  0  0  0  0
   38.8956   27.6337   34.4650 H   0  0  0  0  0  0  0  0  0  0  0  0
   38.0475   25.9628   36.9052 H   0  0  0  0  0  0  0  0  0  0  0  0
   36.9954   26.5913   35.6867 H   0  0  0  0  0  0  0  0  0  0  0  0
   38.1088   25.0505   33.9323 H   0  0  0  0  0  0  0  0  0  0  0  0
   37.6164   24.0318   35.2333 H   0  0  0  0  0  0  0  0  0  0  0  0
  2  1  2  0
  3  2  1  0
  4  5  1  0
  4  3  2  0
  5  6  2  0
  6  1  1  0
  7  5  1  0
  8  3  1  0
  9  8  1  0
  9 10  1  0
 10 11  1  0
 12  8  1  0
 12 11  1  0
  1 13  1  0
  2 14  1  0
  7 15  1  0
  7 16  1  0
  9 17  1  0
  9 18  1  0
 10 19  1  0
 10 20  1  0
 11 21  1  0
 11 22  1  0
 12 23  1  0
 12 24  1  0
M  ISO  8  13  14  14  14  17  13  18  13  19  13  20  13  21  13  22  13
M  ISO  2  23  13  24  13
M  END
>  <minimizedAffinity>  (1) 
-3.33655667

>  <minimizedRMSD>  (1) 
4.31869173

$$$$
