
     RDKit          3D

 28 30  0  0  0  0  0  0  0  0999 V2000
   38.7360   25.3460   35.1380 C   0  0  0  0  0  0  0  0  0  0  0  0
   39.6510   26.3780   34.9420 C   0  0  0  0  0  0  0  0  0  0  0  0
   39.5080   27.0400   33.7320 C   0  0  0  0  0  0  0  0  0  0  0  0
   38.5550   26.7200   32.7990 C   0  0  0  0  0  0  0  0  0  0  0  0
   37.6710   25.6820   33.0520 C   0  0  0  0  0  0  0  0  0  0  0  0
   37.7980   25.0290   34.2240 N   0  0  0  0  0  0  0  0  0  0  0  0
   38.0120   24.1520   38.5840 C   0  0  0  0  0  0  0  0  0  0  0  0
   37.9390   24.9090   37.4100 C   0  0  0  0  0  0  0  0  0  0  0  0
   38.7880   24.5770   36.3730 C   0  0  0  0  0  0  0  0  0  0  0  0
   39.6360   23.5530   36.5360 N   0  0  0  0  0  0  0  0  0  0  0  0
   39.7090   22.8210   37.6650 C   0  0  0  0  0  0  0  0  0  0  0  0
   38.8760   23.1470   38.6870 N   0  0  0  0  0  0  0  0  0  0  0  0
   40.6150   21.7370   37.8230 N   0  0  0  0  0  0  0  0  0  0  0  0
   36.6120   25.2340   32.1550 C   0  0  0  0  0  0  0  0  0  0  0  0
   35.8240   26.1620   31.4880 C   0  0  0  0  0  0  0  0  0  0  0  0
   34.9210   25.4620   30.7220 C   0  0  0  0  0  0  0  0  0  0  0  0
   35.2140   24.1290   30.9690 C   0  0  0  0  0  0  0  0  0  0  0  0
   36.2120   24.0320   31.8140 O   0  0  0  0  0  0  0  0  0  0  0  0
   40.4197   26.6444   35.6823 H   0  0  0  0  0  0  0  0  0  0  0  0
   40.1971   27.8677   33.5080 H   0  0  0  0  0  0  0  0  0  0  0  0
   38.4923   27.2831   31.8561 H   0  0  0  0  0  0  0  0  0  0  0  0
   37.3491   24.3903   39.4288 H   0  0  0  0  0  0  0  0  0  0  0  0
   37.2275   25.7426   37.3159 H   0  0  0  0  0  0  0  0  0  0  0  0
   40.6342   21.2063   38.7055 H   0  0  0  0  0  0  0  0  0  0  0  0
   41.2523   21.4823   37.0549 H   0  0  0  0  0  0  0  0  0  0  0  0
   35.9066   27.2566   31.5590 H   0  0  0  0  0  0  0  0  0  0  0  0
   34.1410   25.8685   30.0614 H   0  0  0  0  0  0  0  0  0  0  0  0
   34.6849   23.2754   30.5203 H   0  0  0  0  0  0  0  0  0  0  0  0
  1  9  1  0
  2  1  2  0
  3  2  1  0
  4  5  1  0
  4  3  2  0
  5  6  2  0
  6  1  1  0
  7 12  2  0
  8  7  1  0
  9 10  1  0
  9  8  2  0
 10 11  2  0
 11 13  1  0
 11 12  1  0
 14  5  1  0
 15 14  2  0
 16 17  2  0
 16 15  1  0
 17 18  1  0
 18 14  1  0
  2 19  1  0
  3 20  1  0
  4 21  1  0
  7 22  1  0
  8 23  1  0
 13 24  1  0
 13 25  1  0
 15 26  1  0
 16 27  1  0
 17 28  1  0
M  ISO  8  19  14  20  14  21  14  22  14  23  14  26  14  27  14  28  14
M  END
>  <minimizedAffinity>  (1) 
-5.76122475

>  <minimizedRMSD>  (1) 
1.22199512

$$$$
