
     RDKit          3D

 35 38  0  0  0  0  0  0  0  0999 V2000
   38.4050   25.6900   35.4130 C   0  0  0  0  0  0  0  0  0  0  0  0
   37.1670   26.2040   35.0930 C   0  0  0  0  0  0  0  0  0  0  0  0
   37.0890   27.0140   33.9850 C   0  0  0  0  0  0  0  0  0  0  0  0
   38.2200   27.2980   33.2220 C   0  0  0  0  0  0  0  0  0  0  0  0
   39.4520   26.7590   33.5790 C   0  0  0  0  0  0  0  0  0  0  0  0
   39.4780   25.9750   34.6680 N   0  0  0  0  0  0  0  0  0  0  0  0
   40.5760   27.0750   32.7740 N   0  0  0  0  0  0  0  0  0  0  0  0
   41.7600   27.4370   33.3200 C   0  0  0  0  0  0  0  0  0  0  0  0
   42.6420   27.6770   32.3120 N   0  0  0  0  0  0  0  0  0  0  0  0
   42.0370   27.4740   31.1460 C   0  0  0  0  0  0  0  0  0  0  0  0
   42.3780   27.5470   29.8020 C   0  0  0  0  0  0  0  0  0  0  0  0
   43.5470   27.8870   29.4920 O   0  0  0  0  0  0  0  0  0  0  0  0
   41.4850   27.2620   28.8280 N   0  0  0  0  0  0  0  0  0  0  0  0
   40.2120   26.8930   29.1480 C   0  0  0  0  0  0  0  0  0  0  0  0
   39.3560   26.6160   28.0480 N   0  0  0  0  0  0  0  0  0  0  0  0
   39.8480   26.8110   30.4610 N   0  0  0  0  0  0  0  0  0  0  0  0
   40.7320   27.0930   31.4380 C   0  0  0  0  0  0  0  0  0  0  0  0
   38.0210   24.2610   38.8220 C   0  0  0  0  0  0  0  0  0  0  0  0
   37.8430   25.1160   37.7250 C   0  0  0  0  0  0  0  0  0  0  0  0
   38.5620   24.8300   36.5660 C   0  0  0  0  0  0  0  0  0  0  0  0
   39.3790   23.7670   36.5540 N   0  0  0  0  0  0  0  0  0  0  0  0
   39.5400   22.9520   37.6200 C   0  0  0  0  0  0  0  0  0  0  0  0
   38.8540   23.2160   38.7410 N   0  0  0  0  0  0  0  0  0  0  0  0
   40.4090   21.8330   37.5860 N   0  0  0  0  0  0  0  0  0  0  0  0
   36.2780   25.9756   35.6991 H   0  0  0  0  0  0  0  0  0  0  0  0
   36.1189   27.4446   33.6962 H   0  0  0  0  0  0  0  0  0  0  0  0
   38.1388   27.9478   32.3382 H   0  0  0  0  0  0  0  0  0  0  0  0
   41.9732   27.5227   34.3957 H   0  0  0  0  0  0  0  0  0  0  0  0
   41.7676   27.3239   27.8395 H   0  0  0  0  0  0  0  0  0  0  0  0
   38.3801   26.3314   28.2138 H   0  0  0  0  0  0  0  0  0  0  0  0
   39.7115   26.6999   27.0849 H   0  0  0  0  0  0  0  0  0  0  0  0
   37.4721   24.4503   39.7563 H   0  0  0  0  0  0  0  0  0  0  0  0
   37.1625   25.9787   37.7772 H   0  0  0  0  0  0  0  0  0  0  0  0
   40.5080   21.2324   38.4169 H   0  0  0  0  0  0  0  0  0  0  0  0
   40.9415   21.6203   36.7304 H   0  0  0  0  0  0  0  0  0  0  0  0
  1 20  1  0
  2  1  2  0
  3  2  1  0
  4  5  1  0
  4  3  2  0
  5  6  2  0
  6  1  1  0
  7  8  1  0
  7  5  1  0
  9  8  2  0
 10 17  2  0
 10  9  1  0
 11 10  1  0
 12 11  2  0
 13 14  1  0
 13 11  1  0
 14 16  2  0
 15 14  1  0
 16 17  1  0
 17  7  1  0
 19 18  2  0
 20 19  1  0
 21 20  2  0
 21 22  1  0
 22 23  2  0
 23 18  1  0
 24 22  1  0
  2 25  1  0
  3 26  1  0
  4 27  1  0
  8 28  1  0
 13 29  1  0
 15 30  1  0
 15 31  1  0
 18 32  1  0
 19 33  1  0
 24 34  1  0
 24 35  1  0
M  ISO  7  25  14  26  14  27  14  28  14  29   9  32  14  33  14
M  END
>  <minimizedAffinity>  (1) 
-5.72453737

>  <minimizedRMSD>  (1) 
4.81149912

$$$$
