
     RDKit          3D

 35 38  0  0  0  0  0  0  0  0999 V2000
   38.0890   25.0360   35.1300 C   0  0  0  0  0  0  0  0  0  0  0  0
   37.4220   26.2390   35.0960 C   0  0  0  0  0  0  0  0  0  0  0  0
   37.1870   26.7150   33.8100 C   0  0  0  0  0  0  0  0  0  0  0  0
   37.5860   26.0420   32.6640 C   0  0  0  0  0  0  0  0  0  0  0  0
   38.2610   24.8220   32.7570 C   0  0  0  0  0  0  0  0  0  0  0  0
   38.4480   24.4350   34.0140 N   0  0  0  0  0  0  0  0  0  0  0  0
   38.6200   24.2260   31.4900 C   0  0  0  0  0  0  0  0  0  0  0  0
   39.1350   24.9650   30.4950 N   0  0  0  0  0  0  0  0  0  0  0  0
   39.4900   24.4830   29.2980 C   0  0  0  0  0  0  0  0  0  0  0  0
   39.3530   23.1820   28.9940 N   0  0  0  0  0  0  0  0  0  0  0  0
   38.8460   22.3560   29.9230 C   0  0  0  0  0  0  0  0  0  0  0  0
   38.6900   21.0160   29.6460 C   0  0  0  0  0  0  0  0  0  0  0  0
   38.1720   20.1420   30.5790 C   0  0  0  0  0  0  0  0  0  0  0  0
   37.8150   20.6830   31.8150 C   0  0  0  0  0  0  0  0  0  0  0  0
   37.9830   22.0170   32.0510 C   0  0  0  0  0  0  0  0  0  0  0  0
   38.4980   22.9050   31.1360 C   0  0  0  0  0  0  0  0  0  0  0  0
   38.0820   24.2680   38.7720 C   0  0  0  0  0  0  0  0  0  0  0  0
   37.7590   24.8750   37.5510 C   0  0  0  0  0  0  0  0  0  0  0  0
   38.4020   24.4170   36.3990 C   0  0  0  0  0  0  0  0  0  0  0  0
   39.2960   23.4190   36.5170 N   0  0  0  0  0  0  0  0  0  0  0  0
   39.6040   22.8370   37.6940 C   0  0  0  0  0  0  0  0  0  0  0  0
   38.9790   23.2830   38.8180 N   0  0  0  0  0  0  0  0  0  0  0  0
   40.5420   21.7970   37.8190 N   0  0  0  0  0  0  0  0  0  0  0  0
   37.1038   26.7751   36.0023 H   0  0  0  0  0  0  0  0  0  0  0  0
   36.6584   27.6729   33.6960 H   0  0  0  0  0  0  0  0  0  0  0  0
   37.3693   26.4720   31.6750 H   0  0  0  0  0  0  0  0  0  0  0  0
   39.9042   25.1693   28.5447 H   0  0  0  0  0  0  0  0  0  0  0  0
   38.9854   20.6338   28.6577 H   0  0  0  0  0  0  0  0  0  0  0  0
   38.0465   19.0714   30.3597 H   0  0  0  0  0  0  0  0  0  0  0  0
   37.3981   20.0342   32.5993 H   0  0  0  0  0  0  0  0  0  0  0  0
   37.6875   22.4066   33.0363 H   0  0  0  0  0  0  0  0  0  0  0  0
   37.5928   24.6061   39.6974 H   0  0  0  0  0  0  0  0  0  0  0  0
   37.0204   25.6886   37.5014 H   0  0  0  0  0  0  0  0  0  0  0  0
   40.7383   21.3890   38.7441 H   0  0  0  0  0  0  0  0  0  0  0  0
   41.0328   21.4432   36.9854 H   0  0  0  0  0  0  0  0  0  0  0  0
  1 19  1  0
  2  1  2  0
  3  2  1  0
  4  5  1  0
  4  3  2  0
  5  6  2  0
  6  1  1  0
  7  5  1  0
  8  7  2  0
  9  8  1  0
 10  9  2  0
 10 11  1  0
 11 16  2  0
 12 11  1  0
 12 13  2  0
 13 14  1  0
 14 15  2  0
 16  7  1  0
 16 15  1  0
 17 22  2  0
 18 17  1  0
 19 20  1  0
 19 18  2  0
 20 21  2  0
 21 23  1  0
 21 22  1  0
  2 24  1  0
  3 25  1  0
  4 26  1  0
  9 27  1  0
 12 28  1  0
 13 29  1  0
 14 30  1  0
 15 31  1  0
 17 32  1  0
 18 33  1  0
 23 34  1  0
 23 35  1  0
M  ISO  8  24  14  25  14  26  14  27  14  28  14  29  14  30  14  31  14
M  ISO  2  32  14  33  14
M  END
>  <minimizedAffinity>  (1) 
-5.50642824

>  <minimizedRMSD>  (1) 
3.74310422

$$$$
