
     RDKit          3D

 28 30  0  0  0  0  0  0  0  0999 V2000
   38.2040   25.6550   35.6950 C   0  0  0  0  0  0  0  0  0  0  0  0
   38.3640   26.9800   36.0860 C   0  0  0  0  0  0  0  0  0  0  0  0
   37.8420   27.9000   35.1780 C   0  0  0  0  0  0  0  0  0  0  0  0
   37.2160   27.5410   33.9860 C   0  0  0  0  0  0  0  0  0  0  0  0
   37.0960   26.1980   33.6650 C   0  0  0  0  0  0  0  0  0  0  0  0
   37.6020   25.3240   34.5470 N   0  0  0  0  0  0  0  0  0  0  0  0
   36.4800   25.7660   32.4860 N   0  0  0  0  0  0  0  0  0  0  0  0
   35.6570   26.4090   31.6420 C   0  0  0  0  0  0  0  0  0  0  0  0
   35.2940   25.5910   30.6080 C   0  0  0  0  0  0  0  0  0  0  0  0
   35.9060   24.3950   30.8080 N   0  0  0  0  0  0  0  0  0  0  0  0
   36.6070   24.5420   31.9440 C   0  0  0  0  0  0  0  0  0  0  0  0
   38.6460   23.3890   38.6090 C   0  0  0  0  0  0  0  0  0  0  0  0
   38.1310   24.4120   37.8060 C   0  0  0  0  0  0  0  0  0  0  0  0
   38.7100   24.6000   36.5610 C   0  0  0  0  0  0  0  0  0  0  0  0
   39.7370   23.8030   36.1650 N   0  0  0  0  0  0  0  0  0  0  0  0
   40.2190   22.8150   36.9660 C   0  0  0  0  0  0  0  0  0  0  0  0
   39.6530   22.6300   38.1840 N   0  0  0  0  0  0  0  0  0  0  0  0
   41.2870   21.9930   36.5410 N   0  0  0  0  0  0  0  0  0  0  0  0
   38.8566   27.2746   37.0244 H   0  0  0  0  0  0  0  0  0  0  0  0
   37.9293   28.9704   35.4161 H   0  0  0  0  0  0  0  0  0  0  0  0
   36.8223   28.3132   33.3087 H   0  0  0  0  0  0  0  0  0  0  0  0
   35.3214   27.4493   31.7652 H   0  0  0  0  0  0  0  0  0  0  0  0
   34.6303   25.8527   29.7707 H   0  0  0  0  0  0  0  0  0  0  0  0
   37.2216   23.7436   32.3855 H   0  0  0  0  0  0  0  0  0  0  0  0
   38.2132   23.2097   39.6042 H   0  0  0  0  0  0  0  0  0  0  0  0
   37.2982   25.0432   38.1496 H   0  0  0  0  0  0  0  0  0  0  0  0
   41.6414   21.2488   37.1586 H   0  0  0  0  0  0  0  0  0  0  0  0
   41.7111   22.1381   35.6136 H   0  0  0  0  0  0  0  0  0  0  0  0
  1  2  2  0
  1 14  1  0
  3  2  1  0
  4  3  2  0
  5  4  1  0
  5  6  2  0
  6  1  1  0
  7  5  1  0
  8  7  1  0
  9 10  1  0
  9  8  2  0
 10 11  2  0
 11  7  1  0
 13 12  2  0
 14 13  1  0
 15 14  2  0
 15 16  1  0
 16 17  2  0
 17 12  1  0
 18 16  1  0
  2 19  1  0
  3 20  1  0
  4 21  1  0
  8 22  1  0
  9 23  1  0
 11 24  1  0
 12 25  1  0
 13 26  1  0
 18 27  1  0
 18 28  1  0
M  ISO  8  19  14  20  14  21  14  22  14  23  14  24  14  25  14  26  14
M  END
>  <minimizedAffinity>  (1) 
-5.31425524

>  <minimizedRMSD>  (1) 
0.358244091

$$$$
