
     RDKit          3D

 34 36  0  0  0  0  0  0  0  0999 V2000
   38.2480   25.4110   35.2160 C   0  0  0  0  0  0  0  0  0  0  0  0
   37.3060   26.4450   35.2280 C   0  0  0  0  0  0  0  0  0  0  0  0
   37.1640   27.1010   34.0170 C   0  0  0  0  0  0  0  0  0  0  0  0
   37.8930   26.7630   32.8860 C   0  0  0  0  0  0  0  0  0  0  0  0
   38.8110   25.7260   32.9450 C   0  0  0  0  0  0  0  0  0  0  0  0
   38.9570   25.0810   34.1220 N   0  0  0  0  0  0  0  0  0  0  0  0
   39.6170   25.2850   31.8560 N   0  0  0  0  0  0  0  0  0  0  0  0
   39.1110   24.2800   31.0830 C   0  0  0  0  0  0  0  0  0  0  0  0
   39.8530   23.8060   30.0030 C   0  0  0  0  0  0  0  0  0  0  0  0
   39.3880   22.7190   29.1080 C   0  0  0  0  0  0  0  0  0  0  0  0
   41.0690   24.4250   29.8200 C   0  0  0  0  0  0  0  0  0  0  0  0
   41.7540   23.9950   28.8330 O   0  0  0  0  0  0  0  0  0  0  0  0
   41.5970   25.4120   30.5590 N   0  0  0  0  0  0  0  0  0  0  0  0
   40.8230   25.8120   31.5770 C   0  0  0  0  0  0  0  0  0  0  0  0
   41.2390   26.7470   32.3360 O   0  0  0  0  0  0  0  0  0  0  0  0
   38.0280   24.2710   38.7510 C   0  0  0  0  0  0  0  0  0  0  0  0
   37.7830   25.0200   37.5900 C   0  0  0  0  0  0  0  0  0  0  0  0
   38.4700   24.6630   36.4380 C   0  0  0  0  0  0  0  0  0  0  0  0
   39.3220   23.6310   36.4920 N   0  0  0  0  0  0  0  0  0  0  0  0
   39.5570   22.9080   37.6090 C   0  0  0  0  0  0  0  0  0  0  0  0
   38.8860   23.2560   38.7400 N   0  0  0  0  0  0  0  0  0  0  0  0
   40.4600   21.8210   37.6480 N   0  0  0  0  0  0  0  0  0  0  0  0
   36.7270   26.7142   36.1237 H   0  0  0  0  0  0  0  0  0  0  0  0
   36.4409   27.9271   33.9486 H   0  0  0  0  0  0  0  0  0  0  0  0
   37.7432   27.3154   31.9467 H   0  0  0  0  0  0  0  0  0  0  0  0
   38.1254   23.8478   31.3109 H   0  0  0  0  0  0  0  0  0  0  0  0
   39.0268   21.8747   29.7136 H   0  0  0  0  0  0  0  0  0  0  0  0
   38.5704   23.0912   28.4732 H   0  0  0  0  0  0  0  0  0  0  0  0
   40.2219   22.3847   28.4732 H   0  0  0  0  0  0  0  0  0  0  0  0
   42.5187   25.8270   30.3609 H   0  0  0  0  0  0  0  0  0  0  0  0
   37.5028   24.5274   39.6829 H   0  0  0  0  0  0  0  0  0  0  0  0
   37.0723   25.8596   37.5927 H   0  0  0  0  0  0  0  0  0  0  0  0
   40.6033   21.3018   38.5259 H   0  0  0  0  0  0  0  0  0  0  0  0
   40.9746   21.5482   36.7985 H   0  0  0  0  0  0  0  0  0  0  0  0
  1  2  2  0
  1 18  1  0
  3  2  1  0
  4  5  1  0
  4  3  2  0
  5  6  2  0
  6  1  1  0
  7  5  1  0
  8  7  1  0
  9  8  2  0
 10  9  1  0
 11  9  1  0
 11 13  1  0
 12 11  2  0
 13 14  1  0
 14  7  1  0
 14 15  2  0
 17 16  2  0
 18 19  2  0
 18 17  1  0
 19 20  1  0
 20 22  1  0
 20 21  2  0
 21 16  1  0
  2 23  1  0
  3 24  1  0
  4 25  1  0
  8 26  1  0
 10 27  1  0
 10 28  1  0
 10 29  1  0
 13 30  1  0
 16 31  1  0
 17 32  1  0
 22 33  1  0
 22 34  1  0
M  ISO  8  23  14  24  14  25  14  26  14  27   8  28   8  29   8  30   9
M  ISO  2  31  14  32  14
M  END
>  <minimizedAffinity>  (1) 
-5.20967674

>  <minimizedRMSD>  (1) 
3.12894511

$$$$
