
     RDKit          3D

 15 15  0  0  0  0  0  0  0  0999 V2000
   38.1700   23.9700   36.9760 C   0  0  0  0  0  0  0  0  0  0  0  0
   38.3390   22.8680   36.1400 C   0  0  0  0  0  0  0  0  0  0  0  0
   38.2860   23.0750   34.7570 C   0  0  0  0  0  0  0  0  0  0  0  0
   38.0720   24.3430   34.3190 N   0  0  0  0  0  0  0  0  0  0  0  0
   37.9130   25.3920   35.1490 C   0  0  0  0  0  0  0  0  0  0  0  0
   37.9630   25.1930   36.4710 N   0  0  0  0  0  0  0  0  0  0  0  0
   37.6910   26.7080   34.6150 N   0  0  0  0  0  0  0  0  0  0  0  0
   38.2200   23.7950   38.4730 C   0  0  0  0  0  0  0  0  0  0  0  0
   39.5070   23.4070   38.8820 F   0  0  0  0  0  0  0  0  0  0  0  0
   37.9400   24.9900   39.0970 F   0  0  0  0  0  0  0  0  0  0  0  0
   37.3080   22.8430   38.8490 F   0  0  0  0  0  0  0  0  0  0  0  0
   38.5093   21.8638   36.5554 H   0  0  0  0  0  0  0  0  0  0  0  0
   38.4130   22.2415   34.0505 H   0  0  0  0  0  0  0  0  0  0  0  0
   37.5697   27.5085   35.2518 H   0  0  0  0  0  0  0  0  0  0  0  0
   37.6532   26.8505   33.5956 H   0  0  0  0  0  0  0  0  0  0  0  0
  1  8  1  0
  2  1  2  0
  3  2  1  0
  4  3  2  0
  4  5  1  0
  5  6  2  0
  6  1  1  0
  7  5  1  0
  8 11  1  0
  8  9  1  0
  8 10  1  0
  2 12  1  0
  3 13  1  0
  7 14  1  0
  7 15  1  0
M  ISO  2  12  14  13  14
M  END
>  <minimizedAffinity>  (1) 
-3.95554733

>  <minimizedRMSD>  (1) 
0.0697560683

$$$$
