
     RDKit          3D

 47 51  0  0  1  0  0  0  0  0999 V2000
   37.5090   25.2940   31.6700 C   0  0  1  0  0  0  0  0  0  0  0  0
   36.6330   24.1490   32.0030 C   0  0  0  0  0  0  0  0  0  0  0  0
   35.2900   24.4070   31.3280 C   0  0  0  0  0  0  0  0  0  0  0  0
   35.3220   25.7700   30.7480 C   0  0  0  0  0  0  0  0  0  0  0  0
   36.5620   26.3920   31.2970 C   0  0  1  0  0  0  0  0  0  0  0  0
   39.1650   25.3650   34.9320 C   0  0  0  0  0  0  0  0  0  0  0  0
   40.1210   26.3800   34.8530 C   0  0  0  0  0  0  0  0  0  0  0  0
   40.1780   27.0390   33.6370 C   0  0  0  0  0  0  0  0  0  0  0  0
   39.3650   26.7310   32.5840 C   0  0  0  0  0  0  0  0  0  0  0  0
   38.4350   25.7250   32.7050 C   0  0  0  0  0  0  0  0  0  0  0  0
   38.3830   25.0820   33.8970 N   0  0  0  0  0  0  0  0  0  0  0  0
   37.9800   24.1930   38.2460 C   0  0  0  0  0  0  0  0  0  0  0  0
   38.0700   24.9530   37.0700 C   0  0  0  0  0  0  0  0  0  0  0  0
   39.0340   24.6050   36.1500 C   0  0  0  0  0  0  0  0  0  0  0  0
   39.8320   23.5620   36.4260 N   0  0  0  0  0  0  0  0  0  0  0  0
   39.7470   22.8250   37.5620 C   0  0  0  0  0  0  0  0  0  0  0  0
   38.7950   23.1750   38.4650 N   0  0  0  0  0  0  0  0  0  0  0  0
   40.6100   21.7280   37.8150 N   0  0  0  0  0  0  0  0  0  0  0  0
   36.3090   27.3860   32.2970 N   0  0  0  0  0  0  0  0  0  0  0  0
   36.1870   27.1780   33.6460 C   0  0  0  0  0  0  0  0  0  0  0  0
   35.9560   28.3120   34.3210 N   0  0  0  0  0  0  0  0  0  0  0  0
   35.9170   29.3090   33.4410 C   0  0  0  0  0  0  0  0  0  0  0  0
   35.7140   30.6450   33.6350 C   0  0  0  0  0  0  0  0  0  0  0  0
   35.7300   31.4330   32.5320 N   0  0  0  0  0  0  0  0  0  0  0  0
   35.9450   30.8570   31.3120 C   0  0  0  0  0  0  0  0  0  0  0  0
   36.1430   29.5410   31.1440 N   0  0  0  0  0  0  0  0  0  0  0  0
   36.1330   28.7310   32.2090 C   0  0  0  0  0  0  0  0  0  0  0  0
   35.4970   31.1600   34.9480 N   0  0  0  0  0  0  0  0  0  0  0  0
   38.1967   24.9945   30.8654 H   0  0  0  0  0  0  0  0  0  0  0  0
   37.0727   23.2141   31.6253 H   0  0  0  0  0  0  0  0  0  0  0  0
   36.5133   24.0487   33.0919 H   0  0  0  0  0  0  0  0  0  0  0  0
   35.1244   23.6665   30.5316 H   0  0  0  0  0  0  0  0  0  0  0  0
   34.4728   24.3227   32.0595 H   0  0  0  0  0  0  0  0  0  0  0  0
   34.4338   26.3419   31.0545 H   0  0  0  0  0  0  0  0  0  0  0  0
   35.3198   25.7521   29.6481 H   0  0  0  0  0  0  0  0  0  0  0  0
   37.0608   26.9988   30.5269 H   0  0  0  0  0  0  0  0  0  0  0  0
   40.7803   26.6369   35.6952 H   0  0  0  0  0  0  0  0  0  0  0  0
   40.9124   27.8485   33.5132 H   0  0  0  0  0  0  0  0  0  0  0  0
   39.4539   27.2873   31.6392 H   0  0  0  0  0  0  0  0  0  0  0  0
   37.2190   24.4482   38.9981 H   0  0  0  0  0  0  0  0  0  0  0  0
   37.3920   25.8000   36.8886 H   0  0  0  0  0  0  0  0  0  0  0  0
   40.5170   21.1904   38.6886 H   0  0  0  0  0  0  0  0  0  0  0  0
   41.3296   21.4690   37.1251 H   0  0  0  0  0  0  0  0  0  0  0  0
   36.2696   26.1897   34.1218 H   0  0  0  0  0  0  0  0  0  0  0  0
   35.9563   31.5048   30.4230 H   0  0  0  0  0  0  0  0  0  0  0  0
   35.3445   32.1692   35.0867 H   0  0  0  0  0  0  0  0  0  0  0  0
   35.4928   30.5226   35.7570 H   0  0  0  0  0  0  0  0  0  0  0  0
  1  2  1  0
  1 10  1  0
  3  2  1  0
  4  5  1  0
  4  3  1  0
  5  1  1  0
  5 19  1  0
  6 14  1  0
  7  6  2  0
  8  7  1  0
  9 10  1  0
  9  8  2  0
 10 11  2  0
 11  6  1  0
 12 17  2  0
 13 12  1  0
 14 15  1  0
 14 13  2  0
 15 16  2  0
 16 18  1  0
 16 17  1  0
 19 20  1  0
 20 21  2  0
 22 23  2  0
 22 21  1  0
 23 28  1  0
 24 23  1  0
 25 24  2  0
 26 25  1  0
 26 27  2  0
 27 19  1  0
 27 22  1  0
  1 29  1  6
  2 30  1  0
  2 31  1  0
  3 32  1  0
  3 33  1  0
  4 34  1  0
  4 35  1  0
  5 36  1  6
  7 37  1  0
  8 38  1  0
  9 39  1  0
 12 40  1  0
 13 41  1  0
 18 42  1  0
 18 43  1  0
 20 44  1  0
 25 45  1  0
 28 46  1  0
 28 47  1  0
M  ISO  8  29  13  30  13  31  13  32  13  33  13  34  13  35  13  36  13
M  ISO  7  37  14  38  14  39  14  40  14  41  14  44  14  45  14
M  END
>  <minimizedAffinity>  (1) 
-6.87628508

>  <minimizedRMSD>  (1) 
3.02527785

$$$$
