
     RDKit          3D

 48 52  0  0  1  0  0  0  0  0999 V2000
   37.0270   25.7490   32.2300 C   0  0  1  0  0  0  0  0  0  0  0  0
   36.5760   24.3210   32.1820 C   0  0  0  0  0  0  0  0  0  0  0  0
   35.5010   24.2540   31.1020 C   0  0  0  0  0  0  0  0  0  0  0  0
   35.1870   25.6460   30.6890 C   0  0  0  0  0  0  0  0  0  0  0  0
   35.7760   26.4870   31.7970 C   0  0  2  0  0  0  0  0  0  0  0  0
   36.0760   27.7830   31.1700 C   0  0  0  0  0  0  0  0  0  0  0  0
   36.9910   27.8110   30.1550 N   0  0  0  0  0  0  0  0  0  0  0  0
   37.3110   28.9570   29.5260 C   0  0  0  0  0  0  0  0  0  0  0  0
   36.7510   30.1410   29.8600 N   0  0  0  0  0  0  0  0  0  0  0  0
   35.8410   30.1770   30.8540 C   0  0  0  0  0  0  0  0  0  0  0  0
   35.2240   31.3620   31.2490 C   0  0  0  0  0  0  0  0  0  0  0  0
   34.2890   31.3780   32.2770 C   0  0  0  0  0  0  0  0  0  0  0  0
   33.9860   30.1710   32.9000 C   0  0  0  0  0  0  0  0  0  0  0  0
   34.6030   29.0260   32.4950 C   0  0  0  0  0  0  0  0  0  0  0  0
   35.5180   29.0000   31.4940 C   0  0  0  0  0  0  0  0  0  0  0  0
   38.2800   25.6020   35.6890 C   0  0  0  0  0  0  0  0  0  0  0  0
   38.2640   26.9170   36.1560 C   0  0  0  0  0  0  0  0  0  0  0  0
   37.8030   27.8450   35.2380 C   0  0  0  0  0  0  0  0  0  0  0  0
   37.3940   27.5220   33.9760 C   0  0  0  0  0  0  0  0  0  0  0  0
   37.4260   26.2150   33.5580 C   0  0  0  0  0  0  0  0  0  0  0  0
   37.8770   25.3040   34.4570 N   0  0  0  0  0  0  0  0  0  0  0  0
   38.6340   23.3240   38.5980 C   0  0  0  0  0  0  0  0  0  0  0  0
   38.1450   24.3600   37.7900 C   0  0  0  0  0  0  0  0  0  0  0  0
   38.7430   24.5490   36.5610 C   0  0  0  0  0  0  0  0  0  0  0  0
   39.7660   23.7370   36.1900 N   0  0  0  0  0  0  0  0  0  0  0  0
   40.2260   22.7340   36.9940 C   0  0  0  0  0  0  0  0  0  0  0  0
   39.6410   22.5540   38.1890 N   0  0  0  0  0  0  0  0  0  0  0  0
   41.2860   21.8990   36.5980 N   0  0  0  0  0  0  0  0  0  0  0  0
   37.9228   25.9039   31.6107 H   0  0  0  0  0  0  0  0  0  0  0  0
   37.4186   23.6628   31.9235 H   0  0  0  0  0  0  0  0  0  0  0  0
   36.1886   23.9886   33.1564 H   0  0  0  0  0  0  0  0  0  0  0  0
   35.8724   23.6821   30.2389 H   0  0  0  0  0  0  0  0  0  0  0  0
   34.5998   23.7541   31.4865 H   0  0  0  0  0  0  0  0  0  0  0  0
   35.6564   25.8844   29.7232 H   0  0  0  0  0  0  0  0  0  0  0  0
   34.1095   25.8174   30.5491 H   0  0  0  0  0  0  0  0  0  0  0  0
   35.1337   26.6501   32.6750 H   0  0  0  0  0  0  0  0  0  0  0  0
   38.0523   28.9292   28.7138 H   0  0  0  0  0  0  0  0  0  0  0  0
   35.4815   32.3015   30.7382 H   0  0  0  0  0  0  0  0  0  0  0  0
   33.8039   32.3149   32.5884 H   0  0  0  0  0  0  0  0  0  0  0  0
   33.2503   30.1416   33.7172 H   0  0  0  0  0  0  0  0  0  0  0  0
   34.3485   28.0830   33.0009 H   0  0  0  0  0  0  0  0  0  0  0  0
   38.5906   27.1932   37.1694 H   0  0  0  0  0  0  0  0  0  0  0  0
   37.7640   28.9014   35.5422 H   0  0  0  0  0  0  0  0  0  0  0  0
   37.0389   28.3090   33.2944 H   0  0  0  0  0  0  0  0  0  0  0  0
   38.1797   23.1445   39.5836 H   0  0  0  0  0  0  0  0  0  0  0  0
   37.3144   24.9993   38.1238 H   0  0  0  0  0  0  0  0  0  0  0  0
   41.6131   21.1498   37.2245 H   0  0  0  0  0  0  0  0  0  0  0  0
   41.7353   22.0367   35.6814 H   0  0  0  0  0  0  0  0  0  0  0  0
  1 20  1  0
  2  1  1  0
  3  2  1  0
  4  3  1  0
  4  5  1  0
  5  1  1  0
  6 15  1  0
  6  5  1  0
  7  6  2  0
  8  9  2  0
  8  7  1  0
  9 10  1  0
 10 11  1  0
 10 15  2  0
 11 12  2  0
 12 13  1  0
 14 13  2  0
 15 14  1  0
 16 17  2  0
 16 24  1  0
 18 17  1  0
 19 18  2  0
 20 19  1  0
 20 21  2  0
 21 16  1  0
 23 22  2  0
 24 23  1  0
 25 24  2  0
 25 26  1  0
 26 27  2  0
 27 22  1  0
 28 26  1  0
  1 29  1  6
  2 30  1  0
  2 31  1  0
  3 32  1  0
  3 33  1  0
  4 34  1  0
  4 35  1  0
  5 36  1  1
  8 37  1  0
 11 38  1  0
 12 39  1  0
 13 40  1  0
 14 41  1  0
 17 42  1  0
 18 43  1  0
 19 44  1  0
 22 45  1  0
 23 46  1  0
 28 47  1  0
 28 48  1  0
M  ISO  8  29  13  30  13  31  13  32  13  33  13  34  13  35  13  36  13
M  ISO  8  37  14  38  14  39  14  40  14  41  14  42  14  43  14  44  14
M  ISO  2  45  14  46  14
M  END
>  <minimizedAffinity>  (1) 
-6.8947382

>  <minimizedRMSD>  (1) 
1.1284709

$$$$
