
     RDKit          3D

 41 44  0  0  1  0  0  0  0  0999 V2000
   38.2910   25.5830   35.6340 C   0  0  0  0  0  0  0  0  0  0  0  0
   38.2220   26.8780   36.1460 C   0  0  0  0  0  0  0  0  0  0  0  0
   37.7140   27.8240   35.2730 C   0  0  0  0  0  0  0  0  0  0  0  0
   37.3080   27.5310   34.0040 C   0  0  0  0  0  0  0  0  0  0  0  0
   37.3920   26.2390   33.5370 C   0  0  0  0  0  0  0  0  0  0  0  0
   37.8890   25.3190   34.3940 N   0  0  0  0  0  0  0  0  0  0  0  0
   37.0030   25.7790   32.2010 C   0  0  1  0  0  0  0  0  0  0  0  0
   36.5630   24.3470   32.1450 C   0  0  0  0  0  0  0  0  0  0  0  0
   35.5430   24.2790   31.0230 C   0  0  0  0  0  0  0  0  0  0  0  0
   35.0150   25.6540   30.7830 C   0  0  0  0  0  0  0  0  0  0  0  0
   35.7500   26.5050   31.7600 C   0  0  2  0  0  0  0  0  0  0  0  0
   36.1220   27.7360   31.0810 N   0  0  0  0  0  0  0  0  0  0  0  0
   36.9820   28.0730   30.1130 C   0  0  0  0  0  0  0  0  0  0  0  0
   36.8990   29.4380   29.8690 C   0  0  0  0  0  0  0  0  0  0  0  0
   35.9700   29.9300   30.7080 N   0  0  0  0  0  0  0  0  0  0  0  0
   35.5010   28.8970   31.4400 C   0  0  0  0  0  0  0  0  0  0  0  0
   38.7950   23.2280   38.4540 C   0  0  0  0  0  0  0  0  0  0  0  0
   38.2430   24.2750   37.6950 C   0  0  0  0  0  0  0  0  0  0  0  0
   38.8100   24.5220   36.4630 C   0  0  0  0  0  0  0  0  0  0  0  0
   39.8530   23.7610   36.0490 N   0  0  0  0  0  0  0  0  0  0  0  0
   40.3720   22.7570   36.7950 C   0  0  0  0  0  0  0  0  0  0  0  0
   39.8220   22.5080   38.0020 N   0  0  0  0  0  0  0  0  0  0  0  0
   41.4560   21.9710   36.3560 N   0  0  0  0  0  0  0  0  0  0  0  0
   38.5468   27.1288   37.1666 H   0  0  0  0  0  0  0  0  0  0  0  0
   37.6335   28.8648   35.6198 H   0  0  0  0  0  0  0  0  0  0  0  0
   36.9139   28.3266   33.3546 H   0  0  0  0  0  0  0  0  0  0  0  0
   37.9012   25.9488   31.5892 H   0  0  0  0  0  0  0  0  0  0  0  0
   37.4182   23.6904   31.9272 H   0  0  0  0  0  0  0  0  0  0  0  0
   36.1381   24.0132   33.1031 H   0  0  0  0  0  0  0  0  0  0  0  0
   36.0217   23.8999   30.1081 H   0  0  0  0  0  0  0  0  0  0  0  0
   34.7217   23.6014   31.2992 H   0  0  0  0  0  0  0  0  0  0  0  0
   35.2219   25.9766   29.7519 H   0  0  0  0  0  0  0  0  0  0  0  0
   33.9240   25.7139   30.9101 H   0  0  0  0  0  0  0  0  0  0  0  0
   35.1258   26.7212   32.6395 H   0  0  0  0  0  0  0  0  0  0  0  0
   37.6527   27.3754   29.5900 H   0  0  0  0  0  0  0  0  0  0  0  0
   37.4819   30.0079   29.1304 H   0  0  0  0  0  0  0  0  0  0  0  0
   34.7267   28.9796   32.2170 H   0  0  0  0  0  0  0  0  0  0  0  0
   38.3702   22.9979   39.4423 H   0  0  0  0  0  0  0  0  0  0  0  0
   37.3965   24.8704   38.0677 H   0  0  0  0  0  0  0  0  0  0  0  0
   41.8208   21.2165   36.9547 H   0  0  0  0  0  0  0  0  0  0  0  0
   41.8835   22.1510   35.4364 H   0  0  0  0  0  0  0  0  0  0  0  0
  1  2  2  0
  1 19  1  0
  3  2  1  0
  4  3  2  0
  5  4  1  0
  5  6  2  0
  6  1  1  0
  7  5  1  0
  8  7  1  0
  9  8  1  0
 10  9  1  0
 10 11  1  0
 11  7  1  0
 12 16  1  0
 12 11  1  0
 13 12  1  0
 14 13  2  0
 14 15  1  0
 15 16  2  0
 18 17  2  0
 19 18  1  0
 20 19  2  0
 20 21  1  0
 21 22  2  0
 22 17  1  0
 23 21  1  0
  2 24  1  0
  3 25  1  0
  4 26  1  0
  7 27  1  6
  8 28  1  0
  8 29  1  0
  9 30  1  0
  9 31  1  0
 10 32  1  0
 10 33  1  0
 11 34  1  1
 13 35  1  0
 14 36  1  0
 16 37  1  0
 17 38  1  0
 18 39  1  0
 23 40  1  0
 23 41  1  0
M  ISO  8  24  14  25  14  26  14  27  13  28  13  29  13  30  13  31  13
M  ISO  8  32  13  33  13  34  13  35  14  36  14  37  14  38  14  39  14
M  END
>  <minimizedAffinity>  (1) 
-6.08892345

>  <minimizedRMSD>  (1) 
0.52799207

$$$$
