
     RDKit          3D

 23 24  0  0  0  0  0  0  0  0999 V2000
   38.3750   23.7850   37.0730 C   0  0  0  0  0  0  0  0  0  0  0  0
   39.0340   22.7080   36.4410 C   0  0  0  0  0  0  0  0  0  0  0  0
   39.1330   22.7580   35.0260 C   0  0  0  0  0  0  0  0  0  0  0  0
   38.5980   23.8180   34.3850 N   0  0  0  0  0  0  0  0  0  0  0  0
   37.9760   24.8290   35.0230 C   0  0  0  0  0  0  0  0  0  0  0  0
   37.8620   24.8180   36.3580 N   0  0  0  0  0  0  0  0  0  0  0  0
   37.4070   25.9530   34.3600 N   0  0  0  0  0  0  0  0  0  0  0  0
   37.0950   27.1330   34.9350 C   0  0  0  0  0  0  0  0  0  0  0  0
   36.5510   28.1230   34.1620 C   0  0  0  0  0  0  0  0  0  0  0  0
   36.3310   27.9140   32.8280 C   0  0  0  0  0  0  0  0  0  0  0  0
   35.8310   28.8070   32.0860 O   0  0  0  0  0  0  0  0  0  0  0  0
   36.6510   26.7240   32.2620 N   0  0  0  0  0  0  0  0  0  0  0  0
   37.1870   25.7580   33.0470 C   0  0  0  0  0  0  0  0  0  0  0  0
   37.4510   24.6780   32.4220 O   0  0  0  0  0  0  0  0  0  0  0  0
   38.2440   23.7790   38.5640 C   0  0  0  0  0  0  0  0  0  0  0  0
   39.4780   23.5320   39.1790 F   0  0  0  0  0  0  0  0  0  0  0  0
   37.8230   25.0260   39.0020 F   0  0  0  0  0  0  0  0  0  0  0  0
   37.3190   22.8190   38.9310 F   0  0  0  0  0  0  0  0  0  0  0  0
   39.4511   21.8696   37.0182 H   0  0  0  0  0  0  0  0  0  0  0  0
   39.6328   21.9536   34.4665 H   0  0  0  0  0  0  0  0  0  0  0  0
   37.2749   27.2968   36.0078 H   0  0  0  0  0  0  0  0  0  0  0  0
   36.2896   29.0906   34.6152 H   0  0  0  0  0  0  0  0  0  0  0  0
   36.4903   26.5581   31.2582 H   0  0  0  0  0  0  0  0  0  0  0  0
  1 15  1  0
  2  1  2  0
  3  2  1  0
  4  5  1  0
  4  3  2  0
  5  6  2  0
  6  1  1  0
  7  8  1  0
  7  5  1  0
  9  8  2  0
 10  9  1  0
 11 10  2  0
 12 10  1  0
 12 13  1  0
 13  7  1  0
 14 13  2  0
 15 18  1  0
 15 17  1  0
 15 16  1  0
  2 19  1  0
  3 20  1  0
  8 21  1  0
  9 22  1  0
 12 23  1  0
M  ISO  5  19  14  20  14  21  14  22  14  23   9
M  END
>  <minimizedAffinity>  (1) 
-5.73205709

>  <minimizedRMSD>  (1) 
1.12512207

$$$$
