
     RDKit          3D

 11 11  0  0  0  0  0  0  0  0999 V2000
   38.9820   22.2510   35.8720 C   0  0  0  0  0  0  0  0  0  0  0  0
   40.0510   22.3300   36.7810 C   0  0  0  0  0  0  0  0  0  0  0  0
   39.8190   22.9040   38.0350 C   0  0  0  0  0  0  0  0  0  0  0  0
   38.5550   23.3660   38.3230 N   0  0  0  0  0  0  0  0  0  0  0  0
   37.5550   23.2740   37.4260 C   0  0  0  0  0  0  0  0  0  0  0  0
   37.7610   22.7210   36.2090 N   0  0  0  0  0  0  0  0  0  0  0  0
   41.6610   21.7000   36.3150 S   0  0  0  0  0  0  0  0  0  0  0  0
   39.1405   21.8036   34.8797 H   0  0  0  0  0  0  0  0  0  0  0  0
   40.6290   22.9845   38.7749 H   0  0  0  0  0  0  0  0  0  0  0  0
   36.5562   23.6540   37.6867 H   0  0  0  0  0  0  0  0  0  0  0  0
   42.3846   21.4168   37.4433 H   0  0  0  0  0  0  0  0  0  0  0  0
  1  6  2  0
  1  2  1  0
  2  3  2  0
  3  4  1  0
  5  4  2  0
  6  5  1  0
  7  2  1  0
  1  8  1  0
  3  9  1  0
  5 10  1  0
  7 11  1  0
M  ISO  4   8  14   9  14  10  14  11  11
M  END
>  <minimizedAffinity>  (1) 
-2.44867873

>  <minimizedRMSD>  (1) 
2.68203402

$$$$
