
     RDKit          3D

 23 23  0  0  0  0  0  0  0  0999 V2000
   39.5800   23.3410   36.4580 C   0  0  0  0  0  0  0  0  0  0  0  0
   38.5370   24.2480   36.2600 C   0  0  0  0  0  0  0  0  0  0  0  0
   37.7380   24.6240   37.3370 C   0  0  0  0  0  0  0  0  0  0  0  0
   38.0270   24.0680   38.5540 N   0  0  0  0  0  0  0  0  0  0  0  0
   39.0280   23.2000   38.7350 C   0  0  0  0  0  0  0  0  0  0  0  0
   39.8120   22.8270   37.6900 N   0  0  0  0  0  0  0  0  0  0  0  0
   38.2470   24.9120   34.6310 S   0  0  0  0  0  0  0  0  0  0  0  0
   38.7370   26.6280   34.4550 C   0  0  0  0  0  0  0  0  0  0  0  0
   40.1830   26.7470   34.9190 C   0  0  0  0  0  0  0  0  0  0  0  0
   37.9260   27.5590   35.3290 C   0  0  0  0  0  0  0  0  0  0  0  0
   38.6720   27.1470   33.0520 C   0  0  0  0  0  0  0  0  0  0  0  0
   40.2154   23.0428   35.6110 H   0  0  0  0  0  0  0  0  0  0  0  0
   36.9098   25.3375   37.2148 H   0  0  0  0  0  0  0  0  0  0  0  0
   39.2178   22.7855   39.7361 H   0  0  0  0  0  0  0  0  0  0  0  0
   40.2162   26.7497   36.0185 H   0  0  0  0  0  0  0  0  0  0  0  0
   40.7622   25.8935   34.5368 H   0  0  0  0  0  0  0  0  0  0  0  0
   40.6148   27.6837   34.5368 H   0  0  0  0  0  0  0  0  0  0  0  0
   38.1230   27.3329   36.3873 H   0  0  0  0  0  0  0  0  0  0  0  0
   38.2099   28.6005   35.1176 H   0  0  0  0  0  0  0  0  0  0  0  0
   36.8554   27.4206   35.1176 H   0  0  0  0  0  0  0  0  0  0  0  0
   38.5353   28.2383   33.0707 H   0  0  0  0  0  0  0  0  0  0  0  0
   39.6076   26.9036   32.5273 H   0  0  0  0  0  0  0  0  0  0  0  0
   37.8253   26.6804   32.5273 H   0  0  0  0  0  0  0  0  0  0  0  0
  1  6  2  0
  2  1  1  0
  2  3  2  0
  3  4  1  0
  4  5  2  0
  6  5  1  0
  7  2  1  0
  8  7  1  0
  8  9  1  0
  8 10  1  0
 11  8  1  0
  1 12  1  0
  3 13  1  0
  5 14  1  0
  9 15  1  0
  9 16  1  0
  9 17  1  0
 10 18  1  0
 10 19  1  0
 10 20  1  0
 11 21  1  0
 11 22  1  0
 11 23  1  0
M  ISO  8  12  14  13  14  14  14  15   8  16   8  17   8  18   8  19   8
M  ISO  4  20   8  21   8  22   8  23   8
M  END
>  <minimizedAffinity>  (1) 
-3.47116399

>  <minimizedRMSD>  (1) 
5.60893154

$$$$
