
     RDKit          3D

 18 19  0  0  0  0  0  0  0  0999 V2000
   39.0880   22.2850   35.7660 C   0  0  0  0  0  0  0  0  0  0  0  0
   40.0690   22.5050   36.7420 C   0  0  0  0  0  0  0  0  0  0  0  0
   39.6680   23.0230   37.9740 C   0  0  0  0  0  0  0  0  0  0  0  0
   38.3370   23.2980   38.1860 N   0  0  0  0  0  0  0  0  0  0  0  0
   37.4200   23.0690   37.2120 C   0  0  0  0  0  0  0  0  0  0  0  0
   37.7900   22.5640   36.0060 N   0  0  0  0  0  0  0  0  0  0  0  0
   41.7750   22.1220   36.3860 S   0  0  0  0  0  0  0  0  0  0  0  0
   42.7570   23.5920   36.2180 C   0  0  0  0  0  0  0  0  0  0  0  0
   43.9730   23.9710   36.7300 C   0  0  0  0  0  0  0  0  0  0  0  0
   44.2610   25.2380   36.2620 C   0  0  0  0  0  0  0  0  0  0  0  0
   43.2170   25.5850   35.4850 N   0  0  0  0  0  0  0  0  0  0  0  0
   42.3030   24.6080   35.4460 N   0  0  0  0  0  0  0  0  0  0  0  0
   39.3812   21.8778   34.7871 H   0  0  0  0  0  0  0  0  0  0  0  0
   40.4077   23.2093   38.7665 H   0  0  0  0  0  0  0  0  0  0  0  0
   36.3605   23.2958   37.4019 H   0  0  0  0  0  0  0  0  0  0  0  0
   44.6079   23.3698   37.3974 H   0  0  0  0  0  0  0  0  0  0  0  0
   45.1566   25.8387   36.4787 H   0  0  0  0  0  0  0  0  0  0  0  0
   43.1331   26.4827   34.9871 H   0  0  0  0  0  0  0  0  0  0  0  0
  1  6  2  0
  1  2  1  0
  2  3  2  0
  3  4  1  0
  5  4  2  0
  6  5  1  0
  7  2  1  0
  8  7  1  0
  8  9  1  0
 10  9  2  0
 11 10  1  0
 12 11  1  0
 12  8  2  0
  1 13  1  0
  3 14  1  0
  5 15  1  0
  9 16  1  0
 10 17  1  0
 11 18  1  0
M  ISO  6  13  14  14  14  15  14  16  14  17  14  18   9
M  END
>  <minimizedAffinity>  (1) 
-3.47183108

>  <minimizedRMSD>  (1) 
1.22114897

$$$$
