
     RDKit          3D

 19 20  0  0  0  0  0  0  0  0999 V2000
   39.0190   22.1760   35.9270 C   0  0  0  0  0  0  0  0  0  0  0  0
   39.9370   22.4440   36.9520 C   0  0  0  0  0  0  0  0  0  0  0  0
   39.4990   23.0860   38.1030 C   0  0  0  0  0  0  0  0  0  0  0  0
   38.1690   23.4310   38.1820 N   0  0  0  0  0  0  0  0  0  0  0  0
   37.3100   23.1620   37.1830 C   0  0  0  0  0  0  0  0  0  0  0  0
   37.7260   22.5380   36.0590 N   0  0  0  0  0  0  0  0  0  0  0  0
   41.6400   21.9450   36.7310 S   0  0  0  0  0  0  0  0  0  0  0  0
   42.5750   23.3890   36.2530 C   0  0  0  0  0  0  0  0  0  0  0  0
   43.8450   23.7370   36.6650 C   0  0  0  0  0  0  0  0  0  0  0  0
   44.3610   24.9100   36.1560 C   0  0  0  0  0  0  0  0  0  0  0  0
   43.6400   25.6570   35.3000 N   0  0  0  0  0  0  0  0  0  0  0  0
   42.4120   25.3240   34.9000 C   0  0  0  0  0  0  0  0  0  0  0  0
   41.8800   24.1730   35.3880 N   0  0  0  0  0  0  0  0  0  0  0  0
   39.3544   21.6681   35.0107 H   0  0  0  0  0  0  0  0  0  0  0  0
   40.1934   23.3117   38.9258 H   0  0  0  0  0  0  0  0  0  0  0  0
   36.2541   23.4540   37.2822 H   0  0  0  0  0  0  0  0  0  0  0  0
   44.4173   23.1100   37.3646 H   0  0  0  0  0  0  0  0  0  0  0  0
   45.3687   25.2373   36.4517 H   0  0  0  0  0  0  0  0  0  0  0  0
   41.8497   25.9590   34.1996 H   0  0  0  0  0  0  0  0  0  0  0  0
  1  6  2  0
  1  2  1  0
  2  3  2  0
  3  4  1  0
  5  4  2  0
  6  5  1  0
  7  2  1  0
  8  9  2  0
  8  7  1  0
 10  9  1  0
 11 10  2  0
 12 11  1  0
 12 13  2  0
 13  8  1  0
  1 14  1  0
  3 15  1  0
  5 16  1  0
  9 17  1  0
 10 18  1  0
 12 19  1  0
M  ISO  6  14  14  15  14  16  14  17  14  18  14  19  14
M  END
>  <minimizedAffinity>  (1) 
-3.53606367

>  <minimizedRMSD>  (1) 
3.59632444

$$$$
