
     RDKit          3D

 16 17  0  0  0  0  0  0  0  0999 V2000
   39.5910   22.9010   36.6740 C   0  0  0  0  0  0  0  0  0  0  0  0
   38.5300   23.5970   36.0900 C   0  0  0  0  0  0  0  0  0  0  0  0
   37.6170   24.2520   36.9110 C   0  0  0  0  0  0  0  0  0  0  0  0
   37.8010   24.1840   38.2650 N   0  0  0  0  0  0  0  0  0  0  0  0
   38.8280   23.5090   38.8050 C   0  0  0  0  0  0  0  0  0  0  0  0
   39.7190   22.8720   38.0260 N   0  0  0  0  0  0  0  0  0  0  0  0
   38.3510   23.6440   34.3150 S   0  0  0  0  0  0  0  0  0  0  0  0
   37.8600   25.2510   33.7450 C   0  0  0  0  0  0  0  0  0  0  0  0
   38.4130   26.4140   34.1350 N   0  0  0  0  0  0  0  0  0  0  0  0
   37.8360   27.4140   33.5400 O   0  0  0  0  0  0  0  0  0  0  0  0
   36.9000   26.9390   32.7530 C   0  0  0  0  0  0  0  0  0  0  0  0
   36.8930   25.5950   32.8620 N   0  0  0  0  0  0  0  0  0  0  0  0
   40.3217   22.3773   36.0401 H   0  0  0  0  0  0  0  0  0  0  0  0
   36.7706   24.8091   36.4830 H   0  0  0  0  0  0  0  0  0  0  0  0
   38.9418   23.4768   39.8986 H   0  0  0  0  0  0  0  0  0  0  0  0
   36.2338   27.5359   32.1127 H   0  0  0  0  0  0  0  0  0  0  0  0
  1  6  2  0
  2  1  1  0
  2  3  2  0
  3  4  1  0
  4  5  2  0
  6  5  1  0
  7  2  1  0
  8  9  2  0
  8  7  1  0
 10  9  1  0
 11 12  2  0
 11 10  1  0
 12  8  1  0
  1 13  1  0
  3 14  1  0
  5 15  1  0
 11 16  1  0
M  ISO  4  13  14  14  14  15  14  16  14
M  END
>  <minimizedAffinity>  (1) 
-3.32804704

>  <minimizedRMSD>  (1) 
6.4835701

$$$$
