
     RDKit          3D

 23 24  0  0  1  0  0  0  0  0999 V2000
   39.0030   22.2340   35.9140 C   0  0  0  0  0  0  0  0  0  0  0  0
   39.9810   22.4190   36.9080 C   0  0  0  0  0  0  0  0  0  0  0  0
   39.6710   23.0630   38.0980 C   0  0  0  0  0  0  0  0  0  0  0  0
   38.3720   23.5070   38.2540 N   0  0  0  0  0  0  0  0  0  0  0  0
   37.4580   23.3210   37.2950 C   0  0  0  0  0  0  0  0  0  0  0  0
   37.7490   22.6960   36.1350 N   0  0  0  0  0  0  0  0  0  0  0  0
   41.6510   21.8110   36.6370 S   0  0  0  0  0  0  0  0  0  0  0  0
   41.7990   24.2130   35.4290 N   0  0  0  0  0  0  0  0  0  0  0  0
   42.7900   25.2320   35.1620 C   0  0  0  0  0  0  0  0  0  0  0  0
   43.9020   24.9680   36.1500 C   0  0  0  0  0  0  0  0  0  0  0  0
   43.7500   23.5530   36.6140 C   0  0  0  0  0  0  0  0  0  0  0  0
   42.6100   23.0640   35.7560 C   0  0  1  0  0  0  0  0  0  0  0  0
   39.2525   21.7225   34.9726 H   0  0  0  0  0  0  0  0  0  0  0  0
   40.4269   23.2133   38.8829 H   0  0  0  0  0  0  0  0  0  0  0  0
   36.4346   23.6900   37.4576 H   0  0  0  0  0  0  0  0  0  0  0  0
   41.2171   24.0333   34.5983 H   0  0  0  0  0  0  0  0  0  0  0  0
   43.1621   25.1479   34.1303 H   0  0  0  0  0  0  0  0  0  0  0  0
   42.3771   26.2461   35.2674 H   0  0  0  0  0  0  0  0  0  0  0  0
   44.8793   25.1029   35.6634 H   0  0  0  0  0  0  0  0  0  0  0  0
   43.8472   25.6667   36.9979 H   0  0  0  0  0  0  0  0  0  0  0  0
   44.6658   22.9717   36.4315 H   0  0  0  0  0  0  0  0  0  0  0  0
   43.5657   23.4572   37.6942 H   0  0  0  0  0  0  0  0  0  0  0  0
   42.9832   22.5909   34.8357 H   0  0  0  0  0  0  0  0  0  0  0  0
  1  6  2  0
  1  2  1  0
  2  3  2  0
  3  4  1  0
  5  4  2  0
  6  5  1  0
  7  2  1  0
  8 12  1  0
  9  8  1  0
  9 10  1  0
 10 11  1  0
 12 11  1  0
 12  7  1  0
  1 13  1  0
  3 14  1  0
  5 15  1  0
  8 16  1  0
  9 17  1  0
  9 18  1  0
 10 19  1  0
 10 20  1  0
 11 21  1  0
 11 22  1  0
 12 23  1  6
M  ISO  8  13  14  14  14  15  14  16   5  17  13  18  13  19  13  20  13
M  ISO  3  21  13  22  13  23  13
M  END
>  <minimizedAffinity>  (1) 
-3.38044906

>  <minimizedRMSD>  (1) 
2.80042124

$$$$
