
     RDKit          3D

 17 17  0  0  0  0  0  0  0  0999 V2000
   39.0570   22.2290   35.9230 C   0  0  0  0  0  0  0  0  0  0  0  0
   39.9380   22.5170   36.9750 C   0  0  0  0  0  0  0  0  0  0  0  0
   39.4420   23.1150   38.1460 C   0  0  0  0  0  0  0  0  0  0  0  0
   38.1020   23.3940   38.2110 N   0  0  0  0  0  0  0  0  0  0  0  0
   37.2820   23.1010   37.1750 C   0  0  0  0  0  0  0  0  0  0  0  0
   37.7490   22.5260   36.0440 N   0  0  0  0  0  0  0  0  0  0  0  0
   41.6650   22.1170   36.8000 S   0  0  0  0  0  0  0  0  0  0  0  0
   42.5770   23.4200   35.9460 C   0  0  0  0  0  0  0  0  0  0  0  0
   43.7810   23.9080   36.7040 C   0  0  0  0  0  0  0  0  0  0  0  0
   39.4333   21.7616   35.0011 H   0  0  0  0  0  0  0  0  0  0  0  0
   40.1105   23.3524   38.9867 H   0  0  0  0  0  0  0  0  0  0  0  0
   36.2104   23.3362   37.2550 H   0  0  0  0  0  0  0  0  0  0  0  0
   41.8989   24.2710   35.7851 H   0  0  0  0  0  0  0  0  0  0  0  0
   42.9424   22.9919   35.0009 H   0  0  0  0  0  0  0  0  0  0  0  0
   43.5901   23.8306   37.7845 H   0  0  0  0  0  0  0  0  0  0  0  0
   44.6541   23.2928   36.4409 H   0  0  0  0  0  0  0  0  0  0  0  0
   43.9793   24.9575   36.4409 H   0  0  0  0  0  0  0  0  0  0  0  0
  1  6  2  0
  1  2  1  0
  2  3  2  0
  3  4  1  0
  5  4  2  0
  6  5  1  0
  7  2  1  0
  8  9  1  0
  8  7  1  0
  1 10  1  0
  3 11  1  0
  5 12  1  0
  8 13  1  0
  8 14  1  0
  9 15  1  0
  9 16  1  0
  9 17  1  0
M  ISO  8  10  14  11  14  12  14  13   8  14   8  15   8  16   8  17   8
M  END
>  <minimizedAffinity>  (1) 
-2.7433629

>  <minimizedRMSD>  (1) 
0.521763146

$$$$
