
     RDKit          3D

 30 32  0  0  0  0  0  0  0  0999 V2000
   38.6200   24.3630   36.5180 C   0  0  0  0  0  0  0  0  0  0  0  0
   39.7090   23.7640   35.8610 C   0  0  0  0  0  0  0  0  0  0  0  0
   40.0570   24.3080   34.5890 C   0  0  0  0  0  0  0  0  0  0  0  0
   39.3260   25.3350   34.1190 N   0  0  0  0  0  0  0  0  0  0  0  0
   38.2820   25.8820   34.7870 C   0  0  0  0  0  0  0  0  0  0  0  0
   37.9350   25.3960   35.9770 N   0  0  0  0  0  0  0  0  0  0  0  0
   37.5130   26.9680   34.2850 N   0  0  0  0  0  0  0  0  0  0  0  0
   36.7130   27.7600   35.0460 C   0  0  0  0  0  0  0  0  0  0  0  0
   36.0340   28.7740   34.4040 C   0  0  0  0  0  0  0  0  0  0  0  0
   36.1640   28.9650   33.0640 C   0  0  0  0  0  0  0  0  0  0  0  0
   35.5440   29.8930   32.4710 O   0  0  0  0  0  0  0  0  0  0  0  0
   36.9660   28.1600   32.3400 N   0  0  0  0  0  0  0  0  0  0  0  0
   37.6330   27.1670   32.9650 C   0  0  0  0  0  0  0  0  0  0  0  0
   38.3630   26.4620   32.2020 O   0  0  0  0  0  0  0  0  0  0  0  0
   37.0780   28.2240   28.7520 N   0  0  0  0  0  0  0  0  0  0  0  0
   36.8390   27.5710   29.8990 N   0  0  0  0  0  0  0  0  0  0  0  0
   37.0770   28.3930   30.9390 C   0  0  0  0  0  0  0  0  0  0  0  0
   37.4900   29.6410   30.4730 C   0  0  0  0  0  0  0  0  0  0  0  0
   37.4760   29.4870   29.0840 C   0  0  0  0  0  0  0  0  0  0  0  0
   38.2090   23.8280   37.8660 C   0  0  0  0  0  0  0  0  0  0  0  0
   39.2640   23.1590   38.4870 F   0  0  0  0  0  0  0  0  0  0  0  0
   37.8320   24.8710   38.6930 F   0  0  0  0  0  0  0  0  0  0  0  0
   37.1350   22.9770   37.6930 F   0  0  0  0  0  0  0  0  0  0  0  0
   40.2622   22.9224   36.3033 H   0  0  0  0  0  0  0  0  0  0  0  0
   40.8982   23.8998   34.0095 H   0  0  0  0  0  0  0  0  0  0  0  0
   36.6112   27.5989   36.1294 H   0  0  0  0  0  0  0  0  0  0  0  0
   35.3772   29.4384   34.9847 H   0  0  0  0  0  0  0  0  0  0  0  0
   36.9797   27.8440   27.7997 H   0  0  0  0  0  0  0  0  0  0  0  0
   37.7614   30.5321   31.0580 H   0  0  0  0  0  0  0  0  0  0  0  0
   37.7469   30.2712   28.3617 H   0  0  0  0  0  0  0  0  0  0  0  0
  1 20  1  0
  2  1  2  0
  3  2  1  0
  4  3  2  0
  4  5  1  0
  5  6  2  0
  6  1  1  0
  7  5  1  0
  7  8  1  0
  9  8  2  0
 10  9  1  0
 11 10  2  0
 12 13  1  0
 12 10  1  0
 13  7  1  0
 14 13  2  0
 15 19  1  0
 15 16  1  0
 16 17  2  0
 17 12  1  0
 18 17  1  0
 19 18  2  0
 20 21  1  0
 20 22  1  0
 23 20  1  0
  2 24  1  0
  3 25  1  0
  8 26  1  0
  9 27  1  0
 15 28  1  0
 18 29  1  0
 19 30  1  0
M  ISO  7  24  14  25  14  26  14  27  14  28   9  29  14  30  14
M  END
>  <minimizedAffinity>  (1) 
-6.30409288

>  <minimizedRMSD>  (1) 
1.5709728

$$$$
