
     RDKit          3D

 32 33  0  0  0  0  0  0  0  0999 V2000
   42.8290   23.2290   35.6370 C   0  0  0  0  0  0  0  0  0  0  0  0
   43.4450   24.5010   36.1630 C   0  0  0  0  0  0  0  0  0  0  0  0
   44.5340   24.2860   37.0920 N   0  0  0  0  0  0  0  0  0  0  0  0
   44.5670   25.4380   37.9380 C   0  0  0  0  0  0  0  0  0  0  0  0
   45.7950   25.5110   38.8080 C   0  0  0  0  0  0  0  0  0  0  0  0
   47.0200   25.4470   37.9140 C   0  0  0  0  0  0  0  0  0  0  0  0
   46.9670   24.0780   37.2700 C   0  0  0  0  0  0  0  0  0  0  0  0
   45.7460   24.0770   36.3490 C   0  0  0  0  0  0  0  0  0  0  0  0
   42.0050   22.2530   36.8940 S   0  0  0  0  0  0  0  0  0  0  0  0
   39.4860   22.3310   35.8330 C   0  0  0  0  0  0  0  0  0  0  0  0
   40.2550   22.5890   36.9820 C   0  0  0  0  0  0  0  0  0  0  0  0
   39.6340   23.0920   38.1360 C   0  0  0  0  0  0  0  0  0  0  0  0
   38.2920   23.3110   38.0910 N   0  0  0  0  0  0  0  0  0  0  0  0
   37.5780   23.0560   36.9810 C   0  0  0  0  0  0  0  0  0  0  0  0
   38.1530   22.5750   35.8660 N   0  0  0  0  0  0  0  0  0  0  0  0
   42.0919   23.4938   34.8646 H   0  0  0  0  0  0  0  0  0  0  0  0
   43.6506   22.6144   35.2406 H   0  0  0  0  0  0  0  0  0  0  0  0
   43.8276   25.0792   35.3090 H   0  0  0  0  0  0  0  0  0  0  0  0
   42.6558   25.0331   36.7145 H   0  0  0  0  0  0  0  0  0  0  0  0
   44.5358   26.3364   37.3040 H   0  0  0  0  0  0  0  0  0  0  0  0
   43.6986   25.3705   38.6098 H   0  0  0  0  0  0  0  0  0  0  0  0
   45.7954   26.4556   39.3716 H   0  0  0  0  0  0  0  0  0  0  0  0
   45.8033   24.6735   39.5211 H   0  0  0  0  0  0  0  0  0  0  0  0
   46.9809   26.2358   37.1483 H   0  0  0  0  0  0  0  0  0  0  0  0
   47.9511   25.6010   38.4790 H   0  0  0  0  0  0  0  0  0  0  0  0
   47.8823   23.8966   36.6875 H   0  0  0  0  0  0  0  0  0  0  0  0
   46.8932   23.2847   38.0285 H   0  0  0  0  0  0  0  0  0  0  0  0
   45.6873   23.1078   35.8322 H   0  0  0  0  0  0  0  0  0  0  0  0
   45.8559   24.8972   35.6243 H   0  0  0  0  0  0  0  0  0  0  0  0
   39.9591   21.9372   34.9214 H   0  0  0  0  0  0  0  0  0  0  0  0
   40.2135   23.3023   39.0470 H   0  0  0  0  0  0  0  0  0  0  0  0
   36.4946   23.2461   36.9856 H   0  0  0  0  0  0  0  0  0  0  0  0
  1  2  1  0
  1  9  1  0
  2  3  1  0
  3  4  1  0
  4  5  1  0
  6  5  1  0
  7  6  1  0
  8  3  1  0
  8  7  1  0
  9 11  1  0
 10 15  2  0
 10 11  1  0
 11 12  2  0
 13 12  1  0
 14 13  2  0
 15 14  1  0
  1 16  1  0
  1 17  1  0
  2 18  1  0
  2 19  1  0
  4 20  1  0
  4 21  1  0
  5 22  1  0
  5 23  1  0
  6 24  1  0
  6 25  1  0
  7 26  1  0
  7 27  1  0
  8 28  1  0
  8 29  1  0
 10 30  1  0
 12 31  1  0
 14 32  1  0
M  ISO  8  16   8  17   8  18   8  19   8  20  13  21  13  22  13  23  13
M  ISO  8  24  13  25  13  26  13  27  13  28  13  29  13  30  14  31  14
M  ISO  1  32  14
M  END
>  <minimizedAffinity>  (1) 
-3.87087703

>  <minimizedRMSD>  (1) 
1.86015952

$$$$
