
     RDKit          3D

 30 32  0  0  0  0  0  0  0  0999 V2000
   38.6310   24.2180   36.7130 C   0  0  0  0  0  0  0  0  0  0  0  0
   39.6660   23.5260   36.0510 C   0  0  0  0  0  0  0  0  0  0  0  0
   40.0130   23.9760   34.7500 C   0  0  0  0  0  0  0  0  0  0  0  0
   39.3290   25.0270   34.2450 N   0  0  0  0  0  0  0  0  0  0  0  0
   38.3430   25.6670   34.9110 C   0  0  0  0  0  0  0  0  0  0  0  0
   37.9930   25.2690   36.1350 N   0  0  0  0  0  0  0  0  0  0  0  0
   37.6320   26.7700   34.3740 N   0  0  0  0  0  0  0  0  0  0  0  0
   36.8970   27.6460   35.0980 C   0  0  0  0  0  0  0  0  0  0  0  0
   36.2570   28.6690   34.4700 C   0  0  0  0  0  0  0  0  0  0  0  0
   36.3660   28.7980   33.1070 C   0  0  0  0  0  0  0  0  0  0  0  0
   35.7990   29.7240   32.4560 O   0  0  0  0  0  0  0  0  0  0  0  0
   37.1090   27.9120   32.3770 N   0  0  0  0  0  0  0  0  0  0  0  0
   37.7260   26.9110   33.0460 C   0  0  0  0  0  0  0  0  0  0  0  0
   38.3980   26.1290   32.2990 O   0  0  0  0  0  0  0  0  0  0  0  0
   37.2120   28.0590   30.9660 C   0  0  0  0  0  0  0  0  0  0  0  0
   38.4000   28.6080   30.5010 C   0  0  0  0  0  0  0  0  0  0  0  0
   38.3390   28.6800   29.1240 C   0  0  0  0  0  0  0  0  0  0  0  0
   37.1340   28.1810   28.7890 N   0  0  0  0  0  0  0  0  0  0  0  0
   36.4670   27.8130   29.8840 N   0  0  0  0  0  0  0  0  0  0  0  0
   38.2320   23.7740   38.0940 C   0  0  0  0  0  0  0  0  0  0  0  0
   39.3270   23.2180   38.7810 F   0  0  0  0  0  0  0  0  0  0  0  0
   37.8180   24.8800   38.8370 F   0  0  0  0  0  0  0  0  0  0  0  0
   37.2050   22.8650   37.9850 F   0  0  0  0  0  0  0  0  0  0  0  0
   40.1814   22.6757   36.5215 H   0  0  0  0  0  0  0  0  0  0  0  0
   40.8110   23.4863   34.1727 H   0  0  0  0  0  0  0  0  0  0  0  0
   36.8175   27.5313   36.1891 H   0  0  0  0  0  0  0  0  0  0  0  0
   35.6573   29.3868   35.0489 H   0  0  0  0  0  0  0  0  0  0  0  0
   39.2465   28.9309   31.1248 H   0  0  0  0  0  0  0  0  0  0  0  0
   39.1126   29.0644   28.4430 H   0  0  0  0  0  0  0  0  0  0  0  0
   36.7786   28.0958   27.8260 H   0  0  0  0  0  0  0  0  0  0  0  0
  1 20  1  0
  2  1  2  0
  3  2  1  0
  4  3  2  0
  4  5  1  0
  5  6  2  0
  6  1  1  0
  7  5  1  0
  7  8  1  0
  9  8  2  0
 10  9  1  0
 11 10  2  0
 12 13  1  0
 12 10  1  0
 13  7  1  0
 14 13  2  0
 15 12  1  0
 16 15  1  0
 17 16  2  0
 18 17  1  0
 18 19  1  0
 19 15  2  0
 20 21  1  0
 20 22  1  0
 23 20  1  0
  2 24  1  0
  3 25  1  0
  8 26  1  0
  9 27  1  0
 16 28  1  0
 17 29  1  0
 18 30  1  0
M  ISO  7  24  14  25  14  26  14  27  14  28  14  29  14  30   9
M  END
>  <minimizedAffinity>  (1) 
-6.29025412

>  <minimizedRMSD>  (1) 
1.34951913

$$$$
