
     RDKit          3D

 23 24  0  0  0  0  0  0  0  0999 V2000
   42.6910   23.1040   35.8470 C   0  0  0  0  0  0  0  0  0  0  0  0
   43.6240   23.9510   36.6590 C   0  0  0  0  0  0  0  0  0  0  0  0
   44.1430   25.0780   35.9410 N   0  0  0  0  0  0  0  0  0  0  0  0
   43.5510   25.6150   34.8340 C   0  0  0  0  0  0  0  0  0  0  0  0
   44.2730   26.6520   34.3950 N   0  0  0  0  0  0  0  0  0  0  0  0
   45.3250   26.7760   35.2240 C   0  0  0  0  0  0  0  0  0  0  0  0
   45.2240   25.8100   36.1530 N   0  0  0  0  0  0  0  0  0  0  0  0
   41.7330   21.9460   36.8590 S   0  0  0  0  0  0  0  0  0  0  0  0
   39.1530   22.2480   35.9330 C   0  0  0  0  0  0  0  0  0  0  0  0
   40.0330   22.4510   36.9960 C   0  0  0  0  0  0  0  0  0  0  0  0
   39.5400   23.0630   38.1720 C   0  0  0  0  0  0  0  0  0  0  0  0
   38.2160   23.4290   38.2120 N   0  0  0  0  0  0  0  0  0  0  0  0
   37.4130   23.2090   37.1560 C   0  0  0  0  0  0  0  0  0  0  0  0
   37.8690   22.6260   36.0250 N   0  0  0  0  0  0  0  0  0  0  0  0
   41.9925   23.7643   35.3121 H   0  0  0  0  0  0  0  0  0  0  0  0
   43.3030   22.5092   35.1530 H   0  0  0  0  0  0  0  0  0  0  0  0
   43.0807   24.3202   37.5413 H   0  0  0  0  0  0  0  0  0  0  0  0
   44.4813   23.3182   36.9322 H   0  0  0  0  0  0  0  0  0  0  0  0
   42.6213   25.2502   34.3730 H   0  0  0  0  0  0  0  0  0  0  0  0
   46.1225   27.5304   35.1543 H   0  0  0  0  0  0  0  0  0  0  0  0
   39.5156   21.7730   35.0095 H   0  0  0  0  0  0  0  0  0  0  0  0
   40.2002   23.2416   39.0335 H   0  0  0  0  0  0  0  0  0  0  0  0
   36.3570   23.5115   37.2142 H   0  0  0  0  0  0  0  0  0  0  0  0
  1  2  1  0
  1  8  1  0
  3  7  1  0
  3  2  1  0
  4  3  1  0
  5  4  2  0
  5  6  1  0
  6  7  2  0
  8 10  1  0
  9 14  2  0
  9 10  1  0
 10 11  2  0
 11 12  1  0
 13 12  2  0
 14 13  1  0
  1 15  1  0
  1 16  1  0
  2 17  1  0
  2 18  1  0
  4 19  1  0
  6 20  1  0
  9 21  1  0
 11 22  1  0
 13 23  1  0
M  ISO  8  15   8  16   8  17   8  18   8  19  14  20  14  21  14  22  14
M  ISO  1  23  14
M  END
>  <minimizedAffinity>  (1) 
-3.25300837

>  <minimizedRMSD>  (1) 
0.50600028

$$$$
