
     RDKit          3D

 29 30  0  0  0  0  0  0  0  0999 V2000
   42.1590   23.4040   35.1080 C   0  0  0  0  0  0  0  0  0  0  0  0
   43.2840   23.3300   36.1050 C   0  0  0  0  0  0  0  0  0  0  0  0
   43.7100   24.6950   36.4130 N   0  0  0  0  0  0  0  0  0  0  0  0
   44.8850   24.5210   37.2790 C   0  0  0  0  0  0  0  0  0  0  0  0
   45.4980   25.8960   37.3060 C   0  0  0  0  0  0  0  0  0  0  0  0
   45.3590   26.3020   35.8410 C   0  0  0  0  0  0  0  0  0  0  0  0
   44.3330   25.3220   35.2630 C   0  0  0  0  0  0  0  0  0  0  0  0
   40.8840   22.1620   35.3260 S   0  0  0  0  0  0  0  0  0  0  0  0
   38.3240   22.8390   36.0850 C   0  0  0  0  0  0  0  0  0  0  0  0
   39.6570   22.6610   36.5100 C   0  0  0  0  0  0  0  0  0  0  0  0
   39.9780   22.8840   37.8670 C   0  0  0  0  0  0  0  0  0  0  0  0
   38.9610   23.2620   38.6880 N   0  0  0  0  0  0  0  0  0  0  0  0
   37.6990   23.4270   38.2610 C   0  0  0  0  0  0  0  0  0  0  0  0
   37.3750   23.2190   36.9750 N   0  0  0  0  0  0  0  0  0  0  0  0
   42.5850   23.2850   34.1008 H   0  0  0  0  0  0  0  0  0  0  0  0
   41.6728   24.3791   35.2590 H   0  0  0  0  0  0  0  0  0  0  0  0
   42.9369   22.8320   37.0223 H   0  0  0  0  0  0  0  0  0  0  0  0
   44.1238   22.7538   35.6893 H   0  0  0  0  0  0  0  0  0  0  0  0
   44.5872   24.2018   38.2887 H   0  0  0  0  0  0  0  0  0  0  0  0
   45.5773   23.7467   36.9169 H   0  0  0  0  0  0  0  0  0  0  0  0
   44.9405   26.5745   37.9684 H   0  0  0  0  0  0  0  0  0  0  0  0
   46.5280   25.9272   37.6907 H   0  0  0  0  0  0  0  0  0  0  0  0
   44.9966   27.3373   35.7578 H   0  0  0  0  0  0  0  0  0  0  0  0
   46.3190   26.2645   35.3052 H   0  0  0  0  0  0  0  0  0  0  0  0
   43.5829   25.8589   34.6638 H   0  0  0  0  0  0  0  0  0  0  0  0
   44.8028   24.5824   34.5979 H   0  0  0  0  0  0  0  0  0  0  0  0
   38.0547   22.6696   35.0320 H   0  0  0  0  0  0  0  0  0  0  0  0
   41.0039   22.7578   38.2433 H   0  0  0  0  0  0  0  0  0  0  0  0
   36.9206   23.7366   38.9739 H   0  0  0  0  0  0  0  0  0  0  0  0
  1  8  1  0
  1  2  1  0
  2  3  1  0
  3  4  1  0
  4  5  1  0
  6  5  1  0
  7  6  1  0
  7  3  1  0
  8 10  1  0
  9 10  2  0
  9 14  1  0
 10 11  1  0
 11 12  2  0
 13 12  1  0
 14 13  2  0
  1 15  1  0
  1 16  1  0
  2 17  1  0
  2 18  1  0
  4 19  1  0
  4 20  1  0
  5 21  1  0
  5 22  1  0
  6 23  1  0
  6 24  1  0
  7 25  1  0
  7 26  1  0
  9 27  1  0
 11 28  1  0
 13 29  1  0
M  ISO  8  15   8  16   8  17   8  18   8  19  13  20  13  21  13  22  13
M  ISO  7  23  13  24  13  25  13  26  13  27  14  28  14  29  14
M  END
>  <minimizedAffinity>  (1) 
-3.3369956

>  <minimizedRMSD>  (1) 
1.90469348

$$$$
