
     RDKit          3D

 18 18  0  0  0  0  0  0  0  0999 V2000
   38.7250   24.1700   36.0980 C   0  0  0  0  0  0  0  0  0  0  0  0
   39.7130   23.2650   36.4840 C   0  0  0  0  0  0  0  0  0  0  0  0
   39.7710   22.8350   37.8180 C   0  0  0  0  0  0  0  0  0  0  0  0
   38.8430   23.3270   38.7010 N   0  0  0  0  0  0  0  0  0  0  0  0
   37.9000   24.2020   38.2950 C   0  0  0  0  0  0  0  0  0  0  0  0
   37.8460   24.6180   37.0010 N   0  0  0  0  0  0  0  0  0  0  0  0
   40.8990   22.6510   35.2980 S   0  0  0  0  0  0  0  0  0  0  0  0
   42.4110   23.6220   35.3090 C   0  0  0  0  0  0  0  0  0  0  0  0
   43.2930   23.3220   36.5030 C   0  0  0  0  0  0  0  0  0  0  0  0
   44.3970   24.6740   36.9020 S   0  0  0  0  0  0  0  0  0  0  0  0
   38.6687   24.5142   35.0548 H   0  0  0  0  0  0  0  0  0  0  0  0
   40.5407   22.1217   38.1478 H   0  0  0  0  0  0  0  0  0  0  0  0
   37.1655   24.5839   39.0194 H   0  0  0  0  0  0  0  0  0  0  0  0
   42.9760   23.4029   34.3910 H   0  0  0  0  0  0  0  0  0  0  0  0
   42.1232   24.6820   35.3681 H   0  0  0  0  0  0  0  0  0  0  0  0
   42.6511   23.1229   37.3738 H   0  0  0  0  0  0  0  0  0  0  0  0
   43.9133   22.4502   36.2478 H   0  0  0  0  0  0  0  0  0  0  0  0
   44.4965   24.7959   38.2629 H   0  0  0  0  0  0  0  0  0  0  0  0
  1  2  2  0
  1  6  1  0
  2  3  1  0
  3  4  2  0
  5  4  1  0
  6  5  2  0
  7  8  1  0
  7  2  1  0
  8  9  1  0
  9 10  1  0
  1 11  1  0
  3 12  1  0
  5 13  1  0
  8 14  1  0
  8 15  1  0
  9 16  1  0
  9 17  1  0
 10 18  1  0
M  ISO  8  11  14  12  14  13  14  14   8  15   8  16   8  17   8  18  11
M  END
>  <minimizedAffinity>  (1) 
-2.76270151

>  <minimizedRMSD>  (1) 
1.45714188

$$$$
