
     RDKit          3D

 38 41  0  0  0  0  0  0  0  0999 V2000
   45.4420   21.0770   34.6690 C   0  0  0  0  0  0  0  0  0  0  0  0
   45.1390   22.5170   34.9460 C   0  0  0  0  0  0  0  0  0  0  0  0
   45.9610   23.1040   36.0140 C   0  0  0  0  0  0  0  0  0  0  0  0
   47.2740   22.6980   36.2410 C   0  0  0  0  0  0  0  0  0  0  0  0
   47.7960   23.3900   37.2720 N   0  0  0  0  0  0  0  0  0  0  0  0
   46.8840   24.2420   37.7400 C   0  0  0  0  0  0  0  0  0  0  0  0
   46.8290   25.1880   38.7520 C   0  0  0  0  0  0  0  0  0  0  0  0
   45.7060   25.9600   39.0260 C   0  0  0  0  0  0  0  0  0  0  0  0
   44.5880   25.7390   38.2080 C   0  0  0  0  0  0  0  0  0  0  0  0
   44.5950   24.8030   37.1810 C   0  0  0  0  0  0  0  0  0  0  0  0
   45.7550   24.0720   36.9740 C   0  0  0  0  0  0  0  0  0  0  0  0
   44.1860   19.9390   35.3180 S   0  0  0  0  0  0  0  0  0  0  0  0
   41.8930   21.3910   34.8100 C   0  0  0  0  0  0  0  0  0  0  0  0
   42.7190   20.8400   35.8210 C   0  0  0  0  0  0  0  0  0  0  0  0
   42.3790   21.0080   37.1740 C   0  0  0  0  0  0  0  0  0  0  0  0
   41.2410   21.7090   37.4650 N   0  0  0  0  0  0  0  0  0  0  0  0
   40.4800   22.2180   36.4940 C   0  0  0  0  0  0  0  0  0  0  0  0
   40.7960   22.0640   35.1920 N   0  0  0  0  0  0  0  0  0  0  0  0
   39.2980   22.9430   36.9570 C   0  0  0  0  0  0  0  0  0  0  0  0
   39.1890   23.2420   38.3090 C   0  0  0  0  0  0  0  0  0  0  0  0
   37.9910   23.9190   38.4540 C   0  0  0  0  0  0  0  0  0  0  0  0
   37.4270   23.9960   37.1780 C   0  0  0  0  0  0  0  0  0  0  0  0
   38.2470   23.3980   36.3150 O   0  0  0  0  0  0  0  0  0  0  0  0
   45.5092   20.9380   33.5799 H   0  0  0  0  0  0  0  0  0  0  0  0
   46.3884   20.8405   35.1772 H   0  0  0  0  0  0  0  0  0  0  0  0
   45.3094   23.0905   34.0229 H   0  0  0  0  0  0  0  0  0  0  0  0
   44.0937   22.5637   35.2854 H   0  0  0  0  0  0  0  0  0  0  0  0
   47.8055   21.9269   35.6641 H   0  0  0  0  0  0  0  0  0  0  0  0
   48.7510   23.2782   37.6412 H   0  0  0  0  0  0  0  0  0  0  0  0
   47.7246   25.3360   39.3732 H   0  0  0  0  0  0  0  0  0  0  0  0
   45.6946   26.7020   39.8380 H   0  0  0  0  0  0  0  0  0  0  0  0
   43.6751   26.3264   38.3855 H   0  0  0  0  0  0  0  0  0  0  0  0
   43.7069   24.6466   36.5511 H   0  0  0  0  0  0  0  0  0  0  0  0
   42.1428   21.2710   33.7455 H   0  0  0  0  0  0  0  0  0  0  0  0
   43.0078   20.5892   37.9735 H   0  0  0  0  0  0  0  0  0  0  0  0
   39.9084   22.9916   39.1026 H   0  0  0  0  0  0  0  0  0  0  0  0
   37.5671   24.3172   39.3877 H   0  0  0  0  0  0  0  0  0  0  0  0
   36.4668   24.4708   36.9279 H   0  0  0  0  0  0  0  0  0  0  0  0
  1  2  1  0
  1 12  1  0
  2  3  1  0
  3  4  2  0
  3 11  1  0
  4  5  1  0
  5  6  1  0
  6  7  2  0
  7  8  1  0
  9  8  2  0
 10  9  1  0
 11 10  2  0
 11  6  1  0
 12 14  1  0
 13 18  2  0
 13 14  1  0
 14 15  2  0
 15 16  1  0
 17 19  1  0
 17 16  2  0
 18 17  1  0
 19 20  2  0
 20 21  1  0
 22 21  2  0
 23 19  1  0
 23 22  1  0
  1 24  1  0
  1 25  1  0
  2 26  1  0
  2 27  1  0
  4 28  1  0
  5 29  1  0
  7 30  1  0
  8 31  1  0
  9 32  1  0
 10 33  1  0
 13 34  1  0
 15 35  1  0
 20 36  1  0
 21 37  1  0
 22 38  1  0
M  ISO  8  24   8  25   8  26   8  27   8  28  14  29   9  30  14  31  14
M  ISO  7  32  14  33  14  34  14  35  14  36  14  37  14  38  14
M  END
>  <minimizedAffinity>  (1) 
-5.44143057

>  <minimizedRMSD>  (1) 
3.20175433

$$$$
