
     RDKit          3D

 42 45  0  0  0  0  0  0  0  0999 V2000
   43.1670   26.1480   33.9730 C   0  0  0  0  0  0  0  0  0  0  0  0
   43.0930   25.4350   35.2820 C   0  0  0  0  0  0  0  0  0  0  0  0
   44.3810   24.9010   35.7470 C   0  0  0  0  0  0  0  0  0  0  0  0
   45.1740   24.0900   34.9450 C   0  0  0  0  0  0  0  0  0  0  0  0
   46.2950   23.7370   35.6000 N   0  0  0  0  0  0  0  0  0  0  0  0
   46.2820   24.2830   36.8150 C   0  0  0  0  0  0  0  0  0  0  0  0
   47.1160   24.2910   37.9120 C   0  0  0  0  0  0  0  0  0  0  0  0
   46.8440   24.9750   39.1020 C   0  0  0  0  0  0  0  0  0  0  0  0
   45.6450   25.6800   39.1360 C   0  0  0  0  0  0  0  0  0  0  0  0
   44.7650   25.7080   38.0610 C   0  0  0  0  0  0  0  0  0  0  0  0
   45.1180   24.9980   36.9180 C   0  0  0  0  0  0  0  0  0  0  0  0
   42.1430   25.3690   32.6880 S   0  0  0  0  0  0  0  0  0  0  0  0
   40.8380   23.0380   33.4230 C   0  0  0  0  0  0  0  0  0  0  0  0
   40.7890   24.4460   33.4280 C   0  0  0  0  0  0  0  0  0  0  0  0
   39.6900   25.1030   34.0050 C   0  0  0  0  0  0  0  0  0  0  0  0
   38.7050   24.3300   34.5440 N   0  0  0  0  0  0  0  0  0  0  0  0
   38.7780   22.9970   34.5260 C   0  0  0  0  0  0  0  0  0  0  0  0
   39.8340   22.3560   33.9710 N   0  0  0  0  0  0  0  0  0  0  0  0
   37.6790   22.3200   35.1250 N   0  0  0  0  0  0  0  0  0  0  0  0
   36.9010   21.4210   34.5160 C   0  0  0  0  0  0  0  0  0  0  0  0
   35.8740   20.8690   35.2790 C   0  0  0  0  0  0  0  0  0  0  0  0
   35.6720   21.2360   36.5940 C   0  0  0  0  0  0  0  0  0  0  0  0
   34.5960   20.6390   37.3420 N   0  0  0  0  0  0  0  0  0  0  0  0
   36.4820   22.1450   37.1570 N   0  0  0  0  0  0  0  0  0  0  0  0
   37.4860   22.6820   36.4080 C   0  0  0  0  0  0  0  0  0  0  0  0
   38.1760   23.5230   37.0560 O   0  0  0  0  0  0  0  0  0  0  0  0
   42.8236   27.1831   34.1166 H   0  0  0  0  0  0  0  0  0  0  0  0
   44.2123   26.1086   33.6328 H   0  0  0  0  0  0  0  0  0  0  0  0
   42.7175   26.1396   36.0387 H   0  0  0  0  0  0  0  0  0  0  0  0
   42.4255   24.5728   35.1368 H   0  0  0  0  0  0  0  0  0  0  0  0
   44.9214   23.7804   33.9201 H   0  0  0  0  0  0  0  0  0  0  0  0
   47.0441   23.1396   35.2221 H   0  0  0  0  0  0  0  0  0  0  0  0
   48.0559   23.7232   37.8481 H   0  0  0  0  0  0  0  0  0  0  0  0
   47.5352   24.9565   39.9575 H   0  0  0  0  0  0  0  0  0  0  0  0
   45.3838   26.2362   40.0484 H   0  0  0  0  0  0  0  0  0  0  0  0
   43.8220   26.2720   38.1120 H   0  0  0  0  0  0  0  0  0  0  0  0
   41.6921   22.5103   32.9735 H   0  0  0  0  0  0  0  0  0  0  0  0
   39.6264   26.2010   34.0214 H   0  0  0  0  0  0  0  0  0  0  0  0
   37.0626   21.1316   33.4671 H   0  0  0  0  0  0  0  0  0  0  0  0
   35.2079   20.1224   34.8220 H   0  0  0  0  0  0  0  0  0  0  0  0
   34.4398   20.9085   38.3238 H   0  0  0  0  0  0  0  0  0  0  0  0
   33.9826   19.9425   36.8952 H   0  0  0  0  0  0  0  0  0  0  0  0
  1  2  1  0
  2  3  1  0
  3 11  1  0
  4  5  1  0
  4  3  2  0
  5  6  1  0
  6 11  2  0
  6  7  1  0
  7  8  2  0
  8  9  1  0
 10  9  2  0
 11 10  1  0
 12 14  1  0
 12  1  1  0
 13 14  2  0
 13 18  1  0
 14 15  1  0
 15 16  2  0
 17 16  1  0
 17 19  1  0
 18 17  2  0
 19 25  1  0
 20 19  1  0
 20 21  2  0
 21 22  1  0
 22 24  2  0
 22 23  1  0
 25 26  2  0
 25 24  1  0
  1 27  1  0
  1 28  1  0
  2 29  1  0
  2 30  1  0
  4 31  1  0
  5 32  1  0
  7 33  1  0
  8 34  1  0
  9 35  1  0
 10 36  1  0
 13 37  1  0
 15 38  1  0
 20 39  1  0
 21 40  1  0
 23 41  1  0
 23 42  1  0
M  ISO  8  27   8  28   8  29   8  30   8  31  14  32   9  33  14  34  14
M  ISO  6  35  14  36  14  37  14  38  14  39  14  40  14
M  END
>  <minimizedAffinity>  (1) 
-6.09270763

>  <minimizedRMSD>  (1) 
3.72364569

$$$$
