
     RDKit          3D

 35 36  0  0  0  0  0  0  0  0999 V2000
   38.4490   23.8160   37.2550 C   0  0  0  0  0  0  0  0  0  0  0  0
   39.1560   22.7650   36.6300 C   0  0  0  0  0  0  0  0  0  0  0  0
   39.3080   22.8600   35.2240 C   0  0  0  0  0  0  0  0  0  0  0  0
   38.7840   23.9200   34.5820 N   0  0  0  0  0  0  0  0  0  0  0  0
   38.1180   24.9000   35.2260 C   0  0  0  0  0  0  0  0  0  0  0  0
   37.9510   24.8490   36.5460 N   0  0  0  0  0  0  0  0  0  0  0  0
   37.5400   26.0420   34.5810 N   0  0  0  0  0  0  0  0  0  0  0  0
   37.1620   27.1850   35.1660 C   0  0  0  0  0  0  0  0  0  0  0  0
   36.6180   28.1740   34.3870 C   0  0  0  0  0  0  0  0  0  0  0  0
   36.4630   28.0030   33.0500 C   0  0  0  0  0  0  0  0  0  0  0  0
   35.9670   28.8950   32.3170 O   0  0  0  0  0  0  0  0  0  0  0  0
   36.8500   26.8460   32.4860 N   0  0  0  0  0  0  0  0  0  0  0  0
   37.3840   25.8720   33.2470 C   0  0  0  0  0  0  0  0  0  0  0  0
   37.7150   24.8210   32.5990 O   0  0  0  0  0  0  0  0  0  0  0  0
   38.2630   23.7580   38.7380 C   0  0  0  0  0  0  0  0  0  0  0  0
   39.4820   23.6210   39.4120 F   0  0  0  0  0  0  0  0  0  0  0  0
   37.6780   24.9380   39.1850 F   0  0  0  0  0  0  0  0  0  0  0  0
   37.4090   22.7020   39.0480 F   0  0  0  0  0  0  0  0  0  0  0  0
   36.6960   26.6330   31.0560 C   0  0  0  0  0  0  0  0  0  0  0  0
   36.6630   27.8500   30.2190 C   0  0  0  0  0  0  0  0  0  0  0  0
   35.3960   25.8780   30.7940 C   0  0  0  0  0  0  0  0  0  0  0  0
   37.8030   25.7290   30.4940 C   0  0  0  0  0  0  0  0  0  0  0  0
   39.5658   21.9199   37.2025 H   0  0  0  0  0  0  0  0  0  0  0  0
   39.8460   22.0792   34.6664 H   0  0  0  0  0  0  0  0  0  0  0  0
   37.2852   27.3282   36.2497 H   0  0  0  0  0  0  0  0  0  0  0  0
   36.3028   29.1194   34.8528 H   0  0  0  0  0  0  0  0  0  0  0  0
   36.6389   28.7394   30.8659 H   0  0  0  0  0  0  0  0  0  0  0  0
   37.5606   27.8827   29.5840 H   0  0  0  0  0  0  0  0  0  0  0  0
   35.7650   27.8340   29.5840 H   0  0  0  0  0  0  0  0  0  0  0  0
   34.9297   25.6072   31.7527 H   0  0  0  0  0  0  0  0  0  0  0  0
   34.7096   26.5180   30.2202 H   0  0  0  0  0  0  0  0  0  0  0  0
   35.6117   24.9646   30.2202 H   0  0  0  0  0  0  0  0  0  0  0  0
   38.3613   25.2731   31.3250 H   0  0  0  0  0  0  0  0  0  0  0  0
   37.3522   24.9375   29.8772 H   0  0  0  0  0  0  0  0  0  0  0  0
   38.4884   26.3288   29.8772 H   0  0  0  0  0  0  0  0  0  0  0  0
  1 15  1  0
  2  1  2  0
  3  2  1  0
  4  3  2  0
  4  5  1  0
  5  6  2  0
  6  1  1  0
  7  8  1  0
  7  5  1  0
  9  8  2  0
 10  9  1  0
 11 10  2  0
 12 10  1  0
 12 13  1  0
 13  7  1  0
 14 13  2  0
 15 18  1  0
 15 17  1  0
 15 16  1  0
 19 12  1  0
 20 19  1  0
 21 19  1  0
 22 19  1  0
  2 23  1  0
  3 24  1  0
  8 25  1  0
  9 26  1  0
 20 27  1  0
 20 28  1  0
 20 29  1  0
 21 30  1  0
 21 31  1  0
 21 32  1  0
 22 33  1  0
 22 34  1  0
 22 35  1  0
M  ISO  8  23  14  24  14  25  14  26  14  27   8  28   8  29   8  30   8
M  ISO  5  31   8  32   8  33   8  34   8  35   8
M  END
>  <minimizedAffinity>  (1) 
-6.01822853

>  <minimizedRMSD>  (1) 
0.539999545

$$$$
