
     RDKit          3D

 36 39  0  0  0  0  0  0  0  0999 V2000
   45.3030   21.2510   34.5240 C   0  0  0  0  0  0  0  0  0  0  0  0
   45.0500   22.6850   34.8540 C   0  0  0  0  0  0  0  0  0  0  0  0
   45.8980   23.1990   35.9420 C   0  0  0  0  0  0  0  0  0  0  0  0
   47.2030   22.7460   36.1490 C   0  0  0  0  0  0  0  0  0  0  0  0
   47.7480   23.3790   37.2030 N   0  0  0  0  0  0  0  0  0  0  0  0
   46.8630   24.2380   37.7120 C   0  0  0  0  0  0  0  0  0  0  0  0
   46.8280   25.1470   38.7620 C   0  0  0  0  0  0  0  0  0  0  0  0
   45.7350   25.9400   39.0740 C   0  0  0  0  0  0  0  0  0  0  0  0
   44.6220   25.7870   38.2630 C   0  0  0  0  0  0  0  0  0  0  0  0
   44.5880   24.8960   37.1950 C   0  0  0  0  0  0  0  0  0  0  0  0
   45.7290   24.1330   36.9440 C   0  0  0  0  0  0  0  0  0  0  0  0
   44.1300   20.1170   35.3220 S   0  0  0  0  0  0  0  0  0  0  0  0
   41.7790   21.4620   34.7590 C   0  0  0  0  0  0  0  0  0  0  0  0
   42.6320   20.9850   35.7750 C   0  0  0  0  0  0  0  0  0  0  0  0
   42.2850   21.2000   37.1080 C   0  0  0  0  0  0  0  0  0  0  0  0
   41.1210   21.8720   37.3690 N   0  0  0  0  0  0  0  0  0  0  0  0
   40.3270   22.3170   36.3740 C   0  0  0  0  0  0  0  0  0  0  0  0
   40.6610   22.1090   35.0910 N   0  0  0  0  0  0  0  0  0  0  0  0
   39.1620   22.9930   36.9220 C   0  0  0  0  0  0  0  0  0  0  0  0
   38.0430   23.4870   36.3610 N   0  0  0  0  0  0  0  0  0  0  0  0
   37.2750   24.0130   37.2910 O   0  0  0  0  0  0  0  0  0  0  0  0
   37.8630   23.8810   38.4780 C   0  0  0  0  0  0  0  0  0  0  0  0
   39.0430   23.2420   38.2380 N   0  0  0  0  0  0  0  0  0  0  0  0
   45.2260   21.1240   33.4341 H   0  0  0  0  0  0  0  0  0  0  0  0
   46.3066   21.0009   34.8986 H   0  0  0  0  0  0  0  0  0  0  0  0
   45.2377   23.2873   33.9529 H   0  0  0  0  0  0  0  0  0  0  0  0
   44.0073   22.7575   35.1967 H   0  0  0  0  0  0  0  0  0  0  0  0
   47.7103   21.9836   35.5395 H   0  0  0  0  0  0  0  0  0  0  0  0
   48.7011   23.2246   37.5618 H   0  0  0  0  0  0  0  0  0  0  0  0
   47.7277   25.2438   39.3874 H   0  0  0  0  0  0  0  0  0  0  0  0
   45.7502   26.6486   39.9153 H   0  0  0  0  0  0  0  0  0  0  0  0
   43.7292   26.3946   38.4720 H   0  0  0  0  0  0  0  0  0  0  0  0
   43.6897   24.7961   36.5680 H   0  0  0  0  0  0  0  0  0  0  0  0
   42.0335   21.3018   33.7009 H   0  0  0  0  0  0  0  0  0  0  0  0
   42.9271   20.8405   37.9256 H   0  0  0  0  0  0  0  0  0  0  0  0
   37.4766   24.2179   39.4512 H   0  0  0  0  0  0  0  0  0  0  0  0
  1  2  1  0
  1 12  1  0
  2  3  1  0
  3  4  2  0
  3 11  1  0
  4  5  1  0
  5  6  1  0
  6  7  2  0
  7  8  1  0
  9  8  2  0
 10  9  1  0
 11 10  2  0
 11  6  1  0
 12 14  1  0
 13 18  2  0
 13 14  1  0
 14 15  2  0
 15 16  1  0
 17 19  1  0
 17 16  2  0
 18 17  1  0
 19 23  1  0
 20 19  2  0
 20 21  1  0
 21 22  1  0
 23 22  2  0
  1 24  1  0
  1 25  1  0
  2 26  1  0
  2 27  1  0
  4 28  1  0
  5 29  1  0
  7 30  1  0
  8 31  1  0
  9 32  1  0
 10 33  1  0
 13 34  1  0
 15 35  1  0
 22 36  1  0
M  ISO  8  24   8  25   8  26   8  27   8  28  14  29   9  30  14  31  14
M  ISO  5  32  14  33  14  34  14  35  14  36  14
M  END
>  <minimizedAffinity>  (1) 
-5.28290796

>  <minimizedRMSD>  (1) 
3.11217046

$$$$
