
     RDKit          3D

 41 44  0  0  0  0  0  0  0  0999 V2000
   45.9720   23.0840   33.1630 C   0  0  0  0  0  0  0  0  0  0  0  0
   45.6860   24.2860   33.9960 C   0  0  0  0  0  0  0  0  0  0  0  0
   46.3840   24.2850   35.2910 C   0  0  0  0  0  0  0  0  0  0  0  0
   47.6600   23.7490   35.4470 C   0  0  0  0  0  0  0  0  0  0  0  0
   48.0570   23.8800   36.7250 N   0  0  0  0  0  0  0  0  0  0  0  0
   47.1110   24.4770   37.4350 C   0  0  0  0  0  0  0  0  0  0  0  0
   46.9340   24.8750   38.7470 C   0  0  0  0  0  0  0  0  0  0  0  0
   45.7910   25.5070   39.2340 C   0  0  0  0  0  0  0  0  0  0  0  0
   44.7820   25.7350   38.3020 C   0  0  0  0  0  0  0  0  0  0  0  0
   44.8970   25.3610   36.9700 C   0  0  0  0  0  0  0  0  0  0  0  0
   46.0700   24.7340   36.5620 C   0  0  0  0  0  0  0  0  0  0  0  0
   45.0100   21.6230   33.6550 S   0  0  0  0  0  0  0  0  0  0  0  0
   42.4550   22.6390   33.9400 C   0  0  0  0  0  0  0  0  0  0  0  0
   43.5710   22.1110   34.6150 C   0  0  0  0  0  0  0  0  0  0  0  0
   43.5250   21.9830   35.9990 C   0  0  0  0  0  0  0  0  0  0  0  0
   42.3940   22.3780   36.6500 N   0  0  0  0  0  0  0  0  0  0  0  0
   41.3450   22.8770   35.9850 C   0  0  0  0  0  0  0  0  0  0  0  0
   41.3900   22.9990   34.6500 N   0  0  0  0  0  0  0  0  0  0  0  0
   40.1180   23.3100   36.6430 C   0  0  0  0  0  0  0  0  0  0  0  0
   39.8260   22.9240   37.9540 C   0  0  0  0  0  0  0  0  0  0  0  0
   38.6620   23.3340   38.5780 C   0  0  0  0  0  0  0  0  0  0  0  0
   37.7540   24.1470   37.8980 C   0  0  0  0  0  0  0  0  0  0  0  0
   38.0140   24.5440   36.6000 C   0  0  0  0  0  0  0  0  0  0  0  0
   39.1760   24.1090   36.0380 C   0  0  0  0  0  0  0  0  0  0  0  0
   47.0418   22.8439   33.2522 H   0  0  0  0  0  0  0  0  0  0  0  0
   45.6869   23.3288   32.1292 H   0  0  0  0  0  0  0  0  0  0  0  0
   45.9959   25.1798   33.4347 H   0  0  0  0  0  0  0  0  0  0  0  0
   44.6073   24.2800   34.2111 H   0  0  0  0  0  0  0  0  0  0  0  0
   48.2542   23.2875   34.6446 H   0  0  0  0  0  0  0  0  0  0  0  0
   48.9635   23.5628   37.0973 H   0  0  0  0  0  0  0  0  0  0  0  0
   47.7520   24.6794   39.4559 H   0  0  0  0  0  0  0  0  0  0  0  0
   45.6924   25.8066   40.2878 H   0  0  0  0  0  0  0  0  0  0  0  0
   43.8579   26.2307   38.6340 H   0  0  0  0  0  0  0  0  0  0  0  0
   44.0827   25.5552   36.2565 H   0  0  0  0  0  0  0  0  0  0  0  0
   42.4635   22.7518   32.8458 H   0  0  0  0  0  0  0  0  0  0  0  0
   44.3807   21.5728   36.5553 H   0  0  0  0  0  0  0  0  0  0  0  0
   40.5344   22.2829   38.4991 H   0  0  0  0  0  0  0  0  0  0  0  0
   38.4517   23.0192   39.6108 H   0  0  0  0  0  0  0  0  0  0  0  0
   36.8290   24.4726   38.3964 H   0  0  0  0  0  0  0  0  0  0  0  0
   37.3126   25.1839   36.0445 H   0  0  0  0  0  0  0  0  0  0  0  0
   39.3799   24.4261   35.0046 H   0  0  0  0  0  0  0  0  0  0  0  0
  1 12  1  0
  1  2  1  0
  2  3  1  0
  3  4  2  0
  3 11  1  0
  4  5  1  0
  5  6  1  0
  6  7  2  0
  7  8  1  0
  9  8  2  0
 10  9  1  0
 11 10  2  0
 11  6  1  0
 12 14  1  0
 13 14  2  0
 13 18  1  0
 14 15  1  0
 15 16  2  0
 17 19  1  0
 17 16  1  0
 18 17  2  0
 19 20  2  0
 20 21  1  0
 22 21  2  0
 23 22  1  0
 24 23  2  0
 24 19  1  0
  1 25  1  0
  1 26  1  0
  2 27  1  0
  2 28  1  0
  4 29  1  0
  5 30  1  0
  7 31  1  0
  8 32  1  0
  9 33  1  0
 10 34  1  0
 13 35  1  0
 15 36  1  0
 20 37  1  0
 21 38  1  0
 22 39  1  0
 23 40  1  0
 24 41  1  0
M  ISO  8  25   8  26   8  27   8  28   8  29  14  30   9  31  14  32  14
M  ISO  8  33  14  34  14  35  14  36  14  37  14  38  14  39  14  40  14
M  ISO  1  41  14
M  END
>  <minimizedAffinity>  (1) 
-5.24282312

>  <minimizedRMSD>  (1) 
3.6152215

$$$$
