
     RDKit          3D

 38 41  0  0  0  0  0  0  0  0999 V2000
   42.7430   24.8240   35.5020 C   0  0  0  0  0  0  0  0  0  0  0  0
   44.1120   24.4330   35.8540 C   0  0  0  0  0  0  0  0  0  0  0  0
   44.8770   23.5960   35.0340 C   0  0  0  0  0  0  0  0  0  0  0  0
   46.0860   23.3970   35.5860 N   0  0  0  0  0  0  0  0  0  0  0  0
   46.1770   24.0520   36.7310 C   0  0  0  0  0  0  0  0  0  0  0  0
   47.1270   24.2380   37.7270 C   0  0  0  0  0  0  0  0  0  0  0  0
   46.9340   25.0140   38.8640 C   0  0  0  0  0  0  0  0  0  0  0  0
   45.6790   25.6360   38.9730 C   0  0  0  0  0  0  0  0  0  0  0  0
   44.6920   25.4900   38.0170 C   0  0  0  0  0  0  0  0  0  0  0  0
   44.9700   24.6970   36.9140 C   0  0  0  0  0  0  0  0  0  0  0  0
   42.6600   25.9310   34.5080 C   0  0  0  0  0  0  0  0  0  0  0  0
   41.7130   25.4820   33.0270 S   0  0  0  0  0  0  0  0  0  0  0  0
   39.2780   24.7970   34.1470 C   0  0  0  0  0  0  0  0  0  0  0  0
   40.4130   24.3300   33.4410 C   0  0  0  0  0  0  0  0  0  0  0  0
   40.4970   22.9760   33.0820 C   0  0  0  0  0  0  0  0  0  0  0  0
   39.4650   22.1510   33.4330 N   0  0  0  0  0  0  0  0  0  0  0  0
   38.4060   22.6190   34.0980 C   0  0  0  0  0  0  0  0  0  0  0  0
   38.3100   23.9170   34.4510 N   0  0  0  0  0  0  0  0  0  0  0  0
   37.2860   21.8400   34.5060 N   0  0  0  0  0  0  0  0  0  0  0  0
   36.9610   21.7530   35.8100 C   0  0  0  0  0  0  0  0  0  0  0  0
   35.8490   20.9370   35.8480 C   0  0  0  0  0  0  0  0  0  0  0  0
   35.5020   20.5380   34.6120 N   0  0  0  0  0  0  0  0  0  0  0  0
   36.4010   21.1040   33.7880 C   0  0  0  0  0  0  0  0  0  0  0  0
   42.2302   23.9455   35.0834 H   0  0  0  0  0  0  0  0  0  0  0  0
   42.2724   25.1926   36.4254 H   0  0  0  0  0  0  0  0  0  0  0  0
   44.5391   23.1652   34.0799 H   0  0  0  0  0  0  0  0  0  0  0  0
   46.8332   22.8183   35.1766 H   0  0  0  0  0  0  0  0  0  0  0  0
   48.0989   23.7368   37.6079 H   0  0  0  0  0  0  0  0  0  0  0  0
   47.7145   25.1335   39.6299 H   0  0  0  0  0  0  0  0  0  0  0  0
   45.4742   26.2633   39.8531 H   0  0  0  0  0  0  0  0  0  0  0  0
   43.7169   25.9870   38.1274 H   0  0  0  0  0  0  0  0  0  0  0  0
   42.1756   26.7956   34.9854 H   0  0  0  0  0  0  0  0  0  0  0  0
   43.6860   26.1623   34.1857 H   0  0  0  0  0  0  0  0  0  0  0  0
   39.1912   25.8539   34.4392 H   0  0  0  0  0  0  0  0  0  0  0  0
   41.3687   22.5894   32.5336 H   0  0  0  0  0  0  0  0  0  0  0  0
   37.4713   22.2291   36.6603 H   0  0  0  0  0  0  0  0  0  0  0  0
   35.3171   20.6510   36.7674 H   0  0  0  0  0  0  0  0  0  0  0  0
   36.4166   20.9876   32.6943 H   0  0  0  0  0  0  0  0  0  0  0  0
  1  2  1  0
  2 10  1  0
  3  4  1  0
  3  2  2  0
  4  5  1  0
  5 10  2  0
  5  6  1  0
  6  7  2  0
  7  8  1  0
  9  8  2  0
 10  9  1  0
 11  1  1  0
 12 14  1  0
 12 11  1  0
 13 18  2  0
 14 13  1  0
 15 16  1  0
 15 14  2  0
 16 17  2  0
 17 18  1  0
 17 19  1  0
 19 20  1  0
 20 21  2  0
 22 21  1  0
 23 19  1  0
 23 22  2  0
  1 24  1  0
  1 25  1  0
  3 26  1  0
  4 27  1  0
  6 28  1  0
  7 29  1  0
  8 30  1  0
  9 31  1  0
 11 32  1  0
 11 33  1  0
 13 34  1  0
 15 35  1  0
 20 36  1  0
 21 37  1  0
 23 38  1  0
M  ISO  8  24   8  25   8  26  14  27   9  28  14  29  14  30  14  31  14
M  ISO  7  32   8  33   8  34  14  35  14  36  14  37  14  38  14
M  END
>  <minimizedAffinity>  (1) 
-5.00678921

>  <minimizedRMSD>  (1) 
3.68355584

$$$$
