
     RDKit          3D

 36 38  0  0  0  0  0  0  0  0999 V2000
   38.6450   24.0720   37.1500 C   0  0  0  0  0  0  0  0  0  0  0  0
   39.6830   23.2770   36.6290 C   0  0  0  0  0  0  0  0  0  0  0  0
   40.1230   23.5780   35.3130 C   0  0  0  0  0  0  0  0  0  0  0  0
   39.5330   24.5930   34.6450 N   0  0  0  0  0  0  0  0  0  0  0  0
   38.5430   25.3290   35.1790 C   0  0  0  0  0  0  0  0  0  0  0  0
   38.0910   25.0800   36.4250 N   0  0  0  0  0  0  0  0  0  0  0  0
   37.8880   26.4070   34.5130 N   0  0  0  0  0  0  0  0  0  0  0  0
   37.1550   27.3790   35.0690 C   0  0  0  0  0  0  0  0  0  0  0  0
   36.5950   28.3340   34.2620 C   0  0  0  0  0  0  0  0  0  0  0  0
   36.7770   28.3020   32.9170 C   0  0  0  0  0  0  0  0  0  0  0  0
   36.2770   29.1660   32.1390 O   0  0  0  0  0  0  0  0  0  0  0  0
   37.5160   27.3210   32.3740 N   0  0  0  0  0  0  0  0  0  0  0  0
   38.0640   26.3830   33.1800 C   0  0  0  0  0  0  0  0  0  0  0  0
   38.7460   25.5040   32.5340 O   0  0  0  0  0  0  0  0  0  0  0  0
   37.7030   27.2980   30.9140 C   0  0  0  0  0  0  0  0  0  0  0  0
   36.6140   28.0140   30.1770 C   0  0  0  0  0  0  0  0  0  0  0  0
   37.3380   28.7920   29.0780 C   0  0  0  0  0  0  0  0  0  0  0  0
   38.7250   29.0480   29.5850 C   0  0  0  0  0  0  0  0  0  0  0  0
   39.0220   27.9200   30.5230 C   0  0  0  0  0  0  0  0  0  0  0  0
   38.1460   23.7930   38.5310 C   0  0  0  0  0  0  0  0  0  0  0  0
   39.1870   23.4880   39.4000 F   0  0  0  0  0  0  0  0  0  0  0  0
   37.5050   24.9210   39.0300 F   0  0  0  0  0  0  0  0  0  0  0  0
   37.2210   22.7540   38.4680 F   0  0  0  0  0  0  0  0  0  0  0  0
   40.1323   22.4608   37.2138 H   0  0  0  0  0  0  0  0  0  0  0  0
   40.9302   22.9949   34.8457 H   0  0  0  0  0  0  0  0  0  0  0  0
   37.0044   27.4106   36.1582 H   0  0  0  0  0  0  0  0  0  0  0  0
   35.9904   29.1367   34.7094 H   0  0  0  0  0  0  0  0  0  0  0  0
   37.6804   26.2351   30.6317 H   0  0  0  0  0  0  0  0  0  0  0  0
   35.9035   27.2963   29.7409 H   0  0  0  0  0  0  0  0  0  0  0  0
   36.0273   28.6712   30.8356 H   0  0  0  0  0  0  0  0  0  0  0  0
   36.8224   29.7439   28.8829 H   0  0  0  0  0  0  0  0  0  0  0  0
   37.3561   28.2266   28.1346 H   0  0  0  0  0  0  0  0  0  0  0  0
   39.4436   29.0549   28.7522 H   0  0  0  0  0  0  0  0  0  0  0  0
   38.8034   30.0252   30.0839 H   0  0  0  0  0  0  0  0  0  0  0  0
   39.6565   27.1730   30.0236 H   0  0  0  0  0  0  0  0  0  0  0  0
   39.5576   28.2850   31.4117 H   0  0  0  0  0  0  0  0  0  0  0  0
  1 20  1  0
  2  1  2  0
  3  2  1  0
  4  5  1  0
  4  3  2  0
  5  6  2  0
  6  1  1  0
  7  8  1  0
  7  5  1  0
  9  8  2  0
 10  9  1  0
 11 10  2  0
 12 10  1  0
 12 13  1  0
 13  7  1  0
 14 13  2  0
 15 12  1  0
 16 15  1  0
 17 18  1  0
 17 16  1  0
 18 19  1  0
 19 15  1  0
 20 22  1  0
 20 21  1  0
 23 20  1  0
  2 24  1  0
  3 25  1  0
  8 26  1  0
  9 27  1  0
 15 28  1  0
 16 29  1  0
 16 30  1  0
 17 31  1  0
 17 32  1  0
 18 33  1  0
 18 34  1  0
 19 35  1  0
 19 36  1  0
M  ISO  8  24  14  25  14  26  14  27  14  28  13  29  13  30  13  31  13
M  ISO  5  32  13  33  13  34  13  35  13  36  13
M  END
>  <minimizedAffinity>  (1) 
-5.98964214

>  <minimizedRMSD>  (1) 
1.0652535

$$$$
