
     RDKit          3D

 42 46  0  0  0  0  0  0  0  0999 V2000
   43.6030   25.7170   33.8370 C   0  0  0  0  0  0  0  0  0  0  0  0
   44.4840   26.7210   34.5020 C   0  0  0  0  0  0  0  0  0  0  0  0
   45.5690   26.1240   35.2920 C   0  0  0  0  0  0  0  0  0  0  0  0
   46.7730   25.7120   34.7150 C   0  0  0  0  0  0  0  0  0  0  0  0
   47.5840   25.2050   35.6610 N   0  0  0  0  0  0  0  0  0  0  0  0
   46.9920   25.2540   36.8370 C   0  0  0  0  0  0  0  0  0  0  0  0
   47.2980   24.8980   38.1460 C   0  0  0  0  0  0  0  0  0  0  0  0
   46.4370   25.0770   39.2260 C   0  0  0  0  0  0  0  0  0  0  0  0
   45.1910   25.6540   38.9420 C   0  0  0  0  0  0  0  0  0  0  0  0
   44.8300   26.0280   37.6620 C   0  0  0  0  0  0  0  0  0  0  0  0
   45.7420   25.8200   36.6300 C   0  0  0  0  0  0  0  0  0  0  0  0
   42.1870   25.2200   34.8620 S   0  0  0  0  0  0  0  0  0  0  0  0
   41.4870   22.8350   33.6870 C   0  0  0  0  0  0  0  0  0  0  0  0
   41.0840   24.1520   33.9510 C   0  0  0  0  0  0  0  0  0  0  0  0
   39.8280   24.5880   33.4930 C   0  0  0  0  0  0  0  0  0  0  0  0
   39.0510   23.7070   32.8070 N   0  0  0  0  0  0  0  0  0  0  0  0
   39.4700   22.4510   32.5720 C   0  0  0  0  0  0  0  0  0  0  0  0
   40.6660   22.0310   33.0050 N   0  0  0  0  0  0  0  0  0  0  0  0
   38.5770   21.6160   31.8450 N   0  0  0  0  0  0  0  0  0  0  0  0
   38.6950   21.1700   30.5830 C   0  0  0  0  0  0  0  0  0  0  0  0
   37.6300   20.3960   30.2580 N   0  0  0  0  0  0  0  0  0  0  0  0
   36.8150   20.3500   31.3420 C   0  0  0  0  0  0  0  0  0  0  0  0
   35.6130   19.6930   31.5020 C   0  0  0  0  0  0  0  0  0  0  0  0
   34.9720   19.7930   32.6880 N   0  0  0  0  0  0  0  0  0  0  0  0
   35.5720   20.5410   33.6350 C   0  0  0  0  0  0  0  0  0  0  0  0
   36.7410   21.1790   33.4740 N   0  0  0  0  0  0  0  0  0  0  0  0
   37.4230   21.1140   32.3150 C   0  0  0  0  0  0  0  0  0  0  0  0
   43.2221   26.1512   32.9008 H   0  0  0  0  0  0  0  0  0  0  0  0
   44.2093   24.8170   33.6572 H   0  0  0  0  0  0  0  0  0  0  0  0
   44.9306   27.3594   33.7255 H   0  0  0  0  0  0  0  0  0  0  0  0
   43.8528   27.2892   35.2011 H   0  0  0  0  0  0  0  0  0  0  0  0
   47.0209   25.7905   33.6462 H   0  0  0  0  0  0  0  0  0  0  0  0
   48.5293   24.8330   35.4909 H   0  0  0  0  0  0  0  0  0  0  0  0
   48.2820   24.4466   38.3407 H   0  0  0  0  0  0  0  0  0  0  0  0
   46.7194   24.7815   40.2472 H   0  0  0  0  0  0  0  0  0  0  0  0
   44.4783   25.8139   39.7645 H   0  0  0  0  0  0  0  0  0  0  0  0
   43.8466   26.4789   37.4628 H   0  0  0  0  0  0  0  0  0  0  0  0
   42.4640   22.4694   34.0360 H   0  0  0  0  0  0  0  0  0  0  0  0
   39.4828   25.6147   33.6845 H   0  0  0  0  0  0  0  0  0  0  0  0
   39.5346   21.3996   29.9104 H   0  0  0  0  0  0  0  0  0  0  0  0
   35.1844   19.0995   30.6810 H   0  0  0  0  0  0  0  0  0  0  0  0
   35.0678   20.6349   34.6081 H   0  0  0  0  0  0  0  0  0  0  0  0
  1  2  1  0
  1 12  1  0
  2  3  1  0
  3 11  1  0
  4  3  2  0
  4  5  1  0
  5  6  1  0
  6  7  2  0
  7  8  1  0
  9  8  2  0
 10  9  1  0
 11  6  1  0
 11 10  2  0
 13 14  2  0
 14 12  1  0
 15 14  1  0
 16 15  2  0
 17 16  1  0
 17 18  2  0
 18 13  1  0
 19 27  1  0
 19 17  1  0
 20 19  1  0
 21 20  2  0
 21 22  1  0
 22 23  2  0
 22 27  1  0
 23 24  1  0
 24 25  2  0
 26 25  1  0
 27 26  2  0
  1 28  1  0
  1 29  1  0
  2 30  1  0
  2 31  1  0
  4 32  1  0
  5 33  1  0
  7 34  1  0
  8 35  1  0
  9 36  1  0
 10 37  1  0
 13 38  1  0
 15 39  1  0
 20 40  1  0
 23 41  1  0
 25 42  1  0
M  ISO  8  28   8  29   8  30   8  31   8  32  14  33   9  34  14  35  14
M  ISO  7  36  14  37  14  38  14  39  14  40  14  41  14  42  14
M  END
>  <minimizedAffinity>  (1) 
-4.97700691

>  <minimizedRMSD>  (1) 
5.9788928

$$$$
