
     RDKit          3D

 23 24  0  0  0  0  0  0  0  0999 V2000
   39.6990   22.8530   37.5660 C   0  0  0  0  0  0  0  0  0  0  0  0
   38.9130   23.2870   38.6580 C   0  0  0  0  0  0  0  0  0  0  0  0
   37.9360   24.2530   38.3980 C   0  0  0  0  0  0  0  0  0  0  0  0
   37.7980   24.7130   37.1290 N   0  0  0  0  0  0  0  0  0  0  0  0
   38.5720   24.2700   36.1140 C   0  0  0  0  0  0  0  0  0  0  0  0
   39.5140   23.3460   36.3340 N   0  0  0  0  0  0  0  0  0  0  0  0
   38.3460   24.8180   34.8210 N   0  0  0  0  0  0  0  0  0  0  0  0
   37.8550   26.1700   34.6870 C   0  0  0  0  0  0  0  0  0  0  0  0
   37.1420   26.3770   33.3890 C   0  0  0  0  0  0  0  0  0  0  0  0
   36.8500   25.1820   32.7460 O   0  0  0  0  0  0  0  0  0  0  0  0
   38.0780   24.5960   32.3930 C   0  0  0  0  0  0  0  0  0  0  0  0
   38.6190   23.9900   33.6640 C   0  0  0  0  0  0  0  0  0  0  0  0
   40.4786   22.0948   37.7312 H   0  0  0  0  0  0  0  0  0  0  0  0
   39.0636   22.8819   39.6695 H   0  0  0  0  0  0  0  0  0  0  0  0
   37.2926   24.6322   39.2056 H   0  0  0  0  0  0  0  0  0  0  0  0
   37.1589   26.3793   35.5127 H   0  0  0  0  0  0  0  0  0  0  0  0
   38.7183   26.8511   34.7147 H   0  0  0  0  0  0  0  0  0  0  0  0
   36.2006   26.9112   33.5850 H   0  0  0  0  0  0  0  0  0  0  0  0
   37.8067   26.9564   32.7314 H   0  0  0  0  0  0  0  0  0  0  0  0
   37.9268   23.8176   31.6306 H   0  0  0  0  0  0  0  0  0  0  0  0
   38.7731   25.3339   31.9661 H   0  0  0  0  0  0  0  0  0  0  0  0
   38.1523   23.0053   33.8143 H   0  0  0  0  0  0  0  0  0  0  0  0
   39.7105   23.9022   33.5599 H   0  0  0  0  0  0  0  0  0  0  0  0
  1  2  2  0
  3  2  1  0
  4  3  2  0
  5  6  2  0
  5  4  1  0
  6  1  1  0
  7  5  1  0
  8  7  1  0
  9  8  1  0
 10  9  1  0
 11 10  1  0
 11 12  1  0
 12  7  1  0
  1 13  1  0
  2 14  1  0
  3 15  1  0
  8 16  1  0
  8 17  1  0
  9 18  1  0
  9 19  1  0
 11 20  1  0
 11 21  1  0
 12 22  1  0
 12 23  1  0
M  ISO  8  13  14  14  14  15  14  16  13  17  13  18  13  19  13  20  13
M  ISO  3  21  13  22  13  23  13
M  END
>  <minimizedAffinity>  (1) 
-3.76453376

>  <minimizedRMSD>  (1) 
3.21733689

$$$$
