
     RDKit          3D

 37 40  0  0  1  0  0  0  0  0999 V2000
   43.2560   23.1350   36.4420 C   0  0  0  0  0  0  0  0  0  0  0  0
   44.0210   24.2340   36.8740 C   0  0  0  0  0  0  0  0  0  0  0  0
   44.0570   25.3460   36.0390 C   0  0  0  0  0  0  0  0  0  0  0  0
   43.3660   25.3180   34.8770 N   0  0  0  0  0  0  0  0  0  0  0  0
   42.6450   24.2530   34.4960 C   0  0  0  0  0  0  0  0  0  0  0  0
   42.5970   23.1660   35.2860 N   0  0  0  0  0  0  0  0  0  0  0  0
   41.9510   24.3110   33.2550 N   0  0  0  0  0  0  0  0  0  0  0  0
   42.4650   25.1280   32.1940 C   0  0  0  0  0  0  0  0  0  0  0  0
   41.4070   25.5030   31.2180 C   0  0  0  0  0  0  0  0  0  0  0  0
   40.1300   25.3040   31.7410 O   0  0  0  0  0  0  0  0  0  0  0  0
   39.9870   23.9030   31.8630 C   0  0  0  0  0  0  0  0  0  0  0  0
   40.7250   23.5240   33.1080 C   0  0  2  0  0  0  0  0  0  0  0  0
   39.8910   23.5900   34.3160 C   0  0  0  0  0  0  0  0  0  0  0  0
   39.5880   22.3690   34.8290 N   0  0  0  0  0  0  0  0  0  0  0  0
   38.8210   22.3120   35.9310 C   0  0  0  0  0  0  0  0  0  0  0  0
   38.3270   23.4020   36.5680 N   0  0  0  0  0  0  0  0  0  0  0  0
   38.6070   24.6240   36.0900 C   0  0  0  0  0  0  0  0  0  0  0  0
   38.1580   25.8020   36.6590 C   0  0  0  0  0  0  0  0  0  0  0  0
   38.4840   27.0450   36.1170 C   0  0  0  0  0  0  0  0  0  0  0  0
   39.2820   27.0710   34.9720 C   0  0  0  0  0  0  0  0  0  0  0  0
   39.7310   25.8980   34.4010 C   0  0  0  0  0  0  0  0  0  0  0  0
   39.3870   24.6920   34.9670 C   0  0  0  0  0  0  0  0  0  0  0  0
   43.2016   22.2341   37.0708 H   0  0  0  0  0  0  0  0  0  0  0  0
   44.5662   24.2147   37.8292 H   0  0  0  0  0  0  0  0  0  0  0  0
   44.6395   26.2358   36.3201 H   0  0  0  0  0  0  0  0  0  0  0  0
   42.8908   26.0455   32.6264 H   0  0  0  0  0  0  0  0  0  0  0  0
   43.2313   24.5480   31.6588 H   0  0  0  0  0  0  0  0  0  0  0  0
   41.5218   24.8876   30.3135 H   0  0  0  0  0  0  0  0  0  0  0  0
   41.5193   26.5719   30.9839 H   0  0  0  0  0  0  0  0  0  0  0  0
   38.9243   23.6328   31.9505 H   0  0  0  0  0  0  0  0  0  0  0  0
   40.3838   23.3776   30.9818 H   0  0  0  0  0  0  0  0  0  0  0  0
   41.0077   22.4671   32.9938 H   0  0  0  0  0  0  0  0  0  0  0  0
   38.5792   21.3204   36.3412 H   0  0  0  0  0  0  0  0  0  0  0  0
   37.5289   25.7574   37.5603 H   0  0  0  0  0  0  0  0  0  0  0  0
   38.1233   27.9765   36.5777 H   0  0  0  0  0  0  0  0  0  0  0  0
   39.5555   28.0361   34.5206 H   0  0  0  0  0  0  0  0  0  0  0  0
   40.3600   25.9268   33.4990 H   0  0  0  0  0  0  0  0  0  0  0  0
  1  2  2  0
  3  2  1  0
  4  3  2  0
  5  4  1  0
  5  6  2  0
  6  1  1  0
  7  5  1  0
  8  7  1  0
  9 10  1  0
  9  8  1  0
 10 11  1  0
 11 12  1  0
 12  7  1  0
 12 13  1  0
 13 14  2  0
 13 22  1  0
 14 15  1  0
 15 16  2  0
 17 16  1  0
 17 18  2  0
 19 18  1  0
 20 19  2  0
 21 22  2  0
 21 20  1  0
 22 17  1  0
  1 23  1  0
  2 24  1  0
  3 25  1  0
  8 26  1  0
  8 27  1  0
  9 28  1  0
  9 29  1  0
 11 30  1  0
 11 31  1  0
 12 32  1  6
 15 33  1  0
 18 34  1  0
 19 35  1  0
 20 36  1  0
 21 37  1  0
M  ISO  8  23  14  24  14  25  14  26  13  27  13  28  13  29  13  30  13
M  ISO  7  31  13  32  13  33  14  34  14  35  14  36  14  37  14
M  END
>  <minimizedAffinity>  (1) 
-5.02456427

>  <minimizedRMSD>  (1) 
4.52009916

$$$$
