
     RDKit          3D

 32 34  0  0  1  0  0  0  0  0999 V2000
   39.7100   22.8910   37.6820 C   0  0  0  0  0  0  0  0  0  0  0  0
   38.8810   23.3240   38.7420 C   0  0  0  0  0  0  0  0  0  0  0  0
   37.8980   24.2610   38.4380 C   0  0  0  0  0  0  0  0  0  0  0  0
   37.7870   24.7040   37.1670 N   0  0  0  0  0  0  0  0  0  0  0  0
   38.6080   24.2580   36.1780 C   0  0  0  0  0  0  0  0  0  0  0  0
   39.5650   23.3580   36.4280 N   0  0  0  0  0  0  0  0  0  0  0  0
   38.3790   24.8030   34.8780 N   0  0  0  0  0  0  0  0  0  0  0  0
   37.8590   26.1250   34.7140 C   0  0  0  0  0  0  0  0  0  0  0  0
   37.1730   26.3060   33.4000 C   0  0  0  0  0  0  0  0  0  0  0  0
   36.9540   25.0880   32.7500 O   0  0  0  0  0  0  0  0  0  0  0  0
   38.2330   24.5700   32.4470 C   0  0  0  0  0  0  0  0  0  0  0  0
   38.6890   23.9660   33.7510 C   0  0  1  0  0  0  0  0  0  0  0  0
   40.1080   23.5320   33.7270 C   0  0  0  0  0  0  0  0  0  0  0  0
   40.5260   22.1980   33.6920 C   0  0  0  0  0  0  0  0  0  0  0  0
   41.8700   21.8950   33.6720 C   0  0  0  0  0  0  0  0  0  0  0  0
   42.8310   22.9080   33.6870 C   0  0  0  0  0  0  0  0  0  0  0  0
   42.3670   24.2220   33.7220 C   0  0  0  0  0  0  0  0  0  0  0  0
   41.0620   24.5060   33.7420 N   0  0  0  0  0  0  0  0  0  0  0  0
   40.4969   22.1505   37.8881 H   0  0  0  0  0  0  0  0  0  0  0  0
   39.0075   22.9367   39.7638 H   0  0  0  0  0  0  0  0  0  0  0  0
   37.2218   24.6351   39.2209 H   0  0  0  0  0  0  0  0  0  0  0  0
   37.1373   26.3236   35.5200 H   0  0  0  0  0  0  0  0  0  0  0  0
   38.7057   26.8262   34.7506 H   0  0  0  0  0  0  0  0  0  0  0  0
   36.2034   26.7966   33.5705 H   0  0  0  0  0  0  0  0  0  0  0  0
   37.8233   26.9200   32.7596 H   0  0  0  0  0  0  0  0  0  0  0  0
   38.1701   23.8040   31.6601 H   0  0  0  0  0  0  0  0  0  0  0  0
   38.9247   25.3355   32.0655 H   0  0  0  0  0  0  0  0  0  0  0  0
   38.1038   23.0437   33.8808 H   0  0  0  0  0  0  0  0  0  0  0  0
   39.7806   21.3892   33.6804 H   0  0  0  0  0  0  0  0  0  0  0  0
   42.1897   20.8428   33.6439 H   0  0  0  0  0  0  0  0  0  0  0  0
   43.9068   22.6792   33.6719 H   0  0  0  0  0  0  0  0  0  0  0  0
   43.0948   25.0468   33.7335 H   0  0  0  0  0  0  0  0  0  0  0  0
  1  2  2  0
  3  2  1  0
  4  3  2  0
  5  6  2  0
  5  4  1  0
  6  1  1  0
  7  5  1  0
  8  7  1  0
  9  8  1  0
 10  9  1  0
 11 10  1  0
 11 12  1  0
 12  7  1  0
 13 18  1  0
 13 12  1  0
 14 13  2  0
 15 16  2  0
 15 14  1  0
 16 17  1  0
 17 18  2  0
  1 19  1  0
  2 20  1  0
  3 21  1  0
  8 22  1  0
  8 23  1  0
  9 24  1  0
  9 25  1  0
 11 26  1  0
 11 27  1  0
 12 28  1  1
 14 29  1  0
 15 30  1  0
 16 31  1  0
 17 32  1  0
M  ISO  8  19  14  20  14  21  14  22  13  23  13  24  13  25  13  26  13
M  ISO  6  27  13  28  13  29  14  30  14  31  14  32  14
M  END
>  <minimizedAffinity>  (1) 
-4.20201254

>  <minimizedRMSD>  (1) 
0.181975186

$$$$
