
     RDKit          3D

 31 33  0  0  1  0  0  0  0  0999 V2000
   40.1670   23.0390   36.9420 C   0  0  0  0  0  0  0  0  0  0  0  0
   39.3370   22.9510   38.0940 C   0  0  0  0  0  0  0  0  0  0  0  0
   38.1970   23.7660   38.1300 C   0  0  0  0  0  0  0  0  0  0  0  0
   37.9540   24.5850   37.0690 N   0  0  0  0  0  0  0  0  0  0  0  0
   38.7700   24.6300   36.0030 C   0  0  0  0  0  0  0  0  0  0  0  0
   39.8750   23.8630   35.9310 N   0  0  0  0  0  0  0  0  0  0  0  0
   38.4360   25.5180   34.9410 N   0  0  0  0  0  0  0  0  0  0  0  0
   37.6910   26.7280   35.2350 C   0  0  0  0  0  0  0  0  0  0  0  0
   36.9630   27.2350   34.0420 C   0  0  0  0  0  0  0  0  0  0  0  0
   36.8630   26.2790   33.0510 O   0  0  0  0  0  0  0  0  0  0  0  0
   38.1350   26.0170   32.5550 C   0  0  0  0  0  0  0  0  0  0  0  0
   38.8460   25.1910   33.5900 C   0  0  2  0  0  0  0  0  0  0  0  0
   38.7460   23.7290   33.3150 C   0  0  0  0  0  0  0  0  0  0  0  0
   39.7690   22.8710   32.9010 C   0  0  0  0  0  0  0  0  0  0  0  0
   39.4550   21.5360   32.7030 C   0  0  0  0  0  0  0  0  0  0  0  0
   38.2180   21.0780   32.8990 N   0  0  0  0  0  0  0  0  0  0  0  0
   37.2580   21.9380   33.2990 C   0  0  0  0  0  0  0  0  0  0  0  0
   37.4940   23.2480   33.5110 N   0  0  0  0  0  0  0  0  0  0  0  0
   41.0703   22.4142   36.8819 H   0  0  0  0  0  0  0  0  0  0  0  0
   39.5801   22.2706   38.9234 H   0  0  0  0  0  0  0  0  0  0  0  0
   37.5158   23.7447   38.9934 H   0  0  0  0  0  0  0  0  0  0  0  0
   36.9629   26.5127   36.0309 H   0  0  0  0  0  0  0  0  0  0  0  0
   38.4072   27.5008   35.5509 H   0  0  0  0  0  0  0  0  0  0  0  0
   35.9503   27.5379   34.3464 H   0  0  0  0  0  0  0  0  0  0  0  0
   37.5285   28.0867   33.6360 H   0  0  0  0  0  0  0  0  0  0  0  0
   38.0648   25.4597   31.6092 H   0  0  0  0  0  0  0  0  0  0  0  0
   38.6797   26.9515   32.3551 H   0  0  0  0  0  0  0  0  0  0  0  0
   39.9107   25.4566   33.5135 H   0  0  0  0  0  0  0  0  0  0  0  0
   40.7909   23.2438   32.7376 H   0  0  0  0  0  0  0  0  0  0  0  0
   40.2421   20.8399   32.3775 H   0  0  0  0  0  0  0  0  0  0  0  0
   36.2398   21.5536   33.4588 H   0  0  0  0  0  0  0  0  0  0  0  0
  1  2  2  0
  2  3  1  0
  4  3  2  0
  5  4  1  0
  6  5  2  0
  6  1  1  0
  7  8  1  0
  7  5  1  0
  9  8  1  0
 10  9  1  0
 11 10  1  0
 11 12  1  0
 12  7  1  0
 13 18  1  0
 13 12  1  0
 14 13  2  0
 15 16  2  0
 15 14  1  0
 16 17  1  0
 17 18  2  0
  1 19  1  0
  2 20  1  0
  3 21  1  0
  8 22  1  0
  8 23  1  0
  9 24  1  0
  9 25  1  0
 11 26  1  0
 11 27  1  0
 12 28  1  1
 14 29  1  0
 15 30  1  0
 17 31  1  0
M  ISO  8  19  14  20  14  21  14  22  13  23  13  24  13  25  13  26  13
M  ISO  5  27  13  28  13  29  14  30  14  31  14
M  END
>  <minimizedAffinity>  (1) 
-4.28043509

>  <minimizedRMSD>  (1) 
1.25344479

$$$$
