
     RDKit          3D

 30 31  0  0  1  0  0  0  0  0999 V2000
   39.6060   22.8090   37.4370 C   0  0  0  0  0  0  0  0  0  0  0  0
   38.8960   23.2730   38.5780 C   0  0  0  0  0  0  0  0  0  0  0  0
   37.9680   24.2980   38.3790 C   0  0  0  0  0  0  0  0  0  0  0  0
   37.7990   24.7870   37.1170 N   0  0  0  0  0  0  0  0  0  0  0  0
   38.4970   24.3140   36.0650 C   0  0  0  0  0  0  0  0  0  0  0  0
   39.3880   23.3390   36.2240 N   0  0  0  0  0  0  0  0  0  0  0  0
   38.2420   24.8960   34.7930 N   0  0  0  0  0  0  0  0  0  0  0  0
   37.8350   26.2890   34.7160 C   0  0  0  0  0  0  0  0  0  0  0  0
   37.1270   26.5910   33.4410 C   0  0  0  0  0  0  0  0  0  0  0  0
   36.7070   25.4410   32.7950 O   0  0  0  0  0  0  0  0  0  0  0  0
   37.8780   24.7680   32.3780 C   0  0  0  0  0  0  0  0  0  0  0  0
   38.3960   24.0830   33.6150 C   0  0  2  0  0  0  0  0  0  0  0  0
   37.7300   22.8180   33.8590 N   0  0  0  0  0  0  0  0  0  0  0  0
   37.2890   22.0480   32.7310 C   0  0  0  0  0  0  0  0  0  0  0  0
   37.5970   22.4150   31.5220 N   0  0  0  0  0  0  0  0  0  0  0  0
   36.5020   20.8550   32.8590 N   0  0  0  0  0  0  0  0  0  0  0  0
   37.2990   21.8870   30.6740 H   0  0  0  0  0  0  0  0  0  0  0  0
   40.3457   22.0028   37.5506 H   0  0  0  0  0  0  0  0  0  0  0  0
   39.0701   22.8430   39.5754 H   0  0  0  0  0  0  0  0  0  0  0  0
   37.3867   24.7016   39.2211 H   0  0  0  0  0  0  0  0  0  0  0  0
   37.1619   26.5099   35.5575 H   0  0  0  0  0  0  0  0  0  0  0  0
   38.7408   26.9117   34.7588 H   0  0  0  0  0  0  0  0  0  0  0  0
   36.2485   27.2149   33.6620 H   0  0  0  0  0  0  0  0  0  0  0  0
   37.8311   27.1149   32.7778 H   0  0  0  0  0  0  0  0  0  0  0  0
   37.6423   24.0297   31.5974 H   0  0  0  0  0  0  0  0  0  0  0  0
   38.6189   25.4572   31.9467 H   0  0  0  0  0  0  0  0  0  0  0  0
   39.4649   23.9099   33.4211 H   0  0  0  0  0  0  0  0  0  0  0  0
   37.5770   22.4799   34.8198 H   0  0  0  0  0  0  0  0  0  0  0  0
   36.2103   20.3377   32.0174 H   0  0  0  0  0  0  0  0  0  0  0  0
   36.2287   20.5160   33.7924 H   0  0  0  0  0  0  0  0  0  0  0  0
  1  2  2  0
  3  2  1  0
  4  3  2  0
  5  6  2  0
  5  4  1  0
  6  1  1  0
  7  5  1  0
  8  7  1  0
  9  8  1  0
 10  9  1  0
 11 10  1  0
 11 12  1  0
 12 13  1  0
 12  7  1  0
 14 16  1  0
 14 13  1  0
 15 14  2  0
 17 15  1  0
  1 18  1  0
  2 19  1  0
  3 20  1  0
  8 21  1  0
  8 22  1  0
  9 23  1  0
  9 24  1  0
 11 25  1  0
 11 26  1  0
 12 27  1  6
 13 28  1  0
 16 29  1  0
 16 30  1  0
M  ISO  8  18  14  19  14  20  14  21  13  22  13  23  13  24  13  25  13
M  ISO  2  26  13  27  13
M  END
>  <minimizedAffinity>  (1) 
-4.27404308

>  <minimizedRMSD>  (1) 
0.193965435

$$$$
