
     RDKit          3D

 29 30  0  0  1  0  0  0  0  0999 V2000
   39.6780   22.8260   37.5650 C   0  0  0  0  0  0  0  0  0  0  0  0
   38.8910   23.3250   38.6340 C   0  0  0  0  0  0  0  0  0  0  0  0
   37.9250   24.2710   38.3140 C   0  0  0  0  0  0  0  0  0  0  0  0
   37.7740   24.6720   37.0250 N   0  0  0  0  0  0  0  0  0  0  0  0
   38.5540   24.1630   36.0380 C   0  0  0  0  0  0  0  0  0  0  0  0
   39.4850   23.2580   36.3190 N   0  0  0  0  0  0  0  0  0  0  0  0
   38.3200   24.6460   34.7200 N   0  0  0  0  0  0  0  0  0  0  0  0
   37.8400   25.9770   34.5010 C   0  0  0  0  0  0  0  0  0  0  0  0
   37.1040   26.1080   33.1980 C   0  0  0  0  0  0  0  0  0  0  0  0
   36.8320   24.8730   32.6240 O   0  0  0  0  0  0  0  0  0  0  0  0
   38.0540   24.2700   32.3100 C   0  0  0  0  0  0  0  0  0  0  0  0
   38.5840   23.7520   33.6230 C   0  0  2  0  0  0  0  0  0  0  0  0
   37.8050   22.4690   33.8980 C   0  0  0  0  0  0  0  0  0  0  0  0
   38.2850   21.3440   33.0030 C   0  0  0  0  0  0  0  0  0  0  0  0
   40.4558   22.0746   37.7663 H   0  0  0  0  0  0  0  0  0  0  0  0
   39.0384   22.9794   39.6678 H   0  0  0  0  0  0  0  0  0  0  0  0
   37.2845   24.6939   39.1020 H   0  0  0  0  0  0  0  0  0  0  0  0
   37.1588   26.2473   35.3213 H   0  0  0  0  0  0  0  0  0  0  0  0
   38.7107   26.6483   34.4658 H   0  0  0  0  0  0  0  0  0  0  0  0
   36.1538   26.6319   33.3787 H   0  0  0  0  0  0  0  0  0  0  0  0
   37.7446   26.6704   32.5028 H   0  0  0  0  0  0  0  0  0  0  0  0
   37.9056   23.4430   31.6000 H   0  0  0  0  0  0  0  0  0  0  0  0
   38.7511   24.9745   31.8328 H   0  0  0  0  0  0  0  0  0  0  0  0
   39.6739   23.6229   33.5486 H   0  0  0  0  0  0  0  0  0  0  0  0
   37.9479   22.1790   34.9494 H   0  0  0  0  0  0  0  0  0  0  0  0
   36.7402   22.6527   33.6921 H   0  0  0  0  0  0  0  0  0  0  0  0
   38.6415   20.5085   33.6234 H   0  0  0  0  0  0  0  0  0  0  0  0
   37.4549   21.0010   32.3680 H   0  0  0  0  0  0  0  0  0  0  0  0
   39.1071   21.7059   32.3680 H   0  0  0  0  0  0  0  0  0  0  0  0
  1  2  2  0
  3  2  1  0
  4  3  2  0
  5  6  2  0
  5  4  1  0
  6  1  1  0
  7  5  1  0
  8  7  1  0
  9  8  1  0
 10  9  1  0
 11 10  1  0
 11 12  1  0
 12 13  1  0
 12  7  1  0
 14 13  1  0
  1 15  1  0
  2 16  1  0
  3 17  1  0
  8 18  1  0
  8 19  1  0
  9 20  1  0
  9 21  1  0
 11 22  1  0
 11 23  1  0
 12 24  1  6
 13 25  1  0
 13 26  1  0
 14 27  1  0
 14 28  1  0
 14 29  1  0
M  ISO  8  15  14  16  14  17  14  18  13  19  13  20  13  21  13  22  13
M  ISO  7  23  13  24  13  25   8  26   8  27   8  28   8  29   8
M  END
>  <minimizedAffinity>  (1) 
-3.96509242

>  <minimizedRMSD>  (1) 
0.791922688

$$$$
