
     RDKit          3D

 29 31  0  0  1  0  0  0  0  0999 V2000
   39.6910   22.8920   37.5890 C   0  0  0  0  0  0  0  0  0  0  0  0
   38.8950   23.2830   38.6890 C   0  0  0  0  0  0  0  0  0  0  0  0
   37.9020   24.2420   38.4490 C   0  0  0  0  0  0  0  0  0  0  0  0
   37.7750   24.7240   37.1870 N   0  0  0  0  0  0  0  0  0  0  0  0
   38.5600   24.3210   36.1660 C   0  0  0  0  0  0  0  0  0  0  0  0
   39.5040   23.4130   36.3790 N   0  0  0  0  0  0  0  0  0  0  0  0
   38.3230   24.9020   34.9010 N   0  0  0  0  0  0  0  0  0  0  0  0
   37.7670   26.2340   34.7910 C   0  0  0  0  0  0  0  0  0  0  0  0
   37.1390   26.4710   33.4660 C   0  0  0  0  0  0  0  0  0  0  0  0
   36.8520   25.2690   32.8100 O   0  0  0  0  0  0  0  0  0  0  0  0
   38.1070   24.7220   32.4540 C   0  0  0  0  0  0  0  0  0  0  0  0
   38.6550   24.1260   33.7130 C   0  0  1  0  0  0  0  0  0  0  0  0
   40.1550   24.0210   33.6070 C   0  0  0  0  0  0  0  0  0  0  0  0
   40.7970   22.7440   33.3530 C   0  0  0  0  0  0  0  0  0  0  0  0
   42.5430   23.1990   33.3290 S   0  0  0  0  0  0  0  0  0  0  0  0
   42.1680   24.9960   33.6570 C   0  0  0  0  0  0  0  0  0  0  0  0
   40.9540   25.0550   33.7380 N   0  0  0  0  0  0  0  0  0  0  0  0
   40.4816   22.1414   37.7360 H   0  0  0  0  0  0  0  0  0  0  0  0
   39.0482   22.8533   39.6900 H   0  0  0  0  0  0  0  0  0  0  0  0
   37.2456   24.5933   39.2588 H   0  0  0  0  0  0  0  0  0  0  0  0
   37.0048   26.3656   35.5731 H   0  0  0  0  0  0  0  0  0  0  0  0
   38.5896   26.9547   34.9091 H   0  0  0  0  0  0  0  0  0  0  0  0
   36.2035   27.0317   33.6094 H   0  0  0  0  0  0  0  0  0  0  0  0
   37.8472   27.0407   32.8464 H   0  0  0  0  0  0  0  0  0  0  0  0
   37.9838   23.9467   31.6835 H   0  0  0  0  0  0  0  0  0  0  0  0
   38.7809   25.4845   32.0364 H   0  0  0  0  0  0  0  0  0  0  0  0
   38.1928   23.1340   33.8238 H   0  0  0  0  0  0  0  0  0  0  0  0
   40.3377   21.7545   33.2117 H   0  0  0  0  0  0  0  0  0  0  0  0
   42.8867   25.8229   33.7558 H   0  0  0  0  0  0  0  0  0  0  0  0
  1  2  2  0
  3  2  1  0
  4  3  2  0
  5  6  2  0
  5  4  1  0
  6  1  1  0
  7  5  1  0
  8  7  1  0
  9  8  1  0
 10  9  1  0
 11 10  1  0
 11 12  1  0
 12  7  1  0
 13 12  1  0
 13 17  1  0
 14 13  2  0
 15 14  1  0
 15 16  1  0
 16 17  2  0
  1 18  1  0
  2 19  1  0
  3 20  1  0
  8 21  1  0
  8 22  1  0
  9 23  1  0
  9 24  1  0
 11 25  1  0
 11 26  1  0
 12 27  1  1
 14 28  1  0
 16 29  1  0
M  ISO  8  18  14  19  14  20  14  21  13  22  13  23  13  24  13  25  13
M  ISO  4  26  13  27  13  28  14  29  14
M  END
>  <minimizedAffinity>  (1) 
-4.10851622

>  <minimizedRMSD>  (1) 
0.291891962

$$$$
