
     RDKit          3D

 32 33  0  0  1  0  0  0  0  0999 V2000
   39.6350   22.8100   37.3940 C   0  0  0  0  0  0  0  0  0  0  0  0
   38.8750   23.3000   38.4930 C   0  0  0  0  0  0  0  0  0  0  0  0
   37.9060   24.2830   38.2320 C   0  0  0  0  0  0  0  0  0  0  0  0
   37.7690   24.6900   36.9460 N   0  0  0  0  0  0  0  0  0  0  0  0
   38.5070   24.2010   35.9360 C   0  0  0  0  0  0  0  0  0  0  0  0
   39.4310   23.2690   36.1670 N   0  0  0  0  0  0  0  0  0  0  0  0
   38.2540   24.7150   34.6290 N   0  0  0  0  0  0  0  0  0  0  0  0
   37.7630   26.0540   34.4600 C   0  0  0  0  0  0  0  0  0  0  0  0
   37.0350   26.2120   33.1580 C   0  0  0  0  0  0  0  0  0  0  0  0
   36.7270   24.9950   32.5670 O   0  0  0  0  0  0  0  0  0  0  0  0
   37.9380   24.3960   32.2180 C   0  0  0  0  0  0  0  0  0  0  0  0
   38.5090   23.8450   33.4970 C   0  0  2  0  0  0  0  0  0  0  0  0
   37.9900   22.4430   33.6880 C   0  0  0  0  0  0  0  0  0  0  0  0
   36.7800   22.1480   32.8540 C   0  0  0  0  0  0  0  0  0  0  0  0
   39.1000   21.5130   33.2230 C   0  0  0  0  0  0  0  0  0  0  0  0
   40.4019   22.0402   37.5649 H   0  0  0  0  0  0  0  0  0  0  0  0
   39.0408   22.9217   39.5125 H   0  0  0  0  0  0  0  0  0  0  0  0
   37.2851   24.7044   39.0363 H   0  0  0  0  0  0  0  0  0  0  0  0
   37.0748   26.2892   35.2852 H   0  0  0  0  0  0  0  0  0  0  0  0
   38.6231   26.7397   34.4601 H   0  0  0  0  0  0  0  0  0  0  0  0
   36.0997   26.7609   33.3419 H   0  0  0  0  0  0  0  0  0  0  0  0
   37.6977   26.7577   32.4702 H   0  0  0  0  0  0  0  0  0  0  0  0
   37.7693   23.5854   31.4938 H   0  0  0  0  0  0  0  0  0  0  0  0
   38.6235   25.1155   31.7465 H   0  0  0  0  0  0  0  0  0  0  0  0
   39.6059   23.8015   33.4269 H   0  0  0  0  0  0  0  0  0  0  0  0
   37.7054   22.3129   34.7425 H   0  0  0  0  0  0  0  0  0  0  0  0
   35.9234   21.9392   33.5117 H   0  0  0  0  0  0  0  0  0  0  0  0
   36.5516   23.0168   32.2191 H   0  0  0  0  0  0  0  0  0  0  0  0
   36.9771   21.2716   32.2191 H   0  0  0  0  0  0  0  0  0  0  0  0
   39.6106   21.0852   34.0983 H   0  0  0  0  0  0  0  0  0  0  0  0
   38.6693   20.7022   32.6172 H   0  0  0  0  0  0  0  0  0  0  0  0
   39.8229   22.0791   32.6172 H   0  0  0  0  0  0  0  0  0  0  0  0
  1  2  2  0
  3  2  1  0
  4  3  2  0
  5  6  2  0
  5  4  1  0
  6  1  1  0
  7  5  1  0
  8  7  1  0
  9  8  1  0
 10  9  1  0
 11 10  1  0
 11 12  1  0
 12 13  1  0
 12  7  1  0
 14 13  1  0
 15 13  1  0
  1 16  1  0
  2 17  1  0
  3 18  1  0
  8 19  1  0
  8 20  1  0
  9 21  1  0
  9 22  1  0
 11 23  1  0
 11 24  1  0
 12 25  1  6
 13 26  1  0
 14 27  1  0
 14 28  1  0
 14 29  1  0
 15 30  1  0
 15 31  1  0
 15 32  1  0
M  ISO  8  16  14  17  14  18  14  19  13  20  13  21  13  22  13  23  13
M  ISO  8  24  13  25  13  26   8  27   8  28   8  29   8  30   8  31   8
M  ISO  1  32   8
M  END
>  <minimizedAffinity>  (1) 
-4.1104908

>  <minimizedRMSD>  (1) 
0.466580153

$$$$
