
     RDKit          3D

 25 26  0  0  1  0  0  0  0  0999 V2000
   39.6900   22.8240   37.6590 C   0  0  0  0  0  0  0  0  0  0  0  0
   38.9010   23.3500   38.7100 C   0  0  0  0  0  0  0  0  0  0  0  0
   37.9290   24.2990   38.3650 C   0  0  0  0  0  0  0  0  0  0  0  0
   37.8040   24.6520   37.0610 N   0  0  0  0  0  0  0  0  0  0  0  0
   38.5740   24.1280   36.0970 C   0  0  0  0  0  0  0  0  0  0  0  0
   39.5090   23.2230   36.3820 N   0  0  0  0  0  0  0  0  0  0  0  0
   38.3600   24.5680   34.7570 N   0  0  0  0  0  0  0  0  0  0  0  0
   37.8550   25.9020   34.5060 C   0  0  0  0  0  0  0  0  0  0  0  0
   37.1620   25.9930   33.1870 C   0  0  0  0  0  0  0  0  0  0  0  0
   36.8680   24.7480   32.6650 O   0  0  0  0  0  0  0  0  0  0  0  0
   38.0740   24.1130   32.3600 C   0  0  0  0  0  0  0  0  0  0  0  0
   38.6580   23.6550   33.6710 C   0  0  2  0  0  0  0  0  0  0  0  0
   38.2860   22.2530   33.9990 C   0  0  0  0  0  0  0  0  0  0  0  0
   37.1250   21.9150   33.7650 O   0  0  0  0  0  0  0  0  0  0  0  0
   40.4644   22.0768   37.8868 H   0  0  0  0  0  0  0  0  0  0  0  0
   39.0445   23.0280   39.7520 H   0  0  0  0  0  0  0  0  0  0  0  0
   37.2824   24.7473   39.1338 H   0  0  0  0  0  0  0  0  0  0  0  0
   37.1435   26.1689   35.3013 H   0  0  0  0  0  0  0  0  0  0  0  0
   38.7097   26.5943   34.4918 H   0  0  0  0  0  0  0  0  0  0  0  0
   36.2242   26.5529   33.3174 H   0  0  0  0  0  0  0  0  0  0  0  0
   37.8381   26.5026   32.4847 H   0  0  0  0  0  0  0  0  0  0  0  0
   37.8937   23.2502   31.7019 H   0  0  0  0  0  0  0  0  0  0  0  0
   38.7603   24.7929   31.8339 H   0  0  0  0  0  0  0  0  0  0  0  0
   39.7504   23.6666   33.5422 H   0  0  0  0  0  0  0  0  0  0  0  0
   39.0140   21.5504   34.4306 H   0  0  0  0  0  0  0  0  0  0  0  0
  1  2  2  0
  3  2  1  0
  4  3  2  0
  5  6  2  0
  5  4  1  0
  6  1  1  0
  7  5  1  0
  8  7  1  0
  9  8  1  0
 10  9  1  0
 11 10  1  0
 11 12  1  0
 12 13  1  0
 12  7  1  0
 14 13  2  0
  1 15  1  0
  2 16  1  0
  3 17  1  0
  8 18  1  0
  8 19  1  0
  9 20  1  0
  9 21  1  0
 11 22  1  0
 11 23  1  0
 12 24  1  6
 13 25  1  0
M  ISO  8  15  14  16  14  17  14  18  13  19  13  20  13  21  13  22  13
M  ISO  3  23  13  24  13  25   6
M  END
>  <minimizedAffinity>  (1) 
-3.98153043

>  <minimizedRMSD>  (1) 
0.511527836

$$$$
