
     RDKit          3D

 30 32  0  0  1  0  0  0  0  0999 V2000
   39.7330   22.9250   37.6320 C   0  0  0  0  0  0  0  0  0  0  0  0
   38.9020   23.2740   38.7110 C   0  0  0  0  0  0  0  0  0  0  0  0
   37.8940   24.1940   38.4540 C   0  0  0  0  0  0  0  0  0  0  0  0
   37.7610   24.7030   37.2060 N   0  0  0  0  0  0  0  0  0  0  0  0
   38.5870   24.3350   36.1980 C   0  0  0  0  0  0  0  0  0  0  0  0
   39.5650   23.4550   36.4080 N   0  0  0  0  0  0  0  0  0  0  0  0
   38.3680   24.9210   34.9310 N   0  0  0  0  0  0  0  0  0  0  0  0
   37.8150   26.2620   34.8350 C   0  0  0  0  0  0  0  0  0  0  0  0
   37.1450   26.5000   33.5260 C   0  0  0  0  0  0  0  0  0  0  0  0
   36.9400   25.3350   32.8140 O   0  0  0  0  0  0  0  0  0  0  0  0
   38.2220   24.8350   32.4820 C   0  0  0  0  0  0  0  0  0  0  0  0
   38.7030   24.1590   33.7360 C   0  0  1  0  0  0  0  0  0  0  0  0
   40.1410   23.7880   33.6930 C   0  0  0  0  0  0  0  0  0  0  0  0
   41.1000   24.8030   33.6360 C   0  0  0  0  0  0  0  0  0  0  0  0
   42.3380   24.1740   33.6060 C   0  0  0  0  0  0  0  0  0  0  0  0
   42.1190   22.8490   33.6450 N   0  0  0  0  0  0  0  0  0  0  0  0
   40.8320   22.6450   33.6950 N   0  0  0  0  0  0  0  0  0  0  0  0
   40.5428   22.1984   37.7937 H   0  0  0  0  0  0  0  0  0  0  0  0
   39.0435   22.8390   39.7114 H   0  0  0  0  0  0  0  0  0  0  0  0
   37.2099   24.5065   39.2567 H   0  0  0  0  0  0  0  0  0  0  0  0
   37.0788   26.4005   35.6405 H   0  0  0  0  0  0  0  0  0  0  0  0
   38.6453   26.9778   34.9254 H   0  0  0  0  0  0  0  0  0  0  0  0
   36.1706   26.9760   33.7105 H   0  0  0  0  0  0  0  0  0  0  0  0
   37.8049   27.1445   32.9267 H   0  0  0  0  0  0  0  0  0  0  0  0
   38.1550   24.1142   31.6537 H   0  0  0  0  0  0  0  0  0  0  0  0
   38.9057   25.6296   32.1484 H   0  0  0  0  0  0  0  0  0  0  0  0
   38.1532   23.2079   33.7917 H   0  0  0  0  0  0  0  0  0  0  0  0
   40.9115   25.8866   33.6184 H   0  0  0  0  0  0  0  0  0  0  0  0
   43.3187   24.6701   33.5589 H   0  0  0  0  0  0  0  0  0  0  0  0
   42.8447   22.1181   33.6368 H   0  0  0  0  0  0  0  0  0  0  0  0
  1  2  2  0
  3  2  1  0
  4  3  2  0
  5  6  2  0
  5  4  1  0
  6  1  1  0
  7  5  1  0
  8  7  1  0
  9  8  1  0
 10  9  1  0
 11 10  1  0
 11 12  1  0
 12  7  1  0
 13 17  2  0
 13 12  1  0
 14 13  1  0
 15 14  2  0
 15 16  1  0
 16 17  1  0
  1 18  1  0
  2 19  1  0
  3 20  1  0
  8 21  1  0
  8 22  1  0
  9 23  1  0
  9 24  1  0
 11 25  1  0
 11 26  1  0
 12 27  1  1
 14 28  1  0
 15 29  1  0
 16 30  1  0
M  ISO  8  18  14  19  14  20  14  21  13  22  13  23  13  24  13  25  13
M  ISO  5  26  13  27  13  28  14  29  14  30   9
M  END
>  <minimizedAffinity>  (1) 
-4.11629105

>  <minimizedRMSD>  (1) 
0.689766884

$$$$
