
     RDKit          3D

 30 32  0  0  0  0  0  0  0  0999 V2000
   38.6230   24.1810   36.5520 C   0  0  0  0  0  0  0  0  0  0  0  0
   39.8010   23.6380   36.0060 C   0  0  0  0  0  0  0  0  0  0  0  0
   40.2820   24.2150   34.8010 C   0  0  0  0  0  0  0  0  0  0  0  0
   39.5960   25.2340   34.2530 N   0  0  0  0  0  0  0  0  0  0  0  0
   38.4670   25.7270   34.8100 C   0  0  0  0  0  0  0  0  0  0  0  0
   37.9760   25.2120   35.9490 N   0  0  0  0  0  0  0  0  0  0  0  0
   37.7070   26.8080   34.2540 N   0  0  0  0  0  0  0  0  0  0  0  0
   36.8010   27.5560   34.8960 C   0  0  0  0  0  0  0  0  0  0  0  0
   36.1520   28.5520   34.2200 C   0  0  0  0  0  0  0  0  0  0  0  0
   36.4250   28.7770   32.9100 C   0  0  0  0  0  0  0  0  0  0  0  0
   35.8470   29.6880   32.2470 O   0  0  0  0  0  0  0  0  0  0  0  0
   37.3390   28.0150   32.2840 N   0  0  0  0  0  0  0  0  0  0  0  0
   37.9780   27.0310   32.9600 C   0  0  0  0  0  0  0  0  0  0  0  0
   38.8190   26.3820   32.2540 O   0  0  0  0  0  0  0  0  0  0  0  0
   37.6070   28.2770   30.8950 C   0  0  0  0  0  0  0  0  0  0  0  0
   38.7960   28.8630   30.5140 C   0  0  0  0  0  0  0  0  0  0  0  0
   38.7320   28.9720   29.1300 C   0  0  0  0  0  0  0  0  0  0  0  0
   37.4960   28.4410   28.7500 C   0  0  0  0  0  0  0  0  0  0  0  0
   36.8870   28.0530   29.8240 O   0  0  0  0  0  0  0  0  0  0  0  0
   38.0840   23.6010   37.8190 C   0  0  0  0  0  0  0  0  0  0  0  0
   39.0650   22.9160   38.5260 F   0  0  0  0  0  0  0  0  0  0  0  0
   37.6300   24.6300   38.6350 F   0  0  0  0  0  0  0  0  0  0  0  0
   37.0090   22.7710   37.5140 F   0  0  0  0  0  0  0  0  0  0  0  0
   40.3265   22.8026   36.4918 H   0  0  0  0  0  0  0  0  0  0  0  0
   41.1982   23.8359   34.3247 H   0  0  0  0  0  0  0  0  0  0  0  0
   36.5806   27.3711   35.9577 H   0  0  0  0  0  0  0  0  0  0  0  0
   35.4068   29.1723   34.7395 H   0  0  0  0  0  0  0  0  0  0  0  0
   39.6220   29.1781   31.1685 H   0  0  0  0  0  0  0  0  0  0  0  0
   39.5012   29.3926   28.4656 H   0  0  0  0  0  0  0  0  0  0  0  0
   37.1103   28.3663   27.7226 H   0  0  0  0  0  0  0  0  0  0  0  0
  1 20  1  0
  2  1  2  0
  3  2  1  0
  4  3  2  0
  4  5  1  0
  5  6  2  0
  6  1  1  0
  7  5  1  0
  7  8  1  0
  9  8  2  0
 10  9  1  0
 11 10  2  0
 12 10  1  0
 12 13  1  0
 13  7  1  0
 14 13  2  0
 15 12  1  0
 16 15  2  0
 17 16  1  0
 18 17  2  0
 18 19  1  0
 19 15  1  0
 20 21  1  0
 20 22  1  0
 23 20  1  0
  2 24  1  0
  3 25  1  0
  8 26  1  0
  9 27  1  0
 16 28  1  0
 17 29  1  0
 18 30  1  0
M  ISO  7  24  14  25  14  26  14  27  14  28  14  29  14  30  14
M  END
>  <minimizedAffinity>  (1) 
-5.34328651

>  <minimizedRMSD>  (1) 
1.65264761

$$$$
