
     RDKit          3D

 40 43  0  0  1  0  0  0  0  0999 V2000
   39.8170   22.9380   37.6330 C   0  0  0  0  0  0  0  0  0  0  0  0
   38.9020   23.2700   38.6600 C   0  0  0  0  0  0  0  0  0  0  0  0
   37.8070   24.0520   38.2980 C   0  0  0  0  0  0  0  0  0  0  0  0
   37.6940   24.4330   37.0070 N   0  0  0  0  0  0  0  0  0  0  0  0
   38.5820   24.0980   36.0600 C   0  0  0  0  0  0  0  0  0  0  0  0
   39.6170   23.3620   36.3870 N   0  0  0  0  0  0  0  0  0  0  0  0
   38.3830   24.5390   34.7120 N   0  0  0  0  0  0  0  0  0  0  0  0
   37.7020   25.8520   34.5520 C   0  0  0  0  0  0  0  0  0  0  0  0
   37.0930   25.9490   33.2080 C   0  0  0  0  0  0  0  0  0  0  0  0
   36.9820   24.7190   32.5910 O   0  0  0  0  0  0  0  0  0  0  0  0
   38.2750   24.3470   32.3150 C   0  0  0  0  0  0  0  0  0  0  0  0
   38.8570   23.7180   33.6570 C   0  0  1  0  0  0  0  0  0  0  0  0
   40.2760   23.8940   33.4820 C   0  0  0  0  0  0  0  0  0  0  0  0
   40.9390   22.7050   33.1900 N   0  0  0  0  0  0  0  0  0  0  0  0
   42.2260   22.5550   32.9800 C   0  0  0  0  0  0  0  0  0  0  0  0
   43.0790   23.5820   33.0270 N   0  0  0  0  0  0  0  0  0  0  0  0
   42.5830   24.7960   33.2980 C   0  0  0  0  0  0  0  0  0  0  0  0
   43.3570   25.9320   33.3700 C   0  0  0  0  0  0  0  0  0  0  0  0
   42.8160   27.1920   33.6500 C   0  0  0  0  0  0  0  0  0  0  0  0
   41.4310   27.2650   33.8610 C   0  0  0  0  0  0  0  0  0  0  0  0
   40.7040   26.1070   33.7790 C   0  0  0  0  0  0  0  0  0  0  0  0
   41.2310   24.8760   33.5060 C   0  0  0  0  0  0  0  0  0  0  0  0
   38.1040   22.4280   33.6850 C   0  0  0  0  0  0  0  0  0  0  0  0
   37.9080   21.9690   32.4150 F   0  0  0  0  0  0  0  0  0  0  0  0
   37.0040   22.3680   34.4490 F   0  0  0  0  0  0  0  0  0  0  0  0
   38.9900   21.4720   34.2930 F   0  0  0  0  0  0  0  0  0  0  0  0
   40.7002   22.3250   37.8659 H   0  0  0  0  0  0  0  0  0  0  0  0
   39.0482   22.9271   39.6949 H   0  0  0  0  0  0  0  0  0  0  0  0
   37.0551   24.3509   39.0432 H   0  0  0  0  0  0  0  0  0  0  0  0
   36.9160   25.9494   35.3153 H   0  0  0  0  0  0  0  0  0  0  0  0
   38.4415   26.6576   34.6708 H   0  0  0  0  0  0  0  0  0  0  0  0
   36.0888   26.3871   33.3059 H   0  0  0  0  0  0  0  0  0  0  0  0
   37.7481   26.5779   32.5873 H   0  0  0  0  0  0  0  0  0  0  0  0
   38.2922   23.6013   31.5065 H   0  0  0  0  0  0  0  0  0  0  0  0
   38.8757   25.2070   31.9840 H   0  0  0  0  0  0  0  0  0  0  0  0
   42.6150   21.5503   32.7580 H   0  0  0  0  0  0  0  0  0  0  0  0
   44.4406   25.8463   33.2013 H   0  0  0  0  0  0  0  0  0  0  0  0
   43.4510   28.0887   33.7025 H   0  0  0  0  0  0  0  0  0  0  0  0
   40.9428   28.2247   34.0859 H   0  0  0  0  0  0  0  0  0  0  0  0
   39.6185   26.1726   33.9447 H   0  0  0  0  0  0  0  0  0  0  0  0
  1  2  2  0
  3  2  1  0
  4  3  2  0
  5  6  2  0
  5  4  1  0
  6  1  1  0
  7  5  1  0
  8  7  1  0
  9  8  1  0
 10  9  1  0
 11 10  1  0
 11 12  1  0
 12 23  1  1
 12  7  1  0
 13 22  1  0
 13 12  1  0
 14 13  2  0
 15 16  2  0
 15 14  1  0
 16 17  1  0
 17 18  1  0
 17 22  2  0
 18 19  2  0
 19 20  1  0
 21 20  2  0
 22 21  1  0
 23 26  1  0
 23 25  1  0
 24 23  1  0
  1 27  1  0
  2 28  1  0
  3 29  1  0
  8 30  1  0
  8 31  1  0
  9 32  1  0
  9 33  1  0
 11 34  1  0
 11 35  1  0
 15 36  1  0
 18 37  1  0
 19 38  1  0
 20 39  1  0
 21 40  1  0
M  ISO  8  27  14  28  14  29  14  30  13  31  13  32  13  33  13  34  13
M  ISO  6  35  13  36  14  37  14  38  14  39  14  40  14
M  END
>  <minimizedAffinity>  (1) 
-5.22659826

>  <minimizedRMSD>  (1) 
0.685224771

$$$$
