
     RDKit          3D

 37 40  0  0  1  0  0  0  0  0999 V2000
   39.8620   22.9620   37.6950 C   0  0  0  0  0  0  0  0  0  0  0  0
   38.9150   23.2540   38.7140 C   0  0  0  0  0  0  0  0  0  0  0  0
   37.8160   24.0280   38.3480 C   0  0  0  0  0  0  0  0  0  0  0  0
   37.7330   24.4410   37.0580 N   0  0  0  0  0  0  0  0  0  0  0  0
   38.6690   24.1340   36.1170 C   0  0  0  0  0  0  0  0  0  0  0  0
   39.7130   23.4050   36.4440 N   0  0  0  0  0  0  0  0  0  0  0  0
   38.4690   24.6160   34.7920 N   0  0  0  0  0  0  0  0  0  0  0  0
   37.7780   25.9060   34.6250 C   0  0  0  0  0  0  0  0  0  0  0  0
   37.1350   25.9900   33.2710 C   0  0  0  0  0  0  0  0  0  0  0  0
   37.0820   24.7690   32.6190 O   0  0  0  0  0  0  0  0  0  0  0  0
   38.4030   24.4530   32.3750 C   0  0  0  0  0  0  0  0  0  0  0  0
   38.9070   23.8080   33.7230 C   0  0  1  0  0  0  0  0  0  0  0  0
   40.2680   23.6450   33.3750 N   0  0  0  0  0  0  0  0  0  0  0  0
   40.5410   22.6500   32.5170 C   0  0  0  0  0  0  0  0  0  0  0  0
   41.8830   22.6090   32.2700 N   0  0  0  0  0  0  0  0  0  0  0  0
   42.4420   23.6030   32.9950 C   0  0  0  0  0  0  0  0  0  0  0  0
   43.7000   24.1230   33.2210 C   0  0  0  0  0  0  0  0  0  0  0  0
   43.9180   25.1660   34.0410 N   0  0  0  0  0  0  0  0  0  0  0  0
   42.8840   25.7690   34.6980 C   0  0  0  0  0  0  0  0  0  0  0  0
   41.6570   25.2650   34.4800 N   0  0  0  0  0  0  0  0  0  0  0  0
   41.4260   24.2280   33.6680 C   0  0  0  0  0  0  0  0  0  0  0  0
   38.1760   22.4510   33.7180 C   0  0  0  0  0  0  0  0  0  0  0  0
   38.0380   22.1280   32.3830 F   0  0  0  0  0  0  0  0  0  0  0  0
   37.1390   22.3670   34.5410 F   0  0  0  0  0  0  0  0  0  0  0  0
   39.1720   21.5260   34.1920 F   0  0  0  0  0  0  0  0  0  0  0  0
   40.7436   22.3532   37.9442 H   0  0  0  0  0  0  0  0  0  0  0  0
   39.0438   22.8863   39.7427 H   0  0  0  0  0  0  0  0  0  0  0  0
   37.0406   24.2957   39.0809 H   0  0  0  0  0  0  0  0  0  0  0  0
   37.0033   26.0040   35.3997 H   0  0  0  0  0  0  0  0  0  0  0  0
   38.5147   26.7175   34.7185 H   0  0  0  0  0  0  0  0  0  0  0  0
   36.1087   26.3666   33.3933 H   0  0  0  0  0  0  0  0  0  0  0  0
   37.7500   26.6640   32.6566 H   0  0  0  0  0  0  0  0  0  0  0  0
   38.4848   23.7352   31.5455 H   0  0  0  0  0  0  0  0  0  0  0  0
   38.9972   25.3312   32.0823 H   0  0  0  0  0  0  0  0  0  0  0  0
   39.7958   21.9699   32.0787 H   0  0  0  0  0  0  0  0  0  0  0  0
   44.5596   23.6655   32.7094 H   0  0  0  0  0  0  0  0  0  0  0  0
   43.0467   26.6235   35.3713 H   0  0  0  0  0  0  0  0  0  0  0  0
  1  2  2  0
  3  2  1  0
  4  3  2  0
  5  6  2  0
  5  4  1  0
  6  1  1  0
  7  5  1  0
  8  7  1  0
  9  8  1  0
 10  9  1  0
 11 10  1  0
 11 12  1  0
 12 22  1  1
 12  7  1  0
 13 21  1  0
 13 12  1  0
 14 13  1  0
 15 14  2  0
 15 16  1  0
 16 17  2  0
 16 21  1  0
 17 18  1  0
 18 19  2  0
 20 19  1  0
 21 20  2  0
 22 25  1  0
 22 24  1  0
 23 22  1  0
  1 26  1  0
  2 27  1  0
  3 28  1  0
  8 29  1  0
  8 30  1  0
  9 31  1  0
  9 32  1  0
 11 33  1  0
 11 34  1  0
 14 35  1  0
 17 36  1  0
 19 37  1  0
M  ISO  8  26  14  27  14  28  14  29  13  30  13  31  13  32  13  33  13
M  ISO  4  34  13  35  14  36  14  37  14
M  END
>  <minimizedAffinity>  (1) 
-4.7896347

>  <minimizedRMSD>  (1) 
0.652950883

$$$$
