
     RDKit          3D

 39 41  0  0  1  0  0  0  0  0999 V2000
   39.8690   22.9300   37.6990 C   0  0  0  0  0  0  0  0  0  0  0  0
   38.9380   23.2070   38.7380 C   0  0  0  0  0  0  0  0  0  0  0  0
   37.8530   24.0160   38.4090 C   0  0  0  0  0  0  0  0  0  0  0  0
   37.7700   24.4710   37.1340 N   0  0  0  0  0  0  0  0  0  0  0  0
   38.6890   24.1760   36.1730 C   0  0  0  0  0  0  0  0  0  0  0  0
   39.7220   23.4150   36.4620 N   0  0  0  0  0  0  0  0  0  0  0  0
   38.4800   24.7050   34.8660 N   0  0  0  0  0  0  0  0  0  0  0  0
   37.8040   26.0050   34.7500 C   0  0  0  0  0  0  0  0  0  0  0  0
   37.1470   26.1510   33.4110 C   0  0  0  0  0  0  0  0  0  0  0  0
   37.0560   24.9490   32.7240 O   0  0  0  0  0  0  0  0  0  0  0  0
   38.3610   24.6080   32.4450 C   0  0  0  0  0  0  0  0  0  0  0  0
   38.8920   23.9150   33.7640 C   0  0  1  0  0  0  0  0  0  0  0  0
   40.2640   23.8760   33.4160 N   0  0  0  0  0  0  0  0  0  0  0  0
   40.9950   24.6100   34.3160 C   0  0  0  0  0  0  0  0  0  0  0  0
   42.3780   24.7450   34.2180 C   0  0  0  0  0  0  0  0  0  0  0  0
   43.1990   25.5360   35.1790 C   0  0  0  0  0  0  0  0  0  0  0  0
   43.0630   24.1420   33.2070 C   0  0  0  0  0  0  0  0  0  0  0  0
   44.3060   24.1980   33.0250 O   0  0  0  0  0  0  0  0  0  0  0  0
   42.3320   23.4280   32.3360 N   0  0  0  0  0  0  0  0  0  0  0  0
   41.0000   23.3180   32.4590 C   0  0  0  0  0  0  0  0  0  0  0  0
   40.3280   22.6520   31.6460 O   0  0  0  0  0  0  0  0  0  0  0  0
   38.1310   22.5860   33.7330 C   0  0  0  0  0  0  0  0  0  0  0  0
   37.8700   22.3260   32.4090 F   0  0  0  0  0  0  0  0  0  0  0  0
   37.1380   22.4700   34.6100 F   0  0  0  0  0  0  0  0  0  0  0  0
   39.1170   21.6070   34.1020 F   0  0  0  0  0  0  0  0  0  0  0  0
   40.7395   22.2952   37.9209 H   0  0  0  0  0  0  0  0  0  0  0  0
   39.0686   22.8019   39.7523 H   0  0  0  0  0  0  0  0  0  0  0  0
   37.0900   24.2768   39.1572 H   0  0  0  0  0  0  0  0  0  0  0  0
   37.0391   26.0842   35.5366 H   0  0  0  0  0  0  0  0  0  0  0  0
   38.5546   26.8015   34.8608 H   0  0  0  0  0  0  0  0  0  0  0  0
   36.1323   26.5493   33.5587 H   0  0  0  0  0  0  0  0  0  0  0  0
   37.7680   26.8308   32.8092 H   0  0  0  0  0  0  0  0  0  0  0  0
   38.4055   23.9097   31.5962 H   0  0  0  0  0  0  0  0  0  0  0  0
   38.9664   25.4825   32.1644 H   0  0  0  0  0  0  0  0  0  0  0  0
   40.4704   25.1093   35.1439 H   0  0  0  0  0  0  0  0  0  0  0  0
   42.9195   25.2667   36.2083 H   0  0  0  0  0  0  0  0  0  0  0  0
   44.2647   25.3156   35.0188 H   0  0  0  0  0  0  0  0  0  0  0  0
   43.0184   26.6092   35.0188 H   0  0  0  0  0  0  0  0  0  0  0  0
   42.8051   22.9529   31.5541 H   0  0  0  0  0  0  0  0  0  0  0  0
  1  2  2  0
  3  2  1  0
  4  3  2  0
  5  6  2  0
  5  4  1  0
  6  1  1  0
  7  5  1  0
  8  7  1  0
  9  8  1  0
 10  9  1  0
 11 10  1  0
 11 12  1  0
 12 22  1  1
 12  7  1  0
 13 12  1  0
 13 14  1  0
 15 14  2  0
 15 16  1  0
 17 15  1  0
 18 17  2  0
 19 20  1  0
 19 17  1  0
 20 13  1  0
 21 20  2  0
 22 25  1  0
 22 24  1  0
 23 22  1  0
  1 26  1  0
  2 27  1  0
  3 28  1  0
  8 29  1  0
  8 30  1  0
  9 31  1  0
  9 32  1  0
 11 33  1  0
 11 34  1  0
 14 35  1  0
 16 36  1  0
 16 37  1  0
 16 38  1  0
 19 39  1  0
M  ISO  8  26  14  27  14  28  14  29  13  30  13  31  13  32  13  33  13
M  ISO  6  34  13  35  14  36   8  37   8  38   8  39   9
M  END
>  <minimizedAffinity>  (1) 
-4.83814096

>  <minimizedRMSD>  (1) 
0.228586972

$$$$
