
     RDKit          3D

 37 39  0  0  1  0  0  0  0  0999 V2000
   39.8820   23.0160   37.6090 C   0  0  0  0  0  0  0  0  0  0  0  0
   38.8290   22.9160   38.5700 C   0  0  0  0  0  0  0  0  0  0  0  0
   37.6470   23.6000   38.2910 C   0  0  0  0  0  0  0  0  0  0  0  0
   37.5880   24.3060   37.1320 N   0  0  0  0  0  0  0  0  0  0  0  0
   38.6210   24.3700   36.2470 C   0  0  0  0  0  0  0  0  0  0  0  0
   39.7440   23.7330   36.4910 N   0  0  0  0  0  0  0  0  0  0  0  0
   38.4160   25.1340   35.0570 N   0  0  0  0  0  0  0  0  0  0  0  0
   37.5120   26.2810   35.1330 C   0  0  0  0  0  0  0  0  0  0  0  0
   36.9980   26.6570   33.7780 C   0  0  0  0  0  0  0  0  0  0  0  0
   37.1670   25.6350   32.8580 O   0  0  0  0  0  0  0  0  0  0  0  0
   38.5320   25.5630   32.6750 C   0  0  0  0  0  0  0  0  0  0  0  0
   39.0550   24.6860   33.8760 C   0  0  1  0  0  0  0  0  0  0  0  0
   40.4560   24.8770   33.6360 N   0  0  0  0  0  0  0  0  0  0  0  0
   41.2810   24.0430   33.0010 C   0  0  0  0  0  0  0  0  0  0  0  0
   42.6070   24.3940   32.8650 C   0  0  0  0  0  0  0  0  0  0  0  0
   43.1650   25.5610   33.3410 C   0  0  0  0  0  0  0  0  0  0  0  0
   44.5410   25.8870   33.1810 N   0  0  0  0  0  0  0  0  0  0  0  0
   42.2710   26.3530   33.9710 N   0  0  0  0  0  0  0  0  0  0  0  0
   40.9710   26.0350   34.1180 C   0  0  0  0  0  0  0  0  0  0  0  0
   40.3800   26.9560   34.7430 O   0  0  0  0  0  0  0  0  0  0  0  0
   38.5410   23.2870   33.4810 C   0  0  0  0  0  0  0  0  0  0  0  0
   38.5900   23.2530   32.1050 F   0  0  0  0  0  0  0  0  0  0  0  0
   37.4360   22.8940   34.1060 F   0  0  0  0  0  0  0  0  0  0  0  0
   39.5850   22.3950   33.8990 F   0  0  0  0  0  0  0  0  0  0  0  0
   40.8296   22.4893   37.7949 H   0  0  0  0  0  0  0  0  0  0  0  0
   38.9462   22.3248   39.4902 H   0  0  0  0  0  0  0  0  0  0  0  0
   36.7933   23.5692   38.9840 H   0  0  0  0  0  0  0  0  0  0  0  0
   36.6609   26.0246   35.7810 H   0  0  0  0  0  0  0  0  0  0  0  0
   38.0687   27.1362   35.5436 H   0  0  0  0  0  0  0  0  0  0  0  0
   35.9260   26.8905   33.8568 H   0  0  0  0  0  0  0  0  0  0  0  0
   37.5697   27.5288   33.4270 H   0  0  0  0  0  0  0  0  0  0  0  0
   38.7691   25.0839   31.7136 H   0  0  0  0  0  0  0  0  0  0  0  0
   39.0005   26.5580   32.6532 H   0  0  0  0  0  0  0  0  0  0  0  0
   40.9095   23.0915   32.5929 H   0  0  0  0  0  0  0  0  0  0  0  0
   43.2686   23.6910   32.3377 H   0  0  0  0  0  0  0  0  0  0  0  0
   44.9073   26.7735   33.5564 H   0  0  0  0  0  0  0  0  0  0  0  0
   45.1706   25.2365   32.6898 H   0  0  0  0  0  0  0  0  0  0  0  0
  1  2  2  0
  3  2  1  0
  4  3  2  0
  5  6  2  0
  5  4  1  0
  6  1  1  0
  7  8  1  0
  7  5  1  0
  9  8  1  0
 10  9  1  0
 11 10  1  0
 11 12  1  0
 12 21  1  6
 12  7  1  0
 13 12  1  0
 13 19  1  0
 14 13  1  0
 15 14  2  0
 15 16  1  0
 16 18  2  0
 17 16  1  0
 18 19  1  0
 19 20  2  0
 21 24  1  0
 21 23  1  0
 22 21  1  0
  1 25  1  0
  2 26  1  0
  3 27  1  0
  8 28  1  0
  8 29  1  0
  9 30  1  0
  9 31  1  0
 11 32  1  0
 11 33  1  0
 14 34  1  0
 15 35  1  0
 17 36  1  0
 17 37  1  0
M  ISO  8  25  14  26  14  27  14  28  13  29  13  30  13  31  13  32  13
M  ISO  3  33  13  34  14  35  14
M  END
>  <minimizedAffinity>  (1) 
-4.59194374

>  <minimizedRMSD>  (1) 
1.12660944

$$$$
