
     RDKit          3D

 33 34  0  0  1  0  0  0  0  0999 V2000
   39.9460   23.0660   37.5700 C   0  0  0  0  0  0  0  0  0  0  0  0
   38.9400   23.0090   38.5680 C   0  0  0  0  0  0  0  0  0  0  0  0
   37.7780   23.7360   38.3260 C   0  0  0  0  0  0  0  0  0  0  0  0
   37.6970   24.4360   37.1670 N   0  0  0  0  0  0  0  0  0  0  0  0
   38.6930   24.4590   36.2400 C   0  0  0  0  0  0  0  0  0  0  0  0
   39.7990   23.7780   36.4490 N   0  0  0  0  0  0  0  0  0  0  0  0
   38.4910   25.2230   35.0540 N   0  0  0  0  0  0  0  0  0  0  0  0
   37.6630   26.4360   35.1550 C   0  0  0  0  0  0  0  0  0  0  0  0
   37.0640   26.7830   33.8250 C   0  0  0  0  0  0  0  0  0  0  0  0
   37.1670   25.7560   32.9010 O   0  0  0  0  0  0  0  0  0  0  0  0
   38.5200   25.6330   32.6670 C   0  0  0  0  0  0  0  0  0  0  0  0
   39.0590   24.7400   33.8530 C   0  0  1  0  0  0  0  0  0  0  0  0
   40.4680   24.8630   33.6300 N   0  0  0  0  0  0  0  0  0  0  0  0
   41.5300   25.6450   34.0670 C   0  0  0  0  0  0  0  0  0  0  0  0
   41.1330   26.5430   34.8760 N   0  0  0  0  0  0  0  0  0  0  0  0
   42.8660   25.4230   33.6330 N   0  0  0  0  0  0  0  0  0  0  0  0
   41.7200   27.2530   35.3450 H   0  0  0  0  0  0  0  0  0  0  0  0
   38.4690   23.3640   33.4870 C   0  0  0  0  0  0  0  0  0  0  0  0
   38.4070   23.3500   32.1130 F   0  0  0  0  0  0  0  0  0  0  0  0
   37.4220   22.9800   34.2070 F   0  0  0  0  0  0  0  0  0  0  0  0
   39.5450   22.4500   33.7900 F   0  0  0  0  0  0  0  0  0  0  0  0
   40.8794   22.5047   37.7241 H   0  0  0  0  0  0  0  0  0  0  0  0
   39.0715   22.4197   39.4874 H   0  0  0  0  0  0  0  0  0  0  0  0
   36.9514   23.7427   39.0518 H   0  0  0  0  0  0  0  0  0  0  0  0
   36.8546   26.2617   35.8803 H   0  0  0  0  0  0  0  0  0  0  0  0
   38.2989   27.2710   35.4844 H   0  0  0  0  0  0  0  0  0  0  0  0
   35.9993   27.0182   33.9706 H   0  0  0  0  0  0  0  0  0  0  0  0
   37.6232   27.6421   33.4261 H   0  0  0  0  0  0  0  0  0  0  0  0
   38.7022   25.1423   31.6995 H   0  0  0  0  0  0  0  0  0  0  0  0
   39.0229   26.6104   32.6234 H   0  0  0  0  0  0  0  0  0  0  0  0
   40.7890   24.1661   32.9428 H   0  0  0  0  0  0  0  0  0  0  0  0
   43.6268   26.0245   33.9798 H   0  0  0  0  0  0  0  0  0  0  0  0
   43.0728   24.6607   32.9719 H   0  0  0  0  0  0  0  0  0  0  0  0
  1  2  2  0
  3  2  1  0
  4  3  2  0
  5  6  2  0
  5  4  1  0
  6  1  1  0
  7  8  1  0
  7  5  1  0
  9  8  1  0
 10  9  1  0
 11 10  1  0
 11 12  1  0
 12 18  1  0
 12  7  1  0
 12 13  1  1
 13 14  1  0
 14 15  2  0
 15 17  1  0
 16 14  1  0
 18 21  1  0
 18 20  1  0
 19 18  1  0
  1 22  1  0
  2 23  1  0
  3 24  1  0
  8 25  1  0
  8 26  1  0
  9 27  1  0
  9 28  1  0
 11 29  1  0
 11 30  1  0
 13 31  1  0
 16 32  1  0
 16 33  1  0
M  ISO  8  22  14  23  14  24  14  25  13  26  13  27  13  28  13  29  13
M  ISO  1  30  13
M  END
>  <minimizedAffinity>  (1) 
-4.34446573

>  <minimizedRMSD>  (1) 
1.10794461

$$$$
