
     RDKit          3D

 33 35  0  0  1  0  0  0  0  0999 V2000
   39.8640   22.9730   37.6790 C   0  0  0  0  0  0  0  0  0  0  0  0
   38.9210   23.2620   38.7050 C   0  0  0  0  0  0  0  0  0  0  0  0
   37.8200   24.0370   38.3450 C   0  0  0  0  0  0  0  0  0  0  0  0
   37.7310   24.4520   37.0570 N   0  0  0  0  0  0  0  0  0  0  0  0
   38.6620   24.1470   36.1110 C   0  0  0  0  0  0  0  0  0  0  0  0
   39.7090   23.4180   36.4310 N   0  0  0  0  0  0  0  0  0  0  0  0
   38.4540   24.6310   34.7890 N   0  0  0  0  0  0  0  0  0  0  0  0
   37.7530   25.9170   34.6340 C   0  0  0  0  0  0  0  0  0  0  0  0
   37.1150   26.0120   33.2790 C   0  0  0  0  0  0  0  0  0  0  0  0
   37.0550   24.7920   32.6230 O   0  0  0  0  0  0  0  0  0  0  0  0
   38.3750   24.4740   32.3730 C   0  0  0  0  0  0  0  0  0  0  0  0
   38.8890   23.8260   33.7140 C   0  0  1  0  0  0  0  0  0  0  0  0
   40.2870   23.6460   33.3540 C   0  0  0  0  0  0  0  0  0  0  0  0
   40.7750   23.3440   32.1050 C   0  0  0  0  0  0  0  0  0  0  0  0
   42.1450   23.2780   32.2720 C   0  0  0  0  0  0  0  0  0  0  0  0
   42.4220   23.5450   33.6170 C   0  0  0  0  0  0  0  0  0  0  0  0
   41.2630   23.7560   34.2080 O   0  0  0  0  0  0  0  0  0  0  0  0
   38.1510   22.4690   33.7110 C   0  0  0  0  0  0  0  0  0  0  0  0
   37.9620   22.1760   32.3760 F   0  0  0  0  0  0  0  0  0  0  0  0
   37.1490   22.3710   34.5750 F   0  0  0  0  0  0  0  0  0  0  0  0
   39.1590   21.5310   34.1280 F   0  0  0  0  0  0  0  0  0  0  0  0
   40.7473   22.3643   37.9224 H   0  0  0  0  0  0  0  0  0  0  0  0
   39.0546   22.8917   39.7322 H   0  0  0  0  0  0  0  0  0  0  0  0
   37.0480   24.3035   39.0819 H   0  0  0  0  0  0  0  0  0  0  0  0
   36.9743   25.9995   35.4066 H   0  0  0  0  0  0  0  0  0  0  0  0
   38.4828   26.7332   34.7399 H   0  0  0  0  0  0  0  0  0  0  0  0
   36.0913   26.3962   33.3994 H   0  0  0  0  0  0  0  0  0  0  0  0
   37.7360   26.6842   32.6687 H   0  0  0  0  0  0  0  0  0  0  0  0
   38.4511   23.7578   31.5416 H   0  0  0  0  0  0  0  0  0  0  0  0
   38.9677   25.3534   32.0809 H   0  0  0  0  0  0  0  0  0  0  0  0
   40.2023   23.1893   31.1787 H   0  0  0  0  0  0  0  0  0  0  0  0
   42.8845   23.0556   31.4886 H   0  0  0  0  0  0  0  0  0  0  0  0
   43.4148   23.5734   34.0898 H   0  0  0  0  0  0  0  0  0  0  0  0
  1  2  2  0
  3  2  1  0
  4  3  2  0
  5  6  2  0
  5  4  1  0
  6  1  1  0
  7  5  1  0
  8  7  1  0
  9  8  1  0
 10  9  1  0
 11 10  1  0
 11 12  1  0
 12 18  1  1
 12  7  1  0
 13 12  1  0
 13 17  1  0
 14 15  1  0
 14 13  2  0
 15 16  2  0
 16 17  1  0
 18 21  1  0
 18 20  1  0
 19 18  1  0
  1 22  1  0
  2 23  1  0
  3 24  1  0
  8 25  1  0
  8 26  1  0
  9 27  1  0
  9 28  1  0
 11 29  1  0
 11 30  1  0
 14 31  1  0
 15 32  1  0
 16 33  1  0
M  ISO  8  22  14  23  14  24  14  25  13  26  13  27  13  28  13  29  13
M  ISO  4  30  13  31  14  32  14  33  14
M  END
>  <minimizedAffinity>  (1) 
-4.34659624

>  <minimizedRMSD>  (1) 
0.678602457

$$$$
