
     RDKit          3D

 36 38  0  0  1  0  0  0  0  0999 V2000
   39.8960   22.9800   37.6730 C   0  0  0  0  0  0  0  0  0  0  0  0
   38.9390   23.1940   38.7010 C   0  0  0  0  0  0  0  0  0  0  0  0
   37.8220   23.9610   38.3700 C   0  0  0  0  0  0  0  0  0  0  0  0
   37.7380   24.4400   37.1040 N   0  0  0  0  0  0  0  0  0  0  0  0
   38.6860   24.2060   36.1530 C   0  0  0  0  0  0  0  0  0  0  0  0
   39.7450   23.4860   36.4460 N   0  0  0  0  0  0  0  0  0  0  0  0
   38.4800   24.7540   34.8560 N   0  0  0  0  0  0  0  0  0  0  0  0
   37.7570   26.0340   34.7560 C   0  0  0  0  0  0  0  0  0  0  0  0
   37.1070   26.1770   33.4110 C   0  0  0  0  0  0  0  0  0  0  0  0
   37.0910   24.9930   32.6900 O   0  0  0  0  0  0  0  0  0  0  0  0
   38.4180   24.7210   32.4330 C   0  0  0  0  0  0  0  0  0  0  0  0
   38.9430   24.0160   33.7440 C   0  0  1  0  0  0  0  0  0  0  0  0
   40.3470   23.9160   33.3810 C   0  0  0  0  0  0  0  0  0  0  0  0
   41.4450   23.6770   34.1620 C   0  0  0  0  0  0  0  0  0  0  0  0
   42.6950   23.6400   33.5800 C   0  0  0  0  0  0  0  0  0  0  0  0
   42.9090   23.8330   32.2390 C   0  0  0  0  0  0  0  0  0  0  0  0
   41.8240   24.0730   31.4410 C   0  0  0  0  0  0  0  0  0  0  0  0
   40.5510   24.1140   32.0110 C   0  0  0  0  0  0  0  0  0  0  0  0
   38.2420   22.6460   33.6640 C   0  0  0  0  0  0  0  0  0  0  0  0
   38.0540   22.4210   32.3170 F   0  0  0  0  0  0  0  0  0  0  0  0
   37.2390   22.4720   34.5190 F   0  0  0  0  0  0  0  0  0  0  0  0
   39.2720   21.7110   34.0320 F   0  0  0  0  0  0  0  0  0  0  0  0
   40.7899   22.3784   37.8945 H   0  0  0  0  0  0  0  0  0  0  0  0
   39.0725   22.7750   39.7093 H   0  0  0  0  0  0  0  0  0  0  0  0
   37.0360   24.1702   39.1106 H   0  0  0  0  0  0  0  0  0  0  0  0
   36.9827   26.0724   35.5363 H   0  0  0  0  0  0  0  0  0  0  0  0
   38.4762   26.8557   34.8884 H   0  0  0  0  0  0  0  0  0  0  0  0
   36.0698   26.5131   33.5566 H   0  0  0  0  0  0  0  0  0  0  0  0
   37.6970   26.9055   32.8355 H   0  0  0  0  0  0  0  0  0  0  0  0
   38.5159   24.0508   31.5662 H   0  0  0  0  0  0  0  0  0  0  0  0
   38.9899   25.6289   32.1908 H   0  0  0  0  0  0  0  0  0  0  0  0
   41.3318   23.5158   35.2442 H   0  0  0  0  0  0  0  0  0  0  0  0
   43.5650   23.4457   34.2245 H   0  0  0  0  0  0  0  0  0  0  0  0
   43.9242   23.7959   31.8172 H   0  0  0  0  0  0  0  0  0  0  0  0
   41.9539   24.2321   30.3603 H   0  0  0  0  0  0  0  0  0  0  0  0
   39.6825   24.3076   31.3644 H   0  0  0  0  0  0  0  0  0  0  0  0
  1  2  2  0
  3  2  1  0
  4  3  2  0
  5  6  2  0
  5  4  1  0
  6  1  1  0
  7  5  1  0
  8  7  1  0
  9  8  1  0
 10  9  1  0
 11 10  1  0
 11 12  1  0
 12 19  1  1
 12  7  1  0
 13 12  1  0
 13 14  2  0
 15 14  1  0
 16 15  2  0
 17 18  2  0
 17 16  1  0
 18 13  1  0
 19 22  1  0
 19 21  1  0
 20 19  1  0
  1 23  1  0
  2 24  1  0
  3 25  1  0
  8 26  1  0
  8 27  1  0
  9 28  1  0
  9 29  1  0
 11 30  1  0
 11 31  1  0
 14 32  1  0
 15 33  1  0
 16 34  1  0
 17 35  1  0
 18 36  1  0
M  ISO  8  23  14  24  14  25  14  26  13  27  13  28  13  29  13  30  13
M  ISO  6  31  13  32  14  33  14  34  14  35  14  36  14
M  END
>  <minimizedAffinity>  (1) 
-4.39410639

>  <minimizedRMSD>  (1) 
0.449306041

$$$$
