
     RDKit          3D

 38 40  0  0  1  0  0  0  0  0999 V2000
   39.8670   22.9750   37.6670 C   0  0  0  0  0  0  0  0  0  0  0  0
   38.9280   23.2550   38.6880 C   0  0  0  0  0  0  0  0  0  0  0  0
   37.8290   24.0290   38.3260 C   0  0  0  0  0  0  0  0  0  0  0  0
   37.7410   24.4510   37.0390 N   0  0  0  0  0  0  0  0  0  0  0  0
   38.6720   24.1540   36.0910 C   0  0  0  0  0  0  0  0  0  0  0  0
   39.7150   23.4240   36.4210 N   0  0  0  0  0  0  0  0  0  0  0  0
   38.4680   24.6420   34.7750 N   0  0  0  0  0  0  0  0  0  0  0  0
   37.7710   25.9300   34.6190 C   0  0  0  0  0  0  0  0  0  0  0  0
   37.0940   26.0060   33.2800 C   0  0  0  0  0  0  0  0  0  0  0  0
   37.0720   24.7970   32.6090 O   0  0  0  0  0  0  0  0  0  0  0  0
   38.4020   24.4980   32.3600 C   0  0  0  0  0  0  0  0  0  0  0  0
   38.9200   23.8380   33.6920 C   0  0  1  0  0  0  0  0  0  0  0  0
   40.2720   23.6820   33.3640 N   0  0  0  0  0  0  0  0  0  0  0  0
   41.1190   24.8170   33.6750 C   0  0  0  0  0  0  0  0  0  0  0  0
   42.4460   24.2790   33.1140 C   0  0  0  0  0  0  0  0  0  0  0  0
   42.0480   23.3420   31.9990 C   0  0  0  0  0  0  0  0  0  0  0  0
   40.5150   23.5900   31.9570 C   0  0  0  0  0  0  0  0  0  0  0  0
   38.1900   22.4850   33.6860 C   0  0  0  0  0  0  0  0  0  0  0  0
   37.9610   22.2040   32.3570 F   0  0  0  0  0  0  0  0  0  0  0  0
   37.2020   22.3590   34.5660 F   0  0  0  0  0  0  0  0  0  0  0  0
   39.2100   21.5450   34.0690 F   0  0  0  0  0  0  0  0  0  0  0  0
   40.7511   22.3671   37.9094 H   0  0  0  0  0  0  0  0  0  0  0  0
   39.0596   22.8807   39.7139 H   0  0  0  0  0  0  0  0  0  0  0  0
   37.0543   24.2910   39.0617 H   0  0  0  0  0  0  0  0  0  0  0  0
   37.0156   26.0307   35.4123 H   0  0  0  0  0  0  0  0  0  0  0  0
   38.5083   26.7432   34.6903 H   0  0  0  0  0  0  0  0  0  0  0  0
   36.0570   26.3402   33.4315 H   0  0  0  0  0  0  0  0  0  0  0  0
   37.6705   26.7108   32.6629 H   0  0  0  0  0  0  0  0  0  0  0  0
   38.4905   23.7947   31.5188 H   0  0  0  0  0  0  0  0  0  0  0  0
   38.9841   25.3896   32.0838 H   0  0  0  0  0  0  0  0  0  0  0  0
   40.7918   25.7311   33.1580 H   0  0  0  0  0  0  0  0  0  0  0  0
   41.1379   25.1208   34.7320 H   0  0  0  0  0  0  0  0  0  0  0  0
   43.0634   25.1022   32.7253 H   0  0  0  0  0  0  0  0  0  0  0  0
   43.0453   23.7726   33.8850 H   0  0  0  0  0  0  0  0  0  0  0  0
   42.5299   23.6138   31.0483 H   0  0  0  0  0  0  0  0  0  0  0  0
   42.3392   22.2928   32.1551 H   0  0  0  0  0  0  0  0  0  0  0  0
   40.2610   24.5223   31.4315 H   0  0  0  0  0  0  0  0  0  0  0  0
   39.9248   22.8324   31.4206 H   0  0  0  0  0  0  0  0  0  0  0  0
  1  2  2  0
  3  2  1  0
  4  3  2  0
  5  6  2  0
  5  4  1  0
  6  1  1  0
  7  5  1  0
  8  7  1  0
  9  8  1  0
 10  9  1  0
 11 10  1  0
 11 12  1  0
 12 18  1  1
 12  7  1  0
 13 14  1  0
 13 12  1  0
 15 14  1  0
 16 15  1  0
 17 16  1  0
 17 13  1  0
 18 21  1  0
 18 20  1  0
 19 18  1  0
  1 22  1  0
  2 23  1  0
  3 24  1  0
  8 25  1  0
  8 26  1  0
  9 27  1  0
  9 28  1  0
 11 29  1  0
 11 30  1  0
 14 31  1  0
 14 32  1  0
 15 33  1  0
 15 34  1  0
 16 35  1  0
 16 36  1  0
 17 37  1  0
 17 38  1  0
M  ISO  8  22  14  23  14  24  14  25  13  26  13  27  13  28  13  29  13
M  ISO  8  30  13  31  13  32  13  33  13  34  13  35  13  36  13  37  13
M  ISO  1  38  13
M  END
>  <minimizedAffinity>  (1) 
-4.34244204

>  <minimizedRMSD>  (1) 
0.936137378

$$$$
