
     RDKit          3D

 31 33  0  0  1  0  0  0  0  0999 V2000
   39.8730   22.9710   37.6460 C   0  0  0  0  0  0  0  0  0  0  0  0
   38.9290   23.2510   38.6790 C   0  0  0  0  0  0  0  0  0  0  0  0
   37.8250   24.0240   38.3280 C   0  0  0  0  0  0  0  0  0  0  0  0
   37.7300   24.4470   37.0430 N   0  0  0  0  0  0  0  0  0  0  0  0
   38.6590   24.1520   36.0920 C   0  0  0  0  0  0  0  0  0  0  0  0
   39.7100   23.4240   36.4010 N   0  0  0  0  0  0  0  0  0  0  0  0
   38.4440   24.6460   34.7740 N   0  0  0  0  0  0  0  0  0  0  0  0
   37.7410   25.9310   34.6280 C   0  0  0  0  0  0  0  0  0  0  0  0
   37.0980   26.0350   33.2760 C   0  0  0  0  0  0  0  0  0  0  0  0
   37.0360   24.8190   32.6160 O   0  0  0  0  0  0  0  0  0  0  0  0
   38.3540   24.5050   32.3570 C   0  0  0  0  0  0  0  0  0  0  0  0
   38.8790   23.8510   33.6910 C   0  0  1  0  0  0  0  0  0  0  0  0
   40.2820   23.6880   33.3300 C   0  0  0  0  0  0  0  0  0  0  0  0
   40.6960   23.2910   32.1160 N   0  0  0  0  0  0  0  0  0  0  0  0
   41.9940   23.2650   32.1810 O   0  0  0  0  0  0  0  0  0  0  0  0
   42.4160   23.6250   33.3710 C   0  0  0  0  0  0  0  0  0  0  0  0
   41.3230   23.9060   34.1380 N   0  0  0  0  0  0  0  0  0  0  0  0
   38.1410   22.4910   33.6820 C   0  0  0  0  0  0  0  0  0  0  0  0
   37.9530   22.2020   32.3480 F   0  0  0  0  0  0  0  0  0  0  0  0
   37.1440   22.3850   34.5460 F   0  0  0  0  0  0  0  0  0  0  0  0
   39.1610   21.5570   34.0920 F   0  0  0  0  0  0  0  0  0  0  0  0
   40.7599   22.3648   37.8824 H   0  0  0  0  0  0  0  0  0  0  0  0
   39.0667   22.8744   39.7033 H   0  0  0  0  0  0  0  0  0  0  0  0
   37.0547   24.2832   39.0693 H   0  0  0  0  0  0  0  0  0  0  0  0
   36.9647   26.0078   35.4036 H   0  0  0  0  0  0  0  0  0  0  0  0
   38.4709   26.7469   34.7354 H   0  0  0  0  0  0  0  0  0  0  0  0
   36.0749   26.4190   33.4020 H   0  0  0  0  0  0  0  0  0  0  0  0
   37.7156   26.7113   32.6668 H   0  0  0  0  0  0  0  0  0  0  0  0
   38.4262   23.7932   31.5214 H   0  0  0  0  0  0  0  0  0  0  0  0
   38.9427   25.3876   32.0664 H   0  0  0  0  0  0  0  0  0  0  0  0
   43.4659   23.6888   33.6930 H   0  0  0  0  0  0  0  0  0  0  0  0
  1  2  2  0
  3  2  1  0
  4  3  2  0
  5  6  2  0
  5  4  1  0
  6  1  1  0
  7  5  1  0
  8  7  1  0
  9  8  1  0
 10  9  1  0
 11 10  1  0
 11 12  1  0
 12 18  1  1
 12  7  1  0
 13 12  1  0
 13 17  1  0
 14 15  1  0
 14 13  2  0
 15 16  1  0
 16 17  2  0
 18 21  1  0
 18 20  1  0
 19 18  1  0
  1 22  1  0
  2 23  1  0
  3 24  1  0
  8 25  1  0
  8 26  1  0
  9 27  1  0
  9 28  1  0
 11 29  1  0
 11 30  1  0
 16 31  1  0
M  ISO  8  22  14  23  14  24  14  25  13  26  13  27  13  28  13  29  13
M  ISO  2  30  13  31  14
M  END
>  <minimizedAffinity>  (1) 
-4.34190893

>  <minimizedRMSD>  (1) 
0.097037077

$$$$
