
     RDKit          3D

 38 39  0  0  1  0  0  0  0  0999 V2000
   39.8630   22.9650   37.6000 C   0  0  0  0  0  0  0  0  0  0  0  0
   38.9160   23.2250   38.6180 C   0  0  0  0  0  0  0  0  0  0  0  0
   37.8230   24.0080   38.2560 C   0  0  0  0  0  0  0  0  0  0  0  0
   37.7540   24.4540   36.9740 N   0  0  0  0  0  0  0  0  0  0  0  0
   38.6870   24.1770   36.0370 C   0  0  0  0  0  0  0  0  0  0  0  0
   39.7140   23.4460   36.3660 N   0  0  0  0  0  0  0  0  0  0  0  0
   38.4810   24.6990   34.7310 N   0  0  0  0  0  0  0  0  0  0  0  0
   37.7300   25.9460   34.6060 C   0  0  0  0  0  0  0  0  0  0  0  0
   37.0910   26.0710   33.2560 C   0  0  0  0  0  0  0  0  0  0  0  0
   37.0470   24.8560   32.6030 O   0  0  0  0  0  0  0  0  0  0  0  0
   38.3550   24.5710   32.3170 C   0  0  0  0  0  0  0  0  0  0  0  0
   38.9800   23.9480   33.6170 C   0  0  2  0  0  0  0  0  0  0  0  0
   38.2900   22.5750   33.5860 C   0  0  0  0  0  0  0  0  0  0  0  0
   38.1710   22.2130   32.2660 F   0  0  0  0  0  0  0  0  0  0  0  0
   37.1890   22.4560   34.3350 F   0  0  0  0  0  0  0  0  0  0  0  0
   39.1970   21.6410   34.1460 F   0  0  0  0  0  0  0  0  0  0  0  0
   40.3580   24.0270   33.1570 C   0  0  0  0  0  0  0  0  0  0  0  0
   41.1450   22.8210   33.6290 C   0  0  0  0  0  0  0  0  0  0  0  0
   41.0730   25.2270   33.7520 C   0  0  0  0  0  0  0  0  0  0  0  0
   40.6710   24.0990   31.6990 C   0  0  0  0  0  0  0  0  0  0  0  0
   40.7449   22.3501   37.8327 H   0  0  0  0  0  0  0  0  0  0  0  0
   39.0362   22.8309   39.6379 H   0  0  0  0  0  0  0  0  0  0  0  0
   37.0388   24.2581   38.9858 H   0  0  0  0  0  0  0  0  0  0  0  0
   36.9450   25.9689   35.3762 H   0  0  0  0  0  0  0  0  0  0  0  0
   38.4304   26.7844   34.7346 H   0  0  0  0  0  0  0  0  0  0  0  0
   36.0649   26.4477   33.3797 H   0  0  0  0  0  0  0  0  0  0  0  0
   37.6930   26.7659   32.6521 H   0  0  0  0  0  0  0  0  0  0  0  0
   38.4128   23.8515   31.4870 H   0  0  0  0  0  0  0  0  0  0  0  0
   38.8988   25.4778   32.0137 H   0  0  0  0  0  0  0  0  0  0  0  0
   41.1589   22.7997   34.7287 H   0  0  0  0  0  0  0  0  0  0  0  0
   40.6715   21.9031   33.2504 H   0  0  0  0  0  0  0  0  0  0  0  0
   42.1758   22.8848   33.2504 H   0  0  0  0  0  0  0  0  0  0  0  0
   41.0376   25.1677   34.8498 H   0  0  0  0  0  0  0  0  0  0  0  0
   42.1213   25.2316   33.4186 H   0  0  0  0  0  0  0  0  0  0  0  0
   40.5781   26.1511   33.4186 H   0  0  0  0  0  0  0  0  0  0  0  0
   41.7349   24.3437   31.5640 H   0  0  0  0  0  0  0  0  0  0  0  0
   40.4557   23.1279   31.2294 H   0  0  0  0  0  0  0  0  0  0  0  0
   40.0530   24.8784   31.2294 H   0  0  0  0  0  0  0  0  0  0  0  0
  1  2  2  0
  3  2  1  0
  4  3  2  0
  5  6  2  0
  5  4  1  0
  6  1  1  0
  7  5  1  0
  8  7  1  0
  9  8  1  0
 10  9  1  0
 11 10  1  0
 11 12  1  0
 12 17  1  6
 12  7  1  0
 13 12  1  0
 13 16  1  0
 13 15  1  0
 14 13  1  0
 17 18  1  0
 17 19  1  0
 20 17  1  0
  1 21  1  0
  2 22  1  0
  3 23  1  0
  8 24  1  0
  8 25  1  0
  9 26  1  0
  9 27  1  0
 11 28  1  0
 11 29  1  0
 18 30  1  0
 18 31  1  0
 18 32  1  0
 19 33  1  0
 19 34  1  0
 19 35  1  0
 20 36  1  0
 20 37  1  0
 20 38  1  0
M  ISO  8  21  14  22  14  23  14  24  13  25  13  26  13  27  13  28  13
M  ISO  8  29  13  30   8  31   8  32   8  33   8  34   8  35   8  36   8
M  ISO  2  37   8  38   8
M  END
>  <minimizedAffinity>  (1) 
-4.32840443

>  <minimizedRMSD>  (1) 
0.38616243

$$$$
