
     RDKit          3D

 34 36  0  0  1  0  0  0  0  0999 V2000
   39.9810   23.0140   37.5210 C   0  0  0  0  0  0  0  0  0  0  0  0
   38.9840   23.0450   38.5520 C   0  0  0  0  0  0  0  0  0  0  0  0
   37.8380   23.7800   38.3050 C   0  0  0  0  0  0  0  0  0  0  0  0
   37.7420   24.4140   37.1130 N   0  0  0  0  0  0  0  0  0  0  0  0
   38.7200   24.3550   36.1610 C   0  0  0  0  0  0  0  0  0  0  0  0
   39.8100   23.6660   36.3750 N   0  0  0  0  0  0  0  0  0  0  0  0
   38.4970   25.0710   34.9370 N   0  0  0  0  0  0  0  0  0  0  0  0
   37.7130   26.3220   35.0100 C   0  0  0  0  0  0  0  0  0  0  0  0
   37.0800   26.6150   33.6790 C   0  0  0  0  0  0  0  0  0  0  0  0
   37.1430   25.5450   32.8000 O   0  0  0  0  0  0  0  0  0  0  0  0
   38.4910   25.3820   32.5430 C   0  0  0  0  0  0  0  0  0  0  0  0
   39.0390   24.5300   33.7550 C   0  0  2  0  0  0  0  0  0  0  0  0
   38.4050   23.1450   33.4700 C   0  0  0  0  0  0  0  0  0  0  0  0
   38.3270   23.0760   32.0930 F   0  0  0  0  0  0  0  0  0  0  0  0
   37.3550   22.8300   34.2250 F   0  0  0  0  0  0  0  0  0  0  0  0
   39.4650   22.2280   33.8020 F   0  0  0  0  0  0  0  0  0  0  0  0
   40.3670   24.6110   33.4560 O   0  0  0  0  0  0  0  0  0  0  0  0
   42.5060   27.3180   34.1930 N   0  0  0  0  0  0  0  0  0  0  0  0
   41.2660   26.9580   33.9040 N   0  0  0  0  0  0  0  0  0  0  0  0
   41.2450   25.6210   33.7470 C   0  0  0  0  0  0  0  0  0  0  0  0
   42.5500   25.1600   33.9580 C   0  0  0  0  0  0  0  0  0  0  0  0
   43.3510   26.2720   34.2440 C   0  0  0  0  0  0  0  0  0  0  0  0
   40.9052   22.4395   37.6818 H   0  0  0  0  0  0  0  0  0  0  0  0
   39.1249   22.5062   39.5006 H   0  0  0  0  0  0  0  0  0  0  0  0
   37.0329   23.8468   39.0515 H   0  0  0  0  0  0  0  0  0  0  0  0
   36.9260   26.2139   35.7709 H   0  0  0  0  0  0  0  0  0  0  0  0
   38.3837   27.1512   35.2793 H   0  0  0  0  0  0  0  0  0  0  0  0
   36.0230   26.8718   33.8429 H   0  0  0  0  0  0  0  0  0  0  0  0
   37.6399   27.4460   33.2251 H   0  0  0  0  0  0  0  0  0  0  0  0
   38.6415   24.8459   31.5944 H   0  0  0  0  0  0  0  0  0  0  0  0
   39.0124   26.3458   32.4467 H   0  0  0  0  0  0  0  0  0  0  0  0
   42.7932   28.2928   34.3607 H   0  0  0  0  0  0  0  0  0  0  0  0
   42.8853   24.1135   33.9081 H   0  0  0  0  0  0  0  0  0  0  0  0
   44.4292   26.2872   34.4616 H   0  0  0  0  0  0  0  0  0  0  0  0
  1  2  2  0
  3  2  1  0
  4  3  2  0
  5  6  2  0
  5  4  1  0
  6  1  1  0
  7  8  1  0
  7  5  1  0
  9  8  1  0
 10  9  1  0
 11 10  1  0
 11 12  1  0
 12 17  1  1
 12  7  1  0
 13 12  1  0
 13 16  1  0
 13 15  1  0
 14 13  1  0
 17 20  1  0
 18 22  1  0
 19 18  1  0
 20 19  2  0
 20 21  1  0
 21 22  2  0
  1 23  1  0
  2 24  1  0
  3 25  1  0
  8 26  1  0
  8 27  1  0
  9 28  1  0
  9 29  1  0
 11 30  1  0
 11 31  1  0
 18 32  1  0
 21 33  1  0
 22 34  1  0
M  ISO  8  23  14  24  14  25  14  26  13  27  13  28  13  29  13  30  13
M  ISO  4  31  13  32   9  33  14  34  14
M  END
>  <minimizedAffinity>  (1) 
-4.72142124

>  <minimizedRMSD>  (1) 
2.46947432

$$$$
