
     RDKit          3D

 38 41  0  0  1  0  0  0  0  0999 V2000
   39.8690   23.0370   37.6180 C   0  0  0  0  0  0  0  0  0  0  0  0
   38.8390   23.1150   38.6140 C   0  0  0  0  0  0  0  0  0  0  0  0
   37.6810   23.7960   38.2680 C   0  0  0  0  0  0  0  0  0  0  0  0
   37.6060   24.3350   37.0270 N   0  0  0  0  0  0  0  0  0  0  0  0
   38.6130   24.2320   36.1230 C   0  0  0  0  0  0  0  0  0  0  0  0
   39.7130   23.5960   36.4230 N   0  0  0  0  0  0  0  0  0  0  0  0
   38.4180   24.8390   34.8490 N   0  0  0  0  0  0  0  0  0  0  0  0
   37.6030   26.0720   34.7780 C   0  0  0  0  0  0  0  0  0  0  0  0
   37.0020   26.2340   33.4150 C   0  0  0  0  0  0  0  0  0  0  0  0
   37.1160   25.0930   32.6260 O   0  0  0  0  0  0  0  0  0  0  0  0
   38.4810   24.9520   32.4220 C   0  0  0  0  0  0  0  0  0  0  0  0
   39.0100   24.2390   33.7100 C   0  0  2  0  0  0  0  0  0  0  0  0
   38.4260   22.8110   33.5230 C   0  0  0  0  0  0  0  0  0  0  0  0
   38.4010   22.6030   32.1670 F   0  0  0  0  0  0  0  0  0  0  0  0
   37.3550   22.5280   34.2580 F   0  0  0  0  0  0  0  0  0  0  0  0
   39.4750   21.9450   33.9810 F   0  0  0  0  0  0  0  0  0  0  0  0
   40.3460   24.2820   33.4510 O   0  0  0  0  0  0  0  0  0  0  0  0
   44.0860   25.9520   35.4280 N   0  0  0  0  0  0  0  0  0  0  0  0
   43.6500   24.8150   35.9930 C   0  0  0  0  0  0  0  0  0  0  0  0
   42.5470   24.3700   35.3680 N   0  0  0  0  0  0  0  0  0  0  0  0
   42.2330   25.2280   34.3620 C   0  0  0  0  0  0  0  0  0  0  0  0
   41.2320   25.3100   33.3870 C   0  0  0  0  0  0  0  0  0  0  0  0
   41.2970   26.3660   32.5570 N   0  0  0  0  0  0  0  0  0  0  0  0
   42.2460   27.3010   32.6280 C   0  0  0  0  0  0  0  0  0  0  0  0
   43.2110   27.2330   33.5580 N   0  0  0  0  0  0  0  0  0  0  0  0
   43.2210   26.2090   34.4300 C   0  0  0  0  0  0  0  0  0  0  0  0
   40.8040   22.5051   37.8479 H   0  0  0  0  0  0  0  0  0  0  0  0
   38.9620   22.6560   39.6061 H   0  0  0  0  0  0  0  0  0  0  0  0
   36.8484   23.8955   38.9799 H   0  0  0  0  0  0  0  0  0  0  0  0
   36.7962   26.0146   35.5235 H   0  0  0  0  0  0  0  0  0  0  0  0
   38.2520   26.9363   34.9825 H   0  0  0  0  0  0  0  0  0  0  0  0
   35.9347   26.4743   33.5299 H   0  0  0  0  0  0  0  0  0  0  0  0
   37.5546   27.0386   32.9078 H   0  0  0  0  0  0  0  0  0  0  0  0
   38.6775   24.3373   31.5312 H   0  0  0  0  0  0  0  0  0  0  0  0
   38.9760   25.9195   32.2518 H   0  0  0  0  0  0  0  0  0  0  0  0
   44.9082   26.5093   35.7006 H   0  0  0  0  0  0  0  0  0  0  0  0
   44.1292   24.3169   36.8487 H   0  0  0  0  0  0  0  0  0  0  0  0
   42.2373   28.1385   31.9149 H   0  0  0  0  0  0  0  0  0  0  0  0
  1  2  2  0
  3  2  1  0
  4  3  2  0
  5  6  2  0
  5  4  1  0
  6  1  1  0
  7  5  1  0
  8  7  1  0
  9  8  1  0
 10  9  1  0
 11 10  1  0
 11 12  1  0
 12 17  1  1
 12  7  1  0
 13 12  1  0
 13 16  1  0
 13 15  1  0
 14 13  1  0
 18 19  1  0
 20 19  2  0
 21 26  2  0
 21 20  1  0
 22 17  1  0
 22 21  1  0
 23 24  1  0
 23 22  2  0
 24 25  2  0
 25 26  1  0
 26 18  1  0
  1 27  1  0
  2 28  1  0
  3 29  1  0
  8 30  1  0
  8 31  1  0
  9 32  1  0
  9 33  1  0
 11 34  1  0
 11 35  1  0
 18 36  1  0
 19 37  1  0
 24 38  1  0
M  ISO  8  27  14  28  14  29  14  30  13  31  13  32  13  33  13  34  13
M  ISO  4  35  13  36   9  37  14  38  14
M  END
>  <minimizedAffinity>  (1) 
-5.11790991

>  <minimizedRMSD>  (1) 
0.674486339

$$$$
