
     RDKit          3D

 35 37  0  0  1  0  0  0  0  0999 V2000
   39.9130   22.9980   37.5780 C   0  0  0  0  0  0  0  0  0  0  0  0
   38.9340   23.2130   38.6130 C   0  0  0  0  0  0  0  0  0  0  0  0
   37.7930   23.9400   38.2710 C   0  0  0  0  0  0  0  0  0  0  0  0
   37.6900   24.3930   36.9950 N   0  0  0  0  0  0  0  0  0  0  0  0
   38.6530   24.1570   36.0580 C   0  0  0  0  0  0  0  0  0  0  0  0
   39.7290   23.4780   36.3510 N   0  0  0  0  0  0  0  0  0  0  0  0
   38.4160   24.6890   34.7470 N   0  0  0  0  0  0  0  0  0  0  0  0
   37.6570   25.9520   34.6480 C   0  0  0  0  0  0  0  0  0  0  0  0
   37.0230   26.0630   33.2830 C   0  0  0  0  0  0  0  0  0  0  0  0
   37.0410   24.8800   32.5780 O   0  0  0  0  0  0  0  0  0  0  0  0
   38.3740   24.6410   32.3280 C   0  0  0  0  0  0  0  0  0  0  0  0
   38.9280   23.9570   33.6380 C   0  0  2  0  0  0  0  0  0  0  0  0
   38.2490   22.5700   33.5810 C   0  0  0  0  0  0  0  0  0  0  0  0
   38.1390   22.2890   32.2460 F   0  0  0  0  0  0  0  0  0  0  0  0
   37.2080   22.4000   34.3880 F   0  0  0  0  0  0  0  0  0  0  0  0
   39.2920   21.6820   34.0300 F   0  0  0  0  0  0  0  0  0  0  0  0
   40.2450   23.9630   33.3180 O   0  0  0  0  0  0  0  0  0  0  0  0
   41.2400   24.8180   33.6650 C   0  0  0  0  0  0  0  0  0  0  0  0
   41.0680   26.0200   32.9640 C   0  0  0  0  0  0  0  0  0  0  0  0
   41.9600   27.0870   33.1320 C   0  0  0  0  0  0  0  0  0  0  0  0
   42.9800   26.9000   33.9930 N   0  0  0  0  0  0  0  0  0  0  0  0
   43.1500   25.7500   34.6650 C   0  0  0  0  0  0  0  0  0  0  0  0
   42.2920   24.7340   34.4990 N   0  0  0  0  0  0  0  0  0  0  0  0
   40.8261   22.4285   37.8058 H   0  0  0  0  0  0  0  0  0  0  0  0
   39.0799   22.8205   39.6302 H   0  0  0  0  0  0  0  0  0  0  0  0
   37.0034   24.1395   39.0104 H   0  0  0  0  0  0  0  0  0  0  0  0
   36.8713   25.9669   35.4177 H   0  0  0  0  0  0  0  0  0  0  0  0
   38.3416   26.7995   34.8000 H   0  0  0  0  0  0  0  0  0  0  0  0
   35.9769   26.3794   33.4082 H   0  0  0  0  0  0  0  0  0  0  0  0
   37.6103   26.7945   32.7086 H   0  0  0  0  0  0  0  0  0  0  0  0
   38.4896   23.9695   31.4644 H   0  0  0  0  0  0  0  0  0  0  0  0
   38.9181   25.5662   32.0872 H   0  0  0  0  0  0  0  0  0  0  0  0
   40.2199   26.1268   32.2717 H   0  0  0  0  0  0  0  0  0  0  0  0
   41.8338   28.0338   32.5864 H   0  0  0  0  0  0  0  0  0  0  0  0
   43.9988   25.6412   35.3561 H   0  0  0  0  0  0  0  0  0  0  0  0
  1  2  2  0
  3  2  1  0
  4  3  2  0
  5  6  2  0
  5  4  1  0
  6  1  1  0
  7  5  1  0
  8  7  1  0
  9  8  1  0
 10  9  1  0
 11 10  1  0
 11 12  1  0
 12 17  1  6
 12  7  1  0
 13 12  1  0
 13 16  1  0
 13 15  1  0
 14 13  1  0
 17 18  1  0
 18 23  2  0
 19 20  2  0
 19 18  1  0
 20 21  1  0
 21 22  2  0
 23 22  1  0
  1 24  1  0
  2 25  1  0
  3 26  1  0
  8 27  1  0
  8 28  1  0
  9 29  1  0
  9 30  1  0
 11 31  1  0
 11 32  1  0
 19 33  1  0
 20 34  1  0
 22 35  1  0
M  ISO  8  24  14  25  14  26  14  27  13  28  13  29  13  30  13  31  13
M  ISO  4  32  13  33  14  34  14  35  14
M  END
>  <minimizedAffinity>  (1) 
-4.61831474

>  <minimizedRMSD>  (1) 
2.4934423

$$$$
