
     RDKit          3D

 43 45  0  0  1  0  0  0  0  0999 V2000
   40.6570   23.0680   36.4730 C   0  0  0  0  0  0  0  0  0  0  0  0
   39.8980   22.7300   37.6410 C   0  0  0  0  0  0  0  0  0  0  0  0
   38.6950   23.3980   37.8270 C   0  0  0  0  0  0  0  0  0  0  0  0
   38.3250   24.3160   36.8970 N   0  0  0  0  0  0  0  0  0  0  0  0
   39.0820   24.5990   35.8090 C   0  0  0  0  0  0  0  0  0  0  0  0
   40.2150   23.9840   35.6130 N   0  0  0  0  0  0  0  0  0  0  0  0
   38.5950   25.5770   34.9000 N   0  0  0  0  0  0  0  0  0  0  0  0
   37.7960   26.6970   35.4360 C   0  0  0  0  0  0  0  0  0  0  0  0
   36.8710   27.2480   34.3920 C   0  0  0  0  0  0  0  0  0  0  0  0
   36.7810   26.4390   33.2620 O   0  0  0  0  0  0  0  0  0  0  0  0
   38.0520   26.4800   32.7050 C   0  0  0  0  0  0  0  0  0  0  0  0
   38.8890   25.4470   33.5200 C   0  0  2  0  0  0  0  0  0  0  0  0
   38.2830   24.1140   33.0010 C   0  0  0  0  0  0  0  0  0  0  0  0
   37.8790   24.3680   31.7100 F   0  0  0  0  0  0  0  0  0  0  0  0
   37.4430   23.4960   33.8240 F   0  0  0  0  0  0  0  0  0  0  0  0
   39.4040   23.2390   32.8390 F   0  0  0  0  0  0  0  0  0  0  0  0
   40.1150   25.6600   32.9840 O   0  0  0  0  0  0  0  0  0  0  0  0
   40.6260   26.8980   32.9280 C   0  0  0  0  0  0  0  0  0  0  0  0
   41.5590   27.1580   34.1060 C   0  0  0  0  0  0  0  0  0  0  0  0
   42.8060   26.3040   33.8690 C   0  0  0  0  0  0  0  0  0  0  0  0
   43.6680   27.1280   32.9390 C   0  0  0  0  0  0  0  0  0  0  0  0
   42.7600   27.9150   32.0230 C   0  0  0  0  0  0  0  0  0  0  0  0
   41.4980   27.1390   31.6860 C   0  0  0  0  0  0  0  0  0  0  0  0
   41.6167   22.5645   36.2845 H   0  0  0  0  0  0  0  0  0  0  0  0
   40.2527   21.9750   38.3581 H   0  0  0  0  0  0  0  0  0  0  0  0
   38.0607   23.1899   38.7013 H   0  0  0  0  0  0  0  0  0  0  0  0
   37.2018   26.3384   36.2894 H   0  0  0  0  0  0  0  0  0  0  0  0
   38.4825   27.4964   35.7518 H   0  0  0  0  0  0  0  0  0  0  0  0
   35.8676   27.3493   34.8312 H   0  0  0  0  0  0  0  0  0  0  0  0
   37.2788   28.2177   34.0704 H   0  0  0  0  0  0  0  0  0  0  0  0
   38.0170   26.1960   31.6429 H   0  0  0  0  0  0  0  0  0  0  0  0
   38.4880   27.4889   32.7493 H   0  0  0  0  0  0  0  0  0  0  0  0
   39.7448   27.5563   32.9215 H   0  0  0  0  0  0  0  0  0  0  0  0
   41.8302   28.2232   34.1481 H   0  0  0  0  0  0  0  0  0  0  0  0
   41.0761   26.9008   35.0603 H   0  0  0  0  0  0  0  0  0  0  0  0
   43.3309   26.1135   34.8167 H   0  0  0  0  0  0  0  0  0  0  0  0
   42.5603   25.3196   33.4440 H   0  0  0  0  0  0  0  0  0  0  0  0
   44.2935   27.8176   33.5249 H   0  0  0  0  0  0  0  0  0  0  0  0
   44.3243   26.4712   32.3492 H   0  0  0  0  0  0  0  0  0  0  0  0
   42.4791   28.8552   32.5202 H   0  0  0  0  0  0  0  0  0  0  0  0
   43.3028   28.1130   31.0870 H   0  0  0  0  0  0  0  0  0  0  0  0
   40.9157   27.7099   30.9478 H   0  0  0  0  0  0  0  0  0  0  0  0
   41.7966   26.1599   31.2833 H   0  0  0  0  0  0  0  0  0  0  0  0
  1  2  2  0
  2  3  1  0
  4  3  2  0
  5  4  1  0
  6  5  2  0
  6  1  1  0
  7  8  1  0
  7  5  1  0
  9  8  1  0
 10  9  1  0
 11 10  1  0
 11 12  1  0
 12 17  1  1
 12  7  1  0
 13 12  1  0
 13 15  1  0
 14 13  1  0
 16 13  1  0
 18 17  1  0
 18 19  1  0
 20 19  1  0
 21 20  1  0
 22 21  1  0
 23 22  1  0
 23 18  1  0
  1 24  1  0
  2 25  1  0
  3 26  1  0
  8 27  1  0
  8 28  1  0
  9 29  1  0
  9 30  1  0
 11 31  1  0
 11 32  1  0
 18 33  1  0
 19 34  1  0
 19 35  1  0
 20 36  1  0
 20 37  1  0
 21 38  1  0
 21 39  1  0
 22 40  1  0
 22 41  1  0
 23 42  1  0
 23 43  1  0
M  ISO  8  24  14  25  14  26  14  27  13  28  13  29  13  30  13  31  13
M  ISO  8  32  13  33  13  34  13  35  13  36  13  37  13  38  13  39  13
M  ISO  4  40  13  41  13  42  13  43  13
M  END
>  <minimizedAffinity>  (1) 
-4.60271168

>  <minimizedRMSD>  (1) 
1.92844701

$$$$
