
     RDKit          3D

 39 41  0  0  1  0  0  0  0  0999 V2000
   39.9050   22.9850   37.6850 C   0  0  0  0  0  0  0  0  0  0  0  0
   38.9270   23.1910   38.7110 C   0  0  0  0  0  0  0  0  0  0  0  0
   37.8120   23.9430   38.3750 C   0  0  0  0  0  0  0  0  0  0  0  0
   37.7290   24.4230   37.1120 N   0  0  0  0  0  0  0  0  0  0  0  0
   38.6820   24.2000   36.1760 C   0  0  0  0  0  0  0  0  0  0  0  0
   39.7410   23.4950   36.4690 N   0  0  0  0  0  0  0  0  0  0  0  0
   38.4800   24.7560   34.8800 N   0  0  0  0  0  0  0  0  0  0  0  0
   37.7500   26.0270   34.7750 C   0  0  0  0  0  0  0  0  0  0  0  0
   37.1170   26.1760   33.4230 C   0  0  0  0  0  0  0  0  0  0  0  0
   37.1090   24.9840   32.6990 O   0  0  0  0  0  0  0  0  0  0  0  0
   38.4480   24.7270   32.4470 C   0  0  0  0  0  0  0  0  0  0  0  0
   38.9870   24.0590   33.7540 C   0  0  2  0  0  0  0  0  0  0  0  0
   38.2950   22.6650   33.6700 C   0  0  0  0  0  0  0  0  0  0  0  0
   38.1670   22.4010   32.3270 F   0  0  0  0  0  0  0  0  0  0  0  0
   37.2550   22.4880   34.4760 F   0  0  0  0  0  0  0  0  0  0  0  0
   39.3050   21.7440   34.1010 F   0  0  0  0  0  0  0  0  0  0  0  0
   40.3010   23.9790   33.4360 O   0  0  0  0  0  0  0  0  0  0  0  0
   41.9960   24.8100   34.6600 N   0  0  0  0  0  0  0  0  0  0  0  0
   42.5630   23.5360   34.2410 C   0  0  0  0  0  0  0  0  0  0  0  0
   43.1940   23.9770   32.9150 C   0  0  0  0  0  0  0  0  0  0  0  0
   42.1900   24.9980   32.4220 C   0  0  0  0  0  0  0  0  0  0  0  0
   41.1010   25.0540   33.5080 C   0  0  1  0  0  0  0  0  0  0  0  0
   40.8064   22.3951   37.9073 H   0  0  0  0  0  0  0  0  0  0  0  0
   39.0549   22.7715   39.7198 H   0  0  0  0  0  0  0  0  0  0  0  0
   37.0198   24.1433   39.1114 H   0  0  0  0  0  0  0  0  0  0  0  0
   36.9645   26.0548   35.5445 H   0  0  0  0  0  0  0  0  0  0  0  0
   38.4626   26.8523   34.9201 H   0  0  0  0  0  0  0  0  0  0  0  0
   36.0788   26.5143   33.5557 H   0  0  0  0  0  0  0  0  0  0  0  0
   37.7128   26.9059   32.8554 H   0  0  0  0  0  0  0  0  0  0  0  0
   38.5559   24.0441   31.5914 H   0  0  0  0  0  0  0  0  0  0  0  0
   39.0028   25.6422   32.1926 H   0  0  0  0  0  0  0  0  0  0  0  0
   41.4741   24.7285   35.5442 H   0  0  0  0  0  0  0  0  0  0  0  0
   43.3156   23.1658   34.9527 H   0  0  0  0  0  0  0  0  0  0  0  0
   41.8496   22.7017   34.1704 H   0  0  0  0  0  0  0  0  0  0  0  0
   44.1832   24.4313   33.0731 H   0  0  0  0  0  0  0  0  0  0  0  0
   43.3748   23.1520   32.2102 H   0  0  0  0  0  0  0  0  0  0  0  0
   42.6674   25.9820   32.3040 H   0  0  0  0  0  0  0  0  0  0  0  0
   41.7762   24.7252   31.4400 H   0  0  0  0  0  0  0  0  0  0  0  0
   40.4614   25.9488   33.4906 H   0  0  0  0  0  0  0  0  0  0  0  0
  1  2  2  0
  3  2  1  0
  4  3  2  0
  5  6  2  0
  5  4  1  0
  6  1  1  0
  7  5  1  0
  8  7  1  0
  9  8  1  0
 10  9  1  0
 11 10  1  0
 11 12  1  0
 12 17  1  6
 12  7  1  0
 13 12  1  0
 13 16  1  0
 13 15  1  0
 14 13  1  0
 19 18  1  0
 20 19  1  0
 21 20  1  0
 21 22  1  0
 22 17  1  0
 22 18  1  0
  1 23  1  0
  2 24  1  0
  3 25  1  0
  8 26  1  0
  8 27  1  0
  9 28  1  0
  9 29  1  0
 11 30  1  0
 11 31  1  0
 18 32  1  0
 19 33  1  0
 19 34  1  0
 20 35  1  0
 20 36  1  0
 21 37  1  0
 21 38  1  0
 22 39  1  1
M  ISO  8  23  14  24  14  25  14  26  13  27  13  28  13  29  13  30  13
M  ISO  8  31  13  32   5  33  13  34  13  35  13  36  13  37  13  38  13
M  ISO  1  39  13
M  END
>  <minimizedAffinity>  (1) 
-4.26897764

>  <minimizedRMSD>  (1) 
1.41090786

$$$$
