
     RDKit          3D

 34 36  0  0  1  0  0  0  0  0999 V2000
   39.9350   23.0160   37.5760 C   0  0  0  0  0  0  0  0  0  0  0  0
   38.9380   23.1470   38.6080 C   0  0  0  0  0  0  0  0  0  0  0  0
   37.7860   23.8670   38.2910 C   0  0  0  0  0  0  0  0  0  0  0  0
   37.6920   24.3840   37.0460 N   0  0  0  0  0  0  0  0  0  0  0  0
   38.6640   24.2310   36.1040 C   0  0  0  0  0  0  0  0  0  0  0  0
   39.7580   23.5580   36.3780 N   0  0  0  0  0  0  0  0  0  0  0  0
   38.4370   24.8310   34.8220 N   0  0  0  0  0  0  0  0  0  0  0  0
   37.6600   26.0860   34.7830 C   0  0  0  0  0  0  0  0  0  0  0  0
   37.0360   26.2570   33.4200 C   0  0  0  0  0  0  0  0  0  0  0  0
   37.0750   25.1040   32.6580 O   0  0  0  0  0  0  0  0  0  0  0  0
   38.4290   24.9200   32.4060 C   0  0  0  0  0  0  0  0  0  0  0  0
   38.9750   24.1760   33.6850 C   0  0  2  0  0  0  0  0  0  0  0  0
   38.3350   22.7770   33.5380 C   0  0  0  0  0  0  0  0  0  0  0  0
   38.2470   22.5750   32.1780 F   0  0  0  0  0  0  0  0  0  0  0  0
   37.2820   22.5420   34.3210 F   0  0  0  0  0  0  0  0  0  0  0  0
   39.3730   21.8860   33.9550 F   0  0  0  0  0  0  0  0  0  0  0  0
   40.2970   24.2180   33.3790 O   0  0  0  0  0  0  0  0  0  0  0  0
   41.1530   25.1890   33.5030 C   0  0  0  0  0  0  0  0  0  0  0  0
   42.3760   24.7190   33.9190 C   0  0  0  0  0  0  0  0  0  0  0  0
   43.4860   25.4630   34.1460 C   0  0  0  0  0  0  0  0  0  0  0  0
   43.2940   26.9200   33.9030 C   0  0  0  0  0  0  0  0  0  0  0  0
   41.4760   27.0540   33.3560 S   0  0  0  0  0  0  0  0  0  0  0  0
   40.8590   22.4569   37.7850 H   0  0  0  0  0  0  0  0  0  0  0  0
   39.0791   22.6988   39.6026 H   0  0  0  0  0  0  0  0  0  0  0  0
   36.9823   24.0089   39.0286 H   0  0  0  0  0  0  0  0  0  0  0  0
   36.8680   26.0493   35.5455 H   0  0  0  0  0  0  0  0  0  0  0  0
   38.3296   26.9349   34.9856 H   0  0  0  0  0  0  0  0  0  0  0  0
   35.9853   26.5551   33.5507 H   0  0  0  0  0  0  0  0  0  0  0  0
   37.6176   27.0231   32.8863 H   0  0  0  0  0  0  0  0  0  0  0  0
   38.5763   24.3044   31.5063 H   0  0  0  0  0  0  0  0  0  0  0  0
   38.9516   25.8702   32.2216 H   0  0  0  0  0  0  0  0  0  0  0  0
   42.4621   23.6348   34.0835 H   0  0  0  0  0  0  0  0  0  0  0  0
   44.4410   25.0305   34.4791 H   0  0  0  0  0  0  0  0  0  0  0  0
   44.0307   27.7293   34.0138 H   0  0  0  0  0  0  0  0  0  0  0  0
  1  2  2  0
  3  2  1  0
  4  3  2  0
  5  6  2  0
  5  4  1  0
  6  1  1  0
  7  5  1  0
  8  7  1  0
  9  8  1  0
 10  9  1  0
 11 10  1  0
 11 12  1  0
 12 17  1  1
 12  7  1  0
 13 12  1  0
 13 16  1  0
 13 15  1  0
 14 13  1  0
 17 18  1  0
 18 19  2  0
 19 20  1  0
 21 20  2  0
 22 18  1  0
 22 21  1  0
  1 23  1  0
  2 24  1  0
  3 25  1  0
  8 26  1  0
  8 27  1  0
  9 28  1  0
  9 29  1  0
 11 30  1  0
 11 31  1  0
 19 32  1  0
 20 33  1  0
 21 34  1  0
M  ISO  8  23  14  24  14  25  14  26  13  27  13  28  13  29  13  30  13
M  ISO  4  31  13  32  14  33  14  34  14
M  END
>  <minimizedAffinity>  (1) 
-4.46261787

>  <minimizedRMSD>  (1) 
2.35647345

$$$$
