
     RDKit          3D

 33 34  0  0  1  0  0  0  0  0999 V2000
   39.9010   22.9670   37.6810 C   0  0  0  0  0  0  0  0  0  0  0  0
   38.9390   23.2010   38.7120 C   0  0  0  0  0  0  0  0  0  0  0  0
   37.8380   23.9680   38.3780 C   0  0  0  0  0  0  0  0  0  0  0  0
   37.7530   24.4370   37.1080 N   0  0  0  0  0  0  0  0  0  0  0  0
   38.6940   24.1860   36.1630 C   0  0  0  0  0  0  0  0  0  0  0  0
   39.7400   23.4650   36.4570 N   0  0  0  0  0  0  0  0  0  0  0  0
   38.4860   24.7300   34.8660 N   0  0  0  0  0  0  0  0  0  0  0  0
   37.7770   26.0250   34.7550 C   0  0  0  0  0  0  0  0  0  0  0  0
   37.1310   26.1590   33.4110 C   0  0  0  0  0  0  0  0  0  0  0  0
   37.0840   24.9620   32.7020 O   0  0  0  0  0  0  0  0  0  0  0  0
   38.4290   24.7000   32.4460 C   0  0  0  0  0  0  0  0  0  0  0  0
   38.9670   24.0020   33.7400 C   0  0  2  0  0  0  0  0  0  0  0  0
   38.2330   22.6310   33.6850 C   0  0  0  0  0  0  0  0  0  0  0  0
   38.0790   22.3700   32.3360 F   0  0  0  0  0  0  0  0  0  0  0  0
   37.2040   22.4840   34.5080 F   0  0  0  0  0  0  0  0  0  0  0  0
   39.2230   21.6820   34.1050 F   0  0  0  0  0  0  0  0  0  0  0  0
   40.2690   23.8810   33.4150 O   0  0  0  0  0  0  0  0  0  0  0  0
   41.0270   24.9060   33.0410 C   0  0  0  0  0  0  0  0  0  0  0  0
   42.0160   25.1710   34.2110 C   0  0  0  0  0  0  0  0  0  0  0  0
   40.7929   22.3629   37.9036 H   0  0  0  0  0  0  0  0  0  0  0  0
   39.0685   22.7900   39.7241 H   0  0  0  0  0  0  0  0  0  0  0  0
   37.0559   24.1908   39.1187 H   0  0  0  0  0  0  0  0  0  0  0  0
   37.0035   26.0816   35.5351 H   0  0  0  0  0  0  0  0  0  0  0  0
   38.5052   26.8398   34.8811 H   0  0  0  0  0  0  0  0  0  0  0  0
   36.1023   26.5219   33.5525 H   0  0  0  0  0  0  0  0  0  0  0  0
   37.7408   26.8619   32.8245 H   0  0  0  0  0  0  0  0  0  0  0  0
   38.5332   24.0337   31.5770 H   0  0  0  0  0  0  0  0  0  0  0  0
   38.9885   25.6177   32.2120 H   0  0  0  0  0  0  0  0  0  0  0  0
   41.5808   24.6550   32.1243 H   0  0  0  0  0  0  0  0  0  0  0  0
   40.4167   25.7955   32.8257 H   0  0  0  0  0  0  0  0  0  0  0  0
   41.4954   25.0315   35.1699 H   0  0  0  0  0  0  0  0  0  0  0  0
   42.8586   24.4670   34.1454 H   0  0  0  0  0  0  0  0  0  0  0  0
   42.3937   26.2020   34.1454 H   0  0  0  0  0  0  0  0  0  0  0  0
  1  2  2  0
  3  2  1  0
  4  3  2  0
  5  6  2  0
  5  4  1  0
  6  1  1  0
  7  5  1  0
  8  7  1  0
  9  8  1  0
 10  9  1  0
 11 10  1  0
 11 12  1  0
 12 17  1  6
 12  7  1  0
 13 12  1  0
 13 16  1  0
 13 15  1  0
 14 13  1  0
 18 17  1  0
 18 19  1  0
  1 20  1  0
  2 21  1  0
  3 22  1  0
  8 23  1  0
  8 24  1  0
  9 25  1  0
  9 26  1  0
 11 27  1  0
 11 28  1  0
 18 29  1  0
 18 30  1  0
 19 31  1  0
 19 32  1  0
 19 33  1  0
M  ISO  8  20  14  21  14  22  14  23  13  24  13  25  13  26  13  27  13
M  ISO  6  28  13  29   8  30   8  31   8  32   8  33   8
M  END
>  <minimizedAffinity>  (1) 
-4.04522562

>  <minimizedRMSD>  (1) 
0.154929921

$$$$
