
     RDKit          3D

 30 31  0  0  1  0  0  0  0  0999 V2000
   39.8880   22.9930   37.6450 C   0  0  0  0  0  0  0  0  0  0  0  0
   38.9080   23.2300   38.6640 C   0  0  0  0  0  0  0  0  0  0  0  0
   37.7940   23.9630   38.3040 C   0  0  0  0  0  0  0  0  0  0  0  0
   37.7050   24.4050   37.0240 N   0  0  0  0  0  0  0  0  0  0  0  0
   38.6630   24.1520   36.0930 C   0  0  0  0  0  0  0  0  0  0  0  0
   39.7260   23.4610   36.4110 N   0  0  0  0  0  0  0  0  0  0  0  0
   38.4540   24.6600   34.7830 N   0  0  0  0  0  0  0  0  0  0  0  0
   37.7170   25.9220   34.6330 C   0  0  0  0  0  0  0  0  0  0  0  0
   37.1090   26.0420   33.2640 C   0  0  0  0  0  0  0  0  0  0  0  0
   37.0840   24.8160   32.5950 O   0  0  0  0  0  0  0  0  0  0  0  0
   38.4270   24.5510   32.3490 C   0  0  0  0  0  0  0  0  0  0  0  0
   38.9600   23.9300   33.6780 C   0  0  2  0  0  0  0  0  0  0  0  0
   38.2720   22.5290   33.6430 C   0  0  0  0  0  0  0  0  0  0  0  0
   38.1460   22.2230   32.3110 F   0  0  0  0  0  0  0  0  0  0  0  0
   37.2310   22.3820   34.4550 F   0  0  0  0  0  0  0  0  0  0  0  0
   39.2830   21.6260   34.1050 F   0  0  0  0  0  0  0  0  0  0  0  0
   40.2840   23.8440   33.3710 O   0  0  0  0  0  0  0  0  0  0  0  0
   41.3000   24.7350   33.5400 C   0  0  0  0  0  0  0  0  0  0  0  0
   41.7450   25.3120   32.5220 O   0  0  0  0  0  0  0  0  0  0  0  0
   41.8120   24.9830   34.8000 O   0  0  0  0  0  0  0  0  0  0  0  0
   40.7906   22.4133   37.8884 H   0  0  0  0  0  0  0  0  0  0  0  0
   39.0373   22.8455   39.6865 H   0  0  0  0  0  0  0  0  0  0  0  0
   37.0012   24.1823   39.0343 H   0  0  0  0  0  0  0  0  0  0  0  0
   36.9154   25.9600   35.3853 H   0  0  0  0  0  0  0  0  0  0  0  0
   38.4228   26.7540   34.7727 H   0  0  0  0  0  0  0  0  0  0  0  0
   36.0784   26.4134   33.3641 H   0  0  0  0  0  0  0  0  0  0  0  0
   37.7265   26.7377   32.6769 H   0  0  0  0  0  0  0  0  0  0  0  0
   38.5356   23.8391   31.5175 H   0  0  0  0  0  0  0  0  0  0  0  0
   38.9829   25.4553   32.0606 H   0  0  0  0  0  0  0  0  0  0  0  0
   42.5506   25.6320   34.9152 H   0  0  0  0  0  0  0  0  0  0  0  0
  1  2  2  0
  3  2  1  0
  4  3  2  0
  5  6  2  0
  5  4  1  0
  6  1  1  0
  7  5  1  0
  8  7  1  0
  9  8  1  0
 10  9  1  0
 11 10  1  0
 11 12  1  0
 12 17  1  6
 12  7  1  0
 13 12  1  0
 13 16  1  0
 13 15  1  0
 14 13  1  0
 17 18  1  0
 18 20  1  0
 19 18  2  0
  1 21  1  0
  2 22  1  0
  3 23  1  0
  8 24  1  0
  8 25  1  0
  9 26  1  0
  9 27  1  0
 11 28  1  0
 11 29  1  0
 20 30  1  0
M  ISO  8  21  14  22  14  23  14  24  13  25  13  26  13  27  13  28  13
M  ISO  2  29  13  30   3
M  END
>  <minimizedAffinity>  (1) 
-4.14942026

>  <minimizedRMSD>  (1) 
0.478000402

$$$$
