
     RDKit          3D

 30 31  0  0  1  0  0  0  0  0999 V2000
   39.9050   22.9740   37.6830 C   0  0  0  0  0  0  0  0  0  0  0  0
   38.9320   23.1970   38.7120 C   0  0  0  0  0  0  0  0  0  0  0  0
   37.8260   23.9610   38.3760 C   0  0  0  0  0  0  0  0  0  0  0  0
   37.7450   24.4380   37.1070 N   0  0  0  0  0  0  0  0  0  0  0  0
   38.6970   24.1970   36.1670 C   0  0  0  0  0  0  0  0  0  0  0  0
   39.7470   23.4800   36.4630 N   0  0  0  0  0  0  0  0  0  0  0  0
   38.4920   24.7500   34.8730 N   0  0  0  0  0  0  0  0  0  0  0  0
   37.7730   26.0250   34.7570 C   0  0  0  0  0  0  0  0  0  0  0  0
   37.1210   26.1650   33.4160 C   0  0  0  0  0  0  0  0  0  0  0  0
   37.0960   24.9730   32.6970 O   0  0  0  0  0  0  0  0  0  0  0  0
   38.4420   24.7160   32.4470 C   0  0  0  0  0  0  0  0  0  0  0  0
   38.9920   24.0380   33.7450 C   0  0  2  0  0  0  0  0  0  0  0  0
   38.2650   22.6550   33.6780 C   0  0  0  0  0  0  0  0  0  0  0  0
   38.1230   22.3930   32.3330 F   0  0  0  0  0  0  0  0  0  0  0  0
   37.2330   22.4930   34.4940 F   0  0  0  0  0  0  0  0  0  0  0  0
   39.2580   21.7130   34.1040 F   0  0  0  0  0  0  0  0  0  0  0  0
   40.2740   23.9020   33.4210 O   0  0  0  0  0  0  0  0  0  0  0  0
   41.2810   24.6950   33.5870 C   0  0  0  0  0  0  0  0  0  0  0  0
   40.9140   25.9600   33.0450 F   0  0  0  0  0  0  0  0  0  0  0  0
   42.3550   24.3210   32.7600 F   0  0  0  0  0  0  0  0  0  0  0  0
   41.8160   25.0080   34.7900 F   0  0  0  0  0  0  0  0  0  0  0  0
   40.7989   22.3732   37.9065 H   0  0  0  0  0  0  0  0  0  0  0  0
   39.0578   22.7805   39.7223 H   0  0  0  0  0  0  0  0  0  0  0  0
   37.0385   24.1744   39.1137 H   0  0  0  0  0  0  0  0  0  0  0  0
   36.9994   26.0719   35.5376 H   0  0  0  0  0  0  0  0  0  0  0  0
   38.4983   26.8434   34.8763 H   0  0  0  0  0  0  0  0  0  0  0  0
   36.0861   26.5075   33.5633 H   0  0  0  0  0  0  0  0  0  0  0  0
   37.7135   26.8875   32.8355 H   0  0  0  0  0  0  0  0  0  0  0  0
   38.5499   24.0399   31.5860 H   0  0  0  0  0  0  0  0  0  0  0  0
   38.9930   25.6369   32.2054 H   0  0  0  0  0  0  0  0  0  0  0  0
  1  2  2  0
  3  2  1  0
  4  3  2  0
  5  6  2  0
  5  4  1  0
  6  1  1  0
  7  5  1  0
  8  7  1  0
  9  8  1  0
 10  9  1  0
 11 10  1  0
 11 12  1  0
 12 17  1  6
 12  7  1  0
 13 12  1  0
 13 16  1  0
 13 15  1  0
 14 13  1  0
 17 18  1  0
 18 21  1  0
 19 18  1  0
 20 18  1  0
  1 22  1  0
  2 23  1  0
  3 24  1  0
  8 25  1  0
  8 26  1  0
  9 27  1  0
  9 28  1  0
 11 29  1  0
 11 30  1  0
M  ISO  8  22  14  23  14  24  14  25  13  26  13  27  13  28  13  29  13
M  ISO  1  30  13
M  END
>  <minimizedAffinity>  (1) 
-4.22708416

>  <minimizedRMSD>  (1) 
0.392405659

$$$$
