
     RDKit          3D

 38 40  0  0  1  0  0  0  0  0999 V2000
   40.4420   23.2230   35.9420 C   0  0  0  0  0  0  0  0  0  0  0  0
   39.6370   22.7310   37.0220 C   0  0  0  0  0  0  0  0  0  0  0  0
   38.4600   23.4110   37.2950 C   0  0  0  0  0  0  0  0  0  0  0  0
   38.1580   24.4870   36.5250 N   0  0  0  0  0  0  0  0  0  0  0  0
   38.9580   24.9190   35.5060 C   0  0  0  0  0  0  0  0  0  0  0  0
   40.0640   24.2920   35.2380 N   0  0  0  0  0  0  0  0  0  0  0  0
   38.5230   26.0570   34.7770 N   0  0  0  0  0  0  0  0  0  0  0  0
   37.7370   27.0900   35.4800 C   0  0  0  0  0  0  0  0  0  0  0  0
   36.8580   27.8190   34.5340 C   0  0  0  0  0  0  0  0  0  0  0  0
   36.8100   27.2600   33.2440 O   0  0  0  0  0  0  0  0  0  0  0  0
   38.1070   27.3580   32.8050 C   0  0  1  0  0  0  0  0  0  0  0  0
   38.8660   26.1590   33.3850 C   0  0  2  0  0  0  0  0  0  0  0  0
   38.3310   27.6340   31.3990 C   0  0  0  0  0  0  0  0  0  0  0  0
   37.1710   28.2390   30.8960 C   0  0  0  0  0  0  0  0  0  0  0  0
   37.0800   28.6490   29.5620 C   0  0  0  0  0  0  0  0  0  0  0  0
   38.1560   28.4470   28.7430 N   0  0  0  0  0  0  0  0  0  0  0  0
   39.2630   27.8540   29.2760 C   0  0  0  0  0  0  0  0  0  0  0  0
   39.3230   27.4710   30.5590 N   0  0  0  0  0  0  0  0  0  0  0  0
   38.2110   24.9510   32.6600 C   0  0  0  0  0  0  0  0  0  0  0  0
   37.9440   25.3840   31.4010 F   0  0  0  0  0  0  0  0  0  0  0  0
   37.2520   24.2980   33.3190 F   0  0  0  0  0  0  0  0  0  0  0  0
   39.2720   24.0040   32.4820 F   0  0  0  0  0  0  0  0  0  0  0  0
   40.0910   26.3710   32.9190 O   0  0  0  0  0  0  0  0  0  0  0  0
   41.1520   26.8350   33.4870 C   0  0  0  0  0  0  0  0  0  0  0  0
   41.5720   27.9710   32.7620 F   0  0  0  0  0  0  0  0  0  0  0  0
   42.2320   25.9500   33.3190 F   0  0  0  0  0  0  0  0  0  0  0  0
   41.2110   27.2770   34.7700 F   0  0  0  0  0  0  0  0  0  0  0  0
   41.3834   22.7126   35.6905 H   0  0  0  0  0  0  0  0  0  0  0  0
   39.9404   21.8515   37.6089 H   0  0  0  0  0  0  0  0  0  0  0  0
   37.7932   23.0891   38.1085 H   0  0  0  0  0  0  0  0  0  0  0  0
   37.1167   26.6087   36.2505 H   0  0  0  0  0  0  0  0  0  0  0  0
   38.4314   27.8083   35.9403 H   0  0  0  0  0  0  0  0  0  0  0  0
   35.8379   27.8249   34.9456 H   0  0  0  0  0  0  0  0  0  0  0  0
   37.2795   28.8292   34.4253 H   0  0  0  0  0  0  0  0  0  0  0  0
   38.5260   28.2993   33.1902 H   0  0  0  0  0  0  0  0  0  0  0  0
   36.3125   28.3949   31.5659 H   0  0  0  0  0  0  0  0  0  0  0  0
   36.1637   29.1231   29.1804 H   0  0  0  0  0  0  0  0  0  0  0  0
   40.1371   27.6842   28.6301 H   0  0  0  0  0  0  0  0  0  0  0  0
  1  2  2  0
  2  3  1  0
  4  3  2  0
  5  4  1  0
  6  5  2  0
  6  1  1  0
  7  8  1  0
  7  5  1  0
  9  8  1  0
 10  9  1  0
 11 10  1  0
 11 12  1  0
 12 23  1  1
 12  7  1  0
 13 11  1  0
 14 13  2  0
 15 14  1  0
 16 17  1  0
 16 15  2  0
 17 18  2  0
 18 13  1  0
 19 21  1  0
 19 12  1  0
 20 19  1  0
 22 19  1  0
 23 24  1  0
 24 27  1  0
 25 24  1  0
 26 24  1  0
  1 28  1  0
  2 29  1  0
  3 30  1  0
  8 31  1  0
  8 32  1  0
  9 33  1  0
  9 34  1  0
 11 35  1  1
 14 36  1  0
 15 37  1  0
 17 38  1  0
M  ISO  8  28  14  29  14  30  14  31  13  32  13  33  13  34  13  35  13
M  ISO  3  36  14  37  14  38  14
M  END
>  <minimizedAffinity>  (1) 
-5.16549063

>  <minimizedRMSD>  (1) 
2.88971353

$$$$
