
     RDKit          3D

 44 48  0  0  0  0  0  0  0  0999 V2000
   38.7170   23.7520   37.0620 C   0  0  0  0  0  0  0  0  0  0  0  0
   39.9770   23.1620   36.9510 C   0  0  0  0  0  0  0  0  0  0  0  0
   40.7930   23.5610   35.8510 C   0  0  0  0  0  0  0  0  0  0  0  0
   40.2980   24.4780   34.9930 N   0  0  0  0  0  0  0  0  0  0  0  0
   39.0840   25.0220   35.1330 C   0  0  0  0  0  0  0  0  0  0  0  0
   38.2930   24.6640   36.1610 N   0  0  0  0  0  0  0  0  0  0  0  0
   38.5160   25.9900   34.2560 N   0  0  0  0  0  0  0  0  0  0  0  0
   37.5000   26.8120   34.5010 C   0  0  0  0  0  0  0  0  0  0  0  0
   37.0900   27.6800   33.5230 C   0  0  0  0  0  0  0  0  0  0  0  0
   37.7010   27.7200   32.3100 C   0  0  0  0  0  0  0  0  0  0  0  0
   37.3400   28.5100   31.3980 O   0  0  0  0  0  0  0  0  0  0  0  0
   38.7230   26.8870   32.0820 N   0  0  0  0  0  0  0  0  0  0  0  0
   39.1330   26.0270   33.0400 C   0  0  0  0  0  0  0  0  0  0  0  0
   40.1240   25.2770   32.7000 O   0  0  0  0  0  0  0  0  0  0  0  0
   39.3520   26.9270   30.7990 C   0  0  0  0  0  0  0  0  0  0  0  0
   40.4040   26.1380   30.4890 N   0  0  0  0  0  0  0  0  0  0  0  0
   40.7760   26.3540   29.2710 O   0  0  0  0  0  0  0  0  0  0  0  0
   39.9690   27.2760   28.8040 C   0  0  0  0  0  0  0  0  0  0  0  0
   39.0870   27.6390   29.7320 N   0  0  0  0  0  0  0  0  0  0  0  0
   40.1900   27.6960   27.4280 C   0  0  0  0  0  0  0  0  0  0  0  0
   40.3120   26.7910   26.3960 C   0  0  0  0  0  0  0  0  0  0  0  0
   40.5220   27.1340   25.0760 C   0  0  0  0  0  0  0  0  0  0  0  0
   40.6230   28.4480   24.7160 C   0  0  0  0  0  0  0  0  0  0  0  0
   40.5090   29.3960   25.6970 C   0  0  0  0  0  0  0  0  0  0  0  0
   40.6120   30.7210   25.3330 C   0  0  0  0  0  0  0  0  0  0  0  0
   40.5090   31.7320   26.2630 C   0  0  0  0  0  0  0  0  0  0  0  0
   40.2970   31.3590   27.5950 C   0  0  0  0  0  0  0  0  0  0  0  0
   40.2030   30.0220   27.8970 C   0  0  0  0  0  0  0  0  0  0  0  0
   40.3010   28.9970   26.9960 C   0  0  0  0  0  0  0  0  0  0  0  0
   37.8410   23.3520   38.2050 C   0  0  0  0  0  0  0  0  0  0  0  0
   38.5270   22.6390   39.1680 F   0  0  0  0  0  0  0  0  0  0  0  0
   37.3260   24.4860   38.8160 F   0  0  0  0  0  0  0  0  0  0  0  0
   36.7710   22.6020   37.7090 F   0  0  0  0  0  0  0  0  0  0  0  0
   40.3269   22.4189   37.6826 H   0  0  0  0  0  0  0  0  0  0  0  0
   41.7963   23.1339   35.7062 H   0  0  0  0  0  0  0  0  0  0  0  0
   36.9943   26.7955   35.4777 H   0  0  0  0  0  0  0  0  0  0  0  0
   36.2482   28.3589   33.7243 H   0  0  0  0  0  0  0  0  0  0  0  0
   40.2368   25.7214   26.6414 H   0  0  0  0  0  0  0  0  0  0  0  0
   40.6083   26.3475   24.3118 H   0  0  0  0  0  0  0  0  0  0  0  0
   40.7911   28.7360   23.6678 H   0  0  0  0  0  0  0  0  0  0  0  0
   40.7802   30.9771   24.2765 H   0  0  0  0  0  0  0  0  0  0  0  0
   40.5901   32.7893   25.9705 H   0  0  0  0  0  0  0  0  0  0  0  0
   40.2075   32.1204   28.3838 H   0  0  0  0  0  0  0  0  0  0  0  0
   40.0350   29.7534   28.9504 H   0  0  0  0  0  0  0  0  0  0  0  0
  1 30  1  0
  2  1  2  0
  3  2  1  0
  4  5  1  0
  4  3  2  0
  5  6  2  0
  6  1  1  0
  7  8  1  0
  7  5  1  0
  9  8  2  0
 10  9  1  0
 11 10  2  0
 12 10  1  0
 12 13  1  0
 13  7  1  0
 14 13  2  0
 15 12  1  0
 16 15  2  0
 17 16  1  0
 18 17  1  0
 18 19  2  0
 19 15  1  0
 20 18  1  0
 21 20  2  0
 22 21  1  0
 23 22  2  0
 23 24  1  0
 24 29  2  0
 25 24  1  0
 25 26  2  0
 26 27  1  0
 27 28  2  0
 29 20  1  0
 29 28  1  0
 30 32  1  0
 30 31  1  0
 33 30  1  0
  2 34  1  0
  3 35  1  0
  8 36  1  0
  9 37  1  0
 21 38  1  0
 22 39  1  0
 23 40  1  0
 25 41  1  0
 26 42  1  0
 27 43  1  0
 28 44  1  0
M  ISO  8  34  14  35  14  36  14  37  14  38  14  39  14  40  14  41  14
M  ISO  3  42  14  43  14  44  14
M  END
>  <minimizedAffinity>  (1) 
-6.2215662

>  <minimizedRMSD>  (1) 
2.1496911

$$$$
