
     RDKit          3D

 43 45  0  0  1  0  0  0  0  0999 V2000
   40.3720   23.0650   35.9950 C   0  0  0  0  0  0  0  0  0  0  0  0
   39.5150   22.5450   37.0100 C   0  0  0  0  0  0  0  0  0  0  0  0
   38.3470   23.2410   37.2550 C   0  0  0  0  0  0  0  0  0  0  0  0
   38.1050   24.3550   36.5210 N   0  0  0  0  0  0  0  0  0  0  0  0
   38.9540   24.8120   35.5630 C   0  0  0  0  0  0  0  0  0  0  0  0
   40.0610   24.1710   35.3150 N   0  0  0  0  0  0  0  0  0  0  0  0
   38.5900   25.9880   34.8650 N   0  0  0  0  0  0  0  0  0  0  0  0
   37.8000   27.0050   35.5710 C   0  0  0  0  0  0  0  0  0  0  0  0
   36.9870   27.8160   34.6250 C   0  0  0  0  0  0  0  0  0  0  0  0
   36.9590   27.2880   33.3260 O   0  0  0  0  0  0  0  0  0  0  0  0
   38.2910   27.3740   32.9010 C   0  0  1  0  0  0  0  0  0  0  0  0
   38.9950   26.1560   33.4990 C   0  0  2  0  0  0  0  0  0  0  0  0
   38.3110   27.5560   31.5370 N   0  0  0  0  0  0  0  0  0  0  0  0
   39.4390   27.7160   30.7510 C   0  0  0  0  0  0  0  0  0  0  0  0
   39.0450   27.5900   29.2900 C   0  0  0  0  0  0  0  0  0  0  0  0
   38.0650   28.4600   28.8920 O   0  0  0  0  0  0  0  0  0  0  0  0
   36.9170   28.3840   29.6770 C   0  0  0  0  0  0  0  0  0  0  0  0
   37.2640   28.4630   31.1230 C   0  0  0  0  0  0  0  0  0  0  0  0
   38.3450   24.9780   32.6910 C   0  0  0  0  0  0  0  0  0  0  0  0
   39.3280   24.0630   32.5210 F   0  0  0  0  0  0  0  0  0  0  0  0
   37.5970   25.3040   31.6440 F   0  0  0  0  0  0  0  0  0  0  0  0
   37.4630   24.3320   33.6220 F   0  0  0  0  0  0  0  0  0  0  0  0
   40.2410   26.3450   33.1060 O   0  0  0  0  0  0  0  0  0  0  0  0
   41.2630   26.8460   33.7040 C   0  0  0  0  0  0  0  0  0  0  0  0
   40.8170   27.3780   34.9340 F   0  0  0  0  0  0  0  0  0  0  0  0
   41.7450   27.9860   33.0430 F   0  0  0  0  0  0  0  0  0  0  0  0
   42.3580   26.1380   34.0630 F   0  0  0  0  0  0  0  0  0  0  0  0
   41.3123   22.5417   35.7670 H   0  0  0  0  0  0  0  0  0  0  0  0
   39.7717   21.6340   37.5705 H   0  0  0  0  0  0  0  0  0  0  0  0
   37.6352   22.9018   38.0220 H   0  0  0  0  0  0  0  0  0  0  0  0
   37.1270   26.5046   36.2828 H   0  0  0  0  0  0  0  0  0  0  0  0
   38.4935   27.6784   36.0959 H   0  0  0  0  0  0  0  0  0  0  0  0
   35.9557   27.8656   35.0043 H   0  0  0  0  0  0  0  0  0  0  0  0
   37.4534   28.8103   34.5632 H   0  0  0  0  0  0  0  0  0  0  0  0
   38.8616   28.2446   33.2566 H   0  0  0  0  0  0  0  0  0  0  0  0
   39.8760   28.7093   30.9308 H   0  0  0  0  0  0  0  0  0  0  0  0
   40.1809   26.9442   31.0039 H   0  0  0  0  0  0  0  0  0  0  0  0
   39.9386   27.7737   28.6754 H   0  0  0  0  0  0  0  0  0  0  0  0
   38.6371   26.5766   29.1608 H   0  0  0  0  0  0  0  0  0  0  0  0
   36.2475   29.2181   29.4199 H   0  0  0  0  0  0  0  0  0  0  0  0
   36.4188   27.4224   29.4841 H   0  0  0  0  0  0  0  0  0  0  0  0
   37.5919   29.4898   31.3424 H   0  0  0  0  0  0  0  0  0  0  0  0
   36.3601   28.1731   31.6788 H   0  0  0  0  0  0  0  0  0  0  0  0
  1  2  2  0
  2  3  1  0
  4  3  2  0
  5  4  1  0
  6  5  2  0
  6  1  1  0
  7  5  1  0
  7  8  1  0
  9  8  1  0
 10  9  1  0
 11 10  1  0
 11 12  1  0
 12 23  1  1
 12  7  1  0
 13 11  1  0
 14 13  1  0
 15 14  1  0
 16 15  1  0
 16 17  1  0
 17 18  1  0
 18 13  1  0
 19 12  1  0
 19 22  1  0
 20 19  1  0
 21 19  1  0
 23 24  1  0
 24 27  1  0
 24 25  1  0
 26 24  1  0
  1 28  1  0
  2 29  1  0
  3 30  1  0
  8 31  1  0
  8 32  1  0
  9 33  1  0
  9 34  1  0
 11 35  1  1
 14 36  1  0
 14 37  1  0
 15 38  1  0
 15 39  1  0
 17 40  1  0
 17 41  1  0
 18 42  1  0
 18 43  1  0
M  ISO  8  28  14  29  14  30  14  31  13  32  13  33  13  34  13  35  13
M  ISO  8  36  13  37  13  38  13  39  13  40  13  41  13  42  13  43  13
M  END
>  <minimizedAffinity>  (1) 
-5.04722595

>  <minimizedRMSD>  (1) 
3.16837645

$$$$
