
     RDKit          3D

 41 43  0  0  1  0  0  0  0  0999 V2000
   39.8210   23.0570   37.7100 C   0  0  0  0  0  0  0  0  0  0  0  0
   38.7330   22.9310   38.6320 C   0  0  0  0  0  0  0  0  0  0  0  0
   37.5610   23.5810   38.3050 C   0  0  0  0  0  0  0  0  0  0  0  0
   37.5270   24.2820   37.1450 N   0  0  0  0  0  0  0  0  0  0  0  0
   38.5910   24.3720   36.2970 C   0  0  0  0  0  0  0  0  0  0  0  0
   39.7030   23.7680   36.5890 N   0  0  0  0  0  0  0  0  0  0  0  0
   38.4340   25.1360   35.1080 N   0  0  0  0  0  0  0  0  0  0  0  0
   37.5350   26.3050   35.1530 C   0  0  0  0  0  0  0  0  0  0  0  0
   36.9760   26.5970   33.8050 C   0  0  0  0  0  0  0  0  0  0  0  0
   37.2280   25.5880   32.8900 O   0  0  0  0  0  0  0  0  0  0  0  0
   38.6320   25.5860   32.7580 C   0  0  1  0  0  0  0  0  0  0  0  0
   39.1390   24.7540   33.9230 C   0  0  2  0  0  0  0  0  0  0  0  0
   38.9320   25.2640   31.4410 N   0  0  0  0  0  0  0  0  0  0  0  0
   38.5260   24.2240   30.6650 C   0  0  0  0  0  0  0  0  0  0  0  0
   38.8840   23.9650   29.3610 C   0  0  0  0  0  0  0  0  0  0  0  0
   39.7470   24.8360   28.7420 C   0  0  0  0  0  0  0  0  0  0  0  0
   40.1240   24.5830   27.4000 N   0  0  0  0  0  0  0  0  0  0  0  0
   40.1800   25.8700   29.4460 N   0  0  0  0  0  0  0  0  0  0  0  0
   39.7920   26.0550   30.6970 C   0  0  0  0  0  0  0  0  0  0  0  0
   40.2910   27.0960   31.2500 O   0  0  0  0  0  0  0  0  0  0  0  0
   38.6720   23.3160   33.5560 C   0  0  0  0  0  0  0  0  0  0  0  0
   37.4360   23.4730   33.0290 F   0  0  0  0  0  0  0  0  0  0  0  0
   38.8580   22.3640   34.4660 F   0  0  0  0  0  0  0  0  0  0  0  0
   39.4600   22.9360   32.4180 F   0  0  0  0  0  0  0  0  0  0  0  0
   40.4620   24.8630   33.7920 O   0  0  0  0  0  0  0  0  0  0  0  0
   41.3020   25.7420   34.2380 C   0  0  0  0  0  0  0  0  0  0  0  0
   42.2760   25.9470   33.2360 F   0  0  0  0  0  0  0  0  0  0  0  0
   42.0720   25.2090   35.2850 F   0  0  0  0  0  0  0  0  0  0  0  0
   40.9770   26.9940   34.6090 F   0  0  0  0  0  0  0  0  0  0  0  0
   40.7749   22.5561   37.9317 H   0  0  0  0  0  0  0  0  0  0  0  0
   38.8271   22.3437   39.5573 H   0  0  0  0  0  0  0  0  0  0  0  0
   36.6820   23.5321   38.9645 H   0  0  0  0  0  0  0  0  0  0  0  0
   36.7084   26.0972   35.8484 H   0  0  0  0  0  0  0  0  0  0  0  0
   38.1112   27.1788   35.4914 H   0  0  0  0  0  0  0  0  0  0  0  0
   35.8873   26.7252   33.8961 H   0  0  0  0  0  0  0  0  0  0  0  0
   37.4644   27.5102   33.4343 H   0  0  0  0  0  0  0  0  0  0  0  0
   39.1761   26.5360   32.8651 H   0  0  0  0  0  0  0  0  0  0  0  0
   37.8331   23.5085   31.1318 H   0  0  0  0  0  0  0  0  0  0  0  0
   38.4902   23.0857   28.8301 H   0  0  0  0  0  0  0  0  0  0  0  0
   40.7701   25.2235   26.9171 H   0  0  0  0  0  0  0  0  0  0  0  0
   39.7520   23.7585   26.9073 H   0  0  0  0  0  0  0  0  0  0  0  0
  1  2  2  0
  3  2  1  0
  4  3  2  0
  5  6  2  0
  5  4  1  0
  6  1  1  0
  7  8  1  0
  7  5  1  0
  9  8  1  0
 10  9  1  0
 11 10  1  0
 11 12  1  0
 12 25  1  1
 12  7  1  0
 13 11  1  0
 14 13  1  0
 15 14  2  0
 16 15  1  0
 16 18  2  0
 17 16  1  0
 18 19  1  0
 19 20  2  0
 19 13  1  0
 21 12  1  0
 21 23  1  0
 22 21  1  0
 24 21  1  0
 25 26  1  0
 26 29  1  0
 26 28  1  0
 27 26  1  0
  1 30  1  0
  2 31  1  0
  3 32  1  0
  8 33  1  0
  8 34  1  0
  9 35  1  0
  9 36  1  0
 11 37  1  1
 14 38  1  0
 15 39  1  0
 17 40  1  0
 17 41  1  0
M  ISO  8  30  14  31  14  32  14  33  13  34  13  35  13  36  13  37  13
M  ISO  2  38  14  39  14
M  END
>  <minimizedAffinity>  (1) 
-4.98236561

>  <minimizedRMSD>  (1) 
1.57092118

$$$$
