
     RDKit          3D

 44 47  0  0  0  0  0  0  0  0999 V2000
   38.6480   24.0570   36.8450 C   0  0  0  0  0  0  0  0  0  0  0  0
   39.8950   23.5470   36.4520 C   0  0  0  0  0  0  0  0  0  0  0  0
   40.4990   24.1080   35.2920 C   0  0  0  0  0  0  0  0  0  0  0  0
   39.8400   25.0910   34.6450 N   0  0  0  0  0  0  0  0  0  0  0  0
   38.6430   25.5570   35.0530 C   0  0  0  0  0  0  0  0  0  0  0  0
   38.0550   25.0450   36.1420 N   0  0  0  0  0  0  0  0  0  0  0  0
   37.9150   26.5920   34.3960 N   0  0  0  0  0  0  0  0  0  0  0  0
   36.9150   27.3210   34.9040 C   0  0  0  0  0  0  0  0  0  0  0  0
   36.3200   28.2870   34.1200 C   0  0  0  0  0  0  0  0  0  0  0  0
   36.7430   28.4940   32.8540 C   0  0  0  0  0  0  0  0  0  0  0  0
   36.2090   29.3670   32.1300 O   0  0  0  0  0  0  0  0  0  0  0  0
   37.7570   27.7460   32.3560 N   0  0  0  0  0  0  0  0  0  0  0  0
   38.3280   26.8110   33.1270 C   0  0  0  0  0  0  0  0  0  0  0  0
   39.2670   26.1740   32.5510 O   0  0  0  0  0  0  0  0  0  0  0  0
   38.1750   28.0060   31.0260 C   0  0  0  0  0  0  0  0  0  0  0  0
   39.2200   27.3590   30.4640 N   0  0  0  0  0  0  0  0  0  0  0  0
   39.4170   27.7700   29.2470 O   0  0  0  0  0  0  0  0  0  0  0  0
   38.4890   28.6890   29.0240 C   0  0  0  0  0  0  0  0  0  0  0  0
   37.7090   28.8490   30.1190 N   0  0  0  0  0  0  0  0  0  0  0  0
   38.2590   29.4840   27.7860 C   0  0  0  0  0  0  0  0  0  0  0  0
   37.5430   30.7320   28.1710 C   0  0  0  0  0  0  0  0  0  0  0  0
   37.8320   31.9360   27.3450 C   0  0  0  0  0  0  0  0  0  0  0  0
   39.2650   32.0870   26.9290 C   0  0  0  0  0  0  0  0  0  0  0  0
   39.6010   30.8150   26.1400 C   0  0  0  0  0  0  0  0  0  0  0  0
   39.6100   29.7000   27.1550 C   0  0  0  0  0  0  0  0  0  0  0  0
   37.9820   23.4960   38.0580 C   0  0  0  0  0  0  0  0  0  0  0  0
   38.8770   22.8020   38.8600 F   0  0  0  0  0  0  0  0  0  0  0  0
   37.4520   24.5100   38.8140 F   0  0  0  0  0  0  0  0  0  0  0  0
   36.9580   22.6400   37.6410 F   0  0  0  0  0  0  0  0  0  0  0  0
   40.3872   22.7435   37.0195 H   0  0  0  0  0  0  0  0  0  0  0  0
   41.4754   23.7502   34.9333 H   0  0  0  0  0  0  0  0  0  0  0  0
   36.5713   27.1519   35.9351 H   0  0  0  0  0  0  0  0  0  0  0  0
   35.4968   28.8920   34.5277 H   0  0  0  0  0  0  0  0  0  0  0  0
   37.6238   28.9858   27.0388 H   0  0  0  0  0  0  0  0  0  0  0  0
   36.4631   30.5327   28.1076 H   0  0  0  0  0  0  0  0  0  0  0  0
   37.8994   30.9761   29.1826 H   0  0  0  0  0  0  0  0  0  0  0  0
   37.2159   31.8823   26.4353 H   0  0  0  0  0  0  0  0  0  0  0  0
   37.6007   32.8064   27.9766 H   0  0  0  0  0  0  0  0  0  0  0  0
   39.3890   32.9767   26.2942 H   0  0  0  0  0  0  0  0  0  0  0  0
   39.9294   32.2159   27.7961 H   0  0  0  0  0  0  0  0  0  0  0  0
   38.8379   30.6276   25.3702 H   0  0  0  0  0  0  0  0  0  0  0  0
   40.5668   30.9009   25.6206 H   0  0  0  0  0  0  0  0  0  0  0  0
   39.9186   28.7701   26.6550 H   0  0  0  0  0  0  0  0  0  0  0  0
   40.3114   29.9810   27.9544 H   0  0  0  0  0  0  0  0  0  0  0  0
  1 26  1  0
  2  1  2  0
  3  2  1  0
  4  5  1  0
  4  3  2  0
  5  6  2  0
  6  1  1  0
  7  8  1  0
  7  5  1  0
  9  8  2  0
 10  9  1  0
 11 10  2  0
 12 10  1  0
 12 13  1  0
 13  7  1  0
 14 13  2  0
 15 12  1  0
 16 15  2  0
 17 16  1  0
 18 17  1  0
 18 19  2  0
 19 15  1  0
 20 21  1  0
 20 18  1  0
 22 21  1  0
 23 22  1  0
 24 23  1  0
 24 25  1  0
 25 20  1  0
 26 28  1  0
 26 27  1  0
 29 26  1  0
  2 30  1  0
  3 31  1  0
  8 32  1  0
  9 33  1  0
 20 34  1  0
 21 35  1  0
 21 36  1  0
 22 37  1  0
 22 38  1  0
 23 39  1  0
 23 40  1  0
 24 41  1  0
 24 42  1  0
 25 43  1  0
 25 44  1  0
M  ISO  8  30  14  31  14  32  14  33  14  34  13  35  13  36  13  37  13
M  ISO  7  38  13  39  13  40  13  41  13  42  13  43  13  44  13
M  END
>  <minimizedAffinity>  (1) 
-6.20555305

>  <minimizedRMSD>  (1) 
0.890494347

$$$$
