
     RDKit          3D

 42 44  0  0  1  0  0  0  0  0999 V2000
   40.7620   22.7620   36.0900 C   0  0  0  0  0  0  0  0  0  0  0  0
   40.0750   22.3320   37.2730 C   0  0  0  0  0  0  0  0  0  0  0  0
   39.0200   23.1180   37.7060 C   0  0  0  0  0  0  0  0  0  0  0  0
   38.7180   24.2280   36.9850 N   0  0  0  0  0  0  0  0  0  0  0  0
   39.4070   24.5910   35.8640 C   0  0  0  0  0  0  0  0  0  0  0  0
   40.3980   23.8680   35.4410 N   0  0  0  0  0  0  0  0  0  0  0  0
   38.9950   25.7730   35.1970 N   0  0  0  0  0  0  0  0  0  0  0  0
   38.4210   26.8720   35.9970 C   0  0  0  0  0  0  0  0  0  0  0  0
   37.4960   27.7040   35.1880 C   0  0  0  0  0  0  0  0  0  0  0  0
   37.1990   27.1560   33.9280 O   0  0  0  0  0  0  0  0  0  0  0  0
   38.4200   27.1250   33.2810 C   0  0  1  0  0  0  0  0  0  0  0  0
   39.1440   25.8700   33.7780 C   0  0  2  0  0  0  0  0  0  0  0  0
   38.2870   27.2690   31.9020 N   0  0  0  0  0  0  0  0  0  0  0  0
   39.2870   27.8240   31.1020 C   0  0  0  0  0  0  0  0  0  0  0  0
   38.5750   27.8570   29.7390 C   0  0  0  0  0  0  0  0  0  0  0  0
   37.1010   27.9970   30.0470 C   0  0  0  0  0  0  0  0  0  0  0  0
   37.0810   27.9670   31.5720 C   0  0  0  0  0  0  0  0  0  0  0  0
   38.2710   24.7260   33.1510 C   0  0  0  0  0  0  0  0  0  0  0  0
   38.0260   25.1060   31.8740 F   0  0  0  0  0  0  0  0  0  0  0  0
   37.2500   24.2810   33.8820 F   0  0  0  0  0  0  0  0  0  0  0  0
   39.1590   23.6180   32.9970 F   0  0  0  0  0  0  0  0  0  0  0  0
   40.2980   25.9520   33.1410 O   0  0  0  0  0  0  0  0  0  0  0  0
   41.4310   26.4610   33.4890 C   0  0  0  0  0  0  0  0  0  0  0  0
   41.2380   27.8470   33.6910 F   0  0  0  0  0  0  0  0  0  0  0  0
   42.3550   26.4250   32.4380 F   0  0  0  0  0  0  0  0  0  0  0  0
   42.1160   26.1000   34.6030 F   0  0  0  0  0  0  0  0  0  0  0  0
   41.6061   22.1674   35.7106 H   0  0  0  0  0  0  0  0  0  0  0  0
   40.3722   21.4201   37.8116 H   0  0  0  0  0  0  0  0  0  0  0  0
   38.4452   22.8514   38.6052 H   0  0  0  0  0  0  0  0  0  0  0  0
   37.8682   26.4453   36.8469 H   0  0  0  0  0  0  0  0  0  0  0  0
   39.2443   27.5112   36.3486 H   0  0  0  0  0  0  0  0  0  0  0  0
   36.5555   27.8209   35.7464 H   0  0  0  0  0  0  0  0  0  0  0  0
   38.0004   28.6652   35.0099 H   0  0  0  0  0  0  0  0  0  0  0  0
   39.0520   27.9909   33.5276 H   0  0  0  0  0  0  0  0  0  0  0  0
   39.5628   28.8338   31.4399 H   0  0  0  0  0  0  0  0  0  0  0  0
   40.2371   27.2697   31.1079 H   0  0  0  0  0  0  0  0  0  0  0  0
   38.7638   26.9253   29.1856 H   0  0  0  0  0  0  0  0  0  0  0  0
   38.9380   28.6852   29.1127 H   0  0  0  0  0  0  0  0  0  0  0  0
   36.7026   28.9474   29.6624 H   0  0  0  0  0  0  0  0  0  0  0  0
   36.4791   27.2169   29.5838 H   0  0  0  0  0  0  0  0  0  0  0  0
   37.0890   28.9858   31.9866 H   0  0  0  0  0  0  0  0  0  0  0  0
   36.1797   27.4880   31.9820 H   0  0  0  0  0  0  0  0  0  0  0  0
  1  2  2  0
  2  3  1  0
  4  3  2  0
  5  4  1  0
  6  5  2  0
  6  1  1  0
  7  5  1  0
  7  8  1  0
  9  8  1  0
 10  9  1  0
 11 12  1  0
 11 10  1  0
 12 22  1  1
 12  7  1  0
 13 14  1  0
 13 11  1  0
 15 16  1  0
 15 14  1  0
 16 17  1  0
 17 13  1  0
 18 12  1  0
 18 20  1  0
 19 18  1  0
 21 18  1  0
 22 23  1  0
 23 24  1  0
 23 26  1  0
 25 23  1  0
  1 27  1  0
  2 28  1  0
  3 29  1  0
  8 30  1  0
  8 31  1  0
  9 32  1  0
  9 33  1  0
 11 34  1  1
 14 35  1  0
 14 36  1  0
 15 37  1  0
 15 38  1  0
 16 39  1  0
 16 40  1  0
 17 41  1  0
 17 42  1  0
M  ISO  8  27  14  28  14  29  14  30  13  31  13  32  13  33  13  34  13
M  ISO  8  35  13  36  13  37  13  38  13  39  13  40  13  41  13  42  13
M  END
>  <minimizedAffinity>  (1) 
-4.69327831

>  <minimizedRMSD>  (1) 
2.73147297

$$$$
