
     RDKit          3D

 39 41  0  0  1  0  0  0  0  0999 V2000
   37.0160   26.3240   35.0760 C   0  0  0  0  0  0  0  0  0  0  0  0
   36.3080   29.5360   32.4370 C   0  0  0  0  0  0  0  0  0  0  0  0
   36.8920   28.3780   32.0020 C   0  0  0  0  0  0  0  0  0  0  0  0
   37.0980   27.3520   32.9170 C   0  0  0  0  0  0  0  0  0  0  0  0
   36.7180   27.5080   34.2370 C   0  0  0  0  0  0  0  0  0  0  0  0
   36.1320   28.6650   34.6780 C   0  0  0  0  0  0  0  0  0  0  0  0
   35.9210   29.6940   33.7790 C   0  0  0  0  0  0  0  0  0  0  0  0
   36.0310   30.8220   31.2800 S   0  0  0  0  0  0  0  0  0  0  0  0
   36.3910   30.2730   29.8940 O   0  0  0  0  0  0  0  0  0  0  0  0
   36.9070   31.9940   31.5620 O   0  0  0  0  0  0  0  0  0  0  0  0
   34.3780   31.3020   31.2370 C   0  0  0  0  0  0  0  0  0  0  0  0
   33.2300   30.7610   31.6680 C   0  0  0  0  0  0  0  0  0  0  0  0
   32.0300   31.3840   31.4930 C   0  0  0  0  0  0  0  0  0  0  0  0
   32.0860   32.6250   30.8330 C   0  0  0  0  0  0  0  0  0  0  0  0
   33.9040   32.8340   30.4920 S   0  0  0  0  0  0  0  0  0  0  0  0
   38.4650   25.9360   35.0660 C   0  0  2  0  0  0  0  0  0  0  0  0
   40.1570   23.0770   36.6100 C   0  0  0  0  0  0  0  0  0  0  0  0
   39.4200   22.8700   37.8190 C   0  0  0  0  0  0  0  0  0  0  0  0
   38.3420   23.7280   38.0840 C   0  0  0  0  0  0  0  0  0  0  0  0
   38.0660   24.7090   37.1640 N   0  0  0  0  0  0  0  0  0  0  0  0
   38.7760   24.8760   36.0390 C   0  0  0  0  0  0  0  0  0  0  0  0
   39.8230   24.0650   35.7540 N   0  0  0  0  0  0  0  0  0  0  0  0
   39.2800   27.1720   35.4360 C   0  0  0  0  0  0  0  0  0  0  0  0
   36.7222   26.5480   36.1121 H   0  0  0  0  0  0  0  0  0  0  0  0
   36.4506   25.4786   34.6570 H   0  0  0  0  0  0  0  0  0  0  0  0
   37.1923   28.2612   30.9503 H   0  0  0  0  0  0  0  0  0  0  0  0
   37.5655   26.4118   32.5893 H   0  0  0  0  0  0  0  0  0  0  0  0
   35.8339   28.7737   35.7312 H   0  0  0  0  0  0  0  0  0  0  0  0
   35.4525   30.6318   34.1124 H   0  0  0  0  0  0  0  0  0  0  0  0
   33.2568   29.7865   32.1775 H   0  0  0  0  0  0  0  0  0  0  0  0
   31.0836   30.9465   31.8436 H   0  0  0  0  0  0  0  0  0  0  0  0
   31.2589   33.3048   30.5805 H   0  0  0  0  0  0  0  0  0  0  0  0
   38.7079   25.5523   34.0641 H   0  0  0  0  0  0  0  0  0  0  0  0
   41.0082   22.4211   36.3751 H   0  0  0  0  0  0  0  0  0  0  0  0
   39.6898   22.0645   38.5178 H   0  0  0  0  0  0  0  0  0  0  0  0
   37.7388   23.6185   38.9973 H   0  0  0  0  0  0  0  0  0  0  0  0
   39.3374   27.2591   36.5310 H   0  0  0  0  0  0  0  0  0  0  0  0
   40.2948   27.0795   35.0218 H   0  0  0  0  0  0  0  0  0  0  0  0
   38.7952   28.0684   35.0218 H   0  0  0  0  0  0  0  0  0  0  0  0
  2  7  1  0
  3  2  2  0
  3  4  1  0
  4  5  2  0
  5  6  1  0
  5  1  1  0
  7  6  2  0
  8 10  2  0
  8  2  1  0
  9  8  2  0
 11  8  1  0
 11 12  2  0
 13 12  1  0
 14 13  2  0
 15 14  1  0
 15 11  1  0
 16  1  1  0
 16 23  1  0
 16 21  1  0
 17 18  2  0
 18 19  1  0
 20 19  2  0
 21 20  1  0
 22 21  2  0
 22 17  1  0
  1 24  1  0
  1 25  1  0
  3 26  1  0
  4 27  1  0
  6 28  1  0
  7 29  1  0
 12 30  1  0
 13 31  1  0
 14 32  1  0
 16 33  1  6
 17 34  1  0
 18 35  1  0
 19 36  1  0
 23 37  1  0
 23 38  1  0
 23 39  1  0
M  ISO  8  24   8  25   8  26  14  27  14  28  14  29  14  30  14  31  14
M  ISO  8  32  14  33   8  34  14  35  14  36  14  37   8  38   8  39   8
M  END
>  <minimizedAffinity>  (1) 
-4.86197472

>  <minimizedRMSD>  (1) 
1.51439404

$$$$
