
     RDKit          3D

 31 32  0  0  1  0  0  0  0  0999 V2000
   39.8960   22.9820   37.6560 C   0  0  0  0  0  0  0  0  0  0  0  0
   38.9240   23.1910   38.6820 C   0  0  0  0  0  0  0  0  0  0  0  0
   37.8130   23.9540   38.3500 C   0  0  0  0  0  0  0  0  0  0  0  0
   37.7420   24.4350   37.0810 N   0  0  0  0  0  0  0  0  0  0  0  0
   38.6940   24.2070   36.1380 C   0  0  0  0  0  0  0  0  0  0  0  0
   39.7390   23.4950   36.4370 N   0  0  0  0  0  0  0  0  0  0  0  0
   38.4960   24.7690   34.8450 N   0  0  0  0  0  0  0  0  0  0  0  0
   37.7750   26.0470   34.7450 C   0  0  0  0  0  0  0  0  0  0  0  0
   37.1000   26.1830   33.4250 C   0  0  0  0  0  0  0  0  0  0  0  0
   37.1110   25.0030   32.6620 O   0  0  0  0  0  0  0  0  0  0  0  0
   38.4490   24.7590   32.4310 C   0  0  1  0  0  0  0  0  0  0  0  0
   38.9930   24.0910   33.7040 C   0  0  2  0  0  0  0  0  0  0  0  0
   38.2880   22.6860   33.6480 C   0  0  0  0  0  0  0  0  0  0  0  0
   38.1680   22.3890   32.3250 F   0  0  0  0  0  0  0  0  0  0  0  0
   37.2200   22.5320   34.4330 F   0  0  0  0  0  0  0  0  0  0  0  0
   39.2630   21.7570   34.1130 F   0  0  0  0  0  0  0  0  0  0  0  0
   38.7600   24.0940   31.2680 O   0  0  0  0  0  0  0  0  0  0  0  0
   40.2810   23.9380   33.3950 O   0  0  0  0  0  0  0  0  0  0  0  0
   41.2870   24.7240   33.5830 C   0  0  0  0  0  0  0  0  0  0  0  0
   40.9290   26.0110   33.1220 F   0  0  0  0  0  0  0  0  0  0  0  0
   42.3540   24.3920   32.7330 F   0  0  0  0  0  0  0  0  0  0  0  0
   41.8320   25.0020   34.8010 F   0  0  0  0  0  0  0  0  0  0  0  0
   40.7929   22.3849   37.8775 H   0  0  0  0  0  0  0  0  0  0  0  0
   39.0503   22.7667   39.6890 H   0  0  0  0  0  0  0  0  0  0  0  0
   37.0213   24.1611   39.0851 H   0  0  0  0  0  0  0  0  0  0  0  0
   37.0180   26.0951   35.5416 H   0  0  0  0  0  0  0  0  0  0  0  0
   38.5018   26.8659   34.8503 H   0  0  0  0  0  0  0  0  0  0  0  0
   36.0537   26.4751   33.5982 H   0  0  0  0  0  0  0  0  0  0  0  0
   37.6576   26.9405   32.8547 H   0  0  0  0  0  0  0  0  0  0  0  0
   38.9530   25.7173   32.2371 H   0  0  0  0  0  0  0  0  0  0  0  0
   39.1690   23.2195   31.4872 H   0  0  0  0  0  0  0  0  0  0  0  0
  1  2  2  0
  3  2  1  0
  4  3  2  0
  5  6  2  0
  5  4  1  0
  6  1  1  0
  7  5  1  0
  8  7  1  0
  9  8  1  0
 10  9  1  0
 11 10  1  0
 11 12  1  0
 12 18  1  6
 12  7  1  0
 13 12  1  0
 13 16  1  0
 13 15  1  0
 14 13  1  0
 17 11  1  0
 18 19  1  0
 19 22  1  0
 20 19  1  0
 21 19  1  0
  1 23  1  0
  2 24  1  0
  3 25  1  0
  8 26  1  0
  8 27  1  0
  9 28  1  0
  9 29  1  0
 11 30  1  6
 17 31  1  0
M  ISO  8  23  14  24  14  25  14  26  13  27  13  28  13  29  13  30  13
M  ISO  1  31   3
M  END
>  <minimizedAffinity>  (1) 
-4.30831146

>  <minimizedRMSD>  (1) 
0.0424186438

$$$$
