
     RDKit          3D

 35 37  0  0  1  0  0  0  0  0999 V2000
   39.8090   22.9610   37.4940 C   0  0  0  0  0  0  0  0  0  0  0  0
   38.9400   23.1990   38.6100 C   0  0  0  0  0  0  0  0  0  0  0  0
   37.9130   24.1050   38.4290 C   0  0  0  0  0  0  0  0  0  0  0  0
   37.8000   24.7040   37.2150 N   0  0  0  0  0  0  0  0  0  0  0  0
   38.6500   24.4470   36.1790 C   0  0  0  0  0  0  0  0  0  0  0  0
   39.6290   23.5910   36.3350 N   0  0  0  0  0  0  0  0  0  0  0  0
   38.4200   25.1390   34.9580 N   0  0  0  0  0  0  0  0  0  0  0  0
   37.8470   26.4880   35.0070 C   0  0  0  0  0  0  0  0  0  0  0  0
   37.0900   26.7940   33.7660 C   0  0  0  0  0  0  0  0  0  0  0  0
   36.9270   25.6870   32.9090 O   0  0  0  0  0  0  0  0  0  0  0  0
   38.2090   25.3480   32.5690 C   0  0  1  0  0  0  0  0  0  0  0  0
   38.7560   24.4850   33.7220 C   0  0  2  0  0  0  0  0  0  0  0  0
   38.4610   24.8210   31.2460 C   0  0  0  0  0  0  0  0  0  0  0  0
   38.0970   23.8310   30.4290 N   0  0  0  0  0  0  0  0  0  0  0  0
   38.7290   23.9530   29.3090 O   0  0  0  0  0  0  0  0  0  0  0  0
   39.5180   24.9950   29.3240 C   0  0  0  0  0  0  0  0  0  0  0  0
   39.3660   25.5570   30.5350 N   0  0  0  0  0  0  0  0  0  0  0  0
   37.8870   23.2000   33.6280 C   0  0  0  0  0  0  0  0  0  0  0  0
   36.9110   23.4840   32.7250 F   0  0  0  0  0  0  0  0  0  0  0  0
   37.5280   22.6250   34.7760 F   0  0  0  0  0  0  0  0  0  0  0  0
   38.7100   22.2450   32.9470 F   0  0  0  0  0  0  0  0  0  0  0  0
   39.9930   24.2370   33.3070 O   0  0  0  0  0  0  0  0  0  0  0  0
   41.1000   24.8640   33.5060 C   0  0  0  0  0  0  0  0  0  0  0  0
   40.8410   26.2460   33.4450 F   0  0  0  0  0  0  0  0  0  0  0  0
   41.9840   24.6670   32.4330 F   0  0  0  0  0  0  0  0  0  0  0  0
   41.8410   24.7620   34.6450 F   0  0  0  0  0  0  0  0  0  0  0  0
   40.6383   22.2458   37.5975 H   0  0  0  0  0  0  0  0  0  0  0  0
   39.0853   22.6817   39.5699 H   0  0  0  0  0  0  0  0  0  0  0  0
   37.2088   24.3342   39.2424 H   0  0  0  0  0  0  0  0  0  0  0  0
   37.1671   26.5582   35.8689 H   0  0  0  0  0  0  0  0  0  0  0  0
   38.6688   27.2129   35.1021 H   0  0  0  0  0  0  0  0  0  0  0  0
   36.0930   27.1618   34.0502 H   0  0  0  0  0  0  0  0  0  0  0  0
   37.6744   27.5434   33.2120 H   0  0  0  0  0  0  0  0  0  0  0  0
   38.7729   26.2856   32.4554 H   0  0  0  0  0  0  0  0  0  0  0  0
   40.1730   25.3413   28.5109 H   0  0  0  0  0  0  0  0  0  0  0  0
  1  2  2  0
  3  2  1  0
  4  3  2  0
  5  6  2  0
  5  4  1  0
  6  1  1  0
  7  8  1  0
  7  5  1  0
  9  8  1  0
 10  9  1  0
 11 10  1  0
 11 12  1  0
 12 22  1  6
 12  7  1  0
 13 11  1  0
 14 13  2  0
 15 16  1  0
 15 14  1  0
 16 17  2  0
 17 13  1  0
 18 12  1  0
 18 20  1  0
 19 18  1  0
 21 18  1  0
 22 23  1  0
 23 26  1  0
 24 23  1  0
 25 23  1  0
  1 27  1  0
  2 28  1  0
  3 29  1  0
  8 30  1  0
  8 31  1  0
  9 32  1  0
  9 33  1  0
 11 34  1  6
 16 35  1  0
M  ISO  8  27  14  28  14  29  14  30  13  31  13  32  13  33  13  34  13
M  ISO  1  35  14
M  END
>  <minimizedAffinity>  (1) 
-4.89399719

>  <minimizedRMSD>  (1) 
1.01030564

$$$$
