
     RDKit          3D

 46 50  0  0  1  0  0  0  0  0999 V2000
   39.8480   22.9390   37.5310 C   0  0  0  0  0  0  0  0  0  0  0  0
   38.9890   23.1860   38.6500 C   0  0  0  0  0  0  0  0  0  0  0  0
   37.9550   24.0960   38.4650 C   0  0  0  0  0  0  0  0  0  0  0  0
   37.8380   24.6790   37.2440 N   0  0  0  0  0  0  0  0  0  0  0  0
   38.6710   24.4200   36.2070 C   0  0  0  0  0  0  0  0  0  0  0  0
   39.6500   23.5640   36.3660 N   0  0  0  0  0  0  0  0  0  0  0  0
   38.4410   25.0960   34.9800 N   0  0  0  0  0  0  0  0  0  0  0  0
   37.8830   26.4540   35.0170 C   0  0  0  0  0  0  0  0  0  0  0  0
   37.0710   26.7170   33.7930 C   0  0  0  0  0  0  0  0  0  0  0  0
   36.9380   25.6110   32.9340 O   0  0  0  0  0  0  0  0  0  0  0  0
   38.2190   25.2900   32.5950 C   0  0  1  0  0  0  0  0  0  0  0  0
   38.7700   24.4110   33.7510 C   0  0  2  0  0  0  0  0  0  0  0  0
   38.4750   24.7700   31.2800 C   0  0  0  0  0  0  0  0  0  0  0  0
   38.2630   23.6710   30.5480 N   0  0  0  0  0  0  0  0  0  0  0  0
   38.7610   23.8220   29.3700 O   0  0  0  0  0  0  0  0  0  0  0  0
   39.3180   24.9870   29.2460 C   0  0  0  0  0  0  0  0  0  0  0  0
   39.1410   25.5780   30.4290 N   0  0  0  0  0  0  0  0  0  0  0  0
   39.9650   25.4710   28.0610 N   0  0  0  0  0  0  0  0  0  0  0  0
   40.6650   26.6090   27.8970 C   0  0  0  0  0  0  0  0  0  0  0  0
   41.0910   26.6460   26.6050 N   0  0  0  0  0  0  0  0  0  0  0  0
   40.6500   25.5220   25.9670 C   0  0  0  0  0  0  0  0  0  0  0  0
   40.7870   25.0510   24.6730 C   0  0  0  0  0  0  0  0  0  0  0  0
   40.2150   23.8600   24.3310 N   0  0  0  0  0  0  0  0  0  0  0  0
   39.5230   23.1680   25.2760 C   0  0  0  0  0  0  0  0  0  0  0  0
   39.3600   23.5890   26.5630 N   0  0  0  0  0  0  0  0  0  0  0  0
   39.9280   24.7660   26.8950 C   0  0  0  0  0  0  0  0  0  0  0  0
   37.8940   23.1450   33.6690 C   0  0  0  0  0  0  0  0  0  0  0  0
   36.9810   23.3870   32.7030 F   0  0  0  0  0  0  0  0  0  0  0  0
   37.4720   22.6320   34.8300 F   0  0  0  0  0  0  0  0  0  0  0  0
   38.7430   22.1530   33.0790 F   0  0  0  0  0  0  0  0  0  0  0  0
   40.0060   24.1780   33.3380 O   0  0  0  0  0  0  0  0  0  0  0  0
   41.1050   24.8350   33.4680 C   0  0  0  0  0  0  0  0  0  0  0  0
   40.8220   26.1980   33.4080 F   0  0  0  0  0  0  0  0  0  0  0  0
   41.9410   24.6470   32.3570 F   0  0  0  0  0  0  0  0  0  0  0  0
   41.9010   24.7670   34.5720 F   0  0  0  0  0  0  0  0  0  0  0  0
   40.6803   22.2268   37.6313 H   0  0  0  0  0  0  0  0  0  0  0  0
   39.1410   22.6778   39.6136 H   0  0  0  0  0  0  0  0  0  0  0  0
   37.2555   24.3358   39.2794 H   0  0  0  0  0  0  0  0  0  0  0  0
   37.2432   26.5587   35.9057 H   0  0  0  0  0  0  0  0  0  0  0  0
   38.7099   27.1782   35.0587 H   0  0  0  0  0  0  0  0  0  0  0  0
   36.0649   27.0302   34.1086 H   0  0  0  0  0  0  0  0  0  0  0  0
   37.6037   27.4934   33.2243 H   0  0  0  0  0  0  0  0  0  0  0  0
   38.7735   26.2341   32.4889 H   0  0  0  0  0  0  0  0  0  0  0  0
   40.8576   27.3705   28.6671 H   0  0  0  0  0  0  0  0  0  0  0  0
   41.3512   25.6307   23.9276 H   0  0  0  0  0  0  0  0  0  0  0  0
   39.0671   22.2104   24.9843 H   0  0  0  0  0  0  0  0  0  0  0  0
  1  2  2  0
  3  2  1  0
  4  3  2  0
  5  6  2  0
  5  4  1  0
  6  1  1  0
  7  8  1  0
  7  5  1  0
  9  8  1  0
 10  9  1  0
 11 10  1  0
 11 12  1  0
 12 31  1  6
 12  7  1  0
 13 11  1  0
 14 13  2  0
 15 14  1  0
 16 15  1  0
 16 17  2  0
 17 13  1  0
 18 16  1  0
 19 18  1  0
 20 19  2  0
 21 20  1  0
 21 26  2  0
 22 21  1  0
 23 22  2  0
 23 24  1  0
 24 25  2  0
 25 26  1  0
 26 18  1  0
 27 12  1  0
 27 29  1  0
 28 27  1  0
 30 27  1  0
 31 32  1  0
 32 35  1  0
 33 32  1  0
 34 32  1  0
  1 36  1  0
  2 37  1  0
  3 38  1  0
  8 39  1  0
  8 40  1  0
  9 41  1  0
  9 42  1  0
 11 43  1  6
 19 44  1  0
 22 45  1  0
 24 46  1  0
M  ISO  8  36  14  37  14  38  14  39  13  40  13  41  13  42  13  43  13
M  ISO  3  44  14  45  14  46  14
M  END
>  <minimizedAffinity>  (1) 
-5.96228743

>  <minimizedRMSD>  (1) 
0.310892612

$$$$
