
     RDKit          3D

 50 53  0  0  1  0  0  0  0  0999 V2000
   39.7310   22.8890   37.7490 C   0  0  0  0  0  0  0  0  0  0  0  0
   38.8810   23.3660   38.8010 C   0  0  0  0  0  0  0  0  0  0  0  0
   37.9030   24.2770   38.4590 C   0  0  0  0  0  0  0  0  0  0  0  0
   37.8090   24.6590   37.1560 N   0  0  0  0  0  0  0  0  0  0  0  0
   38.6380   24.1800   36.1850 C   0  0  0  0  0  0  0  0  0  0  0  0
   39.5660   23.3170   36.4970 N   0  0  0  0  0  0  0  0  0  0  0  0
   38.4390   24.6580   34.8560 N   0  0  0  0  0  0  0  0  0  0  0  0
   37.9440   26.0190   34.6560 C   0  0  0  0  0  0  0  0  0  0  0  0
   37.1480   26.1090   33.4030 C   0  0  0  0  0  0  0  0  0  0  0  0
   36.9660   24.8960   32.7350 O   0  0  0  0  0  0  0  0  0  0  0  0
   38.2460   24.4490   32.4750 C   0  0  1  0  0  0  0  0  0  0  0  0
   38.7390   23.7560   33.7640 C   0  0  2  0  0  0  0  0  0  0  0  0
   38.4590   23.6950   31.2700 C   0  0  0  0  0  0  0  0  0  0  0  0
   38.2720   22.4750   30.7530 N   0  0  0  0  0  0  0  0  0  0  0  0
   38.7080   22.4330   29.5400 O   0  0  0  0  0  0  0  0  0  0  0  0
   39.1950   23.5810   29.1810 C   0  0  0  0  0  0  0  0  0  0  0  0
   39.0440   24.3670   30.2490 N   0  0  0  0  0  0  0  0  0  0  0  0
   39.7490   23.8380   27.8930 N   0  0  0  0  0  0  0  0  0  0  0  0
   39.9700   25.1040   27.2560 C   0  0  0  0  0  0  0  0  0  0  0  0
   40.6730   24.8650   25.9380 C   0  0  0  0  0  0  0  0  0  0  0  0
   39.8840   23.9530   25.0310 C   0  0  0  0  0  0  0  0  0  0  0  0
   39.3550   22.7640   25.8180 C   0  0  0  0  0  0  0  0  0  0  0  0
   40.1550   22.6890   27.1040 C   0  0  0  0  0  0  0  0  0  0  0  0
   37.7980   22.5330   33.8960 C   0  0  0  0  0  0  0  0  0  0  0  0
   36.9250   22.6240   32.8480 F   0  0  0  0  0  0  0  0  0  0  0  0
   37.3160   22.2770   35.1060 F   0  0  0  0  0  0  0  0  0  0  0  0
   38.6150   21.4060   33.5550 F   0  0  0  0  0  0  0  0  0  0  0  0
   39.9600   23.3870   33.3980 O   0  0  0  0  0  0  0  0  0  0  0  0
   41.0940   23.9910   33.4680 C   0  0  0  0  0  0  0  0  0  0  0  0
   40.9360   25.3000   33.0110 F   0  0  0  0  0  0  0  0  0  0  0  0
   41.9990   23.4530   32.5450 F   0  0  0  0  0  0  0  0  0  0  0  0
   41.7850   24.1880   34.6270 F   0  0  0  0  0  0  0  0  0  0  0  0
   40.5260   22.1637   37.9769 H   0  0  0  0  0  0  0  0  0  0  0  0
   39.0038   23.0198   39.8379 H   0  0  0  0  0  0  0  0  0  0  0  0
   37.2184   24.6833   39.2181 H   0  0  0  0  0  0  0  0  0  0  0  0
   37.3089   26.3013   35.5086 H   0  0  0  0  0  0  0  0  0  0  0  0
   38.8038   26.7007   34.5790 H   0  0  0  0  0  0  0  0  0  0  0  0
   36.1563   26.5122   33.6561 H   0  0  0  0  0  0  0  0  0  0  0  0
   37.7187   26.7554   32.7200 H   0  0  0  0  0  0  0  0  0  0  0  0
   38.8651   25.3236   32.2264 H   0  0  0  0  0  0  0  0  0  0  0  0
   39.0057   25.6020   27.0767 H   0  0  0  0  0  0  0  0  0  0  0  0
   40.5882   25.7461   27.9006 H   0  0  0  0  0  0  0  0  0  0  0  0
   40.8161   25.8312   25.4320 H   0  0  0  0  0  0  0  0  0  0  0  0
   41.6367   24.3795   26.1513 H   0  0  0  0  0  0  0  0  0  0  0  0
   40.5355   23.5926   24.2212 H   0  0  0  0  0  0  0  0  0  0  0  0
   39.0357   24.5113   24.6082 H   0  0  0  0  0  0  0  0  0  0  0  0
   38.2881   22.9063   26.0451 H   0  0  0  0  0  0  0  0  0  0  0  0
   39.4569   21.8344   25.2387 H   0  0  0  0  0  0  0  0  0  0  0  0
   39.9285   21.7564   27.6416 H   0  0  0  0  0  0  0  0  0  0  0  0
   41.2372   22.6963   26.9073 H   0  0  0  0  0  0  0  0  0  0  0  0
  1  2  2  0
  3  2  1  0
  4  3  2  0
  5  6  2  0
  5  4  1  0
  6  1  1  0
  7  5  1  0
  8  7  1  0
  9  8  1  0
 10  9  1  0
 11 10  1  0
 11 12  1  0
 12 28  1  6
 12 24  1  0
 12  7  1  0
 13 11  1  0
 14 13  2  0
 15 14  1  0
 16 15  1  0
 16 17  2  0
 17 13  1  0
 18 16  1  0
 19 18  1  0
 20 19  1  0
 21 22  1  0
 21 20  1  0
 22 23  1  0
 23 18  1  0
 24 26  1  0
 25 24  1  0
 27 24  1  0
 28 29  1  0
 29 32  1  0
 30 29  1  0
 31 29  1  0
  1 33  1  0
  2 34  1  0
  3 35  1  0
  8 36  1  0
  8 37  1  0
  9 38  1  0
  9 39  1  0
 11 40  1  6
 19 41  1  0
 19 42  1  0
 20 43  1  0
 20 44  1  0
 21 45  1  0
 21 46  1  0
 22 47  1  0
 22 48  1  0
 23 49  1  0
 23 50  1  0
M  ISO  8  33  14  34  14  35  14  36  13  37  13  38  13  39  13  40  13
M  ISO  8  41  13  42  13  43  13  44  13  45  13  46  13  47  13  48  13
M  ISO  2  49  13  50  13
M  END
>  <minimizedAffinity>  (1) 
-5.71125841

>  <minimizedRMSD>  (1) 
1.17771864

$$$$
