
     RDKit          3D

 49 52  0  0  1  0  0  0  0  0999 V2000
   39.8190   22.9800   37.5050 C   0  0  0  0  0  0  0  0  0  0  0  0
   38.9080   23.1460   38.6070 C   0  0  0  0  0  0  0  0  0  0  0  0
   37.8610   24.0240   38.4460 C   0  0  0  0  0  0  0  0  0  0  0  0
   37.7640   24.6730   37.2560 N   0  0  0  0  0  0  0  0  0  0  0  0
   38.6390   24.4960   36.2320 C   0  0  0  0  0  0  0  0  0  0  0  0
   39.6470   23.6600   36.3690 N   0  0  0  0  0  0  0  0  0  0  0  0
   38.4280   25.2270   35.0430 N   0  0  0  0  0  0  0  0  0  0  0  0
   37.8210   26.5710   35.1340 C   0  0  0  0  0  0  0  0  0  0  0  0
   37.0290   26.8760   33.9140 C   0  0  0  0  0  0  0  0  0  0  0  0
   36.9580   25.8310   32.9790 O   0  0  0  0  0  0  0  0  0  0  0  0
   38.2750   25.5600   32.6670 C   0  0  1  0  0  0  0  0  0  0  0  0
   38.8090   24.6360   33.7830 C   0  0  2  0  0  0  0  0  0  0  0  0
   38.5720   25.1120   31.3260 C   0  0  0  0  0  0  0  0  0  0  0  0
   38.2860   24.1230   30.4690 N   0  0  0  0  0  0  0  0  0  0  0  0
   38.8920   24.3170   29.3530 O   0  0  0  0  0  0  0  0  0  0  0  0
   39.5960   25.4160   29.4010 C   0  0  0  0  0  0  0  0  0  0  0  0
   39.4020   25.9170   30.6280 N   0  0  0  0  0  0  0  0  0  0  0  0
   40.3570   25.8550   28.2880 N   0  0  0  0  0  0  0  0  0  0  0  0
   39.7290   27.0580   27.7140 C   0  0  0  0  0  0  0  0  0  0  0  0
   40.3570   27.4640   26.4210 C   0  0  0  0  0  0  0  0  0  0  0  0
   40.5500   26.2430   25.6630 N   0  0  0  0  0  0  0  0  0  0  0  0
   41.6020   25.4290   26.2240 C   0  0  0  0  0  0  0  0  0  0  0  0
   41.5430   25.3310   27.7210 C   0  0  0  0  0  0  0  0  0  0  0  0
   37.9860   23.3440   33.5990 C   0  0  0  0  0  0  0  0  0  0  0  0
   37.0230   23.6480   32.6790 F   0  0  0  0  0  0  0  0  0  0  0  0
   37.6010   22.7110   34.7160 F   0  0  0  0  0  0  0  0  0  0  0  0
   38.8490   22.4440   32.9040 F   0  0  0  0  0  0  0  0  0  0  0  0
   40.0610   24.4640   33.3820 O   0  0  0  0  0  0  0  0  0  0  0  0
   41.1440   25.1100   33.6400 C   0  0  0  0  0  0  0  0  0  0  0  0
   40.8690   26.4800   33.6130 F   0  0  0  0  0  0  0  0  0  0  0  0
   42.0690   24.9680   32.5970 F   0  0  0  0  0  0  0  0  0  0  0  0
   41.8460   24.9890   34.8040 F   0  0  0  0  0  0  0  0  0  0  0  0
   40.6664   22.2851   37.5999 H   0  0  0  0  0  0  0  0  0  0  0  0
   39.0443   22.5897   39.5461 H   0  0  0  0  0  0  0  0  0  0  0  0
   37.1300   24.1942   39.2502 H   0  0  0  0  0  0  0  0  0  0  0  0
   37.1597   26.6094   36.0122 H   0  0  0  0  0  0  0  0  0  0  0  0
   38.6253   27.3156   35.2276 H   0  0  0  0  0  0  0  0  0  0  0  0
   36.0041   27.1260   34.2255 H   0  0  0  0  0  0  0  0  0  0  0  0
   37.5456   27.7063   33.4102 H   0  0  0  0  0  0  0  0  0  0  0  0
   38.8163   26.5172   32.6394 H   0  0  0  0  0  0  0  0  0  0  0  0
   38.6627   26.8513   27.5397 H   0  0  0  0  0  0  0  0  0  0  0  0
   39.8672   27.8829   28.4285 H   0  0  0  0  0  0  0  0  0  0  0  0
   39.6943   28.1511   25.8746 H   0  0  0  0  0  0  0  0  0  0  0  0
   41.3101   27.9879   26.5858 H   0  0  0  0  0  0  0  0  0  0  0  0
   40.7975   26.4872   24.6935 H   0  0  0  0  0  0  0  0  0  0  0  0
   41.5206   24.4155   25.8043 H   0  0  0  0  0  0  0  0  0  0  0  0
   42.5577   25.9089   25.9664 H   0  0  0  0  0  0  0  0  0  0  0  0
   41.6203   24.2701   28.0010 H   0  0  0  0  0  0  0  0  0  0  0  0
   42.3751   25.9352   28.1115 H   0  0  0  0  0  0  0  0  0  0  0  0
  1  2  2  0
  3  2  1  0
  4  3  2  0
  5  6  2  0
  5  4  1  0
  6  1  1  0
  7  8  1  0
  7  5  1  0
  9  8  1  0
 10  9  1  0
 11 10  1  0
 11 12  1  0
 12 28  1  1
 12  7  1  0
 13 11  1  0
 14 13  2  0
 15 16  1  0
 15 14  1  0
 16 17  2  0
 17 13  1  0
 18 16  1  0
 19 18  1  0
 20 19  1  0
 21 22  1  0
 21 20  1  0
 22 23  1  0
 23 18  1  0
 24 12  1  0
 24 26  1  0
 25 24  1  0
 27 24  1  0
 28 29  1  0
 29 32  1  0
 30 29  1  0
 31 29  1  0
  1 33  1  0
  2 34  1  0
  3 35  1  0
  8 36  1  0
  8 37  1  0
  9 38  1  0
  9 39  1  0
 11 40  1  1
 19 41  1  0
 19 42  1  0
 20 43  1  0
 20 44  1  0
 21 45  1  0
 22 46  1  0
 22 47  1  0
 23 48  1  0
 23 49  1  0
M  ISO  8  33  14  34  14  35  14  36  13  37  13  38  13  39  13  40  13
M  ISO  8  41  13  42  13  43  13  44  13  45   5  46  13  47  13  48  13
M  ISO  1  49  13
M  END
>  <minimizedAffinity>  (1) 
-5.46126795

>  <minimizedRMSD>  (1) 
0.347619563

$$$$
