
     RDKit          3D

 41 44  0  0  0  0  0  0  0  0999 V2000
   38.6240   24.0680   36.8020 C   0  0  0  0  0  0  0  0  0  0  0  0
   39.8710   23.5800   36.3950 C   0  0  0  0  0  0  0  0  0  0  0  0
   40.4760   24.1810   35.2550 C   0  0  0  0  0  0  0  0  0  0  0  0
   39.8120   25.1810   34.6400 N   0  0  0  0  0  0  0  0  0  0  0  0
   38.6200   25.6230   35.0560 C   0  0  0  0  0  0  0  0  0  0  0  0
   38.0210   25.0770   36.1300 N   0  0  0  0  0  0  0  0  0  0  0  0
   37.8730   26.6700   34.4410 N   0  0  0  0  0  0  0  0  0  0  0  0
   36.8650   27.3750   34.9710 C   0  0  0  0  0  0  0  0  0  0  0  0
   36.2530   28.3480   34.2110 C   0  0  0  0  0  0  0  0  0  0  0  0
   36.6650   28.5870   32.9460 C   0  0  0  0  0  0  0  0  0  0  0  0
   36.1080   29.4690   32.2520 O   0  0  0  0  0  0  0  0  0  0  0  0
   37.6860   27.8690   32.4250 N   0  0  0  0  0  0  0  0  0  0  0  0
   38.2840   26.9180   33.1660 C   0  0  0  0  0  0  0  0  0  0  0  0
   39.2290   26.3110   32.5680 O   0  0  0  0  0  0  0  0  0  0  0  0
   38.0930   28.1640   31.0980 C   0  0  0  0  0  0  0  0  0  0  0  0
   39.1720   27.6030   30.5410 N   0  0  0  0  0  0  0  0  0  0  0  0
   39.3490   28.0310   29.3300 O   0  0  0  0  0  0  0  0  0  0  0  0
   38.3590   28.8870   29.1050 C   0  0  0  0  0  0  0  0  0  0  0  0
   37.5600   28.9880   30.1950 N   0  0  0  0  0  0  0  0  0  0  0  0
   38.1520   29.6350   27.8300 C   0  0  0  0  0  0  0  0  0  0  0  0
   37.5970   31.0240   28.0660 C   0  0  0  0  0  0  0  0  0  0  0  0
   38.7730   31.7460   28.6370 C   0  0  0  0  0  0  0  0  0  0  0  0
   39.9740   31.1100   28.0090 C   0  0  0  0  0  0  0  0  0  0  0  0
   39.4760   29.9690   27.1530 C   0  0  0  0  0  0  0  0  0  0  0  0
   37.9540   23.4560   38.0020 C   0  0  0  0  0  0  0  0  0  0  0  0
   38.8670   22.7330   38.7640 F   0  0  0  0  0  0  0  0  0  0  0  0
   37.4260   24.4460   38.7920 F   0  0  0  0  0  0  0  0  0  0  0  0
   36.9340   22.6110   37.5580 F   0  0  0  0  0  0  0  0  0  0  0  0
   40.3663   22.7608   36.9369 H   0  0  0  0  0  0  0  0  0  0  0  0
   41.4550   23.8402   34.8870 H   0  0  0  0  0  0  0  0  0  0  0  0
   36.5298   27.1797   36.0003 H   0  0  0  0  0  0  0  0  0  0  0  0
   35.4245   28.9335   34.6362 H   0  0  0  0  0  0  0  0  0  0  0  0
   37.4901   28.9789   27.2456 H   0  0  0  0  0  0  0  0  0  0  0  0
   37.2655   31.4855   27.1241 H   0  0  0  0  0  0  0  0  0  0  0  0
   36.7123   31.0388   28.7195 H   0  0  0  0  0  0  0  0  0  0  0  0
   38.7276   32.8156   28.3842 H   0  0  0  0  0  0  0  0  0  0  0  0
   38.8012   31.6778   29.7345 H   0  0  0  0  0  0  0  0  0  0  0  0
   40.5074   31.8436   27.3867 H   0  0  0  0  0  0  0  0  0  0  0  0
   40.6718   30.7470   28.7779 H   0  0  0  0  0  0  0  0  0  0  0  0
   40.1680   29.1144   27.1806 H   0  0  0  0  0  0  0  0  0  0  0  0
   39.3832   30.2172   26.0854 H   0  0  0  0  0  0  0  0  0  0  0  0
  1 25  1  0
  2  1  2  0
  3  2  1  0
  4  5  1  0
  4  3  2  0
  5  6  2  0
  6  1  1  0
  7  8  1  0
  7  5  1  0
  9  8  2  0
 10  9  1  0
 11 10  2  0
 12 10  1  0
 12 13  1  0
 13  7  1  0
 14 13  2  0
 15 12  1  0
 16 15  2  0
 17 16  1  0
 18 17  1  0
 18 19  2  0
 19 15  1  0
 20 21  1  0
 20 18  1  0
 21 22  1  0
 23 22  1  0
 24 20  1  0
 24 23  1  0
 25 26  1  0
 25 27  1  0
 28 25  1  0
  2 29  1  0
  3 30  1  0
  8 31  1  0
  9 32  1  0
 20 33  1  0
 21 34  1  0
 21 35  1  0
 22 36  1  0
 22 37  1  0
 23 38  1  0
 23 39  1  0
 24 40  1  0
 24 41  1  0
M  ISO  8  29  14  30  14  31  14  32  14  33  13  34  13  35  13  36  13
M  ISO  5  37  13  38  13  39  13  40  13  41  13
M  END
>  <minimizedAffinity>  (1) 
-6.11806059

>  <minimizedRMSD>  (1) 
1.40178525

$$$$
