
     RDKit          3D

 42 45  0  0  1  0  0  0  0  0999 V2000
   39.8050   22.9280   37.5220 C   0  0  0  0  0  0  0  0  0  0  0  0
   38.9480   23.2020   38.6350 C   0  0  0  0  0  0  0  0  0  0  0  0
   37.9330   24.1200   38.4420 C   0  0  0  0  0  0  0  0  0  0  0  0
   37.8280   24.6880   37.2140 N   0  0  0  0  0  0  0  0  0  0  0  0
   38.6680   24.3960   36.1820 C   0  0  0  0  0  0  0  0  0  0  0  0
   39.6280   23.5340   36.3470 N   0  0  0  0  0  0  0  0  0  0  0  0
   38.4280   25.0790   34.9460 N   0  0  0  0  0  0  0  0  0  0  0  0
   37.8790   26.4360   34.9730 C   0  0  0  0  0  0  0  0  0  0  0  0
   37.0680   26.6910   33.7440 C   0  0  0  0  0  0  0  0  0  0  0  0
   36.9260   25.5800   32.8970 O   0  0  0  0  0  0  0  0  0  0  0  0
   38.2040   25.2430   32.5610 C   0  0  1  0  0  0  0  0  0  0  0  0
   38.7490   24.3720   33.7250 C   0  0  2  0  0  0  0  0  0  0  0  0
   38.4560   24.7100   31.2510 C   0  0  0  0  0  0  0  0  0  0  0  0
   38.0570   23.7160   30.4500 N   0  0  0  0  0  0  0  0  0  0  0  0
   38.6940   23.7700   29.3300 O   0  0  0  0  0  0  0  0  0  0  0  0
   39.5260   24.7640   29.3140 C   0  0  0  0  0  0  0  0  0  0  0  0
   39.3810   25.3500   30.5060 N   0  0  0  0  0  0  0  0  0  0  0  0
   40.4230   25.1140   28.1680 C   0  0  0  0  0  0  0  0  0  0  0  0
   40.0250   26.1020   27.1640 C   0  0  0  0  0  0  0  0  0  0  0  0
   39.8490   24.6400   26.8310 C   0  0  0  0  0  0  0  0  0  0  0  0
   37.8580   23.1130   33.6590 C   0  0  0  0  0  0  0  0  0  0  0  0
   36.9070   23.3820   32.7390 F   0  0  0  0  0  0  0  0  0  0  0  0
   37.4890   22.5780   34.8250 F   0  0  0  0  0  0  0  0  0  0  0  0
   38.6750   22.1300   33.0080 F   0  0  0  0  0  0  0  0  0  0  0  0
   39.9830   24.1200   33.3090 O   0  0  0  0  0  0  0  0  0  0  0  0
   41.0970   24.7380   33.4990 C   0  0  0  0  0  0  0  0  0  0  0  0
   40.8730   26.1110   33.4290 F   0  0  0  0  0  0  0  0  0  0  0  0
   41.9750   24.5190   32.4260 F   0  0  0  0  0  0  0  0  0  0  0  0
   41.8390   24.6330   34.6360 F   0  0  0  0  0  0  0  0  0  0  0  0
   40.6251   22.2040   37.6377 H   0  0  0  0  0  0  0  0  0  0  0  0
   39.0913   22.7024   39.6045 H   0  0  0  0  0  0  0  0  0  0  0  0
   37.2368   24.3803   39.2529 H   0  0  0  0  0  0  0  0  0  0  0  0
   37.2393   26.5512   35.8604 H   0  0  0  0  0  0  0  0  0  0  0  0
   38.7086   27.1573   35.0107 H   0  0  0  0  0  0  0  0  0  0  0  0
   36.0643   27.0150   34.0563 H   0  0  0  0  0  0  0  0  0  0  0  0
   37.6080   27.4562   33.1670 H   0  0  0  0  0  0  0  0  0  0  0  0
   38.7666   26.1812   32.4457 H   0  0  0  0  0  0  0  0  0  0  0  0
   41.3471   25.0166   28.7567 H   0  0  0  0  0  0  0  0  0  0  0  0
   39.1398   26.7309   27.3398 H   0  0  0  0  0  0  0  0  0  0  0  0
   40.5351   26.9438   26.6729 H   0  0  0  0  0  0  0  0  0  0  0  0
   38.8432   24.1973   26.7827 H   0  0  0  0  0  0  0  0  0  0  0  0
   40.1739   23.9670   26.0238 H   0  0  0  0  0  0  0  0  0  0  0  0
  1  2  2  0
  3  2  1  0
  4  3  2  0
  5  6  2  0
  5  4  1  0
  6  1  1  0
  7  8  1  0
  7  5  1  0
  9  8  1  0
 10  9  1  0
 11 10  1  0
 11 12  1  0
 12 25  1  6
 12  7  1  0
 13 11  1  0
 14 13  2  0
 15 14  1  0
 16 15  1  0
 16 17  2  0
 17 13  1  0
 18 16  1  0
 19 18  1  0
 20 19  1  0
 20 18  1  0
 21 12  1  0
 21 23  1  0
 22 21  1  0
 24 21  1  0
 25 26  1  0
 26 29  1  0
 27 26  1  0
 28 26  1  0
  1 30  1  0
  2 31  1  0
  3 32  1  0
  8 33  1  0
  8 34  1  0
  9 35  1  0
  9 36  1  0
 11 37  1  6
 18 38  1  0
 19 39  1  0
 19 40  1  0
 20 41  1  0
 20 42  1  0
M  ISO  8  30  14  31  14  32  14  33  13  34  13  35  13  36  13  37  13
M  ISO  5  38  13  39  13  40  13  41  13  42  13
M  END
>  <minimizedAffinity>  (1) 
-5.11294174

>  <minimizedRMSD>  (1) 
0.126051426

$$$$
