
     RDKit          3D

 26 28  0  0  0  0  0  0  0  0999 V2000
   41.4750   23.1820   36.3610 C   0  0  0  0  0  0  0  0  0  0  0  0
   40.8590   22.7130   37.5250 C   0  0  0  0  0  0  0  0  0  0  0  0
   39.5180   23.0040   37.7220 C   0  0  0  0  0  0  0  0  0  0  0  0
   38.8510   23.7340   36.7780 N   0  0  0  0  0  0  0  0  0  0  0  0
   39.4760   24.1780   35.6560 C   0  0  0  0  0  0  0  0  0  0  0  0
   40.7680   23.8910   35.4750 N   0  0  0  0  0  0  0  0  0  0  0  0
   38.7330   22.6140   38.8340 N   0  0  0  0  0  0  0  0  0  0  0  0
   42.8910   22.8580   36.1810 C   0  0  0  0  0  0  0  0  0  0  0  0
   43.4450   21.7270   35.6110 C   0  0  0  0  0  0  0  0  0  0  0  0
   44.7860   21.7910   35.6270 N   0  0  0  0  0  0  0  0  0  0  0  0
   45.1140   22.9600   36.2050 C   0  0  0  0  0  0  0  0  0  0  0  0
   46.3900   23.4780   36.4470 C   0  0  0  0  0  0  0  0  0  0  0  0
   46.4020   24.7120   37.0610 C   0  0  0  0  0  0  0  0  0  0  0  0
   45.3100   25.4550   37.4450 C   0  0  0  0  0  0  0  0  0  0  0  0
   44.0810   24.8850   37.1760 C   0  0  0  0  0  0  0  0  0  0  0  0
   43.9580   23.6570   36.5660 C   0  0  0  0  0  0  0  0  0  0  0  0
   41.4239   22.1280   38.2657 H   0  0  0  0  0  0  0  0  0  0  0  0
   38.9254   24.7659   34.9069 H   0  0  0  0  0  0  0  0  0  0  0  0
   37.7402   22.8837   38.8834 H   0  0  0  0  0  0  0  0  0  0  0  0
   39.1548   22.0606   39.5935 H   0  0  0  0  0  0  0  0  0  0  0  0
   42.8652   20.8876   35.1997 H   0  0  0  0  0  0  0  0  0  0  0  0
   45.4386   21.0807   35.2657 H   0  0  0  0  0  0  0  0  0  0  0  0
   47.3105   22.9435   36.1696 H   0  0  0  0  0  0  0  0  0  0  0  0
   47.3904   25.1493   37.2658 H   0  0  0  0  0  0  0  0  0  0  0  0
   45.4087   26.4359   37.9329 H   0  0  0  0  0  0  0  0  0  0  0  0
   43.1690   25.4311   37.4589 H   0  0  0  0  0  0  0  0  0  0  0  0
  1  2  2  0
  2  3  1  0
  3  7  1  0
  4  3  2  0
  5  4  1  0
  6  5  2  0
  6  1  1  0
  8  1  1  0
  8 16  1  0
  9 10  1  0
  9  8  2  0
 10 11  1  0
 11 12  1  0
 11 16  2  0
 12 13  2  0
 13 14  1  0
 15 14  2  0
 16 15  1  0
  2 17  1  0
  5 18  1  0
  7 19  1  0
  7 20  1  0
  9 21  1  0
 10 22  1  0
 12 23  1  0
 13 24  1  0
 14 25  1  0
 15 26  1  0
M  ISO  8  17  14  18  14  21  14  22   9  23  14  24  14  25  14  26  14
M  END
>  <minimizedAffinity>  (1) 
-4.89283323

>  <minimizedRMSD>  (1) 
3.95052314

$$$$
