
     RDKit          3D

 36 38  0  0  1  0  0  0  0  0999 V2000
   39.7950   22.9270   37.5160 C   0  0  0  0  0  0  0  0  0  0  0  0
   38.9390   23.1960   38.6340 C   0  0  0  0  0  0  0  0  0  0  0  0
   37.9390   24.1170   38.4490 C   0  0  0  0  0  0  0  0  0  0  0  0
   37.8360   24.6990   37.2310 N   0  0  0  0  0  0  0  0  0  0  0  0
   38.6710   24.4170   36.1880 C   0  0  0  0  0  0  0  0  0  0  0  0
   39.6240   23.5460   36.3510 N   0  0  0  0  0  0  0  0  0  0  0  0
   38.4420   25.1080   34.9640 N   0  0  0  0  0  0  0  0  0  0  0  0
   37.9050   26.4700   35.0030 C   0  0  0  0  0  0  0  0  0  0  0  0
   37.0880   26.7410   33.7810 C   0  0  0  0  0  0  0  0  0  0  0  0
   36.9410   25.6460   32.9190 O   0  0  0  0  0  0  0  0  0  0  0  0
   38.2180   25.3000   32.5820 C   0  0  1  0  0  0  0  0  0  0  0  0
   38.7580   24.4140   33.7340 C   0  0  2  0  0  0  0  0  0  0  0  0
   38.4640   24.7780   31.2660 C   0  0  0  0  0  0  0  0  0  0  0  0
   38.0790   23.7730   30.4700 N   0  0  0  0  0  0  0  0  0  0  0  0
   38.6920   23.8470   29.3410 O   0  0  0  0  0  0  0  0  0  0  0  0
   39.4950   24.8660   29.3130 C   0  0  0  0  0  0  0  0  0  0  0  0
   39.3600   25.4490   30.5050 N   0  0  0  0  0  0  0  0  0  0  0  0
   40.5220   25.2990   27.9100 S   0  0  0  0  0  0  0  0  0  0  0  0
   37.8620   23.1610   33.6540 C   0  0  0  0  0  0  0  0  0  0  0  0
   36.9010   23.4500   32.7410 F   0  0  0  0  0  0  0  0  0  0  0  0
   37.4940   22.6130   34.8170 F   0  0  0  0  0  0  0  0  0  0  0  0
   38.6600   22.1800   32.9920 F   0  0  0  0  0  0  0  0  0  0  0  0
   39.9870   24.1600   33.3160 O   0  0  0  0  0  0  0  0  0  0  0  0
   41.1060   24.7660   33.5000 C   0  0  0  0  0  0  0  0  0  0  0  0
   40.8830   26.1490   33.4400 F   0  0  0  0  0  0  0  0  0  0  0  0
   41.9730   24.5500   32.4200 F   0  0  0  0  0  0  0  0  0  0  0  0
   41.8550   24.6550   34.6320 F   0  0  0  0  0  0  0  0  0  0  0  0
   40.6088   22.1947   37.6235 H   0  0  0  0  0  0  0  0  0  0  0  0
   39.0779   22.6860   39.5987 H   0  0  0  0  0  0  0  0  0  0  0  0
   37.2446   24.3738   39.2626 H   0  0  0  0  0  0  0  0  0  0  0  0
   37.2722   26.5851   35.8954 H   0  0  0  0  0  0  0  0  0  0  0  0
   38.7415   27.1834   35.0395 H   0  0  0  0  0  0  0  0  0  0  0  0
   36.0858   27.0603   34.1030 H   0  0  0  0  0  0  0  0  0  0  0  0
   37.6270   27.5132   33.2125 H   0  0  0  0  0  0  0  0  0  0  0  0
   38.7886   26.2349   32.4804 H   0  0  0  0  0  0  0  0  0  0  0  0
   41.7157   25.8023   28.3559 H   0  0  0  0  0  0  0  0  0  0  0  0
  1  2  2  0
  3  2  1  0
  4  3  2  0
  5  6  2  0
  5  4  1  0
  6  1  1  0
  7  8  1  0
  7  5  1  0
  9  8  1  0
 10  9  1  0
 11 10  1  0
 11 12  1  0
 12 23  1  6
 12  7  1  0
 13 11  1  0
 14 13  2  0
 15 14  1  0
 16 15  1  0
 16 17  2  0
 17 13  1  0
 18 16  1  0
 19 12  1  0
 19 21  1  0
 20 19  1  0
 22 19  1  0
 23 24  1  0
 24 27  1  0
 25 24  1  0
 26 24  1  0
  1 28  1  0
  2 29  1  0
  3 30  1  0
  8 31  1  0
  8 32  1  0
  9 33  1  0
  9 34  1  0
 11 35  1  6
 18 36  1  0
M  ISO  8  28  14  29  14  30  14  31  13  32  13  33  13  34  13  35  13
M  ISO  1  36  11
M  END
>  <minimizedAffinity>  (1) 
-4.96353149

>  <minimizedRMSD>  (1) 
0.0764520243

$$$$
