
     RDKit          3D

 26 28  0  0  0  0  0  0  0  0999 V2000
   39.0320   23.2240   34.3870 C   0  0  0  0  0  0  0  0  0  0  0  0
   40.1070   22.5760   33.9450 N   0  0  0  0  0  0  0  0  0  0  0  0
   41.0080   22.0530   34.7720 C   0  0  0  0  0  0  0  0  0  0  0  0
   40.9120   22.1320   36.1310 N   0  0  0  0  0  0  0  0  0  0  0  0
   39.8310   22.7850   36.6490 C   0  0  0  0  0  0  0  0  0  0  0  0
   39.7320   22.8650   38.0160 C   0  0  0  0  0  0  0  0  0  0  0  0
   38.6620   23.5110   38.5840 C   0  0  0  0  0  0  0  0  0  0  0  0
   37.7130   24.0630   37.7270 C   0  0  0  0  0  0  0  0  0  0  0  0
   37.8910   23.9350   36.3680 C   0  0  0  0  0  0  0  0  0  0  0  0
   38.9260   23.3080   35.7550 C   0  0  0  0  0  0  0  0  0  0  0  0
   38.0160   23.8150   33.4860 C   0  0  0  0  0  0  0  0  0  0  0  0
   37.3020   22.8380   32.7960 C   0  0  0  0  0  0  0  0  0  0  0  0
   36.3020   23.1190   31.8980 C   0  0  0  0  0  0  0  0  0  0  0  0
   36.0240   24.4320   31.7000 N   0  0  0  0  0  0  0  0  0  0  0  0
   36.7020   25.3960   32.3550 C   0  0  0  0  0  0  0  0  0  0  0  0
   37.6540   25.0660   33.2090 N   0  0  0  0  0  0  0  0  0  0  0  0
   35.5890   22.1330   31.2080 N   0  0  0  0  0  0  0  0  0  0  0  0
   41.8738   21.5307   34.3388 H   0  0  0  0  0  0  0  0  0  0  0  0
   40.5066   22.4135   38.6533 H   0  0  0  0  0  0  0  0  0  0  0  0
   38.5580   23.5898   39.6762 H   0  0  0  0  0  0  0  0  0  0  0  0
   36.8364   24.5921   38.1291 H   0  0  0  0  0  0  0  0  0  0  0  0
   37.1233   24.3823   35.7195 H   0  0  0  0  0  0  0  0  0  0  0  0
   37.5532   21.7831   32.9807 H   0  0  0  0  0  0  0  0  0  0  0  0
   36.4628   26.4551   32.1785 H   0  0  0  0  0  0  0  0  0  0  0  0
   34.8480   22.4021   30.5451 H   0  0  0  0  0  0  0  0  0  0  0  0
   35.8050   21.1379   31.3628 H   0  0  0  0  0  0  0  0  0  0  0  0
  1 10  1  0
  2  1  2  0
  2  3  1  0
  3  4  2  0
  4  5  1  0
  5  6  2  0
  6  7  1  0
  8  7  2  0
  9  8  1  0
 10  9  2  0
 10  5  1  0
 11  1  1  0
 12 11  2  0
 13 12  1  0
 14 13  2  0
 14 15  1  0
 15 16  2  0
 16 11  1  0
 17 13  1  0
  3 18  1  0
  6 19  1  0
  7 20  1  0
  8 21  1  0
  9 22  1  0
 12 23  1  0
 15 24  1  0
 17 25  1  0
 17 26  1  0
M  ISO  7  18  14  19  14  20  14  21  14  22  14  23  14  24  14
M  END
>  <minimizedAffinity>  (1) 
-4.85192633

>  <minimizedRMSD>  (1) 
5.03608751

$$$$
