
     RDKit          3D

 41 45  0  0  0  0  0  0  0  0999 V2000
   38.7690   24.0130   35.8260 C   0  0  0  0  0  0  0  0  0  0  0  0
   40.1200   23.6820   35.6410 C   0  0  0  0  0  0  0  0  0  0  0  0
   40.8450   24.4210   34.6710 C   0  0  0  0  0  0  0  0  0  0  0  0
   40.1900   25.3880   33.9940 N   0  0  0  0  0  0  0  0  0  0  0  0
   38.8840   25.6770   34.2000 C   0  0  0  0  0  0  0  0  0  0  0  0
   38.1880   24.9920   35.1080 N   0  0  0  0  0  0  0  0  0  0  0  0
   38.1730   26.6920   33.4980 N   0  0  0  0  0  0  0  0  0  0  0  0
   37.0300   27.2550   33.8790 C   0  0  0  0  0  0  0  0  0  0  0  0
   36.4650   28.2280   33.0840 C   0  0  0  0  0  0  0  0  0  0  0  0
   37.0620   28.6110   31.9270 C   0  0  0  0  0  0  0  0  0  0  0  0
   36.5730   29.5000   31.1750 O   0  0  0  0  0  0  0  0  0  0  0  0
   38.2110   28.0280   31.5660 N   0  0  0  0  0  0  0  0  0  0  0  0
   38.7740   27.0690   32.3440 C   0  0  0  0  0  0  0  0  0  0  0  0
   39.8690   26.5880   31.8960 O   0  0  0  0  0  0  0  0  0  0  0  0
   38.8210   28.4370   30.3370 C   0  0  0  0  0  0  0  0  0  0  0  0
   40.0460   27.9860   29.9630 N   0  0  0  0  0  0  0  0  0  0  0  0
   40.3780   28.4840   28.8110 O   0  0  0  0  0  0  0  0  0  0  0  0
   39.3680   29.2440   28.4610 C   0  0  0  0  0  0  0  0  0  0  0  0
   38.3800   29.2430   29.3800 N   0  0  0  0  0  0  0  0  0  0  0  0
   39.3080   30.0000   27.2350 N   0  0  0  0  0  0  0  0  0  0  0  0
   40.1500   29.9140   26.1840 C   0  0  0  0  0  0  0  0  0  0  0  0
   39.7270   30.8060   25.2390 N   0  0  0  0  0  0  0  0  0  0  0  0
   38.6490   31.4120   25.7220 C   0  0  0  0  0  0  0  0  0  0  0  0
   37.7840   32.3850   25.2690 C   0  0  0  0  0  0  0  0  0  0  0  0
   36.7450   32.8330   25.9690 N   0  0  0  0  0  0  0  0  0  0  0  0
   36.4950   32.3240   27.2100 C   0  0  0  0  0  0  0  0  0  0  0  0
   37.3040   31.3720   27.7080 N   0  0  0  0  0  0  0  0  0  0  0  0
   38.3430   30.9340   26.9880 C   0  0  0  0  0  0  0  0  0  0  0  0
   37.9640   23.2550   36.8440 C   0  0  0  0  0  0  0  0  0  0  0  0
   38.7390   22.9160   37.9490 F   0  0  0  0  0  0  0  0  0  0  0  0
   36.9410   24.0550   37.3120 F   0  0  0  0  0  0  0  0  0  0  0  0
   37.4410   22.1260   36.2500 F   0  0  0  0  0  0  0  0  0  0  0  0
   37.9560   32.9720   24.0030 N   0  0  0  0  0  0  0  0  0  0  0  0
   40.5979   22.8815   36.2248 H   0  0  0  0  0  0  0  0  0  0  0  0
   41.9074   24.2126   34.4766 H   0  0  0  0  0  0  0  0  0  0  0  0
   36.5424   26.9480   34.8160 H   0  0  0  0  0  0  0  0  0  0  0  0
   35.5196   28.6996   33.3904 H   0  0  0  0  0  0  0  0  0  0  0  0
   41.0202   29.2461   26.1026 H   0  0  0  0  0  0  0  0  0  0  0  0
   35.6397   32.6889   27.7977 H   0  0  0  0  0  0  0  0  0  0  0  0
   37.3012   33.6979   23.6786 H   0  0  0  0  0  0  0  0  0  0  0  0
   38.7368   32.6761   23.3999 H   0  0  0  0  0  0  0  0  0  0  0  0
  1 29  1  0
  2  1  2  0
  3  2  1  0
  4  5  1  0
  4  3  2  0
  5  6  2  0
  6  1  1  0
  7  8  1  0
  7  5  1  0
  9  8  2  0
 10  9  1  0
 11 10  2  0
 12 10  1  0
 12 13  1  0
 13  7  1  0
 14 13  2  0
 15 12  1  0
 16 15  2  0
 17 16  1  0
 18 17  1  0
 18 19  2  0
 19 15  1  0
 20 18  1  0
 21 20  1  0
 22 23  1  0
 22 21  2  0
 23 28  2  0
 24 23  1  0
 24 25  2  0
 25 26  1  0
 26 27  2  0
 28 20  1  0
 28 27  1  0
 29 31  1  0
 29 30  1  0
 32 29  1  0
 33 24  1  0
  2 34  1  0
  3 35  1  0
  8 36  1  0
  9 37  1  0
 21 38  1  0
 26 39  1  0
 33 40  1  0
 33 41  1  0
M  ISO  6  34  14  35  14  36  14  37  14  38  14  39  14
M  END
>  <minimizedAffinity>  (1) 
-6.10944796

>  <minimizedRMSD>  (1) 
1.59468746

$$$$
