
     RDKit          3D

 38 40  0  0  1  0  0  0  0  0999 V2000
   39.8030   22.9300   37.5170 C   0  0  0  0  0  0  0  0  0  0  0  0
   38.9530   23.1910   38.6320 C   0  0  0  0  0  0  0  0  0  0  0  0
   37.9410   24.1130   38.4460 C   0  0  0  0  0  0  0  0  0  0  0  0
   37.8260   24.7010   37.2240 N   0  0  0  0  0  0  0  0  0  0  0  0
   38.6710   24.4120   36.1880 C   0  0  0  0  0  0  0  0  0  0  0  0
   39.6350   23.5410   36.3480 N   0  0  0  0  0  0  0  0  0  0  0  0
   38.4440   25.0970   34.9590 N   0  0  0  0  0  0  0  0  0  0  0  0
   37.9080   26.4590   34.9960 C   0  0  0  0  0  0  0  0  0  0  0  0
   37.0860   26.7230   33.7780 C   0  0  0  0  0  0  0  0  0  0  0  0
   36.9370   25.6320   32.9150 O   0  0  0  0  0  0  0  0  0  0  0  0
   38.2160   25.2810   32.5780 C   0  0  1  0  0  0  0  0  0  0  0  0
   38.7580   24.4000   33.7310 C   0  0  2  0  0  0  0  0  0  0  0  0
   38.4590   24.7590   31.2630 C   0  0  0  0  0  0  0  0  0  0  0  0
   38.0570   23.7640   30.4610 N   0  0  0  0  0  0  0  0  0  0  0  0
   38.6800   23.8310   29.3350 O   0  0  0  0  0  0  0  0  0  0  0  0
   39.5030   24.8340   29.3160 C   0  0  0  0  0  0  0  0  0  0  0  0
   39.3710   25.4130   30.5080 N   0  0  0  0  0  0  0  0  0  0  0  0
   40.3700   25.1790   28.1530 C   0  0  0  0  0  0  0  0  0  0  0  0
   37.8630   23.1460   33.6580 C   0  0  0  0  0  0  0  0  0  0  0  0
   36.9000   23.4320   32.7450 F   0  0  0  0  0  0  0  0  0  0  0  0
   37.4940   22.6000   34.8190 F   0  0  0  0  0  0  0  0  0  0  0  0
   38.6590   22.1640   32.9930 F   0  0  0  0  0  0  0  0  0  0  0  0
   39.9860   24.1390   33.3080 O   0  0  0  0  0  0  0  0  0  0  0  0
   41.1040   24.7500   33.4900 C   0  0  0  0  0  0  0  0  0  0  0  0
   40.8790   26.1330   33.4470 F   0  0  0  0  0  0  0  0  0  0  0  0
   41.9650   24.5460   32.4030 F   0  0  0  0  0  0  0  0  0  0  0  0
   41.8630   24.6260   34.6150 F   0  0  0  0  0  0  0  0  0  0  0  0
   40.6208   22.2026   37.6272 H   0  0  0  0  0  0  0  0  0  0  0  0
   39.0966   22.6814   39.5962 H   0  0  0  0  0  0  0  0  0  0  0  0
   37.2480   24.3647   39.2623 H   0  0  0  0  0  0  0  0  0  0  0  0
   37.2798   26.5780   35.8911 H   0  0  0  0  0  0  0  0  0  0  0  0
   38.7442   27.1730   35.0263 H   0  0  0  0  0  0  0  0  0  0  0  0
   36.0841   27.0384   34.1047 H   0  0  0  0  0  0  0  0  0  0  0  0
   37.6234   27.4944   33.2069 H   0  0  0  0  0  0  0  0  0  0  0  0
   38.7895   26.2140   32.4750 H   0  0  0  0  0  0  0  0  0  0  0  0
   41.3348   25.5629   28.5160 H   0  0  0  0  0  0  0  0  0  0  0  0
   40.5395   24.2798   27.5425 H   0  0  0  0  0  0  0  0  0  0  0  0
   39.8753   25.9488   27.5425 H   0  0  0  0  0  0  0  0  0  0  0  0
  1  2  2  0
  3  2  1  0
  4  3  2  0
  5  6  2  0
  5  4  1  0
  6  1  1  0
  7  8  1  0
  7  5  1  0
  9  8  1  0
 10  9  1  0
 11 10  1  0
 11 12  1  0
 12 23  1  6
 12  7  1  0
 13 11  1  0
 14 13  2  0
 15 14  1  0
 16 15  1  0
 16 17  2  0
 17 13  1  0
 18 16  1  0
 19 12  1  0
 19 21  1  0
 20 19  1  0
 22 19  1  0
 23 24  1  0
 24 27  1  0
 25 24  1  0
 26 24  1  0
  1 28  1  0
  2 29  1  0
  3 30  1  0
  8 31  1  0
  8 32  1  0
  9 33  1  0
  9 34  1  0
 11 35  1  6
 18 36  1  0
 18 37  1  0
 18 38  1  0
M  ISO  8  28  14  29  14  30  14  31  13  32  13  33  13  34  13  35  13
M  ISO  3  36   8  37   8  38   8
M  END
>  <minimizedAffinity>  (1) 
-4.95750618

>  <minimizedRMSD>  (1) 
0.0920946822

$$$$
