
     RDKit          3D

 25 26  0  0  0  0  0  0  0  0999 V2000
   40.1510   22.5030   36.6010 C   0  0  0  0  0  0  0  0  0  0  0  0
   39.7110   23.2390   37.7040 C   0  0  0  0  0  0  0  0  0  0  0  0
   38.3570   23.4880   37.8480 C   0  0  0  0  0  0  0  0  0  0  0  0
   37.5050   23.0020   36.9060 N   0  0  0  0  0  0  0  0  0  0  0  0
   37.9490   22.2920   35.8450 C   0  0  0  0  0  0  0  0  0  0  0  0
   39.2690   22.0490   35.7030 N   0  0  0  0  0  0  0  0  0  0  0  0
   37.7560   24.2150   38.9040 N   0  0  0  0  0  0  0  0  0  0  0  0
   44.3520   21.8830   36.0210 C   0  0  0  0  0  0  0  0  0  0  0  0
   43.7240   23.1010   35.8700 C   0  0  0  0  0  0  0  0  0  0  0  0
   42.3680   23.2890   36.0600 C   0  0  0  0  0  0  0  0  0  0  0  0
   41.5610   22.2250   36.4210 C   0  0  0  0  0  0  0  0  0  0  0  0
   42.1660   21.0190   36.5720 C   0  0  0  0  0  0  0  0  0  0  0  0
   43.5240   20.8350   36.3810 C   0  0  0  0  0  0  0  0  0  0  0  0
   46.0550   21.6850   35.7750 S   0  0  0  0  0  0  0  0  0  0  0  0
   46.7590   22.8250   36.4900 O   0  0  0  0  0  0  0  0  0  0  0  0
   46.5500   20.4160   36.4120 O   0  0  0  0  0  0  0  0  0  0  0  0
   40.4298   23.6150   38.4469 H   0  0  0  0  0  0  0  0  0  0  0  0
   37.2356   21.9128   35.0984 H   0  0  0  0  0  0  0  0  0  0  0  0
   36.7346   24.3468   38.9225 H   0  0  0  0  0  0  0  0  0  0  0  0
   38.3402   24.6120   39.6537 H   0  0  0  0  0  0  0  0  0  0  0  0
   44.3348   23.9696   35.5830 H   0  0  0  0  0  0  0  0  0  0  0  0
   41.9289   24.2883   35.9237 H   0  0  0  0  0  0  0  0  0  0  0  0
   41.5514   20.1527   36.8579 H   0  0  0  0  0  0  0  0  0  0  0  0
   43.9551   19.8324   36.5186 H   0  0  0  0  0  0  0  0  0  0  0  0
   46.3026   21.6576   34.4278 H   0  0  0  0  0  0  0  0  0  0  0  0
  1  2  2  0
  2  3  1  0
  3  7  1  0
  4  3  2  0
  5  4  1  0
  6  5  2  0
  6  1  1  0
  8 13  2  0
  9  8  1  0
  9 10  2  0
 10 11  1  0
 11 12  2  0
 11  1  1  0
 13 12  1  0
 14  8  1  0
 14 16  2  0
 14 15  2  0
  2 17  1  0
  5 18  1  0
  7 19  1  0
  7 20  1  0
  9 21  1  0
 10 22  1  0
 12 23  1  0
 13 24  1  0
 14 25  1  0
M  ISO  7  17  14  18  14  21  14  22  14  23  14  24  14  25  11
M  END
>  <minimizedAffinity>  (1) 
-3.91812038

>  <minimizedRMSD>  (1) 
1.40999365

$$$$
