
     RDKit          3D

 23 25  0  0  0  0  0  0  0  0999 V2000
   39.9830   22.4380   36.8280 C   0  0  0  0  0  0  0  0  0  0  0  0
   39.6220   23.2440   37.9060 C   0  0  0  0  0  0  0  0  0  0  0  0
   38.2960   23.6400   37.9840 C   0  0  0  0  0  0  0  0  0  0  0  0
   37.4080   23.2330   37.0170 N   0  0  0  0  0  0  0  0  0  0  0  0
   37.8100   22.4460   35.9860 C   0  0  0  0  0  0  0  0  0  0  0  0
   39.0970   22.0530   35.8970 N   0  0  0  0  0  0  0  0  0  0  0  0
   37.7420   24.4620   39.0080 N   0  0  0  0  0  0  0  0  0  0  0  0
   41.3660   22.0330   36.7600 N   0  0  0  0  0  0  0  0  0  0  0  0
   42.0320   20.9100   37.1150 C   0  0  0  0  0  0  0  0  0  0  0  0
   43.3390   21.1060   36.8100 N   0  0  0  0  0  0  0  0  0  0  0  0
   43.4870   22.3310   36.2750 C   0  0  0  0  0  0  0  0  0  0  0  0
   44.6200   22.9710   35.8160 C   0  0  0  0  0  0  0  0  0  0  0  0
   44.5080   24.2240   35.3130 N   0  0  0  0  0  0  0  0  0  0  0  0
   43.2950   24.8110   35.2760 C   0  0  0  0  0  0  0  0  0  0  0  0
   42.2050   24.1710   35.7280 N   0  0  0  0  0  0  0  0  0  0  0  0
   42.2390   22.9170   36.2440 C   0  0  0  0  0  0  0  0  0  0  0  0
   40.3581   23.5528   38.6628 H   0  0  0  0  0  0  0  0  0  0  0  0
   37.0848   22.1285   35.2223 H   0  0  0  0  0  0  0  0  0  0  0  0
   36.7419   24.7075   38.9866 H   0  0  0  0  0  0  0  0  0  0  0  0
   38.3417   24.8105   39.7694 H   0  0  0  0  0  0  0  0  0  0  0  0
   41.5952   20.0070   37.5665 H   0  0  0  0  0  0  0  0  0  0  0  0
   45.5992   22.4715   35.8578 H   0  0  0  0  0  0  0  0  0  0  0  0
   43.1970   25.8285   34.8698 H   0  0  0  0  0  0  0  0  0  0  0  0
  1  2  2  0
  2  3  1  0
  3  7  1  0
  4  3  2  0
  5  4  1  0
  6  5  2  0
  6  1  1  0
  8  1  1  0
  8  9  1  0
 10  9  2  0
 11 10  1  0
 12 11  2  0
 13 12  1  0
 14 13  2  0
 14 15  1  0
 15 16  2  0
 16 11  1  0
 16  8  1  0
  2 17  1  0
  5 18  1  0
  7 19  1  0
  7 20  1  0
  9 21  1  0
 12 22  1  0
 14 23  1  0
M  ISO  5  17  14  18  14  21  14  22  14  23  14
M  END
>  <minimizedAffinity>  (1) 
-4.02769184

>  <minimizedRMSD>  (1) 
0.772153497

$$$$
