
     RDKit          3D

 21 21  0  0  0  0  0  0  0  0999 V2000
   38.9130   24.6210   36.1670 C   0  0  0  0  0  0  0  0  0  0  0  0
   39.8110   23.5610   36.3210 C   0  0  0  0  0  0  0  0  0  0  0  0
   39.7430   22.8280   37.4980 C   0  0  0  0  0  0  0  0  0  0  0  0
   38.8220   23.1510   38.4550 N   0  0  0  0  0  0  0  0  0  0  0  0
   37.9640   24.1990   38.2550 C   0  0  0  0  0  0  0  0  0  0  0  0
   38.0130   24.9140   37.1340 N   0  0  0  0  0  0  0  0  0  0  0  0
   40.5700   21.7250   37.8260 N   0  0  0  0  0  0  0  0  0  0  0  0
   39.0460   25.3480   34.8950 C   0  0  0  0  0  0  0  0  0  0  0  0
   39.3780   26.7950   35.2140 C   0  0  0  0  0  0  0  0  0  0  0  0
   37.8420   25.2550   34.0080 C   0  0  0  0  0  0  0  0  0  0  0  0
   40.5445   23.3166   35.5385 H   0  0  0  0  0  0  0  0  0  0  0  0
   37.2257   24.4528   39.0299 H   0  0  0  0  0  0  0  0  0  0  0  0
   40.4477   21.2393   38.7260 H   0  0  0  0  0  0  0  0  0  0  0  0
   41.2934   21.4090   37.1644 H   0  0  0  0  0  0  0  0  0  0  0  0
   39.8534   24.8737   34.3178 H   0  0  0  0  0  0  0  0  0  0  0  0
   39.4094   26.9320   36.3050 H   0  0  0  0  0  0  0  0  0  0  0  0
   40.3579   27.0497   34.7841 H   0  0  0  0  0  0  0  0  0  0  0  0
   38.6071   27.4514   34.7841 H   0  0  0  0  0  0  0  0  0  0  0  0
   36.9352   25.1850   34.6268 H   0  0  0  0  0  0  0  0  0  0  0  0
   37.7843   26.1514   33.3730 H   0  0  0  0  0  0  0  0  0  0  0  0
   37.9226   24.3604   33.3730 H   0  0  0  0  0  0  0  0  0  0  0  0
  1  2  2  0
  1  6  1  0
  2  3  1  0
  3  7  1  0
  3  4  2  0
  5  4  1  0
  6  5  2  0
  8  9  1  0
  8  1  1  0
 10  8  1  0
  2 11  1  0
  5 12  1  0
  7 13  1  0
  7 14  1  0
  8 15  1  0
  9 16  1  0
  9 17  1  0
  9 18  1  0
 10 19  1  0
 10 20  1  0
 10 21  1  0
M  ISO  8  11  14  12  14  15   8  16   8  17   8  18   8  19   8  20   8
M  ISO  1  21   8
M  END
>  <minimizedAffinity>  (1) 
-3.89053726

>  <minimizedRMSD>  (1) 
4.17321682

$$$$
