
     RDKit          3D

 24 25  0  0  0  0  0  0  0  0999 V2000
   38.2940   23.1680   35.4240 C   0  0  0  0  0  0  0  0  0  0  0  0
   39.3210   22.3520   35.8860 C   0  0  0  0  0  0  0  0  0  0  0  0
   39.6770   22.4470   37.2390 C   0  0  0  0  0  0  0  0  0  0  0  0
   38.9970   23.3360   38.0350 N   0  0  0  0  0  0  0  0  0  0  0  0
   37.9990   24.1130   37.5340 C   0  0  0  0  0  0  0  0  0  0  0  0
   37.6620   24.0190   36.2400 N   0  0  0  0  0  0  0  0  0  0  0  0
   40.6950   21.6900   37.8660 N   0  0  0  0  0  0  0  0  0  0  0  0
   37.9250   23.0790   34.0520 N   0  0  0  0  0  0  0  0  0  0  0  0
   38.1640   24.0670   33.0170 C   0  0  0  0  0  0  0  0  0  0  0  0
   36.8410   23.9400   32.2510 C   0  0  0  0  0  0  0  0  0  0  0  0
   36.8550   22.4400   32.0470 C   0  0  0  0  0  0  0  0  0  0  0  0
   37.2320   21.9630   33.4330 C   0  0  0  0  0  0  0  0  0  0  0  0
   39.8379   21.6539   35.2112 H   0  0  0  0  0  0  0  0  0  0  0  0
   37.4686   24.8183   38.1907 H   0  0  0  0  0  0  0  0  0  0  0  0
   40.8923   21.8227   38.8682 H   0  0  0  0  0  0  0  0  0  0  0  0
   41.2387   21.0063   37.3202 H   0  0  0  0  0  0  0  0  0  0  0  0
   38.3036   25.0753   33.4341 H   0  0  0  0  0  0  0  0  0  0  0  0
   39.0734   23.9127   32.4177 H   0  0  0  0  0  0  0  0  0  0  0  0
   35.9798   24.2704   32.8503 H   0  0  0  0  0  0  0  0  0  0  0  0
   36.7520   24.5491   31.3394 H   0  0  0  0  0  0  0  0  0  0  0  0
   35.8661   22.0642   31.7456 H   0  0  0  0  0  0  0  0  0  0  0  0
   37.5314   22.0973   31.2501 H   0  0  0  0  0  0  0  0  0  0  0  0
   36.3313   21.7029   34.0083 H   0  0  0  0  0  0  0  0  0  0  0  0
   37.8608   21.0612   33.3973 H   0  0  0  0  0  0  0  0  0  0  0  0
  1  2  2  0
  1  6  1  0
  2  3  1  0
  3  7  1  0
  3  4  2  0
  5  4  1  0
  6  5  2  0
  8  1  1  0
  9  8  1  0
 10  9  1  0
 11 10  1  0
 11 12  1  0
 12  8  1  0
  2 13  1  0
  5 14  1  0
  7 15  1  0
  7 16  1  0
  9 17  1  0
  9 18  1  0
 10 19  1  0
 10 20  1  0
 11 21  1  0
 11 22  1  0
 12 23  1  0
 12 24  1  0
M  ISO  8  13  14  14  14  17  13  18  13  19  13  20  13  21  13  22  13
M  ISO  2  23  13  24  13
M  END
>  <minimizedAffinity>  (1) 
-3.7865715

>  <minimizedRMSD>  (1) 
4.96656752

$$$$
