
     RDKit          3D

 19 20  0  0  0  0  0  0  0  0999 V2000
   39.8570   22.2830   36.8470 C   0  0  0  0  0  0  0  0  0  0  0  0
   39.5950   23.1370   37.9260 C   0  0  0  0  0  0  0  0  0  0  0  0
   38.3650   23.7870   37.9540 C   0  0  0  0  0  0  0  0  0  0  0  0
   37.4660   23.5750   36.9430 N   0  0  0  0  0  0  0  0  0  0  0  0
   37.7690   22.7320   35.9130 C   0  0  0  0  0  0  0  0  0  0  0  0
   38.9450   22.1080   35.8820 N   0  0  0  0  0  0  0  0  0  0  0  0
   37.9440   24.6800   38.9700 N   0  0  0  0  0  0  0  0  0  0  0  0
   41.1410   21.6080   36.8240 C   0  0  0  0  0  0  0  0  0  0  0  0
   41.9700   21.5310   35.7270 C   0  0  0  0  0  0  0  0  0  0  0  0
   43.0990   20.8160   36.0720 C   0  0  0  0  0  0  0  0  0  0  0  0
   42.8950   20.4900   37.3850 C   0  0  0  0  0  0  0  0  0  0  0  0
   41.7240   20.9780   37.7910 O   0  0  0  0  0  0  0  0  0  0  0  0
   40.3365   23.2887   38.7242 H   0  0  0  0  0  0  0  0  0  0  0  0
   37.0396   22.5676   35.1062 H   0  0  0  0  0  0  0  0  0  0  0  0
   37.0147   25.1208   38.9156 H   0  0  0  0  0  0  0  0  0  0  0  0
   38.5672   24.8885   39.7631 H   0  0  0  0  0  0  0  0  0  0  0  0
   41.7659   21.9676   34.7382 H   0  0  0  0  0  0  0  0  0  0  0  0
   43.9627   20.5662   35.4382 H   0  0  0  0  0  0  0  0  0  0  0  0
   43.5920   19.9127   38.0102 H   0  0  0  0  0  0  0  0  0  0  0  0
  1  2  2  0
  2  3  1  0
  3  7  1  0
  4  3  2  0
  5  4  1  0
  6  5  2  0
  6  1  1  0
  8  1  1  0
  8 12  1  0
  9 10  1  0
  9  8  2  0
 10 11  2  0
 11 12  1  0
  2 13  1  0
  5 14  1  0
  7 15  1  0
  7 16  1  0
  9 17  1  0
 10 18  1  0
 11 19  1  0
M  ISO  5  13  14  14  14  17  14  18  14  19  14
M  END
>  <minimizedAffinity>  (1) 
-3.61475825

>  <minimizedRMSD>  (1) 
0.451982856

$$$$
