
     RDKit          3D

 19 20  0  0  0  0  0  0  0  0999 V2000
   39.9200   22.1940   36.6790 C   0  0  0  0  0  0  0  0  0  0  0  0
   39.6960   23.0060   37.7930 C   0  0  0  0  0  0  0  0  0  0  0  0
   38.4360   23.5850   37.9450 C   0  0  0  0  0  0  0  0  0  0  0  0
   37.4890   23.3330   37.0030 N   0  0  0  0  0  0  0  0  0  0  0  0
   37.7380   22.5410   35.9300 C   0  0  0  0  0  0  0  0  0  0  0  0
   38.9430   21.9890   35.7900 N   0  0  0  0  0  0  0  0  0  0  0  0
   38.0170   24.4310   38.9990 N   0  0  0  0  0  0  0  0  0  0  0  0
   41.2050   21.6090   36.5350 N   0  0  0  0  0  0  0  0  0  0  0  0
   42.0570   21.0050   37.3590 C   0  0  0  0  0  0  0  0  0  0  0  0
   43.2030   20.6080   36.6990 C   0  0  0  0  0  0  0  0  0  0  0  0
   43.0280   20.9970   35.4030 N   0  0  0  0  0  0  0  0  0  0  0  0
   41.8270   21.5940   35.3230 C   0  0  0  0  0  0  0  0  0  0  0  0
   40.4920   23.1842   38.5310 H   0  0  0  0  0  0  0  0  0  0  0  0
   36.9526   22.3561   35.1824 H   0  0  0  0  0  0  0  0  0  0  0  0
   37.0568   24.8037   39.0096 H   0  0  0  0  0  0  0  0  0  0  0  0
   38.6722   24.6742   39.7557 H   0  0  0  0  0  0  0  0  0  0  0  0
   41.8719   20.8423   38.4310 H   0  0  0  0  0  0  0  0  0  0  0  0
   44.0727   20.0883   37.1273 H   0  0  0  0  0  0  0  0  0  0  0  0
   41.4018   22.0153   34.4001 H   0  0  0  0  0  0  0  0  0  0  0  0
  1  2  2  0
  2  3  1  0
  3  7  1  0
  4  3  2  0
  5  4  1  0
  6  5  2  0
  6  1  1  0
  8  1  1  0
  8  9  1  0
 10  9  2  0
 11 10  1  0
 12 11  2  0
 12  8  1  0
  2 13  1  0
  5 14  1  0
  7 15  1  0
  7 16  1  0
  9 17  1  0
 10 18  1  0
 12 19  1  0
M  ISO  5  13  14  14  14  17  14  18  14  19  14
M  END
>  <minimizedAffinity>  (1) 
-3.48209643

>  <minimizedRMSD>  (1) 
0.578338146

$$$$
