
     RDKit          3D

 13 13  0  0  0  0  0  0  0  0999 V2000
   40.0590   22.1390   37.1940 C   0  0  0  0  0  0  0  0  0  0  0  0
   39.5870   23.0030   38.1940 C   0  0  0  0  0  0  0  0  0  0  0  0
   38.4730   23.7810   37.9050 C   0  0  0  0  0  0  0  0  0  0  0  0
   37.8830   23.6790   36.6740 N   0  0  0  0  0  0  0  0  0  0  0  0
   38.3750   22.8270   35.7360 C   0  0  0  0  0  0  0  0  0  0  0  0
   39.4470   22.0740   36.0010 N   0  0  0  0  0  0  0  0  0  0  0  0
   37.8640   24.7030   38.7930 N   0  0  0  0  0  0  0  0  0  0  0  0
   41.1720   21.3790   37.5190 O   0  0  0  0  0  0  0  0  0  0  0  0
   40.0827   23.0622   39.1742 H   0  0  0  0  0  0  0  0  0  0  0  0
   37.8877   22.7568   34.7524 H   0  0  0  0  0  0  0  0  0  0  0  0
   37.0376   25.2390   38.4919 H   0  0  0  0  0  0  0  0  0  0  0  0
   38.2479   24.8370   39.7393 H   0  0  0  0  0  0  0  0  0  0  0  0
   41.5529   20.7503   36.8559 H   0  0  0  0  0  0  0  0  0  0  0  0
  1  8  1  0
  1  2  2  0
  3  2  1  0
  3  7  1  0
  4  3  2  0
  5  6  2  0
  5  4  1  0
  6  1  1  0
  2  9  1  0
  5 10  1  0
  7 11  1  0
  7 12  1  0
  8 13  1  0
M  ISO  3   9  14  10  14  13   3
M  END
>  <minimizedAffinity>  (1) 
-3.08043051

>  <minimizedRMSD>  (1) 
0.415408373

$$$$
