
     RDKit          3D

 15 15  0  0  0  0  0  0  0  0999 V2000
   40.1010   22.2280   36.9940 C   0  0  0  0  0  0  0  0  0  0  0  0
   39.6970   23.0700   38.0310 C   0  0  0  0  0  0  0  0  0  0  0  0
   38.4610   23.7020   37.9030 C   0  0  0  0  0  0  0  0  0  0  0  0
   37.7070   23.4720   36.7770 N   0  0  0  0  0  0  0  0  0  0  0  0
   38.1490   22.6440   35.8030 C   0  0  0  0  0  0  0  0  0  0  0  0
   39.3370   22.0310   35.9160 N   0  0  0  0  0  0  0  0  0  0  0  0
   37.8800   24.5900   38.8440 N   0  0  0  0  0  0  0  0  0  0  0  0
   41.4380   21.5710   37.1790 C   0  0  0  0  0  0  0  0  0  0  0  0
   40.3302   23.2291   38.9163 H   0  0  0  0  0  0  0  0  0  0  0  0
   37.5292   22.4718   34.9107 H   0  0  0  0  0  0  0  0  0  0  0  0
   36.9573   25.0075   38.6565 H   0  0  0  0  0  0  0  0  0  0  0  0
   38.3808   24.8173   39.7149 H   0  0  0  0  0  0  0  0  0  0  0  0
   41.6499   21.4669   38.2534 H   0  0  0  0  0  0  0  0  0  0  0  0
   41.4258   20.5763   36.7096 H   0  0  0  0  0  0  0  0  0  0  0  0
   42.2180   22.1884   36.7096 H   0  0  0  0  0  0  0  0  0  0  0  0
  1  8  1  0
  1  2  2  0
  3  2  1  0
  3  7  1  0
  4  3  2  0
  5  6  2  0
  5  4  1  0
  6  1  1  0
  2  9  1  0
  5 10  1  0
  7 11  1  0
  7 12  1  0
  8 13  1  0
  8 14  1  0
  8 15  1  0
M  ISO  5   9  14  10  14  13   8  14   8  15   8
M  END
>  <minimizedAffinity>  (1) 
-3.11862135

>  <minimizedRMSD>  (1) 
0.208360881

$$$$
