
     RDKit          3D

 25 26  0  0  0  0  0  0  0  0999 V2000
   38.0720   22.8860   35.4730 C   0  0  0  0  0  0  0  0  0  0  0  0
   38.0630   24.2980   34.9550 C   0  0  0  0  0  0  0  0  0  0  0  0
   38.3370   25.2950   35.9020 C   0  0  0  0  0  0  0  0  0  0  0  0
   38.3410   26.6130   35.4750 C   0  0  0  0  0  0  0  0  0  0  0  0
   38.0810   26.8850   34.1560 N   0  0  0  0  0  0  0  0  0  0  0  0
   37.8230   25.8790   33.2750 C   0  0  0  0  0  0  0  0  0  0  0  0
   37.8160   24.6060   33.6820 N   0  0  0  0  0  0  0  0  0  0  0  0
   38.5950   27.7380   36.2870 N   0  0  0  0  0  0  0  0  0  0  0  0
   39.4050   22.5020   35.8920 N   0  0  0  0  0  0  0  0  0  0  0  0
   39.8250   22.5710   37.1690 C   0  0  0  0  0  0  0  0  0  0  0  0
   41.1320   22.1750   37.4620 C   0  0  0  0  0  0  0  0  0  0  0  0
   41.9980   21.7190   36.4910 C   0  0  0  0  0  0  0  0  0  0  0  0
   43.1760   21.3600   36.7450 O   0  0  0  0  0  0  0  0  0  0  0  0
   41.5680   21.6520   35.2080 N   0  0  0  0  0  0  0  0  0  0  0  0
   40.3010   22.0450   34.9790 C   0  0  0  0  0  0  0  0  0  0  0  0
   39.8980   21.9830   33.7770 O   0  0  0  0  0  0  0  0  0  0  0  0
   37.7345   22.2070   34.6761 H   0  0  0  0  0  0  0  0  0  0  0  0
   37.3973   22.8232   36.3395 H   0  0  0  0  0  0  0  0  0  0  0  0
   38.5425   25.0386   36.9518 H   0  0  0  0  0  0  0  0  0  0  0  0
   37.6188   26.1160   32.2204 H   0  0  0  0  0  0  0  0  0  0  0  0
   38.5760   28.6831   35.8781 H   0  0  0  0  0  0  0  0  0  0  0  0
   38.7995   27.6144   37.2889 H   0  0  0  0  0  0  0  0  0  0  0  0
   39.1545   22.9309   37.9633 H   0  0  0  0  0  0  0  0  0  0  0  0
   41.4824   22.2288   38.5033 H   0  0  0  0  0  0  0  0  0  0  0  0
   42.1781   21.3181   34.4482 H   0  0  0  0  0  0  0  0  0  0  0  0
  1  9  1  0
  2  1  1  0
  2  3  2  0
  4  3  1  0
  4  8  1  0
  5  4  2  0
  6  7  2  0
  6  5  1  0
  7  2  1  0
  9 10  1  0
 10 11  2  0
 12 13  2  0
 12 11  1  0
 14 12  1  0
 15 14  1  0
 15  9  1  0
 16 15  2  0
  1 17  1  0
  1 18  1  0
  3 19  1  0
  6 20  1  0
  8 21  1  0
  8 22  1  0
 10 23  1  0
 11 24  1  0
 14 25  1  0
M  ISO  7  17   8  18   8  19  14  20  14  23  14  24  14  25   9
M  END
>  <minimizedAffinity>  (1) 
-4.14199686

>  <minimizedRMSD>  (1) 
3.96613503

$$$$
