
     RDKit          3D

 29 31  0  0  0  0  0  0  0  0999 V2000
   41.6110   21.4050   37.3850 C   0  0  0  0  0  0  0  0  0  0  0  0
   40.3520   22.1360   37.0380 C   0  0  0  0  0  0  0  0  0  0  0  0
   39.7870   22.9070   38.0370 C   0  0  0  0  0  0  0  0  0  0  0  0
   38.6210   23.5960   37.7470 C   0  0  0  0  0  0  0  0  0  0  0  0
   38.0690   23.4890   36.4830 N   0  0  0  0  0  0  0  0  0  0  0  0
   38.6660   22.7180   35.5380 C   0  0  0  0  0  0  0  0  0  0  0  0
   39.8040   22.0490   35.8300 N   0  0  0  0  0  0  0  0  0  0  0  0
   37.9110   24.4270   38.6420 N   0  0  0  0  0  0  0  0  0  0  0  0
   42.6610   21.6590   36.3690 C   0  0  0  0  0  0  0  0  0  0  0  0
   43.0540   20.7830   35.3760 C   0  0  0  0  0  0  0  0  0  0  0  0
   44.0290   21.3370   34.6330 N   0  0  0  0  0  0  0  0  0  0  0  0
   44.2530   22.5590   35.1530 C   0  0  0  0  0  0  0  0  0  0  0  0
   45.1510   23.5340   34.7610 C   0  0  0  0  0  0  0  0  0  0  0  0
   45.1980   24.7270   35.4610 C   0  0  0  0  0  0  0  0  0  0  0  0
   44.3720   24.9810   36.5460 C   0  0  0  0  0  0  0  0  0  0  0  0
   43.4950   24.0000   36.9090 C   0  0  0  0  0  0  0  0  0  0  0  0
   43.4250   22.7990   36.2310 C   0  0  0  0  0  0  0  0  0  0  0  0
   41.9685   21.7475   38.3673 H   0  0  0  0  0  0  0  0  0  0  0  0
   41.3979   20.3262   37.4116 H   0  0  0  0  0  0  0  0  0  0  0  0
   40.2499   22.9713   39.0328 H   0  0  0  0  0  0  0  0  0  0  0  0
   38.2234   22.6377   34.5342 H   0  0  0  0  0  0  0  0  0  0  0  0
   37.0496   24.8995   38.3328 H   0  0  0  0  0  0  0  0  0  0  0  0
   38.2547   24.5603   39.6038 H   0  0  0  0  0  0  0  0  0  0  0  0
   42.6318   19.7799   35.2163 H   0  0  0  0  0  0  0  0  0  0  0  0
   44.5087   20.9114   33.8270 H   0  0  0  0  0  0  0  0  0  0  0  0
   45.8194   23.3640   33.9041 H   0  0  0  0  0  0  0  0  0  0  0  0
   45.9146   25.4999   35.1463 H   0  0  0  0  0  0  0  0  0  0  0  0
   44.4217   25.9346   37.0920 H   0  0  0  0  0  0  0  0  0  0  0  0
   42.8257   24.1708   37.7651 H   0  0  0  0  0  0  0  0  0  0  0  0
  2  1  1  0
  2  3  2  0
  4  3  1  0
  4  8  1  0
  5  4  2  0
  6  7  2  0
  6  5  1  0
  7  2  1  0
  9  1  1  0
 10  9  2  0
 11 12  1  0
 11 10  1  0
 12 17  2  0
 13 12  1  0
 13 14  2  0
 14 15  1  0
 15 16  2  0
 17  9  1  0
 17 16  1  0
  1 18  1  0
  1 19  1  0
  3 20  1  0
  6 21  1  0
  8 22  1  0
  8 23  1  0
 10 24  1  0
 11 25  1  0
 13 26  1  0
 14 27  1  0
 15 28  1  0
 16 29  1  0
M  ISO  8  18   8  19   8  20  14  21  14  24  14  25   9  26  14  27  14
M  ISO  2  28  14  29  14
M  END
>  <minimizedAffinity>  (1) 
-4.43612146

>  <minimizedRMSD>  (1) 
1.48733377

$$$$
