
     RDKit          3D

 25 26  0  0  0  0  0  0  0  0999 V2000
   40.8990   22.6870   35.4670 C   0  0  0  0  0  0  0  0  0  0  0  0
   40.7680   21.8350   36.5480 C   0  0  0  0  0  0  0  0  0  0  0  0
   41.9450   21.3680   37.1400 C   0  0  0  0  0  0  0  0  0  0  0  0
   43.1430   21.7770   36.6220 N   0  0  0  0  0  0  0  0  0  0  0  0
   43.2140   22.6120   35.5620 C   0  0  0  0  0  0  0  0  0  0  0  0
   42.0800   23.0630   34.9900 N   0  0  0  0  0  0  0  0  0  0  0  0
   42.0120   20.4930   38.2510 N   0  0  0  0  0  0  0  0  0  0  0  0
   39.6140   23.1580   34.8680 C   0  0  0  0  0  0  0  0  0  0  0  0
   39.3640   24.6130   35.1560 C   0  0  0  0  0  0  0  0  0  0  0  0
   39.9780   25.6340   34.4600 C   0  0  0  0  0  0  0  0  0  0  0  0
   39.6590   26.9400   34.8260 C   0  0  0  0  0  0  0  0  0  0  0  0
   38.7630   27.2050   35.8440 C   0  0  0  0  0  0  0  0  0  0  0  0
   38.1500   26.1800   36.5380 C   0  0  0  0  0  0  0  0  0  0  0  0
   38.4610   24.8850   36.1810 C   0  0  0  0  0  0  0  0  0  0  0  0
   39.7790   21.5371   36.9263 H   0  0  0  0  0  0  0  0  0  0  0  0
   44.1929   22.9223   35.1677 H   0  0  0  0  0  0  0  0  0  0  0  0
   42.9274   20.2005   38.6217 H   0  0  0  0  0  0  0  0  0  0  0  0
   41.1454   20.1490   38.6886 H   0  0  0  0  0  0  0  0  0  0  0  0
   38.7875   22.5650   35.2866 H   0  0  0  0  0  0  0  0  0  0  0  0
   39.6784   23.0314   33.7772 H   0  0  0  0  0  0  0  0  0  0  0  0
   40.6908   25.4252   33.6486 H   0  0  0  0  0  0  0  0  0  0  0  0
   40.1308   27.7785   34.2928 H   0  0  0  0  0  0  0  0  0  0  0  0
   38.5343   28.2486   36.1058 H   0  0  0  0  0  0  0  0  0  0  0  0
   37.4371   26.3900   37.3489 H   0  0  0  0  0  0  0  0  0  0  0  0
   37.9863   24.0497   36.7166 H   0  0  0  0  0  0  0  0  0  0  0  0
  1  2  2  0
  2  3  1  0
  3  7  1  0
  4  3  2  0
  5  4  1  0
  6  1  1  0
  6  5  2  0
  8  9  1  0
  8  1  1  0
  9 14  2  0
 10 11  2  0
 10  9  1  0
 11 12  1  0
 12 13  2  0
 14 13  1  0
  2 15  1  0
  5 16  1  0
  7 17  1  0
  7 18  1  0
  8 19  1  0
  8 20  1  0
 10 21  1  0
 11 22  1  0
 12 23  1  0
 13 24  1  0
 14 25  1  0
M  ISO  8  15  14  16  14  19   8  20   8  21  14  22  14  23  14  24  14
M  ISO  1  25  14
M  END
>  <minimizedAffinity>  (1) 
-4.16811228

>  <minimizedRMSD>  (1) 
6.10856819

$$$$
