
     RDKit          3D

 35 38  0  0  0  0  0  0  0  0999 V2000
   38.6420   24.0980   36.4520 C   0  0  0  0  0  0  0  0  0  0  0  0
   39.9550   23.7240   36.1240 C   0  0  0  0  0  0  0  0  0  0  0  0
   40.5940   24.4300   35.0770 C   0  0  0  0  0  0  0  0  0  0  0  0
   39.9070   25.4140   34.4600 N   0  0  0  0  0  0  0  0  0  0  0  0
   38.6550   25.7480   34.7960 C   0  0  0  0  0  0  0  0  0  0  0  0
   38.0200   25.0950   35.7880 N   0  0  0  0  0  0  0  0  0  0  0  0
   37.8890   26.7820   34.1710 N   0  0  0  0  0  0  0  0  0  0  0  0
   36.8080   27.3910   34.6620 C   0  0  0  0  0  0  0  0  0  0  0  0
   36.1960   28.3620   33.9300 C   0  0  0  0  0  0  0  0  0  0  0  0
   36.6800   28.7140   32.7030 C   0  0  0  0  0  0  0  0  0  0  0  0
   36.1340   29.6120   32.0000 O   0  0  0  0  0  0  0  0  0  0  0  0
   37.7680   28.0920   32.2260 N   0  0  0  0  0  0  0  0  0  0  0  0
   38.3670   27.1330   32.9560 C   0  0  0  0  0  0  0  0  0  0  0  0
   39.3970   26.6100   32.3970 O   0  0  0  0  0  0  0  0  0  0  0  0
   38.2530   28.4810   30.9400 C   0  0  0  0  0  0  0  0  0  0  0  0
   39.3780   27.9380   30.4100 N   0  0  0  0  0  0  0  0  0  0  0  0
   39.6200   28.4450   29.2360 O   0  0  0  0  0  0  0  0  0  0  0  0
   38.6500   29.3060   29.0250 C   0  0  0  0  0  0  0  0  0  0  0  0
   37.7820   29.3510   30.0700 N   0  0  0  0  0  0  0  0  0  0  0  0
   38.4470   30.1410   27.8700 N   0  0  0  0  0  0  0  0  0  0  0  0
   39.4240   30.1760   26.9260 C   0  0  0  0  0  0  0  0  0  0  0  0
   39.0060   31.0340   25.9290 C   0  0  0  0  0  0  0  0  0  0  0  0
   37.7760   31.5020   26.2940 N   0  0  0  0  0  0  0  0  0  0  0  0
   37.4450   30.9530   27.4760 C   0  0  0  0  0  0  0  0  0  0  0  0
   37.9270   23.3720   37.5600 C   0  0  0  0  0  0  0  0  0  0  0  0
   38.8040   22.6060   38.3150 F   0  0  0  0  0  0  0  0  0  0  0  0
   37.3340   24.2900   38.4090 F   0  0  0  0  0  0  0  0  0  0  0  0
   36.9490   22.5620   37.0000 F   0  0  0  0  0  0  0  0  0  0  0  0
   40.4679   22.9124   36.6609 H   0  0  0  0  0  0  0  0  0  0  0  0
   41.6224   24.1834   34.7745 H   0  0  0  0  0  0  0  0  0  0  0  0
   36.4146   27.1107   35.6503 H   0  0  0  0  0  0  0  0  0  0  0  0
   35.3045   28.8669   34.3303 H   0  0  0  0  0  0  0  0  0  0  0  0
   40.3739   29.6220   26.9518 H   0  0  0  0  0  0  0  0  0  0  0  0
   39.5589   31.2920   25.0137 H   0  0  0  0  0  0  0  0  0  0  0  0
   36.5121   31.1358   28.0295 H   0  0  0  0  0  0  0  0  0  0  0  0
  1 25  1  0
  2  1  2  0
  3  2  1  0
  4  5  1  0
  4  3  2  0
  5  6  2  0
  6  1  1  0
  7  8  1  0
  7  5  1  0
  9  8  2  0
 10  9  1  0
 11 10  2  0
 12 10  1  0
 12 13  1  0
 13  7  1  0
 14 13  2  0
 15 12  1  0
 16 15  2  0
 17 16  1  0
 18 17  1  0
 18 19  2  0
 19 15  1  0
 20 18  1  0
 21 20  1  0
 22 23  1  0
 22 21  2  0
 23 24  2  0
 24 20  1  0
 25 26  1  0
 25 27  1  0
 28 25  1  0
  2 29  1  0
  3 30  1  0
  8 31  1  0
  9 32  1  0
 21 33  1  0
 22 34  1  0
 24 35  1  0
M  ISO  7  29  14  30  14  31  14  32  14  33  14  34  14  35  14
M  END
>  <minimizedAffinity>  (1) 
-5.84421635

>  <minimizedRMSD>  (1) 
0.830346286

$$$$
