
     RDKit          3D

 25 26  0  0  0  0  0  0  0  0999 V2000
   41.6120   21.4350   37.2690 C   0  0  0  0  0  0  0  0  0  0  0  0
   40.3590   22.1590   36.9220 C   0  0  0  0  0  0  0  0  0  0  0  0
   39.7500   22.8720   37.9470 C   0  0  0  0  0  0  0  0  0  0  0  0
   38.5790   23.5620   37.6740 C   0  0  0  0  0  0  0  0  0  0  0  0
   38.0590   23.5150   36.3920 N   0  0  0  0  0  0  0  0  0  0  0  0
   38.6900   22.8090   35.4380 C   0  0  0  0  0  0  0  0  0  0  0  0
   39.8170   22.1400   35.6880 N   0  0  0  0  0  0  0  0  0  0  0  0
   37.8280   24.3340   38.5860 N   0  0  0  0  0  0  0  0  0  0  0  0
   42.8060   22.1100   36.6610 C   0  0  0  0  0  0  0  0  0  0  0  0
   43.7820   21.3120   36.0560 C   0  0  0  0  0  0  0  0  0  0  0  0
   44.8520   22.0000   35.5190 C   0  0  0  0  0  0  0  0  0  0  0  0
   45.0280   23.3650   35.5310 C   0  0  0  0  0  0  0  0  0  0  0  0
   44.0110   24.0730   36.1510 C   0  0  0  0  0  0  0  0  0  0  0  0
   42.8930   23.4850   36.7230 C   0  0  0  0  0  0  0  0  0  0  0  0
   41.7265   21.4171   38.3629 H   0  0  0  0  0  0  0  0  0  0  0  0
   41.5475   20.4109   36.8728 H   0  0  0  0  0  0  0  0  0  0  0  0
   40.1884   22.8888   38.9557 H   0  0  0  0  0  0  0  0  0  0  0  0
   38.2657   22.7820   34.4235 H   0  0  0  0  0  0  0  0  0  0  0  0
   36.9679   24.8071   38.2742 H   0  0  0  0  0  0  0  0  0  0  0  0
   38.1400   24.4243   39.5634 H   0  0  0  0  0  0  0  0  0  0  0  0
   43.7031   20.2158   36.0111 H   0  0  0  0  0  0  0  0  0  0  0  0
   45.6378   21.4006   35.0361 H   0  0  0  0  0  0  0  0  0  0  0  0
   45.9058   23.8547   35.0841 H   0  0  0  0  0  0  0  0  0  0  0  0
   44.0957   25.1690   36.1920 H   0  0  0  0  0  0  0  0  0  0  0  0
   42.1099   24.0887   37.2050 H   0  0  0  0  0  0  0  0  0  0  0  0
  2  1  1  0
  2  3  2  0
  4  3  1  0
  4  8  1  0
  5  4  2  0
  6  7  2  0
  6  5  1  0
  7  2  1  0
  9 14  1  0
  9  1  1  0
 10  9  2  0
 11 12  2  0
 11 10  1  0
 12 13  1  0
 13 14  2  0
  1 15  1  0
  1 16  1  0
  3 17  1  0
  6 18  1  0
  8 19  1  0
  8 20  1  0
 10 21  1  0
 11 22  1  0
 12 23  1  0
 13 24  1  0
 14 25  1  0
M  ISO  8  15   8  16   8  17  14  18  14  21  14  22  14  23  14  24  14
M  ISO  1  25  14
M  END
>  <minimizedAffinity>  (1) 
-4.13468361

>  <minimizedRMSD>  (1) 
0.869047701

$$$$
