
     RDKit          3D

 30 31  0  0  0  0  0  0  0  0999 V2000
   41.5250   23.0750   36.4530 C   0  0  0  0  0  0  0  0  0  0  0  0
   40.8400   22.6840   37.6060 C   0  0  0  0  0  0  0  0  0  0  0  0
   39.4800   22.9670   37.6940 C   0  0  0  0  0  0  0  0  0  0  0  0
   38.8740   23.6210   36.6400 N   0  0  0  0  0  0  0  0  0  0  0  0
   39.5820   23.9750   35.5530 C   0  0  0  0  0  0  0  0  0  0  0  0
   40.8830   23.7040   35.4690 N   0  0  0  0  0  0  0  0  0  0  0  0
   38.6300   22.6520   38.7720 N   0  0  0  0  0  0  0  0  0  0  0  0
   42.9790   22.7380   36.4330 C   0  0  0  0  0  0  0  0  0  0  0  0
   43.7870   23.8030   35.9280 N   0  0  0  0  0  0  0  0  0  0  0  0
   44.0650   24.8630   36.8230 C   0  0  0  0  0  0  0  0  0  0  0  0
   45.3860   24.8270   37.5210 C   0  0  0  0  0  0  0  0  0  0  0  0
   46.4710   24.0750   36.8420 C   0  0  0  0  0  0  0  0  0  0  0  0
   45.9830   22.8380   36.1020 C   0  0  0  0  0  0  0  0  0  0  0  0
   44.9130   23.3550   35.1760 C   0  0  0  0  0  0  0  0  0  0  0  0
   41.3622   22.1656   38.4237 H   0  0  0  0  0  0  0  0  0  0  0  0
   39.0805   24.4947   34.7233 H   0  0  0  0  0  0  0  0  0  0  0  0
   37.6332   22.9087   38.7339 H   0  0  0  0  0  0  0  0  0  0  0  0
   39.0052   22.1649   39.5984 H   0  0  0  0  0  0  0  0  0  0  0  0
   43.3009   22.5089   37.4596 H   0  0  0  0  0  0  0  0  0  0  0  0
   43.1101   21.8759   35.7625 H   0  0  0  0  0  0  0  0  0  0  0  0
   44.0158   25.8020   36.2522 H   0  0  0  0  0  0  0  0  0  0  0  0
   43.3148   24.7692   37.6220 H   0  0  0  0  0  0  0  0  0  0  0  0
   45.7265   25.8654   37.6467 H   0  0  0  0  0  0  0  0  0  0  0  0
   45.2039   24.2900   38.4636 H   0  0  0  0  0  0  0  0  0  0  0  0
   46.9576   24.7445   36.1174 H   0  0  0  0  0  0  0  0  0  0  0  0
   47.1639   23.7311   37.6241 H   0  0  0  0  0  0  0  0  0  0  0  0
   46.8026   22.3769   35.5313 H   0  0  0  0  0  0  0  0  0  0  0  0
   45.6082   22.0610   36.7845 H   0  0  0  0  0  0  0  0  0  0  0  0
   44.5991   22.5486   34.4969 H   0  0  0  0  0  0  0  0  0  0  0  0
   45.3163   24.1980   34.5958 H   0  0  0  0  0  0  0  0  0  0  0  0
  1  2  2  0
  2  3  1  0
  3  7  1  0
  4  3  2  0
  5  4  1  0
  6  5  2  0
  6  1  1  0
  8  1  1  0
  9  8  1  0
  9 10  1  0
 10 11  1  0
 12 11  1  0
 13 12  1  0
 14  9  1  0
 14 13  1  0
  2 15  1  0
  5 16  1  0
  7 17  1  0
  7 18  1  0
  8 19  1  0
  8 20  1  0
 10 21  1  0
 10 22  1  0
 11 23  1  0
 11 24  1  0
 12 25  1  0
 12 26  1  0
 13 27  1  0
 13 28  1  0
 14 29  1  0
 14 30  1  0
M  ISO  8  15  14  16  14  19   8  20   8  21  13  22  13  23  13  24  13
M  ISO  6  25  13  26  13  27  13  28  13  29  13  30  13
M  END
>  <minimizedAffinity>  (1) 
-3.97850227

>  <minimizedRMSD>  (1) 
4.04680777

$$$$
