
     RDKit          3D

 28 29  0  0  0  0  0  0  0  0999 V2000
   40.0920   22.2790   37.0690 C   0  0  0  0  0  0  0  0  0  0  0  0
   39.6720   23.1220   38.0880 C   0  0  0  0  0  0  0  0  0  0  0  0
   38.4140   23.7230   37.9360 C   0  0  0  0  0  0  0  0  0  0  0  0
   37.6720   23.4640   36.8210 N   0  0  0  0  0  0  0  0  0  0  0  0
   38.1420   22.6280   35.8570 C   0  0  0  0  0  0  0  0  0  0  0  0
   39.3360   22.0500   35.9910 N   0  0  0  0  0  0  0  0  0  0  0  0
   37.8220   24.6070   38.8660 N   0  0  0  0  0  0  0  0  0  0  0  0
   41.4340   21.6550   37.2580 C   0  0  0  0  0  0  0  0  0  0  0  0
   42.4060   22.1120   36.1900 C   0  0  0  0  0  0  0  0  0  0  0  0
   43.6090   21.1990   36.1030 C   0  0  0  0  0  0  0  0  0  0  0  0
   44.8180   22.0570   35.8930 C   0  0  0  0  0  0  0  0  0  0  0  0
   44.2430   23.4410   35.6290 C   0  0  0  0  0  0  0  0  0  0  0  0
   43.0530   23.4190   36.5970 C   0  0  0  0  0  0  0  0  0  0  0  0
   40.2966   23.3101   38.9737 H   0  0  0  0  0  0  0  0  0  0  0  0
   37.5342   22.4276   34.9623 H   0  0  0  0  0  0  0  0  0  0  0  0
   36.8913   25.0057   38.6771 H   0  0  0  0  0  0  0  0  0  0  0  0
   38.3212   24.8526   39.7328 H   0  0  0  0  0  0  0  0  0  0  0  0
   41.8261   21.9396   38.2455 H   0  0  0  0  0  0  0  0  0  0  0  0
   41.3238   20.5630   37.1844 H   0  0  0  0  0  0  0  0  0  0  0  0
   41.8175   22.1546   35.2616 H   0  0  0  0  0  0  0  0  0  0  0  0
   43.7133   20.6269   37.0367 H   0  0  0  0  0  0  0  0  0  0  0  0
   43.4930   20.4872   35.2724 H   0  0  0  0  0  0  0  0  0  0  0  0
   45.4548   22.0623   36.7899 H   0  0  0  0  0  0  0  0  0  0  0  0
   45.4552   21.6984   35.0712 H   0  0  0  0  0  0  0  0  0  0  0  0
   44.9600   24.2365   35.8803 H   0  0  0  0  0  0  0  0  0  0  0  0
   43.9849   23.6449   34.5793 H   0  0  0  0  0  0  0  0  0  0  0  0
   42.3805   24.2746   36.4365 H   0  0  0  0  0  0  0  0  0  0  0  0
   43.3207   23.4913   37.6615 H   0  0  0  0  0  0  0  0  0  0  0  0
  1  8  1  0
  1  2  2  0
  3  2  1  0
  3  7  1  0
  4  3  2  0
  5  6  2  0
  5  4  1  0
  6  1  1  0
  9 13  1  0
  9  8  1  0
 10  9  1  0
 11 10  1  0
 12 11  1  0
 12 13  1  0
  2 14  1  0
  5 15  1  0
  7 16  1  0
  7 17  1  0
  8 18  1  0
  8 19  1  0
  9 20  1  0
 10 21  1  0
 10 22  1  0
 11 23  1  0
 11 24  1  0
 12 25  1  0
 12 26  1  0
 13 27  1  0
 13 28  1  0
M  ISO  8  14  14  15  14  18   8  19   8  20  13  21  13  22  13  23  13
M  ISO  5  24  13  25  13  26  13  27  13  28  13
M  END
>  <minimizedAffinity>  (1) 
-3.97122812

>  <minimizedRMSD>  (1) 
1.87335074

$$$$
