
     RDKit          3D

 27 28  0  0  0  0  0  0  0  0999 V2000
   39.8540   22.3470   36.5740 C   0  0  0  0  0  0  0  0  0  0  0  0
   39.6130   23.1470   37.6870 C   0  0  0  0  0  0  0  0  0  0  0  0
   38.2920   23.5780   37.8840 C   0  0  0  0  0  0  0  0  0  0  0  0
   37.3280   23.1970   36.9930 N   0  0  0  0  0  0  0  0  0  0  0  0
   37.6300   22.4170   35.9310 C   0  0  0  0  0  0  0  0  0  0  0  0
   38.8870   21.9960   35.7260 N   0  0  0  0  0  0  0  0  0  0  0  0
   37.8630   24.3910   38.9540 N   0  0  0  0  0  0  0  0  0  0  0  0
   41.2760   21.9050   36.3940 C   0  0  0  0  0  0  0  0  0  0  0  0
   42.1160   23.0770   36.4160 N   0  0  0  0  0  0  0  0  0  0  0  0
   43.5090   22.7780   36.5280 C   0  0  0  0  0  0  0  0  0  0  0  0
   44.1640   24.0970   36.1800 C   0  0  0  0  0  0  0  0  0  0  0  0
   43.1050   24.9250   35.4700 C   0  0  0  0  0  0  0  0  0  0  0  0
   42.0190   23.8740   35.2330 C   0  0  0  0  0  0  0  0  0  0  0  0
   40.4199   23.4283   38.3797 H   0  0  0  0  0  0  0  0  0  0  0  0
   36.8366   22.1245   35.2275 H   0  0  0  0  0  0  0  0  0  0  0  0
   36.8728   24.6648   39.0279 H   0  0  0  0  0  0  0  0  0  0  0  0
   38.5400   24.7109   39.6613 H   0  0  0  0  0  0  0  0  0  0  0  0
   41.3858   21.3857   35.4306 H   0  0  0  0  0  0  0  0  0  0  0  0
   41.5650   21.2140   37.1996 H   0  0  0  0  0  0  0  0  0  0  0  0
   43.7662   22.4656   37.5509 H   0  0  0  0  0  0  0  0  0  0  0  0
   43.8298   21.9483   35.8809 H   0  0  0  0  0  0  0  0  0  0  0  0
   44.4983   24.6092   37.0943 H   0  0  0  0  0  0  0  0  0  0  0  0
   45.0487   23.9484   35.5434 H   0  0  0  0  0  0  0  0  0  0  0  0
   42.7407   25.7453   36.1060 H   0  0  0  0  0  0  0  0  0  0  0  0
   43.4587   25.4241   34.5558 H   0  0  0  0  0  0  0  0  0  0  0  0
   41.0258   24.3382   35.1438 H   0  0  0  0  0  0  0  0  0  0  0  0
   42.1484   23.3037   34.3013 H   0  0  0  0  0  0  0  0  0  0  0  0
  1  2  2  0
  2  3  1  0
  3  7  1  0
  4  3  2  0
  5  4  1  0
  6  5  2  0
  6  1  1  0
  8  9  1  0
  8  1  1  0
  9 10  1  0
 11 10  1  0
 12 11  1  0
 13 12  1  0
 13  9  1  0
  2 14  1  0
  5 15  1  0
  7 16  1  0
  7 17  1  0
  8 18  1  0
  8 19  1  0
 10 20  1  0
 10 21  1  0
 11 22  1  0
 11 23  1  0
 12 24  1  0
 12 25  1  0
 13 26  1  0
 13 27  1  0
M  ISO  8  14  14  15  14  18   8  19   8  20  13  21  13  22  13  23  13
M  ISO  4  24  13  25  13  26  13  27  13
M  END
>  <minimizedAffinity>  (1) 
-3.61219907

>  <minimizedRMSD>  (1) 
0.822716892

$$$$
