
     RDKit          3D

 17 17  0  0  0  0  0  0  0  0999 V2000
   40.0630   22.2420   36.9700 C   0  0  0  0  0  0  0  0  0  0  0  0
   39.6880   23.0890   38.0090 C   0  0  0  0  0  0  0  0  0  0  0  0
   38.4460   23.6950   37.9240 C   0  0  0  0  0  0  0  0  0  0  0  0
   37.6500   23.4340   36.8260 N   0  0  0  0  0  0  0  0  0  0  0  0
   38.0540   22.6090   35.8450 C   0  0  0  0  0  0  0  0  0  0  0  0
   39.2490   22.0240   35.9240 N   0  0  0  0  0  0  0  0  0  0  0  0
   37.8950   24.5790   38.8750 N   0  0  0  0  0  0  0  0  0  0  0  0
   41.4170   21.5990   37.0920 C   0  0  0  0  0  0  0  0  0  0  0  0
   42.4800   22.4980   36.6870 N   0  0  0  0  0  0  0  0  0  0  0  0
   40.3537   23.2702   38.8658 H   0  0  0  0  0  0  0  0  0  0  0  0
   37.4012   22.4174   34.9806 H   0  0  0  0  0  0  0  0  0  0  0  0
   36.9589   24.9809   38.7229 H   0  0  0  0  0  0  0  0  0  0  0  0
   38.4287   24.8226   39.7216 H   0  0  0  0  0  0  0  0  0  0  0  0
   41.5787   21.3061   38.1399 H   0  0  0  0  0  0  0  0  0  0  0  0
   41.4397   20.7225   36.4277 H   0  0  0  0  0  0  0  0  0  0  0  0
   42.9388   22.8860   37.5235 H   0  0  0  0  0  0  0  0  0  0  0  0
   43.1712   21.9812   36.1249 H   0  0  0  0  0  0  0  0  0  0  0  0
  1  8  1  0
  1  2  2  0
  3  2  1  0
  3  7  1  0
  4  3  2  0
  5  6  2  0
  5  4  1  0
  6  1  1  0
  9  8  1  0
  2 10  1  0
  5 11  1  0
  7 12  1  0
  7 13  1  0
  8 14  1  0
  8 15  1  0
  9 16  1  0
  9 17  1  0
M  ISO  6  10  14  11  14  14   8  15   8  16   5  17   5
M  END
>  <minimizedAffinity>  (1) 
-3.06139827

>  <minimizedRMSD>  (1) 
0.0828473717

$$$$
