
     RDKit          3D

 26 28  0  0  0  0  0  0  0  0999 V2000
   41.6050   22.4080   36.7900 C   0  0  0  0  0  0  0  0  0  0  0  0
   42.2760   21.1610   36.3260 C   0  0  0  0  0  0  0  0  0  0  0  0
   42.7360   20.2930   37.3020 C   0  0  0  0  0  0  0  0  0  0  0  0
   43.3660   19.1180   36.9130 C   0  0  0  0  0  0  0  0  0  0  0  0
   43.5080   18.8670   35.5720 N   0  0  0  0  0  0  0  0  0  0  0  0
   43.0440   19.7430   34.6400 C   0  0  0  0  0  0  0  0  0  0  0  0
   42.4340   20.8760   35.0200 N   0  0  0  0  0  0  0  0  0  0  0  0
   43.8900   18.1320   37.7810 N   0  0  0  0  0  0  0  0  0  0  0  0
   42.2560   23.5940   36.2260 N   0  0  0  0  0  0  0  0  0  0  0  0
   43.5270   24.0540   36.3990 C   0  0  0  0  0  0  0  0  0  0  0  0
   43.6250   25.1940   35.6540 N   0  0  0  0  0  0  0  0  0  0  0  0
   42.4850   25.4590   35.0340 C   0  0  0  0  0  0  0  0  0  0  0  0
   42.0320   26.4540   34.1770 C   0  0  0  0  0  0  0  0  0  0  0  0
   40.7750   26.4720   33.6820 N   0  0  0  0  0  0  0  0  0  0  0  0
   39.9450   25.4620   34.0560 C   0  0  0  0  0  0  0  0  0  0  0  0
   40.3320   24.4760   34.8810 N   0  0  0  0  0  0  0  0  0  0  0  0
   41.5960   24.4450   35.3880 C   0  0  0  0  0  0  0  0  0  0  0  0
   40.5521   22.3899   36.4722 H   0  0  0  0  0  0  0  0  0  0  0  0
   41.6749   22.4572   37.8867 H   0  0  0  0  0  0  0  0  0  0  0  0
   42.6046   20.5303   38.3680 H   0  0  0  0  0  0  0  0  0  0  0  0
   43.1696   19.5213   33.5699 H   0  0  0  0  0  0  0  0  0  0  0  0
   44.3412   17.2914   37.3928 H   0  0  0  0  0  0  0  0  0  0  0  0
   43.8205   18.2546   38.8013 H   0  0  0  0  0  0  0  0  0  0  0  0
   44.3159   23.5982   37.0153 H   0  0  0  0  0  0  0  0  0  0  0  0
   42.7242   27.2593   33.8900 H   0  0  0  0  0  0  0  0  0  0  0  0
   38.9160   25.4524   33.6673 H   0  0  0  0  0  0  0  0  0  0  0  0
  2  1  1  0
  2  3  2  0
  4  3  1  0
  4  8  1  0
  5  4  2  0
  6  7  2  0
  6  5  1  0
  7  2  1  0
  9 10  1  0
  9  1  1  0
 11 10  2  0
 12 17  2  0
 12 11  1  0
 13 12  1  0
 14 15  1  0
 14 13  2  0
 15 16  2  0
 16 17  1  0
 17  9  1  0
  1 18  1  0
  1 19  1  0
  3 20  1  0
  6 21  1  0
  8 22  1  0
  8 23  1  0
 10 24  1  0
 13 25  1  0
 15 26  1  0
M  ISO  7  18   8  19   8  20  14  21  14  24  14  25  14  26  14
M  END
>  <minimizedAffinity>  (1) 
-3.23086452

>  <minimizedRMSD>  (1) 
6.75098276

$$$$
