
     RDKit          3D

 23 24  0  0  0  0  0  0  0  0999 V2000
   41.2130   22.3100   36.3540 C   0  0  0  0  0  0  0  0  0  0  0  0
   40.6910   22.5000   37.6250 C   0  0  0  0  0  0  0  0  0  0  0  0
   39.3350   22.7710   37.7350 C   0  0  0  0  0  0  0  0  0  0  0  0
   38.5720   22.8420   36.6040 N   0  0  0  0  0  0  0  0  0  0  0  0
   39.1250   22.6490   35.3820 C   0  0  0  0  0  0  0  0  0  0  0  0
   40.4360   22.3860   35.2680 N   0  0  0  0  0  0  0  0  0  0  0  0
   38.6240   22.9930   38.9330 N   0  0  0  0  0  0  0  0  0  0  0  0
   42.6760   22.0190   36.2720 C   0  0  0  0  0  0  0  0  0  0  0  0
   42.9260   20.5640   36.0830 C   0  0  0  0  0  0  0  0  0  0  0  0
   43.1270   20.0730   34.7900 C   0  0  0  0  0  0  0  0  0  0  0  0
   43.3550   18.7150   34.6820 C   0  0  0  0  0  0  0  0  0  0  0  0
   43.3770   17.9270   35.7700 N   0  0  0  0  0  0  0  0  0  0  0  0
   43.1790   18.4200   37.0200 C   0  0  0  0  0  0  0  0  0  0  0  0
   42.9560   19.7440   37.1410 N   0  0  0  0  0  0  0  0  0  0  0  0
   41.3317   22.4378   38.5170 H   0  0  0  0  0  0  0  0  0  0  0  0
   38.4973   22.7081   34.4806 H   0  0  0  0  0  0  0  0  0  0  0  0
   37.6129   23.1872   38.9034 H   0  0  0  0  0  0  0  0  0  0  0  0
   39.1160   22.9608   39.8374 H   0  0  0  0  0  0  0  0  0  0  0  0
   43.1042   22.5700   35.4217 H   0  0  0  0  0  0  0  0  0  0  0  0
   43.1469   22.3336   37.2150 H   0  0  0  0  0  0  0  0  0  0  0  0
   43.1049   20.7306   33.9085 H   0  0  0  0  0  0  0  0  0  0  0  0
   43.5212   18.2715   33.6892 H   0  0  0  0  0  0  0  0  0  0  0  0
   43.1999   17.7627   37.9018 H   0  0  0  0  0  0  0  0  0  0  0  0
  1  2  2  0
  2  3  1  0
  3  7  1  0
  4  3  2  0
  5  4  1  0
  6  5  2  0
  6  1  1  0
  8  1  1  0
  9  8  1  0
  9 14  1  0
 10  9  2  0
 11 10  1  0
 11 12  2  0
 12 13  1  0
 13 14  2  0
  2 15  1  0
  5 16  1  0
  7 17  1  0
  7 18  1  0
  8 19  1  0
  8 20  1  0
 10 21  1  0
 11 22  1  0
 13 23  1  0
M  ISO  7  15  14  16  14  19   8  20   8  21  14  22  14  23  14
M  END
>  <minimizedAffinity>  (1) 
-3.51837397

>  <minimizedRMSD>  (1) 
2.44003606

$$$$
