
     RDKit          3D

 22 23  0  0  0  0  0  0  0  0999 V2000
   40.2110   22.1950   37.0560 C   0  0  0  0  0  0  0  0  0  0  0  0
   39.7390   22.9910   38.0870 C   0  0  0  0  0  0  0  0  0  0  0  0
   38.5070   23.6370   37.8970 C   0  0  0  0  0  0  0  0  0  0  0  0
   37.8460   23.4450   36.7120 N   0  0  0  0  0  0  0  0  0  0  0  0
   38.3590   22.6510   35.7380 C   0  0  0  0  0  0  0  0  0  0  0  0
   39.5340   22.0380   35.9260 N   0  0  0  0  0  0  0  0  0  0  0  0
   37.8500   24.4890   38.8150 N   0  0  0  0  0  0  0  0  0  0  0  0
   41.5260   21.5340   37.3180 C   0  0  0  0  0  0  0  0  0  0  0  0
   42.6150   22.1950   36.6790 N   0  0  0  0  0  0  0  0  0  0  0  0
   43.5920   21.4450   36.0930 C   0  0  0  0  0  0  0  0  0  0  0  0
   44.5230   22.2990   35.5500 C   0  0  0  0  0  0  0  0  0  0  0  0
   44.0920   23.5470   35.8160 N   0  0  0  0  0  0  0  0  0  0  0  0
   42.9380   23.4900   36.4990 C   0  0  0  0  0  0  0  0  0  0  0  0
   40.3086   23.1124   39.0202 H   0  0  0  0  0  0  0  0  0  0  0  0
   37.8098   22.5114   34.7952 H   0  0  0  0  0  0  0  0  0  0  0  0
   36.9435   24.9110   38.5680 H   0  0  0  0  0  0  0  0  0  0  0  0
   38.2781   24.6875   39.7306 H   0  0  0  0  0  0  0  0  0  0  0  0
   41.7064   21.5287   38.4031 H   0  0  0  0  0  0  0  0  0  0  0  0
   41.4712   20.5149   36.9077 H   0  0  0  0  0  0  0  0  0  0  0  0
   43.6288   20.3461   36.0604 H   0  0  0  0  0  0  0  0  0  0  0  0
   45.4375   22.0187   35.0067 H   0  0  0  0  0  0  0  0  0  0  0  0
   42.3553   24.3538   36.8516 H   0  0  0  0  0  0  0  0  0  0  0  0
  1  8  1  0
  1  2  2  0
  3  2  1  0
  3  7  1  0
  4  3  2  0
  5  6  2  0
  5  4  1  0
  6  1  1  0
  9  8  1  0
 10  9  1  0
 11 12  1  0
 11 10  2  0
 12 13  2  0
 13  9  1  0
  2 14  1  0
  5 15  1  0
  7 16  1  0
  7 17  1  0
  8 18  1  0
  8 19  1  0
 10 20  1  0
 11 21  1  0
 13 22  1  0
M  ISO  7  14  14  15  14  18   8  19   8  20  14  21  14  22  14
M  END
>  <minimizedAffinity>  (1) 
-3.50265217

>  <minimizedRMSD>  (1) 
0.314906299

$$$$
