
     RDKit          3D

 26 27  0  0  0  0  0  0  0  0999 V2000
   38.7310   23.5870   33.7090 C   0  0  0  0  0  0  0  0  0  0  0  0
   37.5560   23.5750   32.7950 C   0  0  0  0  0  0  0  0  0  0  0  0
   37.2560   24.7900   32.2210 C   0  0  0  0  0  0  0  0  0  0  0  0
   36.1570   24.8270   31.3520 C   0  0  0  0  0  0  0  0  0  0  0  0
   35.4550   23.6520   31.1320 N   0  0  0  0  0  0  0  0  0  0  0  0
   35.8060   22.5070   31.7250 C   0  0  0  0  0  0  0  0  0  0  0  0
   36.8520   22.4670   32.5530 N   0  0  0  0  0  0  0  0  0  0  0  0
   35.6790   25.9750   30.6600 N   0  0  0  0  0  0  0  0  0  0  0  0
   38.5820   24.5120   34.7290 O   0  0  0  0  0  0  0  0  0  0  0  0
   38.7340   24.1010   36.0500 C   0  0  0  0  0  0  0  0  0  0  0  0
   37.8880   24.6200   37.0240 C   0  0  0  0  0  0  0  0  0  0  0  0
   37.9060   24.3200   38.3600 C   0  0  0  0  0  0  0  0  0  0  0  0
   38.8710   23.4100   38.7460 C   0  0  0  0  0  0  0  0  0  0  0  0
   39.7430   22.8530   37.8410 C   0  0  0  0  0  0  0  0  0  0  0  0
   39.6830   23.1890   36.5040 C   0  0  0  0  0  0  0  0  0  0  0  0
   39.6306   23.8394   33.1285 H   0  0  0  0  0  0  0  0  0  0  0  0
   38.8197   22.5893   34.1636 H   0  0  0  0  0  0  0  0  0  0  0  0
   37.8513   25.6900   32.4346 H   0  0  0  0  0  0  0  0  0  0  0  0
   35.2289   21.5912   31.5294 H   0  0  0  0  0  0  0  0  0  0  0  0
   34.8595   25.8989   30.0407 H   0  0  0  0  0  0  0  0  0  0  0  0
   36.1526   26.8820   30.7784 H   0  0  0  0  0  0  0  0  0  0  0  0
   37.1297   25.3427   36.6882 H   0  0  0  0  0  0  0  0  0  0  0  0
   37.2023   24.7714   39.0748 H   0  0  0  0  0  0  0  0  0  0  0  0
   38.9436   23.1235   39.8056 H   0  0  0  0  0  0  0  0  0  0  0  0
   40.4974   22.1310   38.1867 H   0  0  0  0  0  0  0  0  0  0  0  0
   40.3885   22.7340   35.7932 H   0  0  0  0  0  0  0  0  0  0  0  0
  1  9  1  0
  2  1  1  0
  3  2  2  0
  4  3  1  0
  5  4  2  0
  5  6  1  0
  6  7  2  0
  7  2  1  0
  8  4  1  0
  9 10  1  0
 10 15  1  0
 10 11  2  0
 11 12  1  0
 12 13  2  0
 14 13  1  0
 15 14  2  0
  1 16  1  0
  1 17  1  0
  3 18  1  0
  6 19  1  0
  8 20  1  0
  8 21  1  0
 11 22  1  0
 12 23  1  0
 13 24  1  0
 14 25  1  0
 15 26  1  0
M  ISO  8  16   8  17   8  18  14  19  14  22  14  23  14  24  14  25  14
M  ISO  1  26  14
M  END
>  <minimizedAffinity>  (1) 
-4.58580017

>  <minimizedRMSD>  (1) 
6.33789444

$$$$
