
     RDKit          3D

 16 16  0  0  0  0  0  0  0  0999 V2000
   40.0520   22.2440   36.9650 C   0  0  0  0  0  0  0  0  0  0  0  0
   39.6920   23.0860   38.0100 C   0  0  0  0  0  0  0  0  0  0  0  0
   38.4430   23.7040   37.9220 C   0  0  0  0  0  0  0  0  0  0  0  0
   37.6530   23.4470   36.8240 N   0  0  0  0  0  0  0  0  0  0  0  0
   38.0600   22.6190   35.8440 C   0  0  0  0  0  0  0  0  0  0  0  0
   39.2520   22.0220   35.9150 N   0  0  0  0  0  0  0  0  0  0  0  0
   37.8900   24.5950   38.8770 N   0  0  0  0  0  0  0  0  0  0  0  0
   41.3950   21.6070   37.1030 C   0  0  0  0  0  0  0  0  0  0  0  0
   42.4160   22.5080   36.8030 O   0  0  0  0  0  0  0  0  0  0  0  0
   40.3600   23.2578   38.8669 H   0  0  0  0  0  0  0  0  0  0  0  0
   37.4063   22.4330   34.9791 H   0  0  0  0  0  0  0  0  0  0  0  0
   36.9564   25.0015   38.7220 H   0  0  0  0  0  0  0  0  0  0  0  0
   38.4220   24.8355   39.7255 H   0  0  0  0  0  0  0  0  0  0  0  0
   41.5201   21.2551   38.1377 H   0  0  0  0  0  0  0  0  0  0  0  0
   41.4549   20.7662   36.3962 H   0  0  0  0  0  0  0  0  0  0  0  0
   42.8082   22.8541   37.6435 H   0  0  0  0  0  0  0  0  0  0  0  0
  1  8  1  0
  1  2  2  0
  3  2  1  0
  3  7  1  0
  4  3  2  0
  5  6  2  0
  5  4  1  0
  6  1  1  0
  9  8  1  0
  2 10  1  0
  5 11  1  0
  7 12  1  0
  7 13  1  0
  8 14  1  0
  8 15  1  0
  9 16  1  0
M  ISO  5  10  14  11  14  14   8  15   8  16   3
M  END
>  <minimizedAffinity>  (1) 
-3.04653144

>  <minimizedRMSD>  (1) 
0.0960275009

$$$$
