
     RDKit          3D

 27 29  0  0  0  0  0  0  0  0999 V2000
   41.3800   21.9160   36.7530 C   0  0  0  0  0  0  0  0  0  0  0  0
   39.9530   22.3650   36.8070 C   0  0  0  0  0  0  0  0  0  0  0  0
   39.6380   23.1780   37.8730 C   0  0  0  0  0  0  0  0  0  0  0  0
   38.3060   23.6080   37.9390 C   0  0  0  0  0  0  0  0  0  0  0  0
   37.4190   23.2140   36.9830 N   0  0  0  0  0  0  0  0  0  0  0  0
   37.7900   22.4170   35.9660 C   0  0  0  0  0  0  0  0  0  0  0  0
   39.0470   22.0000   35.8850 N   0  0  0  0  0  0  0  0  0  0  0  0
   37.7840   24.4510   38.9600 N   0  0  0  0  0  0  0  0  0  0  0  0
   42.2460   22.9940   36.6640 O   0  0  0  0  0  0  0  0  0  0  0  0
   46.3280   24.9500   36.7290 N   0  0  0  0  0  0  0  0  0  0  0  0
   45.3650   25.7930   37.1470 C   0  0  0  0  0  0  0  0  0  0  0  0
   44.1990   25.1270   37.0920 N   0  0  0  0  0  0  0  0  0  0  0  0
   44.4300   23.8730   36.6430 C   0  0  0  0  0  0  0  0  0  0  0  0
   43.5830   22.7870   36.4030 C   0  0  0  0  0  0  0  0  0  0  0  0
   44.1340   21.6290   35.9410 N   0  0  0  0  0  0  0  0  0  0  0  0
   45.4710   21.5450   35.7220 C   0  0  0  0  0  0  0  0  0  0  0  0
   46.3120   22.5900   35.9480 N   0  0  0  0  0  0  0  0  0  0  0  0
   45.7960   23.7470   36.4060 C   0  0  0  0  0  0  0  0  0  0  0  0
   41.6106   21.3460   37.6651 H   0  0  0  0  0  0  0  0  0  0  0  0
   41.5126   21.2905   35.8579 H   0  0  0  0  0  0  0  0  0  0  0  0
   40.3850   23.4714   38.6253 H   0  0  0  0  0  0  0  0  0  0  0  0
   37.0559   22.1124   35.2055 H   0  0  0  0  0  0  0  0  0  0  0  0
   36.7917   24.7265   38.9431 H   0  0  0  0  0  0  0  0  0  0  0  0
   38.3985   24.7856   39.7159 H   0  0  0  0  0  0  0  0  0  0  0  0
   47.3284   25.1866   36.6640 H   0  0  0  0  0  0  0  0  0  0  0  0
   45.5064   26.8340   37.4731 H   0  0  0  0  0  0  0  0  0  0  0  0
   45.8891   20.5985   35.3486 H   0  0  0  0  0  0  0  0  0  0  0  0
  1  2  1  0
  2  3  2  0
  3  4  1  0
  4  8  1  0
  5  4  2  0
  6  5  1  0
  7  6  2  0
  7  2  1  0
  9  1  1  0
 10 11  1  0
 12 11  2  0
 13 12  1  0
 14 13  2  0
 14  9  1  0
 15 14  1  0
 16 15  2  0
 16 17  1  0
 17 18  2  0
 18 13  1  0
 18 10  1  0
  1 19  1  0
  1 20  1  0
  3 21  1  0
  6 22  1  0
  8 23  1  0
  8 24  1  0
 10 25  1  0
 11 26  1  0
 16 27  1  0
M  ISO  7  19   8  20   8  21  14  22  14  25   9  26  14  27  14
M  END
>  <minimizedAffinity>  (1) 
-4.19157171

>  <minimizedRMSD>  (1) 
0.846429229

$$$$
