
     RDKit          3D

 32 33  0  0  0  0  0  0  0  0999 V2000
   38.9490   22.1810   35.2860 C   0  0  0  0  0  0  0  0  0  0  0  0
   40.3100   21.9730   35.3710 C   0  0  0  0  0  0  0  0  0  0  0  0
   40.9360   22.3410   36.5770 C   0  0  0  0  0  0  0  0  0  0  0  0
   40.1640   22.8800   37.5930 N   0  0  0  0  0  0  0  0  0  0  0  0
   38.8290   23.0520   37.4270 C   0  0  0  0  0  0  0  0  0  0  0  0
   38.2300   22.7010   36.2760 N   0  0  0  0  0  0  0  0  0  0  0  0
   42.3150   22.2120   36.8710 N   0  0  0  0  0  0  0  0  0  0  0  0
   38.3370   21.7780   33.9980 C   0  0  0  0  0  0  0  0  0  0  0  0
   37.3390   22.6500   33.6020 O   0  0  0  0  0  0  0  0  0  0  0  0
   36.3480   21.8960   32.9840 C   0  0  0  0  0  0  0  0  0  0  0  0
   35.7100   20.8900   33.8870 C   0  0  0  0  0  0  0  0  0  0  0  0
   35.6350   19.5150   33.2470 C   0  0  0  0  0  0  0  0  0  0  0  0
   35.0030   19.6130   31.8640 C   0  0  0  0  0  0  0  0  0  0  0  0
   35.6880   20.6480   31.0180 C   0  0  0  0  0  0  0  0  0  0  0  0
   36.9090   21.1710   31.7550 C   0  0  0  0  0  0  0  0  0  0  0  0
   40.8795   21.5398   34.5355 H   0  0  0  0  0  0  0  0  0  0  0  0
   38.2302   23.4832   38.2428 H   0  0  0  0  0  0  0  0  0  0  0  0
   42.6764   22.5121   37.7876 H   0  0  0  0  0  0  0  0  0  0  0  0
   42.9567   21.8181   36.1682 H   0  0  0  0  0  0  0  0  0  0  0  0
   39.1187   21.7584   33.2244 H   0  0  0  0  0  0  0  0  0  0  0  0
   37.8852   20.7842   34.1333 H   0  0  0  0  0  0  0  0  0  0  0  0
   35.5703   22.6159   32.6893 H   0  0  0  0  0  0  0  0  0  0  0  0
   36.3005   20.8189   34.8123 H   0  0  0  0  0  0  0  0  0  0  0  0
   34.6826   21.2239   34.0942 H   0  0  0  0  0  0  0  0  0  0  0  0
   36.6500   19.1013   33.1543 H   0  0  0  0  0  0  0  0  0  0  0  0
   35.0184   18.8581   33.8781 H   0  0  0  0  0  0  0  0  0  0  0  0
   35.0804   18.6355   31.3655 H   0  0  0  0  0  0  0  0  0  0  0  0
   33.9503   19.9081   31.9856 H   0  0  0  0  0  0  0  0  0  0  0  0
   34.9945   21.4786   30.8202 H   0  0  0  0  0  0  0  0  0  0  0  0
   35.9986   20.1973   30.0639 H   0  0  0  0  0  0  0  0  0  0  0  0
   37.5619   20.3401   32.0605 H   0  0  0  0  0  0  0  0  0  0  0  0
   37.5194   21.8351   31.1255 H   0  0  0  0  0  0  0  0  0  0  0  0
  1  2  2  0
  1  6  1  0
  2  3  1  0
  3  7  1  0
  3  4  2  0
  5  4  1  0
  6  5  2  0
  8  1  1  0
  9  8  1  0
 10  9  1  0
 10 11  1  0
 12 11  1  0
 13 12  1  0
 14 15  1  0
 14 13  1  0
 15 10  1  0
  2 16  1  0
  5 17  1  0
  7 18  1  0
  7 19  1  0
  8 20  1  0
  8 21  1  0
 10 22  1  0
 11 23  1  0
 11 24  1  0
 12 25  1  0
 12 26  1  0
 13 27  1  0
 13 28  1  0
 14 29  1  0
 14 30  1  0
 15 31  1  0
 15 32  1  0
M  ISO  8  16  14  17  14  20   8  21   8  22  13  23  13  24  13  25  13
M  ISO  7  26  13  27  13  28  13  29  13  30  13  31  13  32  13
M  END
>  <minimizedAffinity>  (1) 
-3.77348423

>  <minimizedRMSD>  (1) 
7.17529678

$$$$
