
     RDKit          3D

 29 30  0  0  0  0  0  0  0  0999 V2000
   39.9160   22.2220   36.7150 C   0  0  0  0  0  0  0  0  0  0  0  0
   39.6720   23.0340   37.8040 C   0  0  0  0  0  0  0  0  0  0  0  0
   38.4000   23.5990   37.9210 C   0  0  0  0  0  0  0  0  0  0  0  0
   37.4590   23.3180   36.9490 N   0  0  0  0  0  0  0  0  0  0  0  0
   37.7640   22.5110   35.9030 C   0  0  0  0  0  0  0  0  0  0  0  0
   38.9880   21.9720   35.7970 N   0  0  0  0  0  0  0  0  0  0  0  0
   37.9530   24.4530   38.9560 N   0  0  0  0  0  0  0  0  0  0  0  0
   41.2920   21.6580   36.6600 C   0  0  0  0  0  0  0  0  0  0  0  0
   42.2380   22.5890   37.1120 O   0  0  0  0  0  0  0  0  0  0  0  0
   43.0570   23.0360   36.1060 C   0  0  0  0  0  0  0  0  0  0  0  0
   43.7000   24.3360   36.5510 C   0  0  0  0  0  0  0  0  0  0  0  0
   45.1910   24.0490   36.6150 C   0  0  0  0  0  0  0  0  0  0  0  0
   45.3620   22.9180   35.6320 C   0  0  0  0  0  0  0  0  0  0  0  0
   44.2020   22.0330   35.9640 C   0  0  0  0  0  0  0  0  0  0  0  0
   40.4525   23.2295   38.5541 H   0  0  0  0  0  0  0  0  0  0  0  0
   37.0038   22.2971   35.1372 H   0  0  0  0  0  0  0  0  0  0  0  0
   36.9888   24.8152   38.9445 H   0  0  0  0  0  0  0  0  0  0  0  0
   38.5916   24.7127   39.7212 H   0  0  0  0  0  0  0  0  0  0  0  0
   41.3383   20.7614   37.2956 H   0  0  0  0  0  0  0  0  0  0  0  0
   41.5237   21.4039   35.6151 H   0  0  0  0  0  0  0  0  0  0  0  0
   42.4832   23.1605   35.1758 H   0  0  0  0  0  0  0  0  0  0  0  0
   43.4931   25.1358   35.8247 H   0  0  0  0  0  0  0  0  0  0  0  0
   43.3072   24.6751   37.5209 H   0  0  0  0  0  0  0  0  0  0  0  0
   45.7763   24.9292   36.3105 H   0  0  0  0  0  0  0  0  0  0  0  0
   45.5411   23.7996   37.6275 H   0  0  0  0  0  0  0  0  0  0  0  0
   46.3183   22.3967   35.7861 H   0  0  0  0  0  0  0  0  0  0  0  0
   45.3819   23.2447   34.5818 H   0  0  0  0  0  0  0  0  0  0  0  0
   44.0044   21.3149   35.1545 H   0  0  0  0  0  0  0  0  0  0  0  0
   44.3611   21.4163   36.8609 H   0  0  0  0  0  0  0  0  0  0  0  0
  1  2  2  0
  2  3  1  0
  3  7  1  0
  4  3  2  0
  5  4  1  0
  6  5  2  0
  6  1  1  0
  8  1  1  0
  8  9  1  0
 10 11  1  0
 10  9  1  0
 11 12  1  0
 13 14  1  0
 13 12  1  0
 14 10  1  0
  2 15  1  0
  5 16  1  0
  7 17  1  0
  7 18  1  0
  8 19  1  0
  8 20  1  0
 10 21  1  0
 11 22  1  0
 11 23  1  0
 12 24  1  0
 12 25  1  0
 13 26  1  0
 13 27  1  0
 14 28  1  0
 14 29  1  0
M  ISO  8  15  14  16  14  19   8  20   8  21  13  22  13  23  13  24  13
M  ISO  5  25  13  26  13  27  13  28  13  29  13
M  END
>  <minimizedAffinity>  (1) 
-3.80821562

>  <minimizedRMSD>  (1) 
2.03655195

$$$$
