
     RDKit          3D

 31 32  0  0  0  0  0  0  0  0999 V2000
   37.7230   21.9800   34.8380 C   0  0  0  0  0  0  0  0  0  0  0  0
   37.0890   21.7800   36.0500 C   0  0  0  0  0  0  0  0  0  0  0  0
   35.8920   21.0760   36.0370 C   0  0  0  0  0  0  0  0  0  0  0  0
   35.4020   20.6170   34.8240 N   0  0  0  0  0  0  0  0  0  0  0  0
   36.0600   20.8410   33.6800 C   0  0  0  0  0  0  0  0  0  0  0  0
   37.2180   21.5200   33.6790 N   0  0  0  0  0  0  0  0  0  0  0  0
   35.0950   20.7630   37.1560 N   0  0  0  0  0  0  0  0  0  0  0  0
   39.0040   22.7370   34.9120 C   0  0  0  0  0  0  0  0  0  0  0  0
   38.8480   24.0350   34.4920 O   0  0  0  0  0  0  0  0  0  0  0  0
   38.0470   27.6580   35.1240 N   0  0  0  0  0  0  0  0  0  0  0  0
   38.3060   26.9730   36.3600 C   0  0  0  0  0  0  0  0  0  0  0  0
   38.2990   25.4720   36.2190 C   0  0  0  0  0  0  0  0  0  0  0  0
   39.3960   25.0110   35.2780 C   0  0  0  0  0  0  0  0  0  0  0  0
   39.8860   26.2190   34.5560 C   0  0  0  0  0  0  0  0  0  0  0  0
   38.6860   26.9490   34.0300 C   0  0  0  0  0  0  0  0  0  0  0  0
   37.5161   22.1636   36.9883 H   0  0  0  0  0  0  0  0  0  0  0  0
   35.6479   20.4652   32.7319 H   0  0  0  0  0  0  0  0  0  0  0  0
   34.2204   20.2330   37.0333 H   0  0  0  0  0  0  0  0  0  0  0  0
   35.3870   21.0642   38.0967 H   0  0  0  0  0  0  0  0  0  0  0  0
   39.3582   22.7387   35.9534 H   0  0  0  0  0  0  0  0  0  0  0  0
   39.7330   22.2461   34.2505 H   0  0  0  0  0  0  0  0  0  0  0  0
   37.0309   27.6967   34.9601 H   0  0  0  0  0  0  0  0  0  0  0  0
   39.2930   27.2847   36.7325 H   0  0  0  0  0  0  0  0  0  0  0  0
   37.4984   27.2399   37.0575 H   0  0  0  0  0  0  0  0  0  0  0  0
   38.4579   25.0168   37.2077 H   0  0  0  0  0  0  0  0  0  0  0  0
   37.3280   25.1627   35.8048 H   0  0  0  0  0  0  0  0  0  0  0  0
   40.2769   24.5667   35.7644 H   0  0  0  0  0  0  0  0  0  0  0  0
   40.4469   26.8668   35.2458 H   0  0  0  0  0  0  0  0  0  0  0  0
   40.5562   25.9321   33.7322 H   0  0  0  0  0  0  0  0  0  0  0  0
   39.0002   27.6674   33.2585 H   0  0  0  0  0  0  0  0  0  0  0  0
   37.9786   26.2316   33.5885 H   0  0  0  0  0  0  0  0  0  0  0  0
  1  8  1  0
  1  2  2  0
  3  2  1  0
  3  7  1  0
  4  3  2  0
  5  4  1  0
  6  5  2  0
  6  1  1  0
  9  8  1  0
  9 13  1  0
 10 11  1  0
 12 11  1  0
 13 12  1  0
 14 13  1  0
 15 14  1  0
 15 10  1  0
  2 16  1  0
  5 17  1  0
  7 18  1  0
  7 19  1  0
  8 20  1  0
  8 21  1  0
 10 22  1  0
 11 23  1  0
 11 24  1  0
 12 25  1  0
 12 26  1  0
 13 27  1  0
 14 28  1  0
 14 29  1  0
 15 30  1  0
 15 31  1  0
M  ISO  8  16  14  17  14  20   8  21   8  22   5  23  13  24  13  25  13
M  ISO  6  26  13  27  13  28  13  29  13  30  13  31  13
M  END
>  <minimizedAffinity>  (1) 
-4.1976819

>  <minimizedRMSD>  (1) 
6.11566496

$$$$
