
     RDKit          3D

 23 24  0  0  0  0  0  0  0  0999 V2000
   39.9100   22.2930   36.5320 C   0  0  0  0  0  0  0  0  0  0  0  0
   39.7070   23.0720   37.6540 C   0  0  0  0  0  0  0  0  0  0  0  0
   38.3980   23.5270   37.8690 C   0  0  0  0  0  0  0  0  0  0  0  0
   37.4070   23.1790   36.9660 N   0  0  0  0  0  0  0  0  0  0  0  0
   37.6890   22.4150   35.8960 C   0  0  0  0  0  0  0  0  0  0  0  0
   38.9350   21.9760   35.6840 N   0  0  0  0  0  0  0  0  0  0  0  0
   37.9790   24.3360   38.9570 N   0  0  0  0  0  0  0  0  0  0  0  0
   41.3100   21.8290   36.3400 C   0  0  0  0  0  0  0  0  0  0  0  0
   42.2130   22.5940   37.0570 O   0  0  0  0  0  0  0  0  0  0  0  0
   42.8920   23.6080   36.3660 C   0  0  0  0  0  0  0  0  0  0  0  0
   44.0310   24.2260   36.8380 C   0  0  0  0  0  0  0  0  0  0  0  0
   44.4520   25.1860   35.9110 C   0  0  0  0  0  0  0  0  0  0  0  0
   43.5340   25.1060   34.9060 N   0  0  0  0  0  0  0  0  0  0  0  0
   42.6140   24.1810   35.1660 N   0  0  0  0  0  0  0  0  0  0  0  0
   40.5279   23.3222   38.3421 H   0  0  0  0  0  0  0  0  0  0  0  0
   36.8890   22.1488   35.1894 H   0  0  0  0  0  0  0  0  0  0  0  0
   36.9932   24.6240   39.0349 H   0  0  0  0  0  0  0  0  0  0  0  0
   38.6607   24.6352   39.6688 H   0  0  0  0  0  0  0  0  0  0  0  0
   41.3865   20.7837   36.6738 H   0  0  0  0  0  0  0  0  0  0  0  0
   41.5561   21.9250   35.2722 H   0  0  0  0  0  0  0  0  0  0  0  0
   44.5296   24.0000   37.7921 H   0  0  0  0  0  0  0  0  0  0  0  0
   45.3243   25.8528   35.9778 H   0  0  0  0  0  0  0  0  0  0  0  0
   43.5507   25.6867   34.0555 H   0  0  0  0  0  0  0  0  0  0  0  0
  1  2  2  0
  2  3  1  0
  3  7  1  0
  4  3  2  0
  5  4  1  0
  6  5  2  0
  6  1  1  0
  8  1  1  0
  8  9  1  0
 10 11  1  0
 10  9  1  0
 12 11  2  0
 13 14  1  0
 13 12  1  0
 14 10  2  0
  2 15  1  0
  5 16  1  0
  7 17  1  0
  7 18  1  0
  8 19  1  0
  8 20  1  0
 11 21  1  0
 12 22  1  0
 13 23  1  0
M  ISO  7  15  14  16  14  19   8  20   8  21  14  22  14  23   9
M  END
>  <minimizedAffinity>  (1) 
-3.62480736

>  <minimizedRMSD>  (1) 
1.34814596

$$$$
