
     RDKit          3D

 20 20  0  0  0  0  0  0  0  0999 V2000
   40.1130   22.2790   37.1350 C   0  0  0  0  0  0  0  0  0  0  0  0
   39.6680   23.1130   38.1410 C   0  0  0  0  0  0  0  0  0  0  0  0
   38.4300   23.7370   37.9310 C   0  0  0  0  0  0  0  0  0  0  0  0
   37.7510   23.4800   36.7560 N   0  0  0  0  0  0  0  0  0  0  0  0
   38.2390   22.6590   35.8190 C   0  0  0  0  0  0  0  0  0  0  0  0
   39.4200   22.0580   36.0070 N   0  0  0  0  0  0  0  0  0  0  0  0
   37.7860   24.6200   38.8150 N   0  0  0  0  0  0  0  0  0  0  0  0
   41.4370   21.6400   37.4090 C   0  0  0  0  0  0  0  0  0  0  0  0
   41.9850   21.0980   36.2590 O   0  0  0  0  0  0  0  0  0  0  0  0
   42.8680   20.0150   36.3920 C   0  0  0  0  0  0  0  0  0  0  0  0
   42.7780   19.2850   37.6210 N   0  0  0  0  0  0  0  0  0  0  0  0
   43.6910   19.6830   35.5150 O   0  0  0  0  0  0  0  0  0  0  0  0
   40.2529   23.2790   39.0577 H   0  0  0  0  0  0  0  0  0  0  0  0
   37.6701   22.4781   34.8951 H   0  0  0  0  0  0  0  0  0  0  0  0
   36.8733   25.0258   38.5637 H   0  0  0  0  0  0  0  0  0  0  0  0
   38.2268   24.8612   39.7141 H   0  0  0  0  0  0  0  0  0  0  0  0
   42.1247   22.3995   37.8094 H   0  0  0  0  0  0  0  0  0  0  0  0
   41.2853   20.8282   38.1356 H   0  0  0  0  0  0  0  0  0  0  0  0
   43.3959   18.4778   37.7870 H   0  0  0  0  0  0  0  0  0  0  0  0
   42.0954   19.5672   38.3388 H   0  0  0  0  0  0  0  0  0  0  0  0
  1  8  1  0
  1  2  2  0
  3  2  1  0
  3  7  1  0
  4  3  2  0
  5  6  2  0
  5  4  1  0
  6  1  1  0
  9 10  1  0
  9  8  1  0
 10 11  1  0
 12 10  2  0
  2 13  1  0
  5 14  1  0
  7 15  1  0
  7 16  1  0
  8 17  1  0
  8 18  1  0
 11 19  1  0
 11 20  1  0
M  ISO  4  13  14  14  14  17   8  18   8
M  END
>  <minimizedAffinity>  (1) 
-3.46114421

>  <minimizedRMSD>  (1) 
1.60176861

$$$$
