
     RDKit          3D

 25 25  0  0  0  0  0  0  0  0999 V2000
   39.8950   22.2310   36.7390 C   0  0  0  0  0  0  0  0  0  0  0  0
   39.6420   23.0430   37.8250 C   0  0  0  0  0  0  0  0  0  0  0  0
   38.3640   23.6170   37.9270 C   0  0  0  0  0  0  0  0  0  0  0  0
   37.4520   23.3220   36.9280 N   0  0  0  0  0  0  0  0  0  0  0  0
   37.7620   22.5240   35.8980 C   0  0  0  0  0  0  0  0  0  0  0  0
   38.9700   21.9790   35.7970 N   0  0  0  0  0  0  0  0  0  0  0  0
   37.9080   24.4680   38.9480 N   0  0  0  0  0  0  0  0  0  0  0  0
   41.2640   21.6580   36.6980 C   0  0  0  0  0  0  0  0  0  0  0  0
   42.2010   22.5320   37.2130 O   0  0  0  0  0  0  0  0  0  0  0  0
   43.0940   23.0050   36.2850 C   0  0  0  0  0  0  0  0  0  0  0  0
   44.0250   21.8640   35.9360 C   0  0  0  0  0  0  0  0  0  0  0  0
   43.9110   24.1800   36.7020 C   0  0  0  0  0  0  0  0  0  0  0  0
   40.4142   23.2344   38.5847 H   0  0  0  0  0  0  0  0  0  0  0  0
   37.0068   22.3169   35.1254 H   0  0  0  0  0  0  0  0  0  0  0  0
   36.9453   24.8332   38.9224 H   0  0  0  0  0  0  0  0  0  0  0  0
   38.5365   24.7266   39.7220 H   0  0  0  0  0  0  0  0  0  0  0  0
   41.2796   20.7303   37.2889 H   0  0  0  0  0  0  0  0  0  0  0  0
   41.5212   21.4612   35.6467 H   0  0  0  0  0  0  0  0  0  0  0  0
   42.4950   23.3679   35.4368 H   0  0  0  0  0  0  0  0  0  0  0  0
   44.4018   21.4023   36.8606 H   0  0  0  0  0  0  0  0  0  0  0  0
   43.4791   21.1124   35.3469 H   0  0  0  0  0  0  0  0  0  0  0  0
   44.8708   22.2480   35.3469 H   0  0  0  0  0  0  0  0  0  0  0  0
   43.9463   24.2308   37.8003 H   0  0  0  0  0  0  0  0  0  0  0  0
   44.9322   24.0754   36.3067 H   0  0  0  0  0  0  0  0  0  0  0  0
   43.4574   25.1009   36.3067 H   0  0  0  0  0  0  0  0  0  0  0  0
  1  2  2  0
  2  3  1  0
  3  7  1  0
  4  3  2  0
  5  4  1  0
  6  5  2  0
  6  1  1  0
  8  1  1  0
  8  9  1  0
 10 12  1  0
 10  9  1  0
 11 10  1  0
  2 13  1  0
  5 14  1  0
  7 15  1  0
  7 16  1  0
  8 17  1  0
  8 18  1  0
 10 19  1  0
 11 20  1  0
 11 21  1  0
 11 22  1  0
 12 23  1  0
 12 24  1  0
 12 25  1  0
M  ISO  8  13  14  14  14  17   8  18   8  19   8  20   8  21   8  22   8
M  ISO  3  23   8  24   8  25   8
M  END
>  <minimizedAffinity>  (1) 
-3.39849114

>  <minimizedRMSD>  (1) 
0.945169508

$$$$
