
     RDKit          3D

 31 33  0  0  0  0  0  0  0  0999 V2000
   38.6450   24.1530   36.5460 C   0  0  0  0  0  0  0  0  0  0  0  0
   39.9070   23.7280   36.1160 C   0  0  0  0  0  0  0  0  0  0  0  0
   40.4780   24.3850   35.0030 C   0  0  0  0  0  0  0  0  0  0  0  0
   39.7770   25.3800   34.4210 N   0  0  0  0  0  0  0  0  0  0  0  0
   38.5760   25.7690   34.8480 C   0  0  0  0  0  0  0  0  0  0  0  0
   38.0100   25.1620   35.9040 N   0  0  0  0  0  0  0  0  0  0  0  0
   37.7870   26.8130   34.2750 N   0  0  0  0  0  0  0  0  0  0  0  0
   36.7660   27.4690   34.8270 C   0  0  0  0  0  0  0  0  0  0  0  0
   36.1280   28.4410   34.1210 C   0  0  0  0  0  0  0  0  0  0  0  0
   36.5200   28.7460   32.8660 C   0  0  0  0  0  0  0  0  0  0  0  0
   35.9540   29.6420   32.1760 O   0  0  0  0  0  0  0  0  0  0  0  0
   37.5600   28.0770   32.3060 N   0  0  0  0  0  0  0  0  0  0  0  0
   38.1800   27.1210   33.0150 C   0  0  0  0  0  0  0  0  0  0  0  0
   39.1540   26.5520   32.3840 O   0  0  0  0  0  0  0  0  0  0  0  0
   37.9470   28.4270   30.9810 C   0  0  0  0  0  0  0  0  0  0  0  0
   39.0600   27.9210   30.4120 N   0  0  0  0  0  0  0  0  0  0  0  0
   39.2110   28.3810   29.2070 O   0  0  0  0  0  0  0  0  0  0  0  0
   38.1800   29.1910   29.0040 C   0  0  0  0  0  0  0  0  0  0  0  0
   37.3750   29.2350   30.1030 N   0  0  0  0  0  0  0  0  0  0  0  0
   37.9970   23.4860   37.7240 C   0  0  0  0  0  0  0  0  0  0  0  0
   38.9260   22.7520   38.4550 F   0  0  0  0  0  0  0  0  0  0  0  0
   37.4760   24.4320   38.5700 F   0  0  0  0  0  0  0  0  0  0  0  0
   36.9800   22.6520   37.2570 F   0  0  0  0  0  0  0  0  0  0  0  0
   37.8960   29.9690   27.7610 C   0  0  0  0  0  0  0  0  0  0  0  0
   40.4364   22.9103   36.6270 H   0  0  0  0  0  0  0  0  0  0  0  0
   41.4675   24.0931   34.6213 H   0  0  0  0  0  0  0  0  0  0  0  0
   36.4409   27.2252   35.8492 H   0  0  0  0  0  0  0  0  0  0  0  0
   35.2859   28.9827   34.5765 H   0  0  0  0  0  0  0  0  0  0  0  0
   37.5303   30.9707   28.0309 H   0  0  0  0  0  0  0  0  0  0  0  0
   38.8179   30.0626   27.1683 H   0  0  0  0  0  0  0  0  0  0  0  0
   37.1306   29.4466   27.1683 H   0  0  0  0  0  0  0  0  0  0  0  0
  1 20  1  0
  2  1  2  0
  3  2  1  0
  4  5  1  0
  4  3  2  0
  5  6  2  0
  6  1  1  0
  7  8  1  0
  7  5  1  0
  9  8  2  0
 10  9  1  0
 11 10  2  0
 12 10  1  0
 12 13  1  0
 13  7  1  0
 14 13  2  0
 15 12  1  0
 16 15  2  0
 17 16  1  0
 18 17  1  0
 18 19  2  0
 19 15  1  0
 20 21  1  0
 20 22  1  0
 23 20  1  0
 24 18  1  0
  2 25  1  0
  3 26  1  0
  8 27  1  0
  9 28  1  0
 24 29  1  0
 24 30  1  0
 24 31  1  0
M  ISO  7  25  14  26  14  27  14  28  14  29   8  30   8  31   8
M  END
>  <minimizedAffinity>  (1) 
-5.78475904

>  <minimizedRMSD>  (1) 
0.414181411

$$$$
