
     RDKit          3D

 37 40  0  0  1  0  0  0  0  0999 V2000
   42.8040   23.6900   34.8380 C   0  0  1  0  0  0  0  0  0  0  0  0
   42.6570   25.1200   35.1840 C   0  0  0  0  0  0  0  0  0  0  0  0
   43.9600   24.6440   34.6610 C   0  0  1  0  0  0  0  0  0  0  0  0
   45.1290   24.3400   35.4800 C   0  0  0  0  0  0  0  0  0  0  0  0
   45.9690   23.4880   34.8150 N   0  0  0  0  0  0  0  0  0  0  0  0
   47.1130   23.0300   35.4050 C   0  0  0  0  0  0  0  0  0  0  0  0
   47.4340   23.4100   36.6530 N   0  0  0  0  0  0  0  0  0  0  0  0
   46.6460   24.2460   37.3520 C   0  0  0  0  0  0  0  0  0  0  0  0
   46.8850   24.7060   38.6290 C   0  0  0  0  0  0  0  0  0  0  0  0
   45.9970   25.5830   39.2490 C   0  0  0  0  0  0  0  0  0  0  0  0
   44.8350   26.0320   38.6130 C   0  0  0  0  0  0  0  0  0  0  0  0
   44.6170   25.5590   37.3370 C   0  0  0  0  0  0  0  0  0  0  0  0
   45.4960   24.7000   36.7450 C   0  0  0  0  0  0  0  0  0  0  0  0
   42.9870   22.7240   35.8230 O   0  0  0  0  0  0  0  0  0  0  0  0
   42.0440   21.7580   35.7820 C   0  0  0  0  0  0  0  0  0  0  0  0
   40.6700   22.1890   36.1310 C   0  0  0  0  0  0  0  0  0  0  0  0
   40.5680   22.6090   37.4440 C   0  0  0  0  0  0  0  0  0  0  0  0
   39.3330   23.0160   37.9300 C   0  0  0  0  0  0  0  0  0  0  0  0
   38.2710   22.9740   37.0570 N   0  0  0  0  0  0  0  0  0  0  0  0
   38.4100   22.5560   35.7710 C   0  0  0  0  0  0  0  0  0  0  0  0
   39.6270   22.1650   35.3250 N   0  0  0  0  0  0  0  0  0  0  0  0
   38.9960   23.4740   39.2060 N   0  0  0  0  0  0  0  0  0  0  0  0
   42.2034   23.0087   34.2174 H   0  0  0  0  0  0  0  0  0  0  0  0
   42.0235   25.7702   34.5628 H   0  0  0  0  0  0  0  0  0  0  0  0
   42.3420   25.6658   36.0856 H   0  0  0  0  0  0  0  0  0  0  0  0
   44.6090   25.0435   33.8678 H   0  0  0  0  0  0  0  0  0  0  0  0
   47.7755   22.3457   34.8547 H   0  0  0  0  0  0  0  0  0  0  0  0
   47.7874   24.3770   39.1652 H   0  0  0  0  0  0  0  0  0  0  0  0
   46.2164   25.9324   40.2687 H   0  0  0  0  0  0  0  0  0  0  0  0
   44.1345   26.7238   39.1037 H   0  0  0  0  0  0  0  0  0  0  0  0
   43.7198   25.8793   36.7871 H   0  0  0  0  0  0  0  0  0  0  0  0
   42.0215   21.3502   34.7606 H   0  0  0  0  0  0  0  0  0  0  0  0
   42.3325   21.0233   36.5482 H   0  0  0  0  0  0  0  0  0  0  0  0
   41.4542   22.6206   38.0955 H   0  0  0  0  0  0  0  0  0  0  0  0
   37.5403   22.5356   35.0978 H   0  0  0  0  0  0  0  0  0  0  0  0
   38.0242   23.7422   39.4169 H   0  0  0  0  0  0  0  0  0  0  0  0
   39.7194   23.5435   39.9359 H   0  0  0  0  0  0  0  0  0  0  0  0
  1  2  1  0
  1 14  1  0
  3  1  1  0
  3  2  1  0
  3  4  1  0
  4 13  2  0
  5  6  2  0
  5  4  1  0
  6  7  1  0
  7  8  2  0
  8  9  1  0
  9 10  2  0
 11 10  1  0
 12 11  2  0
 13 12  1  0
 13  8  1  0
 15 14  1  0
 15 16  1  0
 16 17  2  0
 17 18  1  0
 18 22  1  0
 19 18  2  0
 20 19  1  0
 21 20  2  0
 21 16  1  0
  1 23  1  6
  2 24  1  0
  2 25  1  0
  3 26  1  6
  6 27  1  0
  9 28  1  0
 10 29  1  0
 11 30  1  0
 12 31  1  0
 15 32  1  0
 15 33  1  0
 17 34  1  0
 20 35  1  0
 22 36  1  0
 22 37  1  0
M  ISO  8  23  13  24  13  25  13  26  13  27  14  28  14  29  14  30  14
M  ISO  5  31  14  32   8  33   8  34  14  35  14
M  END
>  <minimizedAffinity>  (1) 
-5.47649002

>  <minimizedRMSD>  (1) 
3.19916916

$$$$
