
     RDKit          3D

 39 42  0  0  1  0  0  0  0  0999 V2000
   42.6830   23.4870   34.9040 C   0  0  1  0  0  0  0  0  0  0  0  0
   42.5570   24.9390   35.1830 C   0  0  0  0  0  0  0  0  0  0  0  0
   43.8460   24.4200   34.6810 C   0  0  1  0  0  0  0  0  0  0  0  0
   45.0270   24.1400   35.4730 C   0  0  0  0  0  0  0  0  0  0  0  0
   45.9080   23.2280   34.8710 C   0  0  0  0  0  0  0  0  0  0  0  0
   47.0700   22.8190   35.5180 C   0  0  0  0  0  0  0  0  0  0  0  0
   47.3990   23.3040   36.7890 C   0  0  0  0  0  0  0  0  0  0  0  0
   46.5490   24.2000   37.3960 C   0  0  0  0  0  0  0  0  0  0  0  0
   46.8140   24.7350   38.6390 C   0  0  0  0  0  0  0  0  0  0  0  0
   45.9620   25.6610   39.2510 C   0  0  0  0  0  0  0  0  0  0  0  0
   44.8200   26.0160   38.5250 C   0  0  0  0  0  0  0  0  0  0  0  0
   44.5850   25.4730   37.3030 C   0  0  0  0  0  0  0  0  0  0  0  0
   45.4150   24.5680   36.7090 C   0  0  0  0  0  0  0  0  0  0  0  0
   42.8560   22.5710   35.9380 O   0  0  0  0  0  0  0  0  0  0  0  0
   41.8800   21.6480   35.9870 C   0  0  0  0  0  0  0  0  0  0  0  0
   40.5280   22.1470   36.3180 C   0  0  0  0  0  0  0  0  0  0  0  0
   40.4520   22.6220   37.6150 C   0  0  0  0  0  0  0  0  0  0  0  0
   39.2260   23.0980   38.0910 C   0  0  0  0  0  0  0  0  0  0  0  0
   38.1520   23.0590   37.2050 N   0  0  0  0  0  0  0  0  0  0  0  0
   38.2850   22.5870   35.9540 C   0  0  0  0  0  0  0  0  0  0  0  0
   39.4810   22.1340   35.5240 N   0  0  0  0  0  0  0  0  0  0  0  0
   38.9540   23.6270   39.3570 N   0  0  0  0  0  0  0  0  0  0  0  0
   42.0751   22.7827   34.3171 H   0  0  0  0  0  0  0  0  0  0  0  0
   41.9308   25.5681   34.5334 H   0  0  0  0  0  0  0  0  0  0  0  0
   42.2533   25.5321   36.0582 H   0  0  0  0  0  0  0  0  0  0  0  0
   44.4959   24.7812   33.8703 H   0  0  0  0  0  0  0  0  0  0  0  0
   45.6761   22.8303   33.8719 H   0  0  0  0  0  0  0  0  0  0  0  0
   47.7413   22.1024   35.0222 H   0  0  0  0  0  0  0  0  0  0  0  0
   48.3197   22.9752   37.2932 H   0  0  0  0  0  0  0  0  0  0  0  0
   47.7268   24.4230   39.1677 H   0  0  0  0  0  0  0  0  0  0  0  0
   46.1772   26.0843   40.2432 H   0  0  0  0  0  0  0  0  0  0  0  0
   44.1076   26.7400   38.9471 H   0  0  0  0  0  0  0  0  0  0  0  0
   43.6768   25.7792   36.7631 H   0  0  0  0  0  0  0  0  0  0  0  0
   41.8269   21.1625   35.0014 H   0  0  0  0  0  0  0  0  0  0  0  0
   42.1546   20.9714   36.8097 H   0  0  0  0  0  0  0  0  0  0  0  0
   41.3417   22.6253   38.2618 H   0  0  0  0  0  0  0  0  0  0  0  0
   37.4168   22.5699   35.2788 H   0  0  0  0  0  0  0  0  0  0  0  0
   38.0023   23.9460   39.5882 H   0  0  0  0  0  0  0  0  0  0  0  0
   39.7054   23.6975   40.0580 H   0  0  0  0  0  0  0  0  0  0  0  0
  1  2  1  0
  1 14  1  0
  3  1  1  0
  3  2  1  0
  3  4  1  0
  4 13  1  0
  5  4  2  0
  5  6  1  0
  6  7  2  0
  7  8  1  0
  8  9  2  0
  9 10  1  0
 11 10  2  0
 12 11  1  0
 13 12  2  0
 13  8  1  0
 14 15  1  0
 15 16  1  0
 16 17  2  0
 17 18  1  0
 18 22  1  0
 19 18  2  0
 20 19  1  0
 21 20  2  0
 21 16  1  0
  1 23  1  6
  2 24  1  0
  2 25  1  0
  3 26  1  6
  5 27  1  0
  6 28  1  0
  7 29  1  0
  9 30  1  0
 10 31  1  0
 11 32  1  0
 12 33  1  0
 15 34  1  0
 15 35  1  0
 17 36  1  0
 20 37  1  0
 22 38  1  0
 22 39  1  0
M  ISO  8  23  13  24  13  25  13  26  13  27  14  28  14  29  14  30  14
M  ISO  7  31  14  32  14  33  14  34   8  35   8  36  14  37  14
M  END
>  <minimizedAffinity>  (1) 
-5.63362932

>  <minimizedRMSD>  (1) 
3.22407746

$$$$
