
     RDKit          3D

 38 40  0  0  1  0  0  0  0  0999 V2000
   42.3380   22.4720   36.9010 O   0  0  0  0  0  0  0  0  0  0  0  0
   42.5900   23.0330   35.6510 C   0  0  1  0  0  0  0  0  0  0  0  0
   42.5310   24.4810   35.3860 C   0  0  0  0  0  0  0  0  0  0  0  0
   43.8630   23.8490   35.6030 C   0  0  1  0  0  0  0  0  0  0  0  0
   44.6220   24.1050   36.7940 N   0  0  0  0  0  0  0  0  0  0  0  0
   44.6360   25.5620   36.9810 C   0  0  0  0  0  0  0  0  0  0  0  0
   45.6460   26.2250   36.0590 C   0  0  0  0  0  0  0  0  0  0  0  0
   47.0290   25.9110   36.5870 C   0  0  0  0  0  0  0  0  0  0  0  0
   46.9880   24.5800   37.2620 C   0  0  0  0  0  0  0  0  0  0  0  0
   45.9760   23.6750   36.5760 C   0  0  0  0  0  0  0  0  0  0  0  0
   41.3030   21.6100   36.8870 C   0  0  0  0  0  0  0  0  0  0  0  0
   39.9540   22.1990   36.7940 C   0  0  0  0  0  0  0  0  0  0  0  0
   39.6780   23.0170   37.8820 C   0  0  0  0  0  0  0  0  0  0  0  0
   38.4310   23.6230   37.9710 C   0  0  0  0  0  0  0  0  0  0  0  0
   37.5270   23.3690   36.9540 N   0  0  0  0  0  0  0  0  0  0  0  0
   37.8460   22.5600   35.9110 C   0  0  0  0  0  0  0  0  0  0  0  0
   39.0670   21.9820   35.8450 N   0  0  0  0  0  0  0  0  0  0  0  0
   37.9370   24.4740   38.9590 N   0  0  0  0  0  0  0  0  0  0  0  0
   42.1199   22.1849   35.1316 H   0  0  0  0  0  0  0  0  0  0  0  0
   42.1178   25.1591   36.1472 H   0  0  0  0  0  0  0  0  0  0  0  0
   42.0937   25.1003   34.5889 H   0  0  0  0  0  0  0  0  0  0  0  0
   44.8080   23.7996   35.0422 H   0  0  0  0  0  0  0  0  0  0  0  0
   43.6346   25.9614   36.7626 H   0  0  0  0  0  0  0  0  0  0  0  0
   44.9209   25.7768   38.0215 H   0  0  0  0  0  0  0  0  0  0  0  0
   45.4868   27.3134   36.0503 H   0  0  0  0  0  0  0  0  0  0  0  0
   45.5325   25.8500   35.0311 H   0  0  0  0  0  0  0  0  0  0  0  0
   47.7465   25.8824   35.7537 H   0  0  0  0  0  0  0  0  0  0  0  0
   47.3445   26.6859   37.3011 H   0  0  0  0  0  0  0  0  0  0  0  0
   47.9840   24.1158   37.2111 H   0  0  0  0  0  0  0  0  0  0  0  0
   46.6920   24.7188   38.3123 H   0  0  0  0  0  0  0  0  0  0  0  0
   46.0905   22.6543   36.9698 H   0  0  0  0  0  0  0  0  0  0  0  0
   46.1705   23.7130   35.4940 H   0  0  0  0  0  0  0  0  0  0  0  0
   41.4361   20.9428   36.0226 H   0  0  0  0  0  0  0  0  0  0  0  0
   41.3324   21.1057   37.8641 H   0  0  0  0  0  0  0  0  0  0  0  0
   40.4358   23.1826   38.6619 H   0  0  0  0  0  0  0  0  0  0  0  0
   37.1083   22.3740   35.1165 H   0  0  0  0  0  0  0  0  0  0  0  0
   36.9801   24.8480   38.8853 H   0  0  0  0  0  0  0  0  0  0  0  0
   38.5290   24.7286   39.7625 H   0  0  0  0  0  0  0  0  0  0  0  0
  2  1  1  0
  3  4  1  0
  3  2  1  0
  4  2  1  0
  4  5  1  0
  5  6  1  0
  7  8  1  0
  7  6  1  0
  8  9  1  0
 10  5  1  0
 10  9  1  0
 11  1  1  0
 12 11  1  0
 12 13  2  0
 13 14  1  0
 14 18  1  0
 15 14  2  0
 16 15  1  0
 17 16  2  0
 17 12  1  0
  2 19  1  6
  3 20  1  0
  3 21  1  0
  4 22  1  6
  6 23  1  0
  6 24  1  0
  7 25  1  0
  7 26  1  0
  8 27  1  0
  8 28  1  0
  9 29  1  0
  9 30  1  0
 10 31  1  0
 10 32  1  0
 11 33  1  0
 11 34  1  0
 13 35  1  0
 16 36  1  0
 18 37  1  0
 18 38  1  0
M  ISO  8  19  13  20  13  21  13  22  13  23  13  24  13  25  13  26  13
M  ISO  8  27  13  28  13  29  13  30  13  31  13  32  13  33   8  34   8
M  ISO  2  35  14  36  14
M  END
>  <minimizedAffinity>  (1) 
-4.25424623

>  <minimizedRMSD>  (1) 
2.42921519

$$$$
