
     RDKit          3D

 30 32  0  0  1  0  0  0  0  0999 V2000
   41.0800   23.3610   35.3350 C   0  0  0  0  0  0  0  0  0  0  0  0
   39.8550   23.7370   36.0670 C   0  0  0  0  0  0  0  0  0  0  0  0
   39.7250   23.0040   37.2340 C   0  0  0  0  0  0  0  0  0  0  0  0
   38.5920   23.2050   38.0430 C   0  0  0  0  0  0  0  0  0  0  0  0
   37.6810   24.1320   37.6050 N   0  0  0  0  0  0  0  0  0  0  0  0
   37.8500   24.8290   36.4520 C   0  0  0  0  0  0  0  0  0  0  0  0
   38.9440   24.6140   35.7010 N   0  0  0  0  0  0  0  0  0  0  0  0
   38.2880   22.5760   39.2510 N   0  0  0  0  0  0  0  0  0  0  0  0
   42.2250   23.9160   35.7490 O   0  0  0  0  0  0  0  0  0  0  0  0
   43.2400   23.0030   35.9960 C   0  0  1  0  0  0  0  0  0  0  0  0
   44.5220   23.0580   35.2740 C   0  0  0  0  0  0  0  0  0  0  0  0
   44.4630   23.6090   36.6540 C   0  0  1  0  0  0  0  0  0  0  0  0
   44.3480   25.0530   36.9500 C   0  0  0  0  0  0  0  0  0  0  0  0
   45.4850   25.9920   36.8970 C   0  0  0  0  0  0  0  0  0  0  0  0
   44.8620   25.6430   38.2150 C   0  0  0  0  0  0  0  0  0  0  0  0
   40.9368   23.6408   34.2809 H   0  0  0  0  0  0  0  0  0  0  0  0
   41.2021   22.2825   35.5135 H   0  0  0  0  0  0  0  0  0  0  0  0
   40.4961   22.2753   37.5244 H   0  0  0  0  0  0  0  0  0  0  0  0
   37.0965   25.5649   36.1345 H   0  0  0  0  0  0  0  0  0  0  0  0
   37.4192   22.8132   39.7508 H   0  0  0  0  0  0  0  0  0  0  0  0
   38.9324   21.8745   39.6428 H   0  0  0  0  0  0  0  0  0  0  0  0
   42.5301   22.1813   36.1717 H   0  0  0  0  0  0  0  0  0  0  0  0
   45.0795   22.1296   35.0806 H   0  0  0  0  0  0  0  0  0  0  0  0
   44.8385   23.4585   34.2996 H   0  0  0  0  0  0  0  0  0  0  0  0
   45.1035   23.4527   37.5345 H   0  0  0  0  0  0  0  0  0  0  0  0
   43.3708   25.0069   36.4471 H   0  0  0  0  0  0  0  0  0  0  0  0
   46.4915   25.6236   36.6497 H   0  0  0  0  0  0  0  0  0  0  0  0
   45.6959   26.9286   36.3601 H   0  0  0  0  0  0  0  0  0  0  0  0
   44.2648   26.3900   38.7585 H   0  0  0  0  0  0  0  0  0  0  0  0
   45.2283   25.2438   39.1723 H   0  0  0  0  0  0  0  0  0  0  0  0
  1  9  1  0
  1  2  1  0
  2  3  2  0
  3  4  1  0
  4  8  1  0
  5  4  2  0
  6  5  1  0
  7  2  1  0
  7  6  2  0
  9 10  1  0
 10 12  1  0
 11 10  1  0
 11 12  1  0
 12 13  1  0
 13 15  1  0
 14 13  1  0
 14 15  1  0
  1 16  1  0
  1 17  1  0
  3 18  1  0
  6 19  1  0
  8 20  1  0
  8 21  1  0
 10 22  1  1
 11 23  1  0
 11 24  1  0
 12 25  1  1
 13 26  1  0
 14 27  1  0
 14 28  1  0
 15 29  1  0
 15 30  1  0
M  ISO  8  16   8  17   8  18  14  19  14  22  13  23  13  24  13  25  13
M  ISO  5  26  13  27  13  28  13  29  13  30  13
M  END
>  <minimizedAffinity>  (1) 
-4.24438477

>  <minimizedRMSD>  (1) 
2.61355948

$$$$
