
     RDKit          3D

 30 32  0  0  0  0  0  0  0  0999 V2000
   38.6450   24.0640   36.7870 C   0  0  0  0  0  0  0  0  0  0  0  0
   39.8910   23.5670   36.3790 C   0  0  0  0  0  0  0  0  0  0  0  0
   40.4870   24.1480   35.2270 C   0  0  0  0  0  0  0  0  0  0  0  0
   39.8220   25.1310   34.6040 N   0  0  0  0  0  0  0  0  0  0  0  0
   38.6240   25.5860   35.0220 C   0  0  0  0  0  0  0  0  0  0  0  0
   38.0390   25.0610   36.1020 N   0  0  0  0  0  0  0  0  0  0  0  0
   37.8830   26.6330   34.3860 N   0  0  0  0  0  0  0  0  0  0  0  0
   36.8750   27.3350   34.9110 C   0  0  0  0  0  0  0  0  0  0  0  0
   36.2720   28.3080   34.1550 C   0  0  0  0  0  0  0  0  0  0  0  0
   36.6920   28.5580   32.8880 C   0  0  0  0  0  0  0  0  0  0  0  0
   36.1580   29.4430   32.1740 O   0  0  0  0  0  0  0  0  0  0  0  0
   37.7150   27.8290   32.3830 N   0  0  0  0  0  0  0  0  0  0  0  0
   38.2980   26.8810   33.1280 C   0  0  0  0  0  0  0  0  0  0  0  0
   39.2450   26.2690   32.5390 O   0  0  0  0  0  0  0  0  0  0  0  0
   38.1290   28.1250   31.0510 C   0  0  0  0  0  0  0  0  0  0  0  0
   39.2170   27.5410   30.5090 N   0  0  0  0  0  0  0  0  0  0  0  0
   39.4130   27.9560   29.2870 O   0  0  0  0  0  0  0  0  0  0  0  0
   38.4330   28.8160   29.0510 C   0  0  0  0  0  0  0  0  0  0  0  0
   37.6210   28.9370   30.1340 N   0  0  0  0  0  0  0  0  0  0  0  0
   37.9980   23.4650   38.0020 C   0  0  0  0  0  0  0  0  0  0  0  0
   38.9130   22.7840   38.7840 F   0  0  0  0  0  0  0  0  0  0  0  0
   37.4730   24.4850   38.7830 F   0  0  0  0  0  0  0  0  0  0  0  0
   36.9660   22.6470   37.5920 F   0  0  0  0  0  0  0  0  0  0  0  0
   38.2690   29.5240   27.7880 C   0  0  0  0  0  0  0  0  0  0  0  0
   37.6110   30.6140   27.8100 O   0  0  0  0  0  0  0  0  0  0  0  0
   40.3894   22.7564   36.9308 H   0  0  0  0  0  0  0  0  0  0  0  0
   41.4637   23.8017   34.8581 H   0  0  0  0  0  0  0  0  0  0  0  0
   36.5326   27.1353   35.9371 H   0  0  0  0  0  0  0  0  0  0  0  0
   35.4409   28.8909   34.5788 H   0  0  0  0  0  0  0  0  0  0  0  0
   38.6964   29.1326   26.8531 H   0  0  0  0  0  0  0  0  0  0  0  0
  1 20  1  0
  2  1  2  0
  3  2  1  0
  4  5  1  0
  4  3  2  0
  5  6  2  0
  6  1  1  0
  7  8  1  0
  7  5  1  0
  9  8  2  0
 10  9  1  0
 11 10  2  0
 12 10  1  0
 12 13  1  0
 13  7  1  0
 14 13  2  0
 15 12  1  0
 16 15  2  0
 17 16  1  0
 18 17  1  0
 18 19  2  0
 19 15  1  0
 20 22  1  0
 20 21  1  0
 23 20  1  0
 24 25  2  0
 24 18  1  0
  2 26  1  0
  3 27  1  0
  8 28  1  0
  9 29  1  0
 24 30  1  0
M  ISO  5  26  14  27  14  28  14  29  14  30   6
M  END
>  <minimizedAffinity>  (1) 
-5.78309965

>  <minimizedRMSD>  (1) 
0.65506947

$$$$
