
     RDKit          3D

 34 37  0  0  1  0  0  0  0  0999 V2000
   43.9360   24.4310   36.7060 C   0  0  1  0  0  0  0  0  0  0  0  0
   44.6090   25.1090   37.8240 C   0  0  0  0  0  0  0  0  0  0  0  0
   45.4400   24.6010   36.6860 C   0  0  2  0  0  0  0  0  0  0  0  0
   46.0180   25.6140   35.8270 N   0  0  0  0  0  0  0  0  0  0  0  0
   45.5670   25.9900   34.6230 C   0  0  0  0  0  0  0  0  0  0  0  0
   46.3510   26.9710   34.0920 N   0  0  0  0  0  0  0  0  0  0  0  0
   47.3270   27.2240   34.9830 C   0  0  0  0  0  0  0  0  0  0  0  0
   48.3700   28.1270   34.9220 C   0  0  0  0  0  0  0  0  0  0  0  0
   49.1920   28.1380   36.0000 N   0  0  0  0  0  0  0  0  0  0  0  0
   48.9890   27.3220   37.0420 C   0  0  0  0  0  0  0  0  0  0  0  0
   47.9600   26.4560   37.0620 N   0  0  0  0  0  0  0  0  0  0  0  0
   47.1050   26.3760   36.0510 C   0  0  0  0  0  0  0  0  0  0  0  0
   43.5220   23.1070   36.7230 O   0  0  0  0  0  0  0  0  0  0  0  0
   42.5750   22.8300   35.8100 C   0  0  0  0  0  0  0  0  0  0  0  0
   41.2090   23.2930   36.1100 C   0  0  0  0  0  0  0  0  0  0  0  0
   40.7320   22.7440   37.2900 C   0  0  0  0  0  0  0  0  0  0  0  0
   39.4280   23.0570   37.7040 C   0  0  0  0  0  0  0  0  0  0  0  0
   38.7080   23.8980   36.8970 N   0  0  0  0  0  0  0  0  0  0  0  0
   39.2080   24.4160   35.7500 C   0  0  0  0  0  0  0  0  0  0  0  0
   40.4690   24.0970   35.3750 N   0  0  0  0  0  0  0  0  0  0  0  0
   38.7620   22.6200   38.8520 N   0  0  0  0  0  0  0  0  0  0  0  0
   43.0505   24.7237   36.1227 H   0  0  0  0  0  0  0  0  0  0  0  0
   44.4785   26.1922   37.9643 H   0  0  0  0  0  0  0  0  0  0  0  0
   44.6258   24.9645   38.9143 H   0  0  0  0  0  0  0  0  0  0  0  0
   46.2902   23.9159   36.5529 H   0  0  0  0  0  0  0  0  0  0  0  0
   44.6817   25.5639   34.1284 H   0  0  0  0  0  0  0  0  0  0  0  0
   48.5232   28.7912   34.0587 H   0  0  0  0  0  0  0  0  0  0  0  0
   49.6776   27.3606   37.8989 H   0  0  0  0  0  0  0  0  0  0  0  0
   42.5374   21.7372   35.6902 H   0  0  0  0  0  0  0  0  0  0  0  0
   42.8748   23.3820   34.9070 H   0  0  0  0  0  0  0  0  0  0  0  0
   41.3645   22.0746   37.8915 H   0  0  0  0  0  0  0  0  0  0  0  0
   38.5965   25.0882   35.1302 H   0  0  0  0  0  0  0  0  0  0  0  0
   37.7970   22.9292   39.0367 H   0  0  0  0  0  0  0  0  0  0  0  0
   39.2361   21.9887   39.5135 H   0  0  0  0  0  0  0  0  0  0  0  0
  1 13  1  0
  1  2  1  0
  3  1  1  0
  3  2  1  0
  4 12  1  0
  4  3  1  0
  5  4  1  0
  6  5  2  0
  6  7  1  0
  7 12  2  0
  8  7  1  0
  8  9  2  0
  9 10  1  0
 10 11  2  0
 12 11  1  0
 14 15  1  0
 14 13  1  0
 15 16  2  0
 16 17  1  0
 17 21  1  0
 18 17  2  0
 19 18  1  0
 20 19  2  0
 20 15  1  0
  1 22  1  6
  2 23  1  0
  2 24  1  0
  3 25  1  1
  5 26  1  0
  8 27  1  0
 10 28  1  0
 14 29  1  0
 14 30  1  0
 16 31  1  0
 19 32  1  0
 21 33  1  0
 21 34  1  0
M  ISO  8  22  13  23  13  24  13  25  13  26  14  27  14  28  14  29   8
M  ISO  3  30   8  31  14  32  14
M  END
>  <minimizedAffinity>  (1) 
-4.66979361

>  <minimizedRMSD>  (1) 
3.41192341

$$$$
