
     RDKit          3D

 32 33  0  0  1  0  0  0  0  0999 V2000
   41.6500   22.3870   36.1460 C   0  0  0  0  0  0  0  0  0  0  0  0
   40.1820   22.5140   36.2010 C   0  0  0  0  0  0  0  0  0  0  0  0
   39.7750   23.1870   37.3430 C   0  0  0  0  0  0  0  0  0  0  0  0
   38.4080   23.3690   37.5850 C   0  0  0  0  0  0  0  0  0  0  0  0
   37.5360   22.8440   36.6350 N   0  0  0  0  0  0  0  0  0  0  0  0
   37.9890   22.1980   35.5400 C   0  0  0  0  0  0  0  0  0  0  0  0
   39.3040   22.0430   35.3410 N   0  0  0  0  0  0  0  0  0  0  0  0
   37.8050   24.0230   38.6610 N   0  0  0  0  0  0  0  0  0  0  0  0
   42.3550   23.1260   37.0070 O   0  0  0  0  0  0  0  0  0  0  0  0
   43.6180   23.4850   36.5490 C   0  0  1  0  0  0  0  0  0  0  0  0
   43.8220   24.6510   35.6690 C   0  0  0  0  0  0  0  0  0  0  0  0
   44.1400   24.7790   37.1200 C   0  0  2  0  0  0  0  0  0  0  0  0
   45.5650   24.9390   37.5440 C   0  0  0  0  0  0  0  0  0  0  0  0
   45.5800   25.5640   38.9250 C   0  0  0  0  0  0  0  0  0  0  0  0
   46.4130   25.7590   36.6210 C   0  0  0  0  0  0  0  0  0  0  0  0
   41.8991   21.3320   36.3326 H   0  0  0  0  0  0  0  0  0  0  0  0
   41.9321   22.7608   35.1507 H   0  0  0  0  0  0  0  0  0  0  0  0
   40.5202   23.5748   38.0532 H   0  0  0  0  0  0  0  0  0  0  0  0
   37.2739   21.7966   34.8069 H   0  0  0  0  0  0  0  0  0  0  0  0
   36.7783   24.0848   38.7163 H   0  0  0  0  0  0  0  0  0  0  0  0
   38.3868   24.4437   39.3996 H   0  0  0  0  0  0  0  0  0  0  0  0
   43.9376   22.4358   36.4649 H   0  0  0  0  0  0  0  0  0  0  0  0
   44.6362   24.6422   34.9294 H   0  0  0  0  0  0  0  0  0  0  0  0
   43.1844   25.2084   34.9670 H   0  0  0  0  0  0  0  0  0  0  0  0
   43.8338   25.4306   37.9516 H   0  0  0  0  0  0  0  0  0  0  0  0
   46.0097   23.9330   37.5308 H   0  0  0  0  0  0  0  0  0  0  0  0
   45.5610   24.7707   39.6867 H   0  0  0  0  0  0  0  0  0  0  0  0
   46.4928   26.1659   39.0452 H   0  0  0  0  0  0  0  0  0  0  0  0
   44.6971   26.2090   39.0452 H   0  0  0  0  0  0  0  0  0  0  0  0
   47.0800   26.4040   37.2118 H   0  0  0  0  0  0  0  0  0  0  0  0
   47.0152   25.0920   35.9867 H   0  0  0  0  0  0  0  0  0  0  0  0
   45.7665   26.3833   35.9867 H   0  0  0  0  0  0  0  0  0  0  0  0
  1  2  1  0
  1  9  1  0
  2  3  2  0
  3  4  1  0
  4  8  1  0
  5  4  2  0
  6  5  1  0
  7  6  2  0
  7  2  1  0
 10  9  1  0
 10 12  1  0
 11 10  1  0
 11 12  1  0
 12 13  1  0
 13 14  1  0
 15 13  1  0
  1 16  1  0
  1 17  1  0
  3 18  1  0
  6 19  1  0
  8 20  1  0
  8 21  1  0
 10 22  1  6
 11 23  1  0
 11 24  1  0
 12 25  1  1
 13 26  1  0
 14 27  1  0
 14 28  1  0
 14 29  1  0
 15 30  1  0
 15 31  1  0
 15 32  1  0
M  ISO  8  16   8  17   8  18  14  19  14  22  13  23  13  24  13  25  13
M  ISO  7  26   8  27   8  28   8  29   8  30   8  31   8  32   8
M  END
>  <minimizedAffinity>  (1) 
-4.12653923

>  <minimizedRMSD>  (1) 
2.18463969

$$$$
