
     RDKit          3D

 37 39  0  0  1  0  0  0  0  0999 V2000
   42.8380   22.2190   36.7560 O   0  0  0  0  0  0  0  0  0  0  0  0
   43.5350   23.1090   35.9480 C   0  0  1  0  0  0  0  0  0  0  0  0
   43.0610   24.4870   35.6920 C   0  0  0  0  0  0  0  0  0  0  0  0
   44.1540   24.2710   36.6860 C   0  0  2  0  0  0  0  0  0  0  0  0
   45.4660   24.7460   36.3750 N   0  0  0  0  0  0  0  0  0  0  0  0
   45.4320   26.0750   35.8160 C   0  0  0  0  0  0  0  0  0  0  0  0
   46.8080   26.5890   35.4780 C   0  0  0  0  0  0  0  0  0  0  0  0
   47.8100   26.1300   36.4180 N   0  0  0  0  0  0  0  0  0  0  0  0
   47.1580   25.9430   37.7000 C   0  0  0  0  0  0  0  0  0  0  0  0
   46.2950   24.6860   37.5610 C   0  0  0  0  0  0  0  0  0  0  0  0
   41.8460   21.5630   36.1500 C   0  0  0  0  0  0  0  0  0  0  0  0
   40.4600   22.1490   36.3950 C   0  0  0  0  0  0  0  0  0  0  0  0
   40.3740   22.6430   37.6870 C   0  0  0  0  0  0  0  0  0  0  0  0
   39.1200   23.1280   38.0780 C   0  0  0  0  0  0  0  0  0  0  0  0
   38.0860   23.0810   37.1760 N   0  0  0  0  0  0  0  0  0  0  0  0
   38.2450   22.5830   35.9220 C   0  0  0  0  0  0  0  0  0  0  0  0
   39.4530   22.1170   35.5470 N   0  0  0  0  0  0  0  0  0  0  0  0
   38.7990   23.6770   39.3320 N   0  0  0  0  0  0  0  0  0  0  0  0
   43.8476   22.3039   35.2668 H   0  0  0  0  0  0  0  0  0  0  0  0
   43.2840   24.9725   34.7305 H   0  0  0  0  0  0  0  0  0  0  0  0
   42.0797   24.9832   35.7197 H   0  0  0  0  0  0  0  0  0  0  0  0
   44.3277   24.4978   37.7483 H   0  0  0  0  0  0  0  0  0  0  0  0
   44.8257   26.0573   34.8983 H   0  0  0  0  0  0  0  0  0  0  0  0
   44.9981   26.7467   36.5714 H   0  0  0  0  0  0  0  0  0  0  0  0
   47.0797   26.2384   34.4714 H   0  0  0  0  0  0  0  0  0  0  0  0
   46.7790   27.6876   35.5252 H   0  0  0  0  0  0  0  0  0  0  0  0
   48.2117   25.2382   36.0952 H   0  0  0  0  0  0  0  0  0  0  0  0
   47.9080   25.8049   38.4927 H   0  0  0  0  0  0  0  0  0  0  0  0
   46.5501   26.8185   37.9720 H   0  0  0  0  0  0  0  0  0  0  0  0
   45.6482   24.5956   38.4462 H   0  0  0  0  0  0  0  0  0  0  0  0
   46.9612   23.8149   37.4755 H   0  0  0  0  0  0  0  0  0  0  0  0
   41.8491   20.5243   36.5121 H   0  0  0  0  0  0  0  0  0  0  0  0
   42.0328   21.6414   35.0688 H   0  0  0  0  0  0  0  0  0  0  0  0
   41.2399   22.6535   38.3654 H   0  0  0  0  0  0  0  0  0  0  0  0
   37.3978   22.5603   35.2208 H   0  0  0  0  0  0  0  0  0  0  0  0
   37.8415   24.0066   39.5200 H   0  0  0  0  0  0  0  0  0  0  0  0
   39.5214   23.7495   40.0626 H   0  0  0  0  0  0  0  0  0  0  0  0
  2  4  1  0
  2  1  1  0
  3  2  1  0
  3  4  1  0
  5  4  1  0
  5 10  1  0
  6  5  1  0
  7  6  1  0
  7  8  1  0
  8  9  1  0
 10  9  1  0
 11 12  1  0
 11  1  1  0
 12 13  2  0
 13 14  1  0
 14 18  1  0
 15 14  2  0
 16 15  1  0
 17 16  2  0
 17 12  1  0
  2 19  1  6
  3 20  1  0
  3 21  1  0
  4 22  1  1
  6 23  1  0
  6 24  1  0
  7 25  1  0
  7 26  1  0
  8 27  1  0
  9 28  1  0
  9 29  1  0
 10 30  1  0
 10 31  1  0
 11 32  1  0
 11 33  1  0
 13 34  1  0
 16 35  1  0
 18 36  1  0
 18 37  1  0
M  ISO  8  19  13  20  13  21  13  22  13  23  13  24  13  25  13  26  13
M  ISO  8  27   5  28  13  29  13  30  13  31  13  32   8  33   8  34  14
M  ISO  1  35  14
M  END
>  <minimizedAffinity>  (1) 
-4.20840168

>  <minimizedRMSD>  (1) 
2.58347058

$$$$
