
     RDKit          3D

 33 35  0  0  1  0  0  0  0  0999 V2000
   42.9220   23.5930   35.2310 C   0  0  1  0  0  0  0  0  0  0  0  0
   43.4310   23.8490   36.5940 C   0  0  0  0  0  0  0  0  0  0  0  0
   44.0840   22.7920   35.7740 C   0  0  1  0  0  0  0  0  0  0  0  0
   43.8080   21.3710   35.9760 C   0  0  0  0  0  0  0  0  0  0  0  0
   44.3210   20.4630   35.0430 C   0  0  0  0  0  0  0  0  0  0  0  0
   44.1320   19.1000   35.1210 C   0  0  0  0  0  0  0  0  0  0  0  0
   43.3990   18.5680   36.1710 C   0  0  0  0  0  0  0  0  0  0  0  0
   42.8990   19.4620   37.0840 C   0  0  0  0  0  0  0  0  0  0  0  0
   43.0910   20.8120   36.9960 C   0  0  0  0  0  0  0  0  0  0  0  0
   41.7710   22.8420   35.0040 O   0  0  0  0  0  0  0  0  0  0  0  0
   40.7380   23.6020   34.5780 C   0  0  0  0  0  0  0  0  0  0  0  0
   39.7590   23.9970   35.6120 C   0  0  0  0  0  0  0  0  0  0  0  0
   39.7590   23.1250   36.6890 C   0  0  0  0  0  0  0  0  0  0  0  0
   38.8640   23.3450   37.7280 C   0  0  0  0  0  0  0  0  0  0  0  0
   38.0130   24.4410   37.6200 N   0  0  0  0  0  0  0  0  0  0  0  0
   38.0610   25.2590   36.5400 C   0  0  0  0  0  0  0  0  0  0  0  0
   38.9370   25.0270   35.5430 N   0  0  0  0  0  0  0  0  0  0  0  0
   38.6830   22.6120   38.9000 N   0  0  0  0  0  0  0  0  0  0  0  0
   42.7062   24.2671   34.3889 H   0  0  0  0  0  0  0  0  0  0  0  0
   43.9693   24.7838   36.8096 H   0  0  0  0  0  0  0  0  0  0  0  0
   42.9741   23.8753   37.5943 H   0  0  0  0  0  0  0  0  0  0  0  0
   45.1364   22.5903   35.5252 H   0  0  0  0  0  0  0  0  0  0  0  0
   44.9075   20.8589   34.2008 H   0  0  0  0  0  0  0  0  0  0  0  0
   44.5604   18.4377   34.3543 H   0  0  0  0  0  0  0  0  0  0  0  0
   43.2273   17.4857   36.2670 H   0  0  0  0  0  0  0  0  0  0  0  0
   42.3138   19.0720   37.9298 H   0  0  0  0  0  0  0  0  0  0  0  0
   42.6569   21.4660   37.7666 H   0  0  0  0  0  0  0  0  0  0  0  0
   41.1539   24.5208   34.1389 H   0  0  0  0  0  0  0  0  0  0  0  0
   40.1819   22.9762   33.8645 H   0  0  0  0  0  0  0  0  0  0  0  0
   40.4553   22.2740   36.7204 H   0  0  0  0  0  0  0  0  0  0  0  0
   37.3788   26.1196   36.4771 H   0  0  0  0  0  0  0  0  0  0  0  0
   37.9703   22.9028   39.5844 H   0  0  0  0  0  0  0  0  0  0  0  0
   39.2620   21.7797   39.0815 H   0  0  0  0  0  0  0  0  0  0  0  0
  1  3  1  0
  1  2  1  0
  3  4  1  0
  3  2  1  0
  4  9  2  0
  5  6  2  0
  5  4  1  0
  6  7  1  0
  7  8  2  0
  9  8  1  0
 10  1  1  0
 11 10  1  0
 11 12  1  0
 12 13  2  0
 13 14  1  0
 14 18  1  0
 15 14  2  0
 16 15  1  0
 17 12  1  0
 17 16  2  0
  1 19  1  6
  2 20  1  0
  2 21  1  0
  3 22  1  6
  5 23  1  0
  6 24  1  0
  7 25  1  0
  8 26  1  0
  9 27  1  0
 11 28  1  0
 11 29  1  0
 13 30  1  0
 16 31  1  0
 18 32  1  0
 18 33  1  0
M  ISO  8  19  13  20  13  21  13  22  13  23  14  24  14  25  14  26  14
M  ISO  5  27  14  28   8  29   8  30  14  31  14
M  END
>  <minimizedAffinity>  (1) 
-3.99612451

>  <minimizedRMSD>  (1) 
2.29231524

$$$$
