
     RDKit          3D

 29 31  0  0  1  0  0  0  0  0999 V2000
   41.3510   21.7040   36.4280 C   0  0  0  0  0  0  0  0  0  0  0  0
   39.9260   22.2390   36.4840 C   0  0  0  0  0  0  0  0  0  0  0  0
   39.7500   23.0260   37.6140 C   0  0  0  0  0  0  0  0  0  0  0  0
   38.4740   23.5190   37.8610 C   0  0  0  0  0  0  0  0  0  0  0  0
   37.4660   23.1890   36.9600 N   0  0  0  0  0  0  0  0  0  0  0  0
   37.7130   22.4180   35.8800 C   0  0  0  0  0  0  0  0  0  0  0  0
   38.9410   21.9530   35.6550 N   0  0  0  0  0  0  0  0  0  0  0  0
   38.0790   24.3360   38.9340 N   0  0  0  0  0  0  0  0  0  0  0  0
   42.2340   22.4050   37.1410 O   0  0  0  0  0  0  0  0  0  0  0  0
   43.3140   22.9110   36.4220 C   0  0  1  0  0  0  0  0  0  0  0  0
   43.1490   24.0080   35.4420 C   0  0  0  0  0  0  0  0  0  0  0  0
   43.6870   24.3270   36.8000 C   0  0  2  0  0  0  0  0  0  0  0  0
   45.0680   24.7570   36.7750 N   0  0  0  0  0  0  0  0  0  0  0  0
   45.9210   25.0050   35.7850 C   0  0  0  0  0  0  0  0  0  0  0  0
   47.1090   25.3860   36.3160 N   0  0  0  0  0  0  0  0  0  0  0  0
   46.9730   25.3710   37.6700 C   0  0  0  0  0  0  0  0  0  0  0  0
   45.7010   24.9790   37.9330 N   0  0  0  0  0  0  0  0  0  0  0  0
   41.3454   20.6715   36.8074 H   0  0  0  0  0  0  0  0  0  0  0  0
   41.6705   21.7749   35.3778 H   0  0  0  0  0  0  0  0  0  0  0  0
   40.5891   23.2511   38.2888 H   0  0  0  0  0  0  0  0  0  0  0  0
   36.8978   22.1728   35.1834 H   0  0  0  0  0  0  0  0  0  0  0  0
   37.0988   24.6420   39.0147 H   0  0  0  0  0  0  0  0  0  0  0  0
   38.7697   24.6288   39.6398 H   0  0  0  0  0  0  0  0  0  0  0  0
   43.7946   21.9247   36.3438 H   0  0  0  0  0  0  0  0  0  0  0  0
   43.8107   24.0620   34.5650 H   0  0  0  0  0  0  0  0  0  0  0  0
   42.3098   24.3824   34.8373 H   0  0  0  0  0  0  0  0  0  0  0  0
   43.4305   24.9550   37.6660 H   0  0  0  0  0  0  0  0  0  0  0  0
   45.6990   24.9156   34.7113 H   0  0  0  0  0  0  0  0  0  0  0  0
   47.7460   25.6275   38.4093 H   0  0  0  0  0  0  0  0  0  0  0  0
  1  2  1  0
  1  9  1  0
  2  3  2  0
  3  4  1  0
  4  8  1  0
  5  4  2  0
  6  5  1  0
  7  6  2  0
  7  2  1  0
 10 12  1  0
 10  9  1  0
 11 10  1  0
 11 12  1  0
 13 12  1  0
 13 17  1  0
 14 15  2  0
 14 13  1  0
 15 16  1  0
 16 17  2  0
  1 18  1  0
  1 19  1  0
  3 20  1  0
  6 21  1  0
  8 22  1  0
  8 23  1  0
 10 24  1  6
 11 25  1  0
 11 26  1  0
 12 27  1  1
 14 28  1  0
 16 29  1  0
M  ISO  8  18   8  19   8  20  14  21  14  24  13  25  13  26  13  27  13
M  ISO  2  28  14  29  14
M  END
>  <minimizedAffinity>  (1) 
-3.8930161

>  <minimizedRMSD>  (1) 
2.15649843

$$$$
