
     RDKit          3D

 24 25  0  0  1  0  0  0  0  0999 V2000
   41.2900   21.5680   36.8040 C   0  0  0  0  0  0  0  0  0  0  0  0
   39.9610   22.1960   36.6950 C   0  0  0  0  0  0  0  0  0  0  0  0
   39.6740   22.9730   37.8070 C   0  0  0  0  0  0  0  0  0  0  0  0
   38.4320   23.6150   37.8970 C   0  0  0  0  0  0  0  0  0  0  0  0
   37.5500   23.4240   36.8390 N   0  0  0  0  0  0  0  0  0  0  0  0
   37.8880   22.6530   35.7770 C   0  0  0  0  0  0  0  0  0  0  0  0
   39.0870   22.0540   35.7250 N   0  0  0  0  0  0  0  0  0  0  0  0
   37.9680   24.4430   38.9200 N   0  0  0  0  0  0  0  0  0  0  0  0
   42.2880   22.3400   37.2570 O   0  0  0  0  0  0  0  0  0  0  0  0
   43.0740   22.8810   36.2490 C   0  0  1  0  0  0  0  0  0  0  0  0
   42.9160   24.2530   35.7290 C   0  0  0  0  0  0  0  0  0  0  0  0
   43.9940   23.9810   36.7230 C   0  0  2  0  0  0  0  0  0  0  0  0
   45.6730   24.1200   36.1170 S   0  0  0  0  0  0  0  0  0  0  0  0
   41.5730   21.2120   35.8024 H   0  0  0  0  0  0  0  0  0  0  0  0
   41.1732   20.7763   37.5587 H   0  0  0  0  0  0  0  0  0  0  0  0
   40.4154   23.0844   38.6119 H   0  0  0  0  0  0  0  0  0  0  0  0
   37.1738   22.5174   34.9515 H   0  0  0  0  0  0  0  0  0  0  0  0
   37.0257   24.8549   38.8618 H   0  0  0  0  0  0  0  0  0  0  0  0
   38.5678   24.6423   39.7333 H   0  0  0  0  0  0  0  0  0  0  0  0
   43.1229   21.9150   35.7252 H   0  0  0  0  0  0  0  0  0  0  0  0
   43.1791   24.4753   34.6843 H   0  0  0  0  0  0  0  0  0  0  0  0
   42.0794   24.9651   35.6749 H   0  0  0  0  0  0  0  0  0  0  0  0
   44.2922   24.3353   37.7208 H   0  0  0  0  0  0  0  0  0  0  0  0
   46.5369   24.1915   37.1778 H   0  0  0  0  0  0  0  0  0  0  0  0
  1  9  1  0
  2  1  1  0
  2  3  2  0
  3  4  1  0
  4  8  1  0
  5  4  2  0
  6  5  1  0
  7  6  2  0
  7  2  1  0
 10 12  1  0
 10  9  1  0
 11 10  1  0
 11 12  1  0
 13 12  1  0
  1 14  1  0
  1 15  1  0
  3 16  1  0
  6 17  1  0
  8 18  1  0
  8 19  1  0
 10 20  1  6
 11 21  1  0
 11 22  1  0
 12 23  1  1
 13 24  1  0
M  ISO  8  14   8  15   8  16  14  17  14  20  13  21  13  22  13  23  13
M  ISO  1  24  11
M  END
>  <minimizedAffinity>  (1) 
-3.46105862

>  <minimizedRMSD>  (1) 
0.770742238

$$$$
