
     RDKit          3D

 36 39  0  0  0  0  0  0  0  0999 V2000
   38.7710   23.7210   37.0470 C   0  0  0  0  0  0  0  0  0  0  0  0
   40.0240   23.0980   36.9600 C   0  0  0  0  0  0  0  0  0  0  0  0
   40.8520   23.4550   35.8700 C   0  0  0  0  0  0  0  0  0  0  0  0
   40.3930   24.3680   34.9850 N   0  0  0  0  0  0  0  0  0  0  0  0
   39.1930   24.9420   35.1000 C   0  0  0  0  0  0  0  0  0  0  0  0
   38.3860   24.6240   36.1210 N   0  0  0  0  0  0  0  0  0  0  0  0
   38.6530   25.9110   34.1970 N   0  0  0  0  0  0  0  0  0  0  0  0
   37.6400   26.7590   34.4160 C   0  0  0  0  0  0  0  0  0  0  0  0
   37.2670   27.6180   33.4110 C   0  0  0  0  0  0  0  0  0  0  0  0
   37.9070   27.6120   32.2200 C   0  0  0  0  0  0  0  0  0  0  0  0
   37.5650   28.3960   31.3000 O   0  0  0  0  0  0  0  0  0  0  0  0
   38.9310   26.7470   32.0130 N   0  0  0  0  0  0  0  0  0  0  0  0
   39.2940   25.9100   32.9930 C   0  0  0  0  0  0  0  0  0  0  0  0
   40.2650   25.1460   32.6850 O   0  0  0  0  0  0  0  0  0  0  0  0
   39.5670   26.7890   30.7430 C   0  0  0  0  0  0  0  0  0  0  0  0
   40.6490   26.0270   30.4820 N   0  0  0  0  0  0  0  0  0  0  0  0
   41.0680   26.2210   29.2710 O   0  0  0  0  0  0  0  0  0  0  0  0
   40.2490   27.1140   28.7520 C   0  0  0  0  0  0  0  0  0  0  0  0
   39.3010   27.4860   29.6510 N   0  0  0  0  0  0  0  0  0  0  0  0
   40.3360   27.6420   27.3940 C   0  0  0  0  0  0  0  0  0  0  0  0
   40.4720   26.7870   26.2960 C   0  0  0  0  0  0  0  0  0  0  0  0
   40.5510   27.3380   25.0280 C   0  0  0  0  0  0  0  0  0  0  0  0
   40.5010   28.6710   24.8200 N   0  0  0  0  0  0  0  0  0  0  0  0
   40.3670   29.4730   25.9140 C   0  0  0  0  0  0  0  0  0  0  0  0
   40.2890   28.9570   27.1650 N   0  0  0  0  0  0  0  0  0  0  0  0
   37.8470   23.3760   38.1890 C   0  0  0  0  0  0  0  0  0  0  0  0
   38.5250   22.6550   39.1630 F   0  0  0  0  0  0  0  0  0  0  0  0
   37.3600   24.5230   38.7640 F   0  0  0  0  0  0  0  0  0  0  0  0
   36.7950   22.6090   37.6840 F   0  0  0  0  0  0  0  0  0  0  0  0
   40.3500   22.3614   37.7091 H   0  0  0  0  0  0  0  0  0  0  0  0
   41.8459   23.0004   35.7455 H   0  0  0  0  0  0  0  0  0  0  0  0
   37.1160   26.7676   35.3832 H   0  0  0  0  0  0  0  0  0  0  0  0
   36.4367   28.3200   33.5774 H   0  0  0  0  0  0  0  0  0  0  0  0
   40.5154   25.6969   26.4368 H   0  0  0  0  0  0  0  0  0  0  0  0
   40.6580   26.6679   24.1622 H   0  0  0  0  0  0  0  0  0  0  0  0
   40.3211   30.5637   25.7786 H   0  0  0  0  0  0  0  0  0  0  0  0
  1 26  1  0
  2  1  2  0
  3  2  1  0
  4  5  1  0
  4  3  2  0
  5  6  2  0
  6  1  1  0
  7  8  1  0
  7  5  1  0
  9  8  2  0
 10  9  1  0
 11 10  2  0
 12 10  1  0
 12 13  1  0
 13  7  1  0
 14 13  2  0
 15 12  1  0
 16 15  2  0
 17 16  1  0
 18 17  1  0
 18 19  2  0
 19 15  1  0
 20 18  1  0
 21 20  2  0
 22 21  1  0
 23 22  2  0
 23 24  1  0
 24 25  2  0
 25 20  1  0
 26 28  1  0
 26 27  1  0
 29 26  1  0
  2 30  1  0
  3 31  1  0
  8 32  1  0
  9 33  1  0
 21 34  1  0
 22 35  1  0
 24 36  1  0
M  ISO  7  30  14  31  14  32  14  33  14  34  14  35  14  36  14
M  END
>  <minimizedAffinity>  (1) 
-5.74527264

>  <minimizedRMSD>  (1) 
2.43805361

$$$$
