
     RDKit          3D

 46 49  0  0  1  0  0  0  0  0999 V2000
   42.3030   22.7060   36.0860 O   0  0  0  0  0  0  0  0  0  0  0  0
   43.6270   22.8350   36.3440 C   0  0  1  0  0  0  0  0  0  0  0  0
   44.2250   23.9000   35.3140 C   0  0  0  0  0  0  0  0  0  0  0  0
   44.0160   24.1630   36.7640 C   0  0  2  0  0  0  0  0  0  0  0  0
   45.1450   24.4430   37.5510 N   0  0  0  0  0  0  0  0  0  0  0  0
   46.3820   24.1050   36.9270 C   0  0  0  0  0  0  0  0  0  0  0  0
   47.4230   24.7500   37.8570 C   0  0  0  0  0  0  0  0  0  0  0  0
   46.7570   26.0620   38.2230 C   0  0  0  0  0  0  0  0  0  0  0  0
   45.2950   25.7960   38.0270 C   0  0  2  0  0  0  0  0  0  0  0  0
   44.5350   26.0800   39.1420 O   0  0  0  0  0  0  0  0  0  0  0  0
   41.5710   22.1020   37.0230 C   0  0  0  0  0  0  0  0  0  0  0  0
   40.1330   22.3580   36.8780 C   0  0  0  0  0  0  0  0  0  0  0  0
   39.6830   23.2220   37.8770 C   0  0  0  0  0  0  0  0  0  0  0  0
   38.3140   23.5970   37.8980 C   0  0  0  0  0  0  0  0  0  0  0  0
   37.4910   23.0650   36.8950 N   0  0  0  0  0  0  0  0  0  0  0  0
   37.9940   22.2230   35.9430 C   0  0  0  0  0  0  0  0  0  0  0  0
   39.3110   21.8810   35.9490 N   0  0  0  0  0  0  0  0  0  0  0  0
   37.6770   24.4370   38.8030 N   0  0  0  0  0  0  0  0  0  0  0  0
   37.1150   21.7260   34.9670 N   0  0  0  0  0  0  0  0  0  0  0  0
   37.4220   22.0990   33.6900 C   0  0  0  0  0  0  0  0  0  0  0  0
   36.5970   21.6480   32.6540 C   0  0  0  0  0  0  0  0  0  0  0  0
   35.5340   20.8540   33.0240 C   0  0  0  0  0  0  0  0  0  0  0  0
   34.7800   20.4410   32.0880 O   0  0  0  0  0  0  0  0  0  0  0  0
   35.2160   20.4770   34.2740 N   0  0  0  0  0  0  0  0  0  0  0  0
   36.0490   20.9450   35.2210 C   0  0  0  0  0  0  0  0  0  0  0  0
   35.8500   20.6560   36.4270 O   0  0  0  0  0  0  0  0  0  0  0  0
   43.8535   21.8240   36.7136 H   0  0  0  0  0  0  0  0  0  0  0  0
   45.2393   23.7781   34.9060 H   0  0  0  0  0  0  0  0  0  0  0  0
   43.9146   24.3577   34.3631 H   0  0  0  0  0  0  0  0  0  0  0  0
   43.4551   24.9069   37.3489 H   0  0  0  0  0  0  0  0  0  0  0  0
   46.5161   23.0143   36.8790 H   0  0  0  0  0  0  0  0  0  0  0  0
   46.4534   24.4542   35.8864 H   0  0  0  0  0  0  0  0  0  0  0  0
   47.5997   24.1302   38.7484 H   0  0  0  0  0  0  0  0  0  0  0  0
   48.4133   24.8718   37.3938 H   0  0  0  0  0  0  0  0  0  0  0  0
   46.9687   26.3291   39.2689 H   0  0  0  0  0  0  0  0  0  0  0  0
   47.1187   26.9037   37.6141 H   0  0  0  0  0  0  0  0  0  0  0  0
   44.8965   26.4863   37.2689 H   0  0  0  0  0  0  0  0  0  0  0  0
   45.0601   25.8838   39.9580 H   0  0  0  0  0  0  0  0  0  0  0  0
   41.7427   21.0175   36.9575 H   0  0  0  0  0  0  0  0  0  0  0  0
   41.8818   22.5078   37.9970 H   0  0  0  0  0  0  0  0  0  0  0  0
   40.3788   23.6069   38.6371 H   0  0  0  0  0  0  0  0  0  0  0  0
   36.6698   24.6294   38.7061 H   0  0  0  0  0  0  0  0  0  0  0  0
   38.2120   24.8673   39.5708 H   0  0  0  0  0  0  0  0  0  0  0  0
   38.2939   22.7365   33.4815 H   0  0  0  0  0  0  0  0  0  0  0  0
   36.7865   21.9126   31.6032 H   0  0  0  0  0  0  0  0  0  0  0  0
   34.4040   19.8808   34.4887 H   0  0  0  0  0  0  0  0  0  0  0  0
  1  2  1  0
  1 11  1  0
  2  4  1  0
  3  2  1  0
  3  4  1  0
  4  5  1  0
  5  6  1  0
  5  9  1  0
  6  7  1  0
  7  8  1  0
  9  8  1  0
  9 10  1  0
 12 11  1  0
 12 13  2  0
 13 14  1  0
 14 18  1  0
 15 14  2  0
 16 17  2  0
 16 15  1  0
 17 12  1  0
 19 25  1  0
 19 16  1  0
 20 19  1  0
 21 22  1  0
 21 20  2  0
 22 24  1  0
 23 22  2  0
 24 25  1  0
 25 26  2  0
  2 27  1  1
  3 28  1  0
  3 29  1  0
  4 30  1  6
  6 31  1  0
  6 32  1  0
  7 33  1  0
  7 34  1  0
  8 35  1  0
  8 36  1  0
  9 37  1  6
 10 38  1  0
 11 39  1  0
 11 40  1  0
 13 41  1  0
 18 42  1  0
 18 43  1  0
 20 44  1  0
 21 45  1  0
 24 46  1  0
M  ISO  8  27  13  28  13  29  13  30  13  31  13  32  13  33  13  34  13
M  ISO  8  35  13  36  13  37  13  38   3  39   8  40   8  41  14  44  14
M  ISO  2  45  14  46   9
M  END
>  <minimizedAffinity>  (1) 
-6.44298172

>  <minimizedRMSD>  (1) 
0.662310064

$$$$
