
     RDKit          3D

 50 54  0  0  1  0  0  0  0  0999 V2000
   41.6440   22.2850   36.7370 C   0  0  0  0  0  0  0  0  0  0  0  0
   40.2000   22.4700   36.7580 C   0  0  0  0  0  0  0  0  0  0  0  0
   39.8260   23.3840   37.7540 C   0  0  0  0  0  0  0  0  0  0  0  0
   38.4540   23.7100   37.9120 C   0  0  0  0  0  0  0  0  0  0  0  0
   37.5320   23.0860   37.0450 N   0  0  0  0  0  0  0  0  0  0  0  0
   37.9650   22.2030   36.0950 C   0  0  0  0  0  0  0  0  0  0  0  0
   39.2780   21.9080   35.9640 N   0  0  0  0  0  0  0  0  0  0  0  0
   37.9060   24.5930   38.8390 N   0  0  0  0  0  0  0  0  0  0  0  0
   36.9800   21.5800   35.2200 C   0  0  0  0  0  0  0  0  0  0  0  0
   35.9820   20.7180   35.6230 C   0  0  0  0  0  0  0  0  0  0  0  0
   35.3000   20.3760   34.5140 N   0  0  0  0  0  0  0  0  0  0  0  0
   35.7940   20.9650   33.4090 C   0  0  0  0  0  0  0  0  0  0  0  0
   35.4420   20.9240   32.0750 C   0  0  0  0  0  0  0  0  0  0  0  0
   36.1750   21.6720   31.1470 C   0  0  0  0  0  0  0  0  0  0  0  0
   37.2570   22.4530   31.5650 C   0  0  0  0  0  0  0  0  0  0  0  0
   37.5570   22.4500   32.9110 C   0  0  0  0  0  0  0  0  0  0  0  0
   36.8680   21.7340   33.8660 C   0  0  0  0  0  0  0  0  0  0  0  0
   42.2380   22.9920   35.7630 O   0  0  0  0  0  0  0  0  0  0  0  0
   43.5560   23.2430   35.9330 C   0  0  1  0  0  0  0  0  0  0  0  0
   43.8430   24.7000   35.3550 C   0  0  0  0  0  0  0  0  0  0  0  0
   43.8320   24.3650   36.8040 C   0  0  2  0  0  0  0  0  0  0  0  0
   45.0230   24.5270   37.5290 N   0  0  0  0  0  0  0  0  0  0  0  0
   46.1870   24.0790   36.8430 C   0  0  0  0  0  0  0  0  0  0  0  0
   47.3360   24.6290   37.7020 C   0  0  0  0  0  0  0  0  0  0  0  0
   46.8140   25.9890   38.1030 C   0  0  0  0  0  0  0  0  0  0  0  0
   45.3200   25.8550   38.0120 C   0  0  2  0  0  0  0  0  0  0  0  0
   44.6640   26.1730   39.1830 O   0  0  0  0  0  0  0  0  0  0  0  0
   42.0549   22.6048   37.7060 H   0  0  0  0  0  0  0  0  0  0  0  0
   41.8421   21.2200   36.5458 H   0  0  0  0  0  0  0  0  0  0  0  0
   40.5861   23.8420   38.4040 H   0  0  0  0  0  0  0  0  0  0  0  0
   36.8885   24.7513   38.8604 H   0  0  0  0  0  0  0  0  0  0  0  0
   38.5182   25.0878   39.5033 H   0  0  0  0  0  0  0  0  0  0  0  0
   35.7823   20.3767   36.6495 H   0  0  0  0  0  0  0  0  0  0  0  0
   34.4924   19.7367   34.5113 H   0  0  0  0  0  0  0  0  0  0  0  0
   34.5924   20.3085   31.7442 H   0  0  0  0  0  0  0  0  0  0  0  0
   35.8985   21.6455   30.0826 H   0  0  0  0  0  0  0  0  0  0  0  0
   37.8451   23.0459   30.8490 H   0  0  0  0  0  0  0  0  0  0  0  0
   38.4068   23.0627   33.2463 H   0  0  0  0  0  0  0  0  0  0  0  0
   43.9647   22.2246   35.8561 H   0  0  0  0  0  0  0  0  0  0  0  0
   44.7880   24.9222   34.8377 H   0  0  0  0  0  0  0  0  0  0  0  0
   43.3309   25.4149   34.6941 H   0  0  0  0  0  0  0  0  0  0  0  0
   43.2796   24.7261   37.6841 H   0  0  0  0  0  0  0  0  0  0  0  0
   46.2196   22.9804   36.7977 H   0  0  0  0  0  0  0  0  0  0  0  0
   46.2291   24.4197   35.7980 H   0  0  0  0  0  0  0  0  0  0  0  0
   47.5140   23.9948   38.5829 H   0  0  0  0  0  0  0  0  0  0  0  0
   48.3016   24.6647   37.1763 H   0  0  0  0  0  0  0  0  0  0  0  0
   47.1211   26.2371   39.1297 H   0  0  0  0  0  0  0  0  0  0  0  0
   47.2035   26.7942   37.4627 H   0  0  0  0  0  0  0  0  0  0  0  0
   44.9324   26.5982   37.2997 H   0  0  0  0  0  0  0  0  0  0  0  0
   45.2201   25.9034   39.9564 H   0  0  0  0  0  0  0  0  0  0  0  0
  1  2  1  0
  2  3  2  0
  3  4  1  0
  4  8  1  0
  5  4  2  0
  6  5  1  0
  7  6  2  0
  7  2  1  0
  9 10  2  0
  9  6  1  0
 11 10  1  0
 12 17  2  0
 12 11  1  0
 13 12  1  0
 14 15  1  0
 14 13  2  0
 15 16  2  0
 16 17  1  0
 17  9  1  0
 18 19  1  0
 18  1  1  0
 19 21  1  0
 20 19  1  0
 20 21  1  0
 21 22  1  0
 22 23  1  0
 22 26  1  0
 23 24  1  0
 24 25  1  0
 26 25  1  0
 26 27  1  0
  1 28  1  0
  1 29  1  0
  3 30  1  0
  8 31  1  0
  8 32  1  0
 10 33  1  0
 11 34  1  0
 13 35  1  0
 14 36  1  0
 15 37  1  0
 16 38  1  0
 19 39  1  6
 20 40  1  0
 20 41  1  0
 21 42  1  1
 23 43  1  0
 23 44  1  0
 24 45  1  0
 24 46  1  0
 25 47  1  0
 25 48  1  0
 26 49  1  6
 27 50  1  0
M  ISO  8  28   8  29   8  30  14  33  14  34   9  35  14  36  14  37  14
M  ISO  8  38  14  39  13  40  13  41  13  42  13  43  13  44  13  45  13
M  ISO  5  46  13  47  13  48  13  49  13  50   3
M  END
>  <minimizedAffinity>  (1) 
-6.34095478

>  <minimizedRMSD>  (1) 
0.638501346

$$$$
