
     RDKit          3D

 43 46  0  0  1  0  0  0  0  0999 V2000
   43.4860   23.3790   36.4730 C   0  0  1  0  0  0  0  0  0  0  0  0
   43.8280   24.6400   35.5610 C   0  0  0  0  0  0  0  0  0  0  0  0
   44.1720   24.5400   37.0040 C   0  0  2  0  0  0  0  0  0  0  0  0
   45.5300   24.5480   37.3630 N   0  0  0  0  0  0  0  0  0  0  0  0
   46.4250   24.4480   36.2600 C   0  0  0  0  0  0  0  0  0  0  0  0
   47.7910   24.7710   36.8870 C   0  0  0  0  0  0  0  0  0  0  0  0
   47.4510   25.8610   37.8680 C   0  0  0  0  0  0  0  0  0  0  0  0
   45.9910   25.6560   38.1620 C   0  0  2  0  0  0  0  0  0  0  0  0
   45.7180   25.5140   39.5090 O   0  0  0  0  0  0  0  0  0  0  0  0
   42.1470   23.3850   36.7080 O   0  0  0  0  0  0  0  0  0  0  0  0
   41.5320   22.2010   36.5600 C   0  0  0  0  0  0  0  0  0  0  0  0
   40.0570   22.3660   36.5400 C   0  0  0  0  0  0  0  0  0  0  0  0
   39.5940   23.1060   37.6170 C   0  0  0  0  0  0  0  0  0  0  0  0
   38.2120   23.3520   37.7220 C   0  0  0  0  0  0  0  0  0  0  0  0
   37.3800   22.8280   36.7210 N   0  0  0  0  0  0  0  0  0  0  0  0
   37.8940   22.1050   35.6820 C   0  0  0  0  0  0  0  0  0  0  0  0
   39.2370   21.8810   35.6020 N   0  0  0  0  0  0  0  0  0  0  0  0
   37.5730   24.0750   38.7290 N   0  0  0  0  0  0  0  0  0  0  0  0
   37.0030   21.5980   34.6960 N   0  0  0  0  0  0  0  0  0  0  0  0
   35.9250   20.8600   34.7690 N   0  0  0  0  0  0  0  0  0  0  0  0
   35.4110   20.6330   33.5370 C   0  0  0  0  0  0  0  0  0  0  0  0
   36.2510   21.2900   32.6340 C   0  0  0  0  0  0  0  0  0  0  0  0
   37.2550   21.8960   33.3910 C   0  0  0  0  0  0  0  0  0  0  0  0
   43.6871   22.2978   36.4954 H   0  0  0  0  0  0  0  0  0  0  0  0
   44.6123   24.5797   34.7921 H   0  0  0  0  0  0  0  0  0  0  0  0
   43.2713   25.3369   34.9172 H   0  0  0  0  0  0  0  0  0  0  0  0
   43.9552   25.1423   37.8985 H   0  0  0  0  0  0  0  0  0  0  0  0
   46.4158   23.4334   35.8351 H   0  0  0  0  0  0  0  0  0  0  0  0
   46.1622   25.1185   35.4285 H   0  0  0  0  0  0  0  0  0  0  0  0
   48.2109   23.8926   37.3989 H   0  0  0  0  0  0  0  0  0  0  0  0
   48.5523   25.0667   36.1501 H   0  0  0  0  0  0  0  0  0  0  0  0
   48.0506   25.7608   38.7847 H   0  0  0  0  0  0  0  0  0  0  0  0
   47.6621   26.8646   37.4701 H   0  0  0  0  0  0  0  0  0  0  0  0
   45.4317   26.5617   37.8846 H   0  0  0  0  0  0  0  0  0  0  0  0
   46.4601   25.9000   40.0386 H   0  0  0  0  0  0  0  0  0  0  0  0
   41.8556   21.7435   35.6134 H   0  0  0  0  0  0  0  0  0  0  0  0
   41.8010   21.5578   37.4109 H   0  0  0  0  0  0  0  0  0  0  0  0
   40.2922   23.4929   38.3739 H   0  0  0  0  0  0  0  0  0  0  0  0
   36.5501   24.1941   38.7077 H   0  0  0  0  0  0  0  0  0  0  0  0
   38.1239   24.4898   39.4940 H   0  0  0  0  0  0  0  0  0  0  0  0
   34.5114   20.0480   33.2952 H   0  0  0  0  0  0  0  0  0  0  0  0
   36.1422   21.3232   31.5399 H   0  0  0  0  0  0  0  0  0  0  0  0
   38.0907   22.4994   33.0068 H   0  0  0  0  0  0  0  0  0  0  0  0
  1 10  1  0
  1  3  1  0
  2  1  1  0
  2  3  1  0
  3  4  1  0
  4  5  1  0
  4  8  1  0
  5  6  1  0
  6  7  1  0
  7  8  1  0
  8  9  1  0
 11 10  1  0
 12 11  1  0
 12 13  2  0
 13 14  1  0
 14 18  1  0
 15 14  2  0
 16 15  1  0
 17 16  2  0
 17 12  1  0
 19 20  1  0
 19 16  1  0
 21 20  2  0
 22 23  2  0
 22 21  1  0
 23 19  1  0
  1 24  1  6
  2 25  1  0
  2 26  1  0
  3 27  1  1
  5 28  1  0
  5 29  1  0
  6 30  1  0
  6 31  1  0
  7 32  1  0
  7 33  1  0
  8 34  1  6
  9 35  1  0
 11 36  1  0
 11 37  1  0
 13 38  1  0
 18 39  1  0
 18 40  1  0
 21 41  1  0
 22 42  1  0
 23 43  1  0
M  ISO  8  24  13  25  13  26  13  27  13  28  13  29  13  30  13  31  13
M  ISO  8  32  13  33  13  34  13  35   3  36   8  37   8  38  14  41  14
M  ISO  2  42  14  43  14
M  END
>  <minimizedAffinity>  (1) 
-5.66986084

>  <minimizedRMSD>  (1) 
0.255579621

$$$$
