
     RDKit          3D

 43 46  0  0  1  0  0  0  0  0999 V2000
   43.4980   23.3740   36.4910 C   0  0  1  0  0  0  0  0  0  0  0  0
   43.8330   24.6320   35.5680 C   0  0  0  0  0  0  0  0  0  0  0  0
   44.1870   24.5370   37.0100 C   0  0  2  0  0  0  0  0  0  0  0  0
   45.5450   24.5500   37.3620 N   0  0  0  0  0  0  0  0  0  0  0  0
   46.4350   24.4950   36.2520 C   0  0  0  0  0  0  0  0  0  0  0  0
   47.8010   24.8200   36.8810 C   0  0  0  0  0  0  0  0  0  0  0  0
   47.4470   25.8840   37.8860 C   0  0  0  0  0  0  0  0  0  0  0  0
   45.9970   25.6330   38.2010 C   0  0  2  0  0  0  0  0  0  0  0  0
   45.7390   25.4460   39.5370 O   0  0  0  0  0  0  0  0  0  0  0  0
   42.1620   23.3830   36.7340 O   0  0  0  0  0  0  0  0  0  0  0  0
   41.5330   22.2070   36.5840 C   0  0  0  0  0  0  0  0  0  0  0  0
   40.0830   22.3510   36.5190 C   0  0  0  0  0  0  0  0  0  0  0  0
   39.6020   23.0990   37.5990 C   0  0  0  0  0  0  0  0  0  0  0  0
   38.2100   23.3510   37.7060 C   0  0  0  0  0  0  0  0  0  0  0  0
   37.3880   22.8250   36.7020 N   0  0  0  0  0  0  0  0  0  0  0  0
   37.9130   22.1000   35.6660 C   0  0  0  0  0  0  0  0  0  0  0  0
   39.2620   21.8810   35.6020 N   0  0  0  0  0  0  0  0  0  0  0  0
   37.5650   24.0750   38.7070 N   0  0  0  0  0  0  0  0  0  0  0  0
   37.0260   21.5920   34.6760 N   0  0  0  0  0  0  0  0  0  0  0  0
   37.1700   21.8100   33.3500 C   0  0  0  0  0  0  0  0  0  0  0  0
   36.0930   21.1330   32.7830 C   0  0  0  0  0  0  0  0  0  0  0  0
   35.3580   20.5490   33.7510 N   0  0  0  0  0  0  0  0  0  0  0  0
   35.9420   20.8350   34.9300 C   0  0  0  0  0  0  0  0  0  0  0  0
   43.6996   22.2930   36.5187 H   0  0  0  0  0  0  0  0  0  0  0  0
   44.6117   24.5683   34.7937 H   0  0  0  0  0  0  0  0  0  0  0  0
   43.2719   25.3259   34.9248 H   0  0  0  0  0  0  0  0  0  0  0  0
   43.9760   25.1429   37.9035 H   0  0  0  0  0  0  0  0  0  0  0  0
   46.4380   23.4931   35.7980 H   0  0  0  0  0  0  0  0  0  0  0  0
   46.1577   25.1854   35.4418 H   0  0  0  0  0  0  0  0  0  0  0  0
   48.2336   23.9361   37.3724 H   0  0  0  0  0  0  0  0  0  0  0  0
   48.5577   25.1396   36.1494 H   0  0  0  0  0  0  0  0  0  0  0  0
   48.0647   25.7858   38.7909 H   0  0  0  0  0  0  0  0  0  0  0  0
   47.6231   26.8995   37.5015 H   0  0  0  0  0  0  0  0  0  0  0  0
   45.4157   26.5384   37.9724 H   0  0  0  0  0  0  0  0  0  0  0  0
   46.4121   25.9339   40.0745 H   0  0  0  0  0  0  0  0  0  0  0  0
   41.8825   21.7367   35.6530 H   0  0  0  0  0  0  0  0  0  0  0  0
   41.7675   21.5891   37.4633 H   0  0  0  0  0  0  0  0  0  0  0  0
   40.2966   23.4881   38.3581 H   0  0  0  0  0  0  0  0  0  0  0  0
   36.5421   24.1926   38.6798 H   0  0  0  0  0  0  0  0  0  0  0  0
   38.1112   24.4925   39.4740 H   0  0  0  0  0  0  0  0  0  0  0  0
   37.9543   22.3871   32.8383 H   0  0  0  0  0  0  0  0  0  0  0  0
   35.8745   21.0823   31.7061 H   0  0  0  0  0  0  0  0  0  0  0  0
   35.5959   20.5089   35.9219 H   0  0  0  0  0  0  0  0  0  0  0  0
  1 10  1  0
  1  3  1  0
  2  1  1  0
  2  3  1  0
  3  4  1  0
  4  5  1  0
  4  8  1  0
  5  6  1  0
  6  7  1  0
  7  8  1  0
  8  9  1  0
 11 10  1  0
 12 11  1  0
 12 13  2  0
 13 14  1  0
 14 18  1  0
 15 14  2  0
 16 15  1  0
 17 16  2  0
 17 12  1  0
 19 23  1  0
 19 16  1  0
 20 19  1  0
 21 20  2  0
 21 22  1  0
 22 23  2  0
  1 24  1  6
  2 25  1  0
  2 26  1  0
  3 27  1  1
  5 28  1  0
  5 29  1  0
  6 30  1  0
  6 31  1  0
  7 32  1  0
  7 33  1  0
  8 34  1  6
  9 35  1  0
 11 36  1  0
 11 37  1  0
 13 38  1  0
 18 39  1  0
 18 40  1  0
 20 41  1  0
 21 42  1  0
 23 43  1  0
M  ISO  8  24  13  25  13  26  13  27  13  28  13  29  13  30  13  31  13
M  ISO  8  32  13  33  13  34  13  35   3  36   8  37   8  38  14  41  14
M  ISO  2  42  14  43  14
M  END
>  <minimizedAffinity>  (1) 
-5.59713125

>  <minimizedRMSD>  (1) 
0.275956184

$$$$
