
     RDKit          3D

 49 52  0  0  1  0  0  0  0  0999 V2000
   43.3310   23.8360   35.3740 C   0  0  1  0  0  0  0  0  0  0  0  0
   43.6800   25.3830   35.2320 C   0  0  0  0  0  0  0  0  0  0  0  0
   43.5950   24.6640   36.5330 C   0  0  2  0  0  0  0  0  0  0  0  0
   44.7580   24.5720   37.3120 N   0  0  0  0  0  0  0  0  0  0  0  0
   45.8880   24.0590   36.6090 C   0  0  0  0  0  0  0  0  0  0  0  0
   47.0530   24.3260   37.5760 C   0  0  0  0  0  0  0  0  0  0  0  0
   46.6910   25.6780   38.1510 C   0  0  0  0  0  0  0  0  0  0  0  0
   45.2050   25.7740   37.9710 C   0  0  2  0  0  0  0  0  0  0  0  0
   44.5360   26.0450   39.1450 O   0  0  0  0  0  0  0  0  0  0  0  0
   42.0090   23.6750   35.1080 O   0  0  0  0  0  0  0  0  0  0  0  0
   41.5500   22.4220   35.1720 C   0  0  0  0  0  0  0  0  0  0  0  0
   40.1070   22.3610   35.4190 C   0  0  0  0  0  0  0  0  0  0  0  0
   39.8040   22.7540   36.7370 C   0  0  0  0  0  0  0  0  0  0  0  0
   38.4480   22.7760   37.1550 C   0  0  0  0  0  0  0  0  0  0  0  0
   37.4790   22.3940   36.2010 N   0  0  0  0  0  0  0  0  0  0  0  0
   37.8460   22.0280   34.9510 C   0  0  0  0  0  0  0  0  0  0  0  0
   39.1350   22.0130   34.5730 N   0  0  0  0  0  0  0  0  0  0  0  0
   37.9760   23.1410   38.4110 N   0  0  0  0  0  0  0  0  0  0  0  0
   36.8340   21.6520   34.0260 N   0  0  0  0  0  0  0  0  0  0  0  0
   36.8650   22.1560   32.6660 C   0  0  0  0  0  0  0  0  0  0  0  0
   36.9840   20.9280   31.7740 C   0  0  0  0  0  0  0  0  0  0  0  0
   36.6610   19.7540   32.4100 O   0  0  0  0  0  0  0  0  0  0  0  0
   35.5620   19.8150   33.2430 C   0  0  0  0  0  0  0  0  0  0  0  0
   35.7570   20.7630   34.4160 C   0  0  0  0  0  0  0  0  0  0  0  0
   43.7196   22.8682   35.0241 H   0  0  0  0  0  0  0  0  0  0  0  0
   44.6528   25.7040   34.8311 H   0  0  0  0  0  0  0  0  0  0  0  0
   43.2162   26.2698   34.7755 H   0  0  0  0  0  0  0  0  0  0  0  0
   43.0131   24.7915   37.4577 H   0  0  0  0  0  0  0  0  0  0  0  0
   45.7759   22.9822   36.4140 H   0  0  0  0  0  0  0  0  0  0  0  0
   46.0305   24.5243   35.6225 H   0  0  0  0  0  0  0  0  0  0  0  0
   47.1017   23.5586   38.3626 H   0  0  0  0  0  0  0  0  0  0  0  0
   48.0409   24.3030   37.0927 H   0  0  0  0  0  0  0  0  0  0  0  0
   46.9583   25.7320   39.2167 H   0  0  0  0  0  0  0  0  0  0  0  0
   47.2274   26.5013   37.6565 H   0  0  0  0  0  0  0  0  0  0  0  0
   44.9641   26.6391   37.3357 H   0  0  0  0  0  0  0  0  0  0  0  0
   45.1128   25.8114   39.9150 H   0  0  0  0  0  0  0  0  0  0  0  0
   41.7654   21.9190   34.2177 H   0  0  0  0  0  0  0  0  0  0  0  0
   42.0530   21.9263   36.0154 H   0  0  0  0  0  0  0  0  0  0  0  0
   40.6069   23.0398   37.4325 H   0  0  0  0  0  0  0  0  0  0  0  0
   36.9651   23.1203   38.6073 H   0  0  0  0  0  0  0  0  0  0  0  0
   38.6373   23.4321   39.1451 H   0  0  0  0  0  0  0  0  0  0  0  0
   35.9397   22.7062   32.4397 H   0  0  0  0  0  0  0  0  0  0  0  0
   37.7014   22.8533   32.5105 H   0  0  0  0  0  0  0  0  0  0  0  0
   38.0221   20.8563   31.4173 H   0  0  0  0  0  0  0  0  0  0  0  0
   36.2670   21.0567   30.9498 H   0  0  0  0  0  0  0  0  0  0  0  0
   34.6963   20.1565   32.6566 H   0  0  0  0  0  0  0  0  0  0  0  0
   35.4065   18.8076   33.6566 H   0  0  0  0  0  0  0  0  0  0  0  0
   36.0315   20.2018   35.3214 H   0  0  0  0  0  0  0  0  0  0  0  0
   34.8358   21.3178   34.6476 H   0  0  0  0  0  0  0  0  0  0  0  0
  1  3  1  0
  2  1  1  0
  2  3  1  0
  3  4  1  0
  4  5  1  0
  4  8  1  0
  5  6  1  0
  6  7  1  0
  8  7  1  0
  8  9  1  0
 10 11  1  0
 10  1  1  0
 11 12  1  0
 12 13  2  0
 13 14  1  0
 14 18  1  0
 15 14  2  0
 16 15  1  0
 17 16  2  0
 17 12  1  0
 19 24  1  0
 19 16  1  0
 20 19  1  0
 21 22  1  0
 21 20  1  0
 22 23  1  0
 23 24  1  0
  1 25  1  6
  2 26  1  0
  2 27  1  0
  3 28  1  1
  5 29  1  0
  5 30  1  0
  6 31  1  0
  6 32  1  0
  7 33  1  0
  7 34  1  0
  8 35  1  6
  9 36  1  0
 11 37  1  0
 11 38  1  0
 13 39  1  0
 18 40  1  0
 18 41  1  0
 20 42  1  0
 20 43  1  0
 21 44  1  0
 21 45  1  0
 23 46  1  0
 23 47  1  0
 24 48  1  0
 24 49  1  0
M  ISO  8  25  13  26  13  27  13  28  13  29  13  30  13  31  13  32  13
M  ISO  8  33  13  34  13  35  13  36   3  37   8  38   8  39  14  42  13
M  ISO  7  43  13  44  13  45  13  46  13  47  13  48  13  49  13
M  END
>  <minimizedAffinity>  (1) 
-5.63457298

>  <minimizedRMSD>  (1) 
1.07931423

$$$$
