
     RDKit          3D

 43 46  0  0  1  0  0  0  0  0999 V2000
   43.5250   23.3790   36.4980 C   0  0  1  0  0  0  0  0  0  0  0  0
   43.8520   24.6380   35.5790 C   0  0  0  0  0  0  0  0  0  0  0  0
   44.2120   24.5430   37.0210 C   0  0  2  0  0  0  0  0  0  0  0  0
   45.5730   24.5600   37.3580 N   0  0  0  0  0  0  0  0  0  0  0  0
   46.4520   24.5240   36.2400 C   0  0  0  0  0  0  0  0  0  0  0  0
   47.8240   24.8460   36.8560 C   0  0  0  0  0  0  0  0  0  0  0  0
   47.4720   25.8980   37.8900 C   0  0  0  0  0  0  0  0  0  0  0  0
   46.0260   25.6330   38.2070 C   0  0  2  0  0  0  0  0  0  0  0  0
   45.7810   25.4160   39.5470 O   0  0  0  0  0  0  0  0  0  0  0  0
   42.1920   23.3740   36.7540 O   0  0  0  0  0  0  0  0  0  0  0  0
   41.5660   22.2040   36.5710 C   0  0  0  0  0  0  0  0  0  0  0  0
   40.1160   22.3570   36.4760 C   0  0  0  0  0  0  0  0  0  0  0  0
   39.5960   23.0290   37.5690 C   0  0  0  0  0  0  0  0  0  0  0  0
   38.2200   23.2820   37.6650 C   0  0  0  0  0  0  0  0  0  0  0  0
   37.4130   22.8240   36.6050 N   0  0  0  0  0  0  0  0  0  0  0  0
   37.9720   22.1650   35.5480 C   0  0  0  0  0  0  0  0  0  0  0  0
   39.3150   21.9380   35.4890 N   0  0  0  0  0  0  0  0  0  0  0  0
   37.5210   23.9250   38.6740 N   0  0  0  0  0  0  0  0  0  0  0  0
   37.0820   21.6930   34.4450 C   0  0  0  0  0  0  0  0  0  0  0  0
   36.0740   20.8280   34.5080 C   0  0  0  0  0  0  0  0  0  0  0  0
   35.3540   20.5020   33.3920 C   0  0  0  0  0  0  0  0  0  0  0  0
   35.8080   21.1910   32.1780 C   0  0  0  0  0  0  0  0  0  0  0  0
   37.2430   22.2330   32.8420 S   0  0  0  0  0  0  0  0  0  0  0  0
   43.7307   22.2986   36.5167 H   0  0  0  0  0  0  0  0  0  0  0  0
   44.6284   24.5786   34.8021 H   0  0  0  0  0  0  0  0  0  0  0  0
   43.2858   25.3308   34.9391 H   0  0  0  0  0  0  0  0  0  0  0  0
   44.0018   25.1427   37.9189 H   0  0  0  0  0  0  0  0  0  0  0  0
   46.4541   23.5282   35.7727 H   0  0  0  0  0  0  0  0  0  0  0  0
   46.1632   25.2255   35.4434 H   0  0  0  0  0  0  0  0  0  0  0  0
   48.2683   23.9568   37.3270 H   0  0  0  0  0  0  0  0  0  0  0  0
   48.5702   25.1817   36.1209 H   0  0  0  0  0  0  0  0  0  0  0  0
   48.0956   25.7855   38.7891 H   0  0  0  0  0  0  0  0  0  0  0  0
   47.6431   26.9216   37.5253 H   0  0  0  0  0  0  0  0  0  0  0  0
   45.4398   26.5388   37.9928 H   0  0  0  0  0  0  0  0  0  0  0  0
   46.4012   25.9653   40.0890 H   0  0  0  0  0  0  0  0  0  0  0  0
   41.9348   21.7478   35.6405 H   0  0  0  0  0  0  0  0  0  0  0  0
   41.7798   21.5691   37.4435 H   0  0  0  0  0  0  0  0  0  0  0  0
   40.2690   23.3680   38.3703 H   0  0  0  0  0  0  0  0  0  0  0  0
   36.4995   24.0364   38.6026 H   0  0  0  0  0  0  0  0  0  0  0  0
   38.0229   24.2916   39.4954 H   0  0  0  0  0  0  0  0  0  0  0  0
   35.8153   20.3675   35.4729 H   0  0  0  0  0  0  0  0  0  0  0  0
   34.5146   19.7912   33.4030 H   0  0  0  0  0  0  0  0  0  0  0  0
   35.4173   21.1206   31.1521 H   0  0  0  0  0  0  0  0  0  0  0  0
  1 10  1  0
  1  3  1  0
  2  1  1  0
  2  3  1  0
  3  4  1  0
  4  5  1  0
  4  8  1  0
  5  6  1  0
  6  7  1  0
  7  8  1  0
  8  9  1  0
 11 10  1  0
 12 11  1  0
 12 13  2  0
 13 14  1  0
 14 18  1  0
 15 14  2  0
 16 15  1  0
 17 16  2  0
 17 12  1  0
 19 20  2  0
 19 16  1  0
 21 20  1  0
 22 23  1  0
 22 21  2  0
 23 19  1  0
  1 24  1  6
  2 25  1  0
  2 26  1  0
  3 27  1  1
  5 28  1  0
  5 29  1  0
  6 30  1  0
  6 31  1  0
  7 32  1  0
  7 33  1  0
  8 34  1  6
  9 35  1  0
 11 36  1  0
 11 37  1  0
 13 38  1  0
 18 39  1  0
 18 40  1  0
 20 41  1  0
 21 42  1  0
 22 43  1  0
M  ISO  8  24  13  25  13  26  13  27  13  28  13  29  13  30  13  31  13
M  ISO  8  32  13  33  13  34  13  35   3  36   8  37   8  38  14  41  14
M  ISO  2  42  14  43  14
M  END
>  <minimizedAffinity>  (1) 
-5.4588418

>  <minimizedRMSD>  (1) 
0.415009648

$$$$
