
     RDKit          3D

 39 41  0  0  1  0  0  0  0  0999 V2000
   43.5680   23.4060   36.4550 C   0  0  1  0  0  0  0  0  0  0  0  0
   43.7600   24.7890   35.6860 C   0  0  0  0  0  0  0  0  0  0  0  0
   44.2160   24.5410   37.0810 C   0  0  2  0  0  0  0  0  0  0  0  0
   45.5940   24.6050   37.3480 N   0  0  0  0  0  0  0  0  0  0  0  0
   46.4110   24.6430   36.1830 C   0  0  0  0  0  0  0  0  0  0  0  0
   47.8000   24.9960   36.7400 C   0  0  0  0  0  0  0  0  0  0  0  0
   47.4690   25.9890   37.8420 C   0  0  0  0  0  0  0  0  0  0  0  0
   46.0480   25.6730   38.2050 C   0  0  2  0  0  0  0  0  0  0  0  0
   45.8810   25.4070   39.5500 O   0  0  0  0  0  0  0  0  0  0  0  0
   42.2590   23.2790   36.7760 O   0  0  0  0  0  0  0  0  0  0  0  0
   41.6620   22.1490   36.3770 C   0  0  0  0  0  0  0  0  0  0  0  0
   40.2170   22.2920   36.2490 C   0  0  0  0  0  0  0  0  0  0  0  0
   39.6690   22.9270   37.3770 C   0  0  0  0  0  0  0  0  0  0  0  0
   38.2850   23.1650   37.4340 C   0  0  0  0  0  0  0  0  0  0  0  0
   37.5070   22.7460   36.3350 N   0  0  0  0  0  0  0  0  0  0  0  0
   38.0930   22.1320   35.2620 C   0  0  0  0  0  0  0  0  0  0  0  0
   39.4370   21.9120   35.2280 N   0  0  0  0  0  0  0  0  0  0  0  0
   37.5630   23.7620   38.4490 N   0  0  0  0  0  0  0  0  0  0  0  0
   37.2290   21.7100   34.1310 C   0  0  0  0  0  0  0  0  0  0  0  0
   37.8720   20.8060   33.2830 F   0  0  0  0  0  0  0  0  0  0  0  0
   36.0440   21.1460   34.5900 F   0  0  0  0  0  0  0  0  0  0  0  0
   36.8820   22.8000   33.3400 F   0  0  0  0  0  0  0  0  0  0  0  0
   43.8394   22.3476   36.3281 H   0  0  0  0  0  0  0  0  0  0  0  0
   44.4874   24.8783   34.8657 H   0  0  0  0  0  0  0  0  0  0  0  0
   43.1139   25.5159   35.1720 H   0  0  0  0  0  0  0  0  0  0  0  0
   44.0281   25.0134   38.0565 H   0  0  0  0  0  0  0  0  0  0  0  0
   46.4249   23.6655   35.6788 H   0  0  0  0  0  0  0  0  0  0  0  0
   46.0538   25.3593   35.4285 H   0  0  0  0  0  0  0  0  0  0  0  0
   48.3040   24.1060   37.1449 H   0  0  0  0  0  0  0  0  0  0  0  0
   48.4884   25.3961   35.9810 H   0  0  0  0  0  0  0  0  0  0  0  0
   48.1336   25.8480   38.7071 H   0  0  0  0  0  0  0  0  0  0  0  0
   47.6008   27.0333   37.5227 H   0  0  0  0  0  0  0  0  0  0  0  0
   45.4198   26.5600   38.0358 H   0  0  0  0  0  0  0  0  0  0  0  0
   46.3244   26.1132   40.0836 H   0  0  0  0  0  0  0  0  0  0  0  0
   42.0750   21.8588   35.3997 H   0  0  0  0  0  0  0  0  0  0  0  0
   41.8539   21.3831   37.1429 H   0  0  0  0  0  0  0  0  0  0  0  0
   40.3188   23.2355   38.2092 H   0  0  0  0  0  0  0  0  0  0  0  0
   36.5431   23.8738   38.3586 H   0  0  0  0  0  0  0  0  0  0  0  0
   38.0445   24.0953   39.2963 H   0  0  0  0  0  0  0  0  0  0  0  0
  1 10  1  0
  1  3  1  0
  2  1  1  0
  2  3  1  0
  3  4  1  0
  4  5  1  0
  4  8  1  0
  5  6  1  0
  6  7  1  0
  7  8  1  0
  8  9  1  0
 11 10  1  0
 12 11  1  0
 12 13  2  0
 13 14  1  0
 14 18  1  0
 15 14  2  0
 16 15  1  0
 17 16  2  0
 17 12  1  0
 19 21  1  0
 19 16  1  0
 20 19  1  0
 22 19  1  0
  1 23  1  6
  2 24  1  0
  2 25  1  0
  3 26  1  1
  5 27  1  0
  5 28  1  0
  6 29  1  0
  6 30  1  0
  7 31  1  0
  7 32  1  0
  8 33  1  6
  9 34  1  0
 11 35  1  0
 11 36  1  0
 13 37  1  0
 18 38  1  0
 18 39  1  0
M  ISO  8  23  13  24  13  25  13  26  13  27  13  28  13  29  13  30  13
M  ISO  7  31  13  32  13  33  13  34   3  35   8  36   8  37  14
M  END
>  <minimizedAffinity>  (1) 
-4.95849705

>  <minimizedRMSD>  (1) 
0.522498369

$$$$
