
     RDKit          3D

 36 39  0  0  0  0  0  0  0  0999 V2000
   38.7790   23.6980   37.0390 C   0  0  0  0  0  0  0  0  0  0  0  0
   40.0380   23.0890   36.9770 C   0  0  0  0  0  0  0  0  0  0  0  0
   40.8810   23.4500   35.8980 C   0  0  0  0  0  0  0  0  0  0  0  0
   40.4230   24.3510   35.0040 N   0  0  0  0  0  0  0  0  0  0  0  0
   39.2010   24.9220   35.0920 C   0  0  0  0  0  0  0  0  0  0  0  0
   38.3890   24.5960   36.1020 N   0  0  0  0  0  0  0  0  0  0  0  0
   38.6900   25.8770   34.1680 N   0  0  0  0  0  0  0  0  0  0  0  0
   37.6730   26.7110   34.3810 C   0  0  0  0  0  0  0  0  0  0  0  0
   37.3120   27.5810   33.3770 C   0  0  0  0  0  0  0  0  0  0  0  0
   37.9770   27.5940   32.1880 C   0  0  0  0  0  0  0  0  0  0  0  0
   37.6670   28.3830   31.2540 O   0  0  0  0  0  0  0  0  0  0  0  0
   38.9960   26.7400   32.0040 N   0  0  0  0  0  0  0  0  0  0  0  0
   39.3520   25.8870   32.9860 C   0  0  0  0  0  0  0  0  0  0  0  0
   40.3360   25.1240   32.6970 O   0  0  0  0  0  0  0  0  0  0  0  0
   39.6600   26.7440   30.7430 C   0  0  0  0  0  0  0  0  0  0  0  0
   40.7160   25.9470   30.4830 N   0  0  0  0  0  0  0  0  0  0  0  0
   41.1320   26.1220   29.2720 O   0  0  0  0  0  0  0  0  0  0  0  0
   40.3380   27.0360   28.7560 C   0  0  0  0  0  0  0  0  0  0  0  0
   39.4050   27.4490   29.6510 N   0  0  0  0  0  0  0  0  0  0  0  0
   40.3870   27.5970   27.3900 C   0  0  0  0  0  0  0  0  0  0  0  0
   40.3410   28.9640   27.1260 C   0  0  0  0  0  0  0  0  0  0  0  0
   40.3940   29.3830   25.7920 C   0  0  0  0  0  0  0  0  0  0  0  0
   40.4870   28.4710   24.8210 N   0  0  0  0  0  0  0  0  0  0  0  0
   40.5290   27.1360   25.1010 C   0  0  0  0  0  0  0  0  0  0  0  0
   40.4790   26.7480   26.3680 N   0  0  0  0  0  0  0  0  0  0  0  0
   37.8630   23.3420   38.1660 C   0  0  0  0  0  0  0  0  0  0  0  0
   38.5220   22.6580   39.1750 F   0  0  0  0  0  0  0  0  0  0  0  0
   37.3670   24.5080   38.7420 F   0  0  0  0  0  0  0  0  0  0  0  0
   36.8050   22.6140   37.6700 F   0  0  0  0  0  0  0  0  0  0  0  0
   40.3593   22.3599   37.7354 H   0  0  0  0  0  0  0  0  0  0  0  0
   41.8825   23.0077   35.7914 H   0  0  0  0  0  0  0  0  0  0  0  0
   37.1330   26.7045   35.3393 H   0  0  0  0  0  0  0  0  0  0  0  0
   36.4744   28.2758   33.5371 H   0  0  0  0  0  0  0  0  0  0  0  0
   40.2650   29.6948   27.9446 H   0  0  0  0  0  0  0  0  0  0  0  0
   40.3594   30.4544   25.5453 H   0  0  0  0  0  0  0  0  0  0  0  0
   40.6029   26.3956   24.2908 H   0  0  0  0  0  0  0  0  0  0  0  0
  1 26  1  0
  2  1  2  0
  3  2  1  0
  4  5  1  0
  4  3  2  0
  5  6  2  0
  6  1  1  0
  7  8  1  0
  7  5  1  0
  9  8  2  0
 10  9  1  0
 11 10  2  0
 12 10  1  0
 12 13  1  0
 13  7  1  0
 14 13  2  0
 15 12  1  0
 16 15  2  0
 17 16  1  0
 18 17  1  0
 18 19  2  0
 19 15  1  0
 20 18  1  0
 21 20  2  0
 22 21  1  0
 23 24  1  0
 23 22  2  0
 24 25  2  0
 25 20  1  0
 26 28  1  0
 26 27  1  0
 29 26  1  0
  2 30  1  0
  3 31  1  0
  8 32  1  0
  9 33  1  0
 21 34  1  0
 22 35  1  0
 24 36  1  0
M  ISO  7  30  14  31  14  32  14  33  14  34  14  35  14  36  14
M  END
>  <minimizedAffinity>  (1) 
-5.66000891

>  <minimizedRMSD>  (1) 
2.63531518

$$$$
