
     RDKit          3D

 37 39  0  0  1  0  0  0  0  0999 V2000
   43.4660   23.3680   36.4850 C   0  0  1  0  0  0  0  0  0  0  0  0
   43.8300   24.6130   35.5510 C   0  0  0  0  0  0  0  0  0  0  0  0
   44.1620   24.5290   37.0000 C   0  0  2  0  0  0  0  0  0  0  0  0
   45.5170   24.5330   37.3660 N   0  0  0  0  0  0  0  0  0  0  0  0
   46.4180   24.4150   36.2690 C   0  0  0  0  0  0  0  0  0  0  0  0
   47.7850   24.7230   36.9030 C   0  0  0  0  0  0  0  0  0  0  0  0
   47.4420   25.8470   37.8710 C   0  0  0  0  0  0  0  0  0  0  0  0
   45.9810   25.6440   38.1610 C   0  0  2  0  0  0  0  0  0  0  0  0
   45.7060   25.5080   39.5080 O   0  0  0  0  0  0  0  0  0  0  0  0
   42.1310   23.3940   36.6870 O   0  0  0  0  0  0  0  0  0  0  0  0
   41.5030   22.2140   36.5860 C   0  0  0  0  0  0  0  0  0  0  0  0
   40.0240   22.3960   36.6090 C   0  0  0  0  0  0  0  0  0  0  0  0
   39.6100   23.1740   37.6730 C   0  0  0  0  0  0  0  0  0  0  0  0
   38.2440   23.4380   37.8070 C   0  0  0  0  0  0  0  0  0  0  0  0
   37.3600   22.8950   36.8480 N   0  0  0  0  0  0  0  0  0  0  0  0
   37.8430   22.1330   35.8200 C   0  0  0  0  0  0  0  0  0  0  0  0
   39.1620   21.8920   35.7090 N   0  0  0  0  0  0  0  0  0  0  0  0
   37.6230   24.1950   38.8130 N   0  0  0  0  0  0  0  0  0  0  0  0
   36.9440   21.6330   34.9190 O   0  0  0  0  0  0  0  0  0  0  0  0
   43.6556   22.2858   36.5386 H   0  0  0  0  0  0  0  0  0  0  0  0
   44.6189   24.5311   34.7888 H   0  0  0  0  0  0  0  0  0  0  0  0
   43.2870   25.3064   34.8920 H   0  0  0  0  0  0  0  0  0  0  0  0
   43.9449   25.1445   37.8855 H   0  0  0  0  0  0  0  0  0  0  0  0
   46.3978   23.3984   35.8494 H   0  0  0  0  0  0  0  0  0  0  0  0
   46.1695   25.0847   35.4325 H   0  0  0  0  0  0  0  0  0  0  0  0
   48.1852   23.8469   37.4342 H   0  0  0  0  0  0  0  0  0  0  0  0
   48.5618   24.9906   36.1715 H   0  0  0  0  0  0  0  0  0  0  0  0
   48.0384   25.7657   38.7917 H   0  0  0  0  0  0  0  0  0  0  0  0
   47.6570   26.8430   37.4566 H   0  0  0  0  0  0  0  0  0  0  0  0
   45.4243   26.5489   37.8759 H   0  0  0  0  0  0  0  0  0  0  0  0
   46.4561   25.8789   40.0370 H   0  0  0  0  0  0  0  0  0  0  0  0
   41.8005   21.5741   37.4299 H   0  0  0  0  0  0  0  0  0  0  0  0
   41.7851   21.7459   35.6314 H   0  0  0  0  0  0  0  0  0  0  0  0
   40.3361   23.5750   38.3955 H   0  0  0  0  0  0  0  0  0  0  0  0
   36.6007   24.3204   38.8062 H   0  0  0  0  0  0  0  0  0  0  0  0
   38.1897   24.6250   39.5579 H   0  0  0  0  0  0  0  0  0  0  0  0
   37.2584   21.0774   34.1624 H   0  0  0  0  0  0  0  0  0  0  0  0
  1 10  1  0
  1  3  1  0
  2  1  1  0
  2  3  1  0
  3  4  1  0
  4  5  1  0
  4  8  1  0
  5  6  1  0
  6  7  1  0
  7  8  1  0
  8  9  1  0
 11 12  1  0
 11 10  1  0
 12 13  2  0
 13 14  1  0
 14 18  1  0
 15 14  2  0
 16 15  1  0
 17 16  2  0
 17 12  1  0
 19 16  1  0
  1 20  1  6
  2 21  1  0
  2 22  1  0
  3 23  1  1
  5 24  1  0
  5 25  1  0
  6 26  1  0
  6 27  1  0
  7 28  1  0
  7 29  1  0
  8 30  1  6
  9 31  1  0
 11 32  1  0
 11 33  1  0
 13 34  1  0
 18 35  1  0
 18 36  1  0
 19 37  1  0
M  ISO  8  20  13  21  13  22  13  23  13  24  13  25  13  26  13  27  13
M  ISO  8  28  13  29  13  30  13  31   3  32   8  33   8  34  14  37   3
M  END
>  <minimizedAffinity>  (1) 
-4.74786901

>  <minimizedRMSD>  (1) 
0.147767857

$$$$
