
     RDKit          3D

 16 16  0  0  0  0  0  0  0  0999 V2000
   37.4730   26.1260   35.3180 C   0  0  0  0  0  0  0  0  0  0  0  0
   37.8930   24.8180   34.9760 C   0  0  0  0  0  0  0  0  0  0  0  0
   37.8980   24.4550   33.6230 C   0  0  0  0  0  0  0  0  0  0  0  0
   37.5000   25.3840   32.7260 N   0  0  0  0  0  0  0  0  0  0  0  0
   37.1080   26.6140   33.0740 C   0  0  0  0  0  0  0  0  0  0  0  0
   37.0960   26.9850   34.3810 N   0  0  0  0  0  0  0  0  0  0  0  0
   38.3180   23.8080   35.8920 C   0  0  0  0  0  0  0  0  0  0  0  0
   38.1170   22.5500   35.7140 O   0  0  0  0  0  0  0  0  0  0  0  0
   39.0000   24.0180   37.0940 O   0  0  0  0  0  0  0  0  0  0  0  0
   38.4500   23.8170   38.3320 C   0  0  0  0  0  0  0  0  0  0  0  0
   37.9480   24.7810   38.9650 O   0  0  0  0  0  0  0  0  0  0  0  0
   38.4280   22.5420   38.9340 O   0  0  0  0  0  0  0  0  0  0  0  0
   37.4593   26.4334   36.3741 H   0  0  0  0  0  0  0  0  0  0  0  0
   38.2141   23.4513   33.3027 H   0  0  0  0  0  0  0  0  0  0  0  0
   36.7939   27.3286   32.2989 H   0  0  0  0  0  0  0  0  0  0  0  0
   38.0240   22.4246   39.8302 H   0  0  0  0  0  0  0  0  0  0  0  0
  2  1  2  0
  2  7  1  0
  3  2  1  0
  4  5  1  0
  4  3  2  0
  5  6  2  0
  6  1  1  0
  7  9  1  0
  8  7  2  0
  9 10  1  0
 10 12  1  0
 10 11  2  0
  1 13  1  0
  3 14  1  0
  5 15  1  0
 12 16  1  0
M  ISO  4  13  14  14  14  15  14  16   3
M  END
>  <minimizedAffinity>  (1) 
-3.52599978

>  <minimizedRMSD>  (1) 
2.74639869

$$$$
