
     RDKit          3D

 15 15  0  0  0  0  0  0  0  0999 V2000
   37.7740   25.9590   35.8670 C   0  0  0  0  0  0  0  0  0  0  0  0
   38.1030   24.5880   35.9960 C   0  0  0  0  0  0  0  0  0  0  0  0
   38.1820   23.7810   34.8520 C   0  0  0  0  0  0  0  0  0  0  0  0
   37.9330   24.3710   33.6620 N   0  0  0  0  0  0  0  0  0  0  0  0
   37.6220   25.6750   33.5570 C   0  0  0  0  0  0  0  0  0  0  0  0
   37.5430   26.4630   34.6530 N   0  0  0  0  0  0  0  0  0  0  0  0
   38.3750   23.9200   37.2280 C   0  0  0  0  0  0  0  0  0  0  0  0
   37.9780   24.3180   38.3870 O   0  0  0  0  0  0  0  0  0  0  0  0
   39.1100   22.7370   37.3790 O   0  0  0  0  0  0  0  0  0  0  0  0
   40.4560   22.6840   37.6540 C   0  0  0  0  0  0  0  0  0  0  0  0
   41.0460   21.5970   37.6610 O   0  0  0  0  0  0  0  0  0  0  0  0
   37.7095   26.6016   36.7574 H   0  0  0  0  0  0  0  0  0  0  0  0
   38.4359   22.7129   34.9203 H   0  0  0  0  0  0  0  0  0  0  0  0
   37.4289   26.1074   32.5641 H   0  0  0  0  0  0  0  0  0  0  0  0
   41.0093   23.6102   37.8682 H   0  0  0  0  0  0  0  0  0  0  0  0
  1  2  2  0
  2  7  1  0
  3  2  1  0
  4  3  2  0
  5  4  1  0
  5  6  2  0
  6  1  1  0
  7  9  1  0
  7  8  2  0
  9 10  1  0
 10 11  2  0
  1 12  1  0
  3 13  1  0
  5 14  1  0
 10 15  1  0
M  ISO  4  12  14  13  14  14  14  15   6
M  END
>  <minimizedAffinity>  (1) 
-3.04512525

>  <minimizedRMSD>  (1) 
2.09868503

$$$$
