
     RDKit          3D

 18 19  0  0  0  0  0  0  0  0999 V2000
   37.2380   25.4030   33.0770 C   0  0  0  0  0  0  0  0  0  0  0  0
   38.5560   25.1610   33.4650 C   0  0  0  0  0  0  0  0  0  0  0  0
   39.5070   26.1410   33.2230 C   0  0  0  0  0  0  0  0  0  0  0  0
   39.1050   27.2870   32.6200 N   0  0  0  0  0  0  0  0  0  0  0  0
   37.8350   27.5040   32.2530 C   0  0  0  0  0  0  0  0  0  0  0  0
   36.8970   26.5600   32.4820 N   0  0  0  0  0  0  0  0  0  0  0  0
   39.0180   23.9690   34.1020 C   0  0  0  0  0  0  0  0  0  0  0  0
   40.1630   23.4160   33.9340 O   0  0  0  0  0  0  0  0  0  0  0  0
   38.3200   23.2000   35.0090 O   0  0  0  0  0  0  0  0  0  0  0  0
   38.2360   23.4910   36.3660 C   0  0  0  0  0  0  0  0  0  0  0  0
   37.4340   24.2860   37.1020 N   0  0  0  0  0  0  0  0  0  0  0  0
   37.7790   24.2010   38.3640 O   0  0  0  0  0  0  0  0  0  0  0  0
   38.8000   23.3650   38.5000 C   0  0  0  0  0  0  0  0  0  0  0  0
   39.0970   22.9120   37.2570 N   0  0  0  0  0  0  0  0  0  0  0  0
   36.4685   24.6385   33.2599 H   0  0  0  0  0  0  0  0  0  0  0  0
   40.5579   25.9928   33.5121 H   0  0  0  0  0  0  0  0  0  0  0  0
   37.5566   28.4501   31.7657 H   0  0  0  0  0  0  0  0  0  0  0  0
   39.3065   23.0926   39.4377 H   0  0  0  0  0  0  0  0  0  0  0  0
  1  2  2  0
  2  7  1  0
  3  2  1  0
  4  3  2  0
  5  6  2  0
  5  4  1  0
  6  1  1  0
  7  9  1  0
  8  7  2  0
  9 10  1  0
 10 11  2  0
 10 14  1  0
 11 12  1  0
 12 13  1  0
 14 13  2  0
  1 15  1  0
  3 16  1  0
  5 17  1  0
 13 18  1  0
M  ISO  4  15  14  16  14  17  14  18  14
M  END
>  <minimizedAffinity>  (1) 
-3.26857615

>  <minimizedRMSD>  (1) 
4.2635746

$$$$
