
     RDKit          3D

 20 21  0  0  0  0  0  0  0  0999 V2000
   36.9890   27.5960   34.6460 C   0  0  0  0  0  0  0  0  0  0  0  0
   37.4030   27.4430   33.3180 C   0  0  0  0  0  0  0  0  0  0  0  0
   38.7210   27.1150   33.0580 C   0  0  0  0  0  0  0  0  0  0  0  0
   39.5890   26.9470   34.0980 N   0  0  0  0  0  0  0  0  0  0  0  0
   39.1630   27.1010   35.3770 C   0  0  0  0  0  0  0  0  0  0  0  0
   37.8730   27.4220   35.6420 N   0  0  0  0  0  0  0  0  0  0  0  0
   36.5850   27.5940   32.1510 C   0  0  0  0  0  0  0  0  0  0  0  0
   35.7610   26.6880   31.7470 O   0  0  0  0  0  0  0  0  0  0  0  0
   36.5370   28.6870   31.2910 O   0  0  0  0  0  0  0  0  0  0  0  0
   36.8600   28.6800   29.9460 C   0  0  0  0  0  0  0  0  0  0  0  0
   38.2540   28.6200   29.4480 C   0  0  0  0  0  0  0  0  0  0  0  0
   37.3980   29.8860   29.2500 C   0  0  0  0  0  0  0  0  0  0  0  0
   35.9449   27.8574   34.8729 H   0  0  0  0  0  0  0  0  0  0  0  0
   39.0672   26.9905   32.0213 H   0  0  0  0  0  0  0  0  0  0  0  0
   39.8716   26.9640   36.2071 H   0  0  0  0  0  0  0  0  0  0  0  0
   35.9761   28.0406   29.8053 H   0  0  0  0  0  0  0  0  0  0  0  0
   39.0947   28.6271   30.1573 H   0  0  0  0  0  0  0  0  0  0  0  0
   38.8211   27.9473   28.7877 H   0  0  0  0  0  0  0  0  0  0  0  0
   37.6214   30.8007   29.8188 H   0  0  0  0  0  0  0  0  0  0  0  0
   37.0907   30.5018   28.3919 H   0  0  0  0  0  0  0  0  0  0  0  0
  1  6  2  0
  2  1  1  0
  3  2  2  0
  3  4  1  0
  4  5  2  0
  5  6  1  0
  7  2  1  0
  8  7  2  0
  9  7  1  0
 10  9  1  0
 11 10  1  0
 12 11  1  0
 12 10  1  0
  1 13  1  0
  3 14  1  0
  5 15  1  0
 10 16  1  0
 11 17  1  0
 11 18  1  0
 12 19  1  0
 12 20  1  0
M  ISO  8  13  14  14  14  15  14  16  13  17  13  18  13  19  13  20  13
M  END
>  <minimizedAffinity>  (1) 
-2.92482996

>  <minimizedRMSD>  (1) 
8.32481956

$$$$
