
     RDKit          3D

 28 28  0  0  0  0  0  0  0  0999 V2000
   37.4790   21.8130   35.2160 C   0  0  0  0  0  0  0  0  0  0  0  0
   38.2210   22.9800   35.1160 C   0  0  0  0  0  0  0  0  0  0  0  0
   38.2510   23.7170   33.9110 C   0  0  0  0  0  0  0  0  0  0  0  0
   37.5220   23.2150   32.8830 N   0  0  0  0  0  0  0  0  0  0  0  0
   36.8040   22.0800   32.9880 C   0  0  0  0  0  0  0  0  0  0  0  0
   36.7910   21.3960   34.1440 N   0  0  0  0  0  0  0  0  0  0  0  0
   36.0540   21.6540   31.7740 C   0  0  0  0  0  0  0  0  0  0  0  0
   35.5560   22.9270   31.0910 C   0  0  0  0  0  0  0  0  0  0  0  0
   34.8470   20.8040   32.1170 C   0  0  0  0  0  0  0  0  0  0  0  0
   36.9480   20.8630   30.8420 C   0  0  0  0  0  0  0  0  0  0  0  0
   39.0140   23.5680   36.1620 C   0  0  0  0  0  0  0  0  0  0  0  0
   40.2500   23.3820   36.3700 O   0  0  0  0  0  0  0  0  0  0  0  0
   38.6080   24.4470   37.1520 O   0  0  0  0  0  0  0  0  0  0  0  0
   38.2210   23.9720   38.4550 C   0  0  0  0  0  0  0  0  0  0  0  0
   39.3540   23.5930   39.1660 F   0  0  0  0  0  0  0  0  0  0  0  0
   37.3040   22.9430   38.3450 F   0  0  0  0  0  0  0  0  0  0  0  0
   37.6560   25.0200   39.1350 F   0  0  0  0  0  0  0  0  0  0  0  0
   37.4555   21.2413   36.1555 H   0  0  0  0  0  0  0  0  0  0  0  0
   38.8326   24.6454   33.8120 H   0  0  0  0  0  0  0  0  0  0  0  0
   35.2676   23.6641   31.8548 H   0  0  0  0  0  0  0  0  0  0  0  0
   36.3574   23.3438   30.4632 H   0  0  0  0  0  0  0  0  0  0  0  0
   34.6845   22.6894   30.4632 H   0  0  0  0  0  0  0  0  0  0  0  0
   34.7469   20.7335   33.2102 H   0  0  0  0  0  0  0  0  0  0  0  0
   33.9419   21.2651   31.6949 H   0  0  0  0  0  0  0  0  0  0  0  0
   34.9762   19.7965   31.6949 H   0  0  0  0  0  0  0  0  0  0  0  0
   37.6424   20.2486   31.4338 H   0  0  0  0  0  0  0  0  0  0  0  0
   36.3303   20.2103   30.2076 H   0  0  0  0  0  0  0  0  0  0  0  0
   37.5206   21.5556   30.2076 H   0  0  0  0  0  0  0  0  0  0  0  0
  2  1  2  0
  2 11  1  0
  3  2  1  0
  4  5  1  0
  4  3  2  0
  5  6  2  0
  6  1  1  0
  7  9  1  0
  7  5  1  0
  8  7  1  0
 10  7  1  0
 11 12  2  0
 11 13  1  0
 13 14  1  0
 14 17  1  0
 14 15  1  0
 16 14  1  0
  1 18  1  0
  3 19  1  0
  8 20  1  0
  8 21  1  0
  8 22  1  0
  9 23  1  0
  9 24  1  0
  9 25  1  0
 10 26  1  0
 10 27  1  0
 10 28  1  0
M  ISO  8  18  14  19  14  20   8  21   8  22   8  23   8  24   8  25   8
M  ISO  3  26   8  27   8  28   8
M  END
>  <minimizedAffinity>  (1) 
-4.77157402

>  <minimizedRMSD>  (1) 
5.5047574

$$$$
