
     RDKit          3D

 26 27  0  0  0  0  0  0  0  0999 V2000
   38.7890   24.2230   34.6890 C   0  0  0  0  0  0  0  0  0  0  0  0
   40.1250   24.5370   34.9590 C   0  0  0  0  0  0  0  0  0  0  0  0
   40.5830   25.8500   34.8090 C   0  0  0  0  0  0  0  0  0  0  0  0
   39.6940   26.7730   34.4020 N   0  0  0  0  0  0  0  0  0  0  0  0
   38.4100   26.4680   34.1420 C   0  0  0  0  0  0  0  0  0  0  0  0
   37.9680   25.1950   34.2890 N   0  0  0  0  0  0  0  0  0  0  0  0
   37.4410   27.4700   33.6990 C   0  0  0  0  0  0  0  0  0  0  0  0
   37.4280   27.7930   32.3570 C   0  0  0  0  0  0  0  0  0  0  0  0
   36.5590   28.7210   31.8340 C   0  0  0  0  0  0  0  0  0  0  0  0
   35.6850   29.3260   32.7280 C   0  0  0  0  0  0  0  0  0  0  0  0
   35.6770   29.0250   34.0690 C   0  0  0  0  0  0  0  0  0  0  0  0
   36.5600   28.0840   34.5930 C   0  0  0  0  0  0  0  0  0  0  0  0
   41.1270   23.6100   35.3950 C   0  0  0  0  0  0  0  0  0  0  0  0
   41.9310   22.9570   34.6630 O   0  0  0  0  0  0  0  0  0  0  0  0
   41.4430   23.2190   36.6880 O   0  0  0  0  0  0  0  0  0  0  0  0
   40.6090   22.2810   37.3960 C   0  0  0  0  0  0  0  0  0  0  0  0
   41.4150   21.3440   38.0500 F   0  0  0  0  0  0  0  0  0  0  0  0
   39.7060   21.6800   36.5500 F   0  0  0  0  0  0  0  0  0  0  0  0
   39.9380   22.9830   38.3740 F   0  0  0  0  0  0  0  0  0  0  0  0
   38.4219   23.1925   34.8045 H   0  0  0  0  0  0  0  0  0  0  0  0
   41.6298   26.1171   35.0160 H   0  0  0  0  0  0  0  0  0  0  0  0
   38.1374   27.2906   31.6829 H   0  0  0  0  0  0  0  0  0  0  0  0
   36.5560   28.9714   30.7629 H   0  0  0  0  0  0  0  0  0  0  0  0
   34.9729   30.0737   32.3487 H   0  0  0  0  0  0  0  0  0  0  0  0
   34.9651   29.5331   34.7360 H   0  0  0  0  0  0  0  0  0  0  0  0
   36.5637   27.8349   35.6644 H   0  0  0  0  0  0  0  0  0  0  0  0
  1  2  2  0
  2 13  1  0
  3  2  1  0
  4  3  2  0
  5  6  2  0
  5  4  1  0
  6  1  1  0
  7  5  1  0
  7 12  1  0
  8  7  2  0
  9  8  1  0
  9 10  2  0
 10 11  1  0
 11 12  2  0
 13 15  1  0
 14 13  2  0
 15 16  1  0
 16 17  1  0
 16 19  1  0
 18 16  1  0
  1 20  1  0
  3 21  1  0
  8 22  1  0
  9 23  1  0
 10 24  1  0
 11 25  1  0
 12 26  1  0
M  ISO  7  20  14  21  14  22  14  23  14  24  14  25  14  26  14
M  END
>  <minimizedAffinity>  (1) 
-4.73573828

>  <minimizedRMSD>  (1) 
4.19120026

$$$$
