
     RDKit          3D

 30 31  0  0  0  0  0  0  0  0999 V2000
   39.5010   25.1910   34.9240 C   0  0  0  0  0  0  0  0  0  0  0  0
   40.0560   24.1070   35.5890 C   0  0  0  0  0  0  0  0  0  0  0  0
   41.4410   23.9250   35.6190 C   0  0  0  0  0  0  0  0  0  0  0  0
   42.1900   24.8570   34.9680 N   0  0  0  0  0  0  0  0  0  0  0  0
   41.6430   25.9050   34.3260 C   0  0  0  0  0  0  0  0  0  0  0  0
   40.3090   26.0580   34.3120 N   0  0  0  0  0  0  0  0  0  0  0  0
   42.5120   26.8330   33.6710 N   0  0  0  0  0  0  0  0  0  0  0  0
   41.8960   27.7470   32.7160 C   0  0  0  0  0  0  0  0  0  0  0  0
   42.9160   28.2660   31.7260 C   0  0  0  0  0  0  0  0  0  0  0  0
   44.0850   28.6640   32.4810 N   0  0  0  0  0  0  0  0  0  0  0  0
   44.7770   27.5210   33.0090 C   0  0  0  0  0  0  0  0  0  0  0  0
   43.9350   26.7900   34.0070 C   0  0  0  0  0  0  0  0  0  0  0  0
   39.3310   23.0880   36.2930 C   0  0  0  0  0  0  0  0  0  0  0  0
   38.5730   22.2040   35.7830 O   0  0  0  0  0  0  0  0  0  0  0  0
   39.3020   22.8520   37.6700 O   0  0  0  0  0  0  0  0  0  0  0  0
   38.4150   23.5930   38.5190 C   0  0  0  0  0  0  0  0  0  0  0  0
   37.3660   22.7810   38.9430 F   0  0  0  0  0  0  0  0  0  0  0  0
   37.9650   24.7410   37.8880 F   0  0  0  0  0  0  0  0  0  0  0  0
   39.1280   23.9550   39.6440 F   0  0  0  0  0  0  0  0  0  0  0  0
   38.4105   25.3333   34.9018 H   0  0  0  0  0  0  0  0  0  0  0  0
   41.9019   23.0735   36.1411 H   0  0  0  0  0  0  0  0  0  0  0  0
   41.1028   27.2155   32.1698 H   0  0  0  0  0  0  0  0  0  0  0  0
   41.4779   28.6014   33.2685 H   0  0  0  0  0  0  0  0  0  0  0  0
   42.5069   29.1303   31.1822 H   0  0  0  0  0  0  0  0  0  0  0  0
   43.1735   27.4905   30.9896 H   0  0  0  0  0  0  0  0  0  0  0  0
   44.7222   29.1864   31.8630 H   0  0  0  0  0  0  0  0  0  0  0  0
   45.0261   26.8394   32.1824 H   0  0  0  0  0  0  0  0  0  0  0  0
   45.6900   27.8700   33.5137 H   0  0  0  0  0  0  0  0  0  0  0  0
   44.0790   27.2501   34.9957 H   0  0  0  0  0  0  0  0  0  0  0  0
   44.2494   25.7359   34.0045 H   0  0  0  0  0  0  0  0  0  0  0  0
  1  2  2  0
  2  3  1  0
  2 13  1  0
  4  3  2  0
  5  4  1  0
  6  5  2  0
  6  1  1  0
  7 12  1  0
  7  5  1  0
  8  7  1  0
  9 10  1  0
  9  8  1  0
 10 11  1  0
 11 12  1  0
 13 15  1  0
 14 13  2  0
 15 16  1  0
 16 17  1  0
 16 19  1  0
 18 16  1  0
  1 20  1  0
  3 21  1  0
  8 22  1  0
  8 23  1  0
  9 24  1  0
  9 25  1  0
 10 26  1  0
 11 27  1  0
 11 28  1  0
 12 29  1  0
 12 30  1  0
M  ISO  8  20  14  21  14  22  13  23  13  24  13  25  13  26   5  27  13
M  ISO  3  28  13  29  13  30  13
M  END
>  <minimizedAffinity>  (1) 
-4.62498665

>  <minimizedRMSD>  (1) 
1.02439094

$$$$
