
     RDKit          3D

 23 24  0  0  0  0  0  0  0  0999 V2000
   37.6740   25.9180   35.6890 C   0  0  0  0  0  0  0  0  0  0  0  0
   38.0160   24.6280   35.2780 C   0  0  0  0  0  0  0  0  0  0  0  0
   38.0160   24.3080   33.9100 C   0  0  0  0  0  0  0  0  0  0  0  0
   37.6750   25.2960   33.0470 N   0  0  0  0  0  0  0  0  0  0  0  0
   37.3510   26.5280   33.4690 C   0  0  0  0  0  0  0  0  0  0  0  0
   37.3490   26.8420   34.7760 N   0  0  0  0  0  0  0  0  0  0  0  0
   36.9940   27.5470   32.4860 C   0  0  0  0  0  0  0  0  0  0  0  0
   37.7550   27.9840   31.4220 C   0  0  0  0  0  0  0  0  0  0  0  0
   37.0870   28.9320   30.7420 N   0  0  0  0  0  0  0  0  0  0  0  0
   35.8910   29.1020   31.3760 C   0  0  0  0  0  0  0  0  0  0  0  0
   35.8460   28.2500   32.4410 N   0  0  0  0  0  0  0  0  0  0  0  0
   38.3840   23.5470   36.1440 C   0  0  0  0  0  0  0  0  0  0  0  0
   38.1240   22.3200   35.9750 O   0  0  0  0  0  0  0  0  0  0  0  0
   39.0970   23.6140   37.3350 O   0  0  0  0  0  0  0  0  0  0  0  0
   38.4200   23.8460   38.5830 C   0  0  0  0  0  0  0  0  0  0  0  0
   37.4370   22.8780   38.7720 F   0  0  0  0  0  0  0  0  0  0  0  0
   37.9100   25.1180   38.6340 F   0  0  0  0  0  0  0  0  0  0  0  0
   39.3460   23.6690   39.5820 F   0  0  0  0  0  0  0  0  0  0  0  0
   37.6716   26.1741   36.7588 H   0  0  0  0  0  0  0  0  0  0  0  0
   38.2808   23.3010   33.5553 H   0  0  0  0  0  0  0  0  0  0  0  0
   38.7586   27.6124   31.1678 H   0  0  0  0  0  0  0  0  0  0  0  0
   35.0988   29.8053   31.0795 H   0  0  0  0  0  0  0  0  0  0  0  0
   35.0619   28.1593   33.1027 H   0  0  0  0  0  0  0  0  0  0  0  0
  2  1  2  0
  2 12  1  0
  3  2  1  0
  4  5  1  0
  4  3  2  0
  5  6  2  0
  6  1  1  0
  7  5  1  0
  8  7  2  0
  9 10  2  0
  9  8  1  0
 10 11  1  0
 11  7  1  0
 12 14  1  0
 13 12  2  0
 14 15  1  0
 15 17  1  0
 15 16  1  0
 15 18  1  0
  1 19  1  0
  3 20  1  0
  8 21  1  0
 10 22  1  0
 11 23  1  0
M  ISO  5  19  14  20  14  21  14  22  14  23   9
M  END
>  <minimizedAffinity>  (1) 
-4.6403594

>  <minimizedRMSD>  (1) 
3.66424394

$$$$
