
     RDKit          3D

 23 24  0  0  0  0  0  0  0  0999 V2000
   38.0200   23.6990   33.5020 C   0  0  0  0  0  0  0  0  0  0  0  0
   38.1250   23.6210   34.8910 C   0  0  0  0  0  0  0  0  0  0  0  0
   37.6400   22.4980   35.5800 C   0  0  0  0  0  0  0  0  0  0  0  0
   37.0810   21.5140   34.8460 N   0  0  0  0  0  0  0  0  0  0  0  0
   36.9870   21.6020   33.5010 C   0  0  0  0  0  0  0  0  0  0  0  0
   37.4500   22.6800   32.8340 N   0  0  0  0  0  0  0  0  0  0  0  0
   36.4120   20.6110   32.6550 N   0  0  0  0  0  0  0  0  0  0  0  0
   35.6020   19.6830   33.2220 C   0  0  0  0  0  0  0  0  0  0  0  0
   35.1980   18.8630   32.1630 C   0  0  0  0  0  0  0  0  0  0  0  0
   35.7620   19.3110   31.0220 N   0  0  0  0  0  0  0  0  0  0  0  0
   36.5050   20.3850   31.3310 C   0  0  0  0  0  0  0  0  0  0  0  0
   38.7070   24.6270   35.7400 C   0  0  0  0  0  0  0  0  0  0  0  0
   38.3470   24.9420   36.9030 O   0  0  0  0  0  0  0  0  0  0  0  0
   39.7820   25.4560   35.4530 O   0  0  0  0  0  0  0  0  0  0  0  0
   39.5740   26.8300   35.0790 C   0  0  0  0  0  0  0  0  0  0  0  0
   40.7390   27.3640   34.5370 F   0  0  0  0  0  0  0  0  0  0  0  0
   39.0970   27.5620   36.1400 F   0  0  0  0  0  0  0  0  0  0  0  0
   38.6200   26.8390   34.0680 F   0  0  0  0  0  0  0  0  0  0  0  0
   38.3973   24.5797   32.9617 H   0  0  0  0  0  0  0  0  0  0  0  0
   37.7130   22.4235   36.6750 H   0  0  0  0  0  0  0  0  0  0  0  0
   35.3236   19.5944   34.2825 H   0  0  0  0  0  0  0  0  0  0  0  0
   34.5290   17.9939   32.2469 H   0  0  0  0  0  0  0  0  0  0  0  0
   37.0935   20.9826   30.6193 H   0  0  0  0  0  0  0  0  0  0  0  0
  1  2  2  0
  2  3  1  0
  2 12  1  0
  4  3  2  0
  5  4  1  0
  6  5  2  0
  6  1  1  0
  7  8  1  0
  7  5  1  0
  9  8  2  0
 10 11  2  0
 10  9  1  0
 11  7  1  0
 12 13  2  0
 14 12  1  0
 15 14  1  0
 15 17  1  0
 16 15  1  0
 18 15  1  0
  1 19  1  0
  3 20  1  0
  8 21  1  0
  9 22  1  0
 11 23  1  0
M  ISO  5  19  14  20  14  21  14  22  14  23  14
M  END
>  <minimizedAffinity>  (1) 
-4.38139486

>  <minimizedRMSD>  (1) 
7.09392023

$$$$
