
     RDKit          3D

 31 33  0  0  0  0  0  0  0  0999 V2000
   40.3470   25.0760   35.0730 C   0  0  0  0  0  0  0  0  0  0  0  0
   40.0330   23.7940   35.5940 C   0  0  0  0  0  0  0  0  0  0  0  0
   38.7990   23.2760   35.1800 C   0  0  0  0  0  0  0  0  0  0  0  0
   38.0150   23.9980   34.3450 N   0  0  0  0  0  0  0  0  0  0  0  0
   38.3510   25.2080   33.8770 C   0  0  0  0  0  0  0  0  0  0  0  0
   39.5210   25.7180   34.2590 N   0  0  0  0  0  0  0  0  0  0  0  0
   37.4880   25.9640   32.9790 C   0  0  0  0  0  0  0  0  0  0  0  0
   37.1910   25.6560   31.6680 C   0  0  0  0  0  0  0  0  0  0  0  0
   36.3650   26.6280   31.2430 N   0  0  0  0  0  0  0  0  0  0  0  0
   36.1240   27.5300   32.2110 C   0  0  0  0  0  0  0  0  0  0  0  0
   35.3500   28.6640   32.2050 C   0  0  0  0  0  0  0  0  0  0  0  0
   35.2570   29.4490   33.3480 C   0  0  0  0  0  0  0  0  0  0  0  0
   35.9780   29.0120   34.4410 C   0  0  0  0  0  0  0  0  0  0  0  0
   36.7690   27.8880   34.5060 C   0  0  0  0  0  0  0  0  0  0  0  0
   36.8290   27.1420   33.3480 C   0  0  0  0  0  0  0  0  0  0  0  0
   40.9030   23.0950   36.4660 N   0  0  0  0  0  0  0  0  0  0  0  0
   40.4820   22.3530   37.5970 C   0  0  0  0  0  0  0  0  0  0  0  0
   39.4970   22.8850   38.2980 N   0  0  0  0  0  0  0  0  0  0  0  0
   41.1840   21.1070   37.8420 N   0  0  0  0  0  0  0  0  0  0  0  0
   39.1220   22.4060   39.1300 H   0  0  0  0  0  0  0  0  0  0  0  0
   41.3002   25.5491   35.3517 H   0  0  0  0  0  0  0  0  0  0  0  0
   38.4686   22.2875   35.5316 H   0  0  0  0  0  0  0  0  0  0  0  0
   37.5546   24.7937   31.0898 H   0  0  0  0  0  0  0  0  0  0  0  0
   35.9665   26.6759   30.2944 H   0  0  0  0  0  0  0  0  0  0  0  0
   34.8031   28.9514   31.2949 H   0  0  0  0  0  0  0  0  0  0  0  0
   34.6459   30.3631   33.3798 H   0  0  0  0  0  0  0  0  0  0  0  0
   35.9137   29.6244   35.3525 H   0  0  0  0  0  0  0  0  0  0  0  0
   37.3151   27.6045   35.4178 H   0  0  0  0  0  0  0  0  0  0  0  0
   41.9124   23.1285   36.2637 H   0  0  0  0  0  0  0  0  0  0  0  0
   40.9259   20.5204   38.6484 H   0  0  0  0  0  0  0  0  0  0  0  0
   41.9404   20.8091   37.2096 H   0  0  0  0  0  0  0  0  0  0  0  0
  1  2  2  0
  2 16  1  0
  3  2  1  0
  4  3  2  0
  5  6  2  0
  5  4  1  0
  6  1  1  0
  7 15  1  0
  7  5  1  0
  8  7  2  0
  9  8  1  0
  9 10  1  0
 10 15  2  0
 11 10  1  0
 11 12  2  0
 12 13  1  0
 13 14  2  0
 15 14  1  0
 16 17  1  0
 17 19  1  0
 17 18  2  0
 18 20  1  0
  1 21  1  0
  3 22  1  0
  8 23  1  0
  9 24  1  0
 11 25  1  0
 12 26  1  0
 13 27  1  0
 14 28  1  0
 16 29  1  0
 19 30  1  0
 19 31  1  0
M  ISO  8  21  14  22  14  23  14  24   9  25  14  26  14  27  14  28  14
M  END
>  <minimizedAffinity>  (1) 
-5.61745453

>  <minimizedRMSD>  (1) 
0.907541871

$$$$
