
     RDKit          3D

 17 17  0  0  0  0  0  0  0  0999 V2000
   39.2140   26.0000   35.2810 C   0  0  0  0  0  0  0  0  0  0  0  0
   39.6430   24.6910   35.5250 C   0  0  0  0  0  0  0  0  0  0  0  0
   40.9710   24.3510   35.2700 C   0  0  0  0  0  0  0  0  0  0  0  0
   41.8010   25.3060   34.7940 N   0  0  0  0  0  0  0  0  0  0  0  0
   41.3530   26.5660   34.5680 C   0  0  0  0  0  0  0  0  0  0  0  0
   40.0730   26.9060   34.8100 N   0  0  0  0  0  0  0  0  0  0  0  0
   38.8440   23.6140   36.0250 C   0  0  0  0  0  0  0  0  0  0  0  0
   37.9190   23.0140   35.4070 O   0  0  0  0  0  0  0  0  0  0  0  0
   38.9210   23.0160   37.2770 O   0  0  0  0  0  0  0  0  0  0  0  0
   38.2680   23.5960   38.4050 C   0  0  0  0  0  0  0  0  0  0  0  0
   37.3060   22.7380   38.9180 F   0  0  0  0  0  0  0  0  0  0  0  0
   37.7590   24.8400   38.0980 F   0  0  0  0  0  0  0  0  0  0  0  0
   39.2240   23.7460   39.3950 F   0  0  0  0  0  0  0  0  0  0  0  0
   42.3010   27.4670   34.0760 O   0  0  0  0  0  0  0  0  0  0  0  0
   38.1691   26.2823   35.4773 H   0  0  0  0  0  0  0  0  0  0  0  0
   41.3350   23.3290   35.4520 H   0  0  0  0  0  0  0  0  0  0  0  0
   42.0426   28.4041   33.8884 H   0  0  0  0  0  0  0  0  0  0  0  0
  1  2  2  0
  2  7  1  0
  3  2  1  0
  4  3  2  0
  5  4  1  0
  5  6  2  0
  6  1  1  0
  7  9  1  0
  8  7  2  0
  9 10  1  0
 10 11  1  0
 10 13  1  0
 12 10  1  0
 14  5  1  0
  1 15  1  0
  3 16  1  0
 14 17  1  0
M  ISO  3  15  14  16  14  17   3
M  END
>  <minimizedAffinity>  (1) 
-4.27306414

>  <minimizedRMSD>  (1) 
0.298120856

$$$$
