
     RDKit          3D

 35 37  0  0  0  0  0  0  0  0999 V2000
   42.7650   26.7720   33.4790 C   0  0  0  0  0  0  0  0  0  0  0  0
   42.4340   27.2890   32.2290 C   0  0  0  0  0  0  0  0  0  0  0  0
   43.3960   28.0580   31.6320 C   0  0  0  0  0  0  0  0  0  0  0  0
   44.6080   28.3020   32.2310 C   0  0  0  0  0  0  0  0  0  0  0  0
   44.9010   27.7730   33.4710 C   0  0  0  0  0  0  0  0  0  0  0  0
   43.9540   27.0250   34.0420 N   0  0  0  0  0  0  0  0  0  0  0  0
   46.1480   28.0110   34.1100 N   0  0  0  0  0  0  0  0  0  0  0  0
   46.7580   27.0670   34.8590 C   0  0  0  0  0  0  0  0  0  0  0  0
   47.9580   27.2650   35.4880 C   0  0  0  0  0  0  0  0  0  0  0  0
   48.5600   28.5080   35.3320 C   0  0  0  0  0  0  0  0  0  0  0  0
   49.6510   28.8650   35.8320 O   0  0  0  0  0  0  0  0  0  0  0  0
   47.9100   29.4070   34.5790 N   0  0  0  0  0  0  0  0  0  0  0  0
   46.7270   29.2360   33.9500 C   0  0  0  0  0  0  0  0  0  0  0  0
   46.1970   30.1370   33.2660 O   0  0  0  0  0  0  0  0  0  0  0  0
   39.6240   25.7780   35.0850 C   0  0  0  0  0  0  0  0  0  0  0  0
   39.8850   24.4660   35.4510 C   0  0  0  0  0  0  0  0  0  0  0  0
   41.1290   23.8910   35.1600 C   0  0  0  0  0  0  0  0  0  0  0  0
   42.0490   24.6490   34.5220 N   0  0  0  0  0  0  0  0  0  0  0  0
   41.7620   25.9280   34.1810 C   0  0  0  0  0  0  0  0  0  0  0  0
   40.5600   26.4950   34.4570 N   0  0  0  0  0  0  0  0  0  0  0  0
   38.9820   23.5880   36.1240 C   0  0  0  0  0  0  0  0  0  0  0  0
   37.9060   23.0980   35.6750 O   0  0  0  0  0  0  0  0  0  0  0  0
   39.0850   23.0770   37.4240 O   0  0  0  0  0  0  0  0  0  0  0  0
   38.3900   23.6880   38.5120 C   0  0  0  0  0  0  0  0  0  0  0  0
   37.3430   22.8850   38.9250 F   0  0  0  0  0  0  0  0  0  0  0  0
   37.9640   24.9670   38.1620 F   0  0  0  0  0  0  0  0  0  0  0  0
   39.2580   23.7960   39.5790 F   0  0  0  0  0  0  0  0  0  0  0  0
   41.4624   27.0921   31.7524 H   0  0  0  0  0  0  0  0  0  0  0  0
   43.1926   28.4938   30.6427 H   0  0  0  0  0  0  0  0  0  0  0  0
   45.3532   28.9262   31.7161 H   0  0  0  0  0  0  0  0  0  0  0  0
   46.2658   26.0895   34.9693 H   0  0  0  0  0  0  0  0  0  0  0  0
   48.4260   26.4734   36.0916 H   0  0  0  0  0  0  0  0  0  0  0  0
   48.3610   30.3264   34.4684 H   0  0  0  0  0  0  0  0  0  0  0  0
   38.6463   26.2282   35.3118 H   0  0  0  0  0  0  0  0  0  0  0  0
   41.3511   22.8514   35.4428 H   0  0  0  0  0  0  0  0  0  0  0  0
  1  6  1  0
  1 19  1  0
  2  1  2  0
  3  2  1  0
  3  4  2  0
  4  5  1  0
  5  6  2  0
  5  7  1  0
  7  8  1  0
  8  9  2  0
 10  9  1  0
 10 11  2  0
 12 10  1  0
 13  7  1  0
 13 12  1  0
 14 13  2  0
 15 16  2  0
 16 21  1  0
 17 16  1  0
 18 17  2  0
 19 20  2  0
 19 18  1  0
 20 15  1  0
 21 23  1  0
 22 21  2  0
 23 24  1  0
 24 25  1  0
 24 27  1  0
 26 24  1  0
  2 28  1  0
  3 29  1  0
  4 30  1  0
  8 31  1  0
  9 32  1  0
 12 33  1  0
 15 34  1  0
 17 35  1  0
M  ISO  8  28  14  29  14  30  14  31  14  32  14  33   9  34  14  35  14
M  END
>  <minimizedAffinity>  (1) 
-5.49127722

>  <minimizedRMSD>  (1) 
0.717556238

$$$$
