
     RDKit          3D

 33 35  0  0  0  0  0  0  0  0999 V2000
   43.0310   26.9150   33.6500 C   0  0  0  0  0  0  0  0  0  0  0  0
   42.7390   27.5200   32.4170 C   0  0  0  0  0  0  0  0  0  0  0  0
   43.7830   28.2510   31.8760 C   0  0  0  0  0  0  0  0  0  0  0  0
   45.0020   28.3700   32.4970 C   0  0  0  0  0  0  0  0  0  0  0  0
   45.2410   27.7590   33.7040 C   0  0  0  0  0  0  0  0  0  0  0  0
   44.2330   27.0490   34.2340 N   0  0  0  0  0  0  0  0  0  0  0  0
   39.7680   26.0170   35.0480 C   0  0  0  0  0  0  0  0  0  0  0  0
   39.9900   24.6960   35.4410 C   0  0  0  0  0  0  0  0  0  0  0  0
   41.2250   24.1010   35.2420 C   0  0  0  0  0  0  0  0  0  0  0  0
   42.1940   24.8380   34.6600 N   0  0  0  0  0  0  0  0  0  0  0  0
   41.9670   26.1220   34.2820 C   0  0  0  0  0  0  0  0  0  0  0  0
   40.7660   26.6920   34.4790 N   0  0  0  0  0  0  0  0  0  0  0  0
   39.0310   23.8350   36.0640 C   0  0  0  0  0  0  0  0  0  0  0  0
   37.9130   23.4530   35.5910 O   0  0  0  0  0  0  0  0  0  0  0  0
   39.0980   23.2230   37.3160 O   0  0  0  0  0  0  0  0  0  0  0  0
   38.4060   23.7810   38.4390 C   0  0  0  0  0  0  0  0  0  0  0  0
   37.3340   22.9730   38.7850 F   0  0  0  0  0  0  0  0  0  0  0  0
   38.0170   25.0800   38.1840 F   0  0  0  0  0  0  0  0  0  0  0  0
   39.2760   23.7810   39.5130 F   0  0  0  0  0  0  0  0  0  0  0  0
   46.4910   27.8150   34.4540 C   0  0  0  0  0  0  0  0  0  0  0  0
   47.3830   28.8630   34.3540 C   0  0  0  0  0  0  0  0  0  0  0  0
   48.5720   28.9510   35.0460 C   0  0  0  0  0  0  0  0  0  0  0  0
   48.8770   27.9230   35.8850 N   0  0  0  0  0  0  0  0  0  0  0  0
   48.0170   26.9050   35.9860 C   0  0  0  0  0  0  0  0  0  0  0  0
   46.8710   26.8520   35.3000 N   0  0  0  0  0  0  0  0  0  0  0  0
   41.7617   27.4214   31.9219 H   0  0  0  0  0  0  0  0  0  0  0  0
   43.6300   28.7562   30.9109 H   0  0  0  0  0  0  0  0  0  0  0  0
   45.7977   28.9624   32.0217 H   0  0  0  0  0  0  0  0  0  0  0  0
   38.7881   26.4915   35.2050 H   0  0  0  0  0  0  0  0  0  0  0  0
   41.4099   23.0609   35.5486 H   0  0  0  0  0  0  0  0  0  0  0  0
   47.1268   29.6879   33.6729 H   0  0  0  0  0  0  0  0  0  0  0  0
   49.2443   29.8133   34.9257 H   0  0  0  0  0  0  0  0  0  0  0  0
   48.2631   26.0741   36.6635 H   0  0  0  0  0  0  0  0  0  0  0  0
  1  6  1  0
  1 11  1  0
  2  1  2  0
  3  2  1  0
  3  4  2  0
  4  5  1  0
  5  6  2  0
  5 20  1  0
  7  8  2  0
  8 13  1  0
  9  8  1  0
 10  9  2  0
 11 12  2  0
 11 10  1  0
 12  7  1  0
 13 15  1  0
 14 13  2  0
 15 16  1  0
 16 17  1  0
 16 19  1  0
 18 16  1  0
 20 25  1  0
 21 20  2  0
 21 22  1  0
 22 23  2  0
 23 24  1  0
 25 24  2  0
  2 26  1  0
  3 27  1  0
  4 28  1  0
  7 29  1  0
  9 30  1  0
 21 31  1  0
 22 32  1  0
 24 33  1  0
M  ISO  8  26  14  27  14  28  14  29  14  30  14  31  14  32  14  33  14
M  END
>  <minimizedAffinity>  (1) 
-4.97644901

>  <minimizedRMSD>  (1) 
0.803018868

$$$$
