
     RDKit          3D

 39 41  0  0  0  0  0  0  0  0999 V2000
   42.5350   26.9010   33.3680 C   0  0  0  0  0  0  0  0  0  0  0  0
   42.0250   27.7340   32.3720 C   0  0  0  0  0  0  0  0  0  0  0  0
   42.9530   28.5070   31.7110 C   0  0  0  0  0  0  0  0  0  0  0  0
   44.2870   28.4440   32.0270 C   0  0  0  0  0  0  0  0  0  0  0  0
   44.7510   27.6070   33.0180 C   0  0  0  0  0  0  0  0  0  0  0  0
   43.8400   26.8620   33.6530 N   0  0  0  0  0  0  0  0  0  0  0  0
   46.1000   27.4620   33.4270 N   0  0  0  0  0  0  0  0  0  0  0  0
   46.5630   26.3380   34.2520 C   0  0  0  0  0  0  0  0  0  0  0  0
   47.3470   26.7940   35.4350 C   0  0  0  0  0  0  0  0  0  0  0  0
   48.2480   27.8840   35.2070 N   0  0  0  0  0  0  0  0  0  0  0  0
   47.6820   28.9400   34.4050 C   0  0  0  0  0  0  0  0  0  0  0  0
   47.1760   28.3770   33.0940 C   0  0  0  0  0  0  0  0  0  0  0  0
   39.5050   25.8400   35.1440 C   0  0  0  0  0  0  0  0  0  0  0  0
   39.8040   24.5110   35.4520 C   0  0  0  0  0  0  0  0  0  0  0  0
   41.0150   23.9660   35.0690 C   0  0  0  0  0  0  0  0  0  0  0  0
   41.8790   24.7570   34.3970 N   0  0  0  0  0  0  0  0  0  0  0  0
   41.5690   26.0490   34.1070 C   0  0  0  0  0  0  0  0  0  0  0  0
   40.3960   26.5770   34.4790 N   0  0  0  0  0  0  0  0  0  0  0  0
   38.9500   23.6120   36.1550 C   0  0  0  0  0  0  0  0  0  0  0  0
   37.8700   23.0750   35.7270 O   0  0  0  0  0  0  0  0  0  0  0  0
   39.1050   23.1260   37.4600 O   0  0  0  0  0  0  0  0  0  0  0  0
   38.3980   23.6950   38.5500 C   0  0  0  0  0  0  0  0  0  0  0  0
   37.3500   22.8780   38.9350 F   0  0  0  0  0  0  0  0  0  0  0  0
   37.9470   24.9700   38.2180 F   0  0  0  0  0  0  0  0  0  0  0  0
   39.2660   23.8080   39.6210 F   0  0  0  0  0  0  0  0  0  0  0  0
   40.9524   27.7708   32.1307 H   0  0  0  0  0  0  0  0  0  0  0  0
   42.6188   29.1880   30.9144 H   0  0  0  0  0  0  0  0  0  0  0  0
   45.0009   29.0752   31.4774 H   0  0  0  0  0  0  0  0  0  0  0  0
   45.6876   25.7724   34.6037 H   0  0  0  0  0  0  0  0  0  0  0  0
   47.2210   25.7119   33.6315 H   0  0  0  0  0  0  0  0  0  0  0  0
   46.6336   27.1037   36.2129 H   0  0  0  0  0  0  0  0  0  0  0  0
   47.9793   25.9401   35.7197 H   0  0  0  0  0  0  0  0  0  0  0  0
   48.5208   28.2777   36.1189 H   0  0  0  0  0  0  0  0  0  0  0  0
   46.8462   29.4036   34.9496 H   0  0  0  0  0  0  0  0  0  0  0  0
   48.4564   29.6939   34.2004 H   0  0  0  0  0  0  0  0  0  0  0  0
   47.9834   27.8410   32.5737 H   0  0  0  0  0  0  0  0  0  0  0  0
   46.8253   29.1775   32.4260 H   0  0  0  0  0  0  0  0  0  0  0  0
   38.5417   26.2758   35.4476 H   0  0  0  0  0  0  0  0  0  0  0  0
   41.2670   22.9214   35.3040 H   0  0  0  0  0  0  0  0  0  0  0  0
  1  6  1  0
  1 17  1  0
  2  1  2  0
  3  4  2  0
  3  2  1  0
  4  5  1  0
  5  7  1  0
  5  6  2  0
  7  8  1  0
  8  9  1  0
 10  9  1  0
 11 10  1  0
 12  7  1  0
 12 11  1  0
 13 14  2  0
 14 19  1  0
 15 14  1  0
 16 15  2  0
 17 16  1  0
 17 18  2  0
 18 13  1  0
 19 21  1  0
 20 19  2  0
 21 22  1  0
 22 23  1  0
 22 25  1  0
 24 22  1  0
  2 26  1  0
  3 27  1  0
  4 28  1  0
  8 29  1  0
  8 30  1  0
  9 31  1  0
  9 32  1  0
 10 33  1  0
 11 34  1  0
 11 35  1  0
 12 36  1  0
 12 37  1  0
 13 38  1  0
 15 39  1  0
M  ISO  8  26  14  27  14  28  14  29  13  30  13  31  13  32  13  33   5
M  ISO  6  34  13  35  13  36  13  37  13  38  14  39  14
M  END
>  <minimizedAffinity>  (1) 
-4.97557878

>  <minimizedRMSD>  (1) 
0.0505549759

$$$$
