
     RDKit          3D

 38 40  0  0  0  0  0  0  0  0999 V2000
   39.5110   25.8390   35.1320 C   0  0  0  0  0  0  0  0  0  0  0  0
   39.7920   24.5220   35.4540 C   0  0  0  0  0  0  0  0  0  0  0  0
   41.0150   23.9680   35.0850 C   0  0  0  0  0  0  0  0  0  0  0  0
   41.9040   24.7370   34.4150 N   0  0  0  0  0  0  0  0  0  0  0  0
   41.5980   26.0220   34.1150 C   0  0  0  0  0  0  0  0  0  0  0  0
   40.4080   26.5700   34.4720 N   0  0  0  0  0  0  0  0  0  0  0  0
   42.5400   26.8850   33.3890 C   0  0  0  0  0  0  0  0  0  0  0  0
   42.0710   27.6490   32.3260 C   0  0  0  0  0  0  0  0  0  0  0  0
   42.9940   28.4310   31.6890 C   0  0  0  0  0  0  0  0  0  0  0  0
   44.3170   28.4570   32.0870 C   0  0  0  0  0  0  0  0  0  0  0  0
   44.7510   27.6910   33.1420 C   0  0  0  0  0  0  0  0  0  0  0  0
   43.8440   26.9290   33.7580 N   0  0  0  0  0  0  0  0  0  0  0  0
   46.1550   27.7130   33.5680 C   0  0  0  0  0  0  0  0  0  0  0  0
   46.6910   29.0670   33.9180 C   0  0  0  0  0  0  0  0  0  0  0  0
   47.9940   28.7060   34.6410 C   0  0  0  0  0  0  0  0  0  0  0  0
   47.8160   27.3010   35.1510 C   0  0  0  0  0  0  0  0  0  0  0  0
   46.3500   26.9720   34.8990 C   0  0  0  0  0  0  0  0  0  0  0  0
   38.9420   23.6180   36.1520 C   0  0  0  0  0  0  0  0  0  0  0  0
   37.8720   23.0790   35.7230 O   0  0  0  0  0  0  0  0  0  0  0  0
   39.0720   23.1180   37.4370 O   0  0  0  0  0  0  0  0  0  0  0  0
   38.3840   23.7030   38.5440 C   0  0  0  0  0  0  0  0  0  0  0  0
   37.3510   22.8730   38.9430 F   0  0  0  0  0  0  0  0  0  0  0  0
   37.9480   24.9700   38.2180 F   0  0  0  0  0  0  0  0  0  0  0  0
   39.2630   23.7980   39.6030 F   0  0  0  0  0  0  0  0  0  0  0  0
   38.5466   26.2819   35.4213 H   0  0  0  0  0  0  0  0  0  0  0  0
   41.2542   22.9235   35.3338 H   0  0  0  0  0  0  0  0  0  0  0  0
   41.0162   27.6255   32.0149 H   0  0  0  0  0  0  0  0  0  0  0  0
   42.6761   29.0539   30.8400 H   0  0  0  0  0  0  0  0  0  0  0  0
   45.0321   29.0993   31.5522 H   0  0  0  0  0  0  0  0  0  0  0  0
   46.6631   27.2753   32.6960 H   0  0  0  0  0  0  0  0  0  0  0  0
   46.8851   29.6670   33.0167 H   0  0  0  0  0  0  0  0  0  0  0  0
   46.0017   29.6796   34.5177 H   0  0  0  0  0  0  0  0  0  0  0  0
   48.8431   28.7537   33.9433 H   0  0  0  0  0  0  0  0  0  0  0  0
   48.2041   29.4069   35.4623 H   0  0  0  0  0  0  0  0  0  0  0  0
   48.4680   26.6053   34.6026 H   0  0  0  0  0  0  0  0  0  0  0  0
   48.0825   27.2109   36.2144 H   0  0  0  0  0  0  0  0  0  0  0  0
   45.6974   27.3694   35.6904 H   0  0  0  0  0  0  0  0  0  0  0  0
   46.1051   25.8998   34.8806 H   0  0  0  0  0  0  0  0  0  0  0  0
  1  2  2  0
  2 18  1  0
  3  2  1  0
  4  3  2  0
  5  4  1  0
  5  6  2  0
  6  1  1  0
  7 12  1  0
  7  5  1  0
  8  7  2  0
  9 10  2  0
  9  8  1  0
 10 11  1  0
 11 13  1  0
 11 12  2  0
 13 14  1  0
 13 17  1  0
 14 15  1  0
 15 16  1  0
 17 16  1  0
 18 20  1  0
 19 18  2  0
 20 21  1  0
 21 22  1  0
 21 24  1  0
 23 21  1  0
  1 25  1  0
  3 26  1  0
  8 27  1  0
  9 28  1  0
 10 29  1  0
 13 30  1  0
 14 31  1  0
 14 32  1  0
 15 33  1  0
 15 34  1  0
 16 35  1  0
 16 36  1  0
 17 37  1  0
 17 38  1  0
M  ISO  8  25  14  26  14  27  14  28  14  29  14  30  13  31  13  32  13
M  ISO  6  33  13  34  13  35  13  36  13  37  13  38  13
M  END
>  <minimizedAffinity>  (1) 
-4.77654886

>  <minimizedRMSD>  (1) 
0.312485784

$$$$
