
     RDKit          3D

 27 28  0  0  0  0  0  0  0  0999 V2000
   39.6950   25.8070   35.0740 C   0  0  0  0  0  0  0  0  0  0  0  0
   39.9480   24.5090   35.4800 C   0  0  0  0  0  0  0  0  0  0  0  0
   41.2000   23.9560   35.2800 C   0  0  0  0  0  0  0  0  0  0  0  0
   42.1420   24.7120   34.6890 N   0  0  0  0  0  0  0  0  0  0  0  0
   41.8760   25.9870   34.2950 C   0  0  0  0  0  0  0  0  0  0  0  0
   40.6510   26.5360   34.4870 N   0  0  0  0  0  0  0  0  0  0  0  0
   42.9030   26.8120   33.6500 C   0  0  0  0  0  0  0  0  0  0  0  0
   42.6070   27.4020   32.4260 C   0  0  0  0  0  0  0  0  0  0  0  0
   43.6080   28.1660   31.8650 C   0  0  0  0  0  0  0  0  0  0  0  0
   44.8270   28.3330   32.4810 C   0  0  0  0  0  0  0  0  0  0  0  0
   45.0750   27.7320   33.6910 C   0  0  0  0  0  0  0  0  0  0  0  0
   44.1080   26.9940   34.2330 N   0  0  0  0  0  0  0  0  0  0  0  0
   46.3690   27.9240   34.3210 C   0  0  0  0  0  0  0  0  0  0  0  0
   46.9450   29.0410   34.3110 O   0  0  0  0  0  0  0  0  0  0  0  0
   39.0130   23.6290   36.1160 C   0  0  0  0  0  0  0  0  0  0  0  0
   37.9320   23.1740   35.6170 O   0  0  0  0  0  0  0  0  0  0  0  0
   39.0680   23.0850   37.3850 O   0  0  0  0  0  0  0  0  0  0  0  0
   38.3930   23.6930   38.4870 C   0  0  0  0  0  0  0  0  0  0  0  0
   37.3380   22.8900   38.8930 F   0  0  0  0  0  0  0  0  0  0  0  0
   37.9650   24.9690   38.1570 F   0  0  0  0  0  0  0  0  0  0  0  0
   39.2570   23.7860   39.5540 F   0  0  0  0  0  0  0  0  0  0  0  0
   38.6984   26.2439   35.2353 H   0  0  0  0  0  0  0  0  0  0  0  0
   41.4192   22.9254   35.5959 H   0  0  0  0  0  0  0  0  0  0  0  0
   41.6321   27.2671   31.9347 H   0  0  0  0  0  0  0  0  0  0  0  0
   43.4270   28.6562   30.8971 H   0  0  0  0  0  0  0  0  0  0  0  0
   45.6038   28.9485   32.0039 H   0  0  0  0  0  0  0  0  0  0  0  0
   46.8563   27.0724   34.8184 H   0  0  0  0  0  0  0  0  0  0  0  0
  1  2  2  0
  2 15  1  0
  3  2  1  0
  4  3  2  0
  5  6  2  0
  5  4  1  0
  6  1  1  0
  7 12  1  0
  7  5  1  0
  8  7  2  0
  9  8  1  0
  9 10  2  0
 10 11  1  0
 11 12  2  0
 11 13  1  0
 14 13  2  0
 15 17  1  0
 16 15  2  0
 17 18  1  0
 18 19  1  0
 18 21  1  0
 20 18  1  0
  1 22  1  0
  3 23  1  0
  8 24  1  0
  9 25  1  0
 10 26  1  0
 13 27  1  0
M  ISO  6  22  14  23  14  24  14  25  14  26  14  27   6
M  END
>  <minimizedAffinity>  (1) 
-4.41327906

>  <minimizedRMSD>  (1) 
0.479551882

$$$$
