
     RDKit          3D

 31 32  0  0  0  0  0  0  0  0999 V2000
   39.5080   25.8380   35.1460 C   0  0  0  0  0  0  0  0  0  0  0  0
   39.8000   24.5260   35.4550 C   0  0  0  0  0  0  0  0  0  0  0  0
   41.0220   23.9830   35.0660 C   0  0  0  0  0  0  0  0  0  0  0  0
   41.8840   24.7750   34.3930 N   0  0  0  0  0  0  0  0  0  0  0  0
   41.5600   26.0720   34.1040 C   0  0  0  0  0  0  0  0  0  0  0  0
   40.3790   26.5970   34.4790 N   0  0  0  0  0  0  0  0  0  0  0  0
   42.5160   26.9130   33.3700 C   0  0  0  0  0  0  0  0  0  0  0  0
   42.0080   27.7140   32.3340 C   0  0  0  0  0  0  0  0  0  0  0  0
   42.9340   28.4850   31.6720 C   0  0  0  0  0  0  0  0  0  0  0  0
   44.2650   28.4680   32.0080 C   0  0  0  0  0  0  0  0  0  0  0  0
   44.7210   27.6670   33.0310 C   0  0  0  0  0  0  0  0  0  0  0  0
   43.8230   26.9220   33.6690 N   0  0  0  0  0  0  0  0  0  0  0  0
   46.1660   27.6390   33.4070 C   0  0  0  0  0  0  0  0  0  0  0  0
   46.6280   28.9550   33.9940 C   0  0  0  0  0  0  0  0  0  0  0  0
   38.9550   23.6120   36.1610 C   0  0  0  0  0  0  0  0  0  0  0  0
   37.8850   23.0590   35.7230 O   0  0  0  0  0  0  0  0  0  0  0  0
   39.0940   23.1300   37.4510 O   0  0  0  0  0  0  0  0  0  0  0  0
   38.3880   23.6970   38.5440 C   0  0  0  0  0  0  0  0  0  0  0  0
   37.3530   22.8690   38.9400 F   0  0  0  0  0  0  0  0  0  0  0  0
   37.9410   24.9660   38.2240 F   0  0  0  0  0  0  0  0  0  0  0  0
   39.2680   23.8040   39.6140 F   0  0  0  0  0  0  0  0  0  0  0  0
   38.5423   26.2650   35.4542 H   0  0  0  0  0  0  0  0  0  0  0  0
   41.2776   22.9391   35.3002 H   0  0  0  0  0  0  0  0  0  0  0  0
   40.9402   27.7238   32.0699 H   0  0  0  0  0  0  0  0  0  0  0  0
   42.5988   29.1341   30.8496 H   0  0  0  0  0  0  0  0  0  0  0  0
   44.9744   29.1007   31.4544 H   0  0  0  0  0  0  0  0  0  0  0  0
   46.3234   26.8442   34.1510 H   0  0  0  0  0  0  0  0  0  0  0  0
   46.7497   27.4525   32.4935 H   0  0  0  0  0  0  0  0  0  0  0  0
   46.6067   28.8943   35.0921 H   0  0  0  0  0  0  0  0  0  0  0  0
   47.6540   29.1662   33.6583 H   0  0  0  0  0  0  0  0  0  0  0  0
   45.9591   29.7612   33.6583 H   0  0  0  0  0  0  0  0  0  0  0  0
  1  2  2  0
  2 15  1  0
  3  2  1  0
  4  3  2  0
  5  4  1  0
  5  6  2  0
  6  1  1  0
  7 12  1  0
  7  5  1  0
  8  7  2  0
  9 10  2  0
  9  8  1  0
 10 11  1  0
 11 13  1  0
 11 12  2  0
 13 14  1  0
 15 17  1  0
 16 15  2  0
 17 18  1  0
 18 19  1  0
 18 21  1  0
 20 18  1  0
  1 22  1  0
  3 23  1  0
  8 24  1  0
  9 25  1  0
 10 26  1  0
 13 27  1  0
 13 28  1  0
 14 29  1  0
 14 30  1  0
 14 31  1  0
M  ISO  8  22  14  23  14  24  14  25  14  26  14  27   8  28   8  29   8
M  ISO  2  30   8  31   8
M  END
>  <minimizedAffinity>  (1) 
-4.39326859

>  <minimizedRMSD>  (1) 
0.125825286

$$$$
