
     RDKit          3D

 26 27  0  0  0  0  0  0  0  0999 V2000
   39.5280   25.8460   35.1230 C   0  0  0  0  0  0  0  0  0  0  0  0
   39.8100   24.5330   35.4510 C   0  0  0  0  0  0  0  0  0  0  0  0
   41.0390   23.9860   35.0880 C   0  0  0  0  0  0  0  0  0  0  0  0
   41.9140   24.7700   34.4230 N   0  0  0  0  0  0  0  0  0  0  0  0
   41.6010   26.0540   34.1180 C   0  0  0  0  0  0  0  0  0  0  0  0
   40.4240   26.5870   34.4650 N   0  0  0  0  0  0  0  0  0  0  0  0
   42.5670   26.9060   33.3910 C   0  0  0  0  0  0  0  0  0  0  0  0
   42.0830   27.7190   32.3770 C   0  0  0  0  0  0  0  0  0  0  0  0
   42.9840   28.5020   31.7120 C   0  0  0  0  0  0  0  0  0  0  0  0
   44.3290   28.4690   32.0520 C   0  0  0  0  0  0  0  0  0  0  0  0
   44.7830   27.6420   33.0730 C   0  0  0  0  0  0  0  0  0  0  0  0
   43.8680   26.8980   33.6930 N   0  0  0  0  0  0  0  0  0  0  0  0
   46.1320   27.6210   33.4010 O   0  0  0  0  0  0  0  0  0  0  0  0
   38.9600   23.6220   36.1480 C   0  0  0  0  0  0  0  0  0  0  0  0
   37.8940   23.0820   35.7130 O   0  0  0  0  0  0  0  0  0  0  0  0
   39.1010   23.1260   37.4450 O   0  0  0  0  0  0  0  0  0  0  0  0
   38.3960   23.7050   38.5320 C   0  0  0  0  0  0  0  0  0  0  0  0
   37.3610   22.8790   38.9280 F   0  0  0  0  0  0  0  0  0  0  0  0
   37.9570   24.9690   38.2090 F   0  0  0  0  0  0  0  0  0  0  0  0
   39.2610   23.8000   39.6050 F   0  0  0  0  0  0  0  0  0  0  0  0
   38.5592   26.2837   35.4057 H   0  0  0  0  0  0  0  0  0  0  0  0
   41.2894   22.9441   35.3364 H   0  0  0  0  0  0  0  0  0  0  0  0
   41.0141   27.7330   32.1178 H   0  0  0  0  0  0  0  0  0  0  0  0
   42.6410   29.1626   30.9021 H   0  0  0  0  0  0  0  0  0  0  0  0
   45.0435   29.1040   31.5078 H   0  0  0  0  0  0  0  0  0  0  0  0
   46.4555   27.0321   34.1281 H   0  0  0  0  0  0  0  0  0  0  0  0
  1  2  2  0
  2 14  1  0
  3  2  1  0
  4  3  2  0
  5  4  1  0
  5  6  2  0
  6  1  1  0
  7 12  1  0
  7  5  1  0
  8  7  2  0
  9 10  2  0
  9  8  1  0
 10 11  1  0
 11 13  1  0
 11 12  2  0
 14 16  1  0
 15 14  2  0
 16 17  1  0
 17 18  1  0
 17 20  1  0
 19 17  1  0
  1 21  1  0
  3 22  1  0
  8 23  1  0
  9 24  1  0
 10 25  1  0
 13 26  1  0
M  ISO  6  21  14  22  14  23  14  24  14  25  14  26   3
M  END
>  <minimizedAffinity>  (1) 
-4.38154125

>  <minimizedRMSD>  (1) 
0.0177759826

$$$$
