
     RDKit          3D

 35 37  0  0  0  0  0  0  0  0999 V2000
   41.8060   25.9890   34.2960 C   0  0  0  0  0  0  0  0  0  0  0  0
   41.3160   27.1910   33.7600 C   0  0  0  0  0  0  0  0  0  0  0  0
   40.0270   27.1030   33.2430 C   0  0  0  0  0  0  0  0  0  0  0  0
   39.3070   25.9320   33.2600 C   0  0  0  0  0  0  0  0  0  0  0  0
   39.8350   24.7970   33.7940 C   0  0  0  0  0  0  0  0  0  0  0  0
   41.0620   24.8700   34.2890 N   0  0  0  0  0  0  0  0  0  0  0  0
   45.2980   26.8960   34.8550 C   0  0  0  0  0  0  0  0  0  0  0  0
   45.6530   26.0660   35.8990 C   0  0  0  0  0  0  0  0  0  0  0  0
   44.7230   25.1880   36.4320 C   0  0  0  0  0  0  0  0  0  0  0  0
   43.4820   25.1770   35.8990 N   0  0  0  0  0  0  0  0  0  0  0  0
   43.1610   26.0190   34.8560 C   0  0  0  0  0  0  0  0  0  0  0  0
   44.0580   26.8600   34.3500 N   0  0  0  0  0  0  0  0  0  0  0  0
   46.9410   26.0020   36.5320 C   0  0  0  0  0  0  0  0  0  0  0  0
   48.0800   26.0390   35.9710 O   0  0  0  0  0  0  0  0  0  0  0  0
   47.2200   25.8860   37.8900 O   0  0  0  0  0  0  0  0  0  0  0  0
   47.6490   24.6400   38.4600 C   0  0  0  0  0  0  0  0  0  0  0  0
   49.0130   24.6410   38.6620 F   0  0  0  0  0  0  0  0  0  0  0  0
   47.2680   23.5910   37.6360 F   0  0  0  0  0  0  0  0  0  0  0  0
   47.0390   24.4820   39.6840 F   0  0  0  0  0  0  0  0  0  0  0  0
   39.0960   23.5620   33.8200 C   0  0  0  0  0  0  0  0  0  0  0  0
   39.4110   22.5600   33.1170 O   0  0  0  0  0  0  0  0  0  0  0  0
   37.9720   23.4780   34.6760 O   0  0  0  0  0  0  0  0  0  0  0  0
   38.2440   23.5180   36.0610 C   0  0  0  0  0  0  0  0  0  0  0  0
   37.5940   24.2730   37.0080 C   0  0  0  0  0  0  0  0  0  0  0  0
   37.9830   24.1900   38.3010 C   0  0  0  0  0  0  0  0  0  0  0  0
   39.0970   23.2730   38.5500 C   0  0  0  0  0  0  0  0  0  0  0  0
   39.4520   22.6160   36.8050 S   0  0  0  0  0  0  0  0  0  0  0  0
   41.9011   28.1224   33.7497 H   0  0  0  0  0  0  0  0  0  0  0  0
   39.5681   28.0019   32.8054 H   0  0  0  0  0  0  0  0  0  0  0  0
   38.2918   25.9122   32.8369 H   0  0  0  0  0  0  0  0  0  0  0  0
   46.0388   27.5921   34.4346 H   0  0  0  0  0  0  0  0  0  0  0  0
   44.9876   24.5197   37.2647 H   0  0  0  0  0  0  0  0  0  0  0  0
   36.7667   24.9373   36.7177 H   0  0  0  0  0  0  0  0  0  0  0  0
   37.4997   24.7668   39.1033 H   0  0  0  0  0  0  0  0  0  0  0  0
   39.5968   23.0290   39.4990 H   0  0  0  0  0  0  0  0  0  0  0  0
  1 11  1  0
  2  1  2  0
  3  4  2  0
  3  2  1  0
  4  5  1  0
  5 20  1  0
  5  6  2  0
  6  1  1  0
  7  8  2  0
  8  9  1  0
  8 13  1  0
 10  9  2  0
 11 10  1  0
 12  7  1  0
 12 11  2  0
 13 15  1  0
 14 13  2  0
 15 16  1  0
 16 17  1  0
 16 19  1  0
 18 16  1  0
 20 22  1  0
 21 20  2  0
 22 23  1  0
 23 27  1  0
 23 24  2  0
 24 25  1  0
 25 26  2  0
 27 26  1  0
  2 28  1  0
  3 29  1  0
  4 30  1  0
  7 31  1  0
  9 32  1  0
 24 33  1  0
 25 34  1  0
 26 35  1  0
M  ISO  8  28  14  29  14  30  14  31  14  32  14  33  14  34  14  35  14
M  END
>  <minimizedAffinity>  (1) 
-5.15855932

>  <minimizedRMSD>  (1) 
8.41959858

$$$$
