
     RDKit          3D

 38 40  0  0  0  0  0  0  0  0999 V2000
   43.7290   25.8970   35.0380 C   0  0  0  0  0  0  0  0  0  0  0  0
   43.8790   26.7700   33.9590 C   0  0  0  0  0  0  0  0  0  0  0  0
   45.1330   27.3590   33.8520 C   0  0  0  0  0  0  0  0  0  0  0  0
   46.1450   27.0960   34.7450 C   0  0  0  0  0  0  0  0  0  0  0  0
   45.9350   26.2310   35.7820 C   0  0  0  0  0  0  0  0  0  0  0  0
   44.7410   25.6610   35.8950 N   0  0  0  0  0  0  0  0  0  0  0  0
   40.1160   25.3620   34.9920 C   0  0  0  0  0  0  0  0  0  0  0  0
   40.0110   24.0800   35.4890 C   0  0  0  0  0  0  0  0  0  0  0  0
   41.1510   23.3630   35.8500 C   0  0  0  0  0  0  0  0  0  0  0  0
   42.3420   23.9810   35.6920 N   0  0  0  0  0  0  0  0  0  0  0  0
   42.4270   25.2470   35.2020 C   0  0  0  0  0  0  0  0  0  0  0  0
   41.3220   25.9210   34.8590 N   0  0  0  0  0  0  0  0  0  0  0  0
   38.7840   23.3430   35.6900 C   0  0  0  0  0  0  0  0  0  0  0  0
   37.8710   23.1430   34.8380 O   0  0  0  0  0  0  0  0  0  0  0  0
   38.3480   22.7060   36.8520 O   0  0  0  0  0  0  0  0  0  0  0  0
   38.1950   23.4280   38.0710 C   0  0  0  0  0  0  0  0  0  0  0  0
   37.2600   22.8160   38.8820 F   0  0  0  0  0  0  0  0  0  0  0  0
   37.8720   24.7360   37.8080 F   0  0  0  0  0  0  0  0  0  0  0  0
   39.4130   23.4050   38.7430 F   0  0  0  0  0  0  0  0  0  0  0  0
   46.9890   25.9360   36.7390 C   0  0  0  0  0  0  0  0  0  0  0  0
   46.8020   26.0080   37.9870 O   0  0  0  0  0  0  0  0  0  0  0  0
   48.2610   25.5600   36.2600 O   0  0  0  0  0  0  0  0  0  0  0  0
   49.3590   26.3760   36.6020 C   0  0  0  0  0  0  0  0  0  0  0  0
   49.2750   27.7670   36.4710 C   0  0  0  0  0  0  0  0  0  0  0  0
   50.3840   28.5210   36.8210 C   0  0  0  0  0  0  0  0  0  0  0  0
   51.5200   27.8880   37.2820 C   0  0  0  0  0  0  0  0  0  0  0  0
   51.6150   26.5210   37.4170 C   0  0  0  0  0  0  0  0  0  0  0  0
   50.5160   25.7640   37.0700 C   0  0  0  0  0  0  0  0  0  0  0  0
   43.0660   26.9760   33.2473 H   0  0  0  0  0  0  0  0  0  0  0  0
   45.3225   28.0592   33.0251 H   0  0  0  0  0  0  0  0  0  0  0  0
   47.1243   27.5822   34.6246 H   0  0  0  0  0  0  0  0  0  0  0  0
   39.2124   25.9208   34.7069 H   0  0  0  0  0  0  0  0  0  0  0  0
   41.0837   22.3390   36.2461 H   0  0  0  0  0  0  0  0  0  0  0  0
   48.3568   28.2471   36.1015 H   0  0  0  0  0  0  0  0  0  0  0  0
   50.3587   29.6171   36.7318 H   0  0  0  0  0  0  0  0  0  0  0  0
   52.3899   28.5038   37.5542 H   0  0  0  0  0  0  0  0  0  0  0  0
   52.5363   26.0489   37.7890 H   0  0  0  0  0  0  0  0  0  0  0  0
   50.5551   24.6687   37.1641 H   0  0  0  0  0  0  0  0  0  0  0  0
  1 11  1  0
  1  6  1  0
  2  1  2  0
  3  2  1  0
  3  4  2  0
  4  5  1  0
  5  6  2  0
  5 20  1  0
  7  8  2  0
  8 13  1  0
  8  9  1  0
 10  9  2  0
 11 10  1  0
 12  7  1  0
 12 11  2  0
 13 15  1  0
 14 13  2  0
 15 16  1  0
 16 19  1  0
 16 17  1  0
 18 16  1  0
 20 21  2  0
 22 23  1  0
 22 20  1  0
 23 28  1  0
 24 23  2  0
 24 25  1  0
 25 26  2  0
 26 27  1  0
 28 27  2  0
  2 29  1  0
  3 30  1  0
  4 31  1  0
  7 32  1  0
  9 33  1  0
 24 34  1  0
 25 35  1  0
 26 36  1  0
 27 37  1  0
 28 38  1  0
M  ISO  8  29  14  30  14  31  14  32  14  33  14  34  14  35  14  36  14
M  ISO  2  37  14  38  14
M  END
>  <minimizedAffinity>  (1) 
-4.99652433

>  <minimizedRMSD>  (1) 
2.27249575

$$$$
