
     RDKit          3D

 27 28  0  0  0  0  0  0  0  0999 V2000
   39.7260   24.8390   35.2270 C   0  0  0  0  0  0  0  0  0  0  0  0
   39.8910   23.4640   35.5020 C   0  0  0  0  0  0  0  0  0  0  0  0
   39.0560   22.6300   34.7860 C   0  0  0  0  0  0  0  0  0  0  0  0
   38.1710   23.1300   33.9060 N   0  0  0  0  0  0  0  0  0  0  0  0
   38.0350   24.4550   33.6610 C   0  0  0  0  0  0  0  0  0  0  0  0
   38.8250   25.2870   34.3360 N   0  0  0  0  0  0  0  0  0  0  0  0
   40.8530   23.0140   36.4380 N   0  0  0  0  0  0  0  0  0  0  0  0
   40.5610   22.2560   37.5840 C   0  0  0  0  0  0  0  0  0  0  0  0
   39.4780   22.6380   38.2400 N   0  0  0  0  0  0  0  0  0  0  0  0
   41.4710   21.1660   37.8960 N   0  0  0  0  0  0  0  0  0  0  0  0
   39.1810   22.1360   39.0890 H   0  0  0  0  0  0  0  0  0  0  0  0
   37.0510   24.9250   32.6890 C   0  0  0  0  0  0  0  0  0  0  0  0
   36.3700   23.9860   31.9420 C   0  0  0  0  0  0  0  0  0  0  0  0
   35.4550   24.4770   31.0410 C   0  0  0  0  0  0  0  0  0  0  0  0
   35.2000   25.8170   30.8610 C   0  0  0  0  0  0  0  0  0  0  0  0
   35.9110   26.7380   31.6380 C   0  0  0  0  0  0  0  0  0  0  0  0
   36.8370   26.2810   32.5520 C   0  0  0  0  0  0  0  0  0  0  0  0
   40.3554   25.5673   35.7593 H   0  0  0  0  0  0  0  0  0  0  0  0
   39.1155   21.5421   34.9374 H   0  0  0  0  0  0  0  0  0  0  0  0
   41.8383   23.2602   36.2663 H   0  0  0  0  0  0  0  0  0  0  0  0
   41.3048   20.5776   38.7249 H   0  0  0  0  0  0  0  0  0  0  0  0
   42.2820   20.9822   37.2882 H   0  0  0  0  0  0  0  0  0  0  0  0
   36.5488   22.9071   32.0604 H   0  0  0  0  0  0  0  0  0  0  0  0
   34.8939   23.7563   30.4281 H   0  0  0  0  0  0  0  0  0  0  0  0
   34.4560   26.1556   30.1249 H   0  0  0  0  0  0  0  0  0  0  0  0
   35.7329   27.8172   31.5209 H   0  0  0  0  0  0  0  0  0  0  0  0
   37.4026   26.9946   33.1692 H   0  0  0  0  0  0  0  0  0  0  0  0
  1  2  2  0
  2  7  1  0
  3  2  1  0
  4  3  2  0
  5  4  1  0
  5  6  2  0
  6  1  1  0
  7  8  1  0
  8 10  1  0
  8  9  2  0
  9 11  1  0
 12  5  1  0
 13 12  2  0
 14 13  1  0
 15 14  2  0
 15 16  1  0
 16 17  2  0
 17 12  1  0
  1 18  1  0
  3 19  1  0
  7 20  1  0
 10 21  1  0
 10 22  1  0
 13 23  1  0
 14 24  1  0
 15 25  1  0
 16 26  1  0
 17 27  1  0
M  ISO  7  18  14  19  14  23  14  24  14  25  14  26  14  27  14
M  END
>  <minimizedAffinity>  (1) 
-5.00849295

>  <minimizedRMSD>  (1) 
0.761603177

$$$$
