
     RDKit          3D

 35 37  0  0  0  0  0  0  0  0999 V2000
   43.5640   26.1700   34.3040 C   0  0  0  0  0  0  0  0  0  0  0  0
   43.4250   27.1410   33.3150 C   0  0  0  0  0  0  0  0  0  0  0  0
   44.6020   27.7610   32.9450 C   0  0  0  0  0  0  0  0  0  0  0  0
   45.8150   27.4420   33.5130 C   0  0  0  0  0  0  0  0  0  0  0  0
   45.8860   26.4720   34.4860 C   0  0  0  0  0  0  0  0  0  0  0  0
   44.7550   25.8820   34.8350 N   0  0  0  0  0  0  0  0  0  0  0  0
   40.0290   25.4800   34.9730 C   0  0  0  0  0  0  0  0  0  0  0  0
   40.0840   24.2250   35.5320 C   0  0  0  0  0  0  0  0  0  0  0  0
   41.3050   23.5850   35.6950 C   0  0  0  0  0  0  0  0  0  0  0  0
   42.4190   24.2300   35.2910 N   0  0  0  0  0  0  0  0  0  0  0  0
   42.3460   25.4720   34.7410 C   0  0  0  0  0  0  0  0  0  0  0  0
   41.1610   26.0870   34.5850 N   0  0  0  0  0  0  0  0  0  0  0  0
   38.9650   23.4530   35.9920 C   0  0  0  0  0  0  0  0  0  0  0  0
   37.8950   23.1800   35.3460 O   0  0  0  0  0  0  0  0  0  0  0  0
   38.7840   22.8330   37.2240 O   0  0  0  0  0  0  0  0  0  0  0  0
   38.2780   23.5450   38.3590 C   0  0  0  0  0  0  0  0  0  0  0  0
   37.2480   22.8480   38.9470 F   0  0  0  0  0  0  0  0  0  0  0  0
   37.8710   24.8190   37.9740 F   0  0  0  0  0  0  0  0  0  0  0  0
   39.2880   23.6650   39.2910 F   0  0  0  0  0  0  0  0  0  0  0  0
   47.1490   26.1180   35.0990 C   0  0  0  0  0  0  0  0  0  0  0  0
   47.9600   25.3320   34.5730 O   0  0  0  0  0  0  0  0  0  0  0  0
   47.4850   26.6740   36.3310 O   0  0  0  0  0  0  0  0  0  0  0  0
   47.2580   25.9060   37.4660 C   0  0  0  0  0  0  0  0  0  0  0  0
   46.0700   26.0280   38.1980 C   0  0  0  0  0  0  0  0  0  0  0  0
   46.1960   25.1280   39.2350 C   0  0  0  0  0  0  0  0  0  0  0  0
   47.3940   24.4940   39.1390 N   0  0  0  0  0  0  0  0  0  0  0  0
   48.0210   24.9670   38.0770 N   0  0  0  0  0  0  0  0  0  0  0  0
   42.4540   27.3940   32.8642 H   0  0  0  0  0  0  0  0  0  0  0  0
   44.5693   28.5386   32.1676 H   0  0  0  0  0  0  0  0  0  0  0  0
   46.7279   27.9630   33.1886 H   0  0  0  0  0  0  0  0  0  0  0  0
   39.0602   25.9848   34.8443 H   0  0  0  0  0  0  0  0  0  0  0  0
   41.3626   22.5810   36.1407 H   0  0  0  0  0  0  0  0  0  0  0  0
   45.2213   26.6963   37.9907 H   0  0  0  0  0  0  0  0  0  0  0  0
   45.4439   24.9509   40.0180 H   0  0  0  0  0  0  0  0  0  0  0  0
   47.7504   23.7719   39.7812 H   0  0  0  0  0  0  0  0  0  0  0  0
  1 11  1  0
  1  6  1  0
  2  1  2  0
  3  2  1  0
  3  4  2  0
  4  5  1  0
  5  6  2  0
  5 20  1  0
  7  8  2  0
  8  9  1  0
  8 13  1  0
 10  9  2  0
 11 10  1  0
 12 11  2  0
 12  7  1  0
 13 15  1  0
 14 13  2  0
 15 16  1  0
 16 17  1  0
 16 19  1  0
 18 16  1  0
 20 22  1  0
 21 20  2  0
 22 23  1  0
 23 27  2  0
 23 24  1  0
 24 25  2  0
 26 25  1  0
 27 26  1  0
  2 28  1  0
  3 29  1  0
  4 30  1  0
  7 31  1  0
  9 32  1  0
 24 33  1  0
 25 34  1  0
 26 35  1  0
M  ISO  8  28  14  29  14  30  14  31  14  32  14  33  14  34  14  35   9
M  END
>  <minimizedAffinity>  (1) 
-4.96284962

>  <minimizedRMSD>  (1) 
2.75842333

$$$$
