
     RDKit          3D

 37 38  0  0  0  0  0  0  0  0999 V2000
   40.3340   25.1470   35.0110 C   0  0  0  0  0  0  0  0  0  0  0  0
   40.0570   23.9020   35.5500 C   0  0  0  0  0  0  0  0  0  0  0  0
   41.0920   23.1160   36.0630 C   0  0  0  0  0  0  0  0  0  0  0  0
   42.3450   23.6100   36.0130 N   0  0  0  0  0  0  0  0  0  0  0  0
   42.5900   24.8340   35.4790 C   0  0  0  0  0  0  0  0  0  0  0  0
   41.5940   25.5970   34.9820 N   0  0  0  0  0  0  0  0  0  0  0  0
   43.9630   25.3740   35.4250 C   0  0  0  0  0  0  0  0  0  0  0  0
   44.4360   25.8010   34.1860 C   0  0  0  0  0  0  0  0  0  0  0  0
   45.7340   26.2970   34.2060 C   0  0  0  0  0  0  0  0  0  0  0  0
   46.4900   26.3610   35.3650 C   0  0  0  0  0  0  0  0  0  0  0  0
   45.9600   25.9230   36.5510 C   0  0  0  0  0  0  0  0  0  0  0  0
   44.7280   25.4540   36.5210 N   0  0  0  0  0  0  0  0  0  0  0  0
   46.7330   25.9800   37.7780 C   0  0  0  0  0  0  0  0  0  0  0  0
   46.1710   26.0700   38.9080 O   0  0  0  0  0  0  0  0  0  0  0  0
   48.1370   25.9320   37.6780 O   0  0  0  0  0  0  0  0  0  0  0  0
   48.8050   24.6850   37.6320 C   0  0  0  0  0  0  0  0  0  0  0  0
   48.8500   23.9950   38.9550 C   0  0  0  0  0  0  0  0  0  0  0  0
   50.2260   24.9900   37.2080 C   0  0  0  0  0  0  0  0  0  0  0  0
   38.7690   23.2830   35.6540 C   0  0  0  0  0  0  0  0  0  0  0  0
   37.8930   23.1830   34.7360 O   0  0  0  0  0  0  0  0  0  0  0  0
   38.2000   22.6620   36.7630 O   0  0  0  0  0  0  0  0  0  0  0  0
   38.0200   23.3620   37.9870 C   0  0  0  0  0  0  0  0  0  0  0  0
   37.0610   22.7520   38.7750 F   0  0  0  0  0  0  0  0  0  0  0  0
   37.6790   24.6820   37.7330 F   0  0  0  0  0  0  0  0  0  0  0  0
   39.2170   23.3630   38.6800 F   0  0  0  0  0  0  0  0  0  0  0  0
   39.5191   25.7656   34.6070 H   0  0  0  0  0  0  0  0  0  0  0  0
   40.8904   22.1244   36.4944 H   0  0  0  0  0  0  0  0  0  0  0  0
   43.8321   25.7498   33.2680 H   0  0  0  0  0  0  0  0  0  0  0  0
   46.1785   26.6527   33.2647 H   0  0  0  0  0  0  0  0  0  0  0  0
   47.5136   26.7625   35.3338 H   0  0  0  0  0  0  0  0  0  0  0  0
   48.2690   24.0158   36.9429 H   0  0  0  0  0  0  0  0  0  0  0  0
   48.8012   24.7427   39.7603 H   0  0  0  0  0  0  0  0  0  0  0  0
   47.9947   23.3085   39.0398 H   0  0  0  0  0  0  0  0  0  0  0  0
   49.7872   23.4254   39.0398 H   0  0  0  0  0  0  0  0  0  0  0  0
   50.8541   25.1248   38.1009 H   0  0  0  0  0  0  0  0  0  0  0  0
   50.6166   24.1552   36.6075 H   0  0  0  0  0  0  0  0  0  0  0  0
   50.2397   25.9115   36.6075 H   0  0  0  0  0  0  0  0  0  0  0  0
  1  2  2  0
  2 19  1  0
  2  3  1  0
  4  3  2  0
  5  4  1  0
  6  1  1  0
  6  5  2  0
  7  5  1  0
  7 12  2  0
  8  9  2  0
  8  7  1  0
  9 10  1  0
 10 11  2  0
 11 13  1  0
 12 11  1  0
 13 14  2  0
 15 13  1  0
 16 15  1  0
 16 17  1  0
 18 16  1  0
 19 21  1  0
 20 19  2  0
 21 22  1  0
 22 25  1  0
 22 23  1  0
 24 22  1  0
  1 26  1  0
  3 27  1  0
  8 28  1  0
  9 29  1  0
 10 30  1  0
 16 31  1  0
 17 32  1  0
 17 33  1  0
 17 34  1  0
 18 35  1  0
 18 36  1  0
 18 37  1  0
M  ISO  8  26  14  27  14  28  14  29  14  30  14  31   8  32   8  33   8
M  ISO  4  34   8  35   8  36   8  37   8
M  END
>  <minimizedAffinity>  (1) 
-4.70172071

>  <minimizedRMSD>  (1) 
3.13816929

$$$$
