
     RDKit          3D

 27 28  0  0  0  0  0  0  0  0999 V2000
   39.5710   24.8880   35.3860 C   0  0  0  0  0  0  0  0  0  0  0  0
   39.8820   23.5160   35.5160 C   0  0  0  0  0  0  0  0  0  0  0  0
   39.1830   22.7000   34.6490 C   0  0  0  0  0  0  0  0  0  0  0  0
   38.2930   23.2040   33.7730 N   0  0  0  0  0  0  0  0  0  0  0  0
   38.0260   24.5280   33.6820 C   0  0  0  0  0  0  0  0  0  0  0  0
   38.6870   25.3400   34.5100 N   0  0  0  0  0  0  0  0  0  0  0  0
   37.0530   25.0140   32.7120 C   0  0  0  0  0  0  0  0  0  0  0  0
   36.8530   26.3590   32.5600 C   0  0  0  0  0  0  0  0  0  0  0  0
   35.9210   26.7330   31.6290 C   0  0  0  0  0  0  0  0  0  0  0  0
   35.2190   25.8360   30.8810 C   0  0  0  0  0  0  0  0  0  0  0  0
   35.4130   24.4730   31.0260 C   0  0  0  0  0  0  0  0  0  0  0  0
   36.3520   24.1040   31.9650 C   0  0  0  0  0  0  0  0  0  0  0  0
   40.8290   23.0470   36.4460 N   0  0  0  0  0  0  0  0  0  0  0  0
   40.5340   22.2690   37.5790 C   0  0  0  0  0  0  0  0  0  0  0  0
   39.4400   22.6250   38.2280 N   0  0  0  0  0  0  0  0  0  0  0  0
   41.4540   21.1860   37.8850 N   0  0  0  0  0  0  0  0  0  0  0  0
   39.1380   22.1200   39.0730 H   0  0  0  0  0  0  0  0  0  0  0  0
   40.0839   25.6097   36.0388 H   0  0  0  0  0  0  0  0  0  0  0  0
   39.3569   21.6141   34.6743 H   0  0  0  0  0  0  0  0  0  0  0  0
   37.4102   27.0992   33.1530 H   0  0  0  0  0  0  0  0  0  0  0  0
   35.7304   27.8058   31.4782 H   0  0  0  0  0  0  0  0  0  0  0  0
   34.4845   26.2017   30.1484 H   0  0  0  0  0  0  0  0  0  0  0  0
   34.8553   23.7342   30.4318 H   0  0  0  0  0  0  0  0  0  0  0  0
   36.5471   23.0328   32.1215 H   0  0  0  0  0  0  0  0  0  0  0  0
   41.8158   23.2933   36.2835 H   0  0  0  0  0  0  0  0  0  0  0  0
   41.2866   20.5839   38.7037 H   0  0  0  0  0  0  0  0  0  0  0  0
   42.2733   21.0207   37.2831 H   0  0  0  0  0  0  0  0  0  0  0  0
  1  2  2  0
  2 13  1  0
  3  2  1  0
  4  3  2  0
  5  4  1  0
  5  6  2  0
  6  1  1  0
  7  5  1  0
  8  7  2  0
  9  8  1  0
 10 11  1  0
 10  9  2  0
 11 12  2  0
 12  7  1  0
 13 14  1  0
 14 16  1  0
 14 15  2  0
 15 17  1  0
  1 18  1  0
  3 19  1  0
  8 20  1  0
  9 21  1  0
 10 22  1  0
 11 23  1  0
 12 24  1  0
 13 25  1  0
 16 26  1  0
 16 27  1  0
M  ISO  7  18  14  19  14  20  14  21  14  22  14  23  14  24  14
M  END
>  <minimizedAffinity>  (1) 
-5.00640678

>  <minimizedRMSD>  (1) 
0.488594562

$$$$
