
     RDKit          3D

 30 32  0  0  0  0  0  0  0  0999 V2000
   40.7210   25.2780   34.9510 N   0  0  0  0  0  0  0  0  0  0  0  0
   41.8650   25.7740   34.4640 C   0  0  0  0  0  0  0  0  0  0  0  0
   42.8750   24.8910   34.7740 C   0  0  0  0  0  0  0  0  0  0  0  0
   42.3130   23.8620   35.4560 N   0  0  0  0  0  0  0  0  0  0  0  0
   40.9910   24.1120   35.5570 C   0  0  0  0  0  0  0  0  0  0  0  0
   40.0520   23.2400   36.2070 N   0  0  0  0  0  0  0  0  0  0  0  0
   39.0770   22.5490   35.4090 C   0  0  0  0  0  0  0  0  0  0  0  0
   37.7100   22.4470   35.9500 C   0  0  0  0  0  0  0  0  0  0  0  0
   37.4060   23.1870   37.2020 C   0  0  0  0  0  0  0  0  0  0  0  0
   38.5740   23.5990   38.0170 C   0  0  0  0  0  0  0  0  0  0  0  0
   39.8610   22.8950   37.6100 C   0  0  0  0  0  0  0  0  0  0  0  0
   39.0630   26.8680   35.7640 C   0  0  0  0  0  0  0  0  0  0  0  0
   39.4660   25.8900   34.8400 C   0  0  0  0  0  0  0  0  0  0  0  0
   38.5700   25.5530   33.8260 C   0  0  0  0  0  0  0  0  0  0  0  0
   37.3740   26.1960   33.8050 N   0  0  0  0  0  0  0  0  0  0  0  0
   37.0180   27.1280   34.7060 C   0  0  0  0  0  0  0  0  0  0  0  0
   37.8830   27.4680   35.7040 N   0  0  0  0  0  0  0  0  0  0  0  0
   41.9782   26.7196   33.9136 H   0  0  0  0  0  0  0  0  0  0  0  0
   43.9389   24.9998   34.5166 H   0  0  0  0  0  0  0  0  0  0  0  0
   39.3404   22.1138   34.4337 H   0  0  0  0  0  0  0  0  0  0  0  0
   36.9414   21.8439   35.4444 H   0  0  0  0  0  0  0  0  0  0  0  0
   36.8499   24.0958   36.9285 H   0  0  0  0  0  0  0  0  0  0  0  0
   36.8408   22.4834   37.8309 H   0  0  0  0  0  0  0  0  0  0  0  0
   38.7164   24.6837   37.9024 H   0  0  0  0  0  0  0  0  0  0  0  0
   38.3622   23.3208   39.0599 H   0  0  0  0  0  0  0  0  0  0  0  0
   39.7608   21.8062   37.7303 H   0  0  0  0  0  0  0  0  0  0  0  0
   40.7149   23.2031   38.2313 H   0  0  0  0  0  0  0  0  0  0  0  0
   39.7559   27.1476   36.5713 H   0  0  0  0  0  0  0  0  0  0  0  0
   38.8227   24.7942   33.0708 H   0  0  0  0  0  0  0  0  0  0  0  0
   36.0336   27.6141   34.6386 H   0  0  0  0  0  0  0  0  0  0  0  0
  1  5  1  0
  2  3  2  0
  2  1  1  0
  3  4  1  0
  4  5  2  0
  5  6  1  0
  6 11  1  0
  7  8  2  0
  7  6  1  0
  8  9  1  0
  9 10  1  0
 11 10  1  0
 13  1  1  0
 13 12  2  0
 14 13  1  0
 15 14  2  0
 15 16  1  0
 16 17  2  0
 17 12  1  0
  2 18  1  0
  3 19  1  0
  7 20  1  0
  8 21  1  0
  9 22  1  0
  9 23  1  0
 10 24  1  0
 10 25  1  0
 11 26  1  0
 11 27  1  0
 12 28  1  0
 14 29  1  0
 16 30  1  0
M  ISO  8  18  14  19  14  20  13  21  13  22  13  23  13  24  13  25  13
M  ISO  5  26  13  27  13  28  14  29  14  30  14
M  END
>  <minimizedAffinity>  (1) 
-4.56655312

>  <minimizedRMSD>  (1) 
4.84624243

$$$$
