
     RDKit          3D

 24 25  0  0  0  0  0  0  0  0999 V2000
   39.4960   25.0760   35.3380 C   0  0  0  0  0  0  0  0  0  0  0  0
   39.7140   23.6870   35.4740 C   0  0  0  0  0  0  0  0  0  0  0  0
   38.9530   22.9100   34.6140 C   0  0  0  0  0  0  0  0  0  0  0  0
   38.0940   23.4810   33.7430 N   0  0  0  0  0  0  0  0  0  0  0  0
   37.9250   24.8130   33.6540 C   0  0  0  0  0  0  0  0  0  0  0  0
   38.6440   25.5960   34.4700 N   0  0  0  0  0  0  0  0  0  0  0  0
   36.9630   25.1580   32.6580 N   0  0  0  0  0  0  0  0  0  0  0  0
   36.3880   26.2490   32.2040 N   0  0  0  0  0  0  0  0  0  0  0  0
   35.5280   25.9360   31.2160 C   0  0  0  0  0  0  0  0  0  0  0  0
   35.5560   24.5560   31.0230 C   0  0  0  0  0  0  0  0  0  0  0  0
   36.4850   24.1030   31.9660 C   0  0  0  0  0  0  0  0  0  0  0  0
   40.6310   23.1350   36.4080 N   0  0  0  0  0  0  0  0  0  0  0  0
   40.2690   22.3940   37.5530 C   0  0  0  0  0  0  0  0  0  0  0  0
   39.1980   22.8250   38.1940 N   0  0  0  0  0  0  0  0  0  0  0  0
   41.1180   21.2680   37.8650 N   0  0  0  0  0  0  0  0  0  0  0  0
   38.8640   22.3410   39.0430 H   0  0  0  0  0  0  0  0  0  0  0  0
   40.0633   25.7597   35.9866 H   0  0  0  0  0  0  0  0  0  0  0  0
   39.0504   21.8147   34.6418 H   0  0  0  0  0  0  0  0  0  0  0  0
   34.9072   26.6502   30.6551 H   0  0  0  0  0  0  0  0  0  0  0  0
   34.9813   23.9612   30.2978 H   0  0  0  0  0  0  0  0  0  0  0  0
   36.7788   23.0540   32.1188 H   0  0  0  0  0  0  0  0  0  0  0  0
   41.6352   23.2870   36.2366 H   0  0  0  0  0  0  0  0  0  0  0  0
   40.9142   20.6815   38.6868 H   0  0  0  0  0  0  0  0  0  0  0  0
   41.9272   21.0515   37.2657 H   0  0  0  0  0  0  0  0  0  0  0  0
  1  2  2  0
  2 12  1  0
  3  2  1  0
  4  3  2  0
  5  4  1  0
  5  6  2  0
  6  1  1  0
  7  5  1  0
  8  7  1  0
  9  8  2  0
 10  9  1  0
 10 11  2  0
 11  7  1  0
 12 13  1  0
 13 15  1  0
 13 14  2  0
 14 16  1  0
  1 17  1  0
  3 18  1  0
  9 19  1  0
 10 20  1  0
 11 21  1  0
 12 22  1  0
 15 23  1  0
 15 24  1  0
M  ISO  5  17  14  18  14  19  14  20  14  21  14
M  END
>  <minimizedAffinity>  (1) 
-4.92159224

>  <minimizedRMSD>  (1) 
0.324092209

$$$$
