
     RDKit          3D

 30 33  0  0  0  0  0  0  0  0999 V2000
   40.1500   24.0580   34.8070 C   0  0  0  0  0  0  0  0  0  0  0  0
   39.9070   22.7280   35.1750 C   0  0  0  0  0  0  0  0  0  0  0  0
   38.7810   22.0900   34.6910 C   0  0  0  0  0  0  0  0  0  0  0  0
   37.9520   22.7820   33.8730 N   0  0  0  0  0  0  0  0  0  0  0  0
   38.1960   24.0640   33.5220 C   0  0  0  0  0  0  0  0  0  0  0  0
   39.3040   24.6950   33.9980 N   0  0  0  0  0  0  0  0  0  0  0  0
   37.3500   24.8240   32.6670 N   0  0  0  0  0  0  0  0  0  0  0  0
   36.8670   24.4130   31.4830 C   0  0  0  0  0  0  0  0  0  0  0  0
   36.1160   25.4130   30.9910 N   0  0  0  0  0  0  0  0  0  0  0  0
   36.1160   26.4680   31.8580 C   0  0  0  0  0  0  0  0  0  0  0  0
   35.5390   27.7210   31.8780 C   0  0  0  0  0  0  0  0  0  0  0  0
   35.7670   28.5330   32.9450 N   0  0  0  0  0  0  0  0  0  0  0  0
   36.5410   28.1510   33.9860 C   0  0  0  0  0  0  0  0  0  0  0  0
   37.0970   26.9210   33.9490 N   0  0  0  0  0  0  0  0  0  0  0  0
   36.9170   26.0700   32.9340 C   0  0  0  0  0  0  0  0  0  0  0  0
   40.8150   22.0640   36.0350 N   0  0  0  0  0  0  0  0  0  0  0  0
   41.9400   21.4160   35.6110 C   0  0  0  0  0  0  0  0  0  0  0  0
   42.5470   20.9060   36.7520 C   0  0  0  0  0  0  0  0  0  0  0  0
   41.8010   21.2430   37.8170 N   0  0  0  0  0  0  0  0  0  0  0  0
   40.7260   21.9620   37.3720 C   0  0  0  0  0  0  0  0  0  0  0  0
   39.6540   22.5370   38.1200 N   0  0  0  0  0  0  0  0  0  0  0  0
   41.0418   24.5779   35.1870 H   0  0  0  0  0  0  0  0  0  0  0  0
   38.5632   21.0466   34.9630 H   0  0  0  0  0  0  0  0  0  0  0  0
   37.0517   23.4395   31.0052 H   0  0  0  0  0  0  0  0  0  0  0  0
   34.9049   28.0578   31.0446 H   0  0  0  0  0  0  0  0  0  0  0  0
   36.7129   28.8236   34.8393 H   0  0  0  0  0  0  0  0  0  0  0  0
   42.2944   21.3176   34.5743 H   0  0  0  0  0  0  0  0  0  0  0  0
   43.4805   20.3247   36.7787 H   0  0  0  0  0  0  0  0  0  0  0  0
   39.6271   22.4333   39.1444 H   0  0  0  0  0  0  0  0  0  0  0  0
   38.9077   23.0554   37.6351 H   0  0  0  0  0  0  0  0  0  0  0  0
  1  2  2  0
  2 16  1  0
  3  2  1  0
  4  3  2  0
  5  4  1  0
  5  6  2  0
  6  1  1  0
  7 15  1  0
  7  5  1  0
  8  7  1  0
  9  8  2  0
  9 10  1  0
 10 11  2  0
 10 15  1  0
 11 12  1  0
 12 13  2  0
 14 13  1  0
 15 14  2  0
 16 20  1  0
 17 16  1  0
 17 18  2  0
 18 19  1  0
 20 19  2  0
 20 21  1  0
  1 22  1  0
  3 23  1  0
  8 24  1  0
 11 25  1  0
 13 26  1  0
 17 27  1  0
 18 28  1  0
 21 29  1  0
 21 30  1  0
M  ISO  7  22  14  23  14  24  14  25  14  26  14  27  14  28  14
M  END
>  <minimizedAffinity>  (1) 
-5.39843464

>  <minimizedRMSD>  (1) 
2.74594331

$$$$
