
     RDKit          3D

 32 34  0  0  0  0  0  0  0  0999 V2000
   40.0920   25.0300   35.4780 C   0  0  0  0  0  0  0  0  0  0  0  0
   39.7530   23.6850   35.4590 C   0  0  0  0  0  0  0  0  0  0  0  0
   38.5690   23.2700   34.8340 C   0  0  0  0  0  0  0  0  0  0  0  0
   37.8040   24.2430   34.2710 N   0  0  0  0  0  0  0  0  0  0  0  0
   38.1370   25.5420   34.2930 C   0  0  0  0  0  0  0  0  0  0  0  0
   39.2850   25.9290   34.9010 N   0  0  0  0  0  0  0  0  0  0  0  0
   40.6030   22.7240   36.0690 N   0  0  0  0  0  0  0  0  0  0  0  0
   41.6450   22.1180   35.4390 C   0  0  0  0  0  0  0  0  0  0  0  0
   42.2130   21.2600   36.3630 C   0  0  0  0  0  0  0  0  0  0  0  0
   41.5200   21.3600   37.5120 N   0  0  0  0  0  0  0  0  0  0  0  0
   40.5170   22.2680   37.3370 C   0  0  0  0  0  0  0  0  0  0  0  0
   39.5220   22.7150   38.2570 N   0  0  0  0  0  0  0  0  0  0  0  0
   37.2590   26.5260   33.6640 C   0  0  0  0  0  0  0  0  0  0  0  0
   36.7630   27.6030   34.5830 C   0  0  0  0  0  0  0  0  0  0  0  0
   36.1630   28.6060   33.6140 C   0  0  0  0  0  0  0  0  0  0  0  0
   36.8120   28.3260   32.2590 C   0  0  0  0  0  0  0  0  0  0  0  0
   37.9510   27.3490   32.5790 C   0  0  0  0  0  0  0  0  0  0  0  0
   41.0219   25.3572   35.9661 H   0  0  0  0  0  0  0  0  0  0  0  0
   38.2737   22.2109   34.8007 H   0  0  0  0  0  0  0  0  0  0  0  0
   41.9711   22.2785   34.4008 H   0  0  0  0  0  0  0  0  0  0  0  0
   43.0817   20.6081   36.1886 H   0  0  0  0  0  0  0  0  0  0  0  0
   39.4985   22.3361   39.2145 H   0  0  0  0  0  0  0  0  0  0  0  0
   38.8273   23.4166   37.9636 H   0  0  0  0  0  0  0  0  0  0  0  0
   36.4528   25.8760   33.2931 H   0  0  0  0  0  0  0  0  0  0  0  0
   36.0023   27.2154   35.2766 H   0  0  0  0  0  0  0  0  0  0  0  0
   37.5474   28.0280   35.2265 H   0  0  0  0  0  0  0  0  0  0  0  0
   35.0732   28.4708   33.5506 H   0  0  0  0  0  0  0  0  0  0  0  0
   36.3458   29.6401   33.9413 H   0  0  0  0  0  0  0  0  0  0  0  0
   37.2063   29.2528   31.8168 H   0  0  0  0  0  0  0  0  0  0  0  0
   36.0993   27.9159   31.5283 H   0  0  0  0  0  0  0  0  0  0  0  0
   38.2259   26.7359   31.7081 H   0  0  0  0  0  0  0  0  0  0  0  0
   38.9047   27.8124   32.8716 H   0  0  0  0  0  0  0  0  0  0  0  0
  2  1  2  0
  2  7  1  0
  3  2  1  0
  4  5  1  0
  4  3  2  0
  5  6  2  0
  6  1  1  0
  7 11  1  0
  8  7  1  0
  8  9  2  0
  9 10  1  0
 11 10  2  0
 11 12  1  0
 13  5  1  0
 13 14  1  0
 15 14  1  0
 16 17  1  0
 16 15  1  0
 17 13  1  0
  1 18  1  0
  3 19  1  0
  8 20  1  0
  9 21  1  0
 12 22  1  0
 12 23  1  0
 13 24  1  0
 14 25  1  0
 14 26  1  0
 15 27  1  0
 15 28  1  0
 16 29  1  0
 16 30  1  0
 17 31  1  0
 17 32  1  0
M  ISO  8  18  14  19  14  20  14  21  14  24  13  25  13  26  13  27  13
M  ISO  5  28  13  29  13  30  13  31  13  32  13
M  END
>  <minimizedAffinity>  (1) 
-4.67214537

>  <minimizedRMSD>  (1) 
3.47439861

$$$$
