
     RDKit          3D

 24 25  0  0  0  0  0  0  0  0999 V2000
   39.2970   25.0400   35.3640 C   0  0  0  0  0  0  0  0  0  0  0  0
   39.6300   23.6720   35.4680 C   0  0  0  0  0  0  0  0  0  0  0  0
   38.9770   22.8560   34.5470 C   0  0  0  0  0  0  0  0  0  0  0  0
   38.1080   23.3700   33.6500 N   0  0  0  0  0  0  0  0  0  0  0  0
   37.8210   24.6920   33.5900 C   0  0  0  0  0  0  0  0  0  0  0  0
   38.4270   25.4980   34.4560 N   0  0  0  0  0  0  0  0  0  0  0  0
   36.8810   25.0190   32.5710 N   0  0  0  0  0  0  0  0  0  0  0  0
   36.7120   26.3590   32.3880 C   0  0  0  0  0  0  0  0  0  0  0  0
   35.7800   26.5310   31.3780 C   0  0  0  0  0  0  0  0  0  0  0  0
   35.4070   25.2990   30.9730 N   0  0  0  0  0  0  0  0  0  0  0  0
   36.0770   24.3800   31.7000 C   0  0  0  0  0  0  0  0  0  0  0  0
   40.5450   23.1710   36.4110 N   0  0  0  0  0  0  0  0  0  0  0  0
   40.2170   22.3990   37.5410 C   0  0  0  0  0  0  0  0  0  0  0  0
   39.1150   22.7810   38.1630 N   0  0  0  0  0  0  0  0  0  0  0  0
   41.1070   21.3150   37.8640 N   0  0  0  0  0  0  0  0  0  0  0  0
   38.7930   22.2870   39.0100 H   0  0  0  0  0  0  0  0  0  0  0  0
   39.7694   25.7549   36.0538 H   0  0  0  0  0  0  0  0  0  0  0  0
   39.1727   21.7735   34.5504 H   0  0  0  0  0  0  0  0  0  0  0  0
   37.2236   27.1595   32.9425 H   0  0  0  0  0  0  0  0  0  0  0  0
   35.4136   27.4894   30.9815 H   0  0  0  0  0  0  0  0  0  0  0  0
   35.9819   23.2889   31.5978 H   0  0  0  0  0  0  0  0  0  0  0  0
   41.5408   23.3877   36.2618 H   0  0  0  0  0  0  0  0  0  0  0  0
   40.9154   20.7172   38.6806 H   0  0  0  0  0  0  0  0  0  0  0  0
   41.9355   21.1370   37.2785 H   0  0  0  0  0  0  0  0  0  0  0  0
  1  2  2  0
  2 12  1  0
  3  2  1  0
  4  3  2  0
  5  4  1  0
  5  6  2  0
  6  1  1  0
  7  5  1  0
  8  7  1  0
  9  8  2  0
 10  9  1  0
 10 11  2  0
 11  7  1  0
 12 13  1  0
 13 15  1  0
 13 14  2  0
 14 16  1  0
  1 17  1  0
  3 18  1  0
  8 19  1  0
  9 20  1  0
 11 21  1  0
 12 22  1  0
 15 23  1  0
 15 24  1  0
M  ISO  5  17  14  18  14  19  14  20  14  21  14
M  END
>  <minimizedAffinity>  (1) 
-4.84987688

>  <minimizedRMSD>  (1) 
0.311393529

$$$$
