
     RDKit          3D

 26 28  0  0  0  0  0  0  0  0999 V2000
   39.7510   24.2270   34.7880 C   0  0  0  0  0  0  0  0  0  0  0  0
   39.6460   22.8750   35.0630 C   0  0  0  0  0  0  0  0  0  0  0  0
   38.6230   22.1340   34.4790 C   0  0  0  0  0  0  0  0  0  0  0  0
   37.7740   22.8050   33.6570 N   0  0  0  0  0  0  0  0  0  0  0  0
   37.8840   24.1120   33.3970 C   0  0  0  0  0  0  0  0  0  0  0  0
   38.8850   24.8280   33.9710 N   0  0  0  0  0  0  0  0  0  0  0  0
   40.5670   22.2450   35.9300 N   0  0  0  0  0  0  0  0  0  0  0  0
   41.7230   21.6540   35.5470 C   0  0  0  0  0  0  0  0  0  0  0  0
   42.3290   21.1620   36.6740 C   0  0  0  0  0  0  0  0  0  0  0  0
   41.5500   21.4530   37.7260 N   0  0  0  0  0  0  0  0  0  0  0  0
   40.4460   22.1280   37.2750 C   0  0  0  0  0  0  0  0  0  0  0  0
   39.3320   22.6480   38.0120 N   0  0  0  0  0  0  0  0  0  0  0  0
   36.9310   24.7580   32.5010 C   0  0  0  0  0  0  0  0  0  0  0  0
   36.7840   26.1190   32.3240 C   0  0  0  0  0  0  0  0  0  0  0  0
   35.7880   26.2760   31.4050 N   0  0  0  0  0  0  0  0  0  0  0  0
   35.3760   25.0250   31.0650 C   0  0  0  0  0  0  0  0  0  0  0  0
   36.0720   24.0610   31.7350 N   0  0  0  0  0  0  0  0  0  0  0  0
   40.5592   24.8137   35.2492 H   0  0  0  0  0  0  0  0  0  0  0  0
   38.5072   21.0575   34.6733 H   0  0  0  0  0  0  0  0  0  0  0  0
   42.1064   21.5817   34.5185 H   0  0  0  0  0  0  0  0  0  0  0  0
   43.2871   20.6227   36.7092 H   0  0  0  0  0  0  0  0  0  0  0  0
   39.2910   22.5306   39.0345 H   0  0  0  0  0  0  0  0  0  0  0  0
   38.5725   23.1390   37.5191 H   0  0  0  0  0  0  0  0  0  0  0  0
   37.3547   26.9160   32.8231 H   0  0  0  0  0  0  0  0  0  0  0  0
   34.5779   24.8155   30.3376 H   0  0  0  0  0  0  0  0  0  0  0  0
   35.9648   23.0387   31.6696 H   0  0  0  0  0  0  0  0  0  0  0  0
  1  2  2  0
  2  7  1  0
  3  2  1  0
  4  3  2  0
  5  4  1  0
  5  6  2  0
  6  1  1  0
  7 11  1  0
  8  7  1  0
  8  9  2  0
  9 10  1  0
 11 10  2  0
 11 12  1  0
 13  5  1  0
 14 13  2  0
 15 14  1  0
 16 15  2  0
 16 17  1  0
 17 13  1  0
  1 18  1  0
  3 19  1  0
  8 20  1  0
  9 21  1  0
 12 22  1  0
 12 23  1  0
 14 24  1  0
 16 25  1  0
 17 26  1  0
M  ISO  7  18  14  19  14  20  14  21  14  24  14  25  14  26   9
M  END
>  <minimizedAffinity>  (1) 
-4.39138365

>  <minimizedRMSD>  (1) 
2.12599349

$$$$
