
     RDKit          3D

 20 21  0  0  0  0  0  0  0  0999 V2000
   39.0530   22.7410   36.0310 N   0  0  0  0  0  0  0  0  0  0  0  0
   40.2600   22.1290   36.1690 C   0  0  0  0  0  0  0  0  0  0  0  0
   40.6060   22.2700   37.5060 C   0  0  0  0  0  0  0  0  0  0  0  0
   39.6190   22.9510   38.1300 N   0  0  0  0  0  0  0  0  0  0  0  0
   38.6500   23.2450   37.2160 C   0  0  0  0  0  0  0  0  0  0  0  0
   37.4200   23.9460   37.3900 N   0  0  0  0  0  0  0  0  0  0  0  0
   38.4610   23.9240   33.9820 C   0  0  0  0  0  0  0  0  0  0  0  0
   38.3460   22.8210   34.8130 C   0  0  0  0  0  0  0  0  0  0  0  0
   37.5060   21.7780   34.4130 C   0  0  0  0  0  0  0  0  0  0  0  0
   36.8540   21.9170   33.2300 N   0  0  0  0  0  0  0  0  0  0  0  0
   36.9820   22.9950   32.4430 C   0  0  0  0  0  0  0  0  0  0  0  0
   37.7990   23.9990   32.8400 N   0  0  0  0  0  0  0  0  0  0  0  0
   36.2080   22.8820   31.2940 O   0  0  0  0  0  0  0  0  0  0  0  0
   40.8421   21.6259   35.3829 H   0  0  0  0  0  0  0  0  0  0  0  0
   41.5256   21.8923   37.9769 H   0  0  0  0  0  0  0  0  0  0  0  0
   37.1616   24.3101   38.3182 H   0  0  0  0  0  0  0  0  0  0  0  0
   36.7902   24.0881   36.5875 H   0  0  0  0  0  0  0  0  0  0  0  0
   39.1174   24.7553   34.2790 H   0  0  0  0  0  0  0  0  0  0  0  0
   37.3779   20.8785   35.0331 H   0  0  0  0  0  0  0  0  0  0  0  0
   35.6563   22.0734   31.1464 H   0  0  0  0  0  0  0  0  0  0  0  0
  1  2  1  0
  1  5  1  0
  2  3  2  0
  3  4  1  0
  5  6  1  0
  5  4  2  0
  7  8  2  0
  8  1  1  0
  9  8  1  0
 10  9  2  0
 11 12  2  0
 11 10  1  0
 12  7  1  0
 13 11  1  0
  2 14  1  0
  3 15  1  0
  6 16  1  0
  6 17  1  0
  7 18  1  0
  9 19  1  0
 13 20  1  0
M  ISO  5  14  14  15  14  18  14  19  14  20   3
M  END
>  <minimizedAffinity>  (1) 
-3.61869454

>  <minimizedRMSD>  (1) 
0.0186388474

$$$$
