
     RDKit          3D

 34 36  0  0  0  0  0  0  0  0999 V2000
   39.1590   22.9090   35.1660 C   0  0  0  0  0  0  0  0  0  0  0  0
   40.4470   22.6620   34.6860 C   0  0  0  0  0  0  0  0  0  0  0  0
   40.6220   21.8130   33.6060 C   0  0  0  0  0  0  0  0  0  0  0  0
   39.5000   21.2600   33.0700 N   0  0  0  0  0  0  0  0  0  0  0  0
   38.2590   21.5030   33.5380 C   0  0  0  0  0  0  0  0  0  0  0  0
   38.0980   22.3350   34.5950 N   0  0  0  0  0  0  0  0  0  0  0  0
   37.1600   20.8660   32.8950 N   0  0  0  0  0  0  0  0  0  0  0  0
   37.4180   19.7680   32.0150 C   0  0  0  0  0  0  0  0  0  0  0  0
   36.2680   18.7930   32.0930 C   0  0  0  0  0  0  0  0  0  0  0  0
   34.9330   19.4090   31.8470 C   0  0  0  0  0  0  0  0  0  0  0  0
   34.7710   20.8170   32.2940 C   0  0  0  0  0  0  0  0  0  0  0  0
   35.8450   21.3620   33.1660 C   0  0  0  0  0  0  0  0  0  0  0  0
   41.5650   23.2780   35.3010 N   0  0  0  0  0  0  0  0  0  0  0  0
   42.1430   24.4270   34.8660 C   0  0  0  0  0  0  0  0  0  0  0  0
   43.1900   24.7020   35.7120 C   0  0  0  0  0  0  0  0  0  0  0  0
   43.2400   23.7260   36.6490 N   0  0  0  0  0  0  0  0  0  0  0  0
   42.2250   22.8450   36.3820 C   0  0  0  0  0  0  0  0  0  0  0  0
   41.8640   21.6490   37.0860 N   0  0  0  0  0  0  0  0  0  0  0  0
   39.0175   23.5835   36.0234 H   0  0  0  0  0  0  0  0  0  0  0  0
   41.6211   21.5958   33.2004 H   0  0  0  0  0  0  0  0  0  0  0  0
   38.3487   19.2650   32.3163 H   0  0  0  0  0  0  0  0  0  0  0  0
   37.5232   20.1359   30.9837 H   0  0  0  0  0  0  0  0  0  0  0  0
   36.4298   18.0064   31.3412 H   0  0  0  0  0  0  0  0  0  0  0  0
   36.2528   18.4003   33.1204 H   0  0  0  0  0  0  0  0  0  0  0  0
   34.7418   19.3759   30.7642 H   0  0  0  0  0  0  0  0  0  0  0  0
   34.2219   18.8240   32.4487 H   0  0  0  0  0  0  0  0  0  0  0  0
   34.7166   21.4491   31.3954 H   0  0  0  0  0  0  0  0  0  0  0  0
   33.8612   20.8243   32.9122 H   0  0  0  0  0  0  0  0  0  0  0  0
   35.5958   21.1140   34.2083 H   0  0  0  0  0  0  0  0  0  0  0  0
   35.8797   22.4435   32.9681 H   0  0  0  0  0  0  0  0  0  0  0  0
   41.8311   25.0262   33.9978 H   0  0  0  0  0  0  0  0  0  0  0  0
   43.8690   25.5645   35.6406 H   0  0  0  0  0  0  0  0  0  0  0  0
   42.4027   21.3561   37.9136 H   0  0  0  0  0  0  0  0  0  0  0  0
   41.0660   21.0829   36.7641 H   0  0  0  0  0  0  0  0  0  0  0  0
  2  1  2  0
  2 13  1  0
  3  2  1  0
  4  5  1  0
  4  3  2  0
  5  6  2  0
  6  1  1  0
  7 12  1  0
  7  5  1  0
  8  9  1  0
  8  7  1  0
 10  9  1  0
 10 11  1  0
 11 12  1  0
 13 17  1  0
 14 13  1  0
 14 15  2  0
 15 16  1  0
 17 16  2  0
 17 18  1  0
  1 19  1  0
  3 20  1  0
  8 21  1  0
  8 22  1  0
  9 23  1  0
  9 24  1  0
 10 25  1  0
 10 26  1  0
 11 27  1  0
 11 28  1  0
 12 29  1  0
 12 30  1  0
 14 31  1  0
 15 32  1  0
 18 33  1  0
 18 34  1  0
M  ISO  8  19  14  20  14  21  13  22  13  23  13  24  13  25  13  26  13
M  ISO  6  27  13  28  13  29  13  30  13  31  14  32  14
M  END
>  <minimizedAffinity>  (1) 
-4.00038481

>  <minimizedRMSD>  (1) 
3.58520961

$$$$
