
     RDKit          3D

 22 23  0  0  0  0  0  0  0  0999 V2000
   38.5510   24.5830   34.2630 C   0  0  0  0  0  0  0  0  0  0  0  0
   38.5010   23.3020   34.8260 C   0  0  0  0  0  0  0  0  0  0  0  0
   37.7850   22.3260   34.1560 C   0  0  0  0  0  0  0  0  0  0  0  0
   37.1700   22.6520   32.9950 N   0  0  0  0  0  0  0  0  0  0  0  0
   37.2300   23.8920   32.4680 C   0  0  0  0  0  0  0  0  0  0  0  0
   37.9290   24.8560   33.1160 N   0  0  0  0  0  0  0  0  0  0  0  0
   39.1620   23.0230   36.0400 N   0  0  0  0  0  0  0  0  0  0  0  0
   40.3410   22.3750   36.1330 C   0  0  0  0  0  0  0  0  0  0  0  0
   40.6400   22.3080   37.4870 C   0  0  0  0  0  0  0  0  0  0  0  0
   39.6390   22.9140   38.1720 N   0  0  0  0  0  0  0  0  0  0  0  0
   38.7280   23.3540   37.2700 C   0  0  0  0  0  0  0  0  0  0  0  0
   37.5010   24.0550   37.5170 N   0  0  0  0  0  0  0  0  0  0  0  0
   36.5800   24.2770   31.2200 C   0  0  0  0  0  0  0  0  0  0  0  0
   35.3500   24.1110   31.0060 O   0  0  0  0  0  0  0  0  0  0  0  0
   37.2890   24.8560   30.1760 O   0  0  0  0  0  0  0  0  0  0  0  0
   39.1130   25.3775   34.7758 H   0  0  0  0  0  0  0  0  0  0  0  0
   37.7168   21.3047   34.5590 H   0  0  0  0  0  0  0  0  0  0  0  0
   40.9445   21.9791   35.3029 H   0  0  0  0  0  0  0  0  0  0  0  0
   41.5344   21.8436   37.9279 H   0  0  0  0  0  0  0  0  0  0  0  0
   37.2221   24.2805   38.4825 H   0  0  0  0  0  0  0  0  0  0  0  0
   36.8990   24.3329   36.7288 H   0  0  0  0  0  0  0  0  0  0  0  0
   36.8221   25.1074   29.3400 H   0  0  0  0  0  0  0  0  0  0  0  0
  1  2  2  0
  2  7  1  0
  3  2  1  0
  4  3  2  0
  5  4  1  0
  5  6  2  0
  6  1  1  0
  7  8  1  0
  7 11  1  0
  8  9  2  0
  9 10  1  0
 11 12  1  0
 11 10  2  0
 13  5  1  0
 14 13  2  0
 15 13  1  0
  1 16  1  0
  3 17  1  0
  8 18  1  0
  9 19  1  0
 12 20  1  0
 12 21  1  0
 15 22  1  0
M  ISO  5  16  14  17  14  18  14  19  14  22   3
M  END
>  <minimizedAffinity>  (1) 
-4.0946002

>  <minimizedRMSD>  (1) 
0.803616941

$$$$
