
     RDKit          3D

 33 35  0  0  0  0  0  0  0  0999 V2000
   37.1800   21.8200   35.0730 C   0  0  0  0  0  0  0  0  0  0  0  0
   36.1480   20.9430   35.3580 C   0  0  0  0  0  0  0  0  0  0  0  0
   35.5710   20.5870   34.1450 C   0  0  0  0  0  0  0  0  0  0  0  0
   36.2640   21.2530   33.1800 N   0  0  0  0  0  0  0  0  0  0  0  0
   37.2290   21.9920   33.7370 N   0  0  0  0  0  0  0  0  0  0  0  0
   39.9630   22.6560   37.3190 C   0  0  0  0  0  0  0  0  0  0  0  0
   39.3150   23.3550   38.3570 C   0  0  0  0  0  0  0  0  0  0  0  0
   37.9200   23.5290   38.2670 C   0  0  0  0  0  0  0  0  0  0  0  0
   37.2770   23.0110   37.1810 N   0  0  0  0  0  0  0  0  0  0  0  0
   37.9480   22.3420   36.2010 C   0  0  0  0  0  0  0  0  0  0  0  0
   39.2710   22.1630   36.2630 N   0  0  0  0  0  0  0  0  0  0  0  0
   36.1340   21.2870   31.7360 C   0  0  0  0  0  0  0  0  0  0  0  0
   37.3550   21.8320   31.0790 C   0  0  0  0  0  0  0  0  0  0  0  0
   38.4170   20.8390   30.7740 C   0  0  0  0  0  0  0  0  0  0  0  0
   37.9030   19.4480   30.5100 C   0  0  0  0  0  0  0  0  0  0  0  0
   36.4610   19.5100   30.0130 C   0  0  0  0  0  0  0  0  0  0  0  0
   35.6520   19.9670   31.2120 C   0  0  0  0  0  0  0  0  0  0  0  0
   35.8425   20.5940   36.3554 H   0  0  0  0  0  0  0  0  0  0  0  0
   34.7228   19.9030   33.9941 H   0  0  0  0  0  0  0  0  0  0  0  0
   41.0519   22.5076   37.3667 H   0  0  0  0  0  0  0  0  0  0  0  0
   39.8815   23.7528   39.2119 H   0  0  0  0  0  0  0  0  0  0  0  0
   37.3652   24.0670   39.0498 H   0  0  0  0  0  0  0  0  0  0  0  0
   35.3481   22.0060   31.4615 H   0  0  0  0  0  0  0  0  0  0  0  0
   37.0490   22.3018   30.1326 H   0  0  0  0  0  0  0  0  0  0  0  0
   37.7976   22.5339   31.8011 H   0  0  0  0  0  0  0  0  0  0  0  0
   38.9628   21.1803   29.8820 H   0  0  0  0  0  0  0  0  0  0  0  0
   39.0570   20.7759   31.6664 H   0  0  0  0  0  0  0  0  0  0  0  0
   38.5312   18.9664   29.7462 H   0  0  0  0  0  0  0  0  0  0  0  0
   37.9387   18.8666   31.4431 H   0  0  0  0  0  0  0  0  0  0  0  0
   36.3675   20.2298   29.1864 H   0  0  0  0  0  0  0  0  0  0  0  0
   36.1150   18.5400   29.6265 H   0  0  0  0  0  0  0  0  0  0  0  0
   34.5977   20.0652   30.9141 H   0  0  0  0  0  0  0  0  0  0  0  0
   35.7683   19.2184   32.0095 H   0  0  0  0  0  0  0  0  0  0  0  0
  1  2  1  0
  1 10  1  0
  3  2  2  0
  4  5  1  0
  4  3  1  0
  5  1  2  0
  6  7  2  0
  8  7  1  0
  9  8  2  0
 10 11  2  0
 10  9  1  0
 11  6  1  0
 12  4  1  0
 13 12  1  0
 14 13  1  0
 15 14  1  0
 16 15  1  0
 16 17  1  0
 17 12  1  0
  2 18  1  0
  3 19  1  0
  6 20  1  0
  7 21  1  0
  8 22  1  0
 12 23  1  0
 13 24  1  0
 13 25  1  0
 14 26  1  0
 14 27  1  0
 15 28  1  0
 15 29  1  0
 16 30  1  0
 16 31  1  0
 17 32  1  0
 17 33  1  0
M  ISO  8  18  14  19  14  20  14  21  14  22  14  23  13  24  13  25  13
M  ISO  8  26  13  27  13  28  13  29  13  30  13  31  13  32  13  33  13
M  END
>  <minimizedAffinity>  (1) 
-4.76446199

>  <minimizedRMSD>  (1) 
0.48914215

$$$$
