
     RDKit          3D

 31 34  0  0  0  0  0  0  0  0999 V2000
   36.9520   21.1650   33.3520 C   0  0  0  0  0  0  0  0  0  0  0  0
   35.6050   20.8240   33.4990 C   0  0  0  0  0  0  0  0  0  0  0  0
   35.3280   19.8720   32.5000 C   0  0  0  0  0  0  0  0  0  0  0  0
   36.4930   19.6890   31.8130 N   0  0  0  0  0  0  0  0  0  0  0  0
   37.4600   20.4560   32.3180 N   0  0  0  0  0  0  0  0  0  0  0  0
   36.5940   18.7870   30.7180 C   0  0  0  0  0  0  0  0  0  0  0  0
   36.5310   19.2960   29.4830 N   0  0  0  0  0  0  0  0  0  0  0  0
   36.6170   18.5140   28.3860 C   0  0  0  0  0  0  0  0  0  0  0  0
   36.7710   17.1710   28.5320 N   0  0  0  0  0  0  0  0  0  0  0  0
   36.8370   16.6390   29.7710 C   0  0  0  0  0  0  0  0  0  0  0  0
   36.9930   15.2860   29.9820 C   0  0  0  0  0  0  0  0  0  0  0  0
   37.0600   14.7410   31.2440 C   0  0  0  0  0  0  0  0  0  0  0  0
   36.9700   15.5590   32.3460 C   0  0  0  0  0  0  0  0  0  0  0  0
   36.8110   16.9400   32.2010 C   0  0  0  0  0  0  0  0  0  0  0  0
   36.7520   17.4110   30.8960 C   0  0  0  0  0  0  0  0  0  0  0  0
   38.4990   24.1930   34.7130 C   0  0  0  0  0  0  0  0  0  0  0  0
   38.4450   23.9670   36.1020 C   0  0  0  0  0  0  0  0  0  0  0  0
   37.8720   22.7680   36.5500 C   0  0  0  0  0  0  0  0  0  0  0  0
   37.4090   21.9040   35.6080 N   0  0  0  0  0  0  0  0  0  0  0  0
   37.4730   22.1430   34.2860 C   0  0  0  0  0  0  0  0  0  0  0  0
   38.0140   23.2790   33.8530 N   0  0  0  0  0  0  0  0  0  0  0  0
   34.9016   21.2203   34.2461 H   0  0  0  0  0  0  0  0  0  0  0  0
   34.3651   19.3749   32.3108 H   0  0  0  0  0  0  0  0  0  0  0  0
   36.5629   18.9598   27.3818 H   0  0  0  0  0  0  0  0  0  0  0  0
   37.0666   14.6182   29.1110 H   0  0  0  0  0  0  0  0  0  0  0  0
   37.1850   13.6555   31.3708 H   0  0  0  0  0  0  0  0  0  0  0  0
   37.0238   15.1211   33.3536 H   0  0  0  0  0  0  0  0  0  0  0  0
   36.7371   17.6129   33.0680 H   0  0  0  0  0  0  0  0  0  0  0  0
   38.9411   25.1239   34.3283 H   0  0  0  0  0  0  0  0  0  0  0  0
   38.8398   24.7076   36.8131 H   0  0  0  0  0  0  0  0  0  0  0  0
   37.7999   22.5355   37.6227 H   0  0  0  0  0  0  0  0  0  0  0  0
  1  2  1  0
  1 20  1  0
  3  2  2  0
  4  5  1  0
  4  3  1  0
  5  1  2  0
  6 15  1  0
  6  4  1  0
  7  6  2  0
  8  9  2  0
  8  7  1  0
  9 10  1  0
 10 11  1  0
 10 15  2  0
 11 12  2  0
 12 13  1  0
 14 13  2  0
 15 14  1  0
 16 17  2  0
 17 18  1  0
 19 18  2  0
 20 19  1  0
 21 20  2  0
 21 16  1  0
  2 22  1  0
  3 23  1  0
  8 24  1  0
 11 25  1  0
 12 26  1  0
 13 27  1  0
 14 28  1  0
 16 29  1  0
 17 30  1  0
 18 31  1  0
M  ISO  8  22  14  23  14  24  14  25  14  26  14  27  14  28  14  29  14
M  ISO  2  30  14  31  14
M  END
>  <minimizedAffinity>  (1) 
-4.86701107

>  <minimizedRMSD>  (1) 
2.57667136

$$$$
