
     RDKit          3D

 20 21  0  0  0  0  0  0  0  0999 V2000
   39.1410   22.7780   36.1250 N   0  0  0  0  0  0  0  0  0  0  0  0
   40.3410   22.1400   36.2180 C   0  0  0  0  0  0  0  0  0  0  0  0
   40.7350   22.2150   37.5350 C   0  0  0  0  0  0  0  0  0  0  0  0
   39.7920   22.8830   38.2130 N   0  0  0  0  0  0  0  0  0  0  0  0
   38.8010   23.2330   37.3400 C   0  0  0  0  0  0  0  0  0  0  0  0
   37.5860   23.9550   37.5870 N   0  0  0  0  0  0  0  0  0  0  0  0
   38.4470   24.1080   34.2170 C   0  0  0  0  0  0  0  0  0  0  0  0
   38.3950   22.9220   34.9260 C   0  0  0  0  0  0  0  0  0  0  0  0
   37.6140   21.8800   34.4610 C   0  0  0  0  0  0  0  0  0  0  0  0
   36.9280   22.0830   33.3100 N   0  0  0  0  0  0  0  0  0  0  0  0
   36.9810   23.2350   32.6260 C   0  0  0  0  0  0  0  0  0  0  0  0
   37.7530   24.2600   33.0880 N   0  0  0  0  0  0  0  0  0  0  0  0
   36.0200   23.3810   31.1050 S   0  0  0  0  0  0  0  0  0  0  0  0
   40.8907   21.6567   35.3969 H   0  0  0  0  0  0  0  0  0  0  0  0
   41.6619   21.7992   37.9569 H   0  0  0  0  0  0  0  0  0  0  0  0
   37.3673   24.2851   38.5379 H   0  0  0  0  0  0  0  0  0  0  0  0
   36.9325   24.1433   36.8135 H   0  0  0  0  0  0  0  0  0  0  0  0
   39.0683   24.9363   34.5885 H   0  0  0  0  0  0  0  0  0  0  0  0
   37.5520   20.9250   35.0033 H   0  0  0  0  0  0  0  0  0  0  0  0
   34.7008   23.5814   31.4158 H   0  0  0  0  0  0  0  0  0  0  0  0
  1  2  1  0
  1  5  1  0
  2  3  2  0
  3  4  1  0
  5  6  1  0
  5  4  2  0
  7  8  2  0
  8  1  1  0
  9  8  1  0
 10  9  2  0
 11 12  2  0
 11 10  1  0
 12  7  1  0
 13 11  1  0
  2 14  1  0
  3 15  1  0
  6 16  1  0
  6 17  1  0
  7 18  1  0
  9 19  1  0
 13 20  1  0
M  ISO  5  14  14  15  14  18  14  19  14  20  11
M  END
>  <minimizedAffinity>  (1) 
-3.59145927

>  <minimizedRMSD>  (1) 
0.231652454

$$$$
