
     RDKit          3D

 32 34  0  0  0  0  0  0  0  0999 V2000
   37.2660   21.6750   35.1490 C   0  0  0  0  0  0  0  0  0  0  0  0
   36.0290   21.0800   35.4380 C   0  0  0  0  0  0  0  0  0  0  0  0
   35.5650   20.5320   34.2320 C   0  0  0  0  0  0  0  0  0  0  0  0
   36.5140   20.8130   33.2940 N   0  0  0  0  0  0  0  0  0  0  0  0
   37.5190   21.4900   33.8430 N   0  0  0  0  0  0  0  0  0  0  0  0
   39.8800   22.8000   37.4580 C   0  0  0  0  0  0  0  0  0  0  0  0
   39.1510   23.5430   38.4100 C   0  0  0  0  0  0  0  0  0  0  0  0
   37.7720   23.6430   38.2370 C   0  0  0  0  0  0  0  0  0  0  0  0
   37.2120   23.0220   37.1690 N   0  0  0  0  0  0  0  0  0  0  0  0
   37.9390   22.3130   36.2700 C   0  0  0  0  0  0  0  0  0  0  0  0
   39.2580   22.2000   36.4070 N   0  0  0  0  0  0  0  0  0  0  0  0
   36.9930   19.5190   29.3900 N   0  0  0  0  0  0  0  0  0  0  0  0
   36.5060   18.5360   30.3120 C   0  0  0  0  0  0  0  0  0  0  0  0
   36.7020   18.9350   31.7570 C   0  0  0  0  0  0  0  0  0  0  0  0
   36.3960   20.4080   31.9070 C   0  0  0  0  0  0  0  0  0  0  0  0
   37.2870   21.2330   31.0330 C   0  0  0  0  0  0  0  0  0  0  0  0
   37.9680   20.4120   29.9500 C   0  0  0  0  0  0  0  0  0  0  0  0
   35.5236   21.0491   36.4146 H   0  0  0  0  0  0  0  0  0  0  0  0
   34.6237   19.9850   34.0749 H   0  0  0  0  0  0  0  0  0  0  0  0
   40.9703   22.7040   37.5672 H   0  0  0  0  0  0  0  0  0  0  0  0
   39.6541   24.0270   39.2601 H   0  0  0  0  0  0  0  0  0  0  0  0
   37.1537   24.2107   38.9479 H   0  0  0  0  0  0  0  0  0  0  0  0
   36.1933   20.0781   29.0602 H   0  0  0  0  0  0  0  0  0  0  0  0
   35.4310   18.3881   30.1317 H   0  0  0  0  0  0  0  0  0  0  0  0
   37.0807   17.6132   30.1440 H   0  0  0  0  0  0  0  0  0  0  0  0
   36.0239   18.3505   32.3962 H   0  0  0  0  0  0  0  0  0  0  0  0
   37.7414   18.7388   32.0589 H   0  0  0  0  0  0  0  0  0  0  0  0
   35.3581   20.5774   31.5844 H   0  0  0  0  0  0  0  0  0  0  0  0
   36.6821   22.0164   30.5530 H   0  0  0  0  0  0  0  0  0  0  0  0
   38.0745   21.6613   31.6705 H   0  0  0  0  0  0  0  0  0  0  0  0
   38.7967   19.8342   30.3853 H   0  0  0  0  0  0  0  0  0  0  0  0
   38.3742   21.0719   29.1693 H   0  0  0  0  0  0  0  0  0  0  0  0
  1  2  1  0
  1 10  1  0
  3  2  2  0
  4  5  1  0
  4  3  1  0
  5  1  2  0
  6  7  2  0
  8  7  1  0
  9  8  2  0
 10 11  2  0
 10  9  1  0
 11  6  1  0
 12 17  1  0
 12 13  1  0
 13 14  1  0
 14 15  1  0
 15  4  1  0
 16 15  1  0
 17 16  1  0
  2 18  1  0
  3 19  1  0
  6 20  1  0
  7 21  1  0
  8 22  1  0
 12 23  1  0
 13 24  1  0
 13 25  1  0
 14 26  1  0
 14 27  1  0
 15 28  1  0
 16 29  1  0
 16 30  1  0
 17 31  1  0
 17 32  1  0
M  ISO  8  18  14  19  14  20  14  21  14  22  14  23   5  24  13  25  13
M  ISO  7  26  13  27  13  28  13  29  13  30  13  31  13  32  13
M  END
>  <minimizedAffinity>  (1) 
-4.41605091

>  <minimizedRMSD>  (1) 
0.605347276

$$$$
