
     RDKit          3D

 29 31  0  0  1  0  0  0  0  0999 V2000
   37.2530   21.7120   34.9270 C   0  0  0  0  0  0  0  0  0  0  0  0
   36.0630   21.0320   35.1840 C   0  0  0  0  0  0  0  0  0  0  0  0
   35.5920   20.5840   33.9390 C   0  0  0  0  0  0  0  0  0  0  0  0
   36.4940   21.0020   33.0020 N   0  0  0  0  0  0  0  0  0  0  0  0
   37.4720   21.6690   33.6040 N   0  0  0  0  0  0  0  0  0  0  0  0
   39.8960   22.6830   37.2770 C   0  0  0  0  0  0  0  0  0  0  0  0
   39.1620   23.3420   38.3010 C   0  0  0  0  0  0  0  0  0  0  0  0
   37.7720   23.4320   38.1490 C   0  0  0  0  0  0  0  0  0  0  0  0
   37.1950   22.8940   37.0480 N   0  0  0  0  0  0  0  0  0  0  0  0
   37.9310   22.2730   36.0930 C   0  0  0  0  0  0  0  0  0  0  0  0
   39.2660   22.1620   36.1950 N   0  0  0  0  0  0  0  0  0  0  0  0
   37.7880   20.9790   31.0120 N   0  0  0  0  0  0  0  0  0  0  0  0
   37.8840   20.1110   29.8700 C   0  0  0  0  0  0  0  0  0  0  0  0
   36.5780   19.3520   29.7520 C   0  0  0  0  0  0  0  0  0  0  0  0
   36.1070   19.3620   31.2040 C   0  0  0  0  0  0  0  0  0  0  0  0
   36.4550   20.7890   31.5670 C   0  0  1  0  0  0  0  0  0  0  0  0
   35.5887   20.8776   36.1644 H   0  0  0  0  0  0  0  0  0  0  0  0
   34.6736   20.0075   33.7540 H   0  0  0  0  0  0  0  0  0  0  0  0
   40.9890   22.5946   37.3636 H   0  0  0  0  0  0  0  0  0  0  0  0
   39.6674   23.7661   39.1812 H   0  0  0  0  0  0  0  0  0  0  0  0
   37.1584   23.9323   38.9127 H   0  0  0  0  0  0  0  0  0  0  0  0
   37.9172   21.9597   30.7250 H   0  0  0  0  0  0  0  0  0  0  0  0
   38.0538   20.7066   28.9609 H   0  0  0  0  0  0  0  0  0  0  0  0
   38.7246   19.4116   29.9894 H   0  0  0  0  0  0  0  0  0  0  0  0
   35.8668   19.8708   29.0924 H   0  0  0  0  0  0  0  0  0  0  0  0
   36.6735   18.3484   29.3118 H   0  0  0  0  0  0  0  0  0  0  0  0
   35.0273   19.1687   31.2869 H   0  0  0  0  0  0  0  0  0  0  0  0
   36.5557   18.5914   31.8480 H   0  0  0  0  0  0  0  0  0  0  0  0
   35.7032   21.4919   31.1787 H   0  0  0  0  0  0  0  0  0  0  0  0
  1  2  1  0
  1 10  1  0
  3  2  2  0
  4  5  1  0
  4  3  1  0
  5  1  2  0
  6  7  2  0
  8  7  1  0
  9  8  2  0
 10 11  2  0
 10  9  1  0
 11  6  1  0
 12 16  1  0
 13 12  1  0
 14 13  1  0
 14 15  1  0
 16 15  1  0
 16  4  1  0
  2 17  1  0
  3 18  1  0
  6 19  1  0
  7 20  1  0
  8 21  1  0
 12 22  1  0
 13 23  1  0
 13 24  1  0
 14 25  1  0
 14 26  1  0
 15 27  1  0
 15 28  1  0
 16 29  1  6
M  ISO  8  17  14  18  14  19  14  20  14  21  14  22   5  23  13  24  13
M  ISO  5  25  13  26  13  27  13  28  13  29  13
M  END
>  <minimizedAffinity>  (1) 
-4.521245

>  <minimizedRMSD>  (1) 
0.235305339

$$$$
