
     RDKit          3D

 31 34  0  0  0  0  0  0  0  0999 V2000
   37.3330   21.5530   34.9180 C   0  0  0  0  0  0  0  0  0  0  0  0
   35.9920   21.1790   35.0710 C   0  0  0  0  0  0  0  0  0  0  0  0
   35.6130   20.5600   33.8760 C   0  0  0  0  0  0  0  0  0  0  0  0
   36.7040   20.5840   33.0730 N   0  0  0  0  0  0  0  0  0  0  0  0
   37.7200   21.1720   33.6920 N   0  0  0  0  0  0  0  0  0  0  0  0
   36.7400   20.0500   31.7540 C   0  0  0  0  0  0  0  0  0  0  0  0
   35.8570   19.1520   31.1980 C   0  0  0  0  0  0  0  0  0  0  0  0
   36.1810   18.8550   29.9310 N   0  0  0  0  0  0  0  0  0  0  0  0
   37.2890   19.5590   29.6390 C   0  0  0  0  0  0  0  0  0  0  0  0
   38.0400   19.6280   28.4850 C   0  0  0  0  0  0  0  0  0  0  0  0
   39.1600   20.4240   28.3910 C   0  0  0  0  0  0  0  0  0  0  0  0
   39.5050   21.1560   29.5020 C   0  0  0  0  0  0  0  0  0  0  0  0
   38.7720   21.1130   30.6880 C   0  0  0  0  0  0  0  0  0  0  0  0
   37.6540   20.3090   30.7610 C   0  0  0  0  0  0  0  0  0  0  0  0
   39.8450   22.8240   37.2610 C   0  0  0  0  0  0  0  0  0  0  0  0
   39.0660   23.4940   38.2210 C   0  0  0  0  0  0  0  0  0  0  0  0
   37.6730   23.4980   38.0450 C   0  0  0  0  0  0  0  0  0  0  0  0
   37.1470   22.8560   36.9580 N   0  0  0  0  0  0  0  0  0  0  0  0
   37.9400   22.2230   36.0590 C   0  0  0  0  0  0  0  0  0  0  0  0
   39.2600   22.2120   36.2150 N   0  0  0  0  0  0  0  0  0  0  0  0
   35.3609   21.3405   35.9573 H   0  0  0  0  0  0  0  0  0  0  0  0
   34.6261   20.1378   33.6357 H   0  0  0  0  0  0  0  0  0  0  0  0
   34.9910   18.7294   31.7285 H   0  0  0  0  0  0  0  0  0  0  0  0
   35.6783   18.2119   29.3028 H   0  0  0  0  0  0  0  0  0  0  0  0
   37.7357   19.0297   27.6136 H   0  0  0  0  0  0  0  0  0  0  0  0
   39.7533   20.4719   27.4660 H   0  0  0  0  0  0  0  0  0  0  0  0
   40.3945   21.8014   29.4540 H   0  0  0  0  0  0  0  0  0  0  0  0
   39.0824   21.7139   31.5556 H   0  0  0  0  0  0  0  0  0  0  0  0
   40.9397   22.8000   37.3657 H   0  0  0  0  0  0  0  0  0  0  0  0
   39.5321   23.9978   39.0806 H   0  0  0  0  0  0  0  0  0  0  0  0
   37.0178   24.0073   38.7670 H   0  0  0  0  0  0  0  0  0  0  0  0
  1  2  1  0
  1 19  1  0
  3  2  2  0
  4  5  1  0
  4  3  1  0
  5  1  2  0
  6  4  1  0
  7  6  2  0
  8  7  1  0
  9  8  1  0
  9 14  2  0
 10  9  1  0
 11 10  2  0
 11 12  1  0
 12 13  2  0
 13 14  1  0
 14  6  1  0
 15 16  2  0
 17 16  1  0
 18 17  2  0
 19 20  2  0
 19 18  1  0
 20 15  1  0
  2 21  1  0
  3 22  1  0
  7 23  1  0
  8 24  1  0
 10 25  1  0
 11 26  1  0
 12 27  1  0
 13 28  1  0
 15 29  1  0
 16 30  1  0
 17 31  1  0
M  ISO  8  21  14  22  14  23  14  24   9  25  14  26  14  27  14  28  14
M  ISO  3  29  14  30  14  31  14
M  END
>  <minimizedAffinity>  (1) 
-4.61698008

>  <minimizedRMSD>  (1) 
0.841288507

$$$$
