
     RDKit          3D

 24 26  0  0  0  0  0  0  0  0999 V2000
   37.4590   21.6950   35.0130 C   0  0  0  0  0  0  0  0  0  0  0  0
   36.1420   21.2250   35.1280 C   0  0  0  0  0  0  0  0  0  0  0  0
   35.8130   20.6680   33.8800 C   0  0  0  0  0  0  0  0  0  0  0  0
   36.9220   20.8230   33.0870 N   0  0  0  0  0  0  0  0  0  0  0  0
   37.8860   21.4320   33.7680 N   0  0  0  0  0  0  0  0  0  0  0  0
   39.8410   22.8420   37.5470 C   0  0  0  0  0  0  0  0  0  0  0  0
   39.0130   23.5090   38.4690 C   0  0  0  0  0  0  0  0  0  0  0  0
   37.6450   23.5560   38.2050 C   0  0  0  0  0  0  0  0  0  0  0  0
   37.1730   22.9550   37.0730 N   0  0  0  0  0  0  0  0  0  0  0  0
   38.0090   22.3180   36.2040 C   0  0  0  0  0  0  0  0  0  0  0  0
   39.3150   22.2700   36.4470 N   0  0  0  0  0  0  0  0  0  0  0  0
   36.9330   20.3680   31.7520 C   0  0  0  0  0  0  0  0  0  0  0  0
   35.9910   19.6610   31.0300 C   0  0  0  0  0  0  0  0  0  0  0  0
   36.4980   19.4640   29.7490 C   0  0  0  0  0  0  0  0  0  0  0  0
   37.7400   20.0740   29.7730 C   0  0  0  0  0  0  0  0  0  0  0  0
   37.9670   20.5940   30.9560 O   0  0  0  0  0  0  0  0  0  0  0  0
   35.4963   21.2811   36.0167 H   0  0  0  0  0  0  0  0  0  0  0  0
   34.8581   20.2015   33.5961 H   0  0  0  0  0  0  0  0  0  0  0  0
   40.9250   22.7875   37.7260 H   0  0  0  0  0  0  0  0  0  0  0  0
   39.4326   23.9790   39.3707 H   0  0  0  0  0  0  0  0  0  0  0  0
   36.9584   24.0676   38.8956 H   0  0  0  0  0  0  0  0  0  0  0  0
   35.0148   19.3156   31.4012 H   0  0  0  0  0  0  0  0  0  0  0  0
   36.0196   18.9415   28.9075 H   0  0  0  0  0  0  0  0  0  0  0  0
   38.4366   20.1167   28.9227 H   0  0  0  0  0  0  0  0  0  0  0  0
  1  2  1  0
  1 10  1  0
  3  2  2  0
  4  5  1  0
  4  3  1  0
  5  1  2  0
  6  7  2  0
  8  7  1  0
  9  8  2  0
 10 11  2  0
 10  9  1  0
 11  6  1  0
 12  4  1  0
 13 12  2  0
 14 15  2  0
 14 13  1  0
 15 16  1  0
 16 12  1  0
  2 17  1  0
  3 18  1  0
  6 19  1  0
  7 20  1  0
  8 21  1  0
 13 22  1  0
 14 23  1  0
 15 24  1  0
M  ISO  8  17  14  18  14  19  14  20  14  21  14  22  14  23  14  24  14
M  END
>  <minimizedAffinity>  (1) 
-4.18308687

>  <minimizedRMSD>  (1) 
0.894136846

$$$$
