
     RDKit          3D

 24 25  0  0  0  0  0  0  0  0999 V2000
   39.6720   24.8790   35.3340 C   0  0  0  0  0  0  0  0  0  0  0  0
   39.8420   23.4870   35.5010 C   0  0  0  0  0  0  0  0  0  0  0  0
   39.0460   22.7050   34.6810 C   0  0  0  0  0  0  0  0  0  0  0  0
   38.1860   23.2710   33.8030 N   0  0  0  0  0  0  0  0  0  0  0  0
   38.0520   24.6130   33.6730 C   0  0  0  0  0  0  0  0  0  0  0  0
   38.8010   25.3880   34.4460 N   0  0  0  0  0  0  0  0  0  0  0  0
   40.7580   22.9450   36.4310 N   0  0  0  0  0  0  0  0  0  0  0  0
   40.4180   22.2410   37.5930 C   0  0  0  0  0  0  0  0  0  0  0  0
   39.3680   22.7030   38.2480 N   0  0  0  0  0  0  0  0  0  0  0  0
   41.2560   21.1010   37.9250 N   0  0  0  0  0  0  0  0  0  0  0  0
   39.0390   22.2360   39.1080 H   0  0  0  0  0  0  0  0  0  0  0  0
   37.0700   25.0110   32.6700 C   0  0  0  0  0  0  0  0  0  0  0  0
   36.2960   24.2650   31.8930 C   0  0  0  0  0  0  0  0  0  0  0  0
   35.4210   24.8270   30.9960 C   0  0  0  0  0  0  0  0  0  0  0  0
   35.4400   26.2550   30.9960 C   0  0  0  0  0  0  0  0  0  0  0  0
   36.6700   26.6930   32.2410 S   0  0  0  0  0  0  0  0  0  0  0  0
   40.2704   25.5672   35.9491 H   0  0  0  0  0  0  0  0  0  0  0  0
   39.1137   21.6089   34.7442 H   0  0  0  0  0  0  0  0  0  0  0  0
   41.7608   23.0792   36.2377 H   0  0  0  0  0  0  0  0  0  0  0  0
   41.0565   20.5432   38.7676 H   0  0  0  0  0  0  0  0  0  0  0  0
   42.0494   20.8508   37.3177 H   0  0  0  0  0  0  0  0  0  0  0  0
   36.3564   23.1693   31.9690 H   0  0  0  0  0  0  0  0  0  0  0  0
   34.7675   24.2335   30.3397 H   0  0  0  0  0  0  0  0  0  0  0  0
   34.8389   26.9358   30.3754 H   0  0  0  0  0  0  0  0  0  0  0  0
  1  2  2  0
  2  7  1  0
  3  2  1  0
  4  3  2  0
  5  4  1  0
  5  6  2  0
  6  1  1  0
  7  8  1  0
  8 10  1  0
  8  9  2  0
  9 11  1  0
 12  5  1  0
 13 12  2  0
 14 13  1  0
 15 14  2  0
 15 16  1  0
 16 12  1  0
  1 17  1  0
  3 18  1  0
  7 19  1  0
 10 20  1  0
 10 21  1  0
 13 22  1  0
 14 23  1  0
 15 24  1  0
M  ISO  5  17  14  18  14  22  14  23  14  24  14
M  END
>  <minimizedAffinity>  (1) 
-4.63794518

>  <minimizedRMSD>  (1) 
0.263090044

$$$$
