
     RDKit          3D

 34 36  0  0  0  0  0  0  0  0999 V2000
   37.9920   22.6890   34.6580 C   0  0  0  0  0  0  0  0  0  0  0  0
   37.0800   21.6690   34.4170 C   0  0  0  0  0  0  0  0  0  0  0  0
   36.8590   21.6180   33.0440 C   0  0  0  0  0  0  0  0  0  0  0  0
   37.6360   22.6000   32.5010 N   0  0  0  0  0  0  0  0  0  0  0  0
   38.2960   23.2200   33.4660 N   0  0  0  0  0  0  0  0  0  0  0  0
   39.9180   22.7210   37.7540 C   0  0  0  0  0  0  0  0  0  0  0  0
   39.0130   23.3580   38.6650 C   0  0  0  0  0  0  0  0  0  0  0  0
   37.7620   23.7600   38.1850 C   0  0  0  0  0  0  0  0  0  0  0  0
   37.5090   23.5090   36.8800 N   0  0  0  0  0  0  0  0  0  0  0  0
   38.3680   22.9140   36.0490 C   0  0  0  0  0  0  0  0  0  0  0  0
   39.5760   22.5130   36.4690 N   0  0  0  0  0  0  0  0  0  0  0  0
   37.7140   22.9020   31.0880 C   0  0  0  0  0  0  0  0  0  0  0  0
   37.0360   24.1550   30.8110 N   0  0  0  0  0  0  0  0  0  0  0  0
   35.6190   23.8910   31.0840 C   0  0  0  0  0  0  0  0  0  0  0  0
   34.8120   25.1620   30.9750 C   0  0  0  0  0  0  0  0  0  0  0  0
   35.6460   26.1630   30.3340 N   0  0  0  0  0  0  0  0  0  0  0  0
   36.7310   26.4660   31.2590 C   0  0  0  0  0  0  0  0  0  0  0  0
   37.4590   25.2110   31.6890 C   0  0  0  0  0  0  0  0  0  0  0  0
   36.6166   21.0195   35.1742 H   0  0  0  0  0  0  0  0  0  0  0  0
   36.1935   20.9269   32.5059 H   0  0  0  0  0  0  0  0  0  0  0  0
   40.9070   22.3973   38.1105 H   0  0  0  0  0  0  0  0  0  0  0  0
   39.2950   23.5264   39.7148 H   0  0  0  0  0  0  0  0  0  0  0  0
   37.0236   24.2537   38.8339 H   0  0  0  0  0  0  0  0  0  0  0  0
   38.7698   22.9855   30.7909 H   0  0  0  0  0  0  0  0  0  0  0  0
   37.2294   22.0952   30.5186 H   0  0  0  0  0  0  0  0  0  0  0  0
   35.2406   23.1588   30.3555 H   0  0  0  0  0  0  0  0  0  0  0  0
   35.5221   23.4955   32.1058 H   0  0  0  0  0  0  0  0  0  0  0  0
   33.9109   24.9825   30.3702 H   0  0  0  0  0  0  0  0  0  0  0  0
   34.4977   25.5045   31.9719 H   0  0  0  0  0  0  0  0  0  0  0  0
   36.0263   25.7942   29.4507 H   0  0  0  0  0  0  0  0  0  0  0  0
   37.4444   27.1415   30.7643 H   0  0  0  0  0  0  0  0  0  0  0  0
   36.3002   26.9391   32.1537 H   0  0  0  0  0  0  0  0  0  0  0  0
   37.2011   24.9629   32.7292 H   0  0  0  0  0  0  0  0  0  0  0  0
   38.5485   25.3524   31.6346 H   0  0  0  0  0  0  0  0  0  0  0  0
  1 10  1  0
  2  1  1  0
  3  2  2  0
  4  3  1  0
  4  5  1  0
  5  1  2  0
  6  7  2  0
  8  7  1  0
  9  8  2  0
 10 11  2  0
 10  9  1  0
 11  6  1  0
 12  4  1  0
 13 14  1  0
 13 12  1  0
 13 18  1  0
 15 14  1  0
 16 15  1  0
 16 17  1  0
 17 18  1  0
  2 19  1  0
  3 20  1  0
  6 21  1  0
  7 22  1  0
  8 23  1  0
 12 24  1  0
 12 25  1  0
 14 26  1  0
 14 27  1  0
 15 28  1  0
 15 29  1  0
 16 30  1  0
 17 31  1  0
 17 32  1  0
 18 33  1  0
 18 34  1  0
M  ISO  8  19  14  20  14  21  14  22  14  23  14  24   8  25   8  26  13
M  ISO  8  27  13  28  13  29  13  30   5  31  13  32  13  33  13  34  13
M  END
>  <minimizedAffinity>  (1) 
-4.93808746

>  <minimizedRMSD>  (1) 
1.86636579

$$$$
