
     RDKit          3D

 24 25  0  0  0  0  0  0  0  0999 V2000
   39.4710   25.0040   35.2720 C   0  0  0  0  0  0  0  0  0  0  0  0
   39.7000   23.6010   35.4370 C   0  0  0  0  0  0  0  0  0  0  0  0
   38.9400   22.7780   34.5980 C   0  0  0  0  0  0  0  0  0  0  0  0
   38.0690   23.3240   33.7160 N   0  0  0  0  0  0  0  0  0  0  0  0
   37.8970   24.6430   33.6020 C   0  0  0  0  0  0  0  0  0  0  0  0
   38.5960   25.4690   34.3790 N   0  0  0  0  0  0  0  0  0  0  0  0
   40.6250   23.0930   36.3800 N   0  0  0  0  0  0  0  0  0  0  0  0
   40.2750   22.3690   37.5440 C   0  0  0  0  0  0  0  0  0  0  0  0
   39.1910   22.7860   38.1740 N   0  0  0  0  0  0  0  0  0  0  0  0
   41.1460   21.2670   37.8980 N   0  0  0  0  0  0  0  0  0  0  0  0
   38.8570   22.3110   39.0250 H   0  0  0  0  0  0  0  0  0  0  0  0
   36.9790   25.2940   32.6750 C   0  0  0  0  0  0  0  0  0  0  0  0
   36.7280   26.6280   32.3940 C   0  0  0  0  0  0  0  0  0  0  0  0
   35.7400   26.5840   31.4130 C   0  0  0  0  0  0  0  0  0  0  0  0
   35.4450   25.2470   31.1510 C   0  0  0  0  0  0  0  0  0  0  0  0
   36.2120   24.5040   31.9320 O   0  0  0  0  0  0  0  0  0  0  0  0
   40.0301   25.7162   35.8967 H   0  0  0  0  0  0  0  0  0  0  0  0
   39.0503   21.6850   34.6550 H   0  0  0  0  0  0  0  0  0  0  0  0
   41.6259   23.2627   36.2062 H   0  0  0  0  0  0  0  0  0  0  0  0
   40.9457   20.7005   38.7345 H   0  0  0  0  0  0  0  0  0  0  0  0
   41.9656   21.0500   37.3132 H   0  0  0  0  0  0  0  0  0  0  0  0
   37.1995   27.5153   32.8417 H   0  0  0  0  0  0  0  0  0  0  0  0
   35.2731   27.4543   30.9286 H   0  0  0  0  0  0  0  0  0  0  0  0
   34.7066   24.8761   30.4249 H   0  0  0  0  0  0  0  0  0  0  0  0
  1  2  2  0
  2  7  1  0
  3  2  1  0
  4  3  2  0
  5  4  1  0
  5  6  2  0
  6  1  1  0
  7  8  1  0
  8 10  1  0
  8  9  2  0
  9 11  1  0
 12  5  1  0
 13 12  2  0
 14 13  1  0
 15 14  2  0
 15 16  1  0
 16 12  1  0
  1 17  1  0
  3 18  1  0
  7 19  1  0
 10 20  1  0
 10 21  1  0
 13 22  1  0
 14 23  1  0
 15 24  1  0
M  ISO  5  17  14  18  14  22  14  23  14  24  14
M  END
>  <minimizedAffinity>  (1) 
-4.59617186

>  <minimizedRMSD>  (1) 
0.271450311

$$$$
