
     RDKit          3D

 29 31  0  0  0  0  0  0  0  0999 V2000
   37.1260   21.7800   35.0510 C   0  0  0  0  0  0  0  0  0  0  0  0
   36.0600   20.9560   35.3860 C   0  0  0  0  0  0  0  0  0  0  0  0
   35.4420   20.6040   34.1780 C   0  0  0  0  0  0  0  0  0  0  0  0
   36.1510   21.2220   33.1760 N   0  0  0  0  0  0  0  0  0  0  0  0
   37.1650   21.9270   33.7010 N   0  0  0  0  0  0  0  0  0  0  0  0
   39.9870   22.5960   37.1910 C   0  0  0  0  0  0  0  0  0  0  0  0
   39.3590   23.3000   38.2640 C   0  0  0  0  0  0  0  0  0  0  0  0
   37.9650   23.4730   38.2220 C   0  0  0  0  0  0  0  0  0  0  0  0
   37.3170   22.9530   37.1500 N   0  0  0  0  0  0  0  0  0  0  0  0
   37.9420   22.2900   36.1470 C   0  0  0  0  0  0  0  0  0  0  0  0
   39.2490   22.1150   36.1650 N   0  0  0  0  0  0  0  0  0  0  0  0
   35.8040   21.0880   31.7970 C   0  0  0  0  0  0  0  0  0  0  0  0
   36.2460   19.7950   31.2070 C   0  0  0  0  0  0  0  0  0  0  0  0
   36.4460   18.7300   32.0650 C   0  0  0  0  0  0  0  0  0  0  0  0
   36.8540   17.4970   31.6040 C   0  0  0  0  0  0  0  0  0  0  0  0
   37.0700   17.3260   30.2320 C   0  0  0  0  0  0  0  0  0  0  0  0
   36.8610   18.4180   29.3910 C   0  0  0  0  0  0  0  0  0  0  0  0
   36.4630   19.6030   29.8800 N   0  0  0  0  0  0  0  0  0  0  0  0
   35.7604   20.6422   36.3968 H   0  0  0  0  0  0  0  0  0  0  0  0
   34.5601   19.9580   34.0558 H   0  0  0  0  0  0  0  0  0  0  0  0
   41.0765   22.4445   37.1995 H   0  0  0  0  0  0  0  0  0  0  0  0
   39.9516   23.6965   39.1017 H   0  0  0  0  0  0  0  0  0  0  0  0
   37.4256   24.0044   39.0199 H   0  0  0  0  0  0  0  0  0  0  0  0
   34.7105   21.1604   31.7025 H   0  0  0  0  0  0  0  0  0  0  0  0
   36.3186   21.8914   31.2496 H   0  0  0  0  0  0  0  0  0  0  0  0
   36.2753   18.8701   33.1426 H   0  0  0  0  0  0  0  0  0  0  0  0
   37.0073   16.6614   32.3027 H   0  0  0  0  0  0  0  0  0  0  0  0
   37.3959   16.3561   29.8280 H   0  0  0  0  0  0  0  0  0  0  0  0
   37.0249   18.3067   28.3090 H   0  0  0  0  0  0  0  0  0  0  0  0
  1  2  1  0
  1 10  1  0
  3  2  2  0
  4  5  1  0
  4  3  1  0
  5  1  2  0
  6  7  2  0
  8  7  1  0
  9  8  2  0
 10 11  2  0
 10  9  1  0
 11  6  1  0
 12  4  1  0
 13 12  1  0
 13 14  2  0
 15 14  1  0
 16 15  2  0
 17 18  2  0
 17 16  1  0
 18 13  1  0
  2 19  1  0
  3 20  1  0
  6 21  1  0
  7 22  1  0
  8 23  1  0
 12 24  1  0
 12 25  1  0
 14 26  1  0
 15 27  1  0
 16 28  1  0
 17 29  1  0
M  ISO  8  19  14  20  14  21  14  22  14  23  14  24   8  25   8  26  14
M  ISO  3  27  14  28  14  29  14
M  END
>  <minimizedAffinity>  (1) 
-4.64768744

>  <minimizedRMSD>  (1) 
0.557905436

$$$$
