
     RDKit          3D

 33 35  0  0  0  0  0  0  0  0999 V2000
   37.1860   21.7720   34.9940 C   0  0  0  0  0  0  0  0  0  0  0  0
   36.0880   20.9870   35.3680 C   0  0  0  0  0  0  0  0  0  0  0  0
   35.4100   20.6140   34.2140 C   0  0  0  0  0  0  0  0  0  0  0  0
   36.1230   21.1870   33.1750 N   0  0  0  0  0  0  0  0  0  0  0  0
   37.1730   21.8710   33.6570 N   0  0  0  0  0  0  0  0  0  0  0  0
   40.1220   22.5040   37.0380 C   0  0  0  0  0  0  0  0  0  0  0  0
   39.5450   23.2210   38.1390 C   0  0  0  0  0  0  0  0  0  0  0  0
   38.1570   23.4310   38.1440 C   0  0  0  0  0  0  0  0  0  0  0  0
   37.4580   22.9360   37.0970 N   0  0  0  0  0  0  0  0  0  0  0  0
   38.0230   22.2620   36.0670 C   0  0  0  0  0  0  0  0  0  0  0  0
   39.3260   22.0610   36.0570 N   0  0  0  0  0  0  0  0  0  0  0  0
   35.7810   21.0640   31.7720 C   0  0  0  0  0  0  0  0  0  0  0  0
   36.7320   17.1690   30.3970 C   0  0  0  0  0  0  0  0  0  0  0  0
   36.2300   17.3200   31.6920 C   0  0  0  0  0  0  0  0  0  0  0  0
   35.9380   18.6170   32.0840 C   0  0  0  0  0  0  0  0  0  0  0  0
   36.1260   19.7200   31.2530 C   0  0  0  0  0  0  0  0  0  0  0  0
   36.6260   19.4990   29.9850 C   0  0  0  0  0  0  0  0  0  0  0  0
   36.9350   18.2300   29.5380 C   0  0  0  0  0  0  0  0  0  0  0  0
   37.1370   15.5580   29.7990 S   0  0  0  0  0  0  0  0  0  0  0  0
   37.6600   14.6960   30.9060 O   0  0  0  0  0  0  0  0  0  0  0  0
   35.9220   14.8820   29.2360 O   0  0  0  0  0  0  0  0  0  0  0  0
   35.8106   20.7133   36.3967 H   0  0  0  0  0  0  0  0  0  0  0  0
   34.5025   19.9966   34.1416 H   0  0  0  0  0  0  0  0  0  0  0  0
   41.2059   22.3205   37.0005 H   0  0  0  0  0  0  0  0  0  0  0  0
   40.1748   23.5968   38.9588 H   0  0  0  0  0  0  0  0  0  0  0  0
   37.6604   23.9734   38.9621 H   0  0  0  0  0  0  0  0  0  0  0  0
   34.7003   21.2293   31.6502 H   0  0  0  0  0  0  0  0  0  0  0  0
   36.3539   21.8137   31.2065 H   0  0  0  0  0  0  0  0  0  0  0  0
   36.0756   16.4605   32.3609 H   0  0  0  0  0  0  0  0  0  0  0  0
   35.5402   18.7832   33.0960 H   0  0  0  0  0  0  0  0  0  0  0  0
   36.7821   20.3563   29.3137 H   0  0  0  0  0  0  0  0  0  0  0  0
   37.3321   18.0689   28.5249 H   0  0  0  0  0  0  0  0  0  0  0  0
   38.0906   15.7153   28.8280 H   0  0  0  0  0  0  0  0  0  0  0  0
  1  2  1  0
  1 10  1  0
  3  2  2  0
  4  5  1  0
  4  3  1  0
  5  1  2  0
  6  7  2  0
  7  8  1  0
  9  8  2  0
 10  9  1  0
 11 10  2  0
 11  6  1  0
 12  4  1  0
 13 14  2  0
 14 15  1  0
 16 12  1  0
 16 15  2  0
 17 16  1  0
 18 17  2  0
 18 13  1  0
 19 13  1  0
 19 20  2  0
 21 19  2  0
  2 22  1  0
  3 23  1  0
  6 24  1  0
  7 25  1  0
  8 26  1  0
 12 27  1  0
 12 28  1  0
 14 29  1  0
 15 30  1  0
 17 31  1  0
 18 32  1  0
 19 33  1  0
M  ISO  8  22  14  23  14  24  14  25  14  26  14  27   8  28   8  29  14
M  ISO  4  30  14  31  14  32  14  33  11
M  END
>  <minimizedAffinity>  (1) 
-4.76227903

>  <minimizedRMSD>  (1) 
1.1442337

$$$$
