
     RDKit          3D

 32 34  0  0  0  0  0  0  0  0999 V2000
   37.1860   21.8710   34.9320 C   0  0  0  0  0  0  0  0  0  0  0  0
   36.1500   20.9610   35.1780 C   0  0  0  0  0  0  0  0  0  0  0  0
   35.5720   20.6500   33.9420 C   0  0  0  0  0  0  0  0  0  0  0  0
   36.2770   21.3790   33.0040 N   0  0  0  0  0  0  0  0  0  0  0  0
   37.2320   22.1020   33.5980 N   0  0  0  0  0  0  0  0  0  0  0  0
   39.9170   22.6150   37.2390 C   0  0  0  0  0  0  0  0  0  0  0  0
   39.2450   23.2600   38.3050 C   0  0  0  0  0  0  0  0  0  0  0  0
   37.8590   23.4250   38.2020 C   0  0  0  0  0  0  0  0  0  0  0  0
   37.2640   22.9500   37.0840 N   0  0  0  0  0  0  0  0  0  0  0  0
   37.9340   22.3390   36.0840 C   0  0  0  0  0  0  0  0  0  0  0  0
   39.2550   22.1630   36.1440 N   0  0  0  0  0  0  0  0  0  0  0  0
   35.9830   21.3330   31.5940 C   0  0  0  0  0  0  0  0  0  0  0  0
   36.7660   20.3630   30.9800 N   0  0  0  0  0  0  0  0  0  0  0  0
   36.2460   19.1170   30.6380 C   0  0  0  0  0  0  0  0  0  0  0  0
   36.6970   18.9810   29.1960 C   0  0  0  0  0  0  0  0  0  0  0  0
   38.0510   19.6900   29.2090 C   0  0  0  0  0  0  0  0  0  0  0  0
   37.9740   20.6710   30.3720 C   0  0  0  0  0  0  0  0  0  0  0  0
   35.8475   20.5651   36.1587 H   0  0  0  0  0  0  0  0  0  0  0  0
   34.7305   19.9665   33.7559 H   0  0  0  0  0  0  0  0  0  0  0  0
   41.0065   22.4763   37.3000 H   0  0  0  0  0  0  0  0  0  0  0  0
   39.7950   23.6203   39.1868 H   0  0  0  0  0  0  0  0  0  0  0  0
   37.2791   23.9192   38.9954 H   0  0  0  0  0  0  0  0  0  0  0  0
   34.9201   21.0886   31.4506 H   0  0  0  0  0  0  0  0  0  0  0  0
   36.2023   22.3133   31.1457 H   0  0  0  0  0  0  0  0  0  0  0  0
   36.6685   18.3197   31.2672 H   0  0  0  0  0  0  0  0  0  0  0  0
   35.1577   19.0343   30.7753 H   0  0  0  0  0  0  0  0  0  0  0  0
   35.9942   19.4772   28.5105 H   0  0  0  0  0  0  0  0  0  0  0  0
   36.7492   17.9389   28.8476 H   0  0  0  0  0  0  0  0  0  0  0  0
   38.8643   18.9665   29.3673 H   0  0  0  0  0  0  0  0  0  0  0  0
   38.2601   20.1968   28.2554 H   0  0  0  0  0  0  0  0  0  0  0  0
   38.8129   20.5218   31.0676 H   0  0  0  0  0  0  0  0  0  0  0  0
   38.0345   21.7210   30.0498 H   0  0  0  0  0  0  0  0  0  0  0  0
  1  2  1  0
  1 10  1  0
  3  2  2  0
  4  5  1  0
  4  3  1  0
  5  1  2  0
  6  7  2  0
  8  7  1  0
  9  8  2  0
 10 11  2  0
 10  9  1  0
 11  6  1  0
 12  4  1  0
 13 12  1  0
 14 13  1  0
 15 16  1  0
 15 14  1  0
 16 17  1  0
 17 13  1  0
  2 18  1  0
  3 19  1  0
  6 20  1  0
  7 21  1  0
  8 22  1  0
 12 23  1  0
 12 24  1  0
 14 25  1  0
 14 26  1  0
 15 27  1  0
 15 28  1  0
 16 29  1  0
 16 30  1  0
 17 31  1  0
 17 32  1  0
M  ISO  8  18  14  19  14  20  14  21  14  22  14  23   8  24   8  25  13
M  ISO  7  26  13  27  13  28  13  29  13  30  13  31  13  32  13
M  END
>  <minimizedAffinity>  (1) 
-4.47874212

>  <minimizedRMSD>  (1) 
0.787253618

$$$$
