
     RDKit          3D

 33 35  0  0  0  0  0  0  0  0999 V2000
   37.2600   21.6970   35.1020 C   0  0  0  0  0  0  0  0  0  0  0  0
   36.0590   21.0420   35.3790 C   0  0  0  0  0  0  0  0  0  0  0  0
   35.5800   20.5610   34.1500 C   0  0  0  0  0  0  0  0  0  0  0  0
   36.4890   20.9370   33.2040 N   0  0  0  0  0  0  0  0  0  0  0  0
   37.4940   21.6160   33.7760 N   0  0  0  0  0  0  0  0  0  0  0  0
   39.9140   22.7300   37.4020 C   0  0  0  0  0  0  0  0  0  0  0  0
   39.2010   23.4400   38.3950 C   0  0  0  0  0  0  0  0  0  0  0  0
   37.7960   23.5470   38.2450 C   0  0  0  0  0  0  0  0  0  0  0  0
   37.2360   22.9600   37.1570 N   0  0  0  0  0  0  0  0  0  0  0  0
   37.9570   22.2910   36.2320 C   0  0  0  0  0  0  0  0  0  0  0  0
   39.2640   22.1850   36.3620 N   0  0  0  0  0  0  0  0  0  0  0  0
   36.3280   20.6150   31.8180 C   0  0  0  0  0  0  0  0  0  0  0  0
   37.4340   19.8990   31.2620 N   0  0  0  0  0  0  0  0  0  0  0  0
   37.4440   19.9760   29.8330 C   0  0  0  0  0  0  0  0  0  0  0  0
   36.7050   18.8820   29.1320 C   0  0  0  0  0  0  0  0  0  0  0  0
   36.8170   17.6430   29.7160 O   0  0  0  0  0  0  0  0  0  0  0  0
   36.5180   17.6680   31.0760 C   0  0  0  0  0  0  0  0  0  0  0  0
   37.5570   18.5530   31.7250 C   0  0  0  0  0  0  0  0  0  0  0  0
   35.5828   20.9258   36.3637 H   0  0  0  0  0  0  0  0  0  0  0  0
   34.6534   19.9924   33.9824 H   0  0  0  0  0  0  0  0  0  0  0  0
   41.0059   22.6238   37.4821 H   0  0  0  0  0  0  0  0  0  0  0  0
   39.7184   23.8932   39.2534 H   0  0  0  0  0  0  0  0  0  0  0  0
   37.1825   24.0854   38.9824 H   0  0  0  0  0  0  0  0  0  0  0  0
   35.4240   19.9981   31.7075 H   0  0  0  0  0  0  0  0  0  0  0  0
   36.2551   21.5677   31.2730 H   0  0  0  0  0  0  0  0  0  0  0  0
   36.9907   20.9347   29.5406 H   0  0  0  0  0  0  0  0  0  0  0  0
   38.4966   19.8771   29.5291 H   0  0  0  0  0  0  0  0  0  0  0  0
   37.0917   18.8120   28.1046 H   0  0  0  0  0  0  0  0  0  0  0  0
   35.6392   19.1502   29.1781 H   0  0  0  0  0  0  0  0  0  0  0  0
   35.5116   18.0820   31.2367 H   0  0  0  0  0  0  0  0  0  0  0  0
   36.5316   16.6556   31.5060 H   0  0  0  0  0  0  0  0  0  0  0  0
   38.5596   18.1755   31.4756 H   0  0  0  0  0  0  0  0  0  0  0  0
   37.4038   18.5382   32.8142 H   0  0  0  0  0  0  0  0  0  0  0  0
  1  2  1  0
  1 10  1  0
  3  2  2  0
  4  5  1  0
  4  3  1  0
  5  1  2  0
  6  7  2  0
  8  7  1  0
  9  8  2  0
 10 11  2  0
 10  9  1  0
 11  6  1  0
 12  4  1  0
 13 18  1  0
 13 12  1  0
 14 13  1  0
 15 16  1  0
 15 14  1  0
 16 17  1  0
 17 18  1  0
  2 19  1  0
  3 20  1  0
  6 21  1  0
  7 22  1  0
  8 23  1  0
 12 24  1  0
 12 25  1  0
 14 26  1  0
 14 27  1  0
 15 28  1  0
 15 29  1  0
 17 30  1  0
 17 31  1  0
 18 32  1  0
 18 33  1  0
M  ISO  8  19  14  20  14  21  14  22  14  23  14  24   8  25   8  26  13
M  ISO  7  27  13  28  13  29  13  30  13  31  13  32  13  33  13
M  END
>  <minimizedAffinity>  (1) 
-4.33067274

>  <minimizedRMSD>  (1) 
0.787284911

$$$$
