
     RDKit          3D

 27 29  0  0  0  0  0  0  0  0999 V2000
   37.2180   21.8200   34.9280 C   0  0  0  0  0  0  0  0  0  0  0  0
   36.1200   20.9950   35.1600 C   0  0  0  0  0  0  0  0  0  0  0  0
   35.5960   20.6170   33.9280 C   0  0  0  0  0  0  0  0  0  0  0  0
   36.4060   21.2350   32.9860 N   0  0  0  0  0  0  0  0  0  0  0  0
   37.3430   21.9300   33.5980 N   0  0  0  0  0  0  0  0  0  0  0  0
   39.9040   22.6320   37.2580 C   0  0  0  0  0  0  0  0  0  0  0  0
   39.1920   23.2790   38.3200 C   0  0  0  0  0  0  0  0  0  0  0  0
   37.8050   23.4160   38.1980 C   0  0  0  0  0  0  0  0  0  0  0  0
   37.2320   22.9230   37.0750 N   0  0  0  0  0  0  0  0  0  0  0  0
   37.9220   22.3250   36.1020 C   0  0  0  0  0  0  0  0  0  0  0  0
   39.2500   22.1690   36.1700 N   0  0  0  0  0  0  0  0  0  0  0  0
   36.2010   21.0970   31.5650 C   0  0  0  0  0  0  0  0  0  0  0  0
   36.1580   19.7180   31.0630 C   0  0  0  0  0  0  0  0  0  0  0  0
   36.5370   19.2700   29.7260 C   0  0  0  0  0  0  0  0  0  0  0  0
   37.4990   19.0330   30.8710 C   0  0  0  0  0  0  0  0  0  0  0  0
   35.7344   20.6947   36.1455 H   0  0  0  0  0  0  0  0  0  0  0  0
   34.7274   19.9685   33.7410 H   0  0  0  0  0  0  0  0  0  0  0  0
   40.9950   22.5109   37.3293 H   0  0  0  0  0  0  0  0  0  0  0  0
   39.7214   23.6576   39.2068 H   0  0  0  0  0  0  0  0  0  0  0  0
   37.2057   23.9035   38.9811 H   0  0  0  0  0  0  0  0  0  0  0  0
   35.2454   21.5795   31.3121 H   0  0  0  0  0  0  0  0  0  0  0  0
   37.0744   21.5649   31.0873 H   0  0  0  0  0  0  0  0  0  0  0  0
   35.2219   19.5733   31.6222 H   0  0  0  0  0  0  0  0  0  0  0  0
   36.7824   20.0108   28.9508 H   0  0  0  0  0  0  0  0  0  0  0  0
   36.0680   18.6248   28.9685 H   0  0  0  0  0  0  0  0  0  0  0  0
   37.6651   18.0165   31.2571 H   0  0  0  0  0  0  0  0  0  0  0  0
   38.5502   19.2761   31.0852 H   0  0  0  0  0  0  0  0  0  0  0  0
  1  2  1  0
  1 10  1  0
  3  2  2  0
  4  5  1  0
  4  3  1  0
  5  1  2  0
  6  7  2  0
  8  7  1  0
  9  8  2  0
 10 11  2  0
 10  9  1  0
 11  6  1  0
 12  4  1  0
 13 12  1  0
 14 15  1  0
 14 13  1  0
 15 13  1  0
  2 16  1  0
  3 17  1  0
  6 18  1  0
  7 19  1  0
  8 20  1  0
 12 21  1  0
 12 22  1  0
 13 23  1  0
 14 24  1  0
 14 25  1  0
 15 26  1  0
 15 27  1  0
M  ISO  8  16  14  17  14  18  14  19  14  20  14  21   8  22   8  23  13
M  ISO  4  24  13  25  13  26  13  27  13
M  END
>  <minimizedAffinity>  (1) 
-4.19131851

>  <minimizedRMSD>  (1) 
0.532330871

$$$$
