
     RDKit          3D

 25 27  0  0  0  0  0  0  0  0999 V2000
   37.1350   21.7630   34.8110 C   0  0  0  0  0  0  0  0  0  0  0  0
   36.0660   20.9380   35.1160 C   0  0  0  0  0  0  0  0  0  0  0  0
   35.4450   20.5810   33.9160 C   0  0  0  0  0  0  0  0  0  0  0  0
   36.1720   21.2130   32.9210 N   0  0  0  0  0  0  0  0  0  0  0  0
   37.1610   21.9020   33.4660 N   0  0  0  0  0  0  0  0  0  0  0  0
   40.0000   22.4950   36.9550 C   0  0  0  0  0  0  0  0  0  0  0  0
   39.3950   23.1880   38.0340 C   0  0  0  0  0  0  0  0  0  0  0  0
   37.9980   23.3910   38.0000 C   0  0  0  0  0  0  0  0  0  0  0  0
   37.3160   22.9050   36.9270 N   0  0  0  0  0  0  0  0  0  0  0  0
   37.9280   22.2530   35.9250 C   0  0  0  0  0  0  0  0  0  0  0  0
   39.2470   22.0510   35.9380 N   0  0  0  0  0  0  0  0  0  0  0  0
   35.8550   21.1030   31.5200 C   0  0  0  0  0  0  0  0  0  0  0  0
   36.2150   19.7570   30.9750 C   0  0  0  0  0  0  0  0  0  0  0  0
   36.1780   18.5230   31.5140 N   0  0  0  0  0  0  0  0  0  0  0  0
   36.5900   17.6500   30.6530 O   0  0  0  0  0  0  0  0  0  0  0  0
   36.9170   18.2420   29.5240 C   0  0  0  0  0  0  0  0  0  0  0  0
   36.6860   19.5640   29.7110 N   0  0  0  0  0  0  0  0  0  0  0  0
   35.7599   20.6200   36.1236 H   0  0  0  0  0  0  0  0  0  0  0  0
   34.5643   19.9343   33.7886 H   0  0  0  0  0  0  0  0  0  0  0  0
   41.0863   22.3217   36.9521 H   0  0  0  0  0  0  0  0  0  0  0  0
   39.9984   23.5580   38.8760 H   0  0  0  0  0  0  0  0  0  0  0  0
   37.4796   23.9228   38.8115 H   0  0  0  0  0  0  0  0  0  0  0  0
   34.7754   21.2651   31.3850 H   0  0  0  0  0  0  0  0  0  0  0  0
   36.4385   21.8604   30.9760 H   0  0  0  0  0  0  0  0  0  0  0  0
   37.3005   17.7606   28.6123 H   0  0  0  0  0  0  0  0  0  0  0  0
  1  2  1  0
  1 10  1  0
  3  2  2  0
  4  5  1  0
  4  3  1  0
  5  1  2  0
  6  7  2  0
  8  7  1  0
  9  8  2  0
 10 11  2  0
 10  9  1  0
 11  6  1  0
 12  4  1  0
 13 14  2  0
 13 12  1  0
 15 14  1  0
 16 17  2  0
 16 15  1  0
 17 13  1  0
  2 18  1  0
  3 19  1  0
  6 20  1  0
  7 21  1  0
  8 22  1  0
 12 23  1  0
 12 24  1  0
 16 25  1  0
M  ISO  8  18  14  19  14  20  14  21  14  22  14  23   8  24   8  25  14
M  END
>  <minimizedAffinity>  (1) 
-4.33272219

>  <minimizedRMSD>  (1) 
0.611871779

$$$$
