
     RDKit          3D

 44 48  0  0  0  0  0  0  0  0999 V2000
   37.0340   24.3200   31.0490 N   0  0  0  0  0  0  0  0  0  0  0  0
   37.9970   25.1890   30.7470 C   0  0  0  0  0  0  0  0  0  0  0  0
   37.7690   26.5370   30.6170 C   0  0  0  0  0  0  0  0  0  0  0  0
   36.4990   27.0650   30.7970 C   0  0  0  0  0  0  0  0  0  0  0  0
   36.2340   28.4420   30.6710 N   0  0  0  0  0  0  0  0  0  0  0  0
   35.5440   26.1610   31.1030 N   0  0  0  0  0  0  0  0  0  0  0  0
   35.8170   24.8570   31.2190 C   0  0  0  0  0  0  0  0  0  0  0  0
   34.7930   24.1710   31.5090 O   0  0  0  0  0  0  0  0  0  0  0  0
   38.8600   27.3990   30.2910 N   0  0  0  0  0  0  0  0  0  0  0  0
   40.0260   27.3380   30.9910 C   0  0  0  0  0  0  0  0  0  0  0  0
   40.9020   28.2560   30.4870 N   0  0  0  0  0  0  0  0  0  0  0  0
   40.3050   28.8920   29.4820 C   0  0  0  0  0  0  0  0  0  0  0  0
   40.5750   29.8880   28.5660 C   0  0  0  0  0  0  0  0  0  0  0  0
   39.6890   30.3060   27.6370 N   0  0  0  0  0  0  0  0  0  0  0  0
   38.4580   29.7230   27.5910 C   0  0  0  0  0  0  0  0  0  0  0  0
   38.1180   28.7470   28.4470 N   0  0  0  0  0  0  0  0  0  0  0  0
   39.0200   28.3580   29.3540 C   0  0  0  0  0  0  0  0  0  0  0  0
   41.8740   30.4860   28.6360 N   0  0  0  0  0  0  0  0  0  0  0  0
   37.1990   22.8850   31.2040 C   0  0  0  0  0  0  0  0  0  0  0  0
   37.8300   22.6230   34.7300 C   0  0  0  0  0  0  0  0  0  0  0  0
   37.0150   21.5060   34.5340 C   0  0  0  0  0  0  0  0  0  0  0  0
   36.6640   21.4470   33.1880 C   0  0  0  0  0  0  0  0  0  0  0  0
   37.2810   22.5360   32.6030 N   0  0  0  0  0  0  0  0  0  0  0  0
   37.9620   23.2160   33.5310 N   0  0  0  0  0  0  0  0  0  0  0  0
   39.9880   22.6860   37.6740 C   0  0  0  0  0  0  0  0  0  0  0  0
   39.1560   23.3060   38.6480 C   0  0  0  0  0  0  0  0  0  0  0  0
   37.8760   23.6790   38.2490 C   0  0  0  0  0  0  0  0  0  0  0  0
   37.4810   23.4440   36.9760 N   0  0  0  0  0  0  0  0  0  0  0  0
   38.2960   22.8520   36.0710 C   0  0  0  0  0  0  0  0  0  0  0  0
   39.5290   22.4830   36.4250 N   0  0  0  0  0  0  0  0  0  0  0  0
   39.0187   24.8108   30.5952 H   0  0  0  0  0  0  0  0  0  0  0  0
   35.2776   28.7974   30.8120 H   0  0  0  0  0  0  0  0  0  0  0  0
   36.9965   29.0940   30.4378 H   0  0  0  0  0  0  0  0  0  0  0  0
   40.2301   26.6567   31.8301 H   0  0  0  0  0  0  0  0  0  0  0  0
   37.7296   30.0587   26.8382 H   0  0  0  0  0  0  0  0  0  0  0  0
   42.1324   31.2348   27.9776 H   0  0  0  0  0  0  0  0  0  0  0  0
   42.5501   30.1674   29.3447 H   0  0  0  0  0  0  0  0  0  0  0  0
   36.3384   22.3703   30.7518 H   0  0  0  0  0  0  0  0  0  0  0  0
   38.1291   22.5767   30.7042 H   0  0  0  0  0  0  0  0  0  0  0  0
   36.7031   20.7933   35.3116 H   0  0  0  0  0  0  0  0  0  0  0  0
   36.0308   20.6943   32.6956 H   0  0  0  0  0  0  0  0  0  0  0  0
   41.0076   22.3722   37.9422 H   0  0  0  0  0  0  0  0  0  0  0  0
   39.5102   23.4832   39.6742 H   0  0  0  0  0  0  0  0  0  0  0  0
   37.1911   24.1608   38.9623 H   0  0  0  0  0  0  0  0  0  0  0  0
  1 19  1  0
  1  7  1  0
  2  1  1  0
  3  2  2  0
  3  4  1  0
  4  6  2  0
  5  4  1  0
  6  7  1  0
  7  8  2  0
  9  3  1  0
  9 10  1  0
 11 10  2  0
 12 11  1  0
 13 18  1  0
 13 12  2  0
 14 13  1  0
 15 14  2  0
 15 16  1  0
 16 17  2  0
 17 12  1  0
 17  9  1  0
 19 23  1  0
 20 29  1  0
 21 20  1  0
 22 21  2  0
 23 22  1  0
 23 24  1  0
 24 20  2  0
 25 26  2  0
 27 26  1  0
 28 27  2  0
 29 30  2  0
 29 28  1  0
 30 25  1  0
  2 31  1  0
  5 32  1  0
  5 33  1  0
 10 34  1  0
 15 35  1  0
 18 36  1  0
 18 37  1  0
 19 38  1  0
 19 39  1  0
 21 40  1  0
 22 41  1  0
 25 42  1  0
 26 43  1  0
 27 44  1  0
M  ISO  8  31  14  34  14  35  14  38   8  39   8  40  14  41  14  42  14
M  ISO  2  43  14  44  14
M  END
>  <minimizedAffinity>  (1) 
-5.91493225

>  <minimizedRMSD>  (1) 
0.910720527

$$$$
