
     RDKit          3D

 47 51  0  0  0  0  0  0  0  0999 V2000
   36.7940   24.4530   31.0280 N   0  0  0  0  0  0  0  0  0  0  0  0
   37.9780   25.0350   30.8290 C   0  0  0  0  0  0  0  0  0  0  0  0
   38.1170   26.3960   30.7170 C   0  0  0  0  0  0  0  0  0  0  0  0
   37.0070   27.2290   30.8080 C   0  0  0  0  0  0  0  0  0  0  0  0
   37.1290   28.6260   30.6960 N   0  0  0  0  0  0  0  0  0  0  0  0
   35.8330   26.6180   31.0080 N   0  0  0  0  0  0  0  0  0  0  0  0
   35.7340   25.2830   31.1130 C   0  0  0  0  0  0  0  0  0  0  0  0
   34.5580   24.8830   31.2990 O   0  0  0  0  0  0  0  0  0  0  0  0
   39.4270   27.0030   30.4990 C   0  0  0  0  0  0  0  0  0  0  0  0
   39.7050   27.3970   29.1970 C   0  0  0  0  0  0  0  0  0  0  0  0
   40.9460   27.9860   28.9290 C   0  0  0  0  0  0  0  0  0  0  0  0
   41.8500   28.1560   29.9560 C   0  0  0  0  0  0  0  0  0  0  0  0
   41.5750   27.7640   31.2580 C   0  0  0  0  0  0  0  0  0  0  0  0
   42.4410   27.9110   32.3220 C   0  0  0  0  0  0  0  0  0  0  0  0
   42.1020   27.4970   33.5930 C   0  0  0  0  0  0  0  0  0  0  0  0
   40.8710   26.9190   33.8340 C   0  0  0  0  0  0  0  0  0  0  0  0
   40.0120   26.7760   32.7660 C   0  0  0  0  0  0  0  0  0  0  0  0
   40.3540   27.1900   31.4980 C   0  0  0  0  0  0  0  0  0  0  0  0
   36.5510   23.0190   31.1610 C   0  0  0  0  0  0  0  0  0  0  0  0
   37.6590   22.5530   34.5350 C   0  0  0  0  0  0  0  0  0  0  0  0
   36.9230   21.3870   34.3520 C   0  0  0  0  0  0  0  0  0  0  0  0
   36.4040   21.3990   33.0580 C   0  0  0  0  0  0  0  0  0  0  0  0
   36.8470   22.5790   32.5040 N   0  0  0  0  0  0  0  0  0  0  0  0
   37.5820   23.2410   33.3870 N   0  0  0  0  0  0  0  0  0  0  0  0
   40.1140   22.4300   37.2350 C   0  0  0  0  0  0  0  0  0  0  0  0
   39.4160   23.0520   38.3160 C   0  0  0  0  0  0  0  0  0  0  0  0
   38.1120   23.4970   38.0770 C   0  0  0  0  0  0  0  0  0  0  0  0
   37.5910   23.3080   36.8280 N   0  0  0  0  0  0  0  0  0  0  0  0
   38.2810   22.7170   35.8350 C   0  0  0  0  0  0  0  0  0  0  0  0
   39.5200   22.2890   36.0420 N   0  0  0  0  0  0  0  0  0  0  0  0
   38.8743   24.4019   30.7520 H   0  0  0  0  0  0  0  0  0  0  0  0
   36.2928   29.2233   30.7666 H   0  0  0  0  0  0  0  0  0  0  0  0
   38.0545   29.0515   30.5434 H   0  0  0  0  0  0  0  0  0  0  0  0
   38.9670   27.2496   28.3947 H   0  0  0  0  0  0  0  0  0  0  0  0
   41.1978   28.3103   27.9085 H   0  0  0  0  0  0  0  0  0  0  0  0
   42.8233   28.6186   29.7353 H   0  0  0  0  0  0  0  0  0  0  0  0
   43.4262   28.3698   32.1523 H   0  0  0  0  0  0  0  0  0  0  0  0
   42.8160   27.6278   34.4195 H   0  0  0  0  0  0  0  0  0  0  0  0
   40.5864   26.5847   34.8426 H   0  0  0  0  0  0  0  0  0  0  0  0
   39.0254   26.3183   32.9310 H   0  0  0  0  0  0  0  0  0  0  0  0
   35.4953   22.8082   30.9353 H   0  0  0  0  0  0  0  0  0  0  0  0
   37.2036   22.4806   30.4580 H   0  0  0  0  0  0  0  0  0  0  0  0
   36.7759   20.5929   35.0989 H   0  0  0  0  0  0  0  0  0  0  0  0
   35.7760   20.6313   32.5823 H   0  0  0  0  0  0  0  0  0  0  0  0
   41.1415   22.0660   37.3826 H   0  0  0  0  0  0  0  0  0  0  0  0
   39.8881   23.1764   39.3017 H   0  0  0  0  0  0  0  0  0  0  0  0
   37.5243   23.9837   38.8693 H   0  0  0  0  0  0  0  0  0  0  0  0
  1  7  1  0
  1 19  1  0
  2  1  1  0
  3  4  1  0
  3  2  2  0
  4  6  2  0
  5  4  1  0
  6  7  1  0
  7  8  2  0
  9  3  1  0
  9 18  1  0
 10  9  2  0
 11 10  1  0
 11 12  2  0
 12 13  1  0
 13 18  2  0
 13 14  1  0
 14 15  2  0
 15 16  1  0
 17 16  2  0
 18 17  1  0
 19 23  1  0
 20 29  1  0
 21 20  1  0
 22 21  2  0
 23 22  1  0
 23 24  1  0
 24 20  2  0
 25 26  2  0
 27 26  1  0
 28 27  2  0
 29 30  2  0
 29 28  1  0
 30 25  1  0
  2 31  1  0
  5 32  1  0
  5 33  1  0
 10 34  1  0
 11 35  1  0
 12 36  1  0
 14 37  1  0
 15 38  1  0
 16 39  1  0
 17 40  1  0
 19 41  1  0
 19 42  1  0
 21 43  1  0
 22 44  1  0
 25 45  1  0
 26 46  1  0
 27 47  1  0
M  ISO  8  31  14  34  14  35  14  36  14  37  14  38  14  39  14  40  14
M  ISO  7  41   8  42   8  43  14  44  14  45  14  46  14  47  14
M  END
>  <minimizedAffinity>  (1) 
-6.37477636

>  <minimizedRMSD>  (1) 
1.09260345

$$$$
