
     RDKit          3D

 38 40  0  0  0  0  0  0  0  0999 V2000
   37.5260   23.2170   31.1270 C   0  0  0  0  0  0  0  0  0  0  0  0
   37.1810   24.6240   31.0120 N   0  0  0  0  0  0  0  0  0  0  0  0
   38.0450   25.5970   30.6930 C   0  0  0  0  0  0  0  0  0  0  0  0
   37.6950   26.9170   30.5890 C   0  0  0  0  0  0  0  0  0  0  0  0
   36.3740   27.2840   30.8250 C   0  0  0  0  0  0  0  0  0  0  0  0
   35.9340   28.6240   30.7370 N   0  0  0  0  0  0  0  0  0  0  0  0
   35.5280   26.3000   31.1420 N   0  0  0  0  0  0  0  0  0  0  0  0
   35.9130   25.0240   31.2320 C   0  0  0  0  0  0  0  0  0  0  0  0
   35.0020   24.2230   31.5380 O   0  0  0  0  0  0  0  0  0  0  0  0
   38.6260   27.9410   30.2560 N   0  0  0  0  0  0  0  0  0  0  0  0
   38.9880   28.2930   28.9320 C   0  0  0  0  0  0  0  0  0  0  0  0
   37.9760   28.4090   28.1040 N   0  0  0  0  0  0  0  0  0  0  0  0
   40.3840   28.4880   28.6220 N   0  0  0  0  0  0  0  0  0  0  0  0
   38.2330   28.6630   27.1450 H   0  0  0  0  0  0  0  0  0  0  0  0
   37.9790   22.8500   34.6640 C   0  0  0  0  0  0  0  0  0  0  0  0
   37.2160   21.7060   34.3870 C   0  0  0  0  0  0  0  0  0  0  0  0
   36.9380   21.6810   33.0260 C   0  0  0  0  0  0  0  0  0  0  0  0
   37.5460   22.8200   32.5120 N   0  0  0  0  0  0  0  0  0  0  0  0
   38.1410   23.4760   33.4910 N   0  0  0  0  0  0  0  0  0  0  0  0
   39.9050   22.7280   37.7620 C   0  0  0  0  0  0  0  0  0  0  0  0
   39.0490   23.4400   38.6690 C   0  0  0  0  0  0  0  0  0  0  0  0
   37.8450   23.9340   38.1820 C   0  0  0  0  0  0  0  0  0  0  0  0
   37.5500   23.7130   36.8770 N   0  0  0  0  0  0  0  0  0  0  0  0
   38.3630   23.0430   36.0370 C   0  0  0  0  0  0  0  0  0  0  0  0
   39.5170   22.5650   36.4840 N   0  0  0  0  0  0  0  0  0  0  0  0
   38.5201   23.0497   30.6869 H   0  0  0  0  0  0  0  0  0  0  0  0
   36.7729   22.6185   30.5934 H   0  0  0  0  0  0  0  0  0  0  0  0
   39.0928   25.3205   30.5043 H   0  0  0  0  0  0  0  0  0  0  0  0
   34.9469   28.8550   30.9193 H   0  0  0  0  0  0  0  0  0  0  0  0
   36.6004   29.3697   30.4906 H   0  0  0  0  0  0  0  0  0  0  0  0
   39.0658   28.4607   31.0289 H   0  0  0  0  0  0  0  0  0  0  0  0
   40.6683   28.7442   27.6657 H   0  0  0  0  0  0  0  0  0  0  0  0
   41.0960   28.3710   29.3570 H   0  0  0  0  0  0  0  0  0  0  0  0
   36.8924   20.9554   35.1231 H   0  0  0  0  0  0  0  0  0  0  0  0
   36.3615   20.9236   32.4747 H   0  0  0  0  0  0  0  0  0  0  0  0
   40.8665   22.3207   38.1080 H   0  0  0  0  0  0  0  0  0  0  0  0
   39.3383   23.5901   39.7196 H   0  0  0  0  0  0  0  0  0  0  0  0
   37.1531   24.4868   38.8344 H   0  0  0  0  0  0  0  0  0  0  0  0
  1 18  1  0
  2  1  1  0
  2  8  1  0
  3  2  1  0
  4  3  2  0
  4  5  1  0
  5  7  2  0
  6  5  1  0
  7  8  1  0
  8  9  2  0
 10  4  1  0
 11 10  1  0
 12 11  2  0
 13 11  1  0
 14 12  1  0
 15 24  1  0
 16 15  1  0
 17 16  2  0
 18 17  1  0
 18 19  1  0
 19 15  2  0
 20 21  2  0
 22 21  1  0
 23 22  2  0
 24 25  2  0
 24 23  1  0
 25 20  1  0
  1 26  1  0
  1 27  1  0
  3 28  1  0
  6 29  1  0
  6 30  1  0
 10 31  1  0
 13 32  1  0
 13 33  1  0
 16 34  1  0
 17 35  1  0
 20 36  1  0
 21 37  1  0
 22 38  1  0
M  ISO  8  26   8  27   8  28  14  34  14  35  14  36  14  37  14  38  14
M  END
>  <minimizedAffinity>  (1) 
-5.58503294

>  <minimizedRMSD>  (1) 
0.678404987

$$$$
