
     RDKit          3D

 41 44  0  0  0  0  0  0  0  0999 V2000
   37.0640   22.9350   31.1910 C   0  0  0  0  0  0  0  0  0  0  0  0
   37.0590   24.3820   31.0550 N   0  0  0  0  0  0  0  0  0  0  0  0
   38.1350   25.1320   30.7990 C   0  0  0  0  0  0  0  0  0  0  0  0
   38.0630   26.5100   30.6820 C   0  0  0  0  0  0  0  0  0  0  0  0
   36.8630   27.1630   30.8270 C   0  0  0  0  0  0  0  0  0  0  0  0
   36.7420   28.5660   30.7160 N   0  0  0  0  0  0  0  0  0  0  0  0
   35.7840   26.3830   31.0870 N   0  0  0  0  0  0  0  0  0  0  0  0
   35.9030   25.0540   31.1920 C   0  0  0  0  0  0  0  0  0  0  0  0
   34.8090   24.4810   31.4350 O   0  0  0  0  0  0  0  0  0  0  0  0
   39.2890   27.2620   30.3990 C   0  0  0  0  0  0  0  0  0  0  0  0
   40.2260   27.2870   31.4170 C   0  0  0  0  0  0  0  0  0  0  0  0
   41.4000   27.9800   31.2050 C   0  0  0  0  0  0  0  0  0  0  0  0
   41.6340   28.6320   30.0090 C   0  0  0  0  0  0  0  0  0  0  0  0
   40.6980   28.6080   28.9900 C   0  0  0  0  0  0  0  0  0  0  0  0
   39.5030   27.9080   29.1940 C   0  0  0  0  0  0  0  0  0  0  0  0
   37.7910   22.6290   34.6990 C   0  0  0  0  0  0  0  0  0  0  0  0
   37.0070   21.4830   34.5000 C   0  0  0  0  0  0  0  0  0  0  0  0
   36.6280   21.4400   33.1620 C   0  0  0  0  0  0  0  0  0  0  0  0
   37.1900   22.5590   32.5840 N   0  0  0  0  0  0  0  0  0  0  0  0
   37.8730   23.2510   33.5030 N   0  0  0  0  0  0  0  0  0  0  0  0
   39.9840   22.6600   37.6080 C   0  0  0  0  0  0  0  0  0  0  0  0
   39.1750   23.2730   38.6050 C   0  0  0  0  0  0  0  0  0  0  0  0
   37.8870   23.6560   38.2280 C   0  0  0  0  0  0  0  0  0  0  0  0
   37.4830   23.4280   36.9530 N   0  0  0  0  0  0  0  0  0  0  0  0
   38.2800   22.8440   36.0380 C   0  0  0  0  0  0  0  0  0  0  0  0
   39.5030   22.4710   36.3680 N   0  0  0  0  0  0  0  0  0  0  0  0
   37.9119   22.5208   30.6257 H   0  0  0  0  0  0  0  0  0  0  0  0
   36.1169   22.5365   30.7982 H   0  0  0  0  0  0  0  0  0  0  0  0
   39.1104   24.6383   30.6771 H   0  0  0  0  0  0  0  0  0  0  0  0
   35.8220   29.0144   30.8321 H   0  0  0  0  0  0  0  0  0  0  0  0
   37.5738   29.1407   30.5190 H   0  0  0  0  0  0  0  0  0  0  0  0
   40.0399   26.7686   32.3691 H   0  0  0  0  0  0  0  0  0  0  0  0
   42.1605   28.0141   31.9990 H   0  0  0  0  0  0  0  0  0  0  0  0
   42.5780   29.1780   29.8650 H   0  0  0  0  0  0  0  0  0  0  0  0
   40.8890   29.1280   28.0397 H   0  0  0  0  0  0  0  0  0  0  0  0
   38.7399   27.8717   28.4025 H   0  0  0  0  0  0  0  0  0  0  0  0
   36.7379   20.7448   35.2699 H   0  0  0  0  0  0  0  0  0  0  0  0
   36.0103   20.6748   32.6691 H   0  0  0  0  0  0  0  0  0  0  0  0
   41.0073   22.3396   37.8535 H   0  0  0  0  0  0  0  0  0  0  0  0
   39.5478   23.4376   39.6267 H   0  0  0  0  0  0  0  0  0  0  0  0
   37.2111   24.1344   38.9520 H   0  0  0  0  0  0  0  0  0  0  0  0
  1 19  1  0
  2  1  1  0
  2  8  1  0
  3  2  1  0
  4  3  2  0
  4  5  1  0
  5  7  2  0
  6  5  1  0
  7  8  1  0
  8  9  2  0
 10  4  1  0
 10 11  2  0
 12 11  1  0
 13 12  2  0
 14 15  2  0
 14 13  1  0
 15 10  1  0
 16 25  1  0
 17 16  1  0
 18 17  2  0
 19 18  1  0
 19 20  1  0
 20 16  2  0
 21 22  2  0
 23 22  1  0
 24 23  2  0
 25 26  2  0
 25 24  1  0
 26 21  1  0
  1 27  1  0
  1 28  1  0
  3 29  1  0
  6 30  1  0
  6 31  1  0
 11 32  1  0
 12 33  1  0
 13 34  1  0
 14 35  1  0
 15 36  1  0
 17 37  1  0
 18 38  1  0
 21 39  1  0
 22 40  1  0
 23 41  1  0
M  ISO  8  27   8  28   8  29  14  32  14  33  14  34  14  35  14  36  14
M  ISO  5  37  14  38  14  39  14  40  14  41  14
M  END
>  <minimizedAffinity>  (1) 
-5.53219366

>  <minimizedRMSD>  (1) 
0.791714907

$$$$
