
     RDKit          3D

 38 41  0  0  0  0  0  0  0  0999 V2000
   37.5380   23.2240   31.1330 C   0  0  0  0  0  0  0  0  0  0  0  0
   37.2170   24.6440   31.0200 N   0  0  0  0  0  0  0  0  0  0  0  0
   38.1330   25.6100   30.8570 C   0  0  0  0  0  0  0  0  0  0  0  0
   37.7730   26.9390   30.7560 C   0  0  0  0  0  0  0  0  0  0  0  0
   36.4400   27.3160   30.8210 C   0  0  0  0  0  0  0  0  0  0  0  0
   36.0430   28.6650   30.7210 N   0  0  0  0  0  0  0  0  0  0  0  0
   35.5580   26.3230   30.9830 N   0  0  0  0  0  0  0  0  0  0  0  0
   35.9390   25.0380   31.0780 C   0  0  0  0  0  0  0  0  0  0  0  0
   34.9850   24.2370   31.2280 O   0  0  0  0  0  0  0  0  0  0  0  0
   38.8270   27.9460   30.5790 C   0  0  0  0  0  0  0  0  0  0  0  0
   40.2260   27.5190   30.8620 C   0  0  0  0  0  0  0  0  0  0  0  0
   39.7710   27.8610   29.4500 C   0  0  0  0  0  0  0  0  0  0  0  0
   37.9780   22.8540   34.6780 C   0  0  0  0  0  0  0  0  0  0  0  0
   37.2080   21.7230   34.3980 C   0  0  0  0  0  0  0  0  0  0  0  0
   36.9380   21.7070   33.0370 C   0  0  0  0  0  0  0  0  0  0  0  0
   37.5530   22.8280   32.5290 N   0  0  0  0  0  0  0  0  0  0  0  0
   38.1570   23.4860   33.5080 N   0  0  0  0  0  0  0  0  0  0  0  0
   39.9010   22.7270   37.7820 C   0  0  0  0  0  0  0  0  0  0  0  0
   39.0550   23.4090   38.6970 C   0  0  0  0  0  0  0  0  0  0  0  0
   37.8380   23.8930   38.2040 C   0  0  0  0  0  0  0  0  0  0  0  0
   37.5200   23.6970   36.9010 N   0  0  0  0  0  0  0  0  0  0  0  0
   38.3600   23.0390   36.0630 C   0  0  0  0  0  0  0  0  0  0  0  0
   39.5250   22.5640   36.4910 N   0  0  0  0  0  0  0  0  0  0  0  0
   38.5280   23.0380   30.6910 H   0  0  0  0  0  0  0  0  0  0  0  0
   36.7751   22.6379   30.5996 H   0  0  0  0  0  0  0  0  0  0  0  0
   39.1971   25.3367   30.8025 H   0  0  0  0  0  0  0  0  0  0  0  0
   35.0447   28.9133   30.7730 H   0  0  0  0  0  0  0  0  0  0  0  0
   36.7512   29.4024   30.5960 H   0  0  0  0  0  0  0  0  0  0  0  0
   38.1586   28.7450   30.9323 H   0  0  0  0  0  0  0  0  0  0  0  0
   40.9116   28.1897   31.4007 H   0  0  0  0  0  0  0  0  0  0  0  0
   40.7007   26.6532   31.3468 H   0  0  0  0  0  0  0  0  0  0  0  0
   39.6611   27.0653   28.6985 H   0  0  0  0  0  0  0  0  0  0  0  0
   40.1136   28.5522   28.6658 H   0  0  0  0  0  0  0  0  0  0  0  0
   36.8731   20.9737   35.1304 H   0  0  0  0  0  0  0  0  0  0  0  0
   36.3556   20.9569   32.4818 H   0  0  0  0  0  0  0  0  0  0  0  0
   40.8676   22.3287   38.1241 H   0  0  0  0  0  0  0  0  0  0  0  0
   39.3443   23.5507   39.7488 H   0  0  0  0  0  0  0  0  0  0  0  0
   37.1445   24.4286   38.8690 H   0  0  0  0  0  0  0  0  0  0  0  0
  1 16  1  0
  2  8  1  0
  2  1  1  0
  3  2  1  0
  4  5  1  0
  4  3  2  0
  5  7  2  0
  6  5  1  0
  7  8  1  0
  8  9  2  0
 10  4  1  0
 10 11  1  0
 12 10  1  0
 12 11  1  0
 13 22  1  0
 14 13  1  0
 15 14  2  0
 16 15  1  0
 16 17  1  0
 17 13  2  0
 18 19  2  0
 20 19  1  0
 21 20  2  0
 22 23  2  0
 22 21  1  0
 23 18  1  0
  1 24  1  0
  1 25  1  0
  3 26  1  0
  6 27  1  0
  6 28  1  0
 10 29  1  0
 11 30  1  0
 11 31  1  0
 12 32  1  0
 12 33  1  0
 14 34  1  0
 15 35  1  0
 18 36  1  0
 19 37  1  0
 20 38  1  0
M  ISO  8  24   8  25   8  26  14  29  13  30  13  31  13  32  13  33  13
M  ISO  5  34  14  35  14  36  14  37  14  38  14
M  END
>  <minimizedAffinity>  (1) 
-5.34121466

>  <minimizedRMSD>  (1) 
0.0592786595

$$$$
