
     RDKit          3D

 45 48  0  0  0  0  0  0  0  0999 V2000
   37.1910   22.7630   31.2680 C   0  0  0  0  0  0  0  0  0  0  0  0
   37.0220   24.1970   31.0720 N   0  0  0  0  0  0  0  0  0  0  0  0
   38.0180   25.0460   30.7500 C   0  0  0  0  0  0  0  0  0  0  0  0
   37.7860   26.3890   30.5810 C   0  0  0  0  0  0  0  0  0  0  0  0
   36.5290   26.9280   30.7320 C   0  0  0  0  0  0  0  0  0  0  0  0
   36.2640   28.2950   30.5650 N   0  0  0  0  0  0  0  0  0  0  0  0
   35.5660   26.0450   31.0520 N   0  0  0  0  0  0  0  0  0  0  0  0
   35.8170   24.7370   31.2130 C   0  0  0  0  0  0  0  0  0  0  0  0
   34.7890   24.0650   31.5120 O   0  0  0  0  0  0  0  0  0  0  0  0
   38.8740   27.2420   30.2430 N   0  0  0  0  0  0  0  0  0  0  0  0
   39.8750   27.5770   31.2320 C   0  0  0  0  0  0  0  0  0  0  0  0
   41.2660   27.1370   30.8480 C   0  0  0  0  0  0  0  0  0  0  0  0
   41.6470   27.8910   29.6600 N   0  0  0  0  0  0  0  0  0  0  0  0
   40.6870   27.5970   28.6300 C   0  0  0  0  0  0  0  0  0  0  0  0
   39.2650   27.9280   29.0230 C   0  0  0  0  0  0  0  0  0  0  0  0
   37.8140   22.5820   34.7950 C   0  0  0  0  0  0  0  0  0  0  0  0
   36.9640   21.4820   34.6250 C   0  0  0  0  0  0  0  0  0  0  0  0
   36.6100   21.3910   33.2870 C   0  0  0  0  0  0  0  0  0  0  0  0
   37.2610   22.4480   32.6770 N   0  0  0  0  0  0  0  0  0  0  0  0
   37.9620   23.1350   33.5750 N   0  0  0  0  0  0  0  0  0  0  0  0
   39.9730   22.7090   37.7340 C   0  0  0  0  0  0  0  0  0  0  0  0
   39.1390   23.3270   38.6970 C   0  0  0  0  0  0  0  0  0  0  0  0
   37.8530   23.6830   38.3000 C   0  0  0  0  0  0  0  0  0  0  0  0
   37.4610   23.4230   37.0210 N   0  0  0  0  0  0  0  0  0  0  0  0
   38.2850   22.8310   36.1300 C   0  0  0  0  0  0  0  0  0  0  0  0
   39.5090   22.4820   36.4780 N   0  0  0  0  0  0  0  0  0  0  0  0
   38.1207   22.4380   30.7781 H   0  0  0  0  0  0  0  0  0  0  0  0
   36.3279   22.2405   30.8297 H   0  0  0  0  0  0  0  0  0  0  0  0
   39.0379   24.6551   30.6199 H   0  0  0  0  0  0  0  0  0  0  0  0
   35.3060   28.6527   30.6885 H   0  0  0  0  0  0  0  0  0  0  0  0
   37.0273   28.9413   30.3189 H   0  0  0  0  0  0  0  0  0  0  0  0
   39.8795   28.6686   31.3680 H   0  0  0  0  0  0  0  0  0  0  0  0
   39.6092   27.0444   32.1570 H   0  0  0  0  0  0  0  0  0  0  0  0
   41.9675   27.3479   31.6687 H   0  0  0  0  0  0  0  0  0  0  0  0
   41.2908   26.0557   30.6474 H   0  0  0  0  0  0  0  0  0  0  0  0
   41.6410   28.8998   29.8677 H   0  0  0  0  0  0  0  0  0  0  0  0
   40.7435   26.5235   28.3967 H   0  0  0  0  0  0  0  0  0  0  0  0
   40.9388   28.2246   27.7624 H   0  0  0  0  0  0  0  0  0  0  0  0
   39.1818   29.0134   29.1813 H   0  0  0  0  0  0  0  0  0  0  0  0
   38.5982   27.5970   28.2132 H   0  0  0  0  0  0  0  0  0  0  0  0
   36.6314   20.8013   35.4225 H   0  0  0  0  0  0  0  0  0  0  0  0
   35.9558   20.6431   32.8151 H   0  0  0  0  0  0  0  0  0  0  0  0
   40.9975   22.4125   38.0034 H   0  0  0  0  0  0  0  0  0  0  0  0
   39.4939   23.5186   39.7204 H   0  0  0  0  0  0  0  0  0  0  0  0
   37.1639   24.1667   39.0079 H   0  0  0  0  0  0  0  0  0  0  0  0
  1 19  1  0
  2  8  1  0
  2  1  1  0
  3  2  1  0
  4  5  1  0
  4  3  2  0
  5  7  2  0
  6  5  1  0
  7  8  1  0
  8  9  2  0
 10  4  1  0
 10 11  1  0
 12 11  1  0
 13 12  1  0
 14 15  1  0
 14 13  1  0
 15 10  1  0
 16 25  1  0
 17 16  1  0
 18 17  2  0
 19 18  1  0
 19 20  1  0
 20 16  2  0
 21 22  2  0
 23 22  1  0
 24 23  2  0
 25 26  2  0
 25 24  1  0
 26 21  1  0
  1 27  1  0
  1 28  1  0
  3 29  1  0
  6 30  1  0
  6 31  1  0
 11 32  1  0
 11 33  1  0
 12 34  1  0
 12 35  1  0
 13 36  1  0
 14 37  1  0
 14 38  1  0
 15 39  1  0
 15 40  1  0
 17 41  1  0
 18 42  1  0
 21 43  1  0
 22 44  1  0
 23 45  1  0
M  ISO  8  27   8  28   8  29  14  32  13  33  13  34  13  35  13  36   5
M  ISO  8  37  13  38  13  39  13  40  13  41  14  42  14  43  14  44  14
M  ISO  1  45  14
M  END
>  <minimizedAffinity>  (1) 
-5.27410126

>  <minimizedRMSD>  (1) 
0.801380694

$$$$
