
     RDKit          3D

 38 41  0  0  0  0  0  0  0  0999 V2000
   37.2830   23.0150   31.1490 C   0  0  0  0  0  0  0  0  0  0  0  0
   37.1800   24.4530   31.0230 N   0  0  0  0  0  0  0  0  0  0  0  0
   38.2000   25.2590   30.7470 C   0  0  0  0  0  0  0  0  0  0  0  0
   38.0620   26.6420   30.6320 C   0  0  0  0  0  0  0  0  0  0  0  0
   36.8370   27.2270   30.8080 C   0  0  0  0  0  0  0  0  0  0  0  0
   36.6210   28.6010   30.7090 N   0  0  0  0  0  0  0  0  0  0  0  0
   35.8250   26.3880   31.0870 N   0  0  0  0  0  0  0  0  0  0  0  0
   36.0060   25.0540   31.1870 C   0  0  0  0  0  0  0  0  0  0  0  0
   34.9390   24.4220   31.4560 O   0  0  0  0  0  0  0  0  0  0  0  0
   39.2600   27.4110   30.3240 C   0  0  0  0  0  0  0  0  0  0  0  0
   40.3990   27.4910   31.0970 C   0  0  0  0  0  0  0  0  0  0  0  0
   41.3190   28.3030   30.5000 N   0  0  0  0  0  0  0  0  0  0  0  0
   40.7830   28.7460   29.3500 C   0  0  0  0  0  0  0  0  0  0  0  0
   39.5630   28.1980   29.2800 N   0  0  0  0  0  0  0  0  0  0  0  0
   37.8680   22.6800   34.6720 C   0  0  0  0  0  0  0  0  0  0  0  0
   37.0560   21.5630   34.4510 C   0  0  0  0  0  0  0  0  0  0  0  0
   36.7190   21.5250   33.1020 C   0  0  0  0  0  0  0  0  0  0  0  0
   37.3430   22.6310   32.5460 N   0  0  0  0  0  0  0  0  0  0  0  0
   38.0100   23.2930   33.4810 N   0  0  0  0  0  0  0  0  0  0  0  0
   39.9780   22.6620   37.6460 C   0  0  0  0  0  0  0  0  0  0  0  0
   39.1560   23.2910   38.6160 C   0  0  0  0  0  0  0  0  0  0  0  0
   37.8850   23.7040   38.2060 C   0  0  0  0  0  0  0  0  0  0  0  0
   37.5080   23.4870   36.9190 N   0  0  0  0  0  0  0  0  0  0  0  0
   38.3180   22.8850   36.0220 C   0  0  0  0  0  0  0  0  0  0  0  0
   39.5370   22.4800   36.3850 N   0  0  0  0  0  0  0  0  0  0  0  0
   38.1953   22.6713   30.6395 H   0  0  0  0  0  0  0  0  0  0  0  0
   36.3961   22.5531   30.6907 H   0  0  0  0  0  0  0  0  0  0  0  0
   39.1965   24.8160   30.6030 H   0  0  0  0  0  0  0  0  0  0  0  0
   35.6761   28.9854   30.8516 H   0  0  0  0  0  0  0  0  0  0  0  0
   37.4063   29.2316   30.4933 H   0  0  0  0  0  0  0  0  0  0  0  0
   40.5451   26.9744   32.0571 H   0  0  0  0  0  0  0  0  0  0  0  0
   41.2502   29.4201   28.6170 H   0  0  0  0  0  0  0  0  0  0  0  0
   38.9161   28.3653   28.4962 H   0  0  0  0  0  0  0  0  0  0  0  0
   36.7379   20.8377   35.2143 H   0  0  0  0  0  0  0  0  0  0  0  0
   36.0937   20.7799   32.5884 H   0  0  0  0  0  0  0  0  0  0  0  0
   40.9852   22.3193   37.9254 H   0  0  0  0  0  0  0  0  0  0  0  0
   39.5042   23.4472   39.6477 H   0  0  0  0  0  0  0  0  0  0  0  0
   37.2016   24.1964   38.9135 H   0  0  0  0  0  0  0  0  0  0  0  0
  1 18  1  0
  2  1  1  0
  2  8  1  0
  3  2  1  0
  4  3  2  0
  4  5  1  0
  5  7  2  0
  6  5  1  0
  7  8  1  0
  8  9  2  0
 10  4  1  0
 10 11  2  0
 12 11  1  0
 13 12  2  0
 14 13  1  0
 14 10  1  0
 15 24  1  0
 16 15  1  0
 17 16  2  0
 18 17  1  0
 18 19  1  0
 19 15  2  0
 20 21  2  0
 22 21  1  0
 23 22  2  0
 24 25  2  0
 24 23  1  0
 25 20  1  0
  1 26  1  0
  1 27  1  0
  3 28  1  0
  6 29  1  0
  6 30  1  0
 11 31  1  0
 13 32  1  0
 14 33  1  0
 16 34  1  0
 17 35  1  0
 20 36  1  0
 21 37  1  0
 22 38  1  0
M  ISO  8  26   8  27   8  28  14  31  14  32  14  33   9  34  14  35  14
M  ISO  3  36  14  37  14  38  14
M  END
>  <minimizedAffinity>  (1) 
-5.27827263

>  <minimizedRMSD>  (1) 
0.467944771

$$$$
