
     RDKit          3D

 37 40  0  0  0  0  0  0  0  0999 V2000
   37.3340   22.8960   31.2280 C   0  0  0  0  0  0  0  0  0  0  0  0
   37.1070   24.3230   31.0550 N   0  0  0  0  0  0  0  0  0  0  0  0
   38.0680   25.2170   30.7430 C   0  0  0  0  0  0  0  0  0  0  0  0
   37.8160   26.5570   30.5890 C   0  0  0  0  0  0  0  0  0  0  0  0
   36.5480   27.0490   30.7500 C   0  0  0  0  0  0  0  0  0  0  0  0
   36.2270   28.4140   30.6050 N   0  0  0  0  0  0  0  0  0  0  0  0
   35.5980   26.1350   31.0630 N   0  0  0  0  0  0  0  0  0  0  0  0
   35.8870   24.8280   31.2050 C   0  0  0  0  0  0  0  0  0  0  0  0
   34.8920   24.1190   31.4960 O   0  0  0  0  0  0  0  0  0  0  0  0
   38.8900   27.4290   30.2600 N   0  0  0  0  0  0  0  0  0  0  0  0
   40.1260   27.4290   30.7850 C   0  0  0  0  0  0  0  0  0  0  0  0
   40.8890   28.3950   30.2370 N   0  0  0  0  0  0  0  0  0  0  0  0
   40.0970   29.0180   29.3390 C   0  0  0  0  0  0  0  0  0  0  0  0
   38.9100   28.4160   29.3790 N   0  0  0  0  0  0  0  0  0  0  0  0
   37.8760   22.6730   34.7700 C   0  0  0  0  0  0  0  0  0  0  0  0
   37.0600   21.5610   34.5710 C   0  0  0  0  0  0  0  0  0  0  0  0
   36.7470   21.4960   33.2160 C   0  0  0  0  0  0  0  0  0  0  0  0
   37.3830   22.5690   32.6350 N   0  0  0  0  0  0  0  0  0  0  0  0
   38.0420   23.2510   33.5630 N   0  0  0  0  0  0  0  0  0  0  0  0
   39.9590   22.7330   37.7670 C   0  0  0  0  0  0  0  0  0  0  0  0
   39.1310   23.4000   38.7020 C   0  0  0  0  0  0  0  0  0  0  0  0
   37.8640   23.8140   38.2640 C   0  0  0  0  0  0  0  0  0  0  0  0
   37.5020   23.5560   36.9770 N   0  0  0  0  0  0  0  0  0  0  0  0
   38.3150   22.9200   36.1230 C   0  0  0  0  0  0  0  0  0  0  0  0
   39.5260   22.5130   36.5080 N   0  0  0  0  0  0  0  0  0  0  0  0
   38.2886   22.6194   30.7565 H   0  0  0  0  0  0  0  0  0  0  0  0
   36.5098   22.3401   30.7572 H   0  0  0  0  0  0  0  0  0  0  0  0
   39.0981   24.8561   30.6062 H   0  0  0  0  0  0  0  0  0  0  0  0
   35.2561   28.7316   30.7371 H   0  0  0  0  0  0  0  0  0  0  0  0
   36.9633   29.0937   30.3669 H   0  0  0  0  0  0  0  0  0  0  0  0
   40.4709   26.7308   31.5619 H   0  0  0  0  0  0  0  0  0  0  0  0
   40.3791   29.8641   28.6951 H   0  0  0  0  0  0  0  0  0  0  0  0
   36.7227   20.8586   35.3475 H   0  0  0  0  0  0  0  0  0  0  0  0
   36.1213   20.7433   32.7141 H   0  0  0  0  0  0  0  0  0  0  0  0
   40.9605   22.3923   38.0685 H   0  0  0  0  0  0  0  0  0  0  0  0
   39.4681   23.5865   39.7323 H   0  0  0  0  0  0  0  0  0  0  0  0
   37.1772   24.3363   38.9463 H   0  0  0  0  0  0  0  0  0  0  0  0
  1 18  1  0
  2  8  1  0
  2  1  1  0
  3  2  1  0
  4  3  2  0
  4  5  1  0
  5  7  2  0
  6  5  1  0
  7  8  1  0
  8  9  2  0
 10  4  1  0
 10 11  1  0
 12 11  2  0
 13 14  2  0
 13 12  1  0
 14 10  1  0
 15 24  1  0
 16 15  1  0
 17 16  2  0
 18 17  1  0
 18 19  1  0
 19 15  2  0
 20 21  2  0
 22 21  1  0
 23 22  2  0
 24 25  2  0
 24 23  1  0
 25 20  1  0
  1 26  1  0
  1 27  1  0
  3 28  1  0
  6 29  1  0
  6 30  1  0
 11 31  1  0
 13 32  1  0
 16 33  1  0
 17 34  1  0
 20 35  1  0
 21 36  1  0
 22 37  1  0
M  ISO  8  26   8  27   8  28  14  31  14  32  14  33  14  34  14  35  14
M  ISO  2  36  14  37  14
M  END
>  <minimizedAffinity>  (1) 
-5.33643723

>  <minimizedRMSD>  (1) 
0.376733869

$$$$
