
     RDKit          3D

 38 41  0  0  0  0  0  0  0  0999 V2000
   37.3150   22.8200   31.2300 C   0  0  0  0  0  0  0  0  0  0  0  0
   37.1200   24.2410   31.0380 N   0  0  0  0  0  0  0  0  0  0  0  0
   38.0910   25.1010   30.6880 C   0  0  0  0  0  0  0  0  0  0  0  0
   37.8500   26.4530   30.5180 C   0  0  0  0  0  0  0  0  0  0  0  0
   36.5970   26.9760   30.7030 C   0  0  0  0  0  0  0  0  0  0  0  0
   36.3150   28.3480   30.5390 N   0  0  0  0  0  0  0  0  0  0  0  0
   35.6420   26.0980   31.0530 N   0  0  0  0  0  0  0  0  0  0  0  0
   35.9220   24.7890   31.2080 C   0  0  0  0  0  0  0  0  0  0  0  0
   34.9030   24.1040   31.5400 O   0  0  0  0  0  0  0  0  0  0  0  0
   38.8990   27.3490   30.1450 N   0  0  0  0  0  0  0  0  0  0  0  0
   39.1960   28.2210   29.1780 C   0  0  0  0  0  0  0  0  0  0  0  0
   40.4530   28.7530   29.4830 C   0  0  0  0  0  0  0  0  0  0  0  0
   40.8840   28.1890   30.6250 N   0  0  0  0  0  0  0  0  0  0  0  0
   39.9310   27.3220   31.0390 C   0  0  0  0  0  0  0  0  0  0  0  0
   37.8730   22.6480   34.7770 C   0  0  0  0  0  0  0  0  0  0  0  0
   37.0390   21.5450   34.5950 C   0  0  0  0  0  0  0  0  0  0  0  0
   36.7050   21.4380   33.2590 C   0  0  0  0  0  0  0  0  0  0  0  0
   37.3550   22.5000   32.6460 N   0  0  0  0  0  0  0  0  0  0  0  0
   38.0350   23.1980   33.5540 N   0  0  0  0  0  0  0  0  0  0  0  0
   39.9490   22.7330   37.7690 C   0  0  0  0  0  0  0  0  0  0  0  0
   39.1310   23.4200   38.6970 C   0  0  0  0  0  0  0  0  0  0  0  0
   37.8670   23.8400   38.2610 C   0  0  0  0  0  0  0  0  0  0  0  0
   37.5060   23.5660   36.9820 N   0  0  0  0  0  0  0  0  0  0  0  0
   38.3170   22.9060   36.1200 C   0  0  0  0  0  0  0  0  0  0  0  0
   39.5250   22.4960   36.5140 N   0  0  0  0  0  0  0  0  0  0  0  0
   38.2644   22.5184   30.7635 H   0  0  0  0  0  0  0  0  0  0  0  0
   36.4767   22.2795   30.7661 H   0  0  0  0  0  0  0  0  0  0  0  0
   39.1103   24.7181   30.5315 H   0  0  0  0  0  0  0  0  0  0  0  0
   35.3581   28.6985   30.6883 H   0  0  0  0  0  0  0  0  0  0  0  0
   37.0660   28.9995   30.2699 H   0  0  0  0  0  0  0  0  0  0  0  0
   38.5715   28.4726   28.3081 H   0  0  0  0  0  0  0  0  0  0  0  0
   40.9959   29.5040   28.8903 H   0  0  0  0  0  0  0  0  0  0  0  0
   39.9795   26.6994   31.9445 H   0  0  0  0  0  0  0  0  0  0  0  0
   36.7000   20.8661   35.3913 H   0  0  0  0  0  0  0  0  0  0  0  0
   36.0652   20.6788   32.7855 H   0  0  0  0  0  0  0  0  0  0  0  0
   40.9465   22.3875   38.0781 H   0  0  0  0  0  0  0  0  0  0  0  0
   39.4746   23.6172   39.7232 H   0  0  0  0  0  0  0  0  0  0  0  0
   37.1859   24.3773   38.9374 H   0  0  0  0  0  0  0  0  0  0  0  0
  1 18  1  0
  2  8  1  0
  2  1  1  0
  3  2  1  0
  4  3  2  0
  4  5  1  0
  5  7  2  0
  6  5  1  0
  7  8  1  0
  8  9  2  0
 10  4  1  0
 10 14  1  0
 11 12  2  0
 11 10  1  0
 12 13  1  0
 13 14  2  0
 15 24  1  0
 16 15  1  0
 17 16  2  0
 18 17  1  0
 18 19  1  0
 19 15  2  0
 20 21  2  0
 22 21  1  0
 23 22  2  0
 24 25  2  0
 24 23  1  0
 25 20  1  0
  1 26  1  0
  1 27  1  0
  3 28  1  0
  6 29  1  0
  6 30  1  0
 11 31  1  0
 12 32  1  0
 14 33  1  0
 16 34  1  0
 17 35  1  0
 20 36  1  0
 21 37  1  0
 22 38  1  0
M  ISO  8  26   8  27   8  28  14  31  14  32  14  33  14  34  14  35  14
M  ISO  3  36  14  37  14  38  14
M  END
>  <minimizedAffinity>  (1) 
-5.23946428

>  <minimizedRMSD>  (1) 
0.482971817

$$$$
