
     RDKit          3D

 37 39  0  0  0  0  0  0  0  0999 V2000
   37.5300   23.1690   31.1320 C   0  0  0  0  0  0  0  0  0  0  0  0
   37.2300   24.5830   31.0180 N   0  0  0  0  0  0  0  0  0  0  0  0
   38.1520   25.5580   30.8470 C   0  0  0  0  0  0  0  0  0  0  0  0
   37.7850   26.8810   30.7440 C   0  0  0  0  0  0  0  0  0  0  0  0
   36.4640   27.2780   30.8100 C   0  0  0  0  0  0  0  0  0  0  0  0
   36.0800   28.6220   30.7030 N   0  0  0  0  0  0  0  0  0  0  0  0
   35.5770   26.2770   30.9810 N   0  0  0  0  0  0  0  0  0  0  0  0
   35.9610   24.9920   31.0790 C   0  0  0  0  0  0  0  0  0  0  0  0
   34.9920   24.1940   31.2370 O   0  0  0  0  0  0  0  0  0  0  0  0
   38.7950   27.9590   30.5560 C   0  0  0  0  0  0  0  0  0  0  0  0
   40.2010   27.5350   30.8650 C   0  0  0  0  0  0  0  0  0  0  0  0
   37.9570   22.7870   34.6800 C   0  0  0  0  0  0  0  0  0  0  0  0
   37.1530   21.6710   34.3990 C   0  0  0  0  0  0  0  0  0  0  0  0
   36.8840   21.6620   33.0360 C   0  0  0  0  0  0  0  0  0  0  0  0
   37.5320   22.7710   32.5310 N   0  0  0  0  0  0  0  0  0  0  0  0
   38.1520   23.4140   33.5020 N   0  0  0  0  0  0  0  0  0  0  0  0
   39.9280   22.7180   37.7440 C   0  0  0  0  0  0  0  0  0  0  0  0
   39.0600   23.3230   38.6910 C   0  0  0  0  0  0  0  0  0  0  0  0
   37.8080   23.7380   38.2310 C   0  0  0  0  0  0  0  0  0  0  0  0
   37.4940   23.5430   36.9240 N   0  0  0  0  0  0  0  0  0  0  0  0
   38.3440   22.9660   36.0520 C   0  0  0  0  0  0  0  0  0  0  0  0
   39.5390   22.5640   36.4690 N   0  0  0  0  0  0  0  0  0  0  0  0
   38.5200   22.9705   30.6956 H   0  0  0  0  0  0  0  0  0  0  0  0
   36.7624   22.5930   30.5943 H   0  0  0  0  0  0  0  0  0  0  0  0
   39.2168   25.2883   30.7890 H   0  0  0  0  0  0  0  0  0  0  0  0
   35.0840   28.8789   30.7571 H   0  0  0  0  0  0  0  0  0  0  0  0
   36.7938   29.3526   30.5703 H   0  0  0  0  0  0  0  0  0  0  0  0
   38.7558   28.2915   29.5082 H   0  0  0  0  0  0  0  0  0  0  0  0
   38.5407   28.7620   31.2635 H   0  0  0  0  0  0  0  0  0  0  0  0
   40.3401   27.4931   31.9554 H   0  0  0  0  0  0  0  0  0  0  0  0
   40.3874   26.5407   30.4331 H   0  0  0  0  0  0  0  0  0  0  0  0
   40.9061   28.2605   30.4331 H   0  0  0  0  0  0  0  0  0  0  0  0
   36.7974   20.9314   35.1315 H   0  0  0  0  0  0  0  0  0  0  0  0
   36.2832   20.9282   32.4787 H   0  0  0  0  0  0  0  0  0  0  0  0
   40.9247   22.3737   38.0572 H   0  0  0  0  0  0  0  0  0  0  0  0
   39.3602   23.4589   39.7405 H   0  0  0  0  0  0  0  0  0  0  0  0
   37.0896   24.2140   38.9147 H   0  0  0  0  0  0  0  0  0  0  0  0
  1 15  1  0
  2  8  1  0
  2  1  1  0
  3  2  1  0
  4  5  1  0
  4  3  2  0
  5  7  2  0
  6  5  1  0
  7  8  1  0
  8  9  2  0
 10  4  1  0
 10 11  1  0
 12 21  1  0
 13 12  1  0
 14 13  2  0
 15 14  1  0
 15 16  1  0
 16 12  2  0
 17 18  2  0
 19 18  1  0
 20 19  2  0
 21 22  2  0
 21 20  1  0
 22 17  1  0
  1 23  1  0
  1 24  1  0
  3 25  1  0
  6 26  1  0
  6 27  1  0
 10 28  1  0
 10 29  1  0
 11 30  1  0
 11 31  1  0
 11 32  1  0
 13 33  1  0
 14 34  1  0
 17 35  1  0
 18 36  1  0
 19 37  1  0
M  ISO  8  23   8  24   8  25  14  28   8  29   8  30   8  31   8  32   8
M  ISO  5  33  14  34  14  35  14  36  14  37  14
M  END
>  <minimizedAffinity>  (1) 
-5.20923424

>  <minimizedRMSD>  (1) 
0.228125185

$$$$
