
     RDKit          3D

 29 29  0  0  0  0  0  0  0  0999 V2000
   40.0130   25.1390   35.2820 C   0  0  0  0  0  0  0  0  0  0  0  0
   40.0040   23.7400   35.4800 C   0  0  0  0  0  0  0  0  0  0  0  0
   39.1270   23.0390   34.6670 C   0  0  0  0  0  0  0  0  0  0  0  0
   38.3580   23.6870   33.7660 N   0  0  0  0  0  0  0  0  0  0  0  0
   38.3930   25.0310   33.6040 C   0  0  0  0  0  0  0  0  0  0  0  0
   39.2330   25.7390   34.3750 N   0  0  0  0  0  0  0  0  0  0  0  0
   40.8340   23.1070   36.4390 N   0  0  0  0  0  0  0  0  0  0  0  0
   40.3800   22.3660   37.5390 C   0  0  0  0  0  0  0  0  0  0  0  0
   39.3100   22.8420   38.1480 N   0  0  0  0  0  0  0  0  0  0  0  0
   41.1420   21.1730   37.8700 N   0  0  0  0  0  0  0  0  0  0  0  0
   38.8980   22.3490   38.9540 H   0  0  0  0  0  0  0  0  0  0  0  0
   37.5420   25.7320   32.6090 C   0  0  0  0  0  0  0  0  0  0  0  0
   38.3730   26.1980   31.4070 C   0  0  0  0  0  0  0  0  0  0  0  0
   36.4800   24.8050   32.0360 C   0  0  0  0  0  0  0  0  0  0  0  0
   36.8560   26.9390   33.1710 C   0  0  0  0  0  0  0  0  0  0  0  0
   40.6852   25.7571   35.8953 H   0  0  0  0  0  0  0  0  0  0  0  0
   39.0569   21.9449   34.7567 H   0  0  0  0  0  0  0  0  0  0  0  0
   41.8527   23.1989   36.3179 H   0  0  0  0  0  0  0  0  0  0  0  0
   40.8590   20.5859   38.6676 H   0  0  0  0  0  0  0  0  0  0  0  0
   41.9649   20.9148   37.3069 H   0  0  0  0  0  0  0  0  0  0  0  0
   39.2805   26.7069   31.7639 H   0  0  0  0  0  0  0  0  0  0  0  0
   38.6565   25.3273   30.7975 H   0  0  0  0  0  0  0  0  0  0  0  0
   37.7779   26.8940   30.7975 H   0  0  0  0  0  0  0  0  0  0  0  0
   35.9299   24.3248   32.8587 H   0  0  0  0  0  0  0  0  0  0  0  0
   35.7806   25.3867   31.4176 H   0  0  0  0  0  0  0  0  0  0  0  0
   36.9618   24.0334   31.4176 H   0  0  0  0  0  0  0  0  0  0  0  0
   36.8803   26.8962   34.2699 H   0  0  0  0  0  0  0  0  0  0  0  0
   37.3728   27.8474   32.8279 H   0  0  0  0  0  0  0  0  0  0  0  0
   35.8111   26.9599   32.8279 H   0  0  0  0  0  0  0  0  0  0  0  0
  1  2  2  0
  2  7  1  0
  3  2  1  0
  4  3  2  0
  5  4  1  0
  5  6  2  0
  6  1  1  0
  7  8  1  0
  8 10  1  0
  8  9  2  0
  9 11  1  0
 12 15  1  0
 12  5  1  0
 13 12  1  0
 14 12  1  0
  1 16  1  0
  3 17  1  0
  7 18  1  0
 10 19  1  0
 10 20  1  0
 13 21  1  0
 13 22  1  0
 13 23  1  0
 14 24  1  0
 14 25  1  0
 14 26  1  0
 15 27  1  0
 15 28  1  0
 15 29  1  0
M  ISO  8  16  14  17  14  21   8  22   8  23   8  24   8  25   8  26   8
M  ISO  3  27   8  28   8  29   8
M  END
>  <minimizedAffinity>  (1) 
-3.98078465

>  <minimizedRMSD>  (1) 
0.681262791

$$$$
