
     RDKit          3D

 43 46  0  0  0  0  0  0  0  0999 V2000
   37.2850   22.8090   31.2420 C   0  0  0  0  0  0  0  0  0  0  0  0
   37.1020   24.2370   31.0460 N   0  0  0  0  0  0  0  0  0  0  0  0
   38.0810   25.1030   30.7070 C   0  0  0  0  0  0  0  0  0  0  0  0
   37.8340   26.4460   30.5380 C   0  0  0  0  0  0  0  0  0  0  0  0
   36.5770   26.9640   30.7070 C   0  0  0  0  0  0  0  0  0  0  0  0
   36.3120   28.3350   30.5360 N   0  0  0  0  0  0  0  0  0  0  0  0
   35.6270   26.0810   31.0420 N   0  0  0  0  0  0  0  0  0  0  0  0
   35.8920   24.7680   31.2020 C   0  0  0  0  0  0  0  0  0  0  0  0
   34.8740   24.0920   31.5170 O   0  0  0  0  0  0  0  0  0  0  0  0
   38.9470   27.2800   30.1790 N   0  0  0  0  0  0  0  0  0  0  0  0
   40.0940   27.8570   30.8500 C   0  0  0  0  0  0  0  0  0  0  0  0
   41.2310   27.3190   29.9810 C   0  0  0  0  0  0  0  0  0  0  0  0
   40.6910   27.5550   28.5950 C   0  0  0  0  0  0  0  0  0  0  0  0
   39.2190   27.8210   28.8430 C   0  0  0  0  0  0  0  0  0  0  0  0
   37.8620   22.6430   34.7730 C   0  0  0  0  0  0  0  0  0  0  0  0
   37.0390   21.5290   34.5990 C   0  0  0  0  0  0  0  0  0  0  0  0
   36.7060   21.4340   33.2540 C   0  0  0  0  0  0  0  0  0  0  0  0
   37.3460   22.5030   32.6510 N   0  0  0  0  0  0  0  0  0  0  0  0
   38.0160   23.1970   33.5580 N   0  0  0  0  0  0  0  0  0  0  0  0
   39.9530   22.7290   37.7630 C   0  0  0  0  0  0  0  0  0  0  0  0
   39.1390   23.4160   38.6950 C   0  0  0  0  0  0  0  0  0  0  0  0
   37.8730   23.8370   38.2630 C   0  0  0  0  0  0  0  0  0  0  0  0
   37.5040   23.5640   36.9850 N   0  0  0  0  0  0  0  0  0  0  0  0
   38.3100   22.9030   36.1190 C   0  0  0  0  0  0  0  0  0  0  0  0
   39.5020   22.5030   36.5140 N   0  0  0  0  0  0  0  0  0  0  0  0
   38.2224   22.4934   30.7607 H   0  0  0  0  0  0  0  0  0  0  0  0
   36.4345   22.2735   30.7950 H   0  0  0  0  0  0  0  0  0  0  0  0
   39.1036   24.7246   30.5620 H   0  0  0  0  0  0  0  0  0  0  0  0
   35.3565   28.6955   30.6699 H   0  0  0  0  0  0  0  0  0  0  0  0
   37.0735   28.9783   30.2769 H   0  0  0  0  0  0  0  0  0  0  0  0
   40.0600   28.9564   30.8379 H   0  0  0  0  0  0  0  0  0  0  0  0
   40.1748   27.6019   31.9170 H   0  0  0  0  0  0  0  0  0  0  0  0
   42.1635   27.8778   30.1490 H   0  0  0  0  0  0  0  0  0  0  0  0
   41.4935   26.2707   30.1864 H   0  0  0  0  0  0  0  0  0  0  0  0
   40.8309   26.6679   27.9599 H   0  0  0  0  0  0  0  0  0  0  0  0
   41.1969   28.3766   28.0668 H   0  0  0  0  0  0  0  0  0  0  0  0
   39.0128   28.9011   28.8155 H   0  0  0  0  0  0  0  0  0  0  0  0
   38.5834   27.3557   28.0752 H   0  0  0  0  0  0  0  0  0  0  0  0
   36.7099   20.8425   35.3929 H   0  0  0  0  0  0  0  0  0  0  0  0
   36.0719   20.6748   32.7728 H   0  0  0  0  0  0  0  0  0  0  0  0
   40.9534   22.3798   38.0584 H   0  0  0  0  0  0  0  0  0  0  0  0
   39.4865   23.6124   39.7200 H   0  0  0  0  0  0  0  0  0  0  0  0
   37.1957   24.3750   38.9425 H   0  0  0  0  0  0  0  0  0  0  0  0
  1 18  1  0
  2  8  1  0
  2  1  1  0
  3  2  1  0
  4  3  2  0
  4  5  1  0
  5  7  2  0
  6  5  1  0
  7  8  1  0
  8  9  2  0
 10  4  1  0
 10 11  1  0
 12 11  1  0
 13 14  1  0
 13 12  1  0
 14 10  1  0
 15 24  1  0
 16 15  1  0
 17 16  2  0
 18 17  1  0
 18 19  1  0
 19 15  2  0
 20 21  2  0
 22 21  1  0
 23 22  2  0
 24 25  2  0
 24 23  1  0
 25 20  1  0
  1 26  1  0
  1 27  1  0
  3 28  1  0
  6 29  1  0
  6 30  1  0
 11 31  1  0
 11 32  1  0
 12 33  1  0
 12 34  1  0
 13 35  1  0
 13 36  1  0
 14 37  1  0
 14 38  1  0
 16 39  1  0
 17 40  1  0
 20 41  1  0
 21 42  1  0
 22 43  1  0
M  ISO  8  26   8  27   8  28  14  31  13  32  13  33  13  34  13  35  13
M  ISO  8  36  13  37  13  38  13  39  14  40  14  41  14  42  14  43  14
M  END
>  <minimizedAffinity>  (1) 
-5.18627501

>  <minimizedRMSD>  (1) 
0.489944845

$$$$
