
     RDKit          3D

 31 33  0  0  0  0  0  0  0  0999 V2000
   39.5440   22.7290   37.7210 C   0  0  0  0  0  0  0  0  0  0  0  0
   38.8440   23.4500   38.6840 C   0  0  0  0  0  0  0  0  0  0  0  0
   37.9220   24.3860   38.2420 C   0  0  0  0  0  0  0  0  0  0  0  0
   37.7390   24.5630   36.9170 N   0  0  0  0  0  0  0  0  0  0  0  0
   38.4260   23.8580   35.9780 C   0  0  0  0  0  0  0  0  0  0  0  0
   39.3040   22.9660   36.4560 N   0  0  0  0  0  0  0  0  0  0  0  0
   38.0580   24.2220   34.6210 C   0  0  0  0  0  0  0  0  0  0  0  0
   38.1040   23.3480   33.5900 N   0  0  0  0  0  0  0  0  0  0  0  0
   37.7850   23.6180   32.3410 C   0  0  0  0  0  0  0  0  0  0  0  0
   37.3680   24.8300   31.9640 N   0  0  0  0  0  0  0  0  0  0  0  0
   37.2790   25.8040   32.9190 C   0  0  0  0  0  0  0  0  0  0  0  0
   36.8550   27.0490   32.5560 C   0  0  0  0  0  0  0  0  0  0  0  0
   36.7500   28.0580   33.4860 C   0  0  0  0  0  0  0  0  0  0  0  0
   37.0960   27.7400   34.7980 C   0  0  0  0  0  0  0  0  0  0  0  0
   37.5160   26.4680   35.1060 C   0  0  0  0  0  0  0  0  0  0  0  0
   37.6250   25.4590   34.1990 C   0  0  0  0  0  0  0  0  0  0  0  0
   40.4950   21.7410   38.0690 N   0  0  0  0  0  0  0  0  0  0  0  0
   41.7350   21.5070   37.4340 C   0  0  0  0  0  0  0  0  0  0  0  0
   42.1720   22.4590   36.6780 N   0  0  0  0  0  0  0  0  0  0  0  0
   42.4390   20.2860   37.6340 N   0  0  0  0  0  0  0  0  0  0  0  0
   43.1090   22.3020   36.2120 H   0  0  0  0  0  0  0  0  0  0  0  0
   39.0163   23.2830   39.7575 H   0  0  0  0  0  0  0  0  0  0  0  0
   37.3442   24.9797   38.9657 H   0  0  0  0  0  0  0  0  0  0  0  0
   37.8643   22.8221   31.5859 H   0  0  0  0  0  0  0  0  0  0  0  0
   36.5937   27.2489   31.5063 H   0  0  0  0  0  0  0  0  0  0  0  0
   36.4096   29.0662   33.2074 H   0  0  0  0  0  0  0  0  0  0  0  0
   37.0331   28.5054   35.5855 H   0  0  0  0  0  0  0  0  0  0  0  0
   37.7808   26.2518   36.1515 H   0  0  0  0  0  0  0  0  0  0  0  0
   40.2597   21.1313   38.8651 H   0  0  0  0  0  0  0  0  0  0  0  0
   43.3422   20.1294   37.1643 H   0  0  0  0  0  0  0  0  0  0  0  0
   42.0452   19.5591   38.2484 H   0  0  0  0  0  0  0  0  0  0  0  0
  1 17  1  0
  1  2  2  0
  3  2  1  0
  4  3  2  0
  5  6  2  0
  5  4  1  0
  6  1  1  0
  7  5  1  0
  8  7  2  0
  9  8  1  0
 10  9  2  0
 10 11  1  0
 11 16  2  0
 12 11  1  0
 12 13  2  0
 13 14  1  0
 14 15  2  0
 16  7  1  0
 16 15  1  0
 18 20  1  0
 18 17  1  0
 19 18  2  0
 21 19  1  0
  2 22  1  0
  3 23  1  0
  9 24  1  0
 12 25  1  0
 13 26  1  0
 14 27  1  0
 15 28  1  0
 17 29  1  0
 20 30  1  0
 20 31  1  0
M  ISO  7  22  14  23  14  24  14  25  14  26  14  27  14  28  14
M  END
>  <minimizedAffinity>  (1) 
-6.3146348

>  <minimizedRMSD>  (1) 
0.502338171

$$$$
