
     RDKit          3D

 30 31  0  0  0  0  0  0  0  0999 V2000
   39.5370   22.8900   37.6210 C   0  0  0  0  0  0  0  0  0  0  0  0
   38.7120   23.3350   38.6580 C   0  0  0  0  0  0  0  0  0  0  0  0
   37.9310   24.4650   38.4580 C   0  0  0  0  0  0  0  0  0  0  0  0
   37.9940   25.1050   37.2500 N   0  0  0  0  0  0  0  0  0  0  0  0
   38.7970   24.6540   36.2690 C   0  0  0  0  0  0  0  0  0  0  0  0
   39.5680   23.5490   36.4500 N   0  0  0  0  0  0  0  0  0  0  0  0
   40.3510   21.7450   37.7760 N   0  0  0  0  0  0  0  0  0  0  0  0
   41.6760   21.6120   37.2490 C   0  0  0  0  0  0  0  0  0  0  0  0
   42.2790   22.7040   36.8970 N   0  0  0  0  0  0  0  0  0  0  0  0
   42.2700   20.3300   37.1300 N   0  0  0  0  0  0  0  0  0  0  0  0
   43.2480   22.5820   36.4840 H   0  0  0  0  0  0  0  0  0  0  0  0
   38.9110   26.6860   32.5510 C   0  0  0  0  0  0  0  0  0  0  0  0
   38.0710   25.6360   32.7520 C   0  0  0  0  0  0  0  0  0  0  0  0
   38.0240   24.9660   33.9540 C   0  0  0  0  0  0  0  0  0  0  0  0
   38.8420   25.3560   34.9950 C   0  0  0  0  0  0  0  0  0  0  0  0
   39.7040   26.4140   34.8290 C   0  0  0  0  0  0  0  0  0  0  0  0
   39.7090   27.0460   33.6040 C   0  0  0  0  0  0  0  0  0  0  0  0
   38.9560   27.5210   31.0190 S   0  0  0  0  0  0  0  0  0  0  0  0
   38.8380   26.5110   29.9130 O   0  0  0  0  0  0  0  0  0  0  0  0
   37.8210   28.5000   30.8860 O   0  0  0  0  0  0  0  0  0  0  0  0
   38.6822   22.7981   39.6176 H   0  0  0  0  0  0  0  0  0  0  0  0
   37.2732   24.8393   39.2562 H   0  0  0  0  0  0  0  0  0  0  0  0
   39.9641   20.9505   38.3051 H   0  0  0  0  0  0  0  0  0  0  0  0
   43.2231   20.2372   36.7506 H   0  0  0  0  0  0  0  0  0  0  0  0
   41.7484   19.4915   37.4229 H   0  0  0  0  0  0  0  0  0  0  0  0
   37.4116   25.3133   31.9328 H   0  0  0  0  0  0  0  0  0  0  0  0
   37.3340   24.1193   34.0847 H   0  0  0  0  0  0  0  0  0  0  0  0
   40.3653   26.7440   35.6437 H   0  0  0  0  0  0  0  0  0  0  0  0
   40.3971   27.8926   33.4635 H   0  0  0  0  0  0  0  0  0  0  0  0
   40.1381   28.2095   30.9457 H   0  0  0  0  0  0  0  0  0  0  0  0
  1  7  1  0
  1  2  2  0
  3  2  1  0
  4  3  2  0
  5  6  2  0
  5  4  1  0
  6  1  1  0
  8  7  1  0
  9  8  2  0
 10  8  1  0
 11  9  1  0
 12 13  2  0
 12 17  1  0
 13 14  1  0
 14 15  2  0
 15  5  1  0
 16 15  1  0
 17 16  2  0
 18 12  1  0
 19 18  2  0
 20 18  2  0
  2 21  1  0
  3 22  1  0
  7 23  1  0
 10 24  1  0
 10 25  1  0
 13 26  1  0
 14 27  1  0
 16 28  1  0
 17 29  1  0
 18 30  1  0
M  ISO  7  21  14  22  14  26  14  27  14  28  14  29  14  30  11
M  END
>  <minimizedAffinity>  (1) 
-5.35885286

>  <minimizedRMSD>  (1) 
1.27654111

$$$$
