
     RDKit          3D

 24 25  0  0  0  0  0  0  0  0999 V2000
   39.5040   22.7670   37.6140 C   0  0  0  0  0  0  0  0  0  0  0  0
   38.8500   23.4450   38.6520 C   0  0  0  0  0  0  0  0  0  0  0  0
   37.9470   24.4400   38.3060 C   0  0  0  0  0  0  0  0  0  0  0  0
   37.7260   24.7250   37.0040 N   0  0  0  0  0  0  0  0  0  0  0  0
   38.3820   24.0430   36.0200 C   0  0  0  0  0  0  0  0  0  0  0  0
   39.2640   23.0710   36.3360 N   0  0  0  0  0  0  0  0  0  0  0  0
   38.0900   24.4060   34.6720 N   0  0  0  0  0  0  0  0  0  0  0  0
   37.6710   25.6900   34.4890 C   0  0  0  0  0  0  0  0  0  0  0  0
   37.4350   25.8700   33.1370 C   0  0  0  0  0  0  0  0  0  0  0  0
   37.7150   24.6930   32.5270 N   0  0  0  0  0  0  0  0  0  0  0  0
   38.1120   23.8080   33.4640 C   0  0  0  0  0  0  0  0  0  0  0  0
   40.4350   21.7420   37.9290 N   0  0  0  0  0  0  0  0  0  0  0  0
   41.6810   21.5550   37.2890 C   0  0  0  0  0  0  0  0  0  0  0  0
   42.1510   22.5700   36.6190 N   0  0  0  0  0  0  0  0  0  0  0  0
   42.3770   20.3180   37.3800 N   0  0  0  0  0  0  0  0  0  0  0  0
   43.0850   22.4190   36.1540 H   0  0  0  0  0  0  0  0  0  0  0  0
   39.0461   23.1966   39.7055 H   0  0  0  0  0  0  0  0  0  0  0  0
   37.4121   24.9957   39.0903 H   0  0  0  0  0  0  0  0  0  0  0  0
   37.5432   26.4482   35.2756 H   0  0  0  0  0  0  0  0  0  0  0  0
   37.0865   26.7929   32.6504 H   0  0  0  0  0  0  0  0  0  0  0  0
   38.4065   22.7655   33.2732 H   0  0  0  0  0  0  0  0  0  0  0  0
   40.1830   21.0849   38.6811 H   0  0  0  0  0  0  0  0  0  0  0  0
   43.2841   20.2014   36.9063 H   0  0  0  0  0  0  0  0  0  0  0  0
   41.9739   19.5387   37.9196 H   0  0  0  0  0  0  0  0  0  0  0  0
  1 12  1  0
  1  2  2  0
  3  2  1  0
  4  3  2  0
  5  6  2  0
  5  4  1  0
  6  1  1  0
  7  5  1  0
  8  7  1  0
  9  8  2  0
 10  9  1  0
 10 11  2  0
 11  7  1  0
 13 15  1  0
 13 12  1  0
 14 13  2  0
 16 14  1  0
  2 17  1  0
  3 18  1  0
  8 19  1  0
  9 20  1  0
 11 21  1  0
 12 22  1  0
 15 23  1  0
 15 24  1  0
M  ISO  5  17  14  18  14  19  14  20  14  21  14
M  END
>  <minimizedAffinity>  (1) 
-5.11038733

>  <minimizedRMSD>  (1) 
0.432465076

$$$$
