
     RDKit          3D

 27 28  0  0  0  0  0  0  0  0999 V2000
   39.5360   22.9140   37.5880 C   0  0  0  0  0  0  0  0  0  0  0  0
   38.7080   23.3290   38.6570 C   0  0  0  0  0  0  0  0  0  0  0  0
   37.9250   24.4530   38.4360 C   0  0  0  0  0  0  0  0  0  0  0  0
   37.9860   25.0820   37.2430 N   0  0  0  0  0  0  0  0  0  0  0  0
   38.7860   24.6600   36.2450 C   0  0  0  0  0  0  0  0  0  0  0  0
   39.5720   23.5660   36.4100 N   0  0  0  0  0  0  0  0  0  0  0  0
   38.8290   25.3670   34.9630 C   0  0  0  0  0  0  0  0  0  0  0  0
   39.7790   26.3610   34.7860 C   0  0  0  0  0  0  0  0  0  0  0  0
   39.8840   27.0820   33.5900 C   0  0  0  0  0  0  0  0  0  0  0  0
   38.9750   26.7230   32.6250 C   0  0  0  0  0  0  0  0  0  0  0  0
   38.0140   25.7550   32.7330 C   0  0  0  0  0  0  0  0  0  0  0  0
   37.9530   25.0650   33.9480 C   0  0  0  0  0  0  0  0  0  0  0  0
   40.3560   21.7560   37.7870 N   0  0  0  0  0  0  0  0  0  0  0  0
   41.6670   21.6110   37.2530 C   0  0  0  0  0  0  0  0  0  0  0  0
   42.2730   22.6960   36.8890 N   0  0  0  0  0  0  0  0  0  0  0  0
   42.2680   20.3320   37.1330 N   0  0  0  0  0  0  0  0  0  0  0  0
   43.2550   22.5990   36.5200 H   0  0  0  0  0  0  0  0  0  0  0  0
   38.6859   22.7883   39.6147 H   0  0  0  0  0  0  0  0  0  0  0  0
   37.2594   24.8288   39.2271 H   0  0  0  0  0  0  0  0  0  0  0  0
   40.4711   26.5903   35.6097 H   0  0  0  0  0  0  0  0  0  0  0  0
   40.6338   27.8719   33.4359 H   0  0  0  0  0  0  0  0  0  0  0  0
   39.0245   27.2677   31.6706 H   0  0  0  0  0  0  0  0  0  0  0  0
   37.3242   25.5308   31.9060 H   0  0  0  0  0  0  0  0  0  0  0  0
   37.1998   24.2763   34.0920 H   0  0  0  0  0  0  0  0  0  0  0  0
   39.9739   20.9827   38.3499 H   0  0  0  0  0  0  0  0  0  0  0  0
   43.2178   20.2437   36.7444 H   0  0  0  0  0  0  0  0  0  0  0  0
   41.7547   19.4914   37.4344 H   0  0  0  0  0  0  0  0  0  0  0  0
  1 13  1  0
  1  2  2  0
  3  2  1  0
  4  3  2  0
  5  6  2  0
  5  4  1  0
  6  1  1  0
  7  5  1  0
  8  7  2  0
  9  8  1  0
 10 11  1  0
 10  9  2  0
 11 12  2  0
 12  7  1  0
 14 13  1  0
 15 14  2  0
 16 14  1  0
 17 15  1  0
  2 18  1  0
  3 19  1  0
  8 20  1  0
  9 21  1  0
 10 22  1  0
 11 23  1  0
 12 24  1  0
 13 25  1  0
 16 26  1  0
 16 27  1  0
M  ISO  7  18  14  19  14  20  14  21  14  22  14  23  14  24  14
M  END
>  <minimizedAffinity>  (1) 
-5.20290136

>  <minimizedRMSD>  (1) 
0.976032674

$$$$
