
     RDKit          3D

 24 25  0  0  0  0  0  0  0  0999 V2000
   39.5270   22.7510   37.6780 C   0  0  0  0  0  0  0  0  0  0  0  0
   38.8370   23.4550   38.6710 C   0  0  0  0  0  0  0  0  0  0  0  0
   37.9420   24.4340   38.2720 C   0  0  0  0  0  0  0  0  0  0  0  0
   37.7760   24.6660   36.9330 N   0  0  0  0  0  0  0  0  0  0  0  0
   38.4590   23.9680   36.0110 C   0  0  0  0  0  0  0  0  0  0  0  0
   39.3360   23.0100   36.3730 N   0  0  0  0  0  0  0  0  0  0  0  0
   40.4520   21.7390   38.0690 N   0  0  0  0  0  0  0  0  0  0  0  0
   41.7050   21.5150   37.4530 C   0  0  0  0  0  0  0  0  0  0  0  0
   42.1850   22.4960   36.7280 N   0  0  0  0  0  0  0  0  0  0  0  0
   42.3970   20.2730   37.6270 N   0  0  0  0  0  0  0  0  0  0  0  0
   43.1310   22.3220   36.2930 H   0  0  0  0  0  0  0  0  0  0  0  0
   38.1840   24.3190   34.6380 C   0  0  0  0  0  0  0  0  0  0  0  0
   38.3370   23.6170   33.4680 C   0  0  0  0  0  0  0  0  0  0  0  0
   37.9020   24.4780   32.4650 C   0  0  0  0  0  0  0  0  0  0  0  0
   37.5150   25.6300   33.0240 N   0  0  0  0  0  0  0  0  0  0  0  0
   37.6850   25.5340   34.3360 N   0  0  0  0  0  0  0  0  0  0  0  0
   39.0004   23.2375   39.7368 H   0  0  0  0  0  0  0  0  0  0  0  0
   37.3759   25.0135   39.0161 H   0  0  0  0  0  0  0  0  0  0  0  0
   40.1891   21.1281   38.8555 H   0  0  0  0  0  0  0  0  0  0  0  0
   43.3091   20.1235   37.1724 H   0  0  0  0  0  0  0  0  0  0  0  0
   41.9825   19.5294   38.2068 H   0  0  0  0  0  0  0  0  0  0  0  0
   38.7212   22.5932   33.3489 H   0  0  0  0  0  0  0  0  0  0  0  0
   37.8800   24.2489   31.3893 H   0  0  0  0  0  0  0  0  0  0  0  0
   37.1479   26.4509   32.5217 H   0  0  0  0  0  0  0  0  0  0  0  0
  1  7  1  0
  1  2  2  0
  3  2  1  0
  4  3  2  0
  5  6  2  0
  5  4  1  0
  6  1  1  0
  8 10  1  0
  8  7  1  0
  9  8  2  0
 11  9  1  0
 12  5  1  0
 13 12  1  0
 14 15  1  0
 14 13  2  0
 15 16  1  0
 16 12  2  0
  2 17  1  0
  3 18  1  0
  7 19  1  0
 10 20  1  0
 10 21  1  0
 13 22  1  0
 14 23  1  0
 15 24  1  0
M  ISO  5  17  14  18  14  22  14  23  14  24   9
M  END
>  <minimizedAffinity>  (1) 
-4.85049057

>  <minimizedRMSD>  (1) 
0.611975491

$$$$
