
     RDKit          3D

 23 24  0  0  0  0  0  0  0  0999 V2000
   39.5280   22.7890   37.6300 C   0  0  0  0  0  0  0  0  0  0  0  0
   38.8260   23.3950   38.6860 C   0  0  0  0  0  0  0  0  0  0  0  0
   37.9450   24.4320   38.3470 C   0  0  0  0  0  0  0  0  0  0  0  0
   37.8050   24.8010   37.0540 N   0  0  0  0  0  0  0  0  0  0  0  0
   38.5080   24.1800   36.0720 C   0  0  0  0  0  0  0  0  0  0  0  0
   39.3690   23.1730   36.3690 N   0  0  0  0  0  0  0  0  0  0  0  0
   40.4400   21.7260   37.9140 N   0  0  0  0  0  0  0  0  0  0  0  0
   41.7000   21.5650   37.2930 C   0  0  0  0  0  0  0  0  0  0  0  0
   42.2130   22.6110   36.6940 N   0  0  0  0  0  0  0  0  0  0  0  0
   42.3740   20.2970   37.3340 N   0  0  0  0  0  0  0  0  0  0  0  0
   43.1330   22.4550   36.1980 H   0  0  0  0  0  0  0  0  0  0  0  0
   38.3880   24.5480   34.6490 C   0  0  0  0  0  0  0  0  0  0  0  0
   39.0910   23.8870   33.7090 C   0  0  0  0  0  0  0  0  0  0  0  0
   38.5800   24.7270   32.1580 S   0  0  0  0  0  0  0  0  0  0  0  0
   37.4360   25.8880   33.1510 C   0  0  0  0  0  0  0  0  0  0  0  0
   37.6150   25.5140   34.1950 N   0  0  0  0  0  0  0  0  0  0  0  0
   38.9612   23.0713   39.7286 H   0  0  0  0  0  0  0  0  0  0  0  0
   37.3689   24.9442   39.1317 H   0  0  0  0  0  0  0  0  0  0  0  0
   40.1603   21.0295   38.6193 H   0  0  0  0  0  0  0  0  0  0  0  0
   43.2917   20.1866   36.8795 H   0  0  0  0  0  0  0  0  0  0  0  0
   41.9395   19.4982   37.8179 H   0  0  0  0  0  0  0  0  0  0  0  0
   39.7955   23.0522   33.8383 H   0  0  0  0  0  0  0  0  0  0  0  0
   36.7821   26.6992   32.7984 H   0  0  0  0  0  0  0  0  0  0  0  0
  1  7  1  0
  1  2  2  0
  3  2  1  0
  4  3  2  0
  5  6  2  0
  5  4  1  0
  6  1  1  0
  8 10  1  0
  8  7  1  0
  9  8  2  0
 11  9  1  0
 12  5  1  0
 13 12  2  0
 14 15  1  0
 14 13  1  0
 15 16  2  0
 16 12  1  0
  2 17  1  0
  3 18  1  0
  7 19  1  0
 10 20  1  0
 10 21  1  0
 13 22  1  0
 15 23  1  0
M  ISO  4  17  14  18  14  22  14  23  14
M  END
>  <minimizedAffinity>  (1) 
-4.79924488

>  <minimizedRMSD>  (1) 
0.568566144

$$$$
