
     RDKit          3D

 26 26  0  0  0  0  0  0  0  0999 V2000
   39.6750   22.8320   37.5680 C   0  0  0  0  0  0  0  0  0  0  0  0
   38.7250   23.3310   38.4650 C   0  0  0  0  0  0  0  0  0  0  0  0
   37.9420   24.4310   38.0790 C   0  0  0  0  0  0  0  0  0  0  0  0
   38.1410   24.9680   36.8440 N   0  0  0  0  0  0  0  0  0  0  0  0
   39.0780   24.4540   35.9970 C   0  0  0  0  0  0  0  0  0  0  0  0
   39.8260   23.3980   36.3710 N   0  0  0  0  0  0  0  0  0  0  0  0
   40.4610   21.7250   37.9590 N   0  0  0  0  0  0  0  0  0  0  0  0
   41.7880   21.4820   37.4720 C   0  0  0  0  0  0  0  0  0  0  0  0
   42.4130   22.4940   36.9320 N   0  0  0  0  0  0  0  0  0  0  0  0
   42.3710   20.1870   37.5870 N   0  0  0  0  0  0  0  0  0  0  0  0
   43.3820   22.2860   36.5760 H   0  0  0  0  0  0  0  0  0  0  0  0
   39.2390   25.0920   34.6640 C   0  0  0  0  0  0  0  0  0  0  0  0
   37.8900   25.0700   33.9880 C   0  0  0  0  0  0  0  0  0  0  0  0
   39.7290   26.5170   34.7850 C   0  0  0  0  0  0  0  0  0  0  0  0
   38.5935   22.8701   39.4551 H   0  0  0  0  0  0  0  0  0  0  0  0
   37.1852   24.8491   38.7590 H   0  0  0  0  0  0  0  0  0  0  0  0
   40.0589   21.0557   38.6307 H   0  0  0  0  0  0  0  0  0  0  0  0
   43.3244   20.0183   37.2355 H   0  0  0  0  0  0  0  0  0  0  0  0
   41.8391   19.4195   38.0216 H   0  0  0  0  0  0  0  0  0  0  0  0
   39.9893   24.5400   34.0789 H   0  0  0  0  0  0  0  0  0  0  0  0
   37.0977   25.0571   34.7510 H   0  0  0  0  0  0  0  0  0  0  0  0
   37.7798   25.9665   33.3601 H   0  0  0  0  0  0  0  0  0  0  0  0
   37.8091   24.1704   33.3601 H   0  0  0  0  0  0  0  0  0  0  0  0
   39.8209   26.7841   35.8481 H   0  0  0  0  0  0  0  0  0  0  0  0
   40.7107   26.6098   34.2975 H   0  0  0  0  0  0  0  0  0  0  0  0
   39.0120   27.1939   34.2975 H   0  0  0  0  0  0  0  0  0  0  0  0
  1  7  1  0
  1  2  2  0
  3  2  1  0
  4  3  2  0
  5  6  2  0
  5  4  1  0
  6  1  1  0
  8 10  1  0
  8  7  1  0
  9  8  2  0
 11  9  1  0
 12 14  1  0
 12  5  1  0
 13 12  1  0
  2 15  1  0
  3 16  1  0
  7 17  1  0
 10 18  1  0
 10 19  1  0
 12 20  1  0
 13 21  1  0
 13 22  1  0
 13 23  1  0
 14 24  1  0
 14 25  1  0
 14 26  1  0
M  ISO  8  15  14  16  14  20   8  21   8  22   8  23   8  24   8  25   8
M  ISO  1  26   8
M  END
>  <minimizedAffinity>  (1) 
-4.60215902

>  <minimizedRMSD>  (1) 
0.549998522

$$$$
