
     RDKit          3D

 23 23  0  0  0  0  0  0  0  0999 V2000
   39.5360   22.7520   37.6160 C   0  0  0  0  0  0  0  0  0  0  0  0
   38.7910   23.4550   38.5670 C   0  0  0  0  0  0  0  0  0  0  0  0
   37.9220   24.4560   38.1400 C   0  0  0  0  0  0  0  0  0  0  0  0
   37.8320   24.7130   36.8150 N   0  0  0  0  0  0  0  0  0  0  0  0
   38.5680   24.0160   35.9060 C   0  0  0  0  0  0  0  0  0  0  0  0
   39.4070   23.0470   36.3290 N   0  0  0  0  0  0  0  0  0  0  0  0
   40.4260   21.7310   38.0270 N   0  0  0  0  0  0  0  0  0  0  0  0
   41.7150   21.5140   37.4550 C   0  0  0  0  0  0  0  0  0  0  0  0
   42.2290   22.4860   36.7550 N   0  0  0  0  0  0  0  0  0  0  0  0
   42.4060   20.2830   37.6460 N   0  0  0  0  0  0  0  0  0  0  0  0
   43.1790   22.3080   36.3370 H   0  0  0  0  0  0  0  0  0  0  0  0
   38.5130   24.2510   34.4400 C   0  0  0  0  0  0  0  0  0  0  0  0
   37.8020   25.5260   34.0920 C   0  0  0  0  0  0  0  0  0  0  0  0
   38.8897   23.2210   39.6373 H   0  0  0  0  0  0  0  0  0  0  0  0
   37.3216   25.0255   38.8647 H   0  0  0  0  0  0  0  0  0  0  0  0
   40.1240   21.1050   38.7872 H   0  0  0  0  0  0  0  0  0  0  0  0
   43.3359   20.1438   37.2256 H   0  0  0  0  0  0  0  0  0  0  0  0
   41.9757   19.5321   38.2045 H   0  0  0  0  0  0  0  0  0  0  0  0
   39.5408   24.3022   34.0515 H   0  0  0  0  0  0  0  0  0  0  0  0
   37.9524   23.4197   33.9875 H   0  0  0  0  0  0  0  0  0  0  0  0
   37.5112   26.0475   35.0158 H   0  0  0  0  0  0  0  0  0  0  0  0
   38.4713   26.1699   33.5026 H   0  0  0  0  0  0  0  0  0  0  0  0
   36.9024   25.2951   33.5026 H   0  0  0  0  0  0  0  0  0  0  0  0
  1  7  1  0
  1  2  2  0
  3  2  1  0
  4  3  2  0
  5  6  2  0
  5  4  1  0
  6  1  1  0
  8 10  1  0
  8  7  1  0
  9  8  2  0
 11  9  1  0
 12  5  1  0
 13 12  1  0
  2 14  1  0
  3 15  1  0
  7 16  1  0
 10 17  1  0
 10 18  1  0
 12 19  1  0
 12 20  1  0
 13 21  1  0
 13 22  1  0
 13 23  1  0
M  ISO  7  14  14  15  14  19   8  20   8  21   8  22   8  23   8
M  END
>  <minimizedAffinity>  (1) 
-4.272089

>  <minimizedRMSD>  (1) 
0.135587618

$$$$
