
     RDKit          3D

 30 32  0  0  0  0  0  0  0  0999 V2000
   41.2330   24.5750   33.8840 C   0  0  0  0  0  0  0  0  0  0  0  0
   40.2380   24.1140   33.0020 C   0  0  0  0  0  0  0  0  0  0  0  0
   39.2800   23.2300   33.5170 C   0  0  0  0  0  0  0  0  0  0  0  0
   39.3720   22.8770   34.8230 N   0  0  0  0  0  0  0  0  0  0  0  0
   40.3550   23.3480   35.6400 C   0  0  0  0  0  0  0  0  0  0  0  0
   41.2660   24.1880   35.1550 N   0  0  0  0  0  0  0  0  0  0  0  0
   38.2230   22.6930   32.7280 N   0  0  0  0  0  0  0  0  0  0  0  0
   37.8720   22.7130   31.4190 C   0  0  0  0  0  0  0  0  0  0  0  0
   36.7350   22.0040   31.2700 N   0  0  0  0  0  0  0  0  0  0  0  0
   36.3430   21.5230   32.4730 C   0  0  0  0  0  0  0  0  0  0  0  0
   35.2360   20.7460   32.7880 C   0  0  0  0  0  0  0  0  0  0  0  0
   34.4220   20.3850   31.8980 O   0  0  0  0  0  0  0  0  0  0  0  0
   35.0860   20.4040   34.0820 N   0  0  0  0  0  0  0  0  0  0  0  0
   35.9830   20.8160   34.9830 C   0  0  0  0  0  0  0  0  0  0  0  0
   35.9190   20.5110   36.3820 N   0  0  0  0  0  0  0  0  0  0  0  0
   37.0320   21.5580   34.6570 N   0  0  0  0  0  0  0  0  0  0  0  0
   37.2890   21.9650   33.3820 C   0  0  0  0  0  0  0  0  0  0  0  0
   40.1460   24.5130   31.5650 C   0  0  0  0  0  0  0  0  0  0  0  0
   41.1850   25.4030   31.3300 F   0  0  0  0  0  0  0  0  0  0  0  0
   38.9710   25.1820   31.3120 F   0  0  0  0  0  0  0  0  0  0  0  0
   40.3470   23.4410   30.7190 F   0  0  0  0  0  0  0  0  0  0  0  0
   40.3420   22.8780   37.0630 C   0  0  0  0  0  0  0  0  0  0  0  0
   39.3590   23.4990   37.7960 F   0  0  0  0  0  0  0  0  0  0  0  0
   40.0310   21.5210   37.0720 F   0  0  0  0  0  0  0  0  0  0  0  0
   41.5480   23.1470   37.6840 F   0  0  0  0  0  0  0  0  0  0  0  0
   42.0001   25.2708   33.5134 H   0  0  0  0  0  0  0  0  0  0  0  0
   38.4221   23.2220   30.6138 H   0  0  0  0  0  0  0  0  0  0  0  0
   34.2842   19.8280   34.3757 H   0  0  0  0  0  0  0  0  0  0  0  0
   36.6472   20.8631   37.0197 H   0  0  0  0  0  0  0  0  0  0  0  0
   35.1448   19.9397   36.7497 H   0  0  0  0  0  0  0  0  0  0  0  0
  1  6  2  0
  2  3  2  0
  2  1  1  0
  3  4  1  0
  4  5  2  0
  5 22  1  0
  6  5  1  0
  7 17  1  0
  7  3  1  0
  8  7  1  0
  9  8  2  0
  9 10  1  0
 10 11  1  0
 10 17  2  0
 11 13  1  0
 12 11  2  0
 13 14  1  0
 14 15  1  0
 16 14  2  0
 17 16  1  0
 18  2  1  0
 19 18  1  0
 20 18  1  0
 21 18  1  0
 22 24  1  0
 22 25  1  0
 22 23  1  0
  1 26  1  0
  8 27  1  0
 13 28  1  0
 15 29  1  0
 15 30  1  0
M  ISO  3  26  14  27  14  28   9
M  END
>  <minimizedAffinity>  (1) 
-5.00434446

>  <minimizedRMSD>  (1) 
4.79626894

$$$$
