
     RDKit          3D

 19 19  0  0  0  0  0  0  0  0999 V2000
   39.5630   24.9560   35.3890 C   0  0  0  0  0  0  0  0  0  0  0  0
   39.8500   23.5760   35.4910 C   0  0  0  0  0  0  0  0  0  0  0  0
   39.1250   22.7710   34.6230 C   0  0  0  0  0  0  0  0  0  0  0  0
   38.2250   23.3020   33.7600 N   0  0  0  0  0  0  0  0  0  0  0  0
   37.9890   24.6340   33.7020 C   0  0  0  0  0  0  0  0  0  0  0  0
   38.6660   25.4560   34.5250 N   0  0  0  0  0  0  0  0  0  0  0  0
   37.0220   25.0710   32.7560 N   0  0  0  0  0  0  0  0  0  0  0  0
   40.7950   23.0680   36.4020 N   0  0  0  0  0  0  0  0  0  0  0  0
   40.4920   22.2980   37.5440 C   0  0  0  0  0  0  0  0  0  0  0  0
   39.4060   22.6610   38.2010 N   0  0  0  0  0  0  0  0  0  0  0  0
   41.4040   21.2090   37.8510 N   0  0  0  0  0  0  0  0  0  0  0  0
   39.1150   22.1690   39.0570 H   0  0  0  0  0  0  0  0  0  0  0  0
   40.1001   25.6532   36.0489 H   0  0  0  0  0  0  0  0  0  0  0  0
   39.2838   21.6826   34.6359 H   0  0  0  0  0  0  0  0  0  0  0  0
   36.8029   26.0737   32.6692 H   0  0  0  0  0  0  0  0  0  0  0  0
   36.5404   24.3849   32.1574 H   0  0  0  0  0  0  0  0  0  0  0  0
   41.7874   23.2752   36.2200 H   0  0  0  0  0  0  0  0  0  0  0  0
   41.2347   20.6116   38.6728 H   0  0  0  0  0  0  0  0  0  0  0  0
   42.2197   21.0345   37.2468 H   0  0  0  0  0  0  0  0  0  0  0  0
  1  2  2  0
  2  8  1  0
  3  2  1  0
  4  3  2  0
  5  4  1  0
  5  6  2  0
  6  1  1  0
  7  5  1  0
  8  9  1  0
  9 11  1  0
  9 10  2  0
 10 12  1  0
  1 13  1  0
  3 14  1  0
  7 15  1  0
  7 16  1  0
  8 17  1  0
 11 18  1  0
 11 19  1  0
M  ISO  2  13  14  14  14
M  END
>  <minimizedAffinity>  (1) 
-3.60110402

>  <minimizedRMSD>  (1) 
0.103278637

$$$$
