
     RDKit          3D

 28 28  0  0  0  0  0  0  0  0999 V2000
   40.1120   22.5300   37.7930 C   0  0  0  0  0  0  0  0  0  0  0  0
   39.2590   23.5080   37.2490 C   0  0  0  0  0  0  0  0  0  0  0  0
   39.6670   24.2200   36.1070 C   0  0  0  0  0  0  0  0  0  0  0  0
   40.9030   23.8500   35.6540 N   0  0  0  0  0  0  0  0  0  0  0  0
   41.6970   22.9180   36.1870 C   0  0  0  0  0  0  0  0  0  0  0  0
   41.2910   22.2650   37.2560 N   0  0  0  0  0  0  0  0  0  0  0  0
   37.9250   23.8630   37.8020 C   0  0  0  0  0  0  0  0  0  0  0  0
   37.6750   22.8920   38.8100 F   0  0  0  0  0  0  0  0  0  0  0  0
   36.9070   23.6880   36.9580 F   0  0  0  0  0  0  0  0  0  0  0  0
   37.9580   25.0000   38.5600 F   0  0  0  0  0  0  0  0  0  0  0  0
   43.0210   22.6790   35.5150 C   0  0  0  0  0  0  0  0  0  0  0  0
   43.2190   23.5690   34.4700 F   0  0  0  0  0  0  0  0  0  0  0  0
   44.0390   22.9110   36.4050 F   0  0  0  0  0  0  0  0  0  0  0  0
   43.0590   21.4070   34.9550 F   0  0  0  0  0  0  0  0  0  0  0  0
   38.9290   25.2950   35.3840 C   0  0  0  0  0  0  0  0  0  0  0  0
   40.0190   25.9840   34.4960 C   0  0  0  0  0  0  0  0  0  0  0  0
   38.4280   26.4560   36.1120 C   0  0  0  0  0  0  0  0  0  0  0  0
   38.0050   24.7600   34.3120 C   0  0  0  0  0  0  0  0  0  0  0  0
   39.7907   21.9731   38.6855 H   0  0  0  0  0  0  0  0  0  0  0  0
   40.7715   26.4596   35.1422 H   0  0  0  0  0  0  0  0  0  0  0  0
   40.5056   25.2290   33.8610 H   0  0  0  0  0  0  0  0  0  0  0  0
   39.5458   26.7474   33.8610 H   0  0  0  0  0  0  0  0  0  0  0  0
   38.5071   26.2727   37.1937 H   0  0  0  0  0  0  0  0  0  0  0  0
   39.0242   27.3412   35.8456 H   0  0  0  0  0  0  0  0  0  0  0  0
   37.3749   26.6295   35.8456 H   0  0  0  0  0  0  0  0  0  0  0  0
   37.1452   24.2622   34.7841 H   0  0  0  0  0  0  0  0  0  0  0  0
   37.6490   25.5917   33.6863 H   0  0  0  0  0  0  0  0  0  0  0  0
   38.5491   24.0372   33.6863 H   0  0  0  0  0  0  0  0  0  0  0  0
  2  1  2  0
  2  7  1  0
  3  2  1  0
  4  3  2  0
  4  5  1  0
  5  6  2  0
  6  1  1  0
  7 10  1  0
  7  8  1  0
  9  7  1  0
 11  5  1  0
 11 13  1  0
 12 11  1  0
 14 11  1  0
 15  3  1  0
 15 17  1  0
 16 15  1  0
 18 15  1  0
  1 19  1  0
 16 20  1  0
 16 21  1  0
 16 22  1  0
 17 23  1  0
 17 24  1  0
 17 25  1  0
 18 26  1  0
 18 27  1  0
 18 28  1  0
M  ISO  8  19  14  20   8  21   8  22   8  23   8  24   8  25   8  26   8
M  ISO  2  27   8  28   8
M  END
>  <minimizedAffinity>  (1) 
-4.5118413

>  <minimizedRMSD>  (1) 
2.11121845

$$$$
