
     RDKit          3D

 22 23  0  0  0  0  0  0  0  0999 V2000
   40.2690   22.3990   37.7600 C   0  0  0  0  0  0  0  0  0  0  0  0
   39.3510   23.3330   37.2750 C   0  0  0  0  0  0  0  0  0  0  0  0
   39.7160   24.0830   36.1490 C   0  0  0  0  0  0  0  0  0  0  0  0
   40.9490   23.8520   35.5940 N   0  0  0  0  0  0  0  0  0  0  0  0
   41.8020   22.9330   36.1050 C   0  0  0  0  0  0  0  0  0  0  0  0
   41.4530   22.2140   37.1840 N   0  0  0  0  0  0  0  0  0  0  0  0
   38.8990   25.0720   35.5330 N   0  0  0  0  0  0  0  0  0  0  0  0
   39.2740   25.7790   34.4310 C   0  0  0  0  0  0  0  0  0  0  0  0
   38.2480   26.6260   34.1270 N   0  0  0  0  0  0  0  0  0  0  0  0
   37.2660   26.4190   35.0510 C   0  0  0  0  0  0  0  0  0  0  0  0
   37.6890   25.4630   35.9010 N   0  0  0  0  0  0  0  0  0  0  0  0
   38.0100   23.6000   37.8580 C   0  0  0  0  0  0  0  0  0  0  0  0
   37.8980   22.7470   38.9690 F   0  0  0  0  0  0  0  0  0  0  0  0
   36.9880   23.2700   37.0010 F   0  0  0  0  0  0  0  0  0  0  0  0
   37.8990   24.8730   38.3880 F   0  0  0  0  0  0  0  0  0  0  0  0
   43.1180   22.7710   35.4130 C   0  0  0  0  0  0  0  0  0  0  0  0
   43.1980   23.5760   34.2880 F   0  0  0  0  0  0  0  0  0  0  0  0
   44.1400   23.1760   36.2560 F   0  0  0  0  0  0  0  0  0  0  0  0
   43.2970   21.4600   34.9790 F   0  0  0  0  0  0  0  0  0  0  0  0
   40.0051   21.7994   38.6436 H   0  0  0  0  0  0  0  0  0  0  0  0
   40.2258   25.6849   33.8876 H   0  0  0  0  0  0  0  0  0  0  0  0
   36.2987   26.9409   35.0945 H   0  0  0  0  0  0  0  0  0  0  0  0
  2  1  2  0
  2 12  1  0
  3  2  1  0
  4  5  1  0
  4  3  2  0
  5  6  2  0
  6  1  1  0
  7 11  1  0
  7  3  1  0
  8  7  1  0
  9  8  2  0
  9 10  1  0
 10 11  2  0
 12 15  1  0
 12 13  1  0
 14 12  1  0
 16  5  1  0
 16 18  1  0
 17 16  1  0
 19 16  1  0
  1 20  1  0
  8 21  1  0
 10 22  1  0
M  ISO  3  20  14  21  14  22  14
M  END
>  <minimizedAffinity>  (1) 
-4.65647793

>  <minimizedRMSD>  (1) 
1.99845326

$$$$
