
     RDKit          3D

 21 22  0  0  0  0  0  0  0  0999 V2000
   40.1860   22.5860   37.7520 C   0  0  0  0  0  0  0  0  0  0  0  0
   39.2480   23.5250   37.2770 C   0  0  0  0  0  0  0  0  0  0  0  0
   39.5790   24.2570   36.1370 C   0  0  0  0  0  0  0  0  0  0  0  0
   40.7890   24.0160   35.5570 N   0  0  0  0  0  0  0  0  0  0  0  0
   41.6650   23.0990   36.0500 C   0  0  0  0  0  0  0  0  0  0  0  0
   41.3460   22.4010   37.1400 N   0  0  0  0  0  0  0  0  0  0  0  0
   38.6730   25.2530   35.5690 C   0  0  0  0  0  0  0  0  0  0  0  0
   37.7880   25.1760   34.5560 N   0  0  0  0  0  0  0  0  0  0  0  0
   37.1840   26.3140   34.3830 O   0  0  0  0  0  0  0  0  0  0  0  0
   37.6320   27.1680   35.2510 C   0  0  0  0  0  0  0  0  0  0  0  0
   38.5720   26.5390   36.0170 N   0  0  0  0  0  0  0  0  0  0  0  0
   37.9260   23.7740   37.9280 C   0  0  0  0  0  0  0  0  0  0  0  0
   37.7790   22.7840   38.9190 F   0  0  0  0  0  0  0  0  0  0  0  0
   36.8880   23.6480   37.0510 F   0  0  0  0  0  0  0  0  0  0  0  0
   37.9270   24.9830   38.6280 F   0  0  0  0  0  0  0  0  0  0  0  0
   42.9590   22.9360   35.3150 C   0  0  0  0  0  0  0  0  0  0  0  0
   43.0310   23.7940   34.2210 F   0  0  0  0  0  0  0  0  0  0  0  0
   44.0060   23.2680   36.1380 F   0  0  0  0  0  0  0  0  0  0  0  0
   43.0650   21.6520   34.7830 F   0  0  0  0  0  0  0  0  0  0  0  0
   39.9498   21.9949   38.6491 H   0  0  0  0  0  0  0  0  0  0  0  0
   37.3110   28.2152   35.3523 H   0  0  0  0  0  0  0  0  0  0  0  0
  2  1  2  0
  2 12  1  0
  3  2  1  0
  4  5  1  0
  4  3  2  0
  5  6  2  0
  6  1  1  0
  7 11  1  0
  7  3  1  0
  8  7  2  0
  9  8  1  0
  9 10  1  0
 10 11  2  0
 12 15  1  0
 12 13  1  0
 14 12  1  0
 16  5  1  0
 16 18  1  0
 17 16  1  0
 19 16  1  0
  1 20  1  0
 10 21  1  0
M  ISO  2  20  14  21  14
M  END
>  <minimizedAffinity>  (1) 
-4.59112978

>  <minimizedRMSD>  (1) 
2.10960007

$$$$
