
     RDKit          3D

 34 36  0  0  0  0  0  0  0  0999 V2000
   40.6400   22.3340   37.8470 C   0  0  0  0  0  0  0  0  0  0  0  0
   39.4940   23.0070   37.3790 C   0  0  0  0  0  0  0  0  0  0  0  0
   39.3070   23.0100   36.0190 C   0  0  0  0  0  0  0  0  0  0  0  0
   40.1880   22.3940   35.2050 N   0  0  0  0  0  0  0  0  0  0  0  0
   41.2780   21.7590   35.6960 C   0  0  0  0  0  0  0  0  0  0  0  0
   41.4730   21.7470   37.0030 N   0  0  0  0  0  0  0  0  0  0  0  0
   38.4980   23.6890   38.2370 C   0  0  0  0  0  0  0  0  0  0  0  0
   39.1020   23.8210   39.4930 F   0  0  0  0  0  0  0  0  0  0  0  0
   37.3730   22.9250   38.4400 F   0  0  0  0  0  0  0  0  0  0  0  0
   38.2490   24.9680   37.8160 F   0  0  0  0  0  0  0  0  0  0  0  0
   42.2080   21.0940   34.7320 C   0  0  0  0  0  0  0  0  0  0  0  0
   41.5290   20.7450   33.5550 F   0  0  0  0  0  0  0  0  0  0  0  0
   43.1710   22.0020   34.3430 F   0  0  0  0  0  0  0  0  0  0  0  0
   42.7280   19.9250   35.2380 F   0  0  0  0  0  0  0  0  0  0  0  0
   38.1890   23.6100   35.3090 C   0  0  0  0  0  0  0  0  0  0  0  0
   37.8940   24.8070   35.0240 O   0  0  0  0  0  0  0  0  0  0  0  0
   37.3170   22.4910   34.8980 C   0  0  0  0  0  0  0  0  0  0  0  0
   36.5930   21.7090   35.8000 C   0  0  0  0  0  0  0  0  0  0  0  0
   35.7700   20.6550   35.4790 C   0  0  0  0  0  0  0  0  0  0  0  0
   35.6490   20.3400   34.1460 C   0  0  0  0  0  0  0  0  0  0  0  0
   36.3250   21.0550   33.1820 C   0  0  0  0  0  0  0  0  0  0  0  0
   36.1870   20.7190   31.8510 C   0  0  0  0  0  0  0  0  0  0  0  0
   36.8490   21.4110   30.8570 C   0  0  0  0  0  0  0  0  0  0  0  0
   37.6710   22.4710   31.2450 C   0  0  0  0  0  0  0  0  0  0  0  0
   37.7780   22.7710   32.5880 C   0  0  0  0  0  0  0  0  0  0  0  0
   37.1260   22.0950   33.5940 C   0  0  0  0  0  0  0  0  0  0  0  0
   40.8447   22.2961   38.9271 H   0  0  0  0  0  0  0  0  0  0  0  0
   36.6899   21.9592   36.8668 H   0  0  0  0  0  0  0  0  0  0  0  0
   35.2324   20.0891   36.2541 H   0  0  0  0  0  0  0  0  0  0  0  0
   35.0017   19.5033   33.8445 H   0  0  0  0  0  0  0  0  0  0  0  0
   35.5331   19.8786   31.5751 H   0  0  0  0  0  0  0  0  0  0  0  0
   36.7333   21.1374   29.7979 H   0  0  0  0  0  0  0  0  0  0  0  0
   38.2229   23.0559   30.4945 H   0  0  0  0  0  0  0  0  0  0  0  0
   38.4302   23.6092   32.8744 H   0  0  0  0  0  0  0  0  0  0  0  0
  2  1  2  0
  2  7  1  0
  3  2  1  0
  4  5  1  0
  4  3  2  0
  5  6  2  0
  6  1  1  0
  7  9  1  0
  7  8  1  0
 10  7  1  0
 11 14  1  0
 11  5  1  0
 12 11  1  0
 13 11  1  0
 15  3  1  0
 16 15  2  0
 17 15  1  0
 17 18  2  0
 19 18  1  0
 20 19  2  0
 21 26  2  0
 21 20  1  0
 22 21  1  0
 23 24  1  0
 23 22  2  0
 24 25  2  0
 25 26  1  0
 26 17  1  0
  1 27  1  0
 18 28  1  0
 19 29  1  0
 20 30  1  0
 22 31  1  0
 23 32  1  0
 24 33  1  0
 25 34  1  0
M  ISO  8  27  14  28  14  29  14  30  14  31  14  32  14  33  14  34  14
M  END
>  <minimizedAffinity>  (1) 
-5.7935729

>  <minimizedRMSD>  (1) 
1.34970248

$$$$
