
     RDKit          3D

 17 17  0  0  0  0  0  0  0  0999 V2000
   40.5620   22.4870   37.7380 C   0  0  0  0  0  0  0  0  0  0  0  0
   39.3400   23.1010   37.4390 C   0  0  0  0  0  0  0  0  0  0  0  0
   38.9750   23.1340   36.0980 C   0  0  0  0  0  0  0  0  0  0  0  0
   39.7970   22.5850   35.1620 N   0  0  0  0  0  0  0  0  0  0  0  0
   40.9770   22.0000   35.5190 C   0  0  0  0  0  0  0  0  0  0  0  0
   41.3400   21.9620   36.8070 N   0  0  0  0  0  0  0  0  0  0  0  0
   38.4210   23.7100   38.4410 C   0  0  0  0  0  0  0  0  0  0  0  0
   39.1640   23.8210   39.6290 F   0  0  0  0  0  0  0  0  0  0  0  0
   37.3440   22.9020   38.6960 F   0  0  0  0  0  0  0  0  0  0  0  0
   38.0900   25.0180   38.1120 F   0  0  0  0  0  0  0  0  0  0  0  0
   41.8120   21.4250   34.4210 C   0  0  0  0  0  0  0  0  0  0  0  0
   41.0220   20.9810   33.3690 F   0  0  0  0  0  0  0  0  0  0  0  0
   42.6250   22.4160   33.9010 F   0  0  0  0  0  0  0  0  0  0  0  0
   42.5370   20.3270   34.8640 F   0  0  0  0  0  0  0  0  0  0  0  0
   37.7850   23.7110   35.6360 O   0  0  0  0  0  0  0  0  0  0  0  0
   40.8873   22.4396   38.7877 H   0  0  0  0  0  0  0  0  0  0  0  0
   37.5756   23.7061   34.6684 H   0  0  0  0  0  0  0  0  0  0  0  0
  2  1  2  0
  2  7  1  0
  3  2  1  0
  4  5  1  0
  4  3  2  0
  5  6  2  0
  6  1  1  0
  7  9  1  0
  7  8  1  0
 10  7  1  0
 11 14  1  0
 11  5  1  0
 12 11  1  0
 13 11  1  0
 15  3  1  0
  1 16  1  0
 15 17  1  0
M  ISO  2  16  14  17   3
M  END
>  <minimizedAffinity>  (1) 
-4.081635

>  <minimizedRMSD>  (1) 
0.203899994

$$$$
