
     RDKit          3D

 17 17  0  0  0  0  0  0  0  0999 V2000
   40.5060   22.2940   37.8250 C   0  0  0  0  0  0  0  0  0  0  0  0
   39.4590   23.0720   37.3340 C   0  0  0  0  0  0  0  0  0  0  0  0
   39.3820   23.2220   35.9510 C   0  0  0  0  0  0  0  0  0  0  0  0
   40.3160   22.6120   35.1780 N   0  0  0  0  0  0  0  0  0  0  0  0
   41.3100   21.8680   35.7050 C   0  0  0  0  0  0  0  0  0  0  0  0
   41.3950   21.7190   37.0200 N   0  0  0  0  0  0  0  0  0  0  0  0
   38.4330   23.7430   38.1840 C   0  0  0  0  0  0  0  0  0  0  0  0
   38.9820   23.8310   39.4620 F   0  0  0  0  0  0  0  0  0  0  0  0
   37.2810   23.0360   38.2550 F   0  0  0  0  0  0  0  0  0  0  0  0
   38.2500   25.0770   37.7940 F   0  0  0  0  0  0  0  0  0  0  0  0
   42.2900   21.2380   34.7540 C   0  0  0  0  0  0  0  0  0  0  0  0
   41.6870   20.9010   33.5690 F   0  0  0  0  0  0  0  0  0  0  0  0
   43.2690   22.1660   34.4350 F   0  0  0  0  0  0  0  0  0  0  0  0
   42.8190   20.0790   35.2710 F   0  0  0  0  0  0  0  0  0  0  0  0
   38.1000   24.1870   35.1480 S   0  0  0  0  0  0  0  0  0  0  0  0
   40.6000   22.1511   38.9116 H   0  0  0  0  0  0  0  0  0  0  0  0
   37.3119   24.7802   36.0987 H   0  0  0  0  0  0  0  0  0  0  0  0
  2  1  2  0
  2  7  1  0
  3  2  1  0
  4  5  1  0
  4  3  2  0
  5  6  2  0
  6  1  1  0
  7  9  1  0
  7  8  1  0
 10  7  1  0
 11 14  1  0
 11  5  1  0
 12 11  1  0
 13 11  1  0
 15  3  1  0
  1 16  1  0
 15 17  1  0
M  ISO  2  16  14  17  11
M  END
>  <minimizedAffinity>  (1) 
-3.85139322

>  <minimizedRMSD>  (1) 
0.699844718

$$$$
