
     RDKit          3D

 28 29  0  0  0  0  0  0  0  0999 V2000
   40.6320   22.3820   37.8140 C   0  0  0  0  0  0  0  0  0  0  0  0
   39.5140   22.9670   37.2010 C   0  0  0  0  0  0  0  0  0  0  0  0
   39.4260   22.8420   35.8240 C   0  0  0  0  0  0  0  0  0  0  0  0
   40.3900   22.1850   35.1470 N   0  0  0  0  0  0  0  0  0  0  0  0
   41.4520   21.6370   35.7780 C   0  0  0  0  0  0  0  0  0  0  0  0
   41.5410   21.7520   37.0930 N   0  0  0  0  0  0  0  0  0  0  0  0
   38.4280   23.6940   37.9170 C   0  0  0  0  0  0  0  0  0  0  0  0
   38.8690   23.8370   39.2270 F   0  0  0  0  0  0  0  0  0  0  0  0
   37.2620   22.9630   37.9540 F   0  0  0  0  0  0  0  0  0  0  0  0
   38.2720   24.9640   37.4280 F   0  0  0  0  0  0  0  0  0  0  0  0
   42.4760   20.9130   34.9610 C   0  0  0  0  0  0  0  0  0  0  0  0
   41.9100   20.4750   33.7530 F   0  0  0  0  0  0  0  0  0  0  0  0
   43.4520   21.8090   34.5820 F   0  0  0  0  0  0  0  0  0  0  0  0
   42.9510   19.7860   35.5920 F   0  0  0  0  0  0  0  0  0  0  0  0
   38.3480   23.3130   35.0100 C   0  0  0  0  0  0  0  0  0  0  0  0
   37.9650   24.3940   34.5500 O   0  0  0  0  0  0  0  0  0  0  0  0
   37.3820   22.2820   34.5530 C   0  0  0  0  0  0  0  0  0  0  0  0
   36.6130   21.4750   35.3720 C   0  0  0  0  0  0  0  0  0  0  0  0
   35.7410   20.5530   34.8260 C   0  0  0  0  0  0  0  0  0  0  0  0
   35.6030   20.4010   33.4610 C   0  0  0  0  0  0  0  0  0  0  0  0
   36.3400   21.1740   32.5930 C   0  0  0  0  0  0  0  0  0  0  0  0
   37.1940   22.0780   33.1860 C   0  0  0  0  0  0  0  0  0  0  0  0
   40.7524   22.4488   38.9053 H   0  0  0  0  0  0  0  0  0  0  0  0
   36.6963   21.5680   36.4649 H   0  0  0  0  0  0  0  0  0  0  0  0
   35.1400   19.9225   35.4977 H   0  0  0  0  0  0  0  0  0  0  0  0
   34.8981   19.6558   33.0637 H   0  0  0  0  0  0  0  0  0  0  0  0
   36.2532   21.0767   31.5008 H   0  0  0  0  0  0  0  0  0  0  0  0
   37.7915   22.7061   32.5090 H   0  0  0  0  0  0  0  0  0  0  0  0
  2  1  2  0
  2  7  1  0
  3  2  1  0
  4  5  1  0
  4  3  2  0
  5  6  2  0
  6  1  1  0
  7  9  1  0
  7  8  1  0
 10  7  1  0
 11 14  1  0
 11  5  1  0
 12 11  1  0
 13 11  1  0
 15  3  1  0
 16 15  2  0
 17 15  1  0
 17 18  2  0
 19 18  1  0
 20 19  2  0
 21 22  2  0
 21 20  1  0
 22 17  1  0
  1 23  1  0
 18 24  1  0
 19 25  1  0
 20 26  1  0
 21 27  1  0
 22 28  1  0
M  ISO  6  23  14  24  14  25  14  26  14  27  14  28  14
M  END
>  <minimizedAffinity>  (1) 
-5.10010147

>  <minimizedRMSD>  (1) 
1.68360567

$$$$
