
     RDKit          3D

 25 25  0  0  0  0  0  0  0  0999 V2000
   39.7050   22.8180   38.0550 C   0  0  0  0  0  0  0  0  0  0  0  0
   39.1620   23.6910   37.0840 C   0  0  0  0  0  0  0  0  0  0  0  0
   39.7640   23.6830   35.8480 C   0  0  0  0  0  0  0  0  0  0  0  0
   40.8180   22.8720   35.6050 N   0  0  0  0  0  0  0  0  0  0  0  0
   41.3060   22.0500   36.5640 C   0  0  0  0  0  0  0  0  0  0  0  0
   40.7390   22.0470   37.7540 N   0  0  0  0  0  0  0  0  0  0  0  0
   39.3540   24.4680   34.7240 C   0  0  0  0  0  0  0  0  0  0  0  0
   39.7900   25.4390   34.0950 O   0  0  0  0  0  0  0  0  0  0  0  0
   38.0960   23.9110   34.2730 N   0  0  0  0  0  0  0  0  0  0  0  0
   38.0670   22.5560   33.8550 C   0  0  0  0  0  0  0  0  0  0  0  0
   38.9540   21.6710   33.7870 N   0  0  0  0  0  0  0  0  0  0  0  0
   36.9640   21.7920   33.3750 N   0  0  0  0  0  0  0  0  0  0  0  0
   39.9360   21.6380   33.9980 H   0  0  0  0  0  0  0  0  0  0  0  0
   38.0140   24.5920   37.3190 C   0  0  0  0  0  0  0  0  0  0  0  0
   37.9210   24.7490   38.7160 F   0  0  0  0  0  0  0  0  0  0  0  0
   36.8360   24.0640   36.9050 F   0  0  0  0  0  0  0  0  0  0  0  0
   38.2730   25.8760   36.8520 F   0  0  0  0  0  0  0  0  0  0  0  0
   42.4760   21.1790   36.2250 C   0  0  0  0  0  0  0  0  0  0  0  0
   42.3920   20.7520   34.8910 F   0  0  0  0  0  0  0  0  0  0  0  0
   43.6300   21.9360   36.2900 F   0  0  0  0  0  0  0  0  0  0  0  0
   42.5080   20.0320   36.9820 F   0  0  0  0  0  0  0  0  0  0  0  0
   39.2673   22.7792   39.0634 H   0  0  0  0  0  0  0  0  0  0  0  0
   37.2414   24.4858   34.2561 H   0  0  0  0  0  0  0  0  0  0  0  0
   37.0981   20.8068   33.1060 H   0  0  0  0  0  0  0  0  0  0  0  0
   36.0327   22.2249   33.2971 H   0  0  0  0  0  0  0  0  0  0  0  0
  2 14  1  0
  2  1  2  0
  3  2  1  0
  4  3  2  0
  4  5  1  0
  5  6  2  0
  6  1  1  0
  7  3  1  0
  8  7  2  0
  9  7  1  0
 10  9  1  0
 11 10  2  0
 11 13  1  0
 12 10  1  0
 14 15  1  0
 16 14  1  0
 17 14  1  0
 18 20  1  0
 18  5  1  0
 18 21  1  0
 19 18  1  0
  1 22  1  0
  9 23  1  0
 12 24  1  0
 12 25  1  0
M  ISO  1  22  14
M  END
>  <minimizedAffinity>  (1) 
-4.63256502

>  <minimizedRMSD>  (1) 
1.82068038

$$$$
