
     RDKit          3D

 25 26  0  0  0  0  0  0  0  0999 V2000
   40.6820   22.3720   37.7880 C   0  0  0  0  0  0  0  0  0  0  0  0
   39.5170   22.9290   37.2070 C   0  0  0  0  0  0  0  0  0  0  0  0
   39.3860   22.7920   35.8430 C   0  0  0  0  0  0  0  0  0  0  0  0
   40.3400   22.1520   35.1270 N   0  0  0  0  0  0  0  0  0  0  0  0
   41.4380   21.6360   35.7240 C   0  0  0  0  0  0  0  0  0  0  0  0
   41.5790   21.7590   37.0380 N   0  0  0  0  0  0  0  0  0  0  0  0
   38.4550   23.6340   37.9640 C   0  0  0  0  0  0  0  0  0  0  0  0
   38.9310   23.7640   39.2770 F   0  0  0  0  0  0  0  0  0  0  0  0
   37.3060   22.8980   38.0440 F   0  0  0  0  0  0  0  0  0  0  0  0
   38.2730   24.9160   37.5160 F   0  0  0  0  0  0  0  0  0  0  0  0
   42.4580   20.9390   34.8830 C   0  0  0  0  0  0  0  0  0  0  0  0
   41.9000   20.5780   33.6470 F   0  0  0  0  0  0  0  0  0  0  0  0
   43.4500   21.8430   34.5520 F   0  0  0  0  0  0  0  0  0  0  0  0
   42.9280   19.7890   35.4590 F   0  0  0  0  0  0  0  0  0  0  0  0
   38.2790   23.2560   35.0480 C   0  0  0  0  0  0  0  0  0  0  0  0
   37.9360   24.3950   34.6230 O   0  0  0  0  0  0  0  0  0  0  0  0
   37.3070   22.2150   34.6060 C   0  0  0  0  0  0  0  0  0  0  0  0
   36.5310   21.3840   35.4210 C   0  0  0  0  0  0  0  0  0  0  0  0
   35.7550   20.5550   34.6190 C   0  0  0  0  0  0  0  0  0  0  0  0
   36.0910   20.9150   33.3540 C   0  0  0  0  0  0  0  0  0  0  0  0
   36.9840   21.8710   33.3820 O   0  0  0  0  0  0  0  0  0  0  0  0
   40.8410   22.4507   38.8736 H   0  0  0  0  0  0  0  0  0  0  0  0
   36.5343   21.3862   36.5210 H   0  0  0  0  0  0  0  0  0  0  0  0
   35.0355   19.7857   34.9360 H   0  0  0  0  0  0  0  0  0  0  0  0
   35.6737   20.4685   32.4394 H   0  0  0  0  0  0  0  0  0  0  0  0
  2  1  2  0
  2  7  1  0
  3  2  1  0
  4  5  1  0
  4  3  2  0
  5  6  2  0
  6  1  1  0
  7  9  1  0
  7  8  1  0
 10  7  1  0
 11 14  1  0
 11  5  1  0
 12 11  1  0
 13 11  1  0
 15  3  1  0
 16 15  2  0
 17 15  1  0
 17 18  2  0
 19 18  1  0
 20 21  1  0
 20 19  2  0
 21 17  1  0
  1 22  1  0
 18 23  1  0
 19 24  1  0
 20 25  1  0
M  ISO  4  22  14  23  14  24  14  25  14
M  END
>  <minimizedAffinity>  (1) 
-4.71631289

>  <minimizedRMSD>  (1) 
1.44402385

$$$$
