
     RDKit          3D

 33 34  0  0  0  0  0  0  0  0999 V2000
   40.1210   22.3500   37.6670 C   0  0  0  0  0  0  0  0  0  0  0  0
   39.4890   23.4000   36.9600 C   0  0  0  0  0  0  0  0  0  0  0  0
   40.2240   24.0290   35.9750 C   0  0  0  0  0  0  0  0  0  0  0  0
   41.4940   23.6130   35.7420 N   0  0  0  0  0  0  0  0  0  0  0  0
   42.0610   22.6150   36.4300 C   0  0  0  0  0  0  0  0  0  0  0  0
   41.3620   22.0030   37.3790 N   0  0  0  0  0  0  0  0  0  0  0  0
   39.7720   25.0960   35.1440 C   0  0  0  0  0  0  0  0  0  0  0  0
   39.7560   26.3500   35.2290 O   0  0  0  0  0  0  0  0  0  0  0  0
   39.1480   24.9840   33.8380 N   0  0  0  0  0  0  0  0  0  0  0  0
   39.9960   24.9880   32.6730 C   0  0  0  0  0  0  0  0  0  0  0  0
   39.9320   23.6770   31.9360 C   0  0  0  0  0  0  0  0  0  0  0  0
   38.5710   23.1110   31.7800 C   0  0  0  0  0  0  0  0  0  0  0  0
   37.5870   23.4860   32.8200 C   0  0  0  0  0  0  0  0  0  0  0  0
   37.7420   24.8530   33.4190 C   0  0  0  0  0  0  0  0  0  0  0  0
   38.0940   23.8590   37.2140 C   0  0  0  0  0  0  0  0  0  0  0  0
   37.6720   23.2090   38.3800 F   0  0  0  0  0  0  0  0  0  0  0  0
   37.2360   23.4650   36.2260 F   0  0  0  0  0  0  0  0  0  0  0  0
   38.0500   25.1980   37.5090 F   0  0  0  0  0  0  0  0  0  0  0  0
   43.4730   22.2170   36.1080 C   0  0  0  0  0  0  0  0  0  0  0  0
   43.6910   22.2700   34.7440 F   0  0  0  0  0  0  0  0  0  0  0  0
   44.3230   23.2000   36.6300 F   0  0  0  0  0  0  0  0  0  0  0  0
   43.7780   20.9570   36.5400 F   0  0  0  0  0  0  0  0  0  0  0  0
   39.5753   21.8196   38.4613 H   0  0  0  0  0  0  0  0  0  0  0  0
   39.6710   25.7933   31.9978 H   0  0  0  0  0  0  0  0  0  0  0  0
   41.0332   25.1466   33.0032 H   0  0  0  0  0  0  0  0  0  0  0  0
   40.3553   23.8290   30.9322 H   0  0  0  0  0  0  0  0  0  0  0  0
   40.4970   22.9551   32.5440 H   0  0  0  0  0  0  0  0  0  0  0  0
   38.1773   23.4451   30.8087 H   0  0  0  0  0  0  0  0  0  0  0  0
   38.6923   22.0212   31.8671 H   0  0  0  0  0  0  0  0  0  0  0  0
   36.5850   23.4289   32.3697 H   0  0  0  0  0  0  0  0  0  0  0  0
   37.7529   22.7819   33.6486 H   0  0  0  0  0  0  0  0  0  0  0  0
   37.4974   25.6225   32.6720 H   0  0  0  0  0  0  0  0  0  0  0  0
   37.0639   24.9851   34.2750 H   0  0  0  0  0  0  0  0  0  0  0  0
  2 15  1  0
  2  1  2  0
  3  2  1  0
  4  3  2  0
  4  5  1  0
  5  6  2  0
  6  1  1  0
  7  8  2  0
  7  3  1  0
  9  7  1  0
 10  9  1  0
 11 10  1  0
 12 11  1  0
 12 13  1  0
 13 14  1  0
 14  9  1  0
 15 18  1  0
 15 16  1  0
 17 15  1  0
 19  5  1  0
 19 22  1  0
 19 21  1  0
 20 19  1  0
  1 23  1  0
 10 24  1  0
 10 25  1  0
 11 26  1  0
 11 27  1  0
 12 28  1  0
 12 29  1  0
 13 30  1  0
 13 31  1  0
 14 32  1  0
 14 33  1  0
M  ISO  8  23  14  24  13  25  13  26  13  27  13  28  13  29  13  30  13
M  ISO  3  31  13  32  13  33  13
M  END
>  <minimizedAffinity>  (1) 
-4.53162193

>  <minimizedRMSD>  (1) 
3.0434835

$$$$
