
     RDKit          3D

 25 26  0  0  0  0  0  0  0  0999 V2000
   40.6250   22.4410   37.8100 C   0  0  0  0  0  0  0  0  0  0  0  0
   39.4850   22.9600   37.1570 C   0  0  0  0  0  0  0  0  0  0  0  0
   39.4090   22.7670   35.7940 C   0  0  0  0  0  0  0  0  0  0  0  0
   40.4020   22.1060   35.1540 N   0  0  0  0  0  0  0  0  0  0  0  0
   41.4770   21.6240   35.8180 C   0  0  0  0  0  0  0  0  0  0  0  0
   41.5590   21.8040   37.1240 N   0  0  0  0  0  0  0  0  0  0  0  0
   38.3830   23.6870   37.8340 C   0  0  0  0  0  0  0  0  0  0  0  0
   38.7910   23.8450   39.1720 F   0  0  0  0  0  0  0  0  0  0  0  0
   37.2280   22.9740   37.8660 F   0  0  0  0  0  0  0  0  0  0  0  0
   38.2500   24.9700   37.3510 F   0  0  0  0  0  0  0  0  0  0  0  0
   42.5330   20.9030   35.0420 C   0  0  0  0  0  0  0  0  0  0  0  0
   42.0190   20.4610   33.8140 F   0  0  0  0  0  0  0  0  0  0  0  0
   43.5190   21.8030   34.6910 F   0  0  0  0  0  0  0  0  0  0  0  0
   43.0000   19.7910   35.6930 F   0  0  0  0  0  0  0  0  0  0  0  0
   38.3330   23.1800   34.9370 C   0  0  0  0  0  0  0  0  0  0  0  0
   37.9840   24.2800   34.4220 O   0  0  0  0  0  0  0  0  0  0  0  0
   37.3490   22.1590   34.4900 C   0  0  0  0  0  0  0  0  0  0  0  0
   37.0190   21.7050   33.2550 C   0  0  0  0  0  0  0  0  0  0  0  0
   36.0620   20.7410   33.3200 N   0  0  0  0  0  0  0  0  0  0  0  0
   35.7650   20.5680   34.6160 C   0  0  0  0  0  0  0  0  0  0  0  0
   36.5390   21.4210   35.3050 N   0  0  0  0  0  0  0  0  0  0  0  0
   40.7366   22.5676   38.8970 H   0  0  0  0  0  0  0  0  0  0  0  0
   37.4684   22.0702   32.3198 H   0  0  0  0  0  0  0  0  0  0  0  0
   35.0300   19.8640   35.0333 H   0  0  0  0  0  0  0  0  0  0  0  0
   36.5238   21.5089   36.3311 H   0  0  0  0  0  0  0  0  0  0  0  0
  2  1  2  0
  2  7  1  0
  3  2  1  0
  4  3  2  0
  4  5  1  0
  5  6  2  0
  6  1  1  0
  7  9  1  0
  7  8  1  0
 10  7  1  0
 11 14  1  0
 11  5  1  0
 12 11  1  0
 13 11  1  0
 15  3  1  0
 16 15  2  0
 17 15  1  0
 17 21  1  0
 18 19  1  0
 18 17  2  0
 19 20  2  0
 20 21  1  0
  1 22  1  0
 18 23  1  0
 20 24  1  0
 21 25  1  0
M  ISO  4  22  14  23  14  24  14  25   9
M  END
>  <minimizedAffinity>  (1) 
-4.56083536

>  <minimizedRMSD>  (1) 
1.59740663

$$$$
