
     RDKit          3D

 26 27  0  0  1  0  0  0  0  0999 V2000
   37.9200   23.8170   36.9070 C   0  0  2  0  0  0  0  0  0  0  0  0
   38.5970   25.8830   33.8070 C   0  0  0  0  0  0  0  0  0  0  0  0
   38.3340   24.7670   34.6420 C   0  0  0  0  0  0  0  0  0  0  0  0
   38.1830   24.9720   36.0390 C   0  0  0  0  0  0  0  0  0  0  0  0
   38.3030   26.2480   36.5080 N   0  0  0  0  0  0  0  0  0  0  0  0
   38.5530   27.2890   35.6970 C   0  0  0  0  0  0  0  0  0  0  0  0
   38.7010   27.1190   34.3460 N   0  0  0  0  0  0  0  0  0  0  0  0
   38.0290   24.1600   38.3800 C   0  0  0  0  0  0  0  0  0  0  0  0
   38.8210   22.6420   36.6170 C   0  0  0  0  0  0  0  0  0  0  0  0
   40.1170   22.8610   37.3810 C   0  0  0  0  0  0  0  0  0  0  0  0
   41.0630   21.6880   37.4340 C   0  0  0  0  0  0  0  0  0  0  0  0
   41.4200   22.9600   36.7340 C   0  0  0  0  0  0  0  0  0  0  0  0
   36.8830   23.5310   36.6770 H   0  0  0  0  0  0  0  0  0  0  0  0
   38.7162   25.7434   32.7224 H   0  0  0  0  0  0  0  0  0  0  0  0
   38.2483   23.7575   34.2136 H   0  0  0  0  0  0  0  0  0  0  0  0
   38.6406   28.2980   36.1262 H   0  0  0  0  0  0  0  0  0  0  0  0
   37.7502   23.2828   38.9823 H   0  0  0  0  0  0  0  0  0  0  0  0
   39.0639   24.4510   38.6131 H   0  0  0  0  0  0  0  0  0  0  0  0
   37.3520   24.9950   38.6131 H   0  0  0  0  0  0  0  0  0  0  0  0
   38.3415   21.7097   36.9501 H   0  0  0  0  0  0  0  0  0  0  0  0
   39.0164   22.5605   35.5376 H   0  0  0  0  0  0  0  0  0  0  0  0
   39.5979   23.5242   38.0885 H   0  0  0  0  0  0  0  0  0  0  0  0
   41.5578   21.4160   38.3780 H   0  0  0  0  0  0  0  0  0  0  0  0
   41.0158   20.6236   37.1606 H   0  0  0  0  0  0  0  0  0  0  0  0
   41.4845   22.9796   35.6361 H   0  0  0  0  0  0  0  0  0  0  0  0
   42.2611   23.6657   36.8015 H   0  0  0  0  0  0  0  0  0  0  0  0
  1  8  1  0
  2  7  2  0
  2  3  1  0
  3  4  2  0
  4  5  1  0
  4  1  1  0
  6  5  2  0
  7  6  1  0
  9  1  1  0
  9 10  1  0
 10 11  1  0
 12 10  1  0
 12 11  1  0
  1 13  1  1
  2 14  1  0
  3 15  1  0
  6 16  1  0
  8 17  1  0
  8 18  1  0
  8 19  1  0
  9 20  1  0
  9 21  1  0
 10 22  1  0
 11 23  1  0
 11 24  1  0
 12 25  1  0
 12 26  1  0
M  ISO  8  13   8  14  14  15  14  16  14  17   8  18   8  19   8  20   8
M  ISO  6  21   8  22  13  23  13  24  13  25  13  26  13
M  END
>  <minimizedAffinity>  (1) 
-3.74933004

>  <minimizedRMSD>  (1) 
4.66702986

$$$$
