
     RDKit          3D

 31 32  0  0  1  0  0  0  0  0999 V2000
   38.3870   23.8630   35.8540 C   0  0  2  0  0  0  0  0  0  0  0  0
   37.0570   27.0830   34.3410 C   0  0  0  0  0  0  0  0  0  0  0  0
   37.5210   26.1850   35.3110 C   0  0  0  0  0  0  0  0  0  0  0  0
   37.8820   24.8800   34.8760 C   0  0  0  0  0  0  0  0  0  0  0  0
   37.7580   24.5680   33.5290 N   0  0  0  0  0  0  0  0  0  0  0  0
   37.3110   25.4670   32.6510 C   0  0  0  0  0  0  0  0  0  0  0  0
   36.9620   26.7180   33.0540 N   0  0  0  0  0  0  0  0  0  0  0  0
   37.5870   23.8990   37.1360 C   0  0  0  0  0  0  0  0  0  0  0  0
   39.8380   24.0660   36.1500 C   0  0  0  0  0  0  0  0  0  0  0  0
   40.6020   22.8690   36.2590 N   0  0  0  0  0  0  0  0  0  0  0  0
   40.6980   22.2050   37.4950 C   0  0  0  0  0  0  0  0  0  0  0  0
   41.8970   21.2500   37.2720 C   0  0  0  0  0  0  0  0  0  0  0  0
   42.8590   22.1360   36.5580 C   0  0  0  0  0  0  0  0  0  0  0  0
   42.0040   23.1570   35.8970 C   0  0  0  0  0  0  0  0  0  0  0  0
   38.2636   22.8736   35.3895 H   0  0  0  0  0  0  0  0  0  0  0  0
   36.7667   28.1013   34.6390 H   0  0  0  0  0  0  0  0  0  0  0  0
   37.6029   26.4779   36.3681 H   0  0  0  0  0  0  0  0  0  0  0  0
   37.2237   25.1935   31.5891 H   0  0  0  0  0  0  0  0  0  0  0  0
   38.2716   23.8682   37.9964 H   0  0  0  0  0  0  0  0  0  0  0  0
   36.9940   24.8247   37.1723 H   0  0  0  0  0  0  0  0  0  0  0  0
   36.9132   23.0303   37.1723 H   0  0  0  0  0  0  0  0  0  0  0  0
   40.2696   24.6742   35.3414 H   0  0  0  0  0  0  0  0  0  0  0  0
   39.8862   24.5529   37.1352 H   0  0  0  0  0  0  0  0  0  0  0  0
   40.9009   22.9133   38.3118 H   0  0  0  0  0  0  0  0  0  0  0  0
   39.7730   21.6859   37.7863 H   0  0  0  0  0  0  0  0  0  0  0  0
   42.3110   20.8960   38.2277 H   0  0  0  0  0  0  0  0  0  0  0  0
   41.6412   20.3326   36.7216 H   0  0  0  0  0  0  0  0  0  0  0  0
   43.5521   22.6101   37.2686 H   0  0  0  0  0  0  0  0  0  0  0  0
   43.4826   21.5837   35.8396 H   0  0  0  0  0  0  0  0  0  0  0  0
   42.1285   23.1005   34.8055 H   0  0  0  0  0  0  0  0  0  0  0  0
   42.2872   24.1681   36.2247 H   0  0  0  0  0  0  0  0  0  0  0  0
  1  9  1  0
  1  8  1  0
  2  3  2  0
  4  3  1  0
  4  1  1  0
  5  4  2  0
  6  7  2  0
  6  5  1  0
  7  2  1  0
  9 10  1  0
 10 11  1  0
 12 11  1  0
 13 12  1  0
 14 10  1  0
 14 13  1  0
  1 15  1  6
  2 16  1  0
  3 17  1  0
  6 18  1  0
  8 19  1  0
  8 20  1  0
  8 21  1  0
  9 22  1  0
  9 23  1  0
 11 24  1  0
 11 25  1  0
 12 26  1  0
 12 27  1  0
 13 28  1  0
 13 29  1  0
 14 30  1  0
 14 31  1  0
M  ISO  8  15   8  16  14  17  14  18  14  19   8  20   8  21   8  22   8
M  ISO  8  23   8  24  13  25  13  26  13  27  13  28  13  29  13  30  13
M  ISO  1  31  13
M  END
>  <minimizedAffinity>  (1) 
-3.60350776

>  <minimizedRMSD>  (1) 
5.81013775

$$$$
