
     RDKit          3D

 44 46  0  0  1  0  0  0  0  0999 V2000
   36.5020   27.7320   33.3290 N   0  0  0  0  0  0  0  0  0  0  0  0
   36.6320   27.2630   34.6870 C   0  0  0  0  0  0  0  0  0  0  0  0
   38.0510   27.4120   35.1950 C   0  0  0  0  0  0  0  0  0  0  0  0
   38.9580   26.5810   34.2800 C   0  0  0  0  0  0  0  0  0  0  0  0
   38.8580   27.2640   32.9370 C   0  0  0  0  0  0  0  0  0  0  0  0
   37.4650   27.1120   32.4370 C   0  0  1  0  0  0  0  0  0  0  0  0
   37.0170   25.7490   32.2510 N   0  0  0  0  0  0  0  0  0  0  0  0
   37.6830   24.7020   32.8290 C   0  0  0  0  0  0  0  0  0  0  0  0
   37.3100   23.3850   32.6910 C   0  0  0  0  0  0  0  0  0  0  0  0
   36.2010   23.0740   31.9340 C   0  0  0  0  0  0  0  0  0  0  0  0
   35.8200   21.8880   31.7800 O   0  0  0  0  0  0  0  0  0  0  0  0
   35.5510   24.1080   31.3700 N   0  0  0  0  0  0  0  0  0  0  0  0
   35.9650   25.3690   31.5420 C   0  0  0  0  0  0  0  0  0  0  0  0
   35.2740   26.2180   30.9680 O   0  0  0  0  0  0  0  0  0  0  0  0
   36.5230   29.1270   33.1780 C   0  0  0  0  0  0  0  0  0  0  0  0
   35.1750   29.8310   33.1430 C   0  0  2  0  0  0  0  0  0  0  0  0
   35.4530   31.7540   36.4010 C   0  0  0  0  0  0  0  0  0  0  0  0
   35.7900   31.1460   35.1690 C   0  0  0  0  0  0  0  0  0  0  0  0
   34.8490   30.4600   34.4240 C   0  0  0  0  0  0  0  0  0  0  0  0
   33.5780   30.4080   34.9530 N   0  0  0  0  0  0  0  0  0  0  0  0
   33.2550   30.9810   36.1160 C   0  0  0  0  0  0  0  0  0  0  0  0
   34.1770   31.6560   36.8520 N   0  0  0  0  0  0  0  0  0  0  0  0
   34.1360   28.8500   32.6560 C   0  0  0  0  0  0  0  0  0  0  0  0
   35.9588   27.8465   35.3322 H   0  0  0  0  0  0  0  0  0  0  0  0
   36.3692   26.1951   34.7088 H   0  0  0  0  0  0  0  0  0  0  0  0
   38.3524   28.4694   35.1626 H   0  0  0  0  0  0  0  0  0  0  0  0
   38.1282   27.0647   36.2359 H   0  0  0  0  0  0  0  0  0  0  0  0
   39.9953   26.5908   34.6461 H   0  0  0  0  0  0  0  0  0  0  0  0
   38.6575   25.5237   34.2376 H   0  0  0  0  0  0  0  0  0  0  0  0
   39.1002   28.3317   33.0440 H   0  0  0  0  0  0  0  0  0  0  0  0
   39.5663   26.8105   32.2280 H   0  0  0  0  0  0  0  0  0  0  0  0
   37.5089   27.6053   31.4548 H   0  0  0  0  0  0  0  0  0  0  0  0
   38.5693   24.9271   33.4403 H   0  0  0  0  0  0  0  0  0  0  0  0
   37.8906   22.5887   33.1796 H   0  0  0  0  0  0  0  0  0  0  0  0
   34.7171   23.9253   30.7936 H   0  0  0  0  0  0  0  0  0  0  0  0
   37.0954   29.5447   34.0194 H   0  0  0  0  0  0  0  0  0  0  0  0
   36.9671   29.3037   32.1873 H   0  0  0  0  0  0  0  0  0  0  0  0
   35.2055   30.6718   32.4344 H   0  0  0  0  0  0  0  0  0  0  0  0
   36.2122   32.2968   36.9833 H   0  0  0  0  0  0  0  0  0  0  0  0
   36.8222   31.2206   34.7961 H   0  0  0  0  0  0  0  0  0  0  0  0
   32.2217   30.9049   36.4854 H   0  0  0  0  0  0  0  0  0  0  0  0
   33.6404   28.3821   33.5194 H   0  0  0  0  0  0  0  0  0  0  0  0
   33.3887   29.3796   32.0469 H   0  0  0  0  0  0  0  0  0  0  0  0
   34.6219   28.0735   32.0469 H   0  0  0  0  0  0  0  0  0  0  0  0
  1  2  1  0
  2  3  1  0
  4  3  1  0
  5  4  1  0
  6  5  1  0
  6  1  1  0
  7  6  1  0
  7  8  1  0
  9  8  2  0
 10  9  1  0
 11 10  2  0
 12 13  1  0
 12 10  1  0
 13  7  1  0
 14 13  2  0
 15  1  1  0
 16 15  1  0
 16 19  1  0
 17 22  2  0
 18 17  1  0
 19 20  1  0
 19 18  2  0
 20 21  2  0
 21 22  1  0
 23 16  1  0
  2 24  1  0
  2 25  1  0
  3 26  1  0
  3 27  1  0
  4 28  1  0
  4 29  1  0
  5 30  1  0
  5 31  1  0
  6 32  1  6
  8 33  1  0
  9 34  1  0
 12 35  1  0
 15 36  1  0
 15 37  1  0
 16 38  1  6
 17 39  1  0
 18 40  1  0
 21 41  1  0
 23 42  1  0
 23 43  1  0
 23 44  1  0
M  ISO  8  24  13  25  13  26  13  27  13  28  13  29  13  30  13  31  13
M  ISO  8  32  13  33  14  34  14  35   9  36   8  37   8  38   8  39  14
M  ISO  5  40  14  41  14  42   8  43   8  44   8
M  END
>  <minimizedAffinity>  (1) 
-4.93269873

>  <minimizedRMSD>  (1) 
6.96846676

$$$$
