
     RDKit          3D

 48 51  0  0  1  0  0  0  0  0999 V2000
   35.7810   29.3810   33.0200 N   0  0  0  0  0  0  0  0  0  0  0  0
   35.0380   29.3860   34.2660 C   0  0  0  0  0  0  0  0  0  0  0  0
   33.5600   29.5160   34.0780 C   0  0  0  0  0  0  0  0  0  0  0  0
   33.2790   30.7920   33.2920 C   0  0  0  0  0  0  0  0  0  0  0  0
   33.9000   30.5690   31.9340 C   0  0  0  0  0  0  0  0  0  0  0  0
   35.3800   30.4090   32.1020 C   0  0  1  0  0  0  0  0  0  0  0  0
   36.1200   31.6790   32.2080 C   0  0  0  0  0  0  0  0  0  0  0  0
   36.7910   32.4610   31.2920 C   0  0  0  0  0  0  0  0  0  0  0  0
   37.3380   33.5530   31.8130 N   0  0  0  0  0  0  0  0  0  0  0  0
   37.0680   33.5800   33.1280 C   0  0  0  0  0  0  0  0  0  0  0  0
   37.3720   34.4460   34.1390 C   0  0  0  0  0  0  0  0  0  0  0  0
   36.9590   34.2280   35.4360 C   0  0  0  0  0  0  0  0  0  0  0  0
   36.2230   33.1110   35.7120 C   0  0  0  0  0  0  0  0  0  0  0  0
   35.9160   32.2350   34.6930 C   0  0  0  0  0  0  0  0  0  0  0  0
   36.3290   32.4420   33.3700 C   0  0  0  0  0  0  0  0  0  0  0  0
   35.6480   28.1140   32.3420 C   0  0  0  0  0  0  0  0  0  0  0  0
   36.9620   27.4350   31.9970 C   0  0  2  0  0  0  0  0  0  0  0  0
   37.8350   26.0640   35.4230 C   0  0  0  0  0  0  0  0  0  0  0  0
   37.0950   26.4250   34.2690 C   0  0  0  0  0  0  0  0  0  0  0  0
   37.7070   27.0580   33.2020 C   0  0  0  0  0  0  0  0  0  0  0  0
   39.0550   27.3090   33.3300 N   0  0  0  0  0  0  0  0  0  0  0  0
   39.7480   26.9660   34.4200 C   0  0  0  0  0  0  0  0  0  0  0  0
   39.1570   26.3440   35.4750 N   0  0  0  0  0  0  0  0  0  0  0  0
   37.7390   28.3020   31.0380 C   0  0  0  0  0  0  0  0  0  0  0  0
   35.2401   28.4434   34.7958 H   0  0  0  0  0  0  0  0  0  0  0  0
   35.3703   30.2651   34.8377 H   0  0  0  0  0  0  0  0  0  0  0  0
   33.1795   28.6468   33.5215 H   0  0  0  0  0  0  0  0  0  0  0  0
   33.0595   29.5600   35.0566 H   0  0  0  0  0  0  0  0  0  0  0  0
   32.1953   30.9556   33.1978 H   0  0  0  0  0  0  0  0  0  0  0  0
   33.6931   31.6805   33.7912 H   0  0  0  0  0  0  0  0  0  0  0  0
   33.6925   31.4332   31.2859 H   0  0  0  0  0  0  0  0  0  0  0  0
   33.4758   29.6653   31.4722 H   0  0  0  0  0  0  0  0  0  0  0  0
   35.7128   30.0021   31.1357 H   0  0  0  0  0  0  0  0  0  0  0  0
   36.8664   32.2034   30.2253 H   0  0  0  0  0  0  0  0  0  0  0  0
   37.8786   34.2605   31.2953 H   0  0  0  0  0  0  0  0  0  0  0  0
   37.9643   35.3446   33.9117 H   0  0  0  0  0  0  0  0  0  0  0  0
   37.2173   34.9401   36.2336 H   0  0  0  0  0  0  0  0  0  0  0  0
   35.8786   32.9124   36.7376 H   0  0  0  0  0  0  0  0  0  0  0  0
   35.3236   31.3383   34.9275 H   0  0  0  0  0  0  0  0  0  0  0  0
   35.0732   27.4372   32.9913 H   0  0  0  0  0  0  0  0  0  0  0  0
   35.1485   28.3259   31.3851 H   0  0  0  0  0  0  0  0  0  0  0  0
   36.7651   26.4829   31.4824 H   0  0  0  0  0  0  0  0  0  0  0  0
   37.3394   25.5617   36.2668 H   0  0  0  0  0  0  0  0  0  0  0  0
   36.0196   26.1987   34.2213 H   0  0  0  0  0  0  0  0  0  0  0  0
   40.8235   27.1925   34.4649 H   0  0  0  0  0  0  0  0  0  0  0  0
   38.3679   29.0038   31.6054 H   0  0  0  0  0  0  0  0  0  0  0  0
   38.3767   27.6678   30.4046 H   0  0  0  0  0  0  0  0  0  0  0  0
   37.0390   28.8667   30.4046 H   0  0  0  0  0  0  0  0  0  0  0  0
  1  2  1  0
  3  2  1  0
  4  3  1  0
  5  6  1  0
  5  4  1  0
  6  7  1  0
  6  1  1  0
  7 15  1  0
  8  9  1  0
  8  7  2  0
  9 10  1  0
 10 15  2  0
 10 11  1  0
 11 12  2  0
 12 13  1  0
 14 13  2  0
 15 14  1  0
 16  1  1  0
 17 16  1  0
 17 20  1  0
 18 23  2  0
 19 18  1  0
 20 21  1  0
 20 19  2  0
 21 22  2  0
 22 23  1  0
 24 17  1  0
  2 25  1  0
  2 26  1  0
  3 27  1  0
  3 28  1  0
  4 29  1  0
  4 30  1  0
  5 31  1  0
  5 32  1  0
  6 33  1  6
  8 34  1  0
  9 35  1  0
 11 36  1  0
 12 37  1  0
 13 38  1  0
 14 39  1  0
 16 40  1  0
 16 41  1  0
 17 42  1  6
 18 43  1  0
 19 44  1  0
 22 45  1  0
 24 46  1  0
 24 47  1  0
 24 48  1  0
M  ISO  8  25  13  26  13  27  13  28  13  29  13  30  13  31  13  32  13
M  ISO  8  33  13  34  14  35   9  36  14  37  14  38  14  39  14  40   8
M  ISO  8  41   8  42   8  43  14  44  14  45  14  46   8  47   8  48   8
M  END
>  <minimizedAffinity>  (1) 
-4.9026289

>  <minimizedRMSD>  (1) 
1.43371773

$$$$
