
     RDKit          3D

 41 43  0  0  1  0  0  0  0  0999 V2000
   35.0900   29.9070   33.5690 N   0  0  0  0  0  0  0  0  0  0  0  0
   35.4770   31.1110   34.2710 C   0  0  0  0  0  0  0  0  0  0  0  0
   34.7850   31.2430   35.6110 C   0  0  0  0  0  0  0  0  0  0  0  0
   33.2800   31.2690   35.3600 C   0  0  0  0  0  0  0  0  0  0  0  0
   32.9360   29.8920   34.7820 C   0  0  0  0  0  0  0  0  0  0  0  0
   33.6570   29.7560   33.4790 C   0  0  1  0  0  0  0  0  0  0  0  0
   33.0690   30.5450   32.3720 C   0  0  0  0  0  0  0  0  0  0  0  0
   31.7750   30.9970   32.2020 C   0  0  0  0  0  0  0  0  0  0  0  0
   31.7620   31.6740   31.0130 C   0  0  0  0  0  0  0  0  0  0  0  0
   33.0090   31.6360   30.4730 N   0  0  0  0  0  0  0  0  0  0  0  0
   33.7860   30.9540   31.3000 N   0  0  0  0  0  0  0  0  0  0  0  0
   35.6440   28.7250   34.1190 C   0  0  0  0  0  0  0  0  0  0  0  0
   36.5220   27.9010   33.1880 C   0  0  2  0  0  0  0  0  0  0  0  0
   39.0880   27.0220   35.8350 C   0  0  0  0  0  0  0  0  0  0  0  0
   37.8840   27.4170   35.2170 C   0  0  0  0  0  0  0  0  0  0  0  0
   37.7750   27.4980   33.8400 C   0  0  0  0  0  0  0  0  0  0  0  0
   38.8970   27.1720   33.1100 N   0  0  0  0  0  0  0  0  0  0  0  0
   40.0400   26.7980   33.6970 C   0  0  0  0  0  0  0  0  0  0  0  0
   40.1580   26.7160   35.0480 N   0  0  0  0  0  0  0  0  0  0  0  0
   36.7130   28.6650   31.9050 C   0  0  0  0  0  0  0  0  0  0  0  0
   36.5645   31.0906   34.4351 H   0  0  0  0  0  0  0  0  0  0  0  0
   35.1797   31.9710   33.6529 H   0  0  0  0  0  0  0  0  0  0  0  0
   35.0426   30.3862   36.2509 H   0  0  0  0  0  0  0  0  0  0  0  0
   35.1052   32.1647   36.1189 H   0  0  0  0  0  0  0  0  0  0  0  0
   32.7364   31.4372   36.3014 H   0  0  0  0  0  0  0  0  0  0  0  0
   32.9951   32.0812   34.6751 H   0  0  0  0  0  0  0  0  0  0  0  0
   33.2615   29.1023   35.4751 H   0  0  0  0  0  0  0  0  0  0  0  0
   31.8502   29.7949   34.6348 H   0  0  0  0  0  0  0  0  0  0  0  0
   33.4929   28.7022   33.2094 H   0  0  0  0  0  0  0  0  0  0  0  0
   30.9262   30.8437   32.8847 H   0  0  0  0  0  0  0  0  0  0  0  0
   30.8861   32.1680   30.5672 H   0  0  0  0  0  0  0  0  0  0  0  0
   33.2976   32.0615   29.5805 H   0  0  0  0  0  0  0  0  0  0  0  0
   36.2532   29.0124   34.9886 H   0  0  0  0  0  0  0  0  0  0  0  0
   34.7855   28.0816   34.3620 H   0  0  0  0  0  0  0  0  0  0  0  0
   36.0274   26.9506   32.9385 H   0  0  0  0  0  0  0  0  0  0  0  0
   39.1625   26.9619   36.9308 H   0  0  0  0  0  0  0  0  0  0  0  0
   37.0137   27.6658   35.8421 H   0  0  0  0  0  0  0  0  0  0  0  0
   40.9079   26.5501   33.0683 H   0  0  0  0  0  0  0  0  0  0  0  0
   36.9739   29.7086   32.1350 H   0  0  0  0  0  0  0  0  0  0  0  0
   37.5237   28.2045   31.3212 H   0  0  0  0  0  0  0  0  0  0  0  0
   35.7810   28.6402   31.3212 H   0  0  0  0  0  0  0  0  0  0  0  0
  1 12  1  0
  1  2  1  0
  2  3  1  0
  4  3  1  0
  5  4  1  0
  6  1  1  0
  6  5  1  0
  7  6  1  0
  8  7  1  0
  9  8  2  0
 10  9  1  0
 10 11  1  0
 11  7  2  0
 13 16  1  0
 13 12  1  0
 15 14  2  0
 16 15  1  0
 17 18  1  0
 17 16  2  0
 18 19  2  0
 19 14  1  0
 20 13  1  0
  2 21  1  0
  2 22  1  0
  3 23  1  0
  3 24  1  0
  4 25  1  0
  4 26  1  0
  5 27  1  0
  5 28  1  0
  6 29  1  6
  8 30  1  0
  9 31  1  0
 10 32  1  0
 12 33  1  0
 12 34  1  0
 13 35  1  6
 14 36  1  0
 15 37  1  0
 18 38  1  0
 20 39  1  0
 20 40  1  0
 20 41  1  0
M  ISO  8  21  13  22  13  23  13  24  13  25  13  26  13  27  13  28  13
M  ISO  8  29  13  30  14  31  14  32   9  33   8  34   8  35   8  36  14
M  ISO  5  37  14  38  14  39   8  40   8  41   8
M  END
>  <minimizedAffinity>  (1) 
-4.49423456

>  <minimizedRMSD>  (1) 
3.75293398

$$$$
