
     RDKit          3D

 40 42  0  0  1  0  0  0  0  0999 V2000
   36.3740   27.8220   33.3150 N   0  0  0  0  0  0  0  0  0  0  0  0
   36.6440   27.3280   34.6420 C   0  0  0  0  0  0  0  0  0  0  0  0
   38.1020   27.4280   34.9940 C   0  0  0  0  0  0  0  0  0  0  0  0
   38.9010   26.6210   33.9780 C   0  0  0  0  0  0  0  0  0  0  0  0
   38.6870   27.3310   32.6340 C   0  0  0  0  0  0  0  0  0  0  0  0
   37.2160   27.2120   32.3250 C   0  0  1  0  0  0  0  0  0  0  0  0
   36.8350   25.7820   32.1100 C   0  0  0  0  0  0  0  0  0  0  0  0
   35.6340   25.4580   31.3740 C   0  0  0  0  0  0  0  0  0  0  0  0
   35.5920   23.6530   31.3650 S   0  0  0  0  0  0  0  0  0  0  0  0
   37.2090   23.5880   32.3610 C   0  0  0  0  0  0  0  0  0  0  0  0
   37.4350   24.6760   32.4890 N   0  0  0  0  0  0  0  0  0  0  0  0
   36.4160   29.2300   33.2010 C   0  0  0  0  0  0  0  0  0  0  0  0
   35.0780   29.9450   33.1930 C   0  0  2  0  0  0  0  0  0  0  0  0
   35.4290   31.8450   36.4550 C   0  0  0  0  0  0  0  0  0  0  0  0
   35.7360   31.2520   35.2130 C   0  0  0  0  0  0  0  0  0  0  0  0
   34.7800   30.5620   34.4870 C   0  0  0  0  0  0  0  0  0  0  0  0
   33.5270   30.4920   35.0500 N   0  0  0  0  0  0  0  0  0  0  0  0
   33.2350   31.0540   36.2280 C   0  0  0  0  0  0  0  0  0  0  0  0
   34.1710   31.7320   36.9430 N   0  0  0  0  0  0  0  0  0  0  0  0
   34.0170   28.9920   32.7040 C   0  0  0  0  0  0  0  0  0  0  0  0
   36.0626   27.9180   35.3658 H   0  0  0  0  0  0  0  0  0  0  0  0
   36.3587   26.2661   34.6739 H   0  0  0  0  0  0  0  0  0  0  0  0
   38.4196   28.4807   34.9641 H   0  0  0  0  0  0  0  0  0  0  0  0
   38.2731   27.0342   36.0067 H   0  0  0  0  0  0  0  0  0  0  0  0
   39.9682   26.6154   34.2446 H   0  0  0  0  0  0  0  0  0  0  0  0
   38.5750   25.5710   33.9423 H   0  0  0  0  0  0  0  0  0  0  0  0
   38.9759   28.3895   32.7117 H   0  0  0  0  0  0  0  0  0  0  0  0
   39.3011   26.8804   31.8403 H   0  0  0  0  0  0  0  0  0  0  0  0
   37.0494   27.7732   31.3937 H   0  0  0  0  0  0  0  0  0  0  0  0
   34.9105   26.1527   30.9223 H   0  0  0  0  0  0  0  0  0  0  0  0
   37.7728   22.7131   32.7170 H   0  0  0  0  0  0  0  0  0  0  0  0
   36.9978   29.6176   34.0503 H   0  0  0  0  0  0  0  0  0  0  0  0
   36.8612   29.4308   32.2154 H   0  0  0  0  0  0  0  0  0  0  0  0
   35.1094   30.7919   32.4918 H   0  0  0  0  0  0  0  0  0  0  0  0
   36.1997   32.3910   37.0188 H   0  0  0  0  0  0  0  0  0  0  0  0
   36.7567   31.3395   34.8124 H   0  0  0  0  0  0  0  0  0  0  0  0
   32.2139   30.9654   36.6273 H   0  0  0  0  0  0  0  0  0  0  0  0
   33.5087   28.5355   33.5661 H   0  0  0  0  0  0  0  0  0  0  0  0
   33.2839   29.5408   32.0946 H   0  0  0  0  0  0  0  0  0  0  0  0
   34.4843   28.2044   32.0946 H   0  0  0  0  0  0  0  0  0  0  0  0
  1  2  1  0
  2  3  1  0
  4  3  1  0
  5  4  1  0
  6  5  1  0
  6  1  1  0
  7  6  1  0
  7 11  1  0
  8  7  2  0
  9  8  1  0
  9 10  1  0
 10 11  2  0
 12  1  1  0
 13 12  1  0
 13 16  1  0
 14 19  2  0
 15 14  1  0
 16 17  1  0
 16 15  2  0
 17 18  2  0
 18 19  1  0
 20 13  1  0
  2 21  1  0
  2 22  1  0
  3 23  1  0
  3 24  1  0
  4 25  1  0
  4 26  1  0
  5 27  1  0
  5 28  1  0
  6 29  1  6
  8 30  1  0
 10 31  1  0
 12 32  1  0
 12 33  1  0
 13 34  1  6
 14 35  1  0
 15 36  1  0
 18 37  1  0
 20 38  1  0
 20 39  1  0
 20 40  1  0
M  ISO  8  21  13  22  13  23  13  24  13  25  13  26  13  27  13  28  13
M  ISO  8  29  13  30  14  31  14  32   8  33   8  34   8  35  14  36  14
M  ISO  4  37  14  38   8  39   8  40   8
M  END
>  <minimizedAffinity>  (1) 
-4.35999632

>  <minimizedRMSD>  (1) 
6.44244766

$$$$
