
     RDKit          3D

 38 40  0  0  0  0  0  0  0  0999 V2000
   39.5660   25.7470   35.0180 C   0  0  0  0  0  0  0  0  0  0  0  0
   40.7710   26.1040   34.3690 C   0  0  0  0  0  0  0  0  0  0  0  0
   40.7050   26.1080   32.9710 C   0  0  0  0  0  0  0  0  0  0  0  0
   39.5560   25.7900   32.3410 N   0  0  0  0  0  0  0  0  0  0  0  0
   38.4230   25.4540   32.9980 C   0  0  0  0  0  0  0  0  0  0  0  0
   38.4640   25.4430   34.3510 N   0  0  0  0  0  0  0  0  0  0  0  0
   41.9490   26.4290   35.0820 N   0  0  0  0  0  0  0  0  0  0  0  0
   43.1050   25.6220   35.1550 C   0  0  0  0  0  0  0  0  0  0  0  0
   42.8740   24.3170   35.2640 N   0  0  0  0  0  0  0  0  0  0  0  0
   44.3650   26.3300   35.1030 N   0  0  0  0  0  0  0  0  0  0  0  0
   43.6590   23.6640   35.3000 H   0  0  0  0  0  0  0  0  0  0  0  0
   37.2200   25.1230   32.2630 C   0  0  0  0  0  0  0  0  0  0  0  0
   36.4270   26.1470   31.7940 C   0  0  0  0  0  0  0  0  0  0  0  0
   35.3050   25.7190   31.1060 C   0  0  0  0  0  0  0  0  0  0  0  0
   34.9960   24.4200   30.9010 N   0  0  0  0  0  0  0  0  0  0  0  0
   35.8020   23.4570   31.3790 C   0  0  0  0  0  0  0  0  0  0  0  0
   36.9310   23.8340   32.0710 N   0  0  0  0  0  0  0  0  0  0  0  0
   35.5380   22.0160   31.2010 C   0  0  0  0  0  0  0  0  0  0  0  0
   35.0140   21.3700   32.4670 C   0  0  0  0  0  0  0  0  0  0  0  0
   34.9960   19.9040   32.0150 C   0  0  0  0  0  0  0  0  0  0  0  0
   36.1840   19.7750   31.0740 C   0  0  0  0  0  0  0  0  0  0  0  0
   36.7500   21.1830   30.9230 C   0  0  0  0  0  0  0  0  0  0  0  0
   39.5440   25.7211   36.1175 H   0  0  0  0  0  0  0  0  0  0  0  0
   41.5960   26.3722   32.3825 H   0  0  0  0  0  0  0  0  0  0  0  0
   41.9644   27.3259   35.5882 H   0  0  0  0  0  0  0  0  0  0  0  0
   45.2515   25.8078   35.1510 H   0  0  0  0  0  0  0  0  0  0  0  0
   44.3759   27.3564   35.0180 H   0  0  0  0  0  0  0  0  0  0  0  0
   36.6642   27.2094   31.9521 H   0  0  0  0  0  0  0  0  0  0  0  0
   34.6239   26.4824   30.7018 H   0  0  0  0  0  0  0  0  0  0  0  0
   34.8334   22.0232   30.3563 H   0  0  0  0  0  0  0  0  0  0  0  0
   35.6914   21.5283   33.3191 H   0  0  0  0  0  0  0  0  0  0  0  0
   34.0509   21.7604   32.8276 H   0  0  0  0  0  0  0  0  0  0  0  0
   35.1095   19.2308   32.8775 H   0  0  0  0  0  0  0  0  0  0  0  0
   34.0482   19.6303   31.5284 H   0  0  0  0  0  0  0  0  0  0  0  0
   36.9410   19.1019   31.5030 H   0  0  0  0  0  0  0  0  0  0  0  0
   35.8870   19.3520   30.1030 H   0  0  0  0  0  0  0  0  0  0  0  0
   37.5485   21.3768   31.6543 H   0  0  0  0  0  0  0  0  0  0  0  0
   37.2177   21.3788   29.9468 H   0  0  0  0  0  0  0  0  0  0  0  0
  2  1  2  0
  2  7  1  0
  3  2  1  0
  4  3  2  0
  4  5  1  0
  5  6  2  0
  6  1  1  0
  7  8  1  0
  8  9  2  0
  9 11  1  0
 10  8  1  0
 12  5  1  0
 13 12  2  0
 14 13  1  0
 15 14  2  0
 15 16  1  0
 16 17  2  0
 17 12  1  0
 18 16  1  0
 18 19  1  0
 20 19  1  0
 21 20  1  0
 22 21  1  0
 22 18  1  0
  1 23  1  0
  3 24  1  0
  7 25  1  0
 10 26  1  0
 10 27  1  0
 13 28  1  0
 14 29  1  0
 18 30  1  0
 19 31  1  0
 19 32  1  0
 20 33  1  0
 20 34  1  0
 21 35  1  0
 21 36  1  0
 22 37  1  0
 22 38  1  0
M  ISO  8  23  14  24  14  28  14  29  14  30  13  31  13  32  13  33  13
M  ISO  5  34  13  35  13  36  13  37  13  38  13
M  END
>  <minimizedAffinity>  (1) 
-5.15238762

>  <minimizedRMSD>  (1) 
3.03408623

$$$$
