
     RDKit          3D

 41 43  0  0  1  0  0  0  0  0999 V2000
   35.9970   29.4930   33.0390 N   0  0  0  0  0  0  0  0  0  0  0  0
   35.5800   29.6720   34.4050 C   0  0  0  0  0  0  0  0  0  0  0  0
   34.0720   29.7480   34.5430 C   0  0  0  0  0  0  0  0  0  0  0  0
   33.5930   30.9330   33.7110 C   0  0  0  0  0  0  0  0  0  0  0  0
   33.9170   30.5640   32.2820 C   0  0  0  0  0  0  0  0  0  0  0  0
   35.4040   30.4440   32.1390 C   0  0  1  0  0  0  0  0  0  0  0  0
   36.0650   31.7520   32.2660 C   0  0  0  0  0  0  0  0  0  0  0  0
   36.1730   32.6150   33.3130 C   0  0  0  0  0  0  0  0  0  0  0  0
   36.8530   33.7680   33.1730 C   0  0  0  0  0  0  0  0  0  0  0  0
   37.4360   34.0120   31.8780 C   0  0  0  0  0  0  0  0  0  0  0  0
   36.9290   32.4910   30.9410 S   0  0  0  0  0  0  0  0  0  0  0  0
   35.7610   28.1870   32.5430 C   0  0  0  0  0  0  0  0  0  0  0  0
   36.9900   27.3720   32.1780 C   0  0  2  0  0  0  0  0  0  0  0  0
   37.9770   26.0700   35.6020 C   0  0  0  0  0  0  0  0  0  0  0  0
   37.2100   26.4220   34.4730 C   0  0  0  0  0  0  0  0  0  0  0  0
   37.7770   27.0100   33.3560 C   0  0  0  0  0  0  0  0  0  0  0  0
   39.1300   27.2260   33.4280 N   0  0  0  0  0  0  0  0  0  0  0  0
   39.8680   26.8960   34.4950 C   0  0  0  0  0  0  0  0  0  0  0  0
   39.3020   26.3180   35.5870 N   0  0  0  0  0  0  0  0  0  0  0  0
   37.7720   28.1250   31.1310 C   0  0  0  0  0  0  0  0  0  0  0  0
   35.9470   28.8232   35.0007 H   0  0  0  0  0  0  0  0  0  0  0  0
   35.9982   30.6249   34.7615 H   0  0  0  0  0  0  0  0  0  0  0  0
   33.6139   28.8193   34.1719 H   0  0  0  0  0  0  0  0  0  0  0  0
   33.7861   29.8751   35.5976 H   0  0  0  0  0  0  0  0  0  0  0  0
   32.5102   31.0807   33.8361 H   0  0  0  0  0  0  0  0  0  0  0  0
   34.0763   31.8733   34.0147 H   0  0  0  0  0  0  0  0  0  0  0  0
   33.4429   29.6035   32.0317 H   0  0  0  0  0  0  0  0  0  0  0  0
   33.5376   31.3398   31.6007 H   0  0  0  0  0  0  0  0  0  0  0  0
   35.5680   30.0569   31.1225 H   0  0  0  0  0  0  0  0  0  0  0  0
   35.7030   32.3693   34.2767 H   0  0  0  0  0  0  0  0  0  0  0  0
   36.9579   34.4843   34.0012 H   0  0  0  0  0  0  0  0  0  0  0  0
   38.0269   34.8739   31.5343 H   0  0  0  0  0  0  0  0  0  0  0  0
   35.2073   27.6310   33.3139 H   0  0  0  0  0  0  0  0  0  0  0  0
   35.2118   28.3267   31.6002 H   0  0  0  0  0  0  0  0  0  0  0  0
   36.6865   26.4065   31.7472 H   0  0  0  0  0  0  0  0  0  0  0  0
   37.5038   25.6022   36.4779 H   0  0  0  0  0  0  0  0  0  0  0  0
   36.1281   26.2233   34.4801 H   0  0  0  0  0  0  0  0  0  0  0  0
   40.9497   27.0958   34.4878 H   0  0  0  0  0  0  0  0  0  0  0  0
   38.4807   28.8074   31.6230 H   0  0  0  0  0  0  0  0  0  0  0  0
   38.3258   27.4114   30.5032 H   0  0  0  0  0  0  0  0  0  0  0  0
   37.0798   28.7053   30.5032 H   0  0  0  0  0  0  0  0  0  0  0  0
  1  2  1  0
  2  3  1  0
  4  3  1  0
  5  4  1  0
  6  7  1  0
  6  5  1  0
  6  1  1  0
  7  8  2  0
  9  8  1  0
 10  9  2  0
 11 10  1  0
 11  7  1  0
 12  1  1  0
 13 12  1  0
 13 16  1  0
 15 14  2  0
 16 17  2  0
 16 15  1  0
 17 18  1  0
 18 19  2  0
 19 14  1  0
 20 13  1  0
  2 21  1  0
  2 22  1  0
  3 23  1  0
  3 24  1  0
  4 25  1  0
  4 26  1  0
  5 27  1  0
  5 28  1  0
  6 29  1  6
  8 30  1  0
  9 31  1  0
 10 32  1  0
 12 33  1  0
 12 34  1  0
 13 35  1  6
 14 36  1  0
 15 37  1  0
 18 38  1  0
 20 39  1  0
 20 40  1  0
 20 41  1  0
M  ISO  8  21  13  22  13  23  13  24  13  25  13  26  13  27  13  28  13
M  ISO  8  29  13  30  14  31  14  32  14  33   8  34   8  35   8  36  14
M  ISO  5  37  14  38  14  39   8  40   8  41   8
M  END
>  <minimizedAffinity>  (1) 
-3.9248085

>  <minimizedRMSD>  (1) 
1.56042516

$$$$
