
     RDKit          3D

 50 52  0  0  1  0  0  0  0  0999 V2000
   35.6660   29.7690   32.9280 N   0  0  0  0  0  0  0  0  0  0  0  0
   35.5470   30.3300   34.2530 C   0  0  0  0  0  0  0  0  0  0  0  0
   34.1340   30.2620   34.7870 C   0  0  0  0  0  0  0  0  0  0  0  0
   33.2020   30.9920   33.8380 C   0  0  0  0  0  0  0  0  0  0  0  0
   33.2850   30.2770   32.4970 C   0  0  0  0  0  0  0  0  0  0  0  0
   34.7110   30.3460   32.0240 C   0  0  1  0  0  0  0  0  0  0  0  0
   35.0610   31.8230   31.7920 C   0  0  0  0  0  0  0  0  0  0  0  0
   36.5070   31.9370   31.3130 C   0  0  0  0  0  0  0  0  0  0  0  0
   36.5650   31.6700   29.8300 C   0  0  0  0  0  0  0  0  0  0  0  0
   36.1020   32.9710   29.1650 C   0  0  0  0  0  0  0  0  0  0  0  0
   34.9810   33.5140   30.0280 C   0  0  0  0  0  0  0  0  0  0  0  0
   34.1980   32.4160   30.7160 C   0  0  0  0  0  0  0  0  0  0  0  0
   35.5760   28.3580   32.8880 C   0  0  0  0  0  0  0  0  0  0  0  0
   36.8070   27.6110   32.4120 C   0  0  2  0  0  0  0  0  0  0  0  0
   38.2970   27.0840   35.8600 C   0  0  0  0  0  0  0  0  0  0  0  0
   37.3680   27.3210   34.8220 C   0  0  0  0  0  0  0  0  0  0  0  0
   37.7610   27.3740   33.4940 C   0  0  0  0  0  0  0  0  0  0  0  0
   39.1060   27.1820   33.2600 N   0  0  0  0  0  0  0  0  0  0  0  0
   39.9850   26.9580   34.2420 C   0  0  0  0  0  0  0  0  0  0  0  0
   39.5980   26.9060   35.5420 N   0  0  0  0  0  0  0  0  0  0  0  0
   37.3900   28.3610   31.2440 C   0  0  0  0  0  0  0  0  0  0  0  0
   36.2080   29.7722   34.9327 H   0  0  0  0  0  0  0  0  0  0  0  0
   35.8304   31.3912   34.1928 H   0  0  0  0  0  0  0  0  0  0  0  0
   33.8231   29.2101   34.8702 H   0  0  0  0  0  0  0  0  0  0  0  0
   34.0926   30.7347   35.7794 H   0  0  0  0  0  0  0  0  0  0  0  0
   32.1712   30.9592   34.2207 H   0  0  0  0  0  0  0  0  0  0  0  0
   33.4910   32.0487   33.7386 H   0  0  0  0  0  0  0  0  0  0  0  0
   32.9804   29.2265   32.6140 H   0  0  0  0  0  0  0  0  0  0  0  0
   32.6153   30.7540   31.7663 H   0  0  0  0  0  0  0  0  0  0  0  0
   34.7751   29.7485   31.1026 H   0  0  0  0  0  0  0  0  0  0  0  0
   34.9055   32.3550   32.7421 H   0  0  0  0  0  0  0  0  0  0  0  0
   36.8831   32.9500   31.5186 H   0  0  0  0  0  0  0  0  0  0  0  0
   37.1293   31.2015   31.8437 H   0  0  0  0  0  0  0  0  0  0  0  0
   37.5924   31.4250   29.5228 H   0  0  0  0  0  0  0  0  0  0  0  0
   35.9340   30.8161   29.5426 H   0  0  0  0  0  0  0  0  0  0  0  0
   36.9315   33.6920   29.1201 H   0  0  0  0  0  0  0  0  0  0  0  0
   35.7629   32.7942   28.1336 H   0  0  0  0  0  0  0  0  0  0  0  0
   35.4135   34.1732   30.7951 H   0  0  0  0  0  0  0  0  0  0  0  0
   34.2871   34.0598   29.3718 H   0  0  0  0  0  0  0  0  0  0  0  0
   33.2836   32.8347   31.1615 H   0  0  0  0  0  0  0  0  0  0  0  0
   33.9139   31.6411   29.9888 H   0  0  0  0  0  0  0  0  0  0  0  0
   35.3473   28.0095   33.9059 H   0  0  0  0  0  0  0  0  0  0  0  0
   34.7979   28.1386   32.1421 H   0  0  0  0  0  0  0  0  0  0  0  0
   36.5292   26.6020   32.0732 H   0  0  0  0  0  0  0  0  0  0  0  0
   37.9668   27.0451   36.9085 H   0  0  0  0  0  0  0  0  0  0  0  0
   36.3073   27.4670   35.0740 H   0  0  0  0  0  0  0  0  0  0  0  0
   41.0460   26.8125   33.9908 H   0  0  0  0  0  0  0  0  0  0  0  0
   38.0258   29.1789   31.6139 H   0  0  0  0  0  0  0  0  0  0  0  0
   37.9942   27.6748   30.6323 H   0  0  0  0  0  0  0  0  0  0  0  0
   36.5760   28.7773   30.6323 H   0  0  0  0  0  0  0  0  0  0  0  0
  1  2  1  0
  2  3  1  0
  4  3  1  0
  5  4  1  0
  6  5  1  0
  6  1  1  0
  7  6  1  0
  8  7  1  0
  9  8  1  0
 10  9  1  0
 10 11  1  0
 11 12  1  0
 12  7  1  0
 13  1  1  0
 14 13  1  0
 14 17  1  0
 16 15  2  0
 17 16  1  0
 18 17  2  0
 18 19  1  0
 19 20  2  0
 20 15  1  0
 21 14  1  0
  2 22  1  0
  2 23  1  0
  3 24  1  0
  3 25  1  0
  4 26  1  0
  4 27  1  0
  5 28  1  0
  5 29  1  0
  6 30  1  6
  7 31  1  0
  8 32  1  0
  8 33  1  0
  9 34  1  0
  9 35  1  0
 10 36  1  0
 10 37  1  0
 11 38  1  0
 11 39  1  0
 12 40  1  0
 12 41  1  0
 13 42  1  0
 13 43  1  0
 14 44  1  6
 15 45  1  0
 16 46  1  0
 19 47  1  0
 21 48  1  0
 21 49  1  0
 21 50  1  0
M  ISO  8  22  13  23  13  24  13  25  13  26  13  27  13  28  13  29  13
M  ISO  8  30  13  31  13  32  13  33  13  34  13  35  13  36  13  37  13
M  ISO  8  38  13  39  13  40  13  41  13  42   8  43   8  44   8  45  14
M  ISO  5  46  14  47  14  48   8  49   8  50   8
M  END
>  <minimizedAffinity>  (1) 
-4.02921724

>  <minimizedRMSD>  (1) 
2.13179302

$$$$
