
     RDKit          3D

 46 47  0  0  1  0  0  0  0  0999 V2000
   35.8910   29.4980   32.8120 N   0  0  0  0  0  0  0  0  0  0  0  0
   35.5750   29.6950   34.2130 C   0  0  0  0  0  0  0  0  0  0  0  0
   34.1240   29.6740   34.5320 C   0  0  0  0  0  0  0  0  0  0  0  0
   33.3350   30.5980   33.6500 C   0  0  0  0  0  0  0  0  0  0  0  0
   33.6430   30.2900   32.2350 C   0  0  0  0  0  0  0  0  0  0  0  0
   35.1110   30.3320   31.9520 C   0  0  1  0  0  0  0  0  0  0  0  0
   35.6580   31.6560   31.5790 C   0  0  0  0  0  0  0  0  0  0  0  0
   36.8670   31.6110   30.6650 C   0  0  0  0  0  0  0  0  0  0  0  0
   34.6740   32.5990   30.9380 C   0  0  0  0  0  0  0  0  0  0  0  0
   36.1770   32.4730   32.7870 C   0  0  0  0  0  0  0  0  0  0  0  0
   35.7330   28.1130   32.4570 C   0  0  0  0  0  0  0  0  0  0  0  0
   36.9800   27.3570   32.1230 C   0  0  2  0  0  0  0  0  0  0  0  0
   37.9120   26.2010   35.6330 C   0  0  0  0  0  0  0  0  0  0  0  0
   37.1850   26.5090   34.4800 C   0  0  0  0  0  0  0  0  0  0  0  0
   37.7670   27.0270   33.3380 C   0  0  0  0  0  0  0  0  0  0  0  0
   39.1300   27.2190   33.4150 N   0  0  0  0  0  0  0  0  0  0  0  0
   39.8320   26.9280   34.5070 C   0  0  0  0  0  0  0  0  0  0  0  0
   39.2390   26.4180   35.6250 N   0  0  0  0  0  0  0  0  0  0  0  0
   37.7870   28.1440   31.1220 C   0  0  0  0  0  0  0  0  0  0  0  0
   36.0641   28.8963   34.7900 H   0  0  0  0  0  0  0  0  0  0  0  0
   35.9355   30.7010   34.4739 H   0  0  0  0  0  0  0  0  0  0  0  0
   33.7469   28.6493   34.3985 H   0  0  0  0  0  0  0  0  0  0  0  0
   34.0022   30.0138   35.5711 H   0  0  0  0  0  0  0  0  0  0  0  0
   32.2599   30.4549   33.8334 H   0  0  0  0  0  0  0  0  0  0  0  0
   33.6020   31.6420   33.8707 H   0  0  0  0  0  0  0  0  0  0  0  0
   33.2664   29.2831   32.0020 H   0  0  0  0  0  0  0  0  0  0  0  0
   33.1577   31.0546   31.6106 H   0  0  0  0  0  0  0  0  0  0  0  0
   35.2303   29.8237   30.9838 H   0  0  0  0  0  0  0  0  0  0  0  0
   37.7841   31.5769   31.2715 H   0  0  0  0  0  0  0  0  0  0  0  0
   36.8136   30.7142   30.0302 H   0  0  0  0  0  0  0  0  0  0  0  0
   36.8804   32.5093   30.0302 H   0  0  0  0  0  0  0  0  0  0  0  0
   34.1158   33.1340   31.7204 H   0  0  0  0  0  0  0  0  0  0  0  0
   35.2152   33.3243   30.3127 H   0  0  0  0  0  0  0  0  0  0  0  0
   33.9723   32.0274   30.3127 H   0  0  0  0  0  0  0  0  0  0  0  0
   35.8660   31.9834   33.7216 H   0  0  0  0  0  0  0  0  0  0  0  0
   37.2750   32.5265   32.7489 H   0  0  0  0  0  0  0  0  0  0  0  0
   35.7588   33.4897   32.7489 H   0  0  0  0  0  0  0  0  0  0  0  0
   35.2525   27.6044   33.3058 H   0  0  0  0  0  0  0  0  0  0  0  0
   35.1420   28.1187   31.5293 H   0  0  0  0  0  0  0  0  0  0  0  0
   36.7025   26.3933   31.6711 H   0  0  0  0  0  0  0  0  0  0  0  0
   37.4121   25.7920   36.5234 H   0  0  0  0  0  0  0  0  0  0  0  0
   36.0995   26.3311   34.4811 H   0  0  0  0  0  0  0  0  0  0  0  0
   40.9180   27.1030   34.5086 H   0  0  0  0  0  0  0  0  0  0  0  0
   38.4763   28.8162   31.6540 H   0  0  0  0  0  0  0  0  0  0  0  0
   38.3638   27.4520   30.4908 H   0  0  0  0  0  0  0  0  0  0  0  0
   37.1097   28.7380   30.4908 H   0  0  0  0  0  0  0  0  0  0  0  0
  1  2  1  0
  2  3  1  0
  4  3  1  0
  5  4  1  0
  6  5  1  0
  6  1  1  0
  7  6  1  0
  7 10  1  0
  8  7  1  0
  9  7  1  0
 11  1  1  0
 12 11  1  0
 12 15  1  0
 14 13  2  0
 15 16  2  0
 15 14  1  0
 16 17  1  0
 17 18  2  0
 18 13  1  0
 19 12  1  0
  2 20  1  0
  2 21  1  0
  3 22  1  0
  3 23  1  0
  4 24  1  0
  4 25  1  0
  5 26  1  0
  5 27  1  0
  6 28  1  6
  8 29  1  0
  8 30  1  0
  8 31  1  0
  9 32  1  0
  9 33  1  0
  9 34  1  0
 10 35  1  0
 10 36  1  0
 10 37  1  0
 11 38  1  0
 11 39  1  0
 12 40  1  6
 13 41  1  0
 14 42  1  0
 17 43  1  0
 19 44  1  0
 19 45  1  0
 19 46  1  0
M  ISO  8  20  13  21  13  22  13  23  13  24  13  25  13  26  13  27  13
M  ISO  8  28  13  29   8  30   8  31   8  32   8  33   8  34   8  35   8
M  ISO  8  36   8  37   8  38   8  39   8  40   8  41  14  42  14  43  14
M  ISO  3  44   8  45   8  46   8
M  END
>  <minimizedAffinity>  (1) 
-3.77755165

>  <minimizedRMSD>  (1) 
1.7168287

$$$$
