
     RDKit          3D

 27 28  0  0  0  0  0  0  0  0999 V2000
   40.0640   25.2240   35.4320 C   0  0  0  0  0  0  0  0  0  0  0  0
   39.9440   23.8290   35.6410 C   0  0  0  0  0  0  0  0  0  0  0  0
   38.8750   23.2240   34.9750 C   0  0  0  0  0  0  0  0  0  0  0  0
   38.0520   23.9610   34.2030 N   0  0  0  0  0  0  0  0  0  0  0  0
   38.2030   25.3040   34.0290 C   0  0  0  0  0  0  0  0  0  0  0  0
   39.2240   25.8990   34.6630 N   0  0  0  0  0  0  0  0  0  0  0  0
   37.2770   26.0230   33.1850 C   0  0  0  0  0  0  0  0  0  0  0  0
   37.1460   27.3830   33.3730 C   0  0  0  0  0  0  0  0  0  0  0  0
   36.2450   28.0060   32.5140 C   0  0  0  0  0  0  0  0  0  0  0  0
   35.5500   27.3360   31.5690 N   0  0  0  0  0  0  0  0  0  0  0  0
   35.7180   26.0190   31.4340 C   0  0  0  0  0  0  0  0  0  0  0  0
   36.5940   25.3510   32.2530 N   0  0  0  0  0  0  0  0  0  0  0  0
   34.9710   25.3310   30.4270 N   0  0  0  0  0  0  0  0  0  0  0  0
   40.8490   23.1160   36.4670 N   0  0  0  0  0  0  0  0  0  0  0  0
   40.4610   22.3590   37.6000 C   0  0  0  0  0  0  0  0  0  0  0  0
   39.5090   22.8690   38.3470 N   0  0  0  0  0  0  0  0  0  0  0  0
   41.1690   21.1030   37.7970 N   0  0  0  0  0  0  0  0  0  0  0  0
   39.1610   22.3700   39.1740 H   0  0  0  0  0  0  0  0  0  0  0  0
   40.8839   25.7661   35.9259 H   0  0  0  0  0  0  0  0  0  0  0  0
   38.7045   22.1425   35.0811 H   0  0  0  0  0  0  0  0  0  0  0  0
   37.7094   27.9324   34.1416 H   0  0  0  0  0  0  0  0  0  0  0  0
   36.0923   29.0912   32.6088 H   0  0  0  0  0  0  0  0  0  0  0  0
   35.0851   24.3146   30.3054 H   0  0  0  0  0  0  0  0  0  0  0  0
   34.3189   25.8519   29.8234 H   0  0  0  0  0  0  0  0  0  0  0  0
   41.8505   23.1504   36.2287 H   0  0  0  0  0  0  0  0  0  0  0  0
   40.9377   20.5020   38.6009 H   0  0  0  0  0  0  0  0  0  0  0  0
   41.9014   20.8150   37.1325 H   0  0  0  0  0  0  0  0  0  0  0  0
  1  2  2  0
  2 14  1  0
  3  2  1  0
  4  3  2  0
  5  4  1  0
  5  6  2  0
  6  1  1  0
  7  8  2  0
  7  5  1  0
  9  8  1  0
 10  9  2  0
 11 10  1  0
 11 12  2  0
 12  7  1  0
 13 11  1  0
 14 15  1  0
 15 17  1  0
 15 16  2  0
 16 18  1  0
  1 19  1  0
  3 20  1  0
  8 21  1  0
  9 22  1  0
 13 23  1  0
 13 24  1  0
 14 25  1  0
 17 26  1  0
 17 27  1  0
M  ISO  4  19  14  20  14  21  14  22  14
M  END
>  <minimizedAffinity>  (1) 
-5.14989614

>  <minimizedRMSD>  (1) 
0.971010566

$$$$
