
     RDKit          3D

 26 27  0  0  0  0  0  0  0  0999 V2000
   38.8850   26.7540   31.5810 C   0  0  0  0  0  0  0  0  0  0  0  0
   39.0420   25.8180   32.6190 C   0  0  0  0  0  0  0  0  0  0  0  0
   37.8840   25.2820   33.1550 C   0  0  0  0  0  0  0  0  0  0  0  0
   36.6840   25.6670   32.6720 N   0  0  0  0  0  0  0  0  0  0  0  0
   36.5580   26.5630   31.6800 C   0  0  0  0  0  0  0  0  0  0  0  0
   37.6660   27.1000   31.1420 N   0  0  0  0  0  0  0  0  0  0  0  0
   40.4000   25.5660   32.9610 N   0  0  0  0  0  0  0  0  0  0  0  0
   41.1740   24.4910   32.3640 C   0  0  0  0  0  0  0  0  0  0  0  0
   42.1460   23.8440   33.2890 C   0  0  0  0  0  0  0  0  0  0  0  0
   42.7280   24.7510   34.2490 N   0  0  0  0  0  0  0  0  0  0  0  0
   41.7440   25.5430   34.9410 C   0  0  0  0  0  0  0  0  0  0  0  0
   41.0270   26.4260   33.9480 C   0  0  0  0  0  0  0  0  0  0  0  0
   38.1210   24.3360   34.2060 C   0  0  0  0  0  0  0  0  0  0  0  0
   38.1240   24.5530   35.4480 O   0  0  0  0  0  0  0  0  0  0  0  0
   39.7753   27.2090   31.1225 H   0  0  0  0  0  0  0  0  0  0  0  0
   35.5624   26.8532   31.3131 H   0  0  0  0  0  0  0  0  0  0  0  0
   40.4744   23.7209   32.0068 H   0  0  0  0  0  0  0  0  0  0  0  0
   41.7653   24.9429   31.5540 H   0  0  0  0  0  0  0  0  0  0  0  0
   41.6243   23.0460   33.8377 H   0  0  0  0  0  0  0  0  0  0  0  0
   42.9703   23.4597   32.6703 H   0  0  0  0  0  0  0  0  0  0  0  0
   43.2545   24.2014   34.9430 H   0  0  0  0  0  0  0  0  0  0  0  0
   41.0183   24.8793   35.4337 H   0  0  0  0  0  0  0  0  0  0  0  0
   42.2397   26.1673   35.6990 H   0  0  0  0  0  0  0  0  0  0  0  0
   41.7466   27.0972   33.4563 H   0  0  0  0  0  0  0  0  0  0  0  0
   40.2707   27.0414   34.4572 H   0  0  0  0  0  0  0  0  0  0  0  0
   38.3236   23.3013   33.8925 H   0  0  0  0  0  0  0  0  0  0  0  0
  1  2  2  0
  2  7  1  0
  2  3  1  0
  3 13  1  0
  4  3  2  0
  5  4  1  0
  6  1  1  0
  6  5  2  0
  7 12  1  0
  8  7  1  0
  8  9  1  0
  9 10  1  0
 10 11  1  0
 12 11  1  0
 13 14  2  0
  1 15  1  0
  5 16  1  0
  8 17  1  0
  8 18  1  0
  9 19  1  0
  9 20  1  0
 10 21  1  0
 11 22  1  0
 11 23  1  0
 12 24  1  0
 12 25  1  0
 13 26  1  0
M  ISO  8  15  14  16  14  17  13  18  13  19  13  20  13  21   5  22  13
M  ISO  4  23  13  24  13  25  13  26   6
M  END
>  <minimizedAffinity>  (1) 
-2.37340832

>  <minimizedRMSD>  (1) 
6.60018206

$$$$
