
     RDKit          3D

 19 20  0  0  0  0  0  0  0  0999 V2000
   37.5680   23.9090   30.6100 C   0  0  0  0  0  0  0  0  0  0  0  0
   36.4250   23.3460   31.1770 C   0  0  0  0  0  0  0  0  0  0  0  0
   36.3960   21.9740   31.3390 C   0  0  0  0  0  0  0  0  0  0  0  0
   37.4850   21.2500   30.9350 N   0  0  0  0  0  0  0  0  0  0  0  0
   38.5720   21.8170   30.3910 C   0  0  0  0  0  0  0  0  0  0  0  0
   38.6050   23.1550   30.2310 N   0  0  0  0  0  0  0  0  0  0  0  0
   35.2180   21.4020   31.9230 C   0  0  0  0  0  0  0  0  0  0  0  0
   35.1420   21.0030   33.1080 O   0  0  0  0  0  0  0  0  0  0  0  0
   35.3210   24.2830   31.5650 C   0  0  0  0  0  0  0  0  0  0  0  0
   35.7080   25.7470   31.4610 C   0  0  0  0  0  0  0  0  0  0  0  0
   34.7320   25.1760   30.5420 C   0  0  0  0  0  0  0  0  0  0  0  0
   37.6175   24.9991   30.4713 H   0  0  0  0  0  0  0  0  0  0  0  0
   39.4260   21.1977   30.0793 H   0  0  0  0  0  0  0  0  0  0  0  0
   34.3235   21.3075   31.2898 H   0  0  0  0  0  0  0  0  0  0  0  0
   34.8885   23.5959   32.3072 H   0  0  0  0  0  0  0  0  0  0  0  0
   35.3853   26.4586   32.2353 H   0  0  0  0  0  0  0  0  0  0  0  0
   36.6538   26.2978   31.3510 H   0  0  0  0  0  0  0  0  0  0  0  0
   33.6748   25.4696   30.6202 H   0  0  0  0  0  0  0  0  0  0  0  0
   34.6481   25.1324   29.4461 H   0  0  0  0  0  0  0  0  0  0  0  0
  1  2  2  0
  2  3  1  0
  2  9  1  0
  3  7  1  0
  4  3  2  0
  5  4  1  0
  6  5  2  0
  6  1  1  0
  7  8  2  0
 10  9  1  0
 11 10  1  0
 11  9  1  0
  1 12  1  0
  5 13  1  0
  7 14  1  0
  9 15  1  0
 10 16  1  0
 10 17  1  0
 11 18  1  0
 11 19  1  0
M  ISO  8  12  14  13  14  14   6  15  13  16  13  17  13  18  13  19  13
M  END
>  <minimizedAffinity>  (1) 
-2.91413569

>  <minimizedRMSD>  (1) 
7.76390743

$$$$
