
     RDKit          3D

 29 31  0  0  0  0  0  0  0  0999 V2000
   38.1490   22.2070   32.0000 C   0  0  0  0  0  0  0  0  0  0  0  0
   39.2470   22.2150   32.5700 O   0  0  0  0  0  0  0  0  0  0  0  0
   37.7280   23.5590   32.2770 C   0  0  0  0  0  0  0  0  0  0  0  0
   37.2880   24.1320   31.1140 N   0  0  0  0  0  0  0  0  0  0  0  0
   36.8610   25.4150   31.0750 C   0  0  0  0  0  0  0  0  0  0  0  0
   36.8410   26.2170   32.1790 N   0  0  0  0  0  0  0  0  0  0  0  0
   37.2710   25.6710   33.3200 C   0  0  0  0  0  0  0  0  0  0  0  0
   37.3540   26.3700   34.5140 C   0  0  0  0  0  0  0  0  0  0  0  0
   37.8500   25.8000   35.6910 C   0  0  0  0  0  0  0  0  0  0  0  0
   38.2870   24.4690   35.6860 C   0  0  0  0  0  0  0  0  0  0  0  0
   38.1960   23.7910   34.4970 C   0  0  0  0  0  0  0  0  0  0  0  0
   37.7030   24.3730   33.3590 C   0  0  0  0  0  0  0  0  0  0  0  0
   36.0420   19.3050   31.1330 C   0  0  0  0  0  0  0  0  0  0  0  0
   36.5620   20.3740   31.8640 C   0  0  0  0  0  0  0  0  0  0  0  0
   37.6160   21.0700   31.2910 C   0  0  0  0  0  0  0  0  0  0  0  0
   38.0680   20.6630   30.0630 N   0  0  0  0  0  0  0  0  0  0  0  0
   37.5510   19.6400   29.3920 C   0  0  0  0  0  0  0  0  0  0  0  0
   36.5280   18.9610   29.9410 N   0  0  0  0  0  0  0  0  0  0  0  0
   35.9180   20.6420   33.1690 C   0  0  0  0  0  0  0  0  0  0  0  0
   36.8170   21.0180   34.1410 F   0  0  0  0  0  0  0  0  0  0  0  0
   35.0800   21.7510   32.9510 F   0  0  0  0  0  0  0  0  0  0  0  0
   35.1060   19.6120   33.5700 F   0  0  0  0  0  0  0  0  0  0  0  0
   36.5163   25.8281   30.1156 H   0  0  0  0  0  0  0  0  0  0  0  0
   37.0157   27.4165   34.5369 H   0  0  0  0  0  0  0  0  0  0  0  0
   37.8967   26.3937   36.6158 H   0  0  0  0  0  0  0  0  0  0  0  0
   38.6845   23.9900   36.5930 H   0  0  0  0  0  0  0  0  0  0  0  0
   38.5304   22.7439   34.4559 H   0  0  0  0  0  0  0  0  0  0  0  0
   35.2050   18.7285   31.5539 H   0  0  0  0  0  0  0  0  0  0  0  0
   37.9511   19.3541   28.4080 H   0  0  0  0  0  0  0  0  0  0  0  0
  1  3  1  0
  1  2  2  0
  3 12  1  0
  4  3  2  0
  5  4  1  0
  5  6  2  0
  6  7  1  0
  7 12  2  0
  7  8  1  0
  8  9  2  0
 10  9  1  0
 11 10  2  0
 12 11  1  0
 13 14  2  0
 14 19  1  0
 15 14  1  0
 15  1  1  0
 16 15  2  0
 17 18  2  0
 17 16  1  0
 18 13  1  0
 19 22  1  0
 19 20  1  0
 21 19  1  0
  5 23  1  0
  8 24  1  0
  9 25  1  0
 10 26  1  0
 11 27  1  0
 13 28  1  0
 17 29  1  0
M  ISO  7  23  14  24  14  25  14  26  14  27  14  28  14  29  14
M  END
>  <minimizedAffinity>  (1) 
-4.69239426

>  <minimizedRMSD>  (1) 
6.68780661

$$$$
