
     RDKit          3D

 28 29  0  0  0  0  0  0  0  0999 V2000
   37.1430   26.9590   33.6600 C   0  0  0  0  0  0  0  0  0  0  0  0
   37.8720   26.2530   34.6200 C   0  0  0  0  0  0  0  0  0  0  0  0
   38.1030   24.8980   34.3780 C   0  0  0  0  0  0  0  0  0  0  0  0
   37.6090   24.3560   33.2330 N   0  0  0  0  0  0  0  0  0  0  0  0
   36.9140   25.0480   32.3260 C   0  0  0  0  0  0  0  0  0  0  0  0
   36.6870   26.3610   32.5570 N   0  0  0  0  0  0  0  0  0  0  0  0
   38.3020   27.0520   35.7900 C   0  0  0  0  0  0  0  0  0  0  0  0
   38.2150   26.3500   36.9880 F   0  0  0  0  0  0  0  0  0  0  0  0
   39.6690   27.2780   35.6120 F   0  0  0  0  0  0  0  0  0  0  0  0
   37.6970   28.2850   35.8440 F   0  0  0  0  0  0  0  0  0  0  0  0
   38.8600   24.1720   35.3620 C   0  0  0  0  0  0  0  0  0  0  0  0
   38.3130   23.4820   36.2800 O   0  0  0  0  0  0  0  0  0  0  0  0
   43.0810   23.7490   36.0080 C   0  0  0  0  0  0  0  0  0  0  0  0
   42.6010   24.6280   35.0750 C   0  0  0  0  0  0  0  0  0  0  0  0
   41.2280   24.7850   34.8380 C   0  0  0  0  0  0  0  0  0  0  0  0
   40.3020   24.0520   35.5430 C   0  0  0  0  0  0  0  0  0  0  0  0
   40.8580   23.1730   36.4800 C   0  0  0  0  0  0  0  0  0  0  0  0
   42.1980   22.9960   36.7370 C   0  0  0  0  0  0  0  0  0  0  0  0
   44.7890   23.5540   36.3050 S   0  0  0  0  0  0  0  0  0  0  0  0
   45.1410   22.1350   35.9310 O   0  0  0  0  0  0  0  0  0  0  0  0
   45.5800   24.5220   35.4810 O   0  0  0  0  0  0  0  0  0  0  0  0
   36.9407   28.0289   33.8160 H   0  0  0  0  0  0  0  0  0  0  0  0
   36.5359   24.5622   31.4144 H   0  0  0  0  0  0  0  0  0  0  0  0
   43.3145   25.2299   34.4931 H   0  0  0  0  0  0  0  0  0  0  0  0
   40.8870   25.5038   34.0783 H   0  0  0  0  0  0  0  0  0  0  0  0
   40.1551   22.5646   37.0680 H   0  0  0  0  0  0  0  0  0  0  0  0
   42.5461   22.2799   37.4960 H   0  0  0  0  0  0  0  0  0  0  0  0
   45.0843   23.8011   37.6198 H   0  0  0  0  0  0  0  0  0  0  0  0
  1  2  2  0
  2  7  1  0
  3  2  1  0
  3 11  1  0
  4  3  2  0
  5  6  2  0
  5  4  1  0
  6  1  1  0
  7 10  1  0
  7  8  1  0
  9  7  1  0
 11 16  1  0
 11 12  2  0
 13 19  1  0
 13 18  2  0
 14 13  1  0
 15 14  2  0
 15 16  1  0
 16 17  2  0
 17 18  1  0
 20 19  2  0
 21 19  2  0
  1 22  1  0
  5 23  1  0
 14 24  1  0
 15 25  1  0
 17 26  1  0
 18 27  1  0
 19 28  1  0
M  ISO  7  22  14  23  14  24  14  25  14  26  14  27  14  28  11
M  END
>  <minimizedAffinity>  (1) 
-4.92282438

>  <minimizedRMSD>  (1) 
3.37257552

$$$$
