
     RDKit          3D

 24 25  0  0  1  0  0  0  0  0999 V2000
   37.3150   26.8300   33.6180 C   0  0  0  0  0  0  0  0  0  0  0  0
   37.9470   26.1510   34.6640 C   0  0  0  0  0  0  0  0  0  0  0  0
   38.1100   24.7710   34.5260 C   0  0  0  0  0  0  0  0  0  0  0  0
   37.6510   24.1770   33.3970 N   0  0  0  0  0  0  0  0  0  0  0  0
   37.0450   24.8520   32.4020 C   0  0  0  0  0  0  0  0  0  0  0  0
   36.8850   26.1840   32.5330 N   0  0  0  0  0  0  0  0  0  0  0  0
   38.3580   27.0070   35.8000 C   0  0  0  0  0  0  0  0  0  0  0  0
   38.2190   26.3750   37.0280 F   0  0  0  0  0  0  0  0  0  0  0  0
   39.7330   27.1930   35.6510 F   0  0  0  0  0  0  0  0  0  0  0  0
   37.7830   28.2570   35.7670 F   0  0  0  0  0  0  0  0  0  0  0  0
   38.7780   24.0710   35.5900 C   0  0  0  0  0  0  0  0  0  0  0  0
   38.1340   23.5420   36.5690 O   0  0  0  0  0  0  0  0  0  0  0  0
   40.2310   23.8200   35.7720 C   0  0  0  0  0  0  0  0  0  0  0  0
   41.2230   24.3900   35.0580 C   0  0  0  0  0  0  0  0  0  0  0  0
   42.4590   23.9350   35.5400 C   0  0  0  0  0  0  0  0  0  0  0  0
   42.1560   23.1010   36.5380 N   0  0  0  0  0  0  0  0  0  0  0  0
   40.8690   23.0440   36.6620 N   0  0  0  0  0  0  0  0  0  0  0  0
   37.1695   27.9179   33.6911 H   0  0  0  0  0  0  0  0  0  0  0  0
   36.6886   24.3284   31.5027 H   0  0  0  0  0  0  0  0  0  0  0  0
   38.6857   23.1296   35.0286 H   0  0  0  0  0  0  0  0  0  0  0  0
   38.5179   23.8574   37.4253 H   0  0  0  0  0  0  0  0  0  0  0  0
   41.0846   25.0995   34.2288 H   0  0  0  0  0  0  0  0  0  0  0  0
   43.4606   24.2063   35.1751 H   0  0  0  0  0  0  0  0  0  0  0  0
   42.8363   22.5865   37.1154 H   0  0  0  0  0  0  0  0  0  0  0  0
  1  2  2  0
  2  7  1  0
  3  2  1  0
  3 11  1  0
  4  3  2  0
  5  6  2  0
  5  4  1  0
  6  1  1  0
  7  8  1  0
  9  7  1  0
 10  7  1  0
 11 13  1  0
 11 12  1  0
 13 17  2  0
 14 15  2  0
 14 13  1  0
 15 16  1  0
 16 17  1  0
  1 18  1  0
  5 19  1  0
 11 20  1  0
 12 21  1  0
 14 22  1  0
 15 23  1  0
 16 24  1  0
M  ISO  7  18  14  19  14  20   8  21   3  22  14  23  14  24   9
M  END
>  <minimizedAffinity>  (1) 
-4.38679695

>  <minimizedRMSD>  (1) 
2.47514868

$$$$
