
     RDKit          3D

 21 22  0  0  0  0  0  0  0  0999 V2000
   37.3910   23.8640   32.8320 C   0  0  0  0  0  0  0  0  0  0  0  0
   36.8640   22.5600   32.7890 C   0  0  0  0  0  0  0  0  0  0  0  0
   35.9200   22.3100   31.7930 C   0  0  0  0  0  0  0  0  0  0  0  0
   35.5630   23.2970   30.9430 N   0  0  0  0  0  0  0  0  0  0  0  0
   36.0950   24.5400   31.0200 C   0  0  0  0  0  0  0  0  0  0  0  0
   37.0130   24.8010   31.9770 N   0  0  0  0  0  0  0  0  0  0  0  0
   37.3880   21.6440   33.8220 C   0  0  0  0  0  0  0  0  0  0  0  0
   36.4060   20.8070   34.3360 F   0  0  0  0  0  0  0  0  0  0  0  0
   38.2570   20.7980   33.1400 F   0  0  0  0  0  0  0  0  0  0  0  0
   38.1190   22.2860   34.7900 F   0  0  0  0  0  0  0  0  0  0  0  0
   35.4110   20.9680   31.7010 C   0  0  0  0  0  0  0  0  0  0  0  0
   34.2900   20.6240   32.2220 O   0  0  0  0  0  0  0  0  0  0  0  0
   36.0420   19.8040   31.0220 C   0  0  0  0  0  0  0  0  0  0  0  0
   36.1960   18.5960   31.7030 C   0  0  0  0  0  0  0  0  0  0  0  0
   36.9540   17.5090   30.4540 S   0  0  0  0  0  0  0  0  0  0  0  0
   36.9430   18.8970   29.1720 C   0  0  0  0  0  0  0  0  0  0  0  0
   36.4840   19.7040   29.7890 N   0  0  0  0  0  0  0  0  0  0  0  0
   38.1394   24.1121   33.5990 H   0  0  0  0  0  0  0  0  0  0  0  0
   35.7848   25.3250   30.3146 H   0  0  0  0  0  0  0  0  0  0  0  0
   35.9252   18.3580   32.7422 H   0  0  0  0  0  0  0  0  0  0  0  0
   37.2872   18.9060   28.1273 H   0  0  0  0  0  0  0  0  0  0  0  0
  2  1  2  0
  2  7  1  0
  3  2  1  0
  4  5  1  0
  4  3  2  0
  5  6  2  0
  6  1  1  0
  7  8  1  0
  7 10  1  0
  9  7  1  0
 11  3  1  0
 11 12  2  0
 13 11  1  0
 13 14  2  0
 15 14  1  0
 16 17  2  0
 16 15  1  0
 17 13  1  0
  1 18  1  0
  5 19  1  0
 14 20  1  0
 16 21  1  0
M  ISO  4  18  14  19  14  20  14  21  14
M  END
>  <minimizedAffinity>  (1) 
-3.65370369

>  <minimizedRMSD>  (1) 
7.27784586

$$$$
