
     RDKit          3D

 27 28  0  0  0  0  0  0  0  0999 V2000
   37.3000   21.9890   32.9710 C   0  0  0  0  0  0  0  0  0  0  0  0
   36.9790   23.2700   32.5250 C   0  0  0  0  0  0  0  0  0  0  0  0
   37.6700   24.3300   33.1300 C   0  0  0  0  0  0  0  0  0  0  0  0
   38.5800   24.0640   34.0840 N   0  0  0  0  0  0  0  0  0  0  0  0
   38.8680   22.8090   34.4940 C   0  0  0  0  0  0  0  0  0  0  0  0
   38.2150   21.7890   33.9210 N   0  0  0  0  0  0  0  0  0  0  0  0
   37.3460   25.6480   32.6550 C   0  0  0  0  0  0  0  0  0  0  0  0
   36.7250   26.5140   33.3330 O   0  0  0  0  0  0  0  0  0  0  0  0
   37.5330   26.4080   31.4700 N   0  0  0  0  0  0  0  0  0  0  0  0
   36.4920   27.1970   30.8600 C   0  0  0  0  0  0  0  0  0  0  0  0
   37.0330   28.6120   30.7690 C   0  0  0  0  0  0  0  0  0  0  0  0
   38.4750   28.3290   30.4530 C   0  0  0  0  0  0  0  0  0  0  0  0
   38.4710   26.8220   30.4120 C   0  0  0  0  0  0  0  0  0  0  0  0
   35.9440   23.3280   31.4700 C   0  0  0  0  0  0  0  0  0  0  0  0
   34.9660   24.2800   31.7320 F   0  0  0  0  0  0  0  0  0  0  0  0
   36.6030   23.8000   30.3300 F   0  0  0  0  0  0  0  0  0  0  0  0
   35.4310   22.0970   31.1590 F   0  0  0  0  0  0  0  0  0  0  0  0
   36.7866   21.1223   32.5291 H   0  0  0  0  0  0  0  0  0  0  0  0
   39.6188   22.6295   35.2776 H   0  0  0  0  0  0  0  0  0  0  0  0
   36.2601   26.8119   29.8560 H   0  0  0  0  0  0  0  0  0  0  0  0
   35.5632   27.1595   31.4482 H   0  0  0  0  0  0  0  0  0  0  0  0
   36.5449   29.1833   29.9656 H   0  0  0  0  0  0  0  0  0  0  0  0
   36.8706   29.2255   31.6675 H   0  0  0  0  0  0  0  0  0  0  0  0
   38.7678   28.7586   29.4836 H   0  0  0  0  0  0  0  0  0  0  0  0
   39.1891   28.7609   31.1696 H   0  0  0  0  0  0  0  0  0  0  0  0
   38.1273   26.4640   29.4303 H   0  0  0  0  0  0  0  0  0  0  0  0
   39.4765   26.4043   30.5683 H   0  0  0  0  0  0  0  0  0  0  0  0
  1  6  2  0
  2  1  1  0
  2  3  2  0
  3  4  1  0
  4  5  2  0
  6  5  1  0
  7  3  1  0
  7  8  2  0
  9  7  1  0
 10  9  1  0
 11 10  1  0
 12 11  1  0
 13 12  1  0
 13  9  1  0
 14 15  1  0
 14  2  1  0
 16 14  1  0
 17 14  1  0
  1 18  1  0
  5 19  1  0
 10 20  1  0
 10 21  1  0
 11 22  1  0
 11 23  1  0
 12 24  1  0
 12 25  1  0
 13 26  1  0
 13 27  1  0
M  ISO  8  18  14  19  14  20  13  21  13  22  13  23  13  24  13  25  13
M  ISO  2  26  13  27  13
M  END
>  <minimizedAffinity>  (1) 
-3.96125221

>  <minimizedRMSD>  (1) 
6.52392244

$$$$
