
     RDKit          3D

 23 24  0  0  0  0  0  0  0  0999 V2000
   37.9980   27.6280   32.4410 C   0  0  0  0  0  0  0  0  0  0  0  0
   38.0440   26.7030   33.4830 C   0  0  0  0  0  0  0  0  0  0  0  0
   38.5970   25.4410   33.1800 C   0  0  0  0  0  0  0  0  0  0  0  0
   39.0380   25.2180   31.9180 N   0  0  0  0  0  0  0  0  0  0  0  0
   38.9760   26.1360   30.9420 C   0  0  0  0  0  0  0  0  0  0  0  0
   38.4470   27.3530   31.2170 N   0  0  0  0  0  0  0  0  0  0  0  0
   37.5020   27.1750   34.7750 C   0  0  0  0  0  0  0  0  0  0  0  0
   36.7160   26.2250   35.4110 F   0  0  0  0  0  0  0  0  0  0  0  0
   38.6240   27.3240   35.6040 F   0  0  0  0  0  0  0  0  0  0  0  0
   36.8920   28.3970   34.6810 F   0  0  0  0  0  0  0  0  0  0  0  0
   38.6350   24.5060   34.2620 C   0  0  0  0  0  0  0  0  0  0  0  0
   37.8780   23.5490   34.4100 O   0  0  0  0  0  0  0  0  0  0  0  0
   39.4860   24.4360   35.3680 O   0  0  0  0  0  0  0  0  0  0  0  0
   39.2630   22.6500   38.3100 N   0  0  0  0  0  0  0  0  0  0  0  0
   39.7520   22.9660   37.1250 N   0  0  0  0  0  0  0  0  0  0  0  0
   39.0540   24.0210   36.6140 C   0  0  0  0  0  0  0  0  0  0  0  0
   38.1140   24.3340   37.5460 C   0  0  0  0  0  0  0  0  0  0  0  0
   38.2320   23.4770   38.6250 C   0  0  0  0  0  0  0  0  0  0  0  0
   37.5744   28.6241   32.6370 H   0  0  0  0  0  0  0  0  0  0  0  0
   39.3490   25.9045   29.9334 H   0  0  0  0  0  0  0  0  0  0  0  0
   39.6121   21.8878   38.9083 H   0  0  0  0  0  0  0  0  0  0  0  0
   37.3746   25.1433   37.4555 H   0  0  0  0  0  0  0  0  0  0  0  0
   37.6226   23.4670   39.5407 H   0  0  0  0  0  0  0  0  0  0  0  0
  1  2  2  0
  2  7  1  0
  3  2  1  0
  3 11  1  0
  4  3  2  0
  5  6  2  0
  5  4  1  0
  6  1  1  0
  7  8  1  0
  7  9  1  0
 10  7  1  0
 11 12  2  0
 11 13  1  0
 13 16  1  0
 14 18  1  0
 15 14  1  0
 16 15  2  0
 16 17  1  0
 17 18  2  0
  1 19  1  0
  5 20  1  0
 14 21  1  0
 17 22  1  0
 18 23  1  0
M  ISO  5  19  14  20  14  21   9  22  14  23  14
M  END
>  <minimizedAffinity>  (1) 
-4.58957338

>  <minimizedRMSD>  (1) 
3.93686771

$$$$
