
     RDKit          3D

 19 19  0  0  0  0  0  0  0  0999 V2000
   37.9310   26.5580   33.5080 C   0  0  0  0  0  0  0  0  0  0  0  0
   38.1470   25.9330   34.7340 C   0  0  0  0  0  0  0  0  0  0  0  0
   38.0640   24.5220   34.7670 C   0  0  0  0  0  0  0  0  0  0  0  0
   37.7810   23.8900   33.6020 N   0  0  0  0  0  0  0  0  0  0  0  0
   37.5790   24.5210   32.4400 C   0  0  0  0  0  0  0  0  0  0  0  0
   37.6560   25.8590   32.3990 N   0  0  0  0  0  0  0  0  0  0  0  0
   38.4400   26.8530   35.8610 C   0  0  0  0  0  0  0  0  0  0  0  0
   38.1630   26.2950   37.1000 F   0  0  0  0  0  0  0  0  0  0  0  0
   39.8260   27.0190   35.8440 F   0  0  0  0  0  0  0  0  0  0  0  0
   37.8620   28.0880   35.7000 F   0  0  0  0  0  0  0  0  0  0  0  0
   38.2880   23.9130   36.0440 C   0  0  0  0  0  0  0  0  0  0  0  0
   37.3600   23.4960   36.7740 O   0  0  0  0  0  0  0  0  0  0  0  0
   39.4860   23.6660   36.7080 O   0  0  0  0  0  0  0  0  0  0  0  0
   39.6620   23.0040   37.8800 C   0  0  0  0  0  0  0  0  0  0  0  0
   39.2120   23.5420   38.9230 O   0  0  0  0  0  0  0  0  0  0  0  0
   40.3290   21.7590   37.9020 O   0  0  0  0  0  0  0  0  0  0  0  0
   37.9878   27.6549   33.4490 H   0  0  0  0  0  0  0  0  0  0  0  0
   37.3523   23.9487   31.5284 H   0  0  0  0  0  0  0  0  0  0  0  0
   40.4549   21.2800   38.7592 H   0  0  0  0  0  0  0  0  0  0  0  0
  1  2  2  0
  2  3  1  0
  2  7  1  0
  3 11  1  0
  4  3  2  0
  5  4  1  0
  6  5  2  0
  6  1  1  0
  7  8  1  0
  9  7  1  0
 10  7  1  0
 11 13  1  0
 11 12  2  0
 13 14  1  0
 14 16  1  0
 14 15  2  0
  1 17  1  0
  5 18  1  0
 16 19  1  0
M  ISO  3  17  14  18  14  19   3
M  END
>  <minimizedAffinity>  (1) 
-4.58609247

>  <minimizedRMSD>  (1) 
2.46256208

$$$$
