
     RDKit          3D

 23 24  0  0  0  0  0  0  0  0999 V2000
   37.1960   26.8810   33.7100 C   0  0  0  0  0  0  0  0  0  0  0  0
   37.9890   26.1660   34.6160 C   0  0  0  0  0  0  0  0  0  0  0  0
   38.2140   24.8000   34.3290 C   0  0  0  0  0  0  0  0  0  0  0  0
   37.6520   24.2870   33.2070 N   0  0  0  0  0  0  0  0  0  0  0  0
   36.8970   25.0030   32.3610 C   0  0  0  0  0  0  0  0  0  0  0  0
   36.6750   26.3060   32.6240 N   0  0  0  0  0  0  0  0  0  0  0  0
   38.4850   26.9610   35.7650 C   0  0  0  0  0  0  0  0  0  0  0  0
   38.2740   26.3270   36.9830 F   0  0  0  0  0  0  0  0  0  0  0  0
   39.8800   26.9740   35.6040 F   0  0  0  0  0  0  0  0  0  0  0  0
   38.0460   28.2580   35.7430 F   0  0  0  0  0  0  0  0  0  0  0  0
   39.0290   24.1020   35.2760 C   0  0  0  0  0  0  0  0  0  0  0  0
   38.7800   23.9890   36.4760 O   0  0  0  0  0  0  0  0  0  0  0  0
   40.2320   23.4170   35.1010 O   0  0  0  0  0  0  0  0  0  0  0  0
   41.4590   23.9600   35.4030 C   0  0  0  0  0  0  0  0  0  0  0  0
   42.3170   23.3620   36.3320 C   0  0  0  0  0  0  0  0  0  0  0  0
   43.4380   24.0900   36.4390 N   0  0  0  0  0  0  0  0  0  0  0  0
   43.3190   25.1300   35.6080 C   0  0  0  0  0  0  0  0  0  0  0  0
   42.1340   25.0520   34.9870 N   0  0  0  0  0  0  0  0  0  0  0  0
   36.9969   27.9463   33.8986 H   0  0  0  0  0  0  0  0  0  0  0  0
   36.4650   24.5334   31.4650 H   0  0  0  0  0  0  0  0  0  0  0  0
   42.1049   22.4373   36.8888 H   0  0  0  0  0  0  0  0  0  0  0  0
   44.0699   25.9198   35.4584 H   0  0  0  0  0  0  0  0  0  0  0  0
   41.7880   25.7286   34.2918 H   0  0  0  0  0  0  0  0  0  0  0  0
  1  2  2  0
  2  7  1  0
  3  2  1  0
  3 11  1  0
  4  3  2  0
  5  6  2  0
  5  4  1  0
  6  1  1  0
  7  8  1  0
  9  7  1  0
 10  7  1  0
 11 12  2  0
 13 11  1  0
 13 14  1  0
 14 15  2  0
 15 16  1  0
 17 16  2  0
 18 14  1  0
 18 17  1  0
  1 19  1  0
  5 20  1  0
 15 21  1  0
 17 22  1  0
 18 23  1  0
M  ISO  5  19  14  20  14  21  14  22  14  23   9
M  END
>  <minimizedAffinity>  (1) 
-4.25669575

>  <minimizedRMSD>  (1) 
4.04684401

$$$$
