
     RDKit          3D

 20 20  0  0  0  0  0  0  0  0999 V2000
   38.0480   25.6050   33.2180 C   0  0  0  0  0  0  0  0  0  0  0  0
   38.3160   24.9130   34.4010 C   0  0  0  0  0  0  0  0  0  0  0  0
   38.0020   23.5350   34.4210 C   0  0  0  0  0  0  0  0  0  0  0  0
   37.4710   22.9820   33.3060 N   0  0  0  0  0  0  0  0  0  0  0  0
   37.2240   23.6750   32.1780 C   0  0  0  0  0  0  0  0  0  0  0  0
   37.5180   24.9840   32.1500 N   0  0  0  0  0  0  0  0  0  0  0  0
   38.8940   25.7200   35.4830 C   0  0  0  0  0  0  0  0  0  0  0  0
   38.3530   25.4040   36.7340 F   0  0  0  0  0  0  0  0  0  0  0  0
   40.2260   25.3380   35.5650 F   0  0  0  0  0  0  0  0  0  0  0  0
   38.8380   27.0660   35.2240 F   0  0  0  0  0  0  0  0  0  0  0  0
   38.2790   22.8430   35.6440 C   0  0  0  0  0  0  0  0  0  0  0  0
   37.4020   22.5820   36.4930 O   0  0  0  0  0  0  0  0  0  0  0  0
   39.4680   22.3480   36.1310 O   0  0  0  0  0  0  0  0  0  0  0  0
   40.0930   22.5890   37.3010 C   0  0  0  0  0  0  0  0  0  0  0  0
   39.3620   22.6820   38.5440 N   0  0  0  0  0  0  0  0  0  0  0  0
   41.3400   22.7250   37.2390 O   0  0  0  0  0  0  0  0  0  0  0  0
   38.2751   26.6797   33.1589 H   0  0  0  0  0  0  0  0  0  0  0  0
   36.7902   23.1782   31.2977 H   0  0  0  0  0  0  0  0  0  0  0  0
   39.8641   22.8670   39.4241 H   0  0  0  0  0  0  0  0  0  0  0  0
   38.3389   22.5633   38.5499 H   0  0  0  0  0  0  0  0  0  0  0  0
  1  2  2  0
  2  3  1  0
  2  7  1  0
  3 11  1  0
  4  3  2  0
  5  4  1  0
  6  5  2  0
  6  1  1  0
  7  9  1  0
  7  8  1  0
 10  7  1  0
 11 13  1  0
 11 12  2  0
 13 14  1  0
 14 15  1  0
 16 14  2  0
  1 17  1  0
  5 18  1  0
 15 19  1  0
 15 20  1  0
M  ISO  2  17  14  18  14
M  END
>  <minimizedAffinity>  (1) 
-4.05642557

>  <minimizedRMSD>  (1) 
2.05636573

$$$$
