
     RDKit          3D

 22 22  0  0  0  0  0  0  0  0999 V2000
   38.3920   24.1940   32.8210 C   0  0  0  0  0  0  0  0  0  0  0  0
   38.2120   24.1350   34.2100 C   0  0  0  0  0  0  0  0  0  0  0  0
   38.1100   22.8490   34.7840 C   0  0  0  0  0  0  0  0  0  0  0  0
   38.1940   21.7780   33.9640 N   0  0  0  0  0  0  0  0  0  0  0  0
   38.3670   21.8730   32.6380 C   0  0  0  0  0  0  0  0  0  0  0  0
   38.4660   23.0910   32.0760 N   0  0  0  0  0  0  0  0  0  0  0  0
   38.1550   25.4540   34.8770 C   0  0  0  0  0  0  0  0  0  0  0  0
   37.1630   25.5320   35.8410 F   0  0  0  0  0  0  0  0  0  0  0  0
   39.3590   25.5360   35.5990 F   0  0  0  0  0  0  0  0  0  0  0  0
   38.1140   26.5010   33.9990 F   0  0  0  0  0  0  0  0  0  0  0  0
   37.9280   22.8310   36.2040 C   0  0  0  0  0  0  0  0  0  0  0  0
   36.8970   22.4980   36.7880 O   0  0  0  0  0  0  0  0  0  0  0  0
   38.8050   23.1620   37.2350 O   0  0  0  0  0  0  0  0  0  0  0  0
   38.4460   23.2950   38.5690 C   0  0  0  0  0  0  0  0  0  0  0  0
   38.0810   24.7480   38.8110 C   0  0  0  0  0  0  0  0  0  0  0  0
   38.4744   25.1764   32.3330 H   0  0  0  0  0  0  0  0  0  0  0  0
   38.4272   20.9666   32.0176 H   0  0  0  0  0  0  0  0  0  0  0  0
   37.5820   22.6509   38.7896 H   0  0  0  0  0  0  0  0  0  0  0  0
   39.2791   22.9953   39.2218 H   0  0  0  0  0  0  0  0  0  0  0  0
   38.0331   24.9387   39.8933 H   0  0  0  0  0  0  0  0  0  0  0  0
   38.8437   25.3981   38.3576 H   0  0  0  0  0  0  0  0  0  0  0  0
   37.1016   24.9604   38.3576 H   0  0  0  0  0  0  0  0  0  0  0  0
  1  2  2  0
  2  3  1  0
  2  7  1  0
  3 11  1  0
  4  3  2  0
  5  4  1  0
  6  5  2  0
  6  1  1  0
  7  9  1  0
  7  8  1  0
 10  7  1  0
 11 12  2  0
 11 13  1  0
 13 14  1  0
 14 15  1  0
  1 16  1  0
  5 17  1  0
 14 18  1  0
 14 19  1  0
 15 20  1  0
 15 21  1  0
 15 22  1  0
M  ISO  7  16  14  17  14  18   8  19   8  20   8  21   8  22   8
M  END
>  <minimizedAffinity>  (1) 
-3.350173

>  <minimizedRMSD>  (1) 
1.71499586

$$$$
