
     RDKit          3D

 28 29  0  0  1  0  0  0  0  0999 V2000
   35.5290   23.9480   31.3360 C   0  0  0  0  0  0  0  0  0  0  0  0
   36.6230   24.5320   31.9850 C   0  0  0  0  0  0  0  0  0  0  0  0
   37.6550   23.6690   32.4120 C   0  0  0  0  0  0  0  0  0  0  0  0
   37.5180   22.3460   32.1670 N   0  0  0  0  0  0  0  0  0  0  0  0
   36.4490   21.8180   31.5390 C   0  0  0  0  0  0  0  0  0  0  0  0
   35.4570   22.6360   31.1260 N   0  0  0  0  0  0  0  0  0  0  0  0
   36.5450   26.0100   32.1380 C   0  0  0  0  0  0  0  0  0  0  0  0
   36.6540   26.4270   33.4590 F   0  0  0  0  0  0  0  0  0  0  0  0
   37.6890   26.5000   31.5090 F   0  0  0  0  0  0  0  0  0  0  0  0
   35.4450   26.5460   31.5100 F   0  0  0  0  0  0  0  0  0  0  0  0
   38.7540   24.3070   33.0720 C   0  0  0  0  0  0  0  0  0  0  0  0
   39.7780   24.7210   32.4930 O   0  0  0  0  0  0  0  0  0  0  0  0
   38.9520   24.6060   34.4130 O   0  0  0  0  0  0  0  0  0  0  0  0
   41.0370   25.3900   34.8660 N   0  0  0  0  0  0  0  0  0  0  0  0
   41.6890   26.6380   34.5180 C   0  0  0  0  0  0  0  0  0  0  0  0
   40.7100   27.1880   33.4980 C   0  0  0  0  0  0  0  0  0  0  0  0
   39.4140   27.0040   34.2600 C   0  0  0  0  0  0  0  0  0  0  0  0
   39.5990   25.7040   34.9300 C   0  0  1  0  0  0  0  0  0  0  0  0
   34.7063   24.5911   30.9901 H   0  0  0  0  0  0  0  0  0  0  0  0
   36.3852   20.7337   31.3649 H   0  0  0  0  0  0  0  0  0  0  0  0
   41.3726   25.0504   35.7787 H   0  0  0  0  0  0  0  0  0  0  0  0
   41.7839   27.3030   35.3891 H   0  0  0  0  0  0  0  0  0  0  0  0
   42.7201   26.5290   34.1505 H   0  0  0  0  0  0  0  0  0  0  0  0
   40.7219   26.6063   32.5644 H   0  0  0  0  0  0  0  0  0  0  0  0
   40.9127   28.2169   33.1660 H   0  0  0  0  0  0  0  0  0  0  0  0
   39.2708   27.8097   34.9950 H   0  0  0  0  0  0  0  0  0  0  0  0
   38.5251   27.0331   33.6127 H   0  0  0  0  0  0  0  0  0  0  0  0
   39.1642   25.8523   35.9295 H   0  0  0  0  0  0  0  0  0  0  0  0
  1  2  2  0
  2  7  1  0
  2  3  1  0
  3 11  1  0
  4  3  2  0
  5  4  1  0
  6  1  1  0
  6  5  2  0
  7  8  1  0
  9  7  1  0
 10  7  1  0
 11 13  1  0
 12 11  2  0
 14 18  1  0
 15 14  1  0
 16 17  1  0
 16 15  1  0
 17 18  1  0
 18 13  1  0
  1 19  1  0
  5 20  1  0
 14 21  1  0
 15 22  1  0
 15 23  1  0
 16 24  1  0
 16 25  1  0
 17 26  1  0
 17 27  1  0
 18 28  1  1
M  ISO  8  19  14  20  14  21   5  22  13  23  13  24  13  25  13  26  13
M  ISO  2  27  13  28  13
M  END
>  <minimizedAffinity>  (1) 
-3.61652255

>  <minimizedRMSD>  (1) 
4.88673115

$$$$
