
     RDKit          3D

 32 34  0  0  0  0  0  0  0  0999 V2000
   37.8890   23.8200   31.7710 C   0  0  0  0  0  0  0  0  0  0  0  0
   37.3170   23.3520   30.7750 O   0  0  0  0  0  0  0  0  0  0  0  0
   39.0680   27.2680   32.2300 C   0  0  0  0  0  0  0  0  0  0  0  0
   38.2310   26.1450   32.2300 C   0  0  0  0  0  0  0  0  0  0  0  0
   38.7860   24.9350   31.7480 C   0  0  0  0  0  0  0  0  0  0  0  0
   40.0650   24.9490   31.3290 N   0  0  0  0  0  0  0  0  0  0  0  0
   40.8400   26.0410   31.3410 C   0  0  0  0  0  0  0  0  0  0  0  0
   40.3300   27.2000   31.7960 N   0  0  0  0  0  0  0  0  0  0  0  0
   36.8620   26.4000   32.7440 C   0  0  0  0  0  0  0  0  0  0  0  0
   35.8950   25.6600   32.0300 F   0  0  0  0  0  0  0  0  0  0  0  0
   36.8630   25.8940   34.0230 F   0  0  0  0  0  0  0  0  0  0  0  0
   36.5420   27.7340   32.7890 F   0  0  0  0  0  0  0  0  0  0  0  0
   37.4570   23.0230   32.8460 O   0  0  0  0  0  0  0  0  0  0  0  0
   38.1740   22.8480   33.9900 C   0  0  0  0  0  0  0  0  0  0  0  0
   39.4790   22.3960   33.8360 C   0  0  0  0  0  0  0  0  0  0  0  0
   40.3070   22.1830   34.9010 C   0  0  0  0  0  0  0  0  0  0  0  0
   39.7920   22.4370   36.1570 C   0  0  0  0  0  0  0  0  0  0  0  0
   38.5020   22.8830   36.3410 C   0  0  0  0  0  0  0  0  0  0  0  0
   37.7530   23.0690   35.2370 N   0  0  0  0  0  0  0  0  0  0  0  0
   37.9320   23.1610   37.6980 C   0  0  0  0  0  0  0  0  0  0  0  0
   38.7950   23.5310   38.8180 C   0  0  0  0  0  0  0  0  0  0  0  0
   38.0340   24.6360   38.1730 C   0  0  0  0  0  0  0  0  0  0  0  0
   38.6772   28.2289   32.5960 H   0  0  0  0  0  0  0  0  0  0  0  0
   41.8792   25.9912   30.9838 H   0  0  0  0  0  0  0  0  0  0  0  0
   39.8581   22.2032   32.8216 H   0  0  0  0  0  0  0  0  0  0  0  0
   41.3381   21.8251   34.7645 H   0  0  0  0  0  0  0  0  0  0  0  0
   40.4318   22.2782   37.0376 H   0  0  0  0  0  0  0  0  0  0  0  0
   37.1520   22.3955   37.5729 H   0  0  0  0  0  0  0  0  0  0  0  0
   38.5256   23.2120   39.8357 H   0  0  0  0  0  0  0  0  0  0  0  0
   39.8617   23.3733   39.0354 H   0  0  0  0  0  0  0  0  0  0  0  0
   38.5536   25.3849   37.5572 H   0  0  0  0  0  0  0  0  0  0  0  0
   37.3292   25.4125   38.5050 H   0  0  0  0  0  0  0  0  0  0  0  0
  1 13  1  0
  2  1  2  0
  3  4  2  0
  4  9  1  0
  5  1  1  0
  5  4  1  0
  6  7  1  0
  6  5  2  0
  7  8  2  0
  8  3  1  0
  9 12  1  0
  9 11  1  0
 10  9  1  0
 13 14  1  0
 14 19  1  0
 15 14  2  0
 15 16  1  0
 16 17  2  0
 17 18  1  0
 18 20  1  0
 19 18  2  0
 20 22  1  0
 20 21  1  0
 22 21  1  0
  3 23  1  0
  7 24  1  0
 15 25  1  0
 16 26  1  0
 17 27  1  0
 20 28  1  0
 21 29  1  0
 21 30  1  0
 22 31  1  0
 22 32  1  0
M  ISO  8  23  14  24  14  25  14  26  14  27  14  28  13  29  13  30  13
M  ISO  2  31  13  32  13
M  END
>  <minimizedAffinity>  (1) 
-4.24841738

>  <minimizedRMSD>  (1) 
3.74421477

$$$$
