
     RDKit          3D

 34 36  0  0  0  0  0  0  0  0999 V2000
   38.7360   25.5610   33.4600 C   0  0  0  0  0  0  0  0  0  0  0  0
   38.8290   25.0880   32.1560 C   0  0  0  0  0  0  0  0  0  0  0  0
   38.0410   25.5770   31.1470 C   0  0  0  0  0  0  0  0  0  0  0  0
   37.1400   26.5720   31.4750 C   0  0  0  0  0  0  0  0  0  0  0  0
   37.0300   27.0590   32.7590 C   0  0  0  0  0  0  0  0  0  0  0  0
   37.8430   26.5200   33.6900 N   0  0  0  0  0  0  0  0  0  0  0  0
   36.0800   28.1110   33.1100 C   0  0  0  0  0  0  0  0  0  0  0  0
   36.2170   28.7550   34.3150 C   0  0  0  0  0  0  0  0  0  0  0  0
   35.2850   29.7440   34.5910 C   0  0  0  0  0  0  0  0  0  0  0  0
   34.2680   30.0900   33.7340 C   0  0  0  0  0  0  0  0  0  0  0  0
   34.2090   29.3920   32.5510 C   0  0  0  0  0  0  0  0  0  0  0  0
   35.1020   28.4130   32.2380 N   0  0  0  0  0  0  0  0  0  0  0  0
   39.5700   24.9910   34.3670 O   0  0  0  0  0  0  0  0  0  0  0  0
   39.3140   23.7600   34.9940 C   0  0  0  0  0  0  0  0  0  0  0  0
   38.1080   23.5430   34.7980 O   0  0  0  0  0  0  0  0  0  0  0  0
   41.9800   21.3010   35.5630 C   0  0  0  0  0  0  0  0  0  0  0  0
   41.1040   22.1650   34.9140 C   0  0  0  0  0  0  0  0  0  0  0  0
   40.1900   22.8870   35.7160 C   0  0  0  0  0  0  0  0  0  0  0  0
   40.2320   22.6880   37.0500 N   0  0  0  0  0  0  0  0  0  0  0  0
   41.0850   21.8510   37.6440 C   0  0  0  0  0  0  0  0  0  0  0  0
   41.9660   21.1530   36.8970 N   0  0  0  0  0  0  0  0  0  0  0  0
   41.2680   22.1990   33.4320 C   0  0  0  0  0  0  0  0  0  0  0  0
   40.0330   22.1460   32.7700 F   0  0  0  0  0  0  0  0  0  0  0  0
   41.7770   23.4720   33.1720 F   0  0  0  0  0  0  0  0  0  0  0  0
   42.1470   21.2690   32.9620 F   0  0  0  0  0  0  0  0  0  0  0  0
   39.5578   24.2966   31.9270 H   0  0  0  0  0  0  0  0  0  0  0  0
   38.1223   25.1935   30.1192 H   0  0  0  0  0  0  0  0  0  0  0  0
   36.4923   26.9869   30.6887 H   0  0  0  0  0  0  0  0  0  0  0  0
   37.0208   28.5007   35.0216 H   0  0  0  0  0  0  0  0  0  0  0  0
   35.3640   30.2807   35.5479 H   0  0  0  0  0  0  0  0  0  0  0  0
   33.5430   30.8798   33.9803 H   0  0  0  0  0  0  0  0  0  0  0  0
   33.4122   29.6330   31.8320 H   0  0  0  0  0  0  0  0  0  0  0  0
   42.7029   20.7241   34.9675 H   0  0  0  0  0  0  0  0  0  0  0  0
   41.0701   21.7306   38.7373 H   0  0  0  0  0  0  0  0  0  0  0  0
  1  6  1  0
  1 13  1  0
  2  1  2  0
  3  4  2  0
  3  2  1  0
  4  5  1  0
  5  7  1  0
  5  6  2  0
  7  8  2  0
  8  9  1  0
 10  9  2  0
 11 10  1  0
 12 11  2  0
 12  7  1  0
 13 14  1  0
 14 18  1  0
 15 14  2  0
 16 21  2  0
 17 16  1  0
 17 18  2  0
 18 19  1  0
 19 20  2  0
 21 20  1  0
 22 17  1  0
 23 22  1  0
 24 22  1  0
 25 22  1  0
  2 26  1  0
  3 27  1  0
  4 28  1  0
  8 29  1  0
  9 30  1  0
 10 31  1  0
 11 32  1  0
 16 33  1  0
 20 34  1  0
M  ISO  8  26  14  27  14  28  14  29  14  30  14  31  14  32  14  33  14
M  ISO  1  34  14
M  END
>  <minimizedAffinity>  (1) 
-4.097332

>  <minimizedRMSD>  (1) 
7.09645891

$$$$
