
     RDKit          3D

 32 34  0  0  0  0  0  0  0  0999 V2000
   38.3190   25.5010   33.1290 C   0  0  0  0  0  0  0  0  0  0  0  0
   38.4060   24.6470   32.0350 C   0  0  0  0  0  0  0  0  0  0  0  0
   37.7600   24.9100   30.8610 C   0  0  0  0  0  0  0  0  0  0  0  0
   37.0080   26.0660   30.7940 C   0  0  0  0  0  0  0  0  0  0  0  0
   36.9070   26.9280   31.8620 C   0  0  0  0  0  0  0  0  0  0  0  0
   37.5740   26.6010   32.9900 N   0  0  0  0  0  0  0  0  0  0  0  0
   36.1360   28.1340   31.8210 N   0  0  0  0  0  0  0  0  0  0  0  0
   35.1240   28.4610   32.6040 N   0  0  0  0  0  0  0  0  0  0  0  0
   34.6500   29.6900   32.2540 C   0  0  0  0  0  0  0  0  0  0  0  0
   35.4290   30.1130   31.2000 C   0  0  0  0  0  0  0  0  0  0  0  0
   36.3790   29.1240   30.9210 C   0  0  0  0  0  0  0  0  0  0  0  0
   39.0110   25.1190   34.2420 O   0  0  0  0  0  0  0  0  0  0  0  0
   38.7910   23.8960   34.9010 C   0  0  0  0  0  0  0  0  0  0  0  0
   37.6610   23.5300   34.5420 O   0  0  0  0  0  0  0  0  0  0  0  0
   41.4180   21.5840   36.0100 C   0  0  0  0  0  0  0  0  0  0  0  0
   40.5830   22.3160   35.1760 C   0  0  0  0  0  0  0  0  0  0  0  0
   39.6290   23.1620   35.8050 C   0  0  0  0  0  0  0  0  0  0  0  0
   39.6050   23.1890   37.1470 N   0  0  0  0  0  0  0  0  0  0  0  0
   40.4250   22.4700   37.9260 C   0  0  0  0  0  0  0  0  0  0  0  0
   41.3400   21.6600   37.3420 N   0  0  0  0  0  0  0  0  0  0  0  0
   40.8140   22.1050   33.7270 C   0  0  0  0  0  0  0  0  0  0  0  0
   39.6170   21.8040   33.0450 F   0  0  0  0  0  0  0  0  0  0  0  0
   41.2180   23.3400   33.2470 F   0  0  0  0  0  0  0  0  0  0  0  0
   41.7900   21.1830   33.4640 F   0  0  0  0  0  0  0  0  0  0  0  0
   39.0127   23.7332   32.1177 H   0  0  0  0  0  0  0  0  0  0  0  0
   37.8358   24.2272   30.0019 H   0  0  0  0  0  0  0  0  0  0  0  0
   36.4752   26.3044   29.8617 H   0  0  0  0  0  0  0  0  0  0  0  0
   33.8146   30.2338   32.7191 H   0  0  0  0  0  0  0  0  0  0  0  0
   35.3223   31.0690   30.6664 H   0  0  0  0  0  0  0  0  0  0  0  0
   37.1550   29.1433   30.1416 H   0  0  0  0  0  0  0  0  0  0  0  0
   42.1692   20.9190   35.5589 H   0  0  0  0  0  0  0  0  0  0  0  0
   40.3560   22.5366   39.0218 H   0  0  0  0  0  0  0  0  0  0  0  0
  1 12  1  0
  2  1  2  0
  3  2  1  0
  4  3  2  0
  4  5  1  0
  5  6  2  0
  6  1  1  0
  7  5  1  0
  7  8  1  0
  9  8  2  0
 10  9  1  0
 11 10  2  0
 11  7  1  0
 12 13  1  0
 13 17  1  0
 14 13  2  0
 15 20  2  0
 16 17  2  0
 16 15  1  0
 17 18  1  0
 18 19  2  0
 20 19  1  0
 21 16  1  0
 22 21  1  0
 23 21  1  0
 24 21  1  0
  2 25  1  0
  3 26  1  0
  4 27  1  0
  9 28  1  0
 10 29  1  0
 11 30  1  0
 15 31  1  0
 19 32  1  0
M  ISO  8  25  14  26  14  27  14  28  14  29  14  30  14  31  14  32  14
M  END
>  <minimizedAffinity>  (1) 
-3.98697495

>  <minimizedRMSD>  (1) 
7.2324214

$$$$
