
     RDKit          3D

 32 34  0  0  0  0  0  0  0  0999 V2000
   40.8020   24.9980   35.2650 C   0  0  0  0  0  0  0  0  0  0  0  0
   40.4400   23.7370   35.7980 C   0  0  0  0  0  0  0  0  0  0  0  0
   39.0950   23.3980   35.6400 C   0  0  0  0  0  0  0  0  0  0  0  0
   38.2450   24.2370   35.0210 N   0  0  0  0  0  0  0  0  0  0  0  0
   38.6340   25.4410   34.5230 C   0  0  0  0  0  0  0  0  0  0  0  0
   39.9270   25.7930   34.6620 N   0  0  0  0  0  0  0  0  0  0  0  0
   41.3790   22.8920   36.4390 N   0  0  0  0  0  0  0  0  0  0  0  0
   41.0590   21.9230   37.4120 C   0  0  0  0  0  0  0  0  0  0  0  0
   40.1210   22.2720   38.2850 N   0  0  0  0  0  0  0  0  0  0  0  0
   41.7900   20.6750   37.3360 N   0  0  0  0  0  0  0  0  0  0  0  0
   39.8140   21.6180   39.0100 H   0  0  0  0  0  0  0  0  0  0  0  0
   37.6750   26.3050   33.8660 C   0  0  0  0  0  0  0  0  0  0  0  0
   37.3730   27.5290   34.4250 C   0  0  0  0  0  0  0  0  0  0  0  0
   36.4540   28.2670   33.7210 C   0  0  0  0  0  0  0  0  0  0  0  0
   35.8760   27.8490   32.5710 N   0  0  0  0  0  0  0  0  0  0  0  0
   36.1970   26.6620   32.0660 C   0  0  0  0  0  0  0  0  0  0  0  0
   37.1120   25.8650   32.7140 N   0  0  0  0  0  0  0  0  0  0  0  0
   35.6370   26.0900   30.8140 C   0  0  0  0  0  0  0  0  0  0  0  0
   34.2860   25.3570   30.8940 C   0  0  0  0  0  0  0  0  0  0  0  0
   35.5260   24.5670   30.7750 C   0  0  0  0  0  0  0  0  0  0  0  0
   41.8467   25.3308   35.3540 H   0  0  0  0  0  0  0  0  0  0  0  0
   38.7268   22.4357   36.0253 H   0  0  0  0  0  0  0  0  0  0  0  0
   42.3694   22.9930   36.1746 H   0  0  0  0  0  0  0  0  0  0  0  0
   41.6028   19.9262   38.0180 H   0  0  0  0  0  0  0  0  0  0  0  0
   42.4970   20.5363   36.5999 H   0  0  0  0  0  0  0  0  0  0  0  0
   37.8314   27.8852   35.3594 H   0  0  0  0  0  0  0  0  0  0  0  0
   36.1713   29.2546   34.1142 H   0  0  0  0  0  0  0  0  0  0  0  0
   36.0559   26.8848   30.1794 H   0  0  0  0  0  0  0  0  0  0  0  0
   33.7213   25.3510   31.8380 H   0  0  0  0  0  0  0  0  0  0  0  0
   33.3446   25.4076   30.3272 H   0  0  0  0  0  0  0  0  0  0  0  0
   35.7418   24.0282   29.8406 H   0  0  0  0  0  0  0  0  0  0  0  0
   35.9745   23.7491   31.3580 H   0  0  0  0  0  0  0  0  0  0  0  0
  1  2  2  0
  2  7  1  0
  3  2  1  0
  4  3  2  0
  5  6  2  0
  5  4  1  0
  6  1  1  0
  7  8  1  0
  8  9  2  0
  9 11  1  0
 10  8  1  0
 12 13  2  0
 12  5  1  0
 14 13  1  0
 15 14  2  0
 16 15  1  0
 16 17  2  0
 17 12  1  0
 18 19  1  0
 18 16  1  0
 20 18  1  0
 20 19  1  0
  1 21  1  0
  3 22  1  0
  7 23  1  0
 10 24  1  0
 10 25  1  0
 13 26  1  0
 14 27  1  0
 18 28  1  0
 19 29  1  0
 19 30  1  0
 20 31  1  0
 20 32  1  0
M  ISO  8  21  14  22  14  26  14  27  14  28  13  29  13  30  13  31  13
M  ISO  1  32  13
M  END
>  <minimizedAffinity>  (1) 
-4.91707325

>  <minimizedRMSD>  (1) 
1.79155743

$$$$
