
     RDKit          3D

 42 45  0  0  0  0  0  0  0  0999 V2000
   40.1120   26.2810   34.9690 C   0  0  0  0  0  0  0  0  0  0  0  0
   39.1000   27.0340   35.5240 C   0  0  0  0  0  0  0  0  0  0  0  0
   38.0470   26.4540   36.1530 C   0  0  0  0  0  0  0  0  0  0  0  0
   38.0150   25.0840   36.2280 C   0  0  0  0  0  0  0  0  0  0  0  0
   38.9990   24.2990   35.6970 C   0  0  0  0  0  0  0  0  0  0  0  0
   40.0140   24.9600   35.0820 N   0  0  0  0  0  0  0  0  0  0  0  0
   39.0600   22.8060   35.7510 C   0  0  0  0  0  0  0  0  0  0  0  0
   37.8870   22.1320   35.1890 C   0  0  0  0  0  0  0  0  0  0  0  0
   37.0040   21.6580   36.1070 N   0  0  0  0  0  0  0  0  0  0  0  0
   35.9050   21.0020   35.7610 C   0  0  0  0  0  0  0  0  0  0  0  0
   35.5590   20.7470   34.4910 N   0  0  0  0  0  0  0  0  0  0  0  0
   36.4240   21.2090   33.5440 C   0  0  0  0  0  0  0  0  0  0  0  0
   36.0960   20.9740   32.2130 C   0  0  0  0  0  0  0  0  0  0  0  0
   37.0090   21.4790   31.2940 C   0  0  0  0  0  0  0  0  0  0  0  0
   38.1860   22.1770   31.5810 C   0  0  0  0  0  0  0  0  0  0  0  0
   38.4260   22.3620   32.9120 C   0  0  0  0  0  0  0  0  0  0  0  0
   37.5880   21.9020   33.8730 C   0  0  0  0  0  0  0  0  0  0  0  0
   41.1100   26.9880   34.3600 O   0  0  0  0  0  0  0  0  0  0  0  0
   41.5230   26.7130   33.0330 C   0  0  0  0  0  0  0  0  0  0  0  0
   41.9570   25.5370   33.0350 O   0  0  0  0  0  0  0  0  0  0  0  0
   40.1940   28.2300   29.9740 C   0  0  0  0  0  0  0  0  0  0  0  0
   40.2670   27.4480   31.1260 C   0  0  0  0  0  0  0  0  0  0  0  0
   41.4950   27.5350   31.8540 C   0  0  0  0  0  0  0  0  0  0  0  0
   42.4460   28.3370   31.3810 N   0  0  0  0  0  0  0  0  0  0  0  0
   42.3430   29.0750   30.2710 C   0  0  0  0  0  0  0  0  0  0  0  0
   41.1860   29.0110   29.5600 N   0  0  0  0  0  0  0  0  0  0  0  0
   39.0570   26.6450   31.4220 C   0  0  0  0  0  0  0  0  0  0  0  0
   39.3790   25.3880   31.9470 F   0  0  0  0  0  0  0  0  0  0  0  0
   38.4510   27.3530   32.4550 F   0  0  0  0  0  0  0  0  0  0  0  0
   38.1790   26.5930   30.3840 F   0  0  0  0  0  0  0  0  0  0  0  0
   39.1470   28.1309   35.4554 H   0  0  0  0  0  0  0  0  0  0  0  0
   37.2426   27.0639   36.5900 H   0  0  0  0  0  0  0  0  0  0  0  0
   37.1663   24.6005   36.7340 H   0  0  0  0  0  0  0  0  0  0  0  0
   39.9473   22.4774   35.1901 H   0  0  0  0  0  0  0  0  0  0  0  0
   39.0999   22.5316   36.8155 H   0  0  0  0  0  0  0  0  0  0  0  0
   35.2392   20.6468   36.5614 H   0  0  0  0  0  0  0  0  0  0  0  0
   35.1874   20.4322   31.9116 H   0  0  0  0  0  0  0  0  0  0  0  0
   36.7817   21.3121   30.2308 H   0  0  0  0  0  0  0  0  0  0  0  0
   38.8637   22.5471   30.7976 H   0  0  0  0  0  0  0  0  0  0  0  0
   39.3333   22.9046   33.2160 H   0  0  0  0  0  0  0  0  0  0  0  0
   39.2696   28.1988   29.3785 H   0  0  0  0  0  0  0  0  0  0  0  0
   43.1729   29.7174   29.9415 H   0  0  0  0  0  0  0  0  0  0  0  0
  1  6  1  0
  1  2  2  0
  2  3  1  0
  3  4  2  0
  5  7  1  0
  5  4  1  0
  6  5  2  0
  8  7  1  0
  8  9  2  0
 10  9  1  0
 11 10  2  0
 12 17  2  0
 12 11  1  0
 13 12  1  0
 14 15  1  0
 14 13  2  0
 15 16  2  0
 16 17  1  0
 17  8  1  0
 18  1  1  0
 19 20  2  0
 19 18  1  0
 21 22  2  0
 22 27  1  0
 22 23  1  0
 23 19  1  0
 24 23  2  0
 25 24  1  0
 26 21  1  0
 26 25  2  0
 27 28  1  0
 27 29  1  0
 30 27  1  0
  2 31  1  0
  3 32  1  0
  4 33  1  0
  7 34  1  0
  7 35  1  0
 10 36  1  0
 13 37  1  0
 14 38  1  0
 15 39  1  0
 16 40  1  0
 21 41  1  0
 25 42  1  0
M  ISO  8  31  14  32  14  33  14  34   8  35   8  36  14  37  14  38  14
M  ISO  4  39  14  40  14  41  14  42  14
M  END
>  <minimizedAffinity>  (1) 
-5.47187281

>  <minimizedRMSD>  (1) 
5.45513391

$$$$
