
     RDKit          3D

 28 29  0  0  0  0  0  0  0  0999 V2000
   38.1520   21.6850   33.5260 C   0  0  0  0  0  0  0  0  0  0  0  0
   37.0920   21.7530   34.1680 O   0  0  0  0  0  0  0  0  0  0  0  0
   38.3520   21.2500   29.8830 C   0  0  0  0  0  0  0  0  0  0  0  0
   38.2250   21.8580   31.1340 C   0  0  0  0  0  0  0  0  0  0  0  0
   38.2880   21.0080   32.2660 C   0  0  0  0  0  0  0  0  0  0  0  0
   38.4620   19.6930   32.0620 N   0  0  0  0  0  0  0  0  0  0  0  0
   38.5820   19.1360   30.8480 C   0  0  0  0  0  0  0  0  0  0  0  0
   38.5250   19.9250   29.7560 N   0  0  0  0  0  0  0  0  0  0  0  0
   38.0400   23.3310   31.0810 C   0  0  0  0  0  0  0  0  0  0  0  0
   37.0270   23.7550   31.9580 F   0  0  0  0  0  0  0  0  0  0  0  0
   39.2220   23.8460   31.5920 F   0  0  0  0  0  0  0  0  0  0  0  0
   37.8570   23.8070   29.8150 F   0  0  0  0  0  0  0  0  0  0  0  0
   39.0970   22.3850   34.2940 O   0  0  0  0  0  0  0  0  0  0  0  0
   38.7700   23.4270   35.1110 C   0  0  0  0  0  0  0  0  0  0  0  0
   38.7120   24.6760   34.5040 C   0  0  0  0  0  0  0  0  0  0  0  0
   38.3930   25.8070   35.2090 C   0  0  0  0  0  0  0  0  0  0  0  0
   38.1290   25.6610   36.5570 C   0  0  0  0  0  0  0  0  0  0  0  0
   38.1830   24.4340   37.1810 C   0  0  0  0  0  0  0  0  0  0  0  0
   38.5020   23.3690   36.4210 N   0  0  0  0  0  0  0  0  0  0  0  0
   37.9100   24.2170   38.6280 C   0  0  0  0  0  0  0  0  0  0  0  0
   38.3091   21.8735   28.9778 H   0  0  0  0  0  0  0  0  0  0  0  0
   38.7250   18.0503   30.7445 H   0  0  0  0  0  0  0  0  0  0  0  0
   38.9280   24.7589   33.4286 H   0  0  0  0  0  0  0  0  0  0  0  0
   38.3489   26.7918   34.7209 H   0  0  0  0  0  0  0  0  0  0  0  0
   37.8681   26.5503   37.1494 H   0  0  0  0  0  0  0  0  0  0  0  0
   38.6320   24.7909   39.2274 H   0  0  0  0  0  0  0  0  0  0  0  0
   36.8893   24.5530   38.8630 H   0  0  0  0  0  0  0  0  0  0  0  0
   38.0070   23.1468   38.8630 H   0  0  0  0  0  0  0  0  0  0  0  0
  1  2  2  0
  1 13  1  0
  3  4  2  0
  4  5  1  0
  5  1  1  0
  6  5  2  0
  7  6  1  0
  8  3  1  0
  8  7  2  0
  9  4  1  0
  9 11  1  0
  9 10  1  0
 12  9  1  0
 13 14  1  0
 14 19  1  0
 15 14  2  0
 15 16  1  0
 16 17  2  0
 17 18  1  0
 18 20  1  0
 19 18  2  0
  3 21  1  0
  7 22  1  0
 15 23  1  0
 16 24  1  0
 17 25  1  0
 20 26  1  0
 20 27  1  0
 20 28  1  0
M  ISO  8  21  14  22  14  23  14  24  14  25  14  26   8  27   8  28   8
M  END
>  <minimizedAffinity>  (1) 
-3.70603967

>  <minimizedRMSD>  (1) 
1.37346148

$$$$
