
     RDKit          3D

 30 31  0  0  0  0  0  0  0  0999 V2000
   38.9940   21.9880   34.0730 O   0  0  0  0  0  0  0  0  0  0  0  0
   38.6720   22.9870   34.9400 C   0  0  0  0  0  0  0  0  0  0  0  0
   38.6290   24.2550   34.3710 C   0  0  0  0  0  0  0  0  0  0  0  0
   38.3180   25.3570   35.1100 C   0  0  0  0  0  0  0  0  0  0  0  0
   38.0450   25.1620   36.4590 C   0  0  0  0  0  0  0  0  0  0  0  0
   38.0870   23.9140   37.0350 C   0  0  0  0  0  0  0  0  0  0  0  0
   38.4000   22.8750   36.2400 N   0  0  0  0  0  0  0  0  0  0  0  0
   37.8380   23.6690   38.4860 C   0  0  0  0  0  0  0  0  0  0  0  0
   39.1410   23.2830   39.0400 N   0  0  0  0  0  0  0  0  0  0  0  0
   38.0310   21.3920   33.2190 C   0  0  0  0  0  0  0  0  0  0  0  0
   36.9200   21.6340   33.7170 O   0  0  0  0  0  0  0  0  0  0  0  0
   38.5670   20.7830   29.6320 C   0  0  0  0  0  0  0  0  0  0  0  0
   38.3980   21.4420   30.8520 C   0  0  0  0  0  0  0  0  0  0  0  0
   38.1970   20.6390   32.0070 C   0  0  0  0  0  0  0  0  0  0  0  0
   38.1840   19.3100   31.8520 N   0  0  0  0  0  0  0  0  0  0  0  0
   38.3490   18.6920   30.6720 C   0  0  0  0  0  0  0  0  0  0  0  0
   38.5410   19.4350   29.5570 N   0  0  0  0  0  0  0  0  0  0  0  0
   38.4550   22.9330   30.7470 C   0  0  0  0  0  0  0  0  0  0  0  0
   37.4130   23.5490   31.4480 F   0  0  0  0  0  0  0  0  0  0  0  0
   39.6150   23.2530   31.4140 F   0  0  0  0  0  0  0  0  0  0  0  0
   38.5460   23.3820   29.4640 F   0  0  0  0  0  0  0  0  0  0  0  0
   38.8511   24.3713   33.2999 H   0  0  0  0  0  0  0  0  0  0  0  0
   38.2844   26.3592   34.6578 H   0  0  0  0  0  0  0  0  0  0  0  0
   37.7881   26.0305   37.0833 H   0  0  0  0  0  0  0  0  0  0  0  0
   37.4669   24.5827   38.9734 H   0  0  0  0  0  0  0  0  0  0  0  0
   37.0762   22.8920   38.6470 H   0  0  0  0  0  0  0  0  0  0  0  0
   39.0943   23.2968   40.0688 H   0  0  0  0  0  0  0  0  0  0  0  0
   39.3827   22.3343   38.7200 H   0  0  0  0  0  0  0  0  0  0  0  0
   38.7240   21.3723   28.7166 H   0  0  0  0  0  0  0  0  0  0  0  0
   38.3284   17.5938   30.6117 H   0  0  0  0  0  0  0  0  0  0  0  0
  1  2  1  0
  2  7  1  0
  3  2  2  0
  3  4  1  0
  4  5  2  0
  5  6  1  0
  6  8  1  0
  7  6  2  0
  8  9  1  0
 10 11  2  0
 10  1  1  0
 12 13  2  0
 13 14  1  0
 14 10  1  0
 15 14  2  0
 16 15  1  0
 17 12  1  0
 17 16  2  0
 18 13  1  0
 18 20  1  0
 18 19  1  0
 21 18  1  0
  3 22  1  0
  4 23  1  0
  5 24  1  0
  8 25  1  0
  8 26  1  0
  9 27  1  0
  9 28  1  0
 12 29  1  0
 16 30  1  0
M  ISO  8  22  14  23  14  24  14  25   8  26   8  27   5  28   5  29  14
M  ISO  1  30  14
M  END
>  <minimizedAffinity>  (1) 
-3.92733908

>  <minimizedRMSD>  (1) 
0.601091623

$$$$
