
     RDKit          3D

 31 33  0  0  0  0  0  0  0  0999 V2000
   39.7600   25.4530   35.0660 C   0  0  0  0  0  0  0  0  0  0  0  0
   40.9000   25.9470   34.4050 C   0  0  0  0  0  0  0  0  0  0  0  0
   40.7950   26.0070   33.0050 C   0  0  0  0  0  0  0  0  0  0  0  0
   39.6570   25.6060   32.4050 N   0  0  0  0  0  0  0  0  0  0  0  0
   38.5830   25.1380   33.0650 C   0  0  0  0  0  0  0  0  0  0  0  0
   38.6720   25.0750   34.4160 N   0  0  0  0  0  0  0  0  0  0  0  0
   37.3790   24.7230   32.3650 C   0  0  0  0  0  0  0  0  0  0  0  0
   36.5320   25.6700   31.8500 C   0  0  0  0  0  0  0  0  0  0  0  0
   35.4370   25.1510   31.2070 C   0  0  0  0  0  0  0  0  0  0  0  0
   35.1950   23.8290   31.0800 N   0  0  0  0  0  0  0  0  0  0  0  0
   36.0480   22.9340   31.5990 C   0  0  0  0  0  0  0  0  0  0  0  0
   37.1700   23.3950   32.2580 N   0  0  0  0  0  0  0  0  0  0  0  0
   35.9130   21.5180   31.5370 N   0  0  0  0  0  0  0  0  0  0  0  0
   34.8080   20.9060   32.0250 C   0  0  0  0  0  0  0  0  0  0  0  0
   34.9080   19.5840   31.8570 N   0  0  0  0  0  0  0  0  0  0  0  0
   36.0890   19.3530   31.2550 C   0  0  0  0  0  0  0  0  0  0  0  0
   36.7060   20.5490   31.0590 N   0  0  0  0  0  0  0  0  0  0  0  0
   42.0590   26.3510   35.1090 N   0  0  0  0  0  0  0  0  0  0  0  0
   43.2740   25.6370   35.1330 C   0  0  0  0  0  0  0  0  0  0  0  0
   43.1660   24.3240   35.1970 N   0  0  0  0  0  0  0  0  0  0  0  0
   44.4800   26.4510   35.0840 N   0  0  0  0  0  0  0  0  0  0  0  0
   43.9970   23.7330   35.2140 H   0  0  0  0  0  0  0  0  0  0  0  0
   39.7744   25.3785   36.1634 H   0  0  0  0  0  0  0  0  0  0  0  0
   41.6367   26.3791   32.4025 H   0  0  0  0  0  0  0  0  0  0  0  0
   36.7143   26.7507   31.9441 H   0  0  0  0  0  0  0  0  0  0  0  0
   34.7131   25.8538   30.7688 H   0  0  0  0  0  0  0  0  0  0  0  0
   33.9546   21.4207   32.4906 H   0  0  0  0  0  0  0  0  0  0  0  0
   36.4865   18.3675   30.9707 H   0  0  0  0  0  0  0  0  0  0  0  0
   42.0113   27.2307   35.6426 H   0  0  0  0  0  0  0  0  0  0  0  0
   45.4062   26.0006   35.0978 H   0  0  0  0  0  0  0  0  0  0  0  0
   44.4070   27.4773   35.0355 H   0  0  0  0  0  0  0  0  0  0  0  0
  2  1  2  0
  2 18  1  0
  3  2  1  0
  4  3  2  0
  4  5  1  0
  5  6  2  0
  6  1  1  0
  7  5  1  0
  8  7  2  0
  9  8  1  0
 10  9  2  0
 10 11  1  0
 11 12  2  0
 12  7  1  0
 13 11  1  0
 13 14  1  0
 15 14  2  0
 16 15  1  0
 17 16  2  0
 17 13  1  0
 18 19  1  0
 19 20  2  0
 20 22  1  0
 21 19  1  0
  1 23  1  0
  3 24  1  0
  8 25  1  0
  9 26  1  0
 14 27  1  0
 16 28  1  0
 18 29  1  0
 21 30  1  0
 21 31  1  0
M  ISO  6  23  14  24  14  25  14  26  14  27  14  28  14
M  END
>  <minimizedAffinity>  (1) 
-4.73080015

>  <minimizedRMSD>  (1) 
3.30889702

$$$$
