
     RDKit          3D

 29 30  0  0  0  0  0  0  0  0999 V2000
   38.8700   21.9600   34.1090 O   0  0  0  0  0  0  0  0  0  0  0  0
   38.6070   22.9720   34.9830 C   0  0  0  0  0  0  0  0  0  0  0  0
   38.5930   24.2430   34.4150 C   0  0  0  0  0  0  0  0  0  0  0  0
   38.3410   25.3490   35.1590 C   0  0  0  0  0  0  0  0  0  0  0  0
   38.0970   25.1650   36.5150 C   0  0  0  0  0  0  0  0  0  0  0  0
   38.1100   23.9140   37.0940 C   0  0  0  0  0  0  0  0  0  0  0  0
   38.3670   22.8650   36.2860 N   0  0  0  0  0  0  0  0  0  0  0  0
   37.8890   23.6800   38.5480 C   0  0  0  0  0  0  0  0  0  0  0  0
   38.5400   22.5520   39.0110 O   0  0  0  0  0  0  0  0  0  0  0  0
   37.8530   21.3780   33.3070 C   0  0  0  0  0  0  0  0  0  0  0  0
   36.7650   21.6480   33.8590 O   0  0  0  0  0  0  0  0  0  0  0  0
   38.2190   20.7400   29.7060 C   0  0  0  0  0  0  0  0  0  0  0  0
   38.1290   21.4140   30.9260 C   0  0  0  0  0  0  0  0  0  0  0  0
   37.9380   20.6160   32.0940 C   0  0  0  0  0  0  0  0  0  0  0  0
   37.8590   19.2980   31.9390 N   0  0  0  0  0  0  0  0  0  0  0  0
   37.9480   18.6630   30.7580 C   0  0  0  0  0  0  0  0  0  0  0  0
   38.1300   19.4040   29.6360 N   0  0  0  0  0  0  0  0  0  0  0  0
   38.2500   22.8960   30.8170 C   0  0  0  0  0  0  0  0  0  0  0  0
   37.2530   23.5540   31.5420 F   0  0  0  0  0  0  0  0  0  0  0  0
   39.4470   23.1660   31.4530 F   0  0  0  0  0  0  0  0  0  0  0  0
   38.3340   23.3330   29.5290 F   0  0  0  0  0  0  0  0  0  0  0  0
   38.7908   24.3529   33.3385 H   0  0  0  0  0  0  0  0  0  0  0  0
   38.3302   26.3518   34.7071 H   0  0  0  0  0  0  0  0  0  0  0  0
   37.8875   26.0427   37.1441 H   0  0  0  0  0  0  0  0  0  0  0  0
   38.2585   24.5534   39.1053 H   0  0  0  0  0  0  0  0  0  0  0  0
   36.8103   23.5275   38.7002 H   0  0  0  0  0  0  0  0  0  0  0  0
   38.5391   22.5535   40.0010 H   0  0  0  0  0  0  0  0  0  0  0  0
   38.3662   21.3182   28.7819 H   0  0  0  0  0  0  0  0  0  0  0  0
   37.8749   17.5669   30.7021 H   0  0  0  0  0  0  0  0  0  0  0  0
  1  2  1  0
  2  7  1  0
  3  2  2  0
  3  4  1  0
  4  5  2  0
  5  6  1  0
  6  8  1  0
  7  6  2  0
  8  9  1  0
 10 11  2  0
 10  1  1  0
 12 13  2  0
 13 14  1  0
 14 10  1  0
 15 14  2  0
 16 15  1  0
 17 12  1  0
 17 16  2  0
 18 13  1  0
 18 20  1  0
 18 19  1  0
 21 18  1  0
  3 22  1  0
  4 23  1  0
  5 24  1  0
  8 25  1  0
  8 26  1  0
  9 27  1  0
 12 28  1  0
 16 29  1  0
M  ISO  8  22  14  23  14  24  14  25   8  26   8  27   3  28  14  29  14
M  END
>  <minimizedAffinity>  (1) 
-4.0855546

>  <minimizedRMSD>  (1) 
0.772103488

$$$$
