
     RDKit          3D

 29 30  0  0  0  0  0  0  0  0999 V2000
   39.0940   22.5890   33.6930 O   0  0  0  0  0  0  0  0  0  0  0  0
   38.6910   23.6460   34.4550 C   0  0  0  0  0  0  0  0  0  0  0  0
   38.5230   24.8360   33.7640 C   0  0  0  0  0  0  0  0  0  0  0  0
   38.1200   25.9730   34.3900 C   0  0  0  0  0  0  0  0  0  0  0  0
   37.8830   25.8980   35.7600 C   0  0  0  0  0  0  0  0  0  0  0  0
   38.0500   24.7230   36.4610 C   0  0  0  0  0  0  0  0  0  0  0  0
   38.4490   23.6420   35.7690 N   0  0  0  0  0  0  0  0  0  0  0  0
   37.8400   24.6120   37.9330 C   0  0  0  0  0  0  0  0  0  0  0  0
   38.8320   23.3150   38.6940 S   0  0  0  0  0  0  0  0  0  0  0  0
   38.1710   21.8070   32.9510 C   0  0  0  0  0  0  0  0  0  0  0  0
   37.0390   22.0270   33.4390 O   0  0  0  0  0  0  0  0  0  0  0  0
   38.7720   20.7600   29.4830 C   0  0  0  0  0  0  0  0  0  0  0  0
   38.5650   21.5720   30.6030 C   0  0  0  0  0  0  0  0  0  0  0  0
   38.3750   20.9130   31.8470 C   0  0  0  0  0  0  0  0  0  0  0  0
   38.4070   19.5780   31.8600 N   0  0  0  0  0  0  0  0  0  0  0  0
   38.6060   18.8180   30.7710 C   0  0  0  0  0  0  0  0  0  0  0  0
   38.7900   19.4310   29.5720 N   0  0  0  0  0  0  0  0  0  0  0  0
   38.5760   23.0310   30.3110 C   0  0  0  0  0  0  0  0  0  0  0  0
   37.4610   23.6850   30.8720 F   0  0  0  0  0  0  0  0  0  0  0  0
   39.6780   23.4980   30.9800 F   0  0  0  0  0  0  0  0  0  0  0  0
   38.7150   23.3190   28.9820 F   0  0  0  0  0  0  0  0  0  0  0  0
   38.7208   24.8606   32.6822 H   0  0  0  0  0  0  0  0  0  0  0  0
   37.9865   26.9143   33.8368 H   0  0  0  0  0  0  0  0  0  0  0  0
   37.5539   26.7999   36.2969 H   0  0  0  0  0  0  0  0  0  0  0  0
   38.1049   25.5732   38.3977 H   0  0  0  0  0  0  0  0  0  0  0  0
   36.7831   24.3532   38.0944 H   0  0  0  0  0  0  0  0  0  0  0  0
   38.7520   23.4196   40.0577 H   0  0  0  0  0  0  0  0  0  0  0  0
   38.9242   21.2321   28.5012 H   0  0  0  0  0  0  0  0  0  0  0  0
   38.6198   17.7208   30.8478 H   0  0  0  0  0  0  0  0  0  0  0  0
  1  2  1  0
  2  7  2  0
  3  4  2  0
  3  2  1  0
  4  5  1  0
  5  6  2  0
  6  8  1  0
  7  6  1  0
  8  9  1  0
 10 11  2  0
 10  1  1  0
 12 17  2  0
 12 13  1  0
 13 14  2  0
 14 15  1  0
 14 10  1  0
 16 15  2  0
 17 16  1  0
 18 13  1  0
 18 19  1  0
 18 20  1  0
 21 18  1  0
  3 22  1  0
  4 23  1  0
  5 24  1  0
  8 25  1  0
  8 26  1  0
  9 27  1  0
 12 28  1  0
 16 29  1  0
M  ISO  8  22  14  23  14  24  14  25   8  26   8  27  11  28  14  29  14
M  END
>  <minimizedAffinity>  (1) 
-3.25847602

>  <minimizedRMSD>  (1) 
0.969661176

$$$$
