
     RDKit          3D

 43 45  0  0  0  0  0  0  0  0999 V2000
   37.9420   21.9730   32.7610 C   0  0  0  0  0  0  0  0  0  0  0  0
   38.1600   22.6110   31.5380 C   0  0  0  0  0  0  0  0  0  0  0  0
   38.3080   23.9590   31.4510 C   0  0  0  0  0  0  0  0  0  0  0  0
   38.2370   24.6840   32.6330 C   0  0  0  0  0  0  0  0  0  0  0  0
   38.0250   24.0610   33.8550 C   0  0  0  0  0  0  0  0  0  0  0  0
   37.8870   22.7320   33.8550 N   0  0  0  0  0  0  0  0  0  0  0  0
   38.0080   24.7980   35.1430 C   0  0  0  0  0  0  0  0  0  0  0  0
   38.8940   24.1130   36.0390 N   0  0  0  0  0  0  0  0  0  0  0  0
   40.0970   23.6590   35.4530 C   0  0  0  0  0  0  0  0  0  0  0  0
   41.0900   23.2370   36.4800 C   0  0  0  0  0  0  0  0  0  0  0  0
   40.4640   22.3380   37.5390 C   0  0  0  0  0  0  0  0  0  0  0  0
   39.3340   23.0990   38.1710 C   0  0  0  0  0  0  0  0  0  0  0  0
   38.3010   23.3540   37.0670 C   0  0  0  0  0  0  0  0  0  0  0  0
   37.8090   20.6230   32.6900 O   0  0  0  0  0  0  0  0  0  0  0  0
   36.5960   20.0090   32.2800 C   0  0  0  0  0  0  0  0  0  0  0  0
   35.7490   20.9240   32.1880 O   0  0  0  0  0  0  0  0  0  0  0  0
   36.6180   16.8200   30.4520 C   0  0  0  0  0  0  0  0  0  0  0  0
   36.8700   18.1530   30.7950 C   0  0  0  0  0  0  0  0  0  0  0  0
   36.2910   18.6350   31.9970 C   0  0  0  0  0  0  0  0  0  0  0  0
   35.5470   17.7900   32.7220 N   0  0  0  0  0  0  0  0  0  0  0  0
   35.3150   16.5140   32.3790 C   0  0  0  0  0  0  0  0  0  0  0  0
   35.8550   16.0320   31.2400 N   0  0  0  0  0  0  0  0  0  0  0  0
   37.7330   18.8760   29.8100 C   0  0  0  0  0  0  0  0  0  0  0  0
   37.2540   20.1750   29.5610 F   0  0  0  0  0  0  0  0  0  0  0  0
   38.9290   19.0180   30.4780 F   0  0  0  0  0  0  0  0  0  0  0  0
   37.9520   18.1720   28.6650 F   0  0  0  0  0  0  0  0  0  0  0  0
   38.2133   22.0063   30.6207 H   0  0  0  0  0  0  0  0  0  0  0  0
   38.4771   24.4553   30.4840 H   0  0  0  0  0  0  0  0  0  0  0  0
   38.3514   25.7775   32.6002 H   0  0  0  0  0  0  0  0  0  0  0  0
   38.3527   25.8313   34.9898 H   0  0  0  0  0  0  0  0  0  0  0  0
   36.9893   24.8357   35.5563 H   0  0  0  0  0  0  0  0  0  0  0  0
   39.8736   22.8018   34.8008 H   0  0  0  0  0  0  0  0  0  0  0  0
   40.5321   24.4907   34.8794 H   0  0  0  0  0  0  0  0  0  0  0  0
   41.9039   22.6883   35.9835 H   0  0  0  0  0  0  0  0  0  0  0  0
   41.4687   24.1406   36.9801 H   0  0  0  0  0  0  0  0  0  0  0  0
   40.0818   21.4183   37.0719 H   0  0  0  0  0  0  0  0  0  0  0  0
   41.2104   22.0556   38.2960 H   0  0  0  0  0  0  0  0  0  0  0  0
   38.8843   22.5061   38.9811 H   0  0  0  0  0  0  0  0  0  0  0  0
   39.6891   24.0449   38.6060 H   0  0  0  0  0  0  0  0  0  0  0  0
   37.4460   23.9060   37.4845 H   0  0  0  0  0  0  0  0  0  0  0  0
   37.9522   22.3932   36.6605 H   0  0  0  0  0  0  0  0  0  0  0  0
   37.0476   16.4079   29.5270 H   0  0  0  0  0  0  0  0  0  0  0  0
   34.6931   15.8694   33.0175 H   0  0  0  0  0  0  0  0  0  0  0  0
  1  6  1  0
  2  1  2  0
  3  2  1  0
  3  4  2  0
  4  5  1  0
  5  6  2  0
  5  7  1  0
  7  8  1  0
  8 13  1  0
  9  8  1  0
  9 10  1  0
 10 11  1  0
 11 12  1  0
 13 12  1  0
 14  1  1  0
 15 14  1  0
 16 15  2  0
 17 18  2  0
 17 22  1  0
 18 19  1  0
 19 15  1  0
 19 20  2  0
 21 20  1  0
 22 21  2  0
 23 25  1  0
 23 18  1  0
 24 23  1  0
 26 23  1  0
  2 27  1  0
  3 28  1  0
  4 29  1  0
  7 30  1  0
  7 31  1  0
  9 32  1  0
  9 33  1  0
 10 34  1  0
 10 35  1  0
 11 36  1  0
 11 37  1  0
 12 38  1  0
 12 39  1  0
 13 40  1  0
 13 41  1  0
 17 42  1  0
 21 43  1  0
M  ISO  8  27  14  28  14  29  14  30   8  31   8  32  13  33  13  34  13
M  ISO  8  35  13  36  13  37  13  38  13  39  13  40  13  41  13  42  14
M  ISO  1  43  14
M  END
>  <minimizedAffinity>  (1) 
-4.34472656

>  <minimizedRMSD>  (1) 
3.93844533

$$$$
