
     RDKit          3D

 45 48  0  0  0  0  0  0  0  0999 V2000
   37.1220   27.0630   32.5650 O   0  0  0  0  0  0  0  0  0  0  0  0
   37.8400   26.6490   33.6470 C   0  0  0  0  0  0  0  0  0  0  0  0
   39.0880   27.2250   33.7520 C   0  0  0  0  0  0  0  0  0  0  0  0
   39.9250   26.9260   34.7770 C   0  0  0  0  0  0  0  0  0  0  0  0
   39.4690   26.0010   35.7250 C   0  0  0  0  0  0  0  0  0  0  0  0
   38.2170   25.4160   35.6220 C   0  0  0  0  0  0  0  0  0  0  0  0
   37.4450   25.7700   34.5750 N   0  0  0  0  0  0  0  0  0  0  0  0
   37.7090   24.4070   36.5900 C   0  0  0  0  0  0  0  0  0  0  0  0
   38.7970   23.4110   36.8360 C   0  0  0  0  0  0  0  0  0  0  0  0
   39.5620   22.5880   36.0180 C   0  0  0  0  0  0  0  0  0  0  0  0
   40.4180   21.8740   36.8140 C   0  0  0  0  0  0  0  0  0  0  0  0
   40.1820   22.2510   38.0810 N   0  0  0  0  0  0  0  0  0  0  0  0
   39.2300   23.1540   38.0800 N   0  0  0  0  0  0  0  0  0  0  0  0
   36.6570   26.1350   31.5800 C   0  0  0  0  0  0  0  0  0  0  0  0
   35.6660   26.6690   31.0110 O   0  0  0  0  0  0  0  0  0  0  0  0
   38.8780   23.6480   30.0410 C   0  0  0  0  0  0  0  0  0  0  0  0
   38.3340   24.8720   30.4360 C   0  0  0  0  0  0  0  0  0  0  0  0
   37.1370   24.8330   31.2240 C   0  0  0  0  0  0  0  0  0  0  0  0
   36.6310   23.6390   31.5230 N   0  0  0  0  0  0  0  0  0  0  0  0
   37.1690   22.4720   31.1350 C   0  0  0  0  0  0  0  0  0  0  0  0
   38.2900   22.4770   30.3950 N   0  0  0  0  0  0  0  0  0  0  0  0
   36.5170   21.2260   31.5280 C   0  0  0  0  0  0  0  0  0  0  0  0
   37.2890   20.0700   31.6350 C   0  0  0  0  0  0  0  0  0  0  0  0
   36.6320   18.9050   32.0120 C   0  0  0  0  0  0  0  0  0  0  0  0
   35.2670   18.9120   32.2670 C   0  0  0  0  0  0  0  0  0  0  0  0
   34.5070   20.0770   32.1550 C   0  0  0  0  0  0  0  0  0  0  0  0
   35.1590   21.2520   31.7770 C   0  0  0  0  0  0  0  0  0  0  0  0
   39.1050   26.0660   29.9570 C   0  0  0  0  0  0  0  0  0  0  0  0
   38.2370   27.1570   29.7500 F   0  0  0  0  0  0  0  0  0  0  0  0
   39.9160   26.3690   31.0070 F   0  0  0  0  0  0  0  0  0  0  0  0
   39.8640   25.8100   28.8610 F   0  0  0  0  0  0  0  0  0  0  0  0
   39.4131   27.9445   32.9861 H   0  0  0  0  0  0  0  0  0  0  0  0
   40.9189   27.3900   34.8601 H   0  0  0  0  0  0  0  0  0  0  0  0
   40.1196   25.7329   36.5705 H   0  0  0  0  0  0  0  0  0  0  0  0
   37.4350   24.9007   37.5340 H   0  0  0  0  0  0  0  0  0  0  0  0
   36.8174   23.9056   36.1855 H   0  0  0  0  0  0  0  0  0  0  0  0
   39.4922   22.5216   34.9222 H   0  0  0  0  0  0  0  0  0  0  0  0
   41.1582   21.1325   36.4790 H   0  0  0  0  0  0  0  0  0  0  0  0
   40.6676   21.8911   38.9150 H   0  0  0  0  0  0  0  0  0  0  0  0
   39.7957   23.6327   29.4346 H   0  0  0  0  0  0  0  0  0  0  0  0
   38.3697   20.0797   31.4302 H   0  0  0  0  0  0  0  0  0  0  0  0
   37.1991   17.9675   32.1094 H   0  0  0  0  0  0  0  0  0  0  0  0
   34.7724   17.9757   32.5648 H   0  0  0  0  0  0  0  0  0  0  0  0
   33.4260   20.0696   32.3586 H   0  0  0  0  0  0  0  0  0  0  0  0
   34.5953   22.1914   31.6782 H   0  0  0  0  0  0  0  0  0  0  0  0
  1  2  1  0
  2  3  2  0
  2  7  1  0
  3  4  1  0
  4  5  2  0
  6  5  1  0
  6  8  1  0
  7  6  2  0
  8  9  1  0
  9 13  2  0
 10 11  2  0
 10  9  1  0
 11 12  1  0
 13 12  1  0
 14  1  1  0
 15 14  2  0
 16 21  2  0
 16 17  1  0
 17 18  2  0
 18 19  1  0
 18 14  1  0
 20 19  2  0
 20 22  1  0
 21 20  1  0
 22 23  2  0
 22 27  1  0
 23 24  1  0
 24 25  2  0
 26 25  1  0
 27 26  2  0
 28 17  1  0
 28 30  1  0
 29 28  1  0
 31 28  1  0
  3 32  1  0
  4 33  1  0
  5 34  1  0
  8 35  1  0
  8 36  1  0
 10 37  1  0
 11 38  1  0
 12 39  1  0
 16 40  1  0
 23 41  1  0
 24 42  1  0
 25 43  1  0
 26 44  1  0
 27 45  1  0
M  ISO  8  32  14  33  14  34  14  35   8  36   8  37  14  38  14  39   9
M  ISO  6  40  14  41  14  42  14  43  14  44  14  45  14
M  END
>  <minimizedAffinity>  (1) 
-6.45457745

>  <minimizedRMSD>  (1) 
3.81500435

$$$$
