
     RDKit          3D

 43 46  0  0  0  0  0  0  0  0999 V2000
   37.1320   27.0920   32.5830 O   0  0  0  0  0  0  0  0  0  0  0  0
   37.8490   26.6650   33.6580 C   0  0  0  0  0  0  0  0  0  0  0  0
   39.1040   27.2250   33.7600 C   0  0  0  0  0  0  0  0  0  0  0  0
   39.9420   26.9110   34.7800 C   0  0  0  0  0  0  0  0  0  0  0  0
   39.4820   25.9910   35.7230 C   0  0  0  0  0  0  0  0  0  0  0  0
   38.2210   25.4210   35.6240 C   0  0  0  0  0  0  0  0  0  0  0  0
   37.4480   25.7870   34.5840 N   0  0  0  0  0  0  0  0  0  0  0  0
   37.7080   24.4100   36.5930 C   0  0  0  0  0  0  0  0  0  0  0  0
   38.7950   23.4120   36.8330 C   0  0  0  0  0  0  0  0  0  0  0  0
   39.5580   22.5880   36.0170 C   0  0  0  0  0  0  0  0  0  0  0  0
   40.4140   21.8740   36.8140 C   0  0  0  0  0  0  0  0  0  0  0  0
   40.1820   22.2510   38.0780 N   0  0  0  0  0  0  0  0  0  0  0  0
   39.2260   23.1600   38.0850 N   0  0  0  0  0  0  0  0  0  0  0  0
   36.6620   26.1750   31.5880 C   0  0  0  0  0  0  0  0  0  0  0  0
   35.6890   26.7280   31.0100 O   0  0  0  0  0  0  0  0  0  0  0  0
   38.8480   23.6550   30.0530 C   0  0  0  0  0  0  0  0  0  0  0  0
   38.3170   24.8890   30.4430 C   0  0  0  0  0  0  0  0  0  0  0  0
   37.1250   24.8670   31.2340 C   0  0  0  0  0  0  0  0  0  0  0  0
   36.6140   23.6790   31.5360 N   0  0  0  0  0  0  0  0  0  0  0  0
   37.1220   22.5090   31.1650 C   0  0  0  0  0  0  0  0  0  0  0  0
   38.2540   22.4940   30.4130 N   0  0  0  0  0  0  0  0  0  0  0  0
   36.5000   21.2420   31.5380 C   0  0  0  0  0  0  0  0  0  0  0  0
   35.1340   21.2300   31.7800 C   0  0  0  0  0  0  0  0  0  0  0  0
   34.6070   19.9990   32.1300 C   0  0  0  0  0  0  0  0  0  0  0  0
   35.3340   18.8800   32.2370 N   0  0  0  0  0  0  0  0  0  0  0  0
   36.6700   18.9530   31.9880 C   0  0  0  0  0  0  0  0  0  0  0  0
   37.2220   20.1300   31.6450 N   0  0  0  0  0  0  0  0  0  0  0  0
   39.1010   26.0720   29.9580 C   0  0  0  0  0  0  0  0  0  0  0  0
   38.2620   27.1720   29.7490 F   0  0  0  0  0  0  0  0  0  0  0  0
   39.9200   26.3670   31.0110 F   0  0  0  0  0  0  0  0  0  0  0  0
   39.8620   25.8030   28.8650 F   0  0  0  0  0  0  0  0  0  0  0  0
   39.4345   27.9440   32.9960 H   0  0  0  0  0  0  0  0  0  0  0  0
   40.9418   27.3626   34.8601 H   0  0  0  0  0  0  0  0  0  0  0  0
   40.1339   25.7114   36.5638 H   0  0  0  0  0  0  0  0  0  0  0  0
   37.4369   24.9023   37.5386 H   0  0  0  0  0  0  0  0  0  0  0  0
   36.8129   23.9130   36.1909 H   0  0  0  0  0  0  0  0  0  0  0  0
   39.4877   22.5200   34.9214 H   0  0  0  0  0  0  0  0  0  0  0  0
   41.1527   21.1310   36.4787 H   0  0  0  0  0  0  0  0  0  0  0  0
   40.6707   21.8898   38.9097 H   0  0  0  0  0  0  0  0  0  0  0  0
   39.7634   23.6282   29.4437 H   0  0  0  0  0  0  0  0  0  0  0  0
   34.5137   22.1348   31.6994 H   0  0  0  0  0  0  0  0  0  0  0  0
   33.5275   19.9364   32.3321 H   0  0  0  0  0  0  0  0  0  0  0  0
   37.2961   18.0520   32.0671 H   0  0  0  0  0  0  0  0  0  0  0  0
  1  2  1  0
  2  3  2  0
  2  7  1  0
  3  4  1  0
  4  5  2  0
  6  5  1  0
  6  8  1  0
  7  6  2  0
  8  9  1  0
  9 13  2  0
 10 11  2  0
 10  9  1  0
 11 12  1  0
 12 13  1  0
 14  1  1  0
 15 14  2  0
 16 21  2  0
 16 17  1  0
 17 18  2  0
 18 19  1  0
 18 14  1  0
 20 19  2  0
 20 22  1  0
 21 20  1  0
 22 27  1  0
 22 23  2  0
 23 24  1  0
 24 25  2  0
 26 25  1  0
 27 26  2  0
 28 17  1  0
 28 30  1  0
 29 28  1  0
 31 28  1  0
  3 32  1  0
  4 33  1  0
  5 34  1  0
  8 35  1  0
  8 36  1  0
 10 37  1  0
 11 38  1  0
 12 39  1  0
 16 40  1  0
 23 41  1  0
 24 42  1  0
 26 43  1  0
M  ISO  8  32  14  33  14  34  14  35   8  36   8  37  14  38  14  39   9
M  ISO  4  40  14  41  14  42  14  43  14
M  END
>  <minimizedAffinity>  (1) 
-6.12440729

>  <minimizedRMSD>  (1) 
3.82878995

$$$$
