
     RDKit          3D

 41 43  0  0  0  0  0  0  0  0999 V2000
   37.9610   25.6750   33.6180 C   0  0  0  0  0  0  0  0  0  0  0  0
   38.4120   26.9540   33.8700 C   0  0  0  0  0  0  0  0  0  0  0  0
   38.6120   27.3990   35.1360 C   0  0  0  0  0  0  0  0  0  0  0  0
   38.3450   26.5010   36.1800 C   0  0  0  0  0  0  0  0  0  0  0  0
   37.8960   25.2150   35.9290 C   0  0  0  0  0  0  0  0  0  0  0  0
   37.7200   24.8520   34.6450 N   0  0  0  0  0  0  0  0  0  0  0  0
   37.6290   24.2230   37.0050 C   0  0  0  0  0  0  0  0  0  0  0  0
   38.7960   23.2870   37.0730 C   0  0  0  0  0  0  0  0  0  0  0  0
   39.4790   22.5200   36.1360 C   0  0  0  0  0  0  0  0  0  0  0  0
   40.4770   21.8460   36.7880 C   0  0  0  0  0  0  0  0  0  0  0  0
   40.4070   22.1920   38.0810 N   0  0  0  0  0  0  0  0  0  0  0  0
   39.4230   23.0320   38.2360 N   0  0  0  0  0  0  0  0  0  0  0  0
   37.8050   25.3890   32.2960 O   0  0  0  0  0  0  0  0  0  0  0  0
   36.8470   24.4200   31.8530 C   0  0  0  0  0  0  0  0  0  0  0  0
   35.8480   25.0580   31.4230 O   0  0  0  0  0  0  0  0  0  0  0  0
   38.0020   21.0780   30.8740 C   0  0  0  0  0  0  0  0  0  0  0  0
   37.8770   22.4630   30.9390 C   0  0  0  0  0  0  0  0  0  0  0  0
   36.9030   22.9890   31.8490 C   0  0  0  0  0  0  0  0  0  0  0  0
   36.1980   22.1160   32.5580 N   0  0  0  0  0  0  0  0  0  0  0  0
   36.3220   20.7940   32.4920 C   0  0  0  0  0  0  0  0  0  0  0  0
   37.2370   20.2660   31.6390 N   0  0  0  0  0  0  0  0  0  0  0  0
   38.8010   23.2100   30.0240 C   0  0  0  0  0  0  0  0  0  0  0  0
   38.1500   24.3220   29.4640 F   0  0  0  0  0  0  0  0  0  0  0  0
   39.7780   23.6770   30.8540 F   0  0  0  0  0  0  0  0  0  0  0  0
   39.3660   22.4210   29.0730 F   0  0  0  0  0  0  0  0  0  0  0  0
   35.4580   19.9420   33.3520 C   0  0  0  0  0  0  0  0  0  0  0  0
   35.3300   18.5430   32.7440 C   0  0  0  0  0  0  0  0  0  0  0  0
   38.6142   27.6287   33.0251 H   0  0  0  0  0  0  0  0  0  0  0  0
   38.9683   28.4204   35.3352 H   0  0  0  0  0  0  0  0  0  0  0  0
   38.4954   26.8251   37.2204 H   0  0  0  0  0  0  0  0  0  0  0  0
   37.5092   24.7405   37.9682 H   0  0  0  0  0  0  0  0  0  0  0  0
   36.7051   23.6661   36.7900 H   0  0  0  0  0  0  0  0  0  0  0  0
   39.2568   22.4643   35.0601 H   0  0  0  0  0  0  0  0  0  0  0  0
   41.2001   21.1513   36.3357 H   0  0  0  0  0  0  0  0  0  0  0  0
   41.0281   21.8505   38.8283 H   0  0  0  0  0  0  0  0  0  0  0  0
   38.7377   20.6350   30.1867 H   0  0  0  0  0  0  0  0  0  0  0  0
   35.9053   19.8641   34.3539 H   0  0  0  0  0  0  0  0  0  0  0  0
   34.4591   20.3972   33.4234 H   0  0  0  0  0  0  0  0  0  0  0  0
   35.2618   17.7977   33.5501 H   0  0  0  0  0  0  0  0  0  0  0  0
   34.4237   18.4948   32.1225 H   0  0  0  0  0  0  0  0  0  0  0  0
   36.2125   18.3312   32.1225 H   0  0  0  0  0  0  0  0  0  0  0  0
  1  2  2  0
  1  6  1  0
  2  3  1  0
  3  4  2  0
  5  4  1  0
  5  7  1  0
  6  5  2  0
  7  8  1  0
  8 12  2  0
  9 10  2  0
  9  8  1  0
 10 11  1  0
 11 12  1  0
 13  1  1  0
 14 13  1  0
 15 14  2  0
 16 17  2  0
 16 21  1  0
 17 18  1  0
 18 14  1  0
 18 19  2  0
 20 19  1  0
 20 26  1  0
 21 20  2  0
 22 24  1  0
 22 17  1  0
 23 22  1  0
 25 22  1  0
 27 26  1  0
  2 28  1  0
  3 29  1  0
  4 30  1  0
  7 31  1  0
  7 32  1  0
  9 33  1  0
 10 34  1  0
 11 35  1  0
 16 36  1  0
 26 37  1  0
 26 38  1  0
 27 39  1  0
 27 40  1  0
 27 41  1  0
M  ISO  8  28  14  29  14  30  14  31   8  32   8  33  14  34  14  35   9
M  ISO  6  36  14  37   8  38   8  39   8  40   8  41   8
M  END
>  <minimizedAffinity>  (1) 
-5.80544138

>  <minimizedRMSD>  (1) 
2.61066413

$$$$
