
     RDKit          3D

 48 51  0  0  0  0  0  0  0  0999 V2000
   38.0350   21.3200   32.8730 C   0  0  0  0  0  0  0  0  0  0  0  0
   38.3240   21.9930   31.7050 C   0  0  0  0  0  0  0  0  0  0  0  0
   38.4950   23.3380   31.6800 C   0  0  0  0  0  0  0  0  0  0  0  0
   38.3690   24.0220   32.8980 C   0  0  0  0  0  0  0  0  0  0  0  0
   38.0800   23.3510   34.0770 C   0  0  0  0  0  0  0  0  0  0  0  0
   37.9230   22.0140   34.0140 N   0  0  0  0  0  0  0  0  0  0  0  0
   37.9630   24.0240   35.3980 C   0  0  0  0  0  0  0  0  0  0  0  0
   38.9470   23.3940   36.3320 C   0  0  0  0  0  0  0  0  0  0  0  0
   40.2670   22.9780   36.2100 C   0  0  0  0  0  0  0  0  0  0  0  0
   40.6650   22.4600   37.4130 C   0  0  0  0  0  0  0  0  0  0  0  0
   39.6190   22.5570   38.2440 N   0  0  0  0  0  0  0  0  0  0  0  0
   38.6130   23.1080   37.5990 N   0  0  0  0  0  0  0  0  0  0  0  0
   37.8860   19.9780   32.7200 O   0  0  0  0  0  0  0  0  0  0  0  0
   36.6570   19.4080   32.2590 C   0  0  0  0  0  0  0  0  0  0  0  0
   35.7860   20.3160   32.3270 O   0  0  0  0  0  0  0  0  0  0  0  0
   36.5760   16.5710   29.9270 C   0  0  0  0  0  0  0  0  0  0  0  0
   36.8180   17.8420   30.4640 C   0  0  0  0  0  0  0  0  0  0  0  0
   36.3610   18.0880   31.7920 C   0  0  0  0  0  0  0  0  0  0  0  0
   35.7400   17.0940   32.4220 N   0  0  0  0  0  0  0  0  0  0  0  0
   35.5120   15.8910   31.9130 C   0  0  0  0  0  0  0  0  0  0  0  0
   35.9340   15.6210   30.6490 N   0  0  0  0  0  0  0  0  0  0  0  0
   34.8390   14.8670   32.6410 N   0  0  0  0  0  0  0  0  0  0  0  0
   34.3590   15.0820   33.9920 C   0  0  0  0  0  0  0  0  0  0  0  0
   33.3170   14.0370   34.3190 C   0  0  0  0  0  0  0  0  0  0  0  0
   32.5200   13.7130   33.2540 O   0  0  0  0  0  0  0  0  0  0  0  0
   33.1510   13.2380   32.1370 C   0  0  0  0  0  0  0  0  0  0  0  0
   34.6180   13.5680   32.0390 C   0  0  0  0  0  0  0  0  0  0  0  0
   37.5380   18.7710   29.5340 C   0  0  0  0  0  0  0  0  0  0  0  0
   36.9220   20.0250   29.5050 F   0  0  0  0  0  0  0  0  0  0  0  0
   38.7630   18.9200   30.1250 F   0  0  0  0  0  0  0  0  0  0  0  0
   37.7140   18.2550   28.2890 F   0  0  0  0  0  0  0  0  0  0  0  0
   38.4184   21.4238   30.7685 H   0  0  0  0  0  0  0  0  0  0  0  0
   38.7228   23.8699   30.7445 H   0  0  0  0  0  0  0  0  0  0  0  0
   38.5022   25.1137   32.9186 H   0  0  0  0  0  0  0  0  0  0  0  0
   38.1850   25.0960   35.2908 H   0  0  0  0  0  0  0  0  0  0  0  0
   36.9416   23.9142   35.7913 H   0  0  0  0  0  0  0  0  0  0  0  0
   40.8854   23.0521   35.3033 H   0  0  0  0  0  0  0  0  0  0  0  0
   41.6548   22.0436   37.6516 H   0  0  0  0  0  0  0  0  0  0  0  0
   39.6044   22.2504   39.2272 H   0  0  0  0  0  0  0  0  0  0  0  0
   36.9118   16.3410   28.9051 H   0  0  0  0  0  0  0  0  0  0  0  0
   35.1980   14.9992   34.6985 H   0  0  0  0  0  0  0  0  0  0  0  0
   33.9154   16.0854   34.0723 H   0  0  0  0  0  0  0  0  0  0  0  0
   33.8313   13.1262   34.6596 H   0  0  0  0  0  0  0  0  0  0  0  0
   32.6643   14.4609   35.0964 H   0  0  0  0  0  0  0  0  0  0  0  0
   33.0473   12.1429   32.1274 H   0  0  0  0  0  0  0  0  0  0  0  0
   32.6692   13.7328   31.2808 H   0  0  0  0  0  0  0  0  0  0  0  0
   35.2059   12.8069   32.5730 H   0  0  0  0  0  0  0  0  0  0  0  0
   34.9308   13.5835   30.9845 H   0  0  0  0  0  0  0  0  0  0  0  0
  1  6  1  0
  2  1  2  0
  3  2  1  0
  3  4  2  0
  4  5  1  0
  5  7  1  0
  6  5  2  0
  7  8  1  0
  8 12  2  0
  9  8  1  0
  9 10  2  0
 10 11  1  0
 12 11  1  0
 13  1  1  0
 14 15  2  0
 14 13  1  0
 16 17  2  0
 16 21  1  0
 17 18  1  0
 18 14  1  0
 18 19  2  0
 20 19  1  0
 20 22  1  0
 21 20  2  0
 22 23  1  0
 23 24  1  0
 25 24  1  0
 26 25  1  0
 27 26  1  0
 27 22  1  0
 28 30  1  0
 28 17  1  0
 29 28  1  0
 31 28  1  0
  2 32  1  0
  3 33  1  0
  4 34  1  0
  7 35  1  0
  7 36  1  0
  9 37  1  0
 10 38  1  0
 11 39  1  0
 16 40  1  0
 23 41  1  0
 23 42  1  0
 24 43  1  0
 24 44  1  0
 26 45  1  0
 26 46  1  0
 27 47  1  0
 27 48  1  0
M  ISO  8  32  14  33  14  34  14  35   8  36   8  37  14  38  14  39   9
M  ISO  8  40  14  41  13  42  13  43  13  44  13  45  13  46  13  47  13
M  ISO  1  48  13
M  END
>  <minimizedAffinity>  (1) 
-4.94095421

>  <minimizedRMSD>  (1) 
3.14651704

$$$$
