
     RDKit          3D

 41 44  0  0  0  0  0  0  0  0999 V2000
   38.6330   23.6780   33.0950 C   0  0  0  0  0  0  0  0  0  0  0  0
   38.8570   24.7900   32.3110 C   0  0  0  0  0  0  0  0  0  0  0  0
   38.7160   26.0450   32.8030 C   0  0  0  0  0  0  0  0  0  0  0  0
   38.3370   26.1690   34.1440 C   0  0  0  0  0  0  0  0  0  0  0  0
   38.1160   25.0550   34.9380 C   0  0  0  0  0  0  0  0  0  0  0  0
   38.2740   23.8430   34.3720 N   0  0  0  0  0  0  0  0  0  0  0  0
   37.7450   25.1460   36.3760 C   0  0  0  0  0  0  0  0  0  0  0  0
   38.5520   24.1370   37.1280 C   0  0  0  0  0  0  0  0  0  0  0  0
   39.7610   23.4930   36.8950 C   0  0  0  0  0  0  0  0  0  0  0  0
   40.0040   22.6520   37.9500 C   0  0  0  0  0  0  0  0  0  0  0  0
   38.9740   22.7800   38.8000 N   0  0  0  0  0  0  0  0  0  0  0  0
   38.1290   23.6520   38.3090 N   0  0  0  0  0  0  0  0  0  0  0  0
   38.8090   22.4930   32.4470 O   0  0  0  0  0  0  0  0  0  0  0  0
   37.7170   21.8240   31.8090 C   0  0  0  0  0  0  0  0  0  0  0  0
   36.6980   22.5490   31.9650 O   0  0  0  0  0  0  0  0  0  0  0  0
   38.4060   19.4260   29.1150 C   0  0  0  0  0  0  0  0  0  0  0  0
   38.3950   20.6050   29.8660 C   0  0  0  0  0  0  0  0  0  0  0  0
   37.6710   20.5770   31.1030 C   0  0  0  0  0  0  0  0  0  0  0  0
   37.0700   19.4410   31.4380 N   0  0  0  0  0  0  0  0  0  0  0  0
   37.0870   18.3240   30.7150 C   0  0  0  0  0  0  0  0  0  0  0  0
   37.7640   18.3150   29.5380 N   0  0  0  0  0  0  0  0  0  0  0  0
   36.3730   17.2270   31.2720 N   0  0  0  0  0  0  0  0  0  0  0  0
   35.4740   17.0730   32.2630 C   0  0  0  0  0  0  0  0  0  0  0  0
   35.1200   15.7770   32.3600 N   0  0  0  0  0  0  0  0  0  0  0  0
   35.8140   15.1120   31.4090 C   0  0  0  0  0  0  0  0  0  0  0  0
   36.5840   16.0230   30.7450 N   0  0  0  0  0  0  0  0  0  0  0  0
   39.1550   21.7360   29.2480 C   0  0  0  0  0  0  0  0  0  0  0  0
   38.4980   22.9540   29.4690 F   0  0  0  0  0  0  0  0  0  0  0  0
   40.3260   21.7600   29.9560 F   0  0  0  0  0  0  0  0  0  0  0  0
   39.4400   21.5390   27.9340 F   0  0  0  0  0  0  0  0  0  0  0  0
   39.1572   24.6553   31.2614 H   0  0  0  0  0  0  0  0  0  0  0  0
   38.8923   26.9298   32.1737 H   0  0  0  0  0  0  0  0  0  0  0  0
   38.2118   27.1723   34.5774 H   0  0  0  0  0  0  0  0  0  0  0  0
   37.9636   26.1555   36.7544 H   0  0  0  0  0  0  0  0  0  0  0  0
   36.6707   24.9485   36.5059 H   0  0  0  0  0  0  0  0  0  0  0  0
   40.4095   23.6334   36.0177 H   0  0  0  0  0  0  0  0  0  0  0  0
   40.8782   21.9963   38.0758 H   0  0  0  0  0  0  0  0  0  0  0  0
   38.8656   22.2758   39.6916 H   0  0  0  0  0  0  0  0  0  0  0  0
   38.9492   19.4023   28.1588 H   0  0  0  0  0  0  0  0  0  0  0  0
   35.0870   17.8838   32.8978 H   0  0  0  0  0  0  0  0  0  0  0  0
   35.7667   14.0318   31.2068 H   0  0  0  0  0  0  0  0  0  0  0  0
  1  6  2  0
  2  3  2  0
  2  1  1  0
  3  4  1  0
  4  5  2  0
  5  7  1  0
  6  5  1  0
  7  8  1  0
  8 12  2  0
  9  8  1  0
  9 10  2  0
 10 11  1  0
 12 11  1  0
 13  1  1  0
 14 15  2  0
 14 13  1  0
 16 21  2  0
 16 17  1  0
 17 18  2  0
 18 19  1  0
 18 14  1  0
 20 22  1  0
 20 19  2  0
 21 20  1  0
 22 23  1  0
 23 24  2  0
 25 24  1  0
 26 22  1  0
 26 25  2  0
 27 28  1  0
 27 17  1  0
 27 29  1  0
 30 27  1  0
  2 31  1  0
  3 32  1  0
  4 33  1  0
  7 34  1  0
  7 35  1  0
  9 36  1  0
 10 37  1  0
 11 38  1  0
 16 39  1  0
 23 40  1  0
 25 41  1  0
M  ISO  8  31  14  32  14  33  14  34   8  35   8  36  14  37  14  38   9
M  ISO  3  39  14  40  14  41  14
M  END
>  <minimizedAffinity>  (1) 
-4.82530308

>  <minimizedRMSD>  (1) 
1.0752337

$$$$
