
     RDKit          3D

 47 49  0  0  0  0  0  0  0  0999 V2000
   37.5230   26.6950   33.9770 C   0  0  0  0  0  0  0  0  0  0  0  0
   38.7370   27.3400   34.0870 C   0  0  0  0  0  0  0  0  0  0  0  0
   39.6090   27.0490   35.0840 C   0  0  0  0  0  0  0  0  0  0  0  0
   39.2270   26.0570   35.9970 C   0  0  0  0  0  0  0  0  0  0  0  0
   38.0090   25.4040   35.8870 C   0  0  0  0  0  0  0  0  0  0  0  0
   37.1990   25.7540   34.8710 N   0  0  0  0  0  0  0  0  0  0  0  0
   37.5830   24.3240   36.8190 C   0  0  0  0  0  0  0  0  0  0  0  0
   38.7150   23.3560   36.9560 C   0  0  0  0  0  0  0  0  0  0  0  0
   39.4130   22.5500   36.0670 C   0  0  0  0  0  0  0  0  0  0  0  0
   40.3620   21.8570   36.7720 C   0  0  0  0  0  0  0  0  0  0  0  0
   40.2430   22.2350   38.0620 N   0  0  0  0  0  0  0  0  0  0  0  0
   39.2720   23.1160   38.1570 N   0  0  0  0  0  0  0  0  0  0  0  0
   36.7630   27.1110   32.9260 O   0  0  0  0  0  0  0  0  0  0  0  0
   36.3240   26.1960   31.9160 C   0  0  0  0  0  0  0  0  0  0  0  0
   35.3170   26.7160   31.3610 O   0  0  0  0  0  0  0  0  0  0  0  0
   38.5830   23.8170   30.2650 C   0  0  0  0  0  0  0  0  0  0  0  0
   38.0060   25.0130   30.6920 C   0  0  0  0  0  0  0  0  0  0  0  0
   36.8420   24.9200   31.5250 C   0  0  0  0  0  0  0  0  0  0  0  0
   36.4010   23.7030   31.8260 N   0  0  0  0  0  0  0  0  0  0  0  0
   36.9570   22.5650   31.4140 C   0  0  0  0  0  0  0  0  0  0  0  0
   38.0530   22.6210   30.6300 N   0  0  0  0  0  0  0  0  0  0  0  0
   38.7080   26.2430   30.2020 C   0  0  0  0  0  0  0  0  0  0  0  0
   37.7930   27.2840   29.9880 F   0  0  0  0  0  0  0  0  0  0  0  0
   39.5060   26.6020   31.2520 F   0  0  0  0  0  0  0  0  0  0  0  0
   39.4840   26.0170   29.1110 F   0  0  0  0  0  0  0  0  0  0  0  0
   36.4110   21.2330   31.7880 C   0  0  0  0  0  0  0  0  0  0  0  0
   37.3060   20.5200   32.7600 C   0  0  0  0  0  0  0  0  0  0  0  0
   36.3820   20.3700   30.5270 C   0  0  0  0  0  0  0  0  0  0  0  0
   34.9930   21.3350   32.2930 C   0  0  0  0  0  0  0  0  0  0  0  0
   39.0046   28.1094   33.3478 H   0  0  0  0  0  0  0  0  0  0  0  0
   40.5743   27.5691   35.1722 H   0  0  0  0  0  0  0  0  0  0  0  0
   39.9082   25.7907   36.8186 H   0  0  0  0  0  0  0  0  0  0  0  0
   37.3390   24.7541   37.8016 H   0  0  0  0  0  0  0  0  0  0  0  0
   36.6900   23.8138   36.4288 H   0  0  0  0  0  0  0  0  0  0  0  0
   39.2350   22.4798   34.9838 H   0  0  0  0  0  0  0  0  0  0  0  0
   41.0822   21.1321   36.3648 H   0  0  0  0  0  0  0  0  0  0  0  0
   40.8183   21.8900   38.8436 H   0  0  0  0  0  0  0  0  0  0  0  0
   39.4775   23.8428   29.6253 H   0  0  0  0  0  0  0  0  0  0  0  0
   36.9994   20.7642   33.7878 H   0  0  0  0  0  0  0  0  0  0  0  0
   37.2275   19.4342   32.6022 H   0  0  0  0  0  0  0  0  0  0  0  0
   38.3468   20.8392   32.6022 H   0  0  0  0  0  0  0  0  0  0  0  0
   36.3463   19.3077   30.8104 H   0  0  0  0  0  0  0  0  0  0  0  0
   35.4918   20.6207   29.9315 H   0  0  0  0  0  0  0  0  0  0  0  0
   37.2870   20.5604   29.9315 H   0  0  0  0  0  0  0  0  0  0  0  0
   34.9946   21.3349   33.3930 H   0  0  0  0  0  0  0  0  0  0  0  0
   34.5397   22.2681   31.9271 H   0  0  0  0  0  0  0  0  0  0  0  0
   34.4108   20.4764   31.9271 H   0  0  0  0  0  0  0  0  0  0  0  0
  1  2  2  0
  1  6  1  0
  2  3  1  0
  3  4  2  0
  5  4  1  0
  5  7  1  0
  6  5  2  0
  7  8  1  0
  8 12  2  0
  9 10  2  0
  9  8  1  0
 10 11  1  0
 11 12  1  0
 13  1  1  0
 14 13  1  0
 15 14  2  0
 16 21  2  0
 16 17  1  0
 17 18  2  0
 18 19  1  0
 18 14  1  0
 20 26  1  0
 20 19  2  0
 21 20  1  0
 22 17  1  0
 22 24  1  0
 23 22  1  0
 25 22  1  0
 26 29  1  0
 26 27  1  0
 28 26  1  0
  2 30  1  0
  3 31  1  0
  4 32  1  0
  7 33  1  0
  7 34  1  0
  9 35  1  0
 10 36  1  0
 11 37  1  0
 16 38  1  0
 27 39  1  0
 27 40  1  0
 27 41  1  0
 28 42  1  0
 28 43  1  0
 28 44  1  0
 29 45  1  0
 29 46  1  0
 29 47  1  0
M  ISO  8  30  14  31  14  32  14  33   8  34   8  35  14  36  14  37   9
M  ISO  8  38  14  39   8  40   8  41   8  42   8  43   8  44   8  45   8
M  ISO  2  46   8  47   8
M  END
>  <minimizedAffinity>  (1) 
-5.80983877

>  <minimizedRMSD>  (1) 
3.91439748

$$$$
