
     RDKit          3D

 37 39  0  0  0  0  0  0  0  0999 V2000
   38.4370   23.1230   32.9910 C   0  0  0  0  0  0  0  0  0  0  0  0
   38.8240   24.1440   32.1480 C   0  0  0  0  0  0  0  0  0  0  0  0
   38.8600   25.4350   32.5660 C   0  0  0  0  0  0  0  0  0  0  0  0
   38.4910   25.6870   33.8950 C   0  0  0  0  0  0  0  0  0  0  0  0
   38.1040   24.6640   34.7460 C   0  0  0  0  0  0  0  0  0  0  0  0
   38.0930   23.4110   34.2520 N   0  0  0  0  0  0  0  0  0  0  0  0
   37.7310   24.8810   36.1670 C   0  0  0  0  0  0  0  0  0  0  0  0
   38.5680   23.9730   37.0140 C   0  0  0  0  0  0  0  0  0  0  0  0
   39.8220   23.3930   36.8620 C   0  0  0  0  0  0  0  0  0  0  0  0
   40.0780   22.6380   37.9760 C   0  0  0  0  0  0  0  0  0  0  0  0
   39.0100   22.7550   38.7820 N   0  0  0  0  0  0  0  0  0  0  0  0
   38.1340   23.5400   38.2070 N   0  0  0  0  0  0  0  0  0  0  0  0
   38.4480   21.8900   32.4130 O   0  0  0  0  0  0  0  0  0  0  0  0
   37.5630   21.5610   31.3380 C   0  0  0  0  0  0  0  0  0  0  0  0
   36.6380   22.4200   31.3500 O   0  0  0  0  0  0  0  0  0  0  0  0
   38.6800   19.7390   28.3500 C   0  0  0  0  0  0  0  0  0  0  0  0
   38.5650   20.7260   29.3340 C   0  0  0  0  0  0  0  0  0  0  0  0
   37.6120   20.4990   30.3780 C   0  0  0  0  0  0  0  0  0  0  0  0
   36.9050   19.3710   30.3410 N   0  0  0  0  0  0  0  0  0  0  0  0
   37.0320   18.4370   29.3840 C   0  0  0  0  0  0  0  0  0  0  0  0
   37.9220   18.6220   28.3880 N   0  0  0  0  0  0  0  0  0  0  0  0
   36.2450   17.2530   29.4040 N   0  0  0  0  0  0  0  0  0  0  0  0
   39.4800   21.9000   29.1390 C   0  0  0  0  0  0  0  0  0  0  0  0
   38.7580   23.1030   29.2440 F   0  0  0  0  0  0  0  0  0  0  0  0
   40.3350   21.8290   30.1990 F   0  0  0  0  0  0  0  0  0  0  0  0
   40.1920   21.8370   27.9830 F   0  0  0  0  0  0  0  0  0  0  0  0
   39.1101   23.9065   31.1128 H   0  0  0  0  0  0  0  0  0  0  0  0
   39.1655   26.2483   31.8913 H   0  0  0  0  0  0  0  0  0  0  0  0
   38.5091   26.7206   34.2709 H   0  0  0  0  0  0  0  0  0  0  0  0
   37.9190   25.9284   36.4456 H   0  0  0  0  0  0  0  0  0  0  0  0
   36.6632   24.6636   36.3172 H   0  0  0  0  0  0  0  0  0  0  0  0
   40.4916   23.5183   35.9983 H   0  0  0  0  0  0  0  0  0  0  0  0
   40.9854   22.0482   38.1729 H   0  0  0  0  0  0  0  0  0  0  0  0
   38.8986   22.3022   39.7004 H   0  0  0  0  0  0  0  0  0  0  0  0
   39.4008   19.8749   27.5303 H   0  0  0  0  0  0  0  0  0  0  0  0
   36.3564   16.5480   28.6614 H   0  0  0  0  0  0  0  0  0  0  0  0
   35.5635   17.1003   30.1611 H   0  0  0  0  0  0  0  0  0  0  0  0
  1  6  2  0
  2  3  2  0
  2  1  1  0
  3  4  1  0
  4  5  2  0
  5  7  1  0
  6  5  1  0
  7  8  1  0
  8 12  2  0
  9  8  1  0
  9 10  2  0
 10 11  1  0
 12 11  1  0
 13  1  1  0
 14 15  2  0
 14 13  1  0
 16 21  2  0
 16 17  1  0
 17 18  2  0
 18 14  1  0
 19 18  1  0
 20 22  1  0
 20 19  2  0
 21 20  1  0
 23 24  1  0
 23 17  1  0
 23 25  1  0
 26 23  1  0
  2 27  1  0
  3 28  1  0
  4 29  1  0
  7 30  1  0
  7 31  1  0
  9 32  1  0
 10 33  1  0
 11 34  1  0
 16 35  1  0
 22 36  1  0
 22 37  1  0
M  ISO  8  27  14  28  14  29  14  30   8  31   8  32  14  33  14  34   9
M  ISO  1  35  14
M  END
>  <minimizedAffinity>  (1) 
-4.46361542

>  <minimizedRMSD>  (1) 
0.201552495

$$$$
