
     RDKit          3D

 36 38  0  0  0  0  0  0  0  0999 V2000
   38.4210   23.1210   32.9940 C   0  0  0  0  0  0  0  0  0  0  0  0
   38.8170   24.1390   32.1520 C   0  0  0  0  0  0  0  0  0  0  0  0
   38.8690   25.4280   32.5690 C   0  0  0  0  0  0  0  0  0  0  0  0
   38.5030   25.6860   33.8970 C   0  0  0  0  0  0  0  0  0  0  0  0
   38.1080   24.6680   34.7490 C   0  0  0  0  0  0  0  0  0  0  0  0
   38.0810   23.4130   34.2560 N   0  0  0  0  0  0  0  0  0  0  0  0
   37.7420   24.8960   36.1740 C   0  0  0  0  0  0  0  0  0  0  0  0
   38.5780   23.9810   37.0150 C   0  0  0  0  0  0  0  0  0  0  0  0
   39.8280   23.3950   36.8670 C   0  0  0  0  0  0  0  0  0  0  0  0
   40.0750   22.6360   37.9790 C   0  0  0  0  0  0  0  0  0  0  0  0
   39.0060   22.7560   38.7840 N   0  0  0  0  0  0  0  0  0  0  0  0
   38.1300   23.5470   38.2120 N   0  0  0  0  0  0  0  0  0  0  0  0
   38.4170   21.8880   32.4180 O   0  0  0  0  0  0  0  0  0  0  0  0
   37.5280   21.5730   31.3410 C   0  0  0  0  0  0  0  0  0  0  0  0
   36.6210   22.4510   31.3430 O   0  0  0  0  0  0  0  0  0  0  0  0
   38.6280   19.7040   28.3730 C   0  0  0  0  0  0  0  0  0  0  0  0
   38.5290   20.6980   29.3500 C   0  0  0  0  0  0  0  0  0  0  0  0
   37.5600   20.5060   30.3880 C   0  0  0  0  0  0  0  0  0  0  0  0
   36.8230   19.3950   30.3450 N   0  0  0  0  0  0  0  0  0  0  0  0
   36.9310   18.4510   29.4000 C   0  0  0  0  0  0  0  0  0  0  0  0
   37.8390   18.6090   28.4090 N   0  0  0  0  0  0  0  0  0  0  0  0
   39.4770   21.8460   29.1610 C   0  0  0  0  0  0  0  0  0  0  0  0
   38.7930   23.0640   29.2440 F   0  0  0  0  0  0  0  0  0  0  0  0
   40.3150   21.7610   30.2420 F   0  0  0  0  0  0  0  0  0  0  0  0
   40.2160   21.7480   28.0240 F   0  0  0  0  0  0  0  0  0  0  0  0
   36.1420   17.3250   29.4090 O   0  0  0  0  0  0  0  0  0  0  0  0
   39.0978   23.8990   31.1159 H   0  0  0  0  0  0  0  0  0  0  0  0
   39.1850   26.2368   31.8938 H   0  0  0  0  0  0  0  0  0  0  0  0
   38.5300   26.7201   34.2710 H   0  0  0  0  0  0  0  0  0  0  0  0
   37.9413   25.9424   36.4484 H   0  0  0  0  0  0  0  0  0  0  0  0
   36.6726   24.6928   36.3327 H   0  0  0  0  0  0  0  0  0  0  0  0
   40.5020   23.5190   36.0066 H   0  0  0  0  0  0  0  0  0  0  0  0
   40.9783   22.0402   38.1763 H   0  0  0  0  0  0  0  0  0  0  0  0
   38.8928   22.3009   39.7010 H   0  0  0  0  0  0  0  0  0  0  0  0
   39.3613   19.8155   27.5607 H   0  0  0  0  0  0  0  0  0  0  0  0
   36.2435   16.6438   28.6979 H   0  0  0  0  0  0  0  0  0  0  0  0
  1  6  2  0
  2  3  2  0
  2  1  1  0
  3  4  1  0
  4  5  2  0
  5  7  1  0
  6  5  1  0
  7  8  1  0
  8 12  2  0
  9  8  1  0
  9 10  2  0
 10 11  1  0
 12 11  1  0
 13  1  1  0
 14 15  2  0
 14 13  1  0
 16 21  2  0
 16 17  1  0
 17 18  2  0
 18 14  1  0
 19 18  1  0
 20 26  1  0
 20 19  2  0
 21 20  1  0
 22 23  1  0
 22 17  1  0
 22 24  1  0
 25 22  1  0
  2 27  1  0
  3 28  1  0
  4 29  1  0
  7 30  1  0
  7 31  1  0
  9 32  1  0
 10 33  1  0
 11 34  1  0
 16 35  1  0
 26 36  1  0
M  ISO  8  27  14  28  14  29  14  30   8  31   8  32  14  33  14  34   9
M  ISO  2  35  14  36   3
M  END
>  <minimizedAffinity>  (1) 
-4.50873566

>  <minimizedRMSD>  (1) 
0.146572545

$$$$
