
     RDKit          3D

 50 53  0  0  0  0  0  0  0  0999 V2000
   38.0390   26.5090   32.6490 O   0  0  0  0  0  0  0  0  0  0  0  0
   38.0850   26.2760   33.9830 C   0  0  0  0  0  0  0  0  0  0  0  0
   38.4930   27.3660   34.7210 C   0  0  0  0  0  0  0  0  0  0  0  0
   38.5940   27.3110   36.0740 C   0  0  0  0  0  0  0  0  0  0  0  0
   38.2660   26.0950   36.6980 C   0  0  0  0  0  0  0  0  0  0  0  0
   37.8560   24.9940   35.9540 C   0  0  0  0  0  0  0  0  0  0  0  0
   37.7830   25.1360   34.6180 N   0  0  0  0  0  0  0  0  0  0  0  0
   37.5170   23.6820   36.5750 C   0  0  0  0  0  0  0  0  0  0  0  0
   38.8060   22.9550   36.8170 C   0  0  0  0  0  0  0  0  0  0  0  0
   39.6860   22.2440   36.0020 C   0  0  0  0  0  0  0  0  0  0  0  0
   40.7150   21.7880   36.7790 C   0  0  0  0  0  0  0  0  0  0  0  0
   40.4690   22.2090   38.0350 N   0  0  0  0  0  0  0  0  0  0  0  0
   39.3510   22.8900   38.0410 N   0  0  0  0  0  0  0  0  0  0  0  0
   37.3090   25.6380   31.7750 C   0  0  0  0  0  0  0  0  0  0  0  0
   36.1500   26.1300   31.6160 O   0  0  0  0  0  0  0  0  0  0  0  0
   39.1610   23.4800   29.4490 C   0  0  0  0  0  0  0  0  0  0  0  0
   38.7110   24.6030   30.1320 C   0  0  0  0  0  0  0  0  0  0  0  0
   37.7020   24.4120   31.1350 C   0  0  0  0  0  0  0  0  0  0  0  0
   37.2750   23.1820   31.3360 N   0  0  0  0  0  0  0  0  0  0  0  0
   37.7010   22.1010   30.6840 C   0  0  0  0  0  0  0  0  0  0  0  0
   38.6490   22.2470   29.7360 N   0  0  0  0  0  0  0  0  0  0  0  0
   39.3660   25.8890   29.6920 C   0  0  0  0  0  0  0  0  0  0  0  0
   38.4000   26.9260   29.6500 F   0  0  0  0  0  0  0  0  0  0  0  0
   40.2490   26.1640   30.6760 F   0  0  0  0  0  0  0  0  0  0  0  0
   40.0020   25.7870   28.4990 F   0  0  0  0  0  0  0  0  0  0  0  0
   37.1330   20.8130   30.9820 C   0  0  0  0  0  0  0  0  0  0  0  0
   36.2040   20.3850   30.2510 O   0  0  0  0  0  0  0  0  0  0  0  0
   37.6220   20.0220   32.1060 C   0  0  0  0  0  0  0  0  0  0  0  0
   39.1200   20.2530   32.3050 C   0  0  0  0  0  0  0  0  0  0  0  0
   39.7780   19.2250   31.3770 C   0  0  0  0  0  0  0  0  0  0  0  0
   38.6930   18.2870   30.9230 C   0  0  0  0  0  0  0  0  0  0  0  0
   37.6050   18.5480   31.9330 C   0  0  0  0  0  0  0  0  0  0  0  0
   38.7428   28.3029   34.2016 H   0  0  0  0  0  0  0  0  0  0  0  0
   38.9197   28.1839   36.6588 H   0  0  0  0  0  0  0  0  0  0  0  0
   38.3347   26.0129   37.7928 H   0  0  0  0  0  0  0  0  0  0  0  0
   36.9906   23.8416   37.5276 H   0  0  0  0  0  0  0  0  0  0  0  0
   36.8592   23.0978   35.9147 H   0  0  0  0  0  0  0  0  0  0  0  0
   39.5722   22.0784   34.9205 H   0  0  0  0  0  0  0  0  0  0  0  0
   41.5769   21.1926   36.4434 H   0  0  0  0  0  0  0  0  0  0  0  0
   41.0632   22.0251   38.8560 H   0  0  0  0  0  0  0  0  0  0  0  0
   39.9337   23.5846   28.6731 H   0  0  0  0  0  0  0  0  0  0  0  0
   36.9466   20.3417   32.9132 H   0  0  0  0  0  0  0  0  0  0  0  0
   39.3999   21.2768   32.0160 H   0  0  0  0  0  0  0  0  0  0  0  0
   39.4313   20.1383   33.3538 H   0  0  0  0  0  0  0  0  0  0  0  0
   40.2273   19.7314   30.5100 H   0  0  0  0  0  0  0  0  0  0  0  0
   40.5772   18.6786   31.8992 H   0  0  0  0  0  0  0  0  0  0  0  0
   38.3575   18.5285   29.9036 H   0  0  0  0  0  0  0  0  0  0  0  0
   39.0095   17.2346   30.8762 H   0  0  0  0  0  0  0  0  0  0  0  0
   36.6296   18.2101   31.5531 H   0  0  0  0  0  0  0  0  0  0  0  0
   37.7664   18.0088   32.8781 H   0  0  0  0  0  0  0  0  0  0  0  0
  1  2  1  0
  2  7  1  0
  2  3  2  0
  3  4  1  0
  4  5  2  0
  6  8  1  0
  6  5  1  0
  7  6  2  0
  8  9  1  0
  9 13  2  0
 10 11  2  0
 10  9  1  0
 11 12  1  0
 12 13  1  0
 14  1  1  0
 15 14  2  0
 16 21  2  0
 16 17  1  0
 17 18  2  0
 18 19  1  0
 18 14  1  0
 20 26  1  0
 20 19  2  0
 21 20  1  0
 22 17  1  0
 22 24  1  0
 23 22  1  0
 25 22  1  0
 26 28  1  0
 27 26  2  0
 28 29  1  0
 30 29  1  0
 31 30  1  0
 31 32  1  0
 32 28  1  0
  3 33  1  0
  4 34  1  0
  5 35  1  0
  8 36  1  0
  8 37  1  0
 10 38  1  0
 11 39  1  0
 12 40  1  0
 16 41  1  0
 28 42  1  0
 29 43  1  0
 29 44  1  0
 30 45  1  0
 30 46  1  0
 31 47  1  0
 31 48  1  0
 32 49  1  0
 32 50  1  0
M  ISO  8  33  14  34  14  35  14  36   8  37   8  38  14  39  14  40   9
M  ISO  8  41  14  42  13  43  13  44  13  45  13  46  13  47  13  48  13
M  ISO  2  49  13  50  13
M  END
>  <minimizedAffinity>  (1) 
-5.27022409

>  <minimizedRMSD>  (1) 
3.4724052

$$$$
