
     RDKit          3D

 47 52  0  0  0  0  0  0  0  0999 V2000
   40.3490   22.4240   36.9810 C   0  0  0  0  0  0  0  0  0  0  0  0
   39.7140   23.4570   36.2650 C   0  0  0  0  0  0  0  0  0  0  0  0
   40.5350   24.3400   35.6150 C   0  0  0  0  0  0  0  0  0  0  0  0
   41.8600   24.1480   35.7140 N   0  0  0  0  0  0  0  0  0  0  0  0
   42.4710   23.1650   36.3950 C   0  0  0  0  0  0  0  0  0  0  0  0
   41.6710   22.3070   37.0270 N   0  0  0  0  0  0  0  0  0  0  0  0
   43.9270   23.2400   36.3010 C   0  0  0  0  0  0  0  0  0  0  0  0
   44.6380   22.3950   35.4790 C   0  0  0  0  0  0  0  0  0  0  0  0
   46.0080   22.4230   35.3540 C   0  0  0  0  0  0  0  0  0  0  0  0
   46.7520   23.3230   36.0630 C   0  0  0  0  0  0  0  0  0  0  0  0
   46.0910   24.1840   36.8940 C   0  0  0  0  0  0  0  0  0  0  0  0
   46.8490   25.0860   37.6050 C   0  0  0  0  0  0  0  0  0  0  0  0
   46.2620   25.9920   38.4660 C   0  0  0  0  0  0  0  0  0  0  0  0
   44.8710   25.9340   38.5700 C   0  0  0  0  0  0  0  0  0  0  0  0
   44.1640   25.0140   37.8370 C   0  0  0  0  0  0  0  0  0  0  0  0
   44.7240   24.1210   36.9890 C   0  0  0  0  0  0  0  0  0  0  0  0
   40.0200   25.4400   34.8480 N   0  0  0  0  0  0  0  0  0  0  0  0
   40.0890   25.4570   33.5200 C   0  0  0  0  0  0  0  0  0  0  0  0
   39.5190   26.6270   33.1200 C   0  0  0  0  0  0  0  0  0  0  0  0
   39.1110   27.3030   34.2040 N   0  0  0  0  0  0  0  0  0  0  0  0
   39.4160   26.5740   35.3050 C   0  0  0  0  0  0  0  0  0  0  0  0
   39.3060   27.1950   31.8320 N   0  0  0  0  0  0  0  0  0  0  0  0
   40.1310   27.1710   30.7480 C   0  0  0  0  0  0  0  0  0  0  0  0
   39.5650   27.8240   29.7160 N   0  0  0  0  0  0  0  0  0  0  0  0
   38.3680   28.2740   30.1250 C   0  0  0  0  0  0  0  0  0  0  0  0
   37.3690   28.9960   29.5060 C   0  0  0  0  0  0  0  0  0  0  0  0
   37.5010   29.3660   28.2910 O   0  0  0  0  0  0  0  0  0  0  0  0
   36.2140   29.3480   30.1330 N   0  0  0  0  0  0  0  0  0  0  0  0
   36.1180   28.9330   31.4210 C   0  0  0  0  0  0  0  0  0  0  0  0
   34.9130   29.2980   32.0830 N   0  0  0  0  0  0  0  0  0  0  0  0
   37.0620   28.2280   32.0720 N   0  0  0  0  0  0  0  0  0  0  0  0
   38.2070   27.8800   31.4490 C   0  0  0  0  0  0  0  0  0  0  0  0
   39.7304   21.6908   37.5192 H   0  0  0  0  0  0  0  0  0  0  0  0
   38.6185   23.5498   36.2296 H   0  0  0  0  0  0  0  0  0  0  0  0
   44.0786   21.6548   34.8881 H   0  0  0  0  0  0  0  0  0  0  0  0
   46.5084   21.7146   34.6774 H   0  0  0  0  0  0  0  0  0  0  0  0
   47.8475   23.3539   35.9683 H   0  0  0  0  0  0  0  0  0  0  0  0
   47.9425   25.0853   37.4853 H   0  0  0  0  0  0  0  0  0  0  0  0
   46.8572   26.7189   39.0381 H   0  0  0  0  0  0  0  0  0  0  0  0
   44.3410   26.6266   39.2403 H   0  0  0  0  0  0  0  0  0  0  0  0
   43.0695   25.0019   37.9463 H   0  0  0  0  0  0  0  0  0  0  0  0
   40.5211   24.6796   32.8728 H   0  0  0  0  0  0  0  0  0  0  0  0
   39.2170   26.8422   36.3531 H   0  0  0  0  0  0  0  0  0  0  0  0
   41.1185   26.6871   30.7202 H   0  0  0  0  0  0  0  0  0  0  0  0
   35.4708   29.8873   29.6664 H   0  0  0  0  0  0  0  0  0  0  0  0
   34.7601   29.0220   33.0635 H   0  0  0  0  0  0  0  0  0  0  0  0
   34.1934   29.8383   31.5819 H   0  0  0  0  0  0  0  0  0  0  0  0
  1  6  2  0
  2  1  1  0
  3  4  1  0
  3  2  2  0
  4  5  2  0
  5  6  1  0
  7  5  1  0
  7 16  1  0
  8  7  2  0
  9  8  1  0
  9 10  2  0
 10 11  1  0
 11 16  2  0
 11 12  1  0
 12 13  2  0
 13 14  1  0
 15 14  2  0
 16 15  1  0
 17 21  1  0
 17  3  1  0
 18 17  1  0
 19 18  2  0
 19 20  1  0
 20 21  2  0
 22 19  1  0
 23 22  1  0
 24 25  1  0
 24 23  2  0
 25 32  2  0
 26 25  1  0
 26 28  1  0
 27 26  2  0
 28 29  1  0
 29 31  2  0
 29 30  1  0
 32 22  1  0
 32 31  1  0
  1 33  1  0
  2 34  1  0
  8 35  1  0
  9 36  1  0
 10 37  1  0
 12 38  1  0
 13 39  1  0
 14 40  1  0
 15 41  1  0
 18 42  1  0
 21 43  1  0
 23 44  1  0
 28 45  1  0
 30 46  1  0
 30 47  1  0
M  ISO  8  33  14  34  14  35  14  36  14  37  14  38  14  39  14  40  14
M  ISO  5  41  14  42  14  43  14  44  14  45   9
M  END
>  <minimizedAffinity>  (1) 
-6.97580576

>  <minimizedRMSD>  (1) 
1.39332426

$$$$
