
     RDKit          3D

 41 45  0  0  0  0  0  0  0  0999 V2000
   40.5820   22.1930   37.4180 C   0  0  0  0  0  0  0  0  0  0  0  0
   39.7630   23.0140   36.6260 C   0  0  0  0  0  0  0  0  0  0  0  0
   40.4090   23.8630   35.7590 C   0  0  0  0  0  0  0  0  0  0  0  0
   41.7490   23.8260   35.7510 N   0  0  0  0  0  0  0  0  0  0  0  0
   42.5340   23.0510   36.4980 C   0  0  0  0  0  0  0  0  0  0  0  0
   41.9160   22.2240   37.3420 N   0  0  0  0  0  0  0  0  0  0  0  0
   43.9490   23.2660   36.2360 C   0  0  0  0  0  0  0  0  0  0  0  0
   44.6180   22.5530   35.2640 C   0  0  0  0  0  0  0  0  0  0  0  0
   45.9500   22.7090   34.9690 C   0  0  0  0  0  0  0  0  0  0  0  0
   46.7120   23.6210   35.6580 C   0  0  0  0  0  0  0  0  0  0  0  0
   46.0930   24.3530   36.6330 C   0  0  0  0  0  0  0  0  0  0  0  0
   46.8570   25.2660   37.3220 C   0  0  0  0  0  0  0  0  0  0  0  0
   46.3240   26.0420   38.3150 C   0  0  0  0  0  0  0  0  0  0  0  0
   44.9590   25.8560   38.5880 C   0  0  0  0  0  0  0  0  0  0  0  0
   44.2330   24.9300   37.8740 C   0  0  0  0  0  0  0  0  0  0  0  0
   44.7610   24.1590   36.8890 C   0  0  0  0  0  0  0  0  0  0  0  0
   39.6860   24.7570   34.8910 N   0  0  0  0  0  0  0  0  0  0  0  0
   38.6610   24.3120   34.1430 C   0  0  0  0  0  0  0  0  0  0  0  0
   38.2280   25.4290   33.4600 C   0  0  0  0  0  0  0  0  0  0  0  0
   38.9670   26.4780   33.7930 N   0  0  0  0  0  0  0  0  0  0  0  0
   39.9010   26.0810   34.7000 C   0  0  0  0  0  0  0  0  0  0  0  0
   37.1080   25.3790   32.5210 C   0  0  0  0  0  0  0  0  0  0  0  0
   36.5860   24.2020   32.0360 C   0  0  0  0  0  0  0  0  0  0  0  0
   35.5310   24.2140   31.1530 C   0  0  0  0  0  0  0  0  0  0  0  0
   35.0080   25.3910   30.7620 N   0  0  0  0  0  0  0  0  0  0  0  0
   35.5110   26.5670   31.2290 C   0  0  0  0  0  0  0  0  0  0  0  0
   36.5370   26.5170   32.0860 N   0  0  0  0  0  0  0  0  0  0  0  0
   40.1080   21.4986   38.1273 H   0  0  0  0  0  0  0  0  0  0  0  0
   38.6657   22.9797   36.6955 H   0  0  0  0  0  0  0  0  0  0  0  0
   44.0473   21.8105   34.6869 H   0  0  0  0  0  0  0  0  0  0  0  0
   46.4095   22.1002   34.1764 H   0  0  0  0  0  0  0  0  0  0  0  0
   47.7802   23.7573   35.4337 H   0  0  0  0  0  0  0  0  0  0  0  0
   47.9219   25.3749   37.0687 H   0  0  0  0  0  0  0  0  0  0  0  0
   46.9318   26.7721   38.8695 H   0  0  0  0  0  0  0  0  0  0  0  0
   44.4696   26.4509   39.3732 H   0  0  0  0  0  0  0  0  0  0  0  0
   43.1666   24.8079   38.1146 H   0  0  0  0  0  0  0  0  0  0  0  0
   38.2592   23.2895   34.0883 H   0  0  0  0  0  0  0  0  0  0  0  0
   40.6702   26.7051   35.1783 H   0  0  0  0  0  0  0  0  0  0  0  0
   37.0164   23.2420   32.3574 H   0  0  0  0  0  0  0  0  0  0  0  0
   35.1182   23.2692   30.7696 H   0  0  0  0  0  0  0  0  0  0  0  0
   35.0860   27.5304   30.9108 H   0  0  0  0  0  0  0  0  0  0  0  0
  2  1  2  0
  3  2  1  0
  4  3  2  0
  4  5  1  0
  5  6  2  0
  6  1  1  0
  7  5  1  0
  7 16  1  0
  8  7  2  0
  9  8  1  0
  9 10  2  0
 10 11  1  0
 11 16  2  0
 11 12  1  0
 12 13  2  0
 13 14  1  0
 15 14  2  0
 16 15  1  0
 17  3  1  0
 18 17  1  0
 19 20  1  0
 19 18  2  0
 20 21  2  0
 21 17  1  0
 22 19  1  0
 23 22  2  0
 24 23  1  0
 25 24  2  0
 25 26  1  0
 26 27  2  0
 27 22  1  0
  1 28  1  0
  2 29  1  0
  8 30  1  0
  9 31  1  0
 10 32  1  0
 12 33  1  0
 13 34  1  0
 14 35  1  0
 15 36  1  0
 18 37  1  0
 21 38  1  0
 23 39  1  0
 24 40  1  0
 26 41  1  0
M  ISO  8  28  14  29  14  30  14  31  14  32  14  33  14  34  14  35  14
M  ISO  6  36  14  37  14  38  14  39  14  40  14  41  14
M  END
>  <minimizedAffinity>  (1) 
-6.2659297

>  <minimizedRMSD>  (1) 
1.12113357

$$$$
