
     RDKit          3D

 41 45  0  0  0  0  0  0  0  0999 V2000
   40.5960   22.1630   37.4550 C   0  0  0  0  0  0  0  0  0  0  0  0
   39.7530   22.9750   36.6670 C   0  0  0  0  0  0  0  0  0  0  0  0
   40.3840   23.8280   35.7860 C   0  0  0  0  0  0  0  0  0  0  0  0
   41.7230   23.8090   35.7610 N   0  0  0  0  0  0  0  0  0  0  0  0
   42.5280   23.0380   36.5100 C   0  0  0  0  0  0  0  0  0  0  0  0
   41.9190   22.2150   37.3600 N   0  0  0  0  0  0  0  0  0  0  0  0
   43.9430   23.2690   36.2310 C   0  0  0  0  0  0  0  0  0  0  0  0
   44.5990   22.5700   35.2490 C   0  0  0  0  0  0  0  0  0  0  0  0
   45.9300   22.7360   34.9320 C   0  0  0  0  0  0  0  0  0  0  0  0
   46.6820   23.6520   35.6240 C   0  0  0  0  0  0  0  0  0  0  0  0
   46.0740   24.3750   36.6140 C   0  0  0  0  0  0  0  0  0  0  0  0
   46.8400   25.2890   37.2980 C   0  0  0  0  0  0  0  0  0  0  0  0
   46.2970   26.0540   38.3080 C   0  0  0  0  0  0  0  0  0  0  0  0
   44.9510   25.8570   38.5970 C   0  0  0  0  0  0  0  0  0  0  0  0
   44.2310   24.9280   37.8800 C   0  0  0  0  0  0  0  0  0  0  0  0
   44.7500   24.1580   36.8740 C   0  0  0  0  0  0  0  0  0  0  0  0
   39.6470   24.7020   34.9300 N   0  0  0  0  0  0  0  0  0  0  0  0
   38.6480   24.2640   34.1690 C   0  0  0  0  0  0  0  0  0  0  0  0
   38.1730   25.3510   33.4900 C   0  0  0  0  0  0  0  0  0  0  0  0
   38.8820   26.4180   33.8450 N   0  0  0  0  0  0  0  0  0  0  0  0
   39.8180   26.0460   34.7510 C   0  0  0  0  0  0  0  0  0  0  0  0
   37.0700   25.3500   32.5310 C   0  0  0  0  0  0  0  0  0  0  0  0
   36.5630   24.1660   32.0360 C   0  0  0  0  0  0  0  0  0  0  0  0
   35.5160   24.1930   31.1270 C   0  0  0  0  0  0  0  0  0  0  0  0
   35.0120   25.3780   30.7430 N   0  0  0  0  0  0  0  0  0  0  0  0
   35.5030   26.5350   31.2210 C   0  0  0  0  0  0  0  0  0  0  0  0
   36.5310   26.5320   32.1160 N   0  0  0  0  0  0  0  0  0  0  0  0
   40.1416   21.4634   38.1721 H   0  0  0  0  0  0  0  0  0  0  0  0
   38.6571   22.9303   36.7505 H   0  0  0  0  0  0  0  0  0  0  0  0
   44.0239   21.8274   34.6764 H   0  0  0  0  0  0  0  0  0  0  0  0
   46.3866   22.1381   34.1295 H   0  0  0  0  0  0  0  0  0  0  0  0
   47.7462   23.8012   35.3889 H   0  0  0  0  0  0  0  0  0  0  0  0
   47.9012   25.4116   37.0356 H   0  0  0  0  0  0  0  0  0  0  0  0
   46.9017   26.7879   38.8610 H   0  0  0  0  0  0  0  0  0  0  0  0
   44.4648   26.4396   39.3933 H   0  0  0  0  0  0  0  0  0  0  0  0
   43.1685   24.7957   38.1321 H   0  0  0  0  0  0  0  0  0  0  0  0
   38.2772   23.2307   34.0997 H   0  0  0  0  0  0  0  0  0  0  0  0
   40.5615   26.6919   35.2410 H   0  0  0  0  0  0  0  0  0  0  0  0
   36.9875   23.2047   32.3610 H   0  0  0  0  0  0  0  0  0  0  0  0
   35.1032   23.2559   30.7253 H   0  0  0  0  0  0  0  0  0  0  0  0
   35.0720   27.4905   30.8874 H   0  0  0  0  0  0  0  0  0  0  0  0
  2  1  2  0
  3  2  1  0
  4  3  2  0
  4  5  1  0
  5  6  2  0
  6  1  1  0
  7  5  1  0
  7 16  1  0
  8  7  2  0
  9  8  1  0
  9 10  2  0
 10 11  1  0
 11 16  2  0
 11 12  1  0
 12 13  2  0
 13 14  1  0
 15 14  2  0
 16 15  1  0
 17  3  1  0
 18 17  1  0
 19 20  1  0
 19 18  2  0
 20 21  2  0
 21 17  1  0
 22 19  1  0
 23 22  2  0
 24 23  1  0
 25 24  2  0
 25 26  1  0
 26 27  2  0
 27 22  1  0
  1 28  1  0
  2 29  1  0
  8 30  1  0
  9 31  1  0
 10 32  1  0
 12 33  1  0
 13 34  1  0
 14 35  1  0
 15 36  1  0
 18 37  1  0
 21 38  1  0
 23 39  1  0
 24 40  1  0
 26 41  1  0
M  ISO  8  28  14  29  14  30  14  31  14  32  14  33  14  34  14  35  14
M  ISO  6  36  14  37  14  38  14  39  14  40  14  41  14
M  END
>  <minimizedAffinity>  (1) 
-6.26756382

>  <minimizedRMSD>  (1) 
1.15152526

$$$$
