
     RDKit          3D

 40 44  0  0  0  0  0  0  0  0999 V2000
   39.9000   22.7120   37.7340 C   0  0  0  0  0  0  0  0  0  0  0  0
   39.1600   23.4790   36.8150 C   0  0  0  0  0  0  0  0  0  0  0  0
   39.8780   24.0010   35.7530 C   0  0  0  0  0  0  0  0  0  0  0  0
   41.1880   23.7340   35.6950 N   0  0  0  0  0  0  0  0  0  0  0  0
   41.8950   23.0090   36.5630 C   0  0  0  0  0  0  0  0  0  0  0  0
   41.2090   22.4950   37.6010 N   0  0  0  0  0  0  0  0  0  0  0  0
   43.2970   22.9140   36.2060 C   0  0  0  0  0  0  0  0  0  0  0  0
   43.7620   21.9270   35.3630 C   0  0  0  0  0  0  0  0  0  0  0  0
   45.0820   21.7910   34.9910 C   0  0  0  0  0  0  0  0  0  0  0  0
   46.0300   22.6640   35.4610 C   0  0  0  0  0  0  0  0  0  0  0  0
   45.6200   23.6630   36.3030 C   0  0  0  0  0  0  0  0  0  0  0  0
   46.5690   24.5380   36.7750 C   0  0  0  0  0  0  0  0  0  0  0  0
   46.2470   25.5650   37.6200 C   0  0  0  0  0  0  0  0  0  0  0  0
   44.8970   25.6700   37.9740 C   0  0  0  0  0  0  0  0  0  0  0  0
   43.9790   24.7810   37.4850 C   0  0  0  0  0  0  0  0  0  0  0  0
   44.2950   23.7520   36.6400 C   0  0  0  0  0  0  0  0  0  0  0  0
   39.2450   24.8030   34.7420 N   0  0  0  0  0  0  0  0  0  0  0  0
   38.1830   24.3470   34.0610 C   0  0  0  0  0  0  0  0  0  0  0  0
   37.8420   25.3570   33.1900 C   0  0  0  0  0  0  0  0  0  0  0  0
   38.6940   26.3850   33.3620 N   0  0  0  0  0  0  0  0  0  0  0  0
   39.5730   26.0480   34.3280 C   0  0  0  0  0  0  0  0  0  0  0  0
   36.7540   25.2740   32.2770 N   0  0  0  0  0  0  0  0  0  0  0  0
   35.9550   26.1560   31.6840 N   0  0  0  0  0  0  0  0  0  0  0  0
   35.0730   25.5070   30.8950 C   0  0  0  0  0  0  0  0  0  0  0  0
   35.3410   24.1390   31.0050 C   0  0  0  0  0  0  0  0  0  0  0  0
   36.4050   24.0180   31.8820 C   0  0  0  0  0  0  0  0  0  0  0  0
   39.3775   22.2737   38.5970 H   0  0  0  0  0  0  0  0  0  0  0  0
   38.0802   23.6526   36.9331 H   0  0  0  0  0  0  0  0  0  0  0  0
   43.0354   21.2044   34.9632 H   0  0  0  0  0  0  0  0  0  0  0  0
   45.3774   20.9770   34.3127 H   0  0  0  0  0  0  0  0  0  0  0  0
   47.0863   22.5647   35.1706 H   0  0  0  0  0  0  0  0  0  0  0  0
   47.6165   24.4091   36.4649 H   0  0  0  0  0  0  0  0  0  0  0  0
   47.0046   26.2668   37.9988 H   0  0  0  0  0  0  0  0  0  0  0  0
   44.5714   26.4737   38.6508 H   0  0  0  0  0  0  0  0  0  0  0  0
   42.9283   24.9001   37.7880 H   0  0  0  0  0  0  0  0  0  0  0  0
   37.6885   23.3710   34.1747 H   0  0  0  0  0  0  0  0  0  0  0  0
   40.3991   26.6677   34.7068 H   0  0  0  0  0  0  0  0  0  0  0  0
   34.2878   25.9692   30.2788 H   0  0  0  0  0  0  0  0  0  0  0  0
   34.8110   23.3208   30.4954 H   0  0  0  0  0  0  0  0  0  0  0  0
   36.8815   23.0794   32.2015 H   0  0  0  0  0  0  0  0  0  0  0  0
  2  1  2  0
  3  2  1  0
  4  3  2  0
  4  5  1  0
  5  6  2  0
  6  1  1  0
  7  5  1  0
  7 16  1  0
  8  7  2  0
  9  8  1  0
  9 10  2  0
 10 11  1  0
 11 16  2  0
 11 12  1  0
 12 13  2  0
 13 14  1  0
 15 14  2  0
 16 15  1  0
 17  3  1  0
 18 17  1  0
 19 20  1  0
 19 18  2  0
 20 21  2  0
 21 17  1  0
 22 19  1  0
 23 22  1  0
 24 25  1  0
 24 23  2  0
 25 26  2  0
 26 22  1  0
  1 27  1  0
  2 28  1  0
  8 29  1  0
  9 30  1  0
 10 31  1  0
 12 32  1  0
 13 33  1  0
 14 34  1  0
 15 35  1  0
 18 36  1  0
 21 37  1  0
 24 38  1  0
 25 39  1  0
 26 40  1  0
M  ISO  8  27  14  28  14  29  14  30  14  31  14  32  14  33  14  34  14
M  ISO  6  35  14  36  14  37  14  38  14  39  14  40  14
M  END
>  <minimizedAffinity>  (1) 
-6.10732365

>  <minimizedRMSD>  (1) 
1.18170393

$$$$
