
     RDKit          3D

 40 44  0  0  0  0  0  0  0  0999 V2000
   40.2100   22.5680   37.5740 C   0  0  0  0  0  0  0  0  0  0  0  0
   39.4530   23.3260   36.6570 C   0  0  0  0  0  0  0  0  0  0  0  0
   40.1680   23.9650   35.6660 C   0  0  0  0  0  0  0  0  0  0  0  0
   41.4900   23.8050   35.6710 N   0  0  0  0  0  0  0  0  0  0  0  0
   42.2190   23.0900   36.5320 C   0  0  0  0  0  0  0  0  0  0  0  0
   41.5390   22.4720   37.4900 N   0  0  0  0  0  0  0  0  0  0  0  0
   43.6490   23.1340   36.2410 C   0  0  0  0  0  0  0  0  0  0  0  0
   44.2120   22.2590   35.3380 C   0  0  0  0  0  0  0  0  0  0  0  0
   45.5600   22.2520   35.0200 C   0  0  0  0  0  0  0  0  0  0  0  0
   46.4200   23.1440   35.6100 C   0  0  0  0  0  0  0  0  0  0  0  0
   45.8930   24.0300   36.5160 C   0  0  0  0  0  0  0  0  0  0  0  0
   46.7570   24.9250   37.1070 C   0  0  0  0  0  0  0  0  0  0  0  0
   46.3150   25.8430   38.0210 C   0  0  0  0  0  0  0  0  0  0  0  0
   44.9450   25.8240   38.3210 C   0  0  0  0  0  0  0  0  0  0  0  0
   44.1230   24.9170   37.7080 C   0  0  0  0  0  0  0  0  0  0  0  0
   44.5500   23.9980   36.7970 C   0  0  0  0  0  0  0  0  0  0  0  0
   39.5170   24.7650   34.6750 N   0  0  0  0  0  0  0  0  0  0  0  0
   38.4000   24.3470   34.0490 C   0  0  0  0  0  0  0  0  0  0  0  0
   38.0730   25.3500   33.1910 C   0  0  0  0  0  0  0  0  0  0  0  0
   38.9650   26.3440   33.2950 N   0  0  0  0  0  0  0  0  0  0  0  0
   39.8850   25.9990   34.2250 C   0  0  0  0  0  0  0  0  0  0  0  0
   36.9230   25.3410   32.2930 C   0  0  0  0  0  0  0  0  0  0  0  0
   36.2260   24.2740   31.7670 C   0  0  0  0  0  0  0  0  0  0  0  0
   35.2110   24.8010   30.9670 C   0  0  0  0  0  0  0  0  0  0  0  0
   35.3550   26.1730   31.0570 C   0  0  0  0  0  0  0  0  0  0  0  0
   36.3550   26.4490   31.8330 O   0  0  0  0  0  0  0  0  0  0  0  0
   39.6885   22.0385   38.3850 H   0  0  0  0  0  0  0  0  0  0  0  0
   38.3580   23.4029   36.7279 H   0  0  0  0  0  0  0  0  0  0  0  0
   43.5563   21.5273   34.8434 H   0  0  0  0  0  0  0  0  0  0  0  0
   45.9443   21.5257   34.2887 H   0  0  0  0  0  0  0  0  0  0  0  0
   47.4925   23.1487   35.3657 H   0  0  0  0  0  0  0  0  0  0  0  0
   47.8236   24.9016   36.8391 H   0  0  0  0  0  0  0  0  0  0  0  0
   47.0002   26.5601   38.4967 H   0  0  0  0  0  0  0  0  0  0  0  0
   44.5312   26.5377   39.0486 H   0  0  0  0  0  0  0  0  0  0  0  0
   43.0538   24.9309   37.9663 H   0  0  0  0  0  0  0  0  0  0  0  0
   37.8662   23.3970   34.1997 H   0  0  0  0  0  0  0  0  0  0  0  0
   40.7521   26.5920   34.5514 H   0  0  0  0  0  0  0  0  0  0  0  0
   36.4313   23.2080   31.9445 H   0  0  0  0  0  0  0  0  0  0  0  0
   34.4584   24.2444   30.3892 H   0  0  0  0  0  0  0  0  0  0  0  0
   34.7201   26.9141   30.5494 H   0  0  0  0  0  0  0  0  0  0  0  0
  2  1  2  0
  3  4  2  0
  3  2  1  0
  4  5  1  0
  5  6  2  0
  6  1  1  0
  7  5  1  0
  7 16  1  0
  8  7  2  0
  9  8  1  0
  9 10  2  0
 10 11  1  0
 11 16  2  0
 11 12  1  0
 12 13  2  0
 13 14  1  0
 15 14  2  0
 16 15  1  0
 17  3  1  0
 18 17  1  0
 19 20  1  0
 19 18  2  0
 20 21  2  0
 21 17  1  0
 22 19  1  0
 23 22  2  0
 24 25  2  0
 24 23  1  0
 25 26  1  0
 26 22  1  0
  1 27  1  0
  2 28  1  0
  8 29  1  0
  9 30  1  0
 10 31  1  0
 12 32  1  0
 13 33  1  0
 14 34  1  0
 15 35  1  0
 18 36  1  0
 21 37  1  0
 23 38  1  0
 24 39  1  0
 25 40  1  0
M  ISO  8  27  14  28  14  29  14  30  14  31  14  32  14  33  14  34  14
M  ISO  6  35  14  36  14  37  14  38  14  39  14  40  14
M  END
>  <minimizedAffinity>  (1) 
-6.0927763

>  <minimizedRMSD>  (1) 
1.05694032

$$$$
