
     RDKit          3D

 46 50  0  0  0  0  0  0  0  0999 V2000
   40.3840   22.3950   37.1300 C   0  0  0  0  0  0  0  0  0  0  0  0
   39.6870   23.3580   36.3690 C   0  0  0  0  0  0  0  0  0  0  0  0
   40.4590   24.2230   35.6280 C   0  0  0  0  0  0  0  0  0  0  0  0
   41.7870   24.0640   35.7060 N   0  0  0  0  0  0  0  0  0  0  0  0
   42.4610   23.1640   36.4150 C   0  0  0  0  0  0  0  0  0  0  0  0
   41.7100   22.3240   37.1340 N   0  0  0  0  0  0  0  0  0  0  0  0
   43.8980   23.2770   36.2650 C   0  0  0  0  0  0  0  0  0  0  0  0
   44.6010   22.4770   35.3850 C   0  0  0  0  0  0  0  0  0  0  0  0
   45.9640   22.5410   35.2020 C   0  0  0  0  0  0  0  0  0  0  0  0
   46.7130   23.4350   35.9130 C   0  0  0  0  0  0  0  0  0  0  0  0
   46.0690   24.2520   36.7980 C   0  0  0  0  0  0  0  0  0  0  0  0
   46.8370   25.1510   37.5110 C   0  0  0  0  0  0  0  0  0  0  0  0
   46.2630   26.0060   38.4200 C   0  0  0  0  0  0  0  0  0  0  0  0
   44.8750   25.9170   38.5850 C   0  0  0  0  0  0  0  0  0  0  0  0
   44.1550   25.0070   37.8530 C   0  0  0  0  0  0  0  0  0  0  0  0
   44.7160   24.1510   36.9440 C   0  0  0  0  0  0  0  0  0  0  0  0
   39.8770   25.2510   34.8100 N   0  0  0  0  0  0  0  0  0  0  0  0
   38.6680   25.1040   34.2560 C   0  0  0  0  0  0  0  0  0  0  0  0
   38.4490   26.2550   33.5640 C   0  0  0  0  0  0  0  0  0  0  0  0
   39.4890   27.0660   33.6960 N   0  0  0  0  0  0  0  0  0  0  0  0
   40.4110   26.4510   34.4850 C   0  0  0  0  0  0  0  0  0  0  0  0
   37.2940   26.6990   32.7400 C   0  0  0  0  0  0  0  0  0  0  0  0
   36.6930   27.9680   33.2580 C   0  0  0  0  0  0  0  0  0  0  0  0
   36.3340   28.7840   32.0350 C   0  0  0  0  0  0  0  0  0  0  0  0
   37.5160   28.4750   31.1080 C   0  0  0  0  0  0  0  0  0  0  0  0
   37.6880   26.9830   31.3110 C   0  0  0  0  0  0  0  0  0  0  0  0
   39.8106   21.6807   37.7391 H   0  0  0  0  0  0  0  0  0  0  0  0
   38.5884   23.4138   36.3684 H   0  0  0  0  0  0  0  0  0  0  0  0
   44.0358   21.7422   34.7929 H   0  0  0  0  0  0  0  0  0  0  0  0
   46.4519   21.8694   34.4802 H   0  0  0  0  0  0  0  0  0  0  0  0
   47.8029   23.4952   35.7768 H   0  0  0  0  0  0  0  0  0  0  0  0
   47.9245   25.1830   37.3487 H   0  0  0  0  0  0  0  0  0  0  0  0
   46.8655   26.7271   38.9918 H   0  0  0  0  0  0  0  0  0  0  0  0
   44.3625   26.5763   39.3010 H   0  0  0  0  0  0  0  0  0  0  0  0
   43.0665   24.9628   38.0050 H   0  0  0  0  0  0  0  0  0  0  0  0
   37.9951   24.2380   34.3416 H   0  0  0  0  0  0  0  0  0  0  0  0
   41.3891   26.8476   34.7949 H   0  0  0  0  0  0  0  0  0  0  0  0
   36.5761   25.8672   32.7924 H   0  0  0  0  0  0  0  0  0  0  0  0
   35.7926   27.7510   33.8514 H   0  0  0  0  0  0  0  0  0  0  0  0
   37.3913   28.5081   33.9142 H   0  0  0  0  0  0  0  0  0  0  0  0
   35.3812   28.4532   31.5960 H   0  0  0  0  0  0  0  0  0  0  0  0
   36.1882   29.8556   32.2361 H   0  0  0  0  0  0  0  0  0  0  0  0
   38.4178   29.0270   31.4114 H   0  0  0  0  0  0  0  0  0  0  0  0
   37.3481   28.7654   30.0604 H   0  0  0  0  0  0  0  0  0  0  0  0
   37.0375   26.4275   30.6195 H   0  0  0  0  0  0  0  0  0  0  0  0
   38.7240   26.6706   31.1134 H   0  0  0  0  0  0  0  0  0  0  0  0
  1  6  2  0
  2  1  1  0
  3  4  1  0
  3  2  2  0
  4  5  2  0
  5  6  1  0
  7  5  1  0
  7 16  1  0
  8  7  2  0
  9  8  1  0
  9 10  2  0
 10 11  1  0
 11 16  2  0
 11 12  1  0
 12 13  2  0
 13 14  1  0
 15 14  2  0
 16 15  1  0
 17  3  1  0
 18 17  1  0
 19 20  1  0
 19 18  2  0
 20 21  2  0
 21 17  1  0
 22 23  1  0
 22 19  1  0
 24 23  1  0
 25 26  1  0
 25 24  1  0
 26 22  1  0
  1 27  1  0
  2 28  1  0
  8 29  1  0
  9 30  1  0
 10 31  1  0
 12 32  1  0
 13 33  1  0
 14 34  1  0
 15 35  1  0
 18 36  1  0
 21 37  1  0
 22 38  1  0
 23 39  1  0
 23 40  1  0
 24 41  1  0
 24 42  1  0
 25 43  1  0
 25 44  1  0
 26 45  1  0
 26 46  1  0
M  ISO  8  27  14  28  14  29  14  30  14  31  14  32  14  33  14  34  14
M  ISO  8  35  14  36  14  37  14  38  13  39  13  40  13  41  13  42  13
M  ISO  4  43  13  44  13  45  13  46  13
M  END
>  <minimizedAffinity>  (1) 
-6.07782125

>  <minimizedRMSD>  (1) 
0.752501428

$$$$
