
     RDKit          3D

 42 45  0  0  0  0  0  0  0  0999 V2000
   40.3530   22.5660   36.8730 C   0  0  0  0  0  0  0  0  0  0  0  0
   39.7530   23.5700   36.0840 C   0  0  0  0  0  0  0  0  0  0  0  0
   40.6230   24.4140   35.4110 C   0  0  0  0  0  0  0  0  0  0  0  0
   41.9270   24.1920   35.5770 N   0  0  0  0  0  0  0  0  0  0  0  0
   42.5070   23.2500   36.3160 C   0  0  0  0  0  0  0  0  0  0  0  0
   41.6710   22.4330   36.9690 N   0  0  0  0  0  0  0  0  0  0  0  0
   43.9620   23.3000   36.2680 C   0  0  0  0  0  0  0  0  0  0  0  0
   44.6760   22.4560   35.4550 C   0  0  0  0  0  0  0  0  0  0  0  0
   46.0440   22.4520   35.3630 C   0  0  0  0  0  0  0  0  0  0  0  0
   46.8030   23.3320   36.1130 C   0  0  0  0  0  0  0  0  0  0  0  0
   46.1250   24.1920   36.9380 C   0  0  0  0  0  0  0  0  0  0  0  0
   46.8760   25.0720   37.6900 C   0  0  0  0  0  0  0  0  0  0  0  0
   46.2840   25.9720   38.5470 C   0  0  0  0  0  0  0  0  0  0  0  0
   44.8800   25.9440   38.6120 C   0  0  0  0  0  0  0  0  0  0  0  0
   44.1870   25.0430   37.8370 C   0  0  0  0  0  0  0  0  0  0  0  0
   44.7640   24.1470   36.9860 C   0  0  0  0  0  0  0  0  0  0  0  0
   40.1400   25.4680   34.5800 N   0  0  0  0  0  0  0  0  0  0  0  0
   38.8650   25.5240   34.1840 C   0  0  0  0  0  0  0  0  0  0  0  0
   38.7600   26.6510   33.4100 C   0  0  0  0  0  0  0  0  0  0  0  0
   39.9520   27.2470   33.3550 N   0  0  0  0  0  0  0  0  0  0  0  0
   40.8410   26.5280   34.0800 C   0  0  0  0  0  0  0  0  0  0  0  0
   37.5120   27.1300   32.7420 C   0  0  0  0  0  0  0  0  0  0  0  0
   37.8280   27.9980   31.5450 C   0  0  0  0  0  0  0  0  0  0  0  0
   36.6500   27.9250   33.6870 C   0  0  0  0  0  0  0  0  0  0  0  0
   39.7071   21.8695   37.4277 H   0  0  0  0  0  0  0  0  0  0  0  0
   38.6609   23.6767   36.0074 H   0  0  0  0  0  0  0  0  0  0  0  0
   44.1157   21.7377   34.8385 H   0  0  0  0  0  0  0  0  0  0  0  0
   46.5425   21.7423   34.6864 H   0  0  0  0  0  0  0  0  0  0  0  0
   47.9012   23.3415   36.0504 H   0  0  0  0  0  0  0  0  0  0  0  0
   47.9724   25.0540   37.6027 H   0  0  0  0  0  0  0  0  0  0  0  0
   46.8779   26.6756   39.1489 H   0  0  0  0  0  0  0  0  0  0  0  0
   44.3408   26.6357   39.2760 H   0  0  0  0  0  0  0  0  0  0  0  0
   43.0894   25.0455   37.9088 H   0  0  0  0  0  0  0  0  0  0  0  0
   38.0634   24.8116   34.4289 H   0  0  0  0  0  0  0  0  0  0  0  0
   41.9070   26.7513   34.2343 H   0  0  0  0  0  0  0  0  0  0  0  0
   36.9690   26.2305   32.4164 H   0  0  0  0  0  0  0  0  0  0  0  0
   38.1855   28.9800   31.8883 H   0  0  0  0  0  0  0  0  0  0  0  0
   38.6082   27.5155   30.9379 H   0  0  0  0  0  0  0  0  0  0  0  0
   36.9202   28.1300   30.9379 H   0  0  0  0  0  0  0  0  0  0  0  0
   36.9185   27.6774   34.7246 H   0  0  0  0  0  0  0  0  0  0  0  0
   36.8099   28.9994   33.5133 H   0  0  0  0  0  0  0  0  0  0  0  0
   35.5920   27.6789   33.5133 H   0  0  0  0  0  0  0  0  0  0  0  0
  1  6  2  0
  2  1  1  0
  3  4  1  0
  3  2  2  0
  4  5  2  0
  5  6  1  0
  7  5  1  0
  7 16  1  0
  8  7  2  0
  9  8  1  0
  9 10  2  0
 10 11  1  0
 11 16  2  0
 11 12  1  0
 12 13  2  0
 13 14  1  0
 15 14  2  0
 16 15  1  0
 17  3  1  0
 18 17  1  0
 19 18  2  0
 20 19  1  0
 20 21  2  0
 21 17  1  0
 22 19  1  0
 22 24  1  0
 23 22  1  0
  1 25  1  0
  2 26  1  0
  8 27  1  0
  9 28  1  0
 10 29  1  0
 12 30  1  0
 13 31  1  0
 14 32  1  0
 15 33  1  0
 18 34  1  0
 21 35  1  0
 22 36  1  0
 23 37  1  0
 23 38  1  0
 23 39  1  0
 24 40  1  0
 24 41  1  0
 24 42  1  0
M  ISO  8  25  14  26  14  27  14  28  14  29  14  30  14  31  14  32  14
M  ISO  8  33  14  34  14  35  14  36   8  37   8  38   8  39   8  40   8
M  ISO  2  41   8  42   8
M  END
>  <minimizedAffinity>  (1) 
-5.66400099

>  <minimizedRMSD>  (1) 
0.814228356

$$$$
