
     RDKit          3D

 34 37  0  0  0  0  0  0  0  0999 V2000
   40.2240   22.7740   36.9560 C   0  0  0  0  0  0  0  0  0  0  0  0
   39.6390   23.6870   36.0480 C   0  0  0  0  0  0  0  0  0  0  0  0
   40.5090   24.4170   35.2790 C   0  0  0  0  0  0  0  0  0  0  0  0
   41.8230   24.2040   35.4540 N   0  0  0  0  0  0  0  0  0  0  0  0
   42.3880   23.3400   36.3130 C   0  0  0  0  0  0  0  0  0  0  0  0
   41.5410   22.6290   37.0610 N   0  0  0  0  0  0  0  0  0  0  0  0
   43.8400   23.3560   36.2490 C   0  0  0  0  0  0  0  0  0  0  0  0
   44.5250   22.4970   35.4130 C   0  0  0  0  0  0  0  0  0  0  0  0
   45.8990   22.4630   35.3070 C   0  0  0  0  0  0  0  0  0  0  0  0
   46.6710   23.3170   36.0600 C   0  0  0  0  0  0  0  0  0  0  0  0
   46.0310   24.1840   36.9000 C   0  0  0  0  0  0  0  0  0  0  0  0
   46.8150   25.0390   37.6530 C   0  0  0  0  0  0  0  0  0  0  0  0
   46.2460   25.9410   38.5230 C   0  0  0  0  0  0  0  0  0  0  0  0
   44.8560   25.9440   38.6010 C   0  0  0  0  0  0  0  0  0  0  0  0
   44.1170   25.0740   37.8330 C   0  0  0  0  0  0  0  0  0  0  0  0
   44.6580   24.1790   36.9700 C   0  0  0  0  0  0  0  0  0  0  0  0
   40.0520   25.3750   34.3210 N   0  0  0  0  0  0  0  0  0  0  0  0
   39.1500   25.0480   33.3780 C   0  0  0  0  0  0  0  0  0  0  0  0
   38.9540   26.1890   32.6560 C   0  0  0  0  0  0  0  0  0  0  0  0
   39.7130   27.1700   33.1490 N   0  0  0  0  0  0  0  0  0  0  0  0
   40.4110   26.6810   34.1950 C   0  0  0  0  0  0  0  0  0  0  0  0
   37.8920   26.4960   31.2510 S   0  0  0  0  0  0  0  0  0  0  0  0
   39.5684   22.1647   37.5955 H   0  0  0  0  0  0  0  0  0  0  0  0
   38.5486   23.8049   35.9634 H   0  0  0  0  0  0  0  0  0  0  0  0
   43.9404   21.7991   34.7956 H   0  0  0  0  0  0  0  0  0  0  0  0
   46.3790   21.7516   34.6189 H   0  0  0  0  0  0  0  0  0  0  0  0
   47.7686   23.3024   35.9882 H   0  0  0  0  0  0  0  0  0  0  0  0
   47.9098   24.9975   37.5551 H   0  0  0  0  0  0  0  0  0  0  0  0
   46.8593   26.6258   39.1270 H   0  0  0  0  0  0  0  0  0  0  0  0
   44.3467   26.6445   39.2792 H   0  0  0  0  0  0  0  0  0  0  0  0
   43.0213   25.1064   37.9246 H   0  0  0  0  0  0  0  0  0  0  0  0
   38.6723   24.0694   33.2222 H   0  0  0  0  0  0  0  0  0  0  0  0
   41.1288   27.2301   34.8222 H   0  0  0  0  0  0  0  0  0  0  0  0
   36.6456   26.8563   31.6908 H   0  0  0  0  0  0  0  0  0  0  0  0
  1  6  2  0
  2  1  1  0
  3  4  1  0
  3  2  2  0
  4  5  2  0
  5  6  1  0
  7  5  1  0
  7 16  1  0
  8  7  2  0
  9  8  1  0
  9 10  2  0
 10 11  1  0
 11 16  2  0
 11 12  1  0
 12 13  2  0
 13 14  1  0
 15 14  2  0
 16 15  1  0
 17  3  1  0
 18 17  1  0
 19 20  1  0
 19 18  2  0
 20 21  2  0
 21 17  1  0
 22 19  1  0
  1 23  1  0
  2 24  1  0
  8 25  1  0
  9 26  1  0
 10 27  1  0
 12 28  1  0
 13 29  1  0
 14 30  1  0
 15 31  1  0
 18 32  1  0
 21 33  1  0
 22 34  1  0
M  ISO  8  23  14  24  14  25  14  26  14  27  14  28  14  29  14  30  14
M  ISO  4  31  14  32  14  33  14  34  11
M  END
>  <minimizedAffinity>  (1) 
-5.24888706

>  <minimizedRMSD>  (1) 
0.267611086

$$$$
