
     RDKit          3D

 50 55  0  0  0  0  0  0  0  0999 V2000
   40.1610   22.7500   37.0470 C   0  0  0  0  0  0  0  0  0  0  0  0
   39.5690   23.6650   36.1610 C   0  0  0  0  0  0  0  0  0  0  0  0
   40.4360   24.3960   35.3450 C   0  0  0  0  0  0  0  0  0  0  0  0
   41.7330   24.1410   35.5000 N   0  0  0  0  0  0  0  0  0  0  0  0
   42.3100   23.2720   36.3400 C   0  0  0  0  0  0  0  0  0  0  0  0
   41.4760   22.5840   37.1100 N   0  0  0  0  0  0  0  0  0  0  0  0
   39.9460   25.3570   34.4030 N   0  0  0  0  0  0  0  0  0  0  0  0
   38.6630   25.6460   34.3070 C   0  0  0  0  0  0  0  0  0  0  0  0
   38.5670   26.5920   33.3180 C   0  0  0  0  0  0  0  0  0  0  0  0
   39.7830   26.8480   32.8460 N   0  0  0  0  0  0  0  0  0  0  0  0
   40.6580   26.0740   33.5250 C   0  0  0  0  0  0  0  0  0  0  0  0
   42.0670   26.0470   33.3240 N   0  0  0  0  0  0  0  0  0  0  0  0
   43.0690   25.3120   33.8480 C   0  0  0  0  0  0  0  0  0  0  0  0
   44.2060   25.7340   33.2710 N   0  0  0  0  0  0  0  0  0  0  0  0
   43.9410   26.7200   32.3930 C   0  0  0  0  0  0  0  0  0  0  0  0
   44.8460   27.4220   31.5910 C   0  0  0  0  0  0  0  0  0  0  0  0
   46.0750   27.1510   31.6460 O   0  0  0  0  0  0  0  0  0  0  0  0
   44.2890   28.3730   30.7920 N   0  0  0  0  0  0  0  0  0  0  0  0
   42.9640   28.5870   30.8060 C   0  0  0  0  0  0  0  0  0  0  0  0
   42.4890   29.6010   29.9360 N   0  0  0  0  0  0  0  0  0  0  0  0
   42.1390   27.8950   31.5870 N   0  0  0  0  0  0  0  0  0  0  0  0
   42.5750   26.9150   32.4300 C   0  0  0  0  0  0  0  0  0  0  0  0
   37.3430   27.2640   32.8040 C   0  0  0  0  0  0  0  0  0  0  0  0
   36.4670   26.4040   32.1830 F   0  0  0  0  0  0  0  0  0  0  0  0
   37.6950   28.2150   31.8350 F   0  0  0  0  0  0  0  0  0  0  0  0
   36.7430   28.0160   33.8110 F   0  0  0  0  0  0  0  0  0  0  0  0
   43.7600   23.2620   36.2330 C   0  0  0  0  0  0  0  0  0  0  0  0
   44.4040   22.3630   35.4080 C   0  0  0  0  0  0  0  0  0  0  0  0
   45.7720   22.2990   35.2590 C   0  0  0  0  0  0  0  0  0  0  0  0
   46.5840   23.1730   35.9620 C   0  0  0  0  0  0  0  0  0  0  0  0
   45.9850   24.0710   36.7840 C   0  0  0  0  0  0  0  0  0  0  0  0
   46.7910   24.9480   37.4900 C   0  0  0  0  0  0  0  0  0  0  0  0
   46.2760   25.8840   38.3380 C   0  0  0  0  0  0  0  0  0  0  0  0
   44.8810   25.9160   38.4610 C   0  0  0  0  0  0  0  0  0  0  0  0
   44.1050   25.0270   37.7420 C   0  0  0  0  0  0  0  0  0  0  0  0
   44.6100   24.0970   36.9000 C   0  0  0  0  0  0  0  0  0  0  0  0
   39.5154   22.1533   37.7082 H   0  0  0  0  0  0  0  0  0  0  0  0
   38.4783   23.7992   36.1121 H   0  0  0  0  0  0  0  0  0  0  0  0
   37.8400   25.2173   34.8977 H   0  0  0  0  0  0  0  0  0  0  0  0
   42.9733   24.5184   34.6037 H   0  0  0  0  0  0  0  0  0  0  0  0
   44.8899   28.9335   30.1710 H   0  0  0  0  0  0  0  0  0  0  0  0
   41.4825   29.8165   29.8972 H   0  0  0  0  0  0  0  0  0  0  0  0
   43.1504   30.1221   29.3428 H   0  0  0  0  0  0  0  0  0  0  0  0
   43.7880   21.6546   34.8347 H   0  0  0  0  0  0  0  0  0  0  0  0
   46.2185   21.5550   34.5829 H   0  0  0  0  0  0  0  0  0  0  0  0
   47.6785   23.1403   35.8575 H   0  0  0  0  0  0  0  0  0  0  0  0
   47.8820   24.8879   37.3629 H   0  0  0  0  0  0  0  0  0  0  0  0
   46.9223   26.5774   38.8961 H   0  0  0  0  0  0  0  0  0  0  0  0
   44.4038   26.6480   39.1292 H   0  0  0  0  0  0  0  0  0  0  0  0
   43.0127   25.0788   37.8615 H   0  0  0  0  0  0  0  0  0  0  0  0
  1  6  2  0
  2  1  1  0
  3  4  1  0
  3  2  2  0
  4  5  2  0
  5  6  1  0
  7  3  1  0
  8  7  1  0
  9  8  2  0
 10  9  1  0
 10 11  2  0
 11  7  1  0
 12 11  1  0
 12 13  1  0
 14 13  2  0
 15 22  2  0
 15 14  1  0
 16 17  2  0
 16 15  1  0
 18 19  1  0
 18 16  1  0
 19 21  2  0
 20 19  1  0
 21 22  1  0
 22 12  1  0
 23  9  1  0
 23 26  1  0
 24 23  1  0
 25 23  1  0
 27  5  1  0
 27 36  1  0
 28 27  2  0
 29 28  1  0
 29 30  2  0
 30 31  1  0
 31 36  2  0
 31 32  1  0
 32 33  2  0
 33 34  1  0
 35 34  2  0
 36 35  1  0
  1 37  1  0
  2 38  1  0
  8 39  1  0
 13 40  1  0
 18 41  1  0
 20 42  1  0
 20 43  1  0
 28 44  1  0
 29 45  1  0
 30 46  1  0
 32 47  1  0
 33 48  1  0
 34 49  1  0
 35 50  1  0
M  ISO  8  37  14  38  14  39  14  40  14  41   9  44  14  45  14  46  14
M  ISO  4  47  14  48  14  49  14  50  14
M  END
>  <minimizedAffinity>  (1) 
-6.5848875

>  <minimizedRMSD>  (1) 
1.26445365

$$$$
