
     RDKit          3D

 43 47  0  0  0  0  0  0  0  0999 V2000
   39.2190   23.1020   37.9100 C   0  0  0  0  0  0  0  0  0  0  0  0
   38.6090   23.6750   36.7680 C   0  0  0  0  0  0  0  0  0  0  0  0
   39.3570   23.6600   35.5890 C   0  0  0  0  0  0  0  0  0  0  0  0
   40.5540   23.1080   35.6790 N   0  0  0  0  0  0  0  0  0  0  0  0
   41.1470   22.5610   36.7460 C   0  0  0  0  0  0  0  0  0  0  0  0
   40.4350   22.5760   37.8700 N   0  0  0  0  0  0  0  0  0  0  0  0
   42.4780   22.0530   36.4570 C   0  0  0  0  0  0  0  0  0  0  0  0
   42.7060   20.7390   36.1890 C   0  0  0  0  0  0  0  0  0  0  0  0
   43.9520   20.1950   35.9060 C   0  0  0  0  0  0  0  0  0  0  0  0
   45.0650   21.0120   35.8860 C   0  0  0  0  0  0  0  0  0  0  0  0
   44.8860   22.3290   36.1490 C   0  0  0  0  0  0  0  0  0  0  0  0
   46.0080   23.1380   36.1230 C   0  0  0  0  0  0  0  0  0  0  0  0
   45.9190   24.4790   36.3730 C   0  0  0  0  0  0  0  0  0  0  0  0
   44.6440   24.9910   36.6550 C   0  0  0  0  0  0  0  0  0  0  0  0
   43.5560   24.1560   36.6710 C   0  0  0  0  0  0  0  0  0  0  0  0
   43.6270   22.8140   36.4230 C   0  0  0  0  0  0  0  0  0  0  0  0
   38.8440   24.2050   34.3750 N   0  0  0  0  0  0  0  0  0  0  0  0
   37.6880   23.7770   33.8570 C   0  0  0  0  0  0  0  0  0  0  0  0
   37.5140   24.5020   32.7170 C   0  0  0  0  0  0  0  0  0  0  0  0
   38.5340   25.3320   32.5630 N   0  0  0  0  0  0  0  0  0  0  0  0
   39.3830   25.1530   33.6060 C   0  0  0  0  0  0  0  0  0  0  0  0
   40.6210   25.8950   33.7650 C   0  0  0  0  0  0  0  0  0  0  0  0
   41.8670   25.4340   33.3730 C   0  0  0  0  0  0  0  0  0  0  0  0
   42.8720   26.3370   33.6370 C   0  0  0  0  0  0  0  0  0  0  0  0
   42.2210   27.3630   34.2000 N   0  0  0  0  0  0  0  0  0  0  0  0
   40.9490   27.0900   34.2600 N   0  0  0  0  0  0  0  0  0  0  0  0
   36.3970   24.4460   31.7290 C   0  0  0  0  0  0  0  0  0  0  0  0
   35.5810   23.3420   31.9120 F   0  0  0  0  0  0  0  0  0  0  0  0
   36.9010   24.3490   30.4220 F   0  0  0  0  0  0  0  0  0  0  0  0
   35.6750   25.6270   31.7540 F   0  0  0  0  0  0  0  0  0  0  0  0
   38.6661   23.0931   38.8609 H   0  0  0  0  0  0  0  0  0  0  0  0
   37.5991   24.1091   36.8075 H   0  0  0  0  0  0  0  0  0  0  0  0
   41.8416   20.0587   36.1970 H   0  0  0  0  0  0  0  0  0  0  0  0
   44.0517   19.1193   35.6989 H   0  0  0  0  0  0  0  0  0  0  0  0
   46.0634   20.6072   35.6640 H   0  0  0  0  0  0  0  0  0  0  0  0
   46.9889   22.6944   35.8972 H   0  0  0  0  0  0  0  0  0  0  0  0
   46.8074   25.1274   36.3539 H   0  0  0  0  0  0  0  0  0  0  0  0
   44.5165   26.0635   36.8636 H   0  0  0  0  0  0  0  0  0  0  0  0
   42.5710   24.5910   36.8961 H   0  0  0  0  0  0  0  0  0  0  0  0
   37.0198   23.0041   34.2646 H   0  0  0  0  0  0  0  0  0  0  0  0
   42.0350   24.4540   32.9024 H   0  0  0  0  0  0  0  0  0  0  0  0
   43.9488   26.2394   33.4346 H   0  0  0  0  0  0  0  0  0  0  0  0
   42.6587   28.2335   34.5340 H   0  0  0  0  0  0  0  0  0  0  0  0
  2  1  2  0
  3  4  2  0
  3  2  1  0
  4  5  1  0
  5  6  2  0
  6  1  1  0
  7  5  1  0
  8  7  2  0
  9  8  1  0
 10  9  2  0
 10 11  1  0
 11 16  2  0
 12 11  1  0
 12 13  2  0
 13 14  1  0
 14 15  2  0
 16  7  1  0
 16 15  1  0
 17  3  1  0
 18 17  1  0
 19 18  2  0
 20 19  1  0
 20 21  2  0
 21 22  1  0
 21 17  1  0
 22 26  2  0
 23 24  2  0
 23 22  1  0
 24 25  1  0
 25 26  1  0
 27 30  1  0
 27 28  1  0
 27 19  1  0
 29 27  1  0
  1 31  1  0
  2 32  1  0
  8 33  1  0
  9 34  1  0
 10 35  1  0
 12 36  1  0
 13 37  1  0
 14 38  1  0
 15 39  1  0
 18 40  1  0
 23 41  1  0
 24 42  1  0
 25 43  1  0
M  ISO  8  31  14  32  14  33  14  34  14  35  14  36  14  37  14  38  14
M  ISO  5  39  14  40  14  41  14  42  14  43   9
M  END
>  <minimizedAffinity>  (1) 
-6.42901659

>  <minimizedRMSD>  (1) 
2.29298997

$$$$
