
     RDKit          3D

 39 42  0  0  0  0  0  0  0  0999 V2000
   40.2340   22.4990   37.1020 C   0  0  0  0  0  0  0  0  0  0  0  0
   39.5960   23.5000   36.3460 C   0  0  0  0  0  0  0  0  0  0  0  0
   40.4260   24.3380   35.5980 C   0  0  0  0  0  0  0  0  0  0  0  0
   41.7270   24.0920   35.6860 N   0  0  0  0  0  0  0  0  0  0  0  0
   42.3500   23.1460   36.4000 C   0  0  0  0  0  0  0  0  0  0  0  0
   41.5480   22.3520   37.1100 N   0  0  0  0  0  0  0  0  0  0  0  0
   43.7950   23.1760   36.2550 C   0  0  0  0  0  0  0  0  0  0  0  0
   44.4400   22.2940   35.4200 C   0  0  0  0  0  0  0  0  0  0  0  0
   45.8140   22.2710   35.2380 C   0  0  0  0  0  0  0  0  0  0  0  0
   46.6120   23.1670   35.9100 C   0  0  0  0  0  0  0  0  0  0  0  0
   46.0000   24.0570   36.7450 C   0  0  0  0  0  0  0  0  0  0  0  0
   46.8130   24.9560   37.4200 C   0  0  0  0  0  0  0  0  0  0  0  0
   46.2830   25.8830   38.2770 C   0  0  0  0  0  0  0  0  0  0  0  0
   44.8930   25.8770   38.4370 C   0  0  0  0  0  0  0  0  0  0  0  0
   44.1280   24.9650   37.7470 C   0  0  0  0  0  0  0  0  0  0  0  0
   44.6460   24.0430   36.8960 C   0  0  0  0  0  0  0  0  0  0  0  0
   39.8890   25.3860   34.7940 N   0  0  0  0  0  0  0  0  0  0  0  0
   38.5950   25.4700   34.5200 C   0  0  0  0  0  0  0  0  0  0  0  0
   38.4520   26.5880   33.7360 C   0  0  0  0  0  0  0  0  0  0  0  0
   39.6540   27.1510   33.5560 N   0  0  0  0  0  0  0  0  0  0  0  0
   40.5570   26.4010   34.2170 C   0  0  0  0  0  0  0  0  0  0  0  0
   37.2050   27.1510   33.1430 C   0  0  0  0  0  0  0  0  0  0  0  0
   36.3840   26.2020   32.5990 F   0  0  0  0  0  0  0  0  0  0  0  0
   37.5150   28.0480   32.1260 F   0  0  0  0  0  0  0  0  0  0  0  0
   36.5360   27.9200   34.1060 F   0  0  0  0  0  0  0  0  0  0  0  0
   42.0000   26.6760   34.2730 C   0  0  0  0  0  0  0  0  0  0  0  0
   39.6190   21.8161   37.7064 H   0  0  0  0  0  0  0  0  0  0  0  0
   38.5022   23.6162   36.3443 H   0  0  0  0  0  0  0  0  0  0  0  0
   43.8310   21.5653   34.8650 H   0  0  0  0  0  0  0  0  0  0  0  0
   46.2661   21.5359   34.5559 H   0  0  0  0  0  0  0  0  0  0  0  0
   47.7042   23.1666   35.7794 H   0  0  0  0  0  0  0  0  0  0  0  0
   47.9014   24.9235   37.2641 H   0  0  0  0  0  0  0  0  0  0  0  0
   46.9208   26.5997   38.8151 H   0  0  0  0  0  0  0  0  0  0  0  0
   44.4129   26.5999   39.1130 H   0  0  0  0  0  0  0  0  0  0  0  0
   43.0379   24.9840   37.8928 H   0  0  0  0  0  0  0  0  0  0  0  0
   37.8003   24.7858   34.8519 H   0  0  0  0  0  0  0  0  0  0  0  0
   42.3211   26.7372   35.3233 H   0  0  0  0  0  0  0  0  0  0  0  0
   42.5475   25.8660   33.7688 H   0  0  0  0  0  0  0  0  0  0  0  0
   42.2112   27.6306   33.7688 H   0  0  0  0  0  0  0  0  0  0  0  0
  1  6  2  0
  2  1  1  0
  3  4  1  0
  3  2  2  0
  4  5  2  0
  5  6  1  0
  7  5  1  0
  7 16  1  0
  8  7  2  0
  9  8  1  0
  9 10  2  0
 10 11  1  0
 11 16  2  0
 11 12  1  0
 12 13  2  0
 13 14  1  0
 15 14  2  0
 16 15  1  0
 17  3  1  0
 18 17  1  0
 19 18  2  0
 20 19  1  0
 20 21  2  0
 21 26  1  0
 21 17  1  0
 22 19  1  0
 22 25  1  0
 23 22  1  0
 24 22  1  0
  1 27  1  0
  2 28  1  0
  8 29  1  0
  9 30  1  0
 10 31  1  0
 12 32  1  0
 13 33  1  0
 14 34  1  0
 15 35  1  0
 18 36  1  0
 26 37  1  0
 26 38  1  0
 26 39  1  0
M  ISO  8  27  14  28  14  29  14  30  14  31  14  32  14  33  14  34  14
M  ISO  5  35  14  36  14  37   8  38   8  39   8
M  END
>  <minimizedAffinity>  (1) 
-5.94745302

>  <minimizedRMSD>  (1) 
0.128179029

$$$$
