
     RDKit          3D

 33 35  0  0  1  0  0  0  0  0999 V2000
   41.3200   22.5120   37.3280 C   0  0  2  0  0  0  0  0  0  0  0  0
   41.8640   22.8330   35.9480 C   0  0  2  0  0  0  0  0  0  0  0  0
   42.2750   21.4810   35.4430 C   0  0  0  0  0  0  0  0  0  0  0  0
   42.7540   20.7750   36.6680 C   0  0  0  0  0  0  0  0  0  0  0  0
   41.6780   21.1200   37.6680 C   0  0  0  0  0  0  0  0  0  0  0  0
   39.8500   22.7360   37.3050 C   0  0  0  0  0  0  0  0  0  0  0  0
   39.1610   23.2890   38.4150 C   0  0  0  0  0  0  0  0  0  0  0  0
   37.7770   23.4630   38.3010 C   0  0  0  0  0  0  0  0  0  0  0  0
   37.1770   23.0940   37.1420 N   0  0  0  0  0  0  0  0  0  0  0  0
   37.8590   22.5720   36.1040 C   0  0  0  0  0  0  0  0  0  0  0  0
   39.1920   22.3890   36.1730 N   0  0  0  0  0  0  0  0  0  0  0  0
   42.8870   23.8270   35.9360 N   0  0  0  0  0  0  0  0  0  0  0  0
   44.0780   23.7450   36.5660 C   0  0  0  0  0  0  0  0  0  0  0  0
   45.0380   24.7340   36.5260 C   0  0  0  0  0  0  0  0  0  0  0  0
   44.8060   25.8910   35.8080 C   0  0  0  0  0  0  0  0  0  0  0  0
   45.6130   26.8400   35.7120 O   0  0  0  0  0  0  0  0  0  0  0  0
   43.6210   25.9800   35.1750 N   0  0  0  0  0  0  0  0  0  0  0  0
   42.7140   24.9890   35.2430 C   0  0  0  0  0  0  0  0  0  0  0  0
   41.6290   25.1790   34.6080 O   0  0  0  0  0  0  0  0  0  0  0  0
   41.7531   23.1604   38.1039 H   0  0  0  0  0  0  0  0  0  0  0  0
   41.1270   23.3172   35.2905 H   0  0  0  0  0  0  0  0  0  0  0  0
   41.4200   20.9532   34.9953 H   0  0  0  0  0  0  0  0  0  0  0  0
   43.0414   21.5354   34.6558 H   0  0  0  0  0  0  0  0  0  0  0  0
   42.8154   19.6888   36.5054 H   0  0  0  0  0  0  0  0  0  0  0  0
   43.7653   21.0706   36.9841 H   0  0  0  0  0  0  0  0  0  0  0  0
   42.0621   21.0535   38.6966 H   0  0  0  0  0  0  0  0  0  0  0  0
   40.8184   20.4350   37.6238 H   0  0  0  0  0  0  0  0  0  0  0  0
   39.6961   23.5713   39.3337 H   0  0  0  0  0  0  0  0  0  0  0  0
   37.1913   23.8878   39.1295 H   0  0  0  0  0  0  0  0  0  0  0  0
   37.3199   22.2912   35.1872 H   0  0  0  0  0  0  0  0  0  0  0  0
   44.2955   22.8356   37.1454 H   0  0  0  0  0  0  0  0  0  0  0  0
   45.9876   24.6017   37.0653 H   0  0  0  0  0  0  0  0  0  0  0  0
   43.4044   26.8248   34.6271 H   0  0  0  0  0  0  0  0  0  0  0  0
  1  5  1  0
  2  1  1  0
  3  2  1  0
  3  4  1  0
  4  5  1  0
  6  1  1  0
  6  7  2  0
  8  7  1  0
  9  8  2  0
 10 11  2  0
 10  9  1  0
 11  6  1  0
 12  2  1  0
 12 13  1  0
 14 13  2  0
 15 14  1  0
 16 15  2  0
 17 18  1  0
 17 15  1  0
 18 12  1  0
 19 18  2  0
  1 20  1  1
  2 21  1  6
  3 22  1  0
  3 23  1  0
  4 24  1  0
  4 25  1  0
  5 26  1  0
  5 27  1  0
  7 28  1  0
  8 29  1  0
 10 30  1  0
 13 31  1  0
 14 32  1  0
 17 33  1  0
M  ISO  8  20  13  21  13  22  13  23  13  24  13  25  13  26  13  27  13
M  ISO  6  28  14  29  14  30  14  31  14  32  14  33   9
M  END
>  <minimizedAffinity>  (1) 
-5.15055513

>  <minimizedRMSD>  (1) 
1.11559653

$$$$
