
     RDKit          3D

 38 41  0  0  0  0  0  0  0  0999 V2000
   40.3490   22.3670   37.0840 C   0  0  0  0  0  0  0  0  0  0  0  0
   39.6970   23.3890   36.3680 C   0  0  0  0  0  0  0  0  0  0  0  0
   40.5230   24.2620   35.6580 C   0  0  0  0  0  0  0  0  0  0  0  0
   41.8330   24.0420   35.7310 N   0  0  0  0  0  0  0  0  0  0  0  0
   42.4600   23.0700   36.4120 C   0  0  0  0  0  0  0  0  0  0  0  0
   41.6660   22.2310   37.0940 N   0  0  0  0  0  0  0  0  0  0  0  0
   43.8990   23.1240   36.2710 C   0  0  0  0  0  0  0  0  0  0  0  0
   44.5710   22.2440   35.4560 C   0  0  0  0  0  0  0  0  0  0  0  0
   45.9470   22.2380   35.2730 C   0  0  0  0  0  0  0  0  0  0  0  0
   46.7270   23.1660   35.9410 C   0  0  0  0  0  0  0  0  0  0  0  0
   46.1030   24.0520   36.7560 C   0  0  0  0  0  0  0  0  0  0  0  0
   46.8850   24.9740   37.4190 C   0  0  0  0  0  0  0  0  0  0  0  0
   46.3330   25.9070   38.2620 C   0  0  0  0  0  0  0  0  0  0  0  0
   44.9490   25.8750   38.4130 C   0  0  0  0  0  0  0  0  0  0  0  0
   44.2040   24.9400   37.7350 C   0  0  0  0  0  0  0  0  0  0  0  0
   44.7310   24.0110   36.8980 C   0  0  0  0  0  0  0  0  0  0  0  0
   39.9770   25.3440   34.8890 N   0  0  0  0  0  0  0  0  0  0  0  0
   38.6980   25.3590   34.5340 C   0  0  0  0  0  0  0  0  0  0  0  0
   38.5330   26.5170   33.8250 C   0  0  0  0  0  0  0  0  0  0  0  0
   39.7060   27.1770   33.7640 N   0  0  0  0  0  0  0  0  0  0  0  0
   40.6200   26.4380   34.4370 C   0  0  0  0  0  0  0  0  0  0  0  0
   42.0010   26.7560   34.6280 N   0  0  0  0  0  0  0  0  0  0  0  0
   37.3010   27.0570   33.1800 C   0  0  0  0  0  0  0  0  0  0  0  0
   36.4810   26.0750   32.6790 F   0  0  0  0  0  0  0  0  0  0  0  0
   37.6260   27.8960   32.1180 F   0  0  0  0  0  0  0  0  0  0  0  0
   36.6260   27.8840   34.0930 F   0  0  0  0  0  0  0  0  0  0  0  0
   39.7400   21.6531   37.6580 H   0  0  0  0  0  0  0  0  0  0  0  0
   38.6020   23.4933   36.3681 H   0  0  0  0  0  0  0  0  0  0  0  0
   43.9781   21.4939   34.9121 H   0  0  0  0  0  0  0  0  0  0  0  0
   46.4138   21.5015   34.6024 H   0  0  0  0  0  0  0  0  0  0  0  0
   47.8196   23.1842   35.8146 H   0  0  0  0  0  0  0  0  0  0  0  0
   47.9747   24.9619   37.2694 H   0  0  0  0  0  0  0  0  0  0  0  0
   46.9540   26.6440   38.7923 H   0  0  0  0  0  0  0  0  0  0  0  0
   44.4516   26.5987   39.0755 H   0  0  0  0  0  0  0  0  0  0  0  0
   43.1136   24.9451   37.8797 H   0  0  0  0  0  0  0  0  0  0  0  0
   37.9336   24.6014   34.7616 H   0  0  0  0  0  0  0  0  0  0  0  0
   42.6079   26.1165   35.1605 H   0  0  0  0  0  0  0  0  0  0  0  0
   42.3889   27.6246   34.2330 H   0  0  0  0  0  0  0  0  0  0  0  0
  1  6  2  0
  2  1  1  0
  3  4  1  0
  3  2  2  0
  4  5  2  0
  5  6  1  0
  7  5  1  0
  7 16  1  0
  8  7  2  0
  9  8  1  0
  9 10  2  0
 10 11  1  0
 11 16  2  0
 11 12  1  0
 12 13  2  0
 13 14  1  0
 15 14  2  0
 16 15  1  0
 17  3  1  0
 18 17  1  0
 19 18  2  0
 20 19  1  0
 20 21  2  0
 21 22  1  0
 21 17  1  0
 23 19  1  0
 23 26  1  0
 24 23  1  0
 25 23  1  0
  1 27  1  0
  2 28  1  0
  8 29  1  0
  9 30  1  0
 10 31  1  0
 12 32  1  0
 13 33  1  0
 14 34  1  0
 15 35  1  0
 18 36  1  0
 22 37  1  0
 22 38  1  0
M  ISO  8  27  14  28  14  29  14  30  14  31  14  32  14  33  14  34  14
M  ISO  2  35  14  36  14
M  END
>  <minimizedAffinity>  (1) 
-6.18007565

>  <minimizedRMSD>  (1) 
0.0432918966

$$$$
