
     RDKit          3D

 39 41  0  0  1  0  0  0  0  0999 V2000
   41.4660   22.3990   37.2220 C   0  0  2  0  0  0  0  0  0  0  0  0
   42.0070   22.5790   35.8300 C   0  0  2  0  0  0  0  0  0  0  0  0
   42.3330   21.1600   35.4330 C   0  0  0  0  0  0  0  0  0  0  0  0
   42.8560   20.5830   36.7160 C   0  0  0  0  0  0  0  0  0  0  0  0
   41.7830   21.0300   37.6870 C   0  0  0  0  0  0  0  0  0  0  0  0
   39.9940   22.6500   37.1970 C   0  0  0  0  0  0  0  0  0  0  0  0
   39.3150   23.2370   38.2930 C   0  0  0  0  0  0  0  0  0  0  0  0
   37.9240   23.4180   38.1580 C   0  0  0  0  0  0  0  0  0  0  0  0
   37.3160   23.0320   37.0130 N   0  0  0  0  0  0  0  0  0  0  0  0
   37.9990   22.4750   35.9900 C   0  0  0  0  0  0  0  0  0  0  0  0
   39.3220   22.2870   36.0810 N   0  0  0  0  0  0  0  0  0  0  0  0
   43.2990   23.3140   35.7170 C   0  0  0  0  0  0  0  0  0  0  0  0
   43.6630   24.1240   36.9290 C   0  0  0  0  0  0  0  0  0  0  0  0
   44.9480   24.8780   36.5910 C   0  0  0  0  0  0  0  0  0  0  0  0
   44.8130   25.7270   35.3690 C   0  0  0  0  0  0  0  0  0  0  0  0
   43.4030   25.6320   34.8810 C   0  0  0  0  0  0  0  0  0  0  0  0
   43.1670   24.1890   34.4750 C   0  0  0  0  0  0  0  0  0  0  0  0
   41.9260   23.1107   37.9234 H   0  0  0  0  0  0  0  0  0  0  0  0
   41.2773   23.1511   35.2381 H   0  0  0  0  0  0  0  0  0  0  0  0
   41.4344   20.6249   35.0923 H   0  0  0  0  0  0  0  0  0  0  0  0
   43.0424   21.0881   34.5954 H   0  0  0  0  0  0  0  0  0  0  0  0
   42.9266   19.4863   36.6675 H   0  0  0  0  0  0  0  0  0  0  0  0
   43.8731   20.9082   36.9802 H   0  0  0  0  0  0  0  0  0  0  0  0
   42.1629   21.0407   38.7193 H   0  0  0  0  0  0  0  0  0  0  0  0
   40.9080   20.3636   37.7046 H   0  0  0  0  0  0  0  0  0  0  0  0
   39.8486   23.5375   39.2068 H   0  0  0  0  0  0  0  0  0  0  0  0
   37.3396   23.8679   38.9741 H   0  0  0  0  0  0  0  0  0  0  0  0
   37.4656   22.1738   35.0763 H   0  0  0  0  0  0  0  0  0  0  0  0
   44.1260   22.5930   35.6379 H   0  0  0  0  0  0  0  0  0  0  0  0
   42.8578   24.8356   37.1639 H   0  0  0  0  0  0  0  0  0  0  0  0
   43.8065   23.4761   37.8063 H   0  0  0  0  0  0  0  0  0  0  0  0
   45.2110   25.5243   37.4414 H   0  0  0  0  0  0  0  0  0  0  0  0
   45.7298   24.1302   36.3918 H   0  0  0  0  0  0  0  0  0  0  0  0
   45.0513   26.7724   35.6149 H   0  0  0  0  0  0  0  0  0  0  0  0
   45.5067   25.3796   34.5892 H   0  0  0  0  0  0  0  0  0  0  0  0
   42.7062   25.9170   35.6831 H   0  0  0  0  0  0  0  0  0  0  0  0
   43.2367   26.3099   34.0308 H   0  0  0  0  0  0  0  0  0  0  0  0
   42.1578   24.0824   34.0505 H   0  0  0  0  0  0  0  0  0  0  0  0
   43.9029   23.8837   33.7165 H   0  0  0  0  0  0  0  0  0  0  0  0
  1  5  1  0
  2  1  1  0
  3  2  1  0
  3  4  1  0
  4  5  1  0
  6  1  1  0
  6  7  2  0
  8  7  1  0
  9  8  2  0
 10 11  2  0
 10  9  1  0
 11  6  1  0
 12  2  1  0
 12 13  1  0
 14 13  1  0
 15 14  1  0
 16 15  1  0
 17 16  1  0
 17 12  1  0
  1 18  1  1
  2 19  1  6
  3 20  1  0
  3 21  1  0
  4 22  1  0
  4 23  1  0
  5 24  1  0
  5 25  1  0
  7 26  1  0
  8 27  1  0
 10 28  1  0
 12 29  1  0
 13 30  1  0
 13 31  1  0
 14 32  1  0
 14 33  1  0
 15 34  1  0
 15 35  1  0
 16 36  1  0
 16 37  1  0
 17 38  1  0
 17 39  1  0
M  ISO  8  18  13  19  13  20  13  21  13  22  13  23  13  24  13  25  13
M  ISO  8  26  14  27  14  28  14  29  13  30  13  31  13  32  13  33  13
M  ISO  6  34  13  35  13  36  13  37  13  38  13  39  13
M  END
>  <minimizedAffinity>  (1) 
-4.73397541

>  <minimizedRMSD>  (1) 
1.2646209

$$$$
