
     RDKit          3D

 30 32  0  0  1  0  0  0  0  0999 V2000
   41.4380   22.5870   37.2090 C   0  0  2  0  0  0  0  0  0  0  0  0
   41.9520   22.9850   35.8550 C   0  0  2  0  0  0  0  0  0  0  0  0
   42.3710   21.6720   35.2420 C   0  0  0  0  0  0  0  0  0  0  0  0
   42.8830   20.9040   36.4230 C   0  0  0  0  0  0  0  0  0  0  0  0
   41.8000   21.1660   37.4470 C   0  0  0  0  0  0  0  0  0  0  0  0
   39.9460   22.7680   37.2100 C   0  0  0  0  0  0  0  0  0  0  0  0
   39.2780   23.2920   38.3470 C   0  0  0  0  0  0  0  0  0  0  0  0
   37.8770   23.4250   38.2570 C   0  0  0  0  0  0  0  0  0  0  0  0
   37.2590   23.0530   37.1140 N   0  0  0  0  0  0  0  0  0  0  0  0
   37.9370   22.5580   36.0560 C   0  0  0  0  0  0  0  0  0  0  0  0
   39.2680   22.4170   36.1040 N   0  0  0  0  0  0  0  0  0  0  0  0
   42.9700   23.9710   35.9260 C   0  0  0  0  0  0  0  0  0  0  0  0
   43.9480   24.2310   36.9780 C   0  0  0  0  0  0  0  0  0  0  0  0
   44.8260   25.2600   36.7890 C   0  0  0  0  0  0  0  0  0  0  0  0
   44.7350   26.0200   35.5690 C   0  0  0  0  0  0  0  0  0  0  0  0
   43.2930   25.1540   34.7080 S   0  0  0  0  0  0  0  0  0  0  0  0
   41.8768   23.2030   38.0078 H   0  0  0  0  0  0  0  0  0  0  0  0
   41.2022   23.4909   35.2290 H   0  0  0  0  0  0  0  0  0  0  0  0
   41.5153   21.1605   34.7772 H   0  0  0  0  0  0  0  0  0  0  0  0
   43.1143   21.7833   34.4388 H   0  0  0  0  0  0  0  0  0  0  0  0
   42.9710   19.8311   36.1969 H   0  0  0  0  0  0  0  0  0  0  0  0
   43.8901   21.2027   36.7494 H   0  0  0  0  0  0  0  0  0  0  0  0
   42.1814   21.0227   38.4688 H   0  0  0  0  0  0  0  0  0  0  0  0
   40.9434   20.4826   37.3507 H   0  0  0  0  0  0  0  0  0  0  0  0
   39.8269   23.5807   39.2555 H   0  0  0  0  0  0  0  0  0  0  0  0
   37.2973   23.8245   39.1022 H   0  0  0  0  0  0  0  0  0  0  0  0
   37.3909   22.2679   35.1463 H   0  0  0  0  0  0  0  0  0  0  0  0
   43.9769   23.6191   37.8917 H   0  0  0  0  0  0  0  0  0  0  0  0
   45.5833   25.5021   37.5492 H   0  0  0  0  0  0  0  0  0  0  0  0
   45.3408   26.8734   35.2302 H   0  0  0  0  0  0  0  0  0  0  0  0
  1  6  1  0
  1  5  1  0
  2 12  1  0
  2  1  1  0
  3  2  1  0
  3  4  1  0
  4  5  1  0
  6  7  2  0
  8  7  1  0
  9  8  2  0
 10 11  2  0
 10  9  1  0
 11  6  1  0
 12 13  2  0
 14 13  1  0
 15 14  2  0
 16 15  1  0
 16 12  1  0
  1 17  1  1
  2 18  1  6
  3 19  1  0
  3 20  1  0
  4 21  1  0
  4 22  1  0
  5 23  1  0
  5 24  1  0
  7 25  1  0
  8 26  1  0
 10 27  1  0
 13 28  1  0
 14 29  1  0
 15 30  1  0
M  ISO  8  17  13  18  13  19  13  20  13  21  13  22  13  23  13  24  13
M  ISO  6  25  14  26  14  27  14  28  14  29  14  30  14
M  END
>  <minimizedAffinity>  (1) 
-4.65256643

>  <minimizedRMSD>  (1) 
0.904207647

$$$$
