
     RDKit          3D

 33 35  0  0  1  0  0  0  0  0999 V2000
   40.8240   23.9140   35.7300 C   0  0  2  0  0  0  0  0  0  0  0  0
   40.7180   25.0760   34.7700 C   0  0  1  0  0  0  0  0  0  0  0  0
   41.0860   24.4910   33.4570 C   0  0  0  0  0  0  0  0  0  0  0  0
   42.2060   23.5520   33.8570 C   0  0  0  0  0  0  0  0  0  0  0  0
   41.5810   22.8410   35.0530 C   0  0  0  0  0  0  0  0  0  0  0  0
   39.4850   23.4830   36.1640 C   0  0  0  0  0  0  0  0  0  0  0  0
   38.8880   23.9620   37.3500 C   0  0  0  0  0  0  0  0  0  0  0  0
   37.6160   23.4920   37.6770 C   0  0  0  0  0  0  0  0  0  0  0  0
   37.0190   22.5930   36.8300 N   0  0  0  0  0  0  0  0  0  0  0  0
   37.6220   22.1550   35.7000 C   0  0  0  0  0  0  0  0  0  0  0  0
   38.8340   22.6120   35.4000 N   0  0  0  0  0  0  0  0  0  0  0  0
   39.5130   25.8820   34.8420 C   0  0  0  0  0  0  0  0  0  0  0  0
   38.5360   25.5540   33.8940 C   0  0  0  0  0  0  0  0  0  0  0  0
   37.3020   26.2080   33.8130 C   0  0  0  0  0  0  0  0  0  0  0  0
   37.0160   27.2150   34.6910 C   0  0  0  0  0  0  0  0  0  0  0  0
   37.9510   27.5630   35.6340 C   0  0  0  0  0  0  0  0  0  0  0  0
   39.1620   26.9050   35.6960 C   0  0  0  0  0  0  0  0  0  0  0  0
   41.3603   24.2009   36.6466 H   0  0  0  0  0  0  0  0  0  0  0  0
   41.4051   25.8920   35.0383 H   0  0  0  0  0  0  0  0  0  0  0  0
   41.4377   25.2625   32.7562 H   0  0  0  0  0  0  0  0  0  0  0  0
   40.2528   24.0019   32.9311 H   0  0  0  0  0  0  0  0  0  0  0  0
   42.4482   22.8457   33.0492 H   0  0  0  0  0  0  0  0  0  0  0  0
   43.1599   24.0537   34.0770 H   0  0  0  0  0  0  0  0  0  0  0  0
   40.9107   22.0329   34.7247 H   0  0  0  0  0  0  0  0  0  0  0  0
   42.3256   22.3622   35.7059 H   0  0  0  0  0  0  0  0  0  0  0  0
   39.4095   24.6834   37.9962 H   0  0  0  0  0  0  0  0  0  0  0  0
   37.1053   23.8331   38.5896 H   0  0  0  0  0  0  0  0  0  0  0  0
   37.1177   21.4330   35.0409 H   0  0  0  0  0  0  0  0  0  0  0  0
   38.7486   24.7447   33.1800 H   0  0  0  0  0  0  0  0  0  0  0  0
   36.5678   25.9139   33.0485 H   0  0  0  0  0  0  0  0  0  0  0  0
   36.0503   27.7394   34.6430 H   0  0  0  0  0  0  0  0  0  0  0  0
   37.7329   28.3728   36.3458 H   0  0  0  0  0  0  0  0  0  0  0  0
   39.8843   27.2127   36.4665 H   0  0  0  0  0  0  0  0  0  0  0  0
  1  6  1  0
  2 12  1  0
  2  1  1  0
  3  4  1  0
  3  2  1  0
  4  5  1  0
  5  1  1  0
  6  7  2  0
  7  8  1  0
  9  8  2  0
 10  9  1  0
 11 10  2  0
 11  6  1  0
 12 17  1  0
 13 12  2  0
 14 13  1  0
 14 15  2  0
 15 16  1  0
 16 17  2  0
  1 18  1  1
  2 19  1  1
  3 20  1  0
  3 21  1  0
  4 22  1  0
  4 23  1  0
  5 24  1  0
  5 25  1  0
  7 26  1  0
  8 27  1  0
 10 28  1  0
 13 29  1  0
 14 30  1  0
 15 31  1  0
 16 32  1  0
 17 33  1  0
M  ISO  8  18  13  19  13  20  13  21  13  22  13  23  13  24  13  25  13
M  ISO  8  26  14  27  14  28  14  29  14  30  14  31  14  32  14  33  14
M  END
>  <minimizedAffinity>  (1) 
-4.46650314

>  <minimizedRMSD>  (1) 
2.44082546

$$$$
