
     RDKit          3D

 29 31  0  0  1  0  0  0  0  0999 V2000
   41.4870   22.5180   37.2690 C   0  0  2  0  0  0  0  0  0  0  0  0
   42.0490   22.9900   35.9570 C   0  0  2  0  0  0  0  0  0  0  0  0
   42.5060   21.7290   35.3060 C   0  0  0  0  0  0  0  0  0  0  0  0
   42.9900   20.9160   36.4690 C   0  0  0  0  0  0  0  0  0  0  0  0
   41.8400   21.0890   37.4540 C   0  0  0  0  0  0  0  0  0  0  0  0
   40.0050   22.7100   37.2260 C   0  0  0  0  0  0  0  0  0  0  0  0
   39.2840   23.2760   38.3080 C   0  0  0  0  0  0  0  0  0  0  0  0
   37.9000   23.4140   38.1730 C   0  0  0  0  0  0  0  0  0  0  0  0
   37.3160   22.9960   37.0080 N   0  0  0  0  0  0  0  0  0  0  0  0
   38.0310   22.4640   36.0020 C   0  0  0  0  0  0  0  0  0  0  0  0
   39.3540   22.3270   36.1190 N   0  0  0  0  0  0  0  0  0  0  0  0
   43.1700   23.9820   36.1500 C   0  0  0  0  0  0  0  0  0  0  0  0
   43.4350   24.7310   35.0410 C   0  0  0  0  0  0  0  0  0  0  0  0
   44.8220   25.8500   35.5260 S   0  0  0  0  0  0  0  0  0  0  0  0
   44.7950   25.0490   37.2680 C   0  0  0  0  0  0  0  0  0  0  0  0
   43.9640   24.3090   37.1360 N   0  0  0  0  0  0  0  0  0  0  0  0
   41.9006   23.0856   38.1156 H   0  0  0  0  0  0  0  0  0  0  0  0
   41.3158   23.5355   35.3448 H   0  0  0  0  0  0  0  0  0  0  0  0
   41.6759   21.2262   34.7883 H   0  0  0  0  0  0  0  0  0  0  0  0
   43.2738   21.8887   34.5347 H   0  0  0  0  0  0  0  0  0  0  0  0
   43.1280   19.8603   36.1926 H   0  0  0  0  0  0  0  0  0  0  0  0
   43.9692   21.2287   36.8606 H   0  0  0  0  0  0  0  0  0  0  0  0
   42.1639   20.8878   38.4858 H   0  0  0  0  0  0  0  0  0  0  0  0
   41.0008   20.3991   37.2813 H   0  0  0  0  0  0  0  0  0  0  0  0
   39.7986   23.5967   39.2258 H   0  0  0  0  0  0  0  0  0  0  0  0
   37.2951   23.8478   38.9829 H   0  0  0  0  0  0  0  0  0  0  0  0
   37.5252   22.1407   35.0802 H   0  0  0  0  0  0  0  0  0  0  0  0
   42.9299   24.6794   34.0652 H   0  0  0  0  0  0  0  0  0  0  0  0
   45.4196   25.2574   38.1491 H   0  0  0  0  0  0  0  0  0  0  0  0
  1  5  1  0
  2 12  1  0
  2  1  1  0
  3  2  1  0
  3  4  1  0
  4  5  1  0
  6  1  1  0
  6  7  2  0
  8  7  1  0
  9  8  2  0
 10 11  2  0
 10  9  1  0
 11  6  1  0
 12 16  1  0
 13 14  1  0
 13 12  2  0
 14 15  1  0
 16 15  2  0
  1 17  1  1
  2 18  1  6
  3 19  1  0
  3 20  1  0
  4 21  1  0
  4 22  1  0
  5 23  1  0
  5 24  1  0
  7 25  1  0
  8 26  1  0
 10 27  1  0
 13 28  1  0
 15 29  1  0
M  ISO  8  17  13  18  13  19  13  20  13  21  13  22  13  23  13  24  13
M  ISO  5  25  14  26  14  27  14  28  14  29  14
M  END
>  <minimizedAffinity>  (1) 
-4.51435614

>  <minimizedRMSD>  (1) 
0.782308221

$$$$
