
     RDKit          3D

 48 51  0  0  0  0  0  0  0  0999 V2000
   37.8500   25.0710   32.5010 C   0  0  0  0  0  0  0  0  0  0  0  0
   37.0040   26.0740   32.0710 C   0  0  0  0  0  0  0  0  0  0  0  0
   35.8290   25.6530   31.5060 C   0  0  0  0  0  0  0  0  0  0  0  0
   35.5150   24.3380   31.3770 N   0  0  0  0  0  0  0  0  0  0  0  0
   36.3560   23.3990   31.8020 C   0  0  0  0  0  0  0  0  0  0  0  0
   37.5450   23.7790   32.3740 N   0  0  0  0  0  0  0  0  0  0  0  0
   36.0320   21.9920   31.6680 C   0  0  0  0  0  0  0  0  0  0  0  0
   35.0140   21.4360   32.4320 C   0  0  0  0  0  0  0  0  0  0  0  0
   34.8120   20.0990   32.2060 C   0  0  0  0  0  0  0  0  0  0  0  0
   35.5280   19.3620   31.3240 N   0  0  0  0  0  0  0  0  0  0  0  0
   36.5130   19.9740   30.6070 C   0  0  0  0  0  0  0  0  0  0  0  0
   36.7380   21.2670   30.7980 N   0  0  0  0  0  0  0  0  0  0  0  0
   37.2670   19.1830   29.6740 N   0  0  0  0  0  0  0  0  0  0  0  0
   38.6260   18.8260   30.0890 C   0  0  0  0  0  0  0  0  0  0  0  0
   39.3480   18.0460   29.0360 C   0  0  0  0  0  0  0  0  0  0  0  0
   38.8900   18.5210   27.6500 C   0  0  0  0  0  0  0  0  0  0  0  0
   37.4720   18.0470   27.5070 C   0  0  0  0  0  0  0  0  0  0  0  0
   36.5950   18.8280   28.4310 C   0  0  0  0  0  0  0  0  0  0  0  0
   41.0450   24.8950   34.2800 C   0  0  0  0  0  0  0  0  0  0  0  0
   41.5290   26.2240   34.2580 C   0  0  0  0  0  0  0  0  0  0  0  0
   40.7100   27.1270   33.6190 C   0  0  0  0  0  0  0  0  0  0  0  0
   39.5440   26.7330   33.0680 N   0  0  0  0  0  0  0  0  0  0  0  0
   39.1130   25.4480   33.1090 C   0  0  0  0  0  0  0  0  0  0  0  0
   39.8980   24.5460   33.7300 N   0  0  0  0  0  0  0  0  0  0  0  0
   42.7590   26.5990   34.8480 N   0  0  0  0  0  0  0  0  0  0  0  0
   43.9320   26.9500   34.1370 C   0  0  0  0  0  0  0  0  0  0  0  0
   44.1740   26.2470   33.0510 N   0  0  0  0  0  0  0  0  0  0  0  0
   44.6960   28.0420   34.7190 N   0  0  0  0  0  0  0  0  0  0  0  0
   44.9980   26.4420   32.4800 H   0  0  0  0  0  0  0  0  0  0  0  0
   37.2565   27.1396   32.1751 H   0  0  0  0  0  0  0  0  0  0  0  0
   35.1145   26.4069   31.1440 H   0  0  0  0  0  0  0  0  0  0  0  0
   34.4222   22.0171   33.1545 H   0  0  0  0  0  0  0  0  0  0  0  0
   34.0190   19.5935   32.7766 H   0  0  0  0  0  0  0  0  0  0  0  0
   39.1881   19.7488   30.2952 H   0  0  0  0  0  0  0  0  0  0  0  0
   38.5519   18.1955   30.9873 H   0  0  0  0  0  0  0  0  0  0  0  0
   40.4316   18.2045   29.1393 H   0  0  0  0  0  0  0  0  0  0  0  0
   39.1238   16.9753   29.1515 H   0  0  0  0  0  0  0  0  0  0  0  0
   38.9361   19.6182   27.5858 H   0  0  0  0  0  0  0  0  0  0  0  0
   39.5337   18.1240   26.8512 H   0  0  0  0  0  0  0  0  0  0  0  0
   37.1376   18.1957   26.4696 H   0  0  0  0  0  0  0  0  0  0  0  0
   37.4135   16.9779   27.7590 H   0  0  0  0  0  0  0  0  0  0  0  0
   36.2824   19.7522   27.9230 H   0  0  0  0  0  0  0  0  0  0  0  0
   35.7329   18.1947   28.6872 H   0  0  0  0  0  0  0  0  0  0  0  0
   41.6496   24.1213   34.7758 H   0  0  0  0  0  0  0  0  0  0  0  0
   41.0104   28.1834   33.5570 H   0  0  0  0  0  0  0  0  0  0  0  0
   42.8048   26.6182   35.8768 H   0  0  0  0  0  0  0  0  0  0  0  0
   45.5639   28.3621   34.2660 H   0  0  0  0  0  0  0  0  0  0  0  0
   44.3692   28.4954   35.5842 H   0  0  0  0  0  0  0  0  0  0  0  0
  1 23  1  0
  2  1  2  0
  3  2  1  0
  4  3  2  0
  4  5  1  0
  5  6  2  0
  6  1  1  0
  7  5  1  0
  7  8  2  0
  9  8  1  0
 10  9  2  0
 11 12  2  0
 11 10  1  0
 12  7  1  0
 13 14  1  0
 13 11  1  0
 15 14  1  0
 16 15  1  0
 17 16  1  0
 17 18  1  0
 18 13  1  0
 20 19  2  0
 20 25  1  0
 21 20  1  0
 22 23  1  0
 22 21  2  0
 23 24  2  0
 24 19  1  0
 26 28  1  0
 26 25  1  0
 27 26  2  0
 29 27  1  0
  2 30  1  0
  3 31  1  0
  8 32  1  0
  9 33  1  0
 14 34  1  0
 14 35  1  0
 15 36  1  0
 15 37  1  0
 16 38  1  0
 16 39  1  0
 17 40  1  0
 17 41  1  0
 18 42  1  0
 18 43  1  0
 19 44  1  0
 21 45  1  0
 25 46  1  0
 28 47  1  0
 28 48  1  0
M  ISO  8  30  14  31  14  32  14  33  14  34  13  35  13  36  13  37  13
M  ISO  8  38  13  39  13  40  13  41  13  42  13  43  13  44  14  45  14
M  END
>  <minimizedAffinity>  (1) 
-5.89887619

>  <minimizedRMSD>  (1) 
1.00182998

$$$$
