
     RDKit          3D

 25 26  0  0  1  0  0  0  0  0999 V2000
   41.4380   22.5600   37.2080 C   0  0  2  0  0  0  0  0  0  0  0  0
   41.9400   22.9380   35.8320 C   0  0  2  0  0  0  0  0  0  0  0  0
   42.3600   21.6230   35.2520 C   0  0  0  0  0  0  0  0  0  0  0  0
   42.8980   20.8790   36.4500 C   0  0  0  0  0  0  0  0  0  0  0  0
   41.8070   21.1400   37.4760 C   0  0  0  0  0  0  0  0  0  0  0  0
   39.9590   22.7490   37.2220 C   0  0  0  0  0  0  0  0  0  0  0  0
   39.2820   23.2820   38.3420 C   0  0  0  0  0  0  0  0  0  0  0  0
   37.8990   23.4290   38.2770 C   0  0  0  0  0  0  0  0  0  0  0  0
   37.2680   23.0500   37.1350 N   0  0  0  0  0  0  0  0  0  0  0  0
   37.9400   22.5410   36.0760 C   0  0  0  0  0  0  0  0  0  0  0  0
   39.2680   22.3920   36.1170 N   0  0  0  0  0  0  0  0  0  0  0  0
   42.9810   23.9730   35.8480 C   0  0  0  0  0  0  0  0  0  0  0  0
   43.5460   24.1300   36.9150 O   0  0  0  0  0  0  0  0  0  0  0  0
   41.8873   23.1866   37.9926 H   0  0  0  0  0  0  0  0  0  0  0  0
   41.1756   23.4297   35.2124 H   0  0  0  0  0  0  0  0  0  0  0  0
   41.5026   21.0939   34.8105 H   0  0  0  0  0  0  0  0  0  0  0  0
   43.0938   21.7229   34.4387 H   0  0  0  0  0  0  0  0  0  0  0  0
   43.0062   19.8044   36.2416 H   0  0  0  0  0  0  0  0  0  0  0  0
   43.9012   21.2001   36.7670 H   0  0  0  0  0  0  0  0  0  0  0  0
   42.1879   21.0157   38.5004 H   0  0  0  0  0  0  0  0  0  0  0  0
   40.9576   20.4457   37.3962 H   0  0  0  0  0  0  0  0  0  0  0  0
   39.8360   23.5746   39.2462 H   0  0  0  0  0  0  0  0  0  0  0  0
   37.3333   23.8403   39.1260 H   0  0  0  0  0  0  0  0  0  0  0  0
   37.3873   22.2467   35.1716 H   0  0  0  0  0  0  0  0  0  0  0  0
   43.2334   24.5662   34.9567 H   0  0  0  0  0  0  0  0  0  0  0  0
  1  6  1  0
  1  5  1  0
  2 12  1  0
  2  1  1  0
  3  2  1  0
  3  4  1  0
  4  5  1  0
  6  7  2  0
  8  7  1  0
  9  8  2  0
 10 11  2  0
 10  9  1  0
 11  6  1  0
 12 13  2  0
  1 14  1  1
  2 15  1  6
  3 16  1  0
  3 17  1  0
  4 18  1  0
  4 19  1  0
  5 20  1  0
  5 21  1  0
  7 22  1  0
  8 23  1  0
 10 24  1  0
 12 25  1  0
M  ISO  8  14  13  15  13  16  13  17  13  18  13  19  13  20  13  21  13
M  ISO  4  22  14  23  14  24  14  25   6
M  END
>  <minimizedAffinity>  (1) 
-3.85122514

>  <minimizedRMSD>  (1) 
0.542390943

$$$$
