
     RDKit          3D

 29 31  0  0  1  0  0  0  0  0999 V2000
   41.2160   22.6950   37.1270 C   0  0  2  0  0  0  0  0  0  0  0  0
   41.7960   23.3240   35.8750 C   0  0  1  0  0  0  0  0  0  0  0  0
   42.4020   22.1670   35.1540 C   0  0  0  0  0  0  0  0  0  0  0  0
   42.9140   21.3020   36.2830 C   0  0  0  0  0  0  0  0  0  0  0  0
   41.7260   21.3120   37.2290 C   0  0  0  0  0  0  0  0  0  0  0  0
   39.7220   22.7170   36.9900 C   0  0  0  0  0  0  0  0  0  0  0  0
   38.9200   23.4960   37.8740 C   0  0  0  0  0  0  0  0  0  0  0  0
   37.5390   23.4780   37.6980 C   0  0  0  0  0  0  0  0  0  0  0  0
   37.0390   22.7210   36.6970 N   0  0  0  0  0  0  0  0  0  0  0  0
   37.8290   21.9820   35.8630 C   0  0  0  0  0  0  0  0  0  0  0  0
   39.1530   21.9860   36.0140 N   0  0  0  0  0  0  0  0  0  0  0  0
   40.8360   24.0640   35.1080 N   0  0  0  0  0  0  0  0  0  0  0  0
   40.4190   23.7030   33.8740 C   0  0  0  0  0  0  0  0  0  0  0  0
   39.5200   24.6290   33.4630 N   0  0  0  0  0  0  0  0  0  0  0  0
   39.4030   25.5470   34.4640 C   0  0  0  0  0  0  0  0  0  0  0  0
   40.2280   25.1820   35.4760 N   0  0  0  0  0  0  0  0  0  0  0  0
   41.5041   23.2395   38.0383 H   0  0  0  0  0  0  0  0  0  0  0  0
   42.5410   24.1023   36.0970 H   0  0  0  0  0  0  0  0  0  0  0  0
   41.6483   21.6335   34.5562 H   0  0  0  0  0  0  0  0  0  0  0  0
   43.1852   22.4601   34.4394 H   0  0  0  0  0  0  0  0  0  0  0  0
   43.1446   20.2836   35.9371 H   0  0  0  0  0  0  0  0  0  0  0  0
   43.8516   21.6590   36.7340 H   0  0  0  0  0  0  0  0  0  0  0  0
   42.0408   21.0838   38.2580 H   0  0  0  0  0  0  0  0  0  0  0  0
   40.9687   20.5560   36.9740 H   0  0  0  0  0  0  0  0  0  0  0  0
   39.3797   24.0953   38.6737 H   0  0  0  0  0  0  0  0  0  0  0  0
   36.8759   24.0618   38.3534 H   0  0  0  0  0  0  0  0  0  0  0  0
   37.3705   21.3813   35.0637 H   0  0  0  0  0  0  0  0  0  0  0  0
   40.7490   22.8196   33.3077 H   0  0  0  0  0  0  0  0  0  0  0  0
   38.7506   26.4326   34.4526 H   0  0  0  0  0  0  0  0  0  0  0  0
  1  5  1  0
  2  1  1  0
  3  2  1  0
  3  4  1  0
  4  5  1  0
  6  1  1  0
  6  7  2  0
  8  7  1  0
  9  8  2  0
 10 11  2  0
 10  9  1  0
 11  6  1  0
 12 16  1  0
 12  2  1  0
 13 12  1  0
 14 13  2  0
 14 15  1  0
 15 16  2  0
  1 17  1  1
  2 18  1  1
  3 19  1  0
  3 20  1  0
  4 21  1  0
  4 22  1  0
  5 23  1  0
  5 24  1  0
  7 25  1  0
  8 26  1  0
 10 27  1  0
 13 28  1  0
 15 29  1  0
M  ISO  8  17  13  18  13  19  13  20  13  21  13  22  13  23  13  24  13
M  ISO  5  25  14  26  14  27  14  28  14  29  14
M  END
>  <minimizedAffinity>  (1) 
-3.79604077

>  <minimizedRMSD>  (1) 
0.655011117

$$$$
