
     RDKit          3D

 49 52  0  0  1  0  0  0  0  0999 V2000
   42.9220   23.1500   34.9250 N   0  0  0  0  0  0  0  0  0  0  0  0
   42.4640   24.5530   34.8080 C   0  0  0  0  0  0  0  0  0  0  0  0
   43.5210   25.5640   35.1400 C   0  0  0  0  0  0  0  0  0  0  0  0
   44.1770   25.3320   36.4690 C   0  0  0  0  0  0  0  0  0  0  0  0
   44.2970   23.8240   36.6720 C   0  0  0  0  0  0  0  0  0  0  0  0
   44.1900   23.0880   35.4160 C   0  0  1  0  0  0  0  0  0  0  0  0
   41.5020   22.4200   36.7910 C   0  0  2  0  0  0  0  0  0  0  0  0
   41.8300   22.4250   35.3590 C   0  0  2  0  0  0  0  0  0  0  0  0
   42.1460   20.9840   35.0780 C   0  0  0  0  0  0  0  0  0  0  0  0
   42.7300   20.5040   36.3400 C   0  0  0  0  0  0  0  0  0  0  0  0
   41.9590   21.1740   37.4330 C   0  0  0  0  0  0  0  0  0  0  0  0
   40.0420   22.6480   36.9950 C   0  0  0  0  0  0  0  0  0  0  0  0
   39.5320   23.1570   38.2180 C   0  0  0  0  0  0  0  0  0  0  0  0
   38.1570   23.3800   38.3010 C   0  0  0  0  0  0  0  0  0  0  0  0
   37.4080   23.0940   37.2050 N   0  0  0  0  0  0  0  0  0  0  0  0
   37.9370   22.6040   36.0480 C   0  0  0  0  0  0  0  0  0  0  0  0
   39.2570   22.3830   35.9480 N   0  0  0  0  0  0  0  0  0  0  0  0
   45.1920   22.1360   35.0680 N   0  0  0  0  0  0  0  0  0  0  0  0
   46.0190   21.5860   35.9980 C   0  0  0  0  0  0  0  0  0  0  0  0
   47.0020   20.6680   35.7980 C   0  0  0  0  0  0  0  0  0  0  0  0
   47.2220   20.2150   34.5160 C   0  0  0  0  0  0  0  0  0  0  0  0
   48.2200   19.2590   34.1870 N   0  0  0  0  0  0  0  0  0  0  0  0
   46.4250   20.7420   33.5920 N   0  0  0  0  0  0  0  0  0  0  0  0
   45.4660   21.6480   33.8420 C   0  0  0  0  0  0  0  0  0  0  0  0
   44.8230   22.0220   32.8270 O   0  0  0  0  0  0  0  0  0  0  0  0
   42.1326   24.7246   33.7732 H   0  0  0  0  0  0  0  0  0  0  0  0
   41.6518   24.6870   35.5376 H   0  0  0  0  0  0  0  0  0  0  0  0
   44.2948   25.5275   34.3590 H   0  0  0  0  0  0  0  0  0  0  0  0
   43.0250   26.5445   35.1916 H   0  0  0  0  0  0  0  0  0  0  0  0
   45.1763   25.7917   36.4786 H   0  0  0  0  0  0  0  0  0  0  0  0
   43.5807   25.7825   37.2762 H   0  0  0  0  0  0  0  0  0  0  0  0
   45.2733   23.6047   37.1289 H   0  0  0  0  0  0  0  0  0  0  0  0
   43.4695   23.5040   37.3223 H   0  0  0  0  0  0  0  0  0  0  0  0
   44.7211   23.4923   34.5416 H   0  0  0  0  0  0  0  0  0  0  0  0
   42.0383   23.2493   37.2755 H   0  0  0  0  0  0  0  0  0  0  0  0
   40.9830   22.9016   34.8438 H   0  0  0  0  0  0  0  0  0  0  0  0
   41.2329   20.4231   34.8297 H   0  0  0  0  0  0  0  0  0  0  0  0
   42.8208   20.8546   34.2190 H   0  0  0  0  0  0  0  0  0  0  0  0
   42.6297   19.4112   36.4162 H   0  0  0  0  0  0  0  0  0  0  0  0
   43.8029   20.7384   36.4020 H   0  0  0  0  0  0  0  0  0  0  0  0
   42.6027   21.3871   38.2992 H   0  0  0  0  0  0  0  0  0  0  0  0
   41.1365   20.5590   37.8270 H   0  0  0  0  0  0  0  0  0  0  0  0
   40.1963   23.3679   39.0690 H   0  0  0  0  0  0  0  0  0  0  0  0
   37.6971   23.7727   39.2198 H   0  0  0  0  0  0  0  0  0  0  0  0
   37.2793   22.3889   35.1929 H   0  0  0  0  0  0  0  0  0  0  0  0
   45.8753   21.9241   37.0348 H   0  0  0  0  0  0  0  0  0  0  0  0
   47.6062   20.2966   36.6388 H   0  0  0  0  0  0  0  0  0  0  0  0
   48.3406   18.9558   33.2101 H   0  0  0  0  0  0  0  0  0  0  0  0
   48.8230   18.8691   34.9254 H   0  0  0  0  0  0  0  0  0  0  0  0
  1  2  1  0
  1  8  1  0
  1  6  1  0
  2  3  1  0
  3  4  1  0
  4  5  1  0
  6  5  1  0
  7 12  1  0
  7 11  1  0
  8  7  1  0
  9  8  1  0
  9 10  1  0
 10 11  1  0
 12 13  2  0
 13 14  1  0
 15 14  2  0
 16 15  1  0
 17 16  2  0
 17 12  1  0
 18  6  1  0
 18 19  1  0
 20 19  2  0
 21 20  1  0
 22 21  1  0
 23 24  1  0
 23 21  2  0
 24 18  1  0
 25 24  2  0
  2 26  1  0
  2 27  1  0
  3 28  1  0
  3 29  1  0
  4 30  1  0
  4 31  1  0
  5 32  1  0
  5 33  1  0
  6 34  1  6
  7 35  1  1
  8 36  1  6
  9 37  1  0
  9 38  1  0
 10 39  1  0
 10 40  1  0
 11 41  1  0
 11 42  1  0
 13 43  1  0
 14 44  1  0
 16 45  1  0
 19 46  1  0
 20 47  1  0
 22 48  1  0
 22 49  1  0
M  ISO  8  26  13  27  13  28  13  29  13  30  13  31  13  32  13  33  13
M  ISO  8  34  13  35  13  36  13  37  13  38  13  39  13  40  13  41  13
M  ISO  6  42  13  43  14  44  14  45  14  46  14  47  14
M  END
>  <minimizedAffinity>  (1) 
-4.60253239

>  <minimizedRMSD>  (1) 
0.640486538

$$$$
