
     RDKit          3D

 51 54  0  0  1  0  0  0  0  0999 V2000
   42.8290   23.2310   35.0230 N   0  0  0  0  0  0  0  0  0  0  0  0
   42.4230   24.6130   35.0540 C   0  0  0  0  0  0  0  0  0  0  0  0
   43.4990   25.5950   35.4300 C   0  0  0  0  0  0  0  0  0  0  0  0
   44.2820   25.2230   36.6270 C   0  0  0  0  0  0  0  0  0  0  0  0
   44.3170   23.7310   36.7590 C   0  0  0  0  0  0  0  0  0  0  0  0
   44.1380   23.0770   35.4590 C   0  0  2  0  0  0  0  0  0  0  0  0
   41.3960   22.4620   36.8630 C   0  0  2  0  0  0  0  0  0  0  0  0
   41.8110   22.4040   35.4520 C   0  0  2  0  0  0  0  0  0  0  0  0
   42.2380   20.9800   35.2940 C   0  0  0  0  0  0  0  0  0  0  0  0
   42.7390   20.5840   36.6080 C   0  0  0  0  0  0  0  0  0  0  0  0
   41.8720   21.2930   37.6110 C   0  0  0  0  0  0  0  0  0  0  0  0
   39.9140   22.6160   36.9700 C   0  0  0  0  0  0  0  0  0  0  0  0
   39.3260   23.1740   38.1490 C   0  0  0  0  0  0  0  0  0  0  0  0
   37.9260   23.3220   38.1220 C   0  0  0  0  0  0  0  0  0  0  0  0
   37.2570   22.9340   37.0060 N   0  0  0  0  0  0  0  0  0  0  0  0
   37.8790   22.4060   35.9130 C   0  0  0  0  0  0  0  0  0  0  0  0
   39.2130   22.2490   35.8990 N   0  0  0  0  0  0  0  0  0  0  0  0
   45.0130   23.6160   34.4210 N   0  0  0  0  0  0  0  0  0  0  0  0
   45.9810   24.5340   34.5430 C   0  0  0  0  0  0  0  0  0  0  0  0
   46.7740   24.9900   33.5150 C   0  0  0  0  0  0  0  0  0  0  0  0
   47.8160   26.0180   33.7920 C   0  0  0  0  0  0  0  0  0  0  0  0
   46.5830   24.4810   32.2480 C   0  0  0  0  0  0  0  0  0  0  0  0
   47.3060   24.8930   31.3070 O   0  0  0  0  0  0  0  0  0  0  0  0
   45.6140   23.5590   32.1250 N   0  0  0  0  0  0  0  0  0  0  0  0
   44.8520   23.1320   33.1460 C   0  0  0  0  0  0  0  0  0  0  0  0
   44.0150   22.2770   32.8160 O   0  0  0  0  0  0  0  0  0  0  0  0
   42.0545   24.8807   34.0527 H   0  0  0  0  0  0  0  0  0  0  0  0
   41.6584   24.6860   35.8415 H   0  0  0  0  0  0  0  0  0  0  0  0
   44.1926   25.6854   34.5810 H   0  0  0  0  0  0  0  0  0  0  0  0
   42.9882   26.5384   35.6730 H   0  0  0  0  0  0  0  0  0  0  0  0
   45.3083   25.6061   36.5271 H   0  0  0  0  0  0  0  0  0  0  0  0
   43.8126   25.6586   37.5213 H   0  0  0  0  0  0  0  0  0  0  0  0
   45.2879   23.4312   37.1803 H   0  0  0  0  0  0  0  0  0  0  0  0
   43.4939   23.4214   37.4197 H   0  0  0  0  0  0  0  0  0  0  0  0
   44.3916   22.0183   35.6168 H   0  0  0  0  0  0  0  0  0  0  0  0
   41.8622   23.3480   37.3188 H   0  0  0  0  0  0  0  0  0  0  0  0
   40.9707   22.7597   34.8376 H   0  0  0  0  0  0  0  0  0  0  0  0
   41.3843   20.3513   35.0008 H   0  0  0  0  0  0  0  0  0  0  0  0
   43.0009   20.8634   34.5101 H   0  0  0  0  0  0  0  0  0  0  0  0
   42.6588   19.4944   36.7355 H   0  0  0  0  0  0  0  0  0  0  0  0
   43.7994   20.8489   36.7323 H   0  0  0  0  0  0  0  0  0  0  0  0
   42.4547   21.5976   38.4928 H   0  0  0  0  0  0  0  0  0  0  0  0
   41.0573   20.6657   38.0020 H   0  0  0  0  0  0  0  0  0  0  0  0
   39.9290   23.4685   39.0206 H   0  0  0  0  0  0  0  0  0  0  0  0
   37.3873   23.7418   38.9843 H   0  0  0  0  0  0  0  0  0  0  0  0
   37.2844   22.1068   35.0373 H   0  0  0  0  0  0  0  0  0  0  0  0
   46.1557   24.9564   35.5435 H   0  0  0  0  0  0  0  0  0  0  0  0
   47.9352   26.1356   34.8792 H   0  0  0  0  0  0  0  0  0  0  0  0
   48.7719   25.6994   33.3507 H   0  0  0  0  0  0  0  0  0  0  0  0
   47.5103   26.9781   33.3507 H   0  0  0  0  0  0  0  0  0  0  0  0
   45.4450   23.1553   31.1926 H   0  0  0  0  0  0  0  0  0  0  0  0
  1  2  1  0
  1  8  1  0
  1  6  1  0
  2  3  1  0
  3  4  1  0
  4  5  1  0
  6  5  1  0
  7 12  1  0
  7 11  1  0
  8  7  1  0
  9  8  1  0
  9 10  1  0
 10 11  1  0
 12 13  2  0
 14 13  1  0
 15 14  2  0
 16 15  1  0
 17 16  2  0
 17 12  1  0
 18 19  1  0
 18  6  1  0
 20 21  1  0
 20 19  2  0
 22 20  1  0
 23 22  2  0
 24 22  1  0
 24 25  1  0
 25 18  1  0
 26 25  2  0
  2 27  1  0
  2 28  1  0
  3 29  1  0
  3 30  1  0
  4 31  1  0
  4 32  1  0
  5 33  1  0
  5 34  1  0
  6 35  1  1
  7 36  1  1
  8 37  1  6
  9 38  1  0
  9 39  1  0
 10 40  1  0
 10 41  1  0
 11 42  1  0
 11 43  1  0
 13 44  1  0
 14 45  1  0
 16 46  1  0
 19 47  1  0
 21 48  1  0
 21 49  1  0
 21 50  1  0
 24 51  1  0
M  ISO  8  27  13  28  13  29  13  30  13  31  13  32  13  33  13  34  13
M  ISO  8  35  13  36  13  37  13  38  13  39  13  40  13  41  13  42  13
M  ISO  8  43  13  44  14  45  14  46  14  47  14  48   8  49   8  50   8
M  ISO  1  51   9
M  END
>  <minimizedAffinity>  (1) 
-4.67303133

>  <minimizedRMSD>  (1) 
0.871007264

$$$$
