
     RDKit          3D

 45 48  0  0  1  0  0  0  0  0999 V2000
   41.4610   22.4280   36.8610 C   0  0  2  0  0  0  0  0  0  0  0  0
   41.8600   22.3680   35.4470 C   0  0  2  0  0  0  0  0  0  0  0  0
   42.2690   20.9300   35.2820 C   0  0  0  0  0  0  0  0  0  0  0  0
   42.7860   20.5290   36.5790 C   0  0  0  0  0  0  0  0  0  0  0  0
   41.9080   21.2300   37.5950 C   0  0  0  0  0  0  0  0  0  0  0  0
   42.8990   23.1790   35.0110 N   0  0  0  0  0  0  0  0  0  0  0  0
   42.4570   24.5350   34.8690 C   0  0  0  0  0  0  0  0  0  0  0  0
   43.4670   25.5730   35.2420 C   0  0  0  0  0  0  0  0  0  0  0  0
   44.2270   25.3330   36.5000 C   0  0  0  0  0  0  0  0  0  0  0  0
   44.2660   23.8570   36.7640 C   0  0  0  0  0  0  0  0  0  0  0  0
   44.1710   23.0740   35.5180 C   0  0  2  0  0  0  0  0  0  0  0  0
   45.1500   23.6580   34.5410 C   0  0  0  0  0  0  0  0  0  0  0  0
   45.1250   23.8820   33.1800 C   0  0  0  0  0  0  0  0  0  0  0  0
   46.3060   24.4540   32.7580 C   0  0  0  0  0  0  0  0  0  0  0  0
   47.0330   24.5620   33.9250 C   0  0  0  0  0  0  0  0  0  0  0  0
   46.3450   24.0960   34.9390 O   0  0  0  0  0  0  0  0  0  0  0  0
   39.9820   22.6110   36.9670 C   0  0  0  0  0  0  0  0  0  0  0  0
   39.4020   23.1700   38.1400 C   0  0  0  0  0  0  0  0  0  0  0  0
   38.0100   23.3490   38.1300 C   0  0  0  0  0  0  0  0  0  0  0  0
   37.3320   22.9770   37.0140 N   0  0  0  0  0  0  0  0  0  0  0  0
   37.9370   22.4440   35.9140 C   0  0  0  0  0  0  0  0  0  0  0  0
   39.2670   22.2630   35.8990 N   0  0  0  0  0  0  0  0  0  0  0  0
   41.9534   23.2944   37.3267 H   0  0  0  0  0  0  0  0  0  0  0  0
   41.0191   22.7397   34.8431 H   0  0  0  0  0  0  0  0  0  0  0  0
   41.4023   20.3120   35.0045 H   0  0  0  0  0  0  0  0  0  0  0  0
   43.0167   20.8044   34.4850 H   0  0  0  0  0  0  0  0  0  0  0  0
   42.7187   19.4377   36.6997 H   0  0  0  0  0  0  0  0  0  0  0  0
   43.8458   20.7983   36.6985 H   0  0  0  0  0  0  0  0  0  0  0  0
   42.4812   21.5051   38.4927 H   0  0  0  0  0  0  0  0  0  0  0  0
   41.0791   20.6066   37.9614 H   0  0  0  0  0  0  0  0  0  0  0  0
   42.1772   24.6940   33.8171 H   0  0  0  0  0  0  0  0  0  0  0  0
   41.6173   24.6587   35.5687 H   0  0  0  0  0  0  0  0  0  0  0  0
   44.1941   25.6437   34.4196 H   0  0  0  0  0  0  0  0  0  0  0  0
   42.8902   26.4928   35.4191 H   0  0  0  0  0  0  0  0  0  0  0  0
   45.2522   25.7170   36.3921 H   0  0  0  0  0  0  0  0  0  0  0  0
   43.7378   25.8509   37.3381 H   0  0  0  0  0  0  0  0  0  0  0  0
   45.2122   23.6105   37.2679 H   0  0  0  0  0  0  0  0  0  0  0  0
   43.4026   23.6001   37.3953 H   0  0  0  0  0  0  0  0  0  0  0  0
   44.3943   22.0131   35.7043 H   0  0  0  0  0  0  0  0  0  0  0  0
   44.2784   23.6376   32.5216 H   0  0  0  0  0  0  0  0  0  0  0  0
   46.5973   24.7515   31.7398 H   0  0  0  0  0  0  0  0  0  0  0  0
   48.0479   24.9805   33.9951 H   0  0  0  0  0  0  0  0  0  0  0  0
   40.0139   23.4479   39.0109 H   0  0  0  0  0  0  0  0  0  0  0  0
   37.4857   23.7764   38.9974 H   0  0  0  0  0  0  0  0  0  0  0  0
   37.3343   22.1621   35.0380 H   0  0  0  0  0  0  0  0  0  0  0  0
  1 17  1  0
  1  5  1  0
  2  1  1  0
  3  2  1  0
  3  4  1  0
  4  5  1  0
  6  7  1  0
  6  2  1  0
  6 11  1  0
  7  8  1  0
  8  9  1  0
  9 10  1  0
 11 10  1  0
 12 16  1  0
 12 11  1  0
 13 12  2  0
 14 13  1  0
 14 15  2  0
 15 16  1  0
 17 18  2  0
 19 18  1  0
 20 19  2  0
 21 20  1  0
 22 21  2  0
 22 17  1  0
  1 23  1  1
  2 24  1  6
  3 25  1  0
  3 26  1  0
  4 27  1  0
  4 28  1  0
  5 29  1  0
  5 30  1  0
  7 31  1  0
  7 32  1  0
  8 33  1  0
  8 34  1  0
  9 35  1  0
  9 36  1  0
 10 37  1  0
 10 38  1  0
 11 39  1  1
 13 40  1  0
 14 41  1  0
 15 42  1  0
 18 43  1  0
 19 44  1  0
 21 45  1  0
M  ISO  8  23  13  24  13  25  13  26  13  27  13  28  13  29  13  30  13
M  ISO  8  31  13  32  13  33  13  34  13  35  13  36  13  37  13  38  13
M  ISO  7  39  13  40  14  41  14  42  14  43  14  44  14  45  14
M  END
>  <minimizedAffinity>  (1) 
-4.5893836

>  <minimizedRMSD>  (1) 
0.331020713

$$$$
