
     RDKit          3D

 45 48  0  0  1  0  0  0  0  0999 V2000
   41.4520   22.4380   36.8680 C   0  0  2  0  0  0  0  0  0  0  0  0
   41.8500   22.3700   35.4540 C   0  0  2  0  0  0  0  0  0  0  0  0
   42.2570   20.9320   35.2950 C   0  0  0  0  0  0  0  0  0  0  0  0
   42.7760   20.5350   36.5920 C   0  0  0  0  0  0  0  0  0  0  0  0
   41.9040   21.2430   37.6060 C   0  0  0  0  0  0  0  0  0  0  0  0
   42.8890   23.1750   35.0160 N   0  0  0  0  0  0  0  0  0  0  0  0
   42.4480   24.5280   34.8620 C   0  0  0  0  0  0  0  0  0  0  0  0
   43.4490   25.5720   35.2310 C   0  0  0  0  0  0  0  0  0  0  0  0
   44.2430   25.3360   36.4740 C   0  0  0  0  0  0  0  0  0  0  0  0
   44.2590   23.8670   36.7540 C   0  0  0  0  0  0  0  0  0  0  0  0
   44.1600   23.0750   35.5240 C   0  0  2  0  0  0  0  0  0  0  0  0
   45.1170   23.6500   34.5230 C   0  0  0  0  0  0  0  0  0  0  0  0
   45.0800   23.8950   33.1700 C   0  0  0  0  0  0  0  0  0  0  0  0
   46.2440   24.4200   32.7500 N   0  0  0  0  0  0  0  0  0  0  0  0
   47.0720   24.5350   33.8040 C   0  0  0  0  0  0  0  0  0  0  0  0
   46.3770   24.0680   34.8570 N   0  0  0  0  0  0  0  0  0  0  0  0
   39.9730   22.6210   36.9760 C   0  0  0  0  0  0  0  0  0  0  0  0
   39.3860   23.1710   38.1400 C   0  0  0  0  0  0  0  0  0  0  0  0
   38.0050   23.3490   38.1490 C   0  0  0  0  0  0  0  0  0  0  0  0
   37.3220   22.9810   37.0340 N   0  0  0  0  0  0  0  0  0  0  0  0
   37.9250   22.4550   35.9300 C   0  0  0  0  0  0  0  0  0  0  0  0
   39.2580   22.2760   35.9080 N   0  0  0  0  0  0  0  0  0  0  0  0
   41.9417   23.3082   37.3295 H   0  0  0  0  0  0  0  0  0  0  0  0
   41.0089   22.7395   34.8489 H   0  0  0  0  0  0  0  0  0  0  0  0
   41.3891   20.3139   35.0216 H   0  0  0  0  0  0  0  0  0  0  0  0
   43.0035   20.8028   34.4975 H   0  0  0  0  0  0  0  0  0  0  0  0
   42.7052   19.4445   36.7178 H   0  0  0  0  0  0  0  0  0  0  0  0
   43.8371   20.8009   36.7075 H   0  0  0  0  0  0  0  0  0  0  0  0
   42.4819   21.5235   38.4989 H   0  0  0  0  0  0  0  0  0  0  0  0
   41.0764   20.6218   37.9791 H   0  0  0  0  0  0  0  0  0  0  0  0
   42.1739   24.6779   33.8073 H   0  0  0  0  0  0  0  0  0  0  0  0
   41.6063   24.6544   35.5589 H   0  0  0  0  0  0  0  0  0  0  0  0
   44.1586   25.6625   34.3953 H   0  0  0  0  0  0  0  0  0  0  0  0
   42.8581   26.4771   35.4351 H   0  0  0  0  0  0  0  0  0  0  0  0
   45.2719   25.6980   36.3316 H   0  0  0  0  0  0  0  0  0  0  0  0
   43.7908   25.8762   37.3188 H   0  0  0  0  0  0  0  0  0  0  0  0
   45.1988   23.6128   37.2660 H   0  0  0  0  0  0  0  0  0  0  0  0
   43.3882   23.6303   37.3830 H   0  0  0  0  0  0  0  0  0  0  0  0
   44.3931   22.0208   35.7344 H   0  0  0  0  0  0  0  0  0  0  0  0
   44.2162   23.6895   32.5207 H   0  0  0  0  0  0  0  0  0  0  0  0
   48.0995   24.9277   33.8047 H   0  0  0  0  0  0  0  0  0  0  0  0
   46.7538   24.0290   35.8148 H   0  0  0  0  0  0  0  0  0  0  0  0
   40.0003   23.4488   39.0091 H   0  0  0  0  0  0  0  0  0  0  0  0
   37.4880   23.7706   39.0237 H   0  0  0  0  0  0  0  0  0  0  0  0
   37.3197   22.1762   35.0549 H   0  0  0  0  0  0  0  0  0  0  0  0
  1 17  1  0
  1  5  1  0
  2  1  1  0
  3  2  1  0
  3  4  1  0
  4  5  1  0
  6  7  1  0
  6  2  1  0
  6 11  1  0
  7  8  1  0
  8  9  1  0
  9 10  1  0
 11 10  1  0
 12 16  1  0
 12 11  1  0
 13 12  2  0
 14 13  1  0
 14 15  2  0
 15 16  1  0
 17 18  2  0
 18 19  1  0
 20 19  2  0
 21 20  1  0
 22 21  2  0
 22 17  1  0
  1 23  1  1
  2 24  1  6
  3 25  1  0
  3 26  1  0
  4 27  1  0
  4 28  1  0
  5 29  1  0
  5 30  1  0
  7 31  1  0
  7 32  1  0
  8 33  1  0
  8 34  1  0
  9 35  1  0
  9 36  1  0
 10 37  1  0
 10 38  1  0
 11 39  1  1
 13 40  1  0
 15 41  1  0
 16 42  1  0
 18 43  1  0
 19 44  1  0
 21 45  1  0
M  ISO  8  23  13  24  13  25  13  26  13  27  13  28  13  29  13  30  13
M  ISO  8  31  13  32  13  33  13  34  13  35  13  36  13  37  13  38  13
M  ISO  7  39  13  40  14  41  14  42   9  43  14  44  14  45  14
M  END
>  <minimizedAffinity>  (1) 
-4.58979321

>  <minimizedRMSD>  (1) 
0.462692291

$$$$
