
     RDKit          3D

 53 56  0  0  1  0  0  0  0  0999 V2000
   41.4600   22.4400   36.8710 C   0  0  2  0  0  0  0  0  0  0  0  0
   41.8450   22.3720   35.4530 C   0  0  2  0  0  0  0  0  0  0  0  0
   42.2270   20.9310   35.2890 C   0  0  0  0  0  0  0  0  0  0  0  0
   42.7550   20.5250   36.5820 C   0  0  0  0  0  0  0  0  0  0  0  0
   41.9150   21.2430   37.5960 C   0  0  0  0  0  0  0  0  0  0  0  0
   42.8830   23.1630   35.0010 N   0  0  0  0  0  0  0  0  0  0  0  0
   42.4530   24.5290   34.8470 C   0  0  0  0  0  0  0  0  0  0  0  0
   43.4770   25.5710   35.1780 C   0  0  0  0  0  0  0  0  0  0  0  0
   44.2130   25.3590   36.4580 C   0  0  0  0  0  0  0  0  0  0  0  0
   44.2330   23.8900   36.7840 C   0  0  0  0  0  0  0  0  0  0  0  0
   44.1640   23.1020   35.5480 C   0  0  2  0  0  0  0  0  0  0  0  0
   45.0430   23.7530   34.5390 N   0  0  0  0  0  0  0  0  0  0  0  0
   44.9050   22.9310   33.3160 C   0  0  0  0  0  0  0  0  0  0  0  0
   46.0690   23.2300   32.3580 C   0  0  0  0  0  0  0  0  0  0  0  0
   47.2470   22.4210   32.8840 C   0  0  0  0  0  0  0  0  0  0  0  0
   47.0920   22.3730   34.3750 C   0  0  0  0  0  0  0  0  0  0  0  0
   46.4280   23.6840   34.8290 C   0  0  0  0  0  0  0  0  0  0  0  0
   39.9870   22.6390   37.0000 C   0  0  0  0  0  0  0  0  0  0  0  0
   39.4230   23.1780   38.1900 C   0  0  0  0  0  0  0  0  0  0  0  0
   38.0340   23.3770   38.2020 C   0  0  0  0  0  0  0  0  0  0  0  0
   37.3430   23.0430   37.0820 N   0  0  0  0  0  0  0  0  0  0  0  0
   37.9330   22.5280   35.9640 C   0  0  0  0  0  0  0  0  0  0  0  0
   39.2580   22.3260   35.9240 N   0  0  0  0  0  0  0  0  0  0  0  0
   41.9571   23.3071   37.3305 H   0  0  0  0  0  0  0  0  0  0  0  0
   41.0044   22.7579   34.8576 H   0  0  0  0  0  0  0  0  0  0  0  0
   41.3467   20.3265   35.0252 H   0  0  0  0  0  0  0  0  0  0  0  0
   42.9623   20.7906   34.4830 H   0  0  0  0  0  0  0  0  0  0  0  0
   42.6662   19.4361   36.7097 H   0  0  0  0  0  0  0  0  0  0  0  0
   43.8220   20.7717   36.6849 H   0  0  0  0  0  0  0  0  0  0  0  0
   42.5118   21.5193   38.4778 H   0  0  0  0  0  0  0  0  0  0  0  0
   41.0857   20.6306   37.9798 H   0  0  0  0  0  0  0  0  0  0  0  0
   42.1505   24.6725   33.7992 H   0  0  0  0  0  0  0  0  0  0  0  0
   41.6354   24.6704   35.5692 H   0  0  0  0  0  0  0  0  0  0  0  0
   44.2143   25.5938   34.3620 H   0  0  0  0  0  0  0  0  0  0  0  0
   42.9230   26.5136   35.2987 H   0  0  0  0  0  0  0  0  0  0  0  0
   45.2447   25.7261   36.3536 H   0  0  0  0  0  0  0  0  0  0  0  0
   43.7100   25.9088   37.2672 H   0  0  0  0  0  0  0  0  0  0  0  0
   45.1631   23.6480   37.3192 H   0  0  0  0  0  0  0  0  0  0  0  0
   43.3659   23.6480   37.4161 H   0  0  0  0  0  0  0  0  0  0  0  0
   44.4501   22.0656   35.7802 H   0  0  0  0  0  0  0  0  0  0  0  0
   44.9196   21.8653   33.5880 H   0  0  0  0  0  0  0  0  0  0  0  0
   43.9533   23.1722   32.8200 H   0  0  0  0  0  0  0  0  0  0  0  0
   46.3065   24.3040   32.3651 H   0  0  0  0  0  0  0  0  0  0  0  0
   45.8219   22.9632   31.3198 H   0  0  0  0  0  0  0  0  0  0  0  0
   47.2274   21.4037   32.4660 H   0  0  0  0  0  0  0  0  0  0  0  0
   48.2057   22.8770   32.5960 H   0  0  0  0  0  0  0  0  0  0  0  0
   46.4600   21.5179   34.6568 H   0  0  0  0  0  0  0  0  0  0  0  0
   48.0741   22.2566   34.8566 H   0  0  0  0  0  0  0  0  0  0  0  0
   46.9307   24.5211   34.3224 H   0  0  0  0  0  0  0  0  0  0  0  0
   46.5293   23.7326   35.9232 H   0  0  0  0  0  0  0  0  0  0  0  0
   40.0473   23.4273   39.0607 H   0  0  0  0  0  0  0  0  0  0  0  0
   37.5241   23.7882   39.0857 H   0  0  0  0  0  0  0  0  0  0  0  0
   37.3163   22.2766   35.0885 H   0  0  0  0  0  0  0  0  0  0  0  0
  1 18  1  0
  1  5  1  0
  2  1  1  0
  3  2  1  0
  3  4  1  0
  4  5  1  0
  6  7  1  0
  6  2  1  0
  6 11  1  0
  7  8  1  0
  8  9  1  0
  9 10  1  0
 11 10  1  0
 12 17  1  0
 12 11  1  0
 13 12  1  0
 14 15  1  0
 14 13  1  0
 15 16  1  0
 16 17  1  0
 18 19  2  0
 19 20  1  0
 21 20  2  0
 22 21  1  0
 23 22  2  0
 23 18  1  0
  1 24  1  1
  2 25  1  6
  3 26  1  0
  3 27  1  0
  4 28  1  0
  4 29  1  0
  5 30  1  0
  5 31  1  0
  7 32  1  0
  7 33  1  0
  8 34  1  0
  8 35  1  0
  9 36  1  0
  9 37  1  0
 10 38  1  0
 10 39  1  0
 11 40  1  1
 13 41  1  0
 13 42  1  0
 14 43  1  0
 14 44  1  0
 15 45  1  0
 15 46  1  0
 16 47  1  0
 16 48  1  0
 17 49  1  0
 17 50  1  0
 19 51  1  0
 20 52  1  0
 22 53  1  0
M  ISO  8  24  13  25  13  26  13  27  13  28  13  29  13  30  13  31  13
M  ISO  8  32  13  33  13  34  13  35  13  36  13  37  13  38  13  39  13
M  ISO  8  40  13  41  13  42  13  43  13  44  13  45  13  46  13  47  13
M  ISO  6  48  13  49  13  50  13  51  14  52  14  53  14
M  END
>  <minimizedAffinity>  (1) 
-4.5163064

>  <minimizedRMSD>  (1) 
0.672331452

$$$$
