
     RDKit          3D

 41 43  0  0  1  0  0  0  0  0999 V2000
   41.4620   22.4220   36.8700 C   0  0  2  0  0  0  0  0  0  0  0  0
   41.8600   22.3410   35.4580 C   0  0  2  0  0  0  0  0  0  0  0  0
   42.2640   20.8990   35.3120 C   0  0  0  0  0  0  0  0  0  0  0  0
   42.7810   20.5080   36.6100 C   0  0  0  0  0  0  0  0  0  0  0  0
   41.9090   21.2280   37.6100 C   0  0  0  0  0  0  0  0  0  0  0  0
   42.9110   23.1230   34.9950 N   0  0  0  0  0  0  0  0  0  0  0  0
   42.4700   24.4740   34.7940 C   0  0  0  0  0  0  0  0  0  0  0  0
   43.4310   25.5590   35.1650 C   0  0  0  0  0  0  0  0  0  0  0  0
   44.2150   25.3630   36.4000 C   0  0  0  0  0  0  0  0  0  0  0  0
   44.2220   23.9150   36.7650 C   0  0  0  0  0  0  0  0  0  0  0  0
   44.1560   23.0830   35.5710 C   0  0  2  0  0  0  0  0  0  0  0  0
   45.1460   23.6080   34.5730 C   0  0  0  0  0  0  0  0  0  0  0  0
   45.0370   23.2220   33.3790 O   0  0  0  0  0  0  0  0  0  0  0  0
   46.2450   24.4410   34.4360 O   0  0  0  0  0  0  0  0  0  0  0  0
   39.9850   22.6120   36.9720 C   0  0  0  0  0  0  0  0  0  0  0  0
   39.4050   23.1760   38.1540 C   0  0  0  0  0  0  0  0  0  0  0  0
   38.0170   23.3570   38.1350 C   0  0  0  0  0  0  0  0  0  0  0  0
   37.3360   22.9920   37.0170 N   0  0  0  0  0  0  0  0  0  0  0  0
   37.9400   22.4570   35.9180 C   0  0  0  0  0  0  0  0  0  0  0  0
   39.2710   22.2700   35.9020 N   0  0  0  0  0  0  0  0  0  0  0  0
   41.9520   23.2923   37.3309 H   0  0  0  0  0  0  0  0  0  0  0  0
   41.0162   22.7220   34.8640 H   0  0  0  0  0  0  0  0  0  0  0  0
   41.3944   20.2815   35.0426 H   0  0  0  0  0  0  0  0  0  0  0  0
   43.0120   20.7632   34.5170 H   0  0  0  0  0  0  0  0  0  0  0  0
   42.7053   19.4189   36.7444 H   0  0  0  0  0  0  0  0  0  0  0  0
   43.8439   20.7663   36.7267 H   0  0  0  0  0  0  0  0  0  0  0  0
   42.4846   21.5106   38.5038 H   0  0  0  0  0  0  0  0  0  0  0  0
   41.0754   20.6116   37.9777 H   0  0  0  0  0  0  0  0  0  0  0  0
   42.2317   24.5911   33.7265 H   0  0  0  0  0  0  0  0  0  0  0  0
   41.6146   24.6020   35.4737 H   0  0  0  0  0  0  0  0  0  0  0  0
   44.1427   25.6710   34.3338 H   0  0  0  0  0  0  0  0  0  0  0  0
   42.8050   26.4423   35.3599 H   0  0  0  0  0  0  0  0  0  0  0  0
   45.2478   25.7041   36.2359 H   0  0  0  0  0  0  0  0  0  0  0  0
   43.7608   25.9432   37.2167 H   0  0  0  0  0  0  0  0  0  0  0  0
   45.1469   23.6855   37.3144 H   0  0  0  0  0  0  0  0  0  0  0  0
   43.3433   23.7040   37.3923 H   0  0  0  0  0  0  0  0  0  0  0  0
   44.3768   22.0451   35.8607 H   0  0  0  0  0  0  0  0  0  0  0  0
   46.6745   24.5523   33.5510 H   0  0  0  0  0  0  0  0  0  0  0  0
   40.0154   23.4512   39.0268 H   0  0  0  0  0  0  0  0  0  0  0  0
   37.4914   23.7834   39.0021 H   0  0  0  0  0  0  0  0  0  0  0  0
   37.3364   22.1776   35.0419 H   0  0  0  0  0  0  0  0  0  0  0  0
  1 15  1  0
  1  5  1  0
  2  1  1  0
  3  2  1  0
  3  4  1  0
  4  5  1  0
  6  7  1  0
  6  2  1  0
  6 11  1  0
  7  8  1  0
  8  9  1  0
  9 10  1  0
 11 10  1  0
 12 11  1  0
 13 12  2  0
 14 12  1  0
 15 16  2  0
 17 16  1  0
 18 17  2  0
 19 18  1  0
 20 19  2  0
 20 15  1  0
  1 21  1  1
  2 22  1  6
  3 23  1  0
  3 24  1  0
  4 25  1  0
  4 26  1  0
  5 27  1  0
  5 28  1  0
  7 29  1  0
  7 30  1  0
  8 31  1  0
  8 32  1  0
  9 33  1  0
  9 34  1  0
 10 35  1  0
 10 36  1  0
 11 37  1  1
 14 38  1  0
 16 39  1  0
 17 40  1  0
 19 41  1  0
M  ISO  8  21  13  22  13  23  13  24  13  25  13  26  13  27  13  28  13
M  ISO  8  29  13  30  13  31  13  32  13  33  13  34  13  35  13  36  13
M  ISO  5  37  13  38   3  39  14  40  14  41  14
M  END
>  <minimizedAffinity>  (1) 
-4.48143339

>  <minimizedRMSD>  (1) 
0.152473301

$$$$
