
     RDKit          3D

 36 38  0  0  0  0  0  0  0  0999 V2000
   37.5080   24.9920   32.3320 C   0  0  0  0  0  0  0  0  0  0  0  0
   36.6470   25.9200   31.8220 C   0  0  0  0  0  0  0  0  0  0  0  0
   35.5010   25.4050   31.2530 C   0  0  0  0  0  0  0  0  0  0  0  0
   35.2540   24.0780   31.2090 N   0  0  0  0  0  0  0  0  0  0  0  0
   36.1290   23.2060   31.7230 C   0  0  0  0  0  0  0  0  0  0  0  0
   37.2740   23.6780   32.2930 N   0  0  0  0  0  0  0  0  0  0  0  0
   40.4410   25.2600   34.5310 C   0  0  0  0  0  0  0  0  0  0  0  0
   41.1150   26.4080   34.0820 C   0  0  0  0  0  0  0  0  0  0  0  0
   40.5080   27.0450   33.0190 C   0  0  0  0  0  0  0  0  0  0  0  0
   39.3720   26.5650   32.4980 N   0  0  0  0  0  0  0  0  0  0  0  0
   38.7470   25.4570   32.9530 C   0  0  0  0  0  0  0  0  0  0  0  0
   39.3190   24.8210   33.9850 N   0  0  0  0  0  0  0  0  0  0  0  0
   42.3180   26.8720   34.6740 N   0  0  0  0  0  0  0  0  0  0  0  0
   43.5990   26.7820   34.0820 C   0  0  0  0  0  0  0  0  0  0  0  0
   43.8500   25.6840   33.4040 N   0  0  0  0  0  0  0  0  0  0  0  0
   44.4540   27.9410   34.3200 N   0  0  0  0  0  0  0  0  0  0  0  0
   44.7550   25.5560   32.9410 H   0  0  0  0  0  0  0  0  0  0  0  0
   35.8580   21.7730   31.6720 C   0  0  0  0  0  0  0  0  0  0  0  0
   35.0650   21.2020   32.6600 C   0  0  0  0  0  0  0  0  0  0  0  0
   34.8980   19.8490   32.4830 C   0  0  0  0  0  0  0  0  0  0  0  0
   35.4330   19.1190   31.4690 N   0  0  0  0  0  0  0  0  0  0  0  0
   36.1900   19.7760   30.5610 C   0  0  0  0  0  0  0  0  0  0  0  0
   36.4020   21.0800   30.6560 N   0  0  0  0  0  0  0  0  0  0  0  0
   36.7460   18.9610   29.4870 C   0  0  0  0  0  0  0  0  0  0  0  0
   37.6810   19.4260   28.7820 O   0  0  0  0  0  0  0  0  0  0  0  0
   36.3110   17.6780   29.1810 O   0  0  0  0  0  0  0  0  0  0  0  0
   36.8521   27.0000   31.8618 H   0  0  0  0  0  0  0  0  0  0  0  0
   34.7640   26.0979   30.8208 H   0  0  0  0  0  0  0  0  0  0  0  0
   40.8665   24.6997   35.3766 H   0  0  0  0  0  0  0  0  0  0  0  0
   40.9609   27.9540   32.5965 H   0  0  0  0  0  0  0  0  0  0  0  0
   42.2534   27.3073   35.6053 H   0  0  0  0  0  0  0  0  0  0  0  0
   45.4063   27.9675   33.9284 H   0  0  0  0  0  0  0  0  0  0  0  0
   44.1050   28.7322   34.8795 H   0  0  0  0  0  0  0  0  0  0  0  0
   34.6205   21.7693   33.4910 H   0  0  0  0  0  0  0  0  0  0  0  0
   34.2821   19.3144   33.2211 H   0  0  0  0  0  0  0  0  0  0  0  0
   36.7313   17.1769   28.4378 H   0  0  0  0  0  0  0  0  0  0  0  0
  1 11  1  0
  2  1  2  0
  3  2  1  0
  4  3  2  0
  4  5  1  0
  5  6  2  0
  6  1  1  0
  8  7  2  0
  8 13  1  0
  9  8  1  0
 10 11  1  0
 10  9  2  0
 11 12  2  0
 12  7  1  0
 14 16  1  0
 14 13  1  0
 15 14  2  0
 17 15  1  0
 18  5  1  0
 18 19  2  0
 20 19  1  0
 21 20  2  0
 22 23  2  0
 22 21  1  0
 23 18  1  0
 24 22  1  0
 25 24  2  0
 26 24  1  0
  2 27  1  0
  3 28  1  0
  7 29  1  0
  9 30  1  0
 13 31  1  0
 16 32  1  0
 16 33  1  0
 19 34  1  0
 20 35  1  0
 26 36  1  0
M  ISO  7  27  14  28  14  29  14  30  14  34  14  35  14  36   3
M  END
>  <minimizedAffinity>  (1) 
-5.51722145

>  <minimizedRMSD>  (1) 
0.457940727

$$$$
