
     RDKit          3D

 22 23  0  0  0  0  0  0  0  0999 V2000
   37.9070   24.8340   34.0250 C   0  0  0  0  0  0  0  0  0  0  0  0
   38.1730   25.2260   35.3490 C   0  0  0  0  0  0  0  0  0  0  0  0
   37.8900   26.5660   35.6820 C   0  0  0  0  0  0  0  0  0  0  0  0
   37.3830   27.3990   34.7200 N   0  0  0  0  0  0  0  0  0  0  0  0
   37.1490   26.9720   33.4690 C   0  0  0  0  0  0  0  0  0  0  0  0
   37.4090   25.7030   33.1270 N   0  0  0  0  0  0  0  0  0  0  0  0
   38.6990   24.3460   36.3360 N   0  0  0  0  0  0  0  0  0  0  0  0
   39.8010   23.4720   35.9980 C   0  0  0  0  0  0  0  0  0  0  0  0
   40.4370   22.8570   37.2020 C   0  0  0  0  0  0  0  0  0  0  0  0
   39.4350   22.3950   38.1220 N   0  0  0  0  0  0  0  0  0  0  0  0
   38.6090   23.4520   38.6400 C   0  0  0  0  0  0  0  0  0  0  0  0
   38.0770   24.3940   37.6330 C   0  0  0  0  0  0  0  0  0  0  0  0
   38.1099   23.7974   33.7179 H   0  0  0  0  0  0  0  0  0  0  0  0
   38.0738   26.9379   36.7008 H   0  0  0  0  0  0  0  0  0  0  0  0
   36.7416   27.6678   32.7207 H   0  0  0  0  0  0  0  0  0  0  0  0
   39.4261   22.6676   35.3480 H   0  0  0  0  0  0  0  0  0  0  0  0
   40.5651   24.0800   35.4916 H   0  0  0  0  0  0  0  0  0  0  0  0
   41.0591   22.0061   36.8875 H   0  0  0  0  0  0  0  0  0  0  0  0
   41.0560   23.6158   37.7030 H   0  0  0  0  0  0  0  0  0  0  0  0
   39.3198   21.4057   38.3843 H   0  0  0  0  0  0  0  0  0  0  0  0
   38.3881   23.5526   39.7129 H   0  0  0  0  0  0  0  0  0  0  0  0
   37.2557   25.0894   37.8609 H   0  0  0  0  0  0  0  0  0  0  0  0
  1  2  2  0
  2  3  1  0
  2  7  1  0
  4  3  2  0
  5  4  1  0
  6  5  2  0
  6  1  1  0
  7 12  1  0
  8  7  1  0
  8  9  1  0
  9 10  1  0
 10 11  1  0
 12 11  2  0
  1 13  1  0
  3 14  1  0
  5 15  1  0
  8 16  1  0
  8 17  1  0
  9 18  1  0
  9 19  1  0
 10 20  1  0
 11 21  1  0
 12 22  1  0
M  ISO  8  13  14  14  14  15  14  16  13  17  13  18  13  19  13  21  13
M  ISO  1  22  13
M  END
>  <minimizedAffinity>  (1) 
-3.8634522

>  <minimizedRMSD>  (1) 
4.47640038

$$$$
