
     RDKit          3D

 31 32  0  0  0  0  0  0  0  0999 V2000
   38.9160   24.2730   36.3460 N   0  0  0  0  0  0  0  0  0  0  0  0
   37.8420   24.3470   37.3430 C   0  0  0  0  0  0  0  0  0  0  0  0
   37.8540   23.1810   38.2750 C   0  0  0  0  0  0  0  0  0  0  0  0
   39.1700   22.8680   38.6900 N   0  0  0  0  0  0  0  0  0  0  0  0
   40.1430   22.6300   37.6870 C   0  0  0  0  0  0  0  0  0  0  0  0
   40.0210   23.3890   36.4280 C   0  0  0  0  0  0  0  0  0  0  0  0
   39.5060   26.4190   35.1900 C   0  0  0  0  0  0  0  0  0  0  0  0
   38.8490   25.1570   35.2500 C   0  0  0  0  0  0  0  0  0  0  0  0
   38.1140   24.8060   34.1250 C   0  0  0  0  0  0  0  0  0  0  0  0
   38.0350   25.6250   33.0400 N   0  0  0  0  0  0  0  0  0  0  0  0
   38.6840   26.8200   33.0400 C   0  0  0  0  0  0  0  0  0  0  0  0
   39.4160   27.2130   34.1120 N   0  0  0  0  0  0  0  0  0  0  0  0
   41.0840   23.1650   35.4750 C   0  0  0  0  0  0  0  0  0  0  0  0
   42.3290   23.9650   35.7200 C   0  0  0  0  0  0  0  0  0  0  0  0
   41.5160   21.6860   35.4950 C   0  0  0  0  0  0  0  0  0  0  0  0
   37.9660   25.2697   37.9289 H   0  0  0  0  0  0  0  0  0  0  0  0
   36.8823   24.3388   36.8056 H   0  0  0  0  0  0  0  0  0  0  0  0
   37.2473   23.4234   39.1600 H   0  0  0  0  0  0  0  0  0  0  0  0
   37.4402   22.3097   37.7463 H   0  0  0  0  0  0  0  0  0  0  0  0
   39.4133   22.8148   39.6894 H   0  0  0  0  0  0  0  0  0  0  0  0
   40.9576   21.9072   37.8415 H   0  0  0  0  0  0  0  0  0  0  0  0
   40.1038   26.7522   36.0512 H   0  0  0  0  0  0  0  0  0  0  0  0
   37.5827   23.8429   34.1101 H   0  0  0  0  0  0  0  0  0  0  0  0
   38.6144   27.4760   32.1597 H   0  0  0  0  0  0  0  0  0  0  0  0
   40.6525   23.4776   34.5127 H   0  0  0  0  0  0  0  0  0  0  0  0
   42.4908   24.0690   36.8031 H   0  0  0  0  0  0  0  0  0  0  0  0
   43.1901   23.4507   35.2683 H   0  0  0  0  0  0  0  0  0  0  0  0
   42.2191   24.9619   35.2683 H   0  0  0  0  0  0  0  0  0  0  0  0
   41.6150   21.3470   36.5368 H   0  0  0  0  0  0  0  0  0  0  0  0
   40.7586   21.0758   34.9813 H   0  0  0  0  0  0  0  0  0  0  0  0
   42.4828   21.5794   34.9813 H   0  0  0  0  0  0  0  0  0  0  0  0
  1  6  1  0
  1  2  1  0
  2  3  1  0
  3  4  1  0
  5  4  1  0
  6  5  2  0
  7  8  2  0
  8  1  1  0
  9  8  1  0
 10  9  2  0
 11 10  1  0
 11 12  2  0
 12  7  1  0
 13 15  1  0
 13 14  1  0
 13  6  1  0
  2 16  1  0
  2 17  1  0
  3 18  1  0
  3 19  1  0
  4 20  1  0
  5 21  1  0
  7 22  1  0
  9 23  1  0
 11 24  1  0
 13 25  1  0
 14 26  1  0
 14 27  1  0
 14 28  1  0
 15 29  1  0
 15 30  1  0
 15 31  1  0
M  ISO  8  16  13  17  13  18  13  19  13  21  13  22  14  23  14  24  14
M  ISO  7  25   8  26   8  27   8  28   8  29   8  30   8  31   8
M  END
>  <minimizedAffinity>  (1) 
-4.16306448

>  <minimizedRMSD>  (1) 
3.42898893

$$$$
