
     RDKit          3D

 36 39  0  0  1  0  0  0  0  0999 V2000
   40.1750   23.9340   35.7420 N   0  0  0  0  0  0  0  0  0  0  0  0
   40.5480   22.8690   36.6630 C   0  0  0  0  0  0  0  0  0  0  0  0
   39.6940   22.8140   37.8910 C   0  0  0  0  0  0  0  0  0  0  0  0
   38.3410   23.0360   37.5650 N   0  0  0  0  0  0  0  0  0  0  0  0
   37.9630   24.1740   36.7930 C   0  0  0  0  0  0  0  0  0  0  0  0
   38.9450   24.6320   35.8190 C   0  0  0  0  0  0  0  0  0  0  0  0
   41.0470   23.7930   33.4180 C   0  0  0  0  0  0  0  0  0  0  0  0
   41.0720   24.3030   34.7340 C   0  0  0  0  0  0  0  0  0  0  0  0
   42.0860   25.2430   35.0030 C   0  0  0  0  0  0  0  0  0  0  0  0
   42.9750   25.6290   34.0510 N   0  0  0  0  0  0  0  0  0  0  0  0
   42.8950   25.1020   32.8110 C   0  0  0  0  0  0  0  0  0  0  0  0
   41.9450   24.1980   32.4990 N   0  0  0  0  0  0  0  0  0  0  0  0
   38.4790   25.7500   35.0050 C   0  0  2  0  0  0  0  0  0  0  0  0
   38.8590   27.1020   35.6570 C   0  0  0  0  0  0  0  0  0  0  0  0
   37.4520   26.7130   35.3590 C   0  0  1  0  0  0  0  0  0  0  0  0
   36.8350   27.4760   34.2700 N   0  0  0  0  0  0  0  0  0  0  0  0
   36.1130   28.5880   34.3990 N   0  0  0  0  0  0  0  0  0  0  0  0
   35.6990   29.0290   33.2130 C   0  0  0  0  0  0  0  0  0  0  0  0
   36.1710   28.1640   32.2380 C   0  0  0  0  0  0  0  0  0  0  0  0
   36.8690   27.2200   32.9620 C   0  0  0  0  0  0  0  0  0  0  0  0
   40.4621   21.9073   36.1360 H   0  0  0  0  0  0  0  0  0  0  0  0
   41.5769   23.0736   36.9939 H   0  0  0  0  0  0  0  0  0  0  0  0
   39.7954   21.8231   38.3577 H   0  0  0  0  0  0  0  0  0  0  0  0
   40.0241   23.5986   38.5878 H   0  0  0  0  0  0  0  0  0  0  0  0
   37.6213   22.3728   37.8860 H   0  0  0  0  0  0  0  0  0  0  0  0
   36.9921   24.6740   36.9245 H   0  0  0  0  0  0  0  0  0  0  0  0
   40.2823   23.0533   33.1385 H   0  0  0  0  0  0  0  0  0  0  0  0
   42.1600   25.6763   36.0113 H   0  0  0  0  0  0  0  0  0  0  0  0
   43.6169   25.4153   32.0424 H   0  0  0  0  0  0  0  0  0  0  0  0
   38.5871   25.1664   34.0788 H   0  0  0  0  0  0  0  0  0  0  0  0
   39.2197   27.1388   36.6955 H   0  0  0  0  0  0  0  0  0  0  0  0
   39.5197   27.9459   35.4094 H   0  0  0  0  0  0  0  0  0  0  0  0
   36.5282   26.6243   35.9495 H   0  0  0  0  0  0  0  0  0  0  0  0
   35.0872   29.9261   33.0369 H   0  0  0  0  0  0  0  0  0  0  0  0
   36.0242   28.2175   31.1492 H   0  0  0  0  0  0  0  0  0  0  0  0
   37.3902   26.3607   32.5148 H   0  0  0  0  0  0  0  0  0  0  0  0
  1  6  1  0
  1  2  1  0
  2  3  1  0
  4  3  1  0
  5  4  1  0
  6  5  2  0
  7  8  2  0
  8  9  1  0
  8  1  1  0
 10  9  2  0
 11 10  1  0
 12 11  2  0
 12  7  1  0
 13 15  1  0
 13 14  1  0
 13  6  1  0
 15 14  1  0
 16 17  1  0
 16 15  1  0
 18 17  2  0
 19 20  2  0
 19 18  1  0
 20 16  1  0
  2 21  1  0
  2 22  1  0
  3 23  1  0
  3 24  1  0
  4 25  1  0
  5 26  1  0
  7 27  1  0
  9 28  1  0
 11 29  1  0
 13 30  1  6
 14 31  1  0
 14 32  1  0
 15 33  1  1
 18 34  1  0
 19 35  1  0
 20 36  1  0
M  ISO  8  21  13  22  13  23  13  24  13  26  13  27  14  28  14  29  14
M  ISO  7  30  13  31  13  32  13  33  13  34  14  35  14  36  14
M  END
>  <minimizedAffinity>  (1) 
-4.71504164

>  <minimizedRMSD>  (1) 
5.33116484

$$$$
