
     RDKit          3D

 39 41  0  0  0  0  0  0  0  0999 V2000
   37.4920   24.9030   32.3020 C   0  0  0  0  0  0  0  0  0  0  0  0
   36.6090   25.8220   31.7930 C   0  0  0  0  0  0  0  0  0  0  0  0
   35.4850   25.2990   31.2080 C   0  0  0  0  0  0  0  0  0  0  0  0
   35.2550   23.9670   31.1360 N   0  0  0  0  0  0  0  0  0  0  0  0
   36.1310   23.1130   31.6400 C   0  0  0  0  0  0  0  0  0  0  0  0
   37.2670   23.5780   32.2330 N   0  0  0  0  0  0  0  0  0  0  0  0
   40.3690   25.1920   34.5570 C   0  0  0  0  0  0  0  0  0  0  0  0
   41.0460   26.3310   34.1190 C   0  0  0  0  0  0  0  0  0  0  0  0
   40.4670   26.9710   33.0360 C   0  0  0  0  0  0  0  0  0  0  0  0
   39.3310   26.4920   32.4740 N   0  0  0  0  0  0  0  0  0  0  0  0
   38.7130   25.3790   32.9410 C   0  0  0  0  0  0  0  0  0  0  0  0
   39.2600   24.7530   33.9850 N   0  0  0  0  0  0  0  0  0  0  0  0
   42.2350   26.8020   34.7330 N   0  0  0  0  0  0  0  0  0  0  0  0
   43.5280   26.7170   34.1710 C   0  0  0  0  0  0  0  0  0  0  0  0
   43.7990   25.5890   33.5200 N   0  0  0  0  0  0  0  0  0  0  0  0
   44.3880   27.8740   34.3790 N   0  0  0  0  0  0  0  0  0  0  0  0
   44.7110   25.4530   33.0800 H   0  0  0  0  0  0  0  0  0  0  0  0
   35.8890   21.6670   31.5650 C   0  0  0  0  0  0  0  0  0  0  0  0
   34.8990   21.1060   32.3610 C   0  0  0  0  0  0  0  0  0  0  0  0
   34.7780   19.7470   32.1940 C   0  0  0  0  0  0  0  0  0  0  0  0
   35.5310   19.0080   31.3480 N   0  0  0  0  0  0  0  0  0  0  0  0
   36.4710   19.6450   30.6140 C   0  0  0  0  0  0  0  0  0  0  0  0
   36.6530   20.9580   30.7170 N   0  0  0  0  0  0  0  0  0  0  0  0
   37.2950   18.7940   29.6810 C   0  0  0  0  0  0  0  0  0  0  0  0
   36.6100   18.7570   28.3250 C   0  0  0  0  0  0  0  0  0  0  0  0
   36.7909   26.9053   31.8506 H   0  0  0  0  0  0  0  0  0  0  0  0
   34.7416   25.9881   30.7808 H   0  0  0  0  0  0  0  0  0  0  0  0
   40.7749   24.6355   35.4146 H   0  0  0  0  0  0  0  0  0  0  0  0
   40.9348   27.8788   32.6273 H   0  0  0  0  0  0  0  0  0  0  0  0
   42.1486   27.2402   35.6611 H   0  0  0  0  0  0  0  0  0  0  0  0
   45.3443   27.8803   33.9965 H   0  0  0  0  0  0  0  0  0  0  0  0
   44.0398   28.6859   34.9086 H   0  0  0  0  0  0  0  0  0  0  0  0
   34.2754   21.6895   33.0543 H   0  0  0  0  0  0  0  0  0  0  0  0
   34.0155   19.2241   32.7900 H   0  0  0  0  0  0  0  0  0  0  0  0
   38.3009   19.2266   29.5762 H   0  0  0  0  0  0  0  0  0  0  0  0
   37.3854   17.7745   30.0839 H   0  0  0  0  0  0  0  0  0  0  0  0
   35.5207   18.6982   28.4660 H   0  0  0  0  0  0  0  0  0  0  0  0
   36.8583   19.6699   27.7637 H   0  0  0  0  0  0  0  0  0  0  0  0
   36.9552   17.8762   27.7637 H   0  0  0  0  0  0  0  0  0  0  0  0
  1 11  1  0
  2  1  2  0
  3  2  1  0
  4  3  2  0
  4  5  1  0
  5  6  2  0
  6  1  1  0
  8  7  2  0
  8 13  1  0
  9  8  1  0
 10 11  1  0
 10  9  2  0
 11 12  2  0
 12  7  1  0
 14 16  1  0
 14 13  1  0
 15 14  2  0
 17 15  1  0
 18  5  1  0
 18 19  2  0
 20 19  1  0
 21 20  2  0
 22 23  2  0
 22 21  1  0
 23 18  1  0
 24 22  1  0
 25 24  1  0
  2 26  1  0
  3 27  1  0
  7 28  1  0
  9 29  1  0
 13 30  1  0
 16 31  1  0
 16 32  1  0
 19 33  1  0
 20 34  1  0
 24 35  1  0
 24 36  1  0
 25 37  1  0
 25 38  1  0
 25 39  1  0
M  ISO  8  26  14  27  14  28  14  29  14  33  14  34  14  35   8  36   8
M  ISO  3  37   8  38   8  39   8
M  END
>  <minimizedAffinity>  (1) 
-5.37324381

>  <minimizedRMSD>  (1) 
0.529573143

$$$$
