
     RDKit          3D

 44 47  0  0  1  0  0  0  0  0999 V2000
   39.9550   24.8800   34.7090 N   0  0  0  0  0  0  0  0  0  0  0  0
   41.3650   25.1970   34.8680 C   0  0  0  0  0  0  0  0  0  0  0  0
   42.1900   24.0360   35.3280 C   0  0  0  0  0  0  0  0  0  0  0  0
   41.7910   22.8530   34.6730 N   0  0  0  0  0  0  0  0  0  0  0  0
   40.4210   22.4690   34.6400 C   0  0  0  0  0  0  0  0  0  0  0  0
   39.4530   23.5590   34.6480 C   0  0  0  0  0  0  0  0  0  0  0  0
   38.3920   26.3350   33.4280 C   0  0  0  0  0  0  0  0  0  0  0  0
   39.0370   25.9310   34.6200 C   0  0  0  0  0  0  0  0  0  0  0  0
   38.6910   26.6720   35.7690 C   0  0  0  0  0  0  0  0  0  0  0  0
   37.8000   27.6950   35.7210 N   0  0  0  0  0  0  0  0  0  0  0  0
   37.2230   28.0250   34.5470 C   0  0  0  0  0  0  0  0  0  0  0  0
   37.5130   27.3560   33.4210 N   0  0  0  0  0  0  0  0  0  0  0  0
   38.0700   23.1110   34.5430 C   0  0  2  0  0  0  0  0  0  0  0  0
   37.7400   22.0600   35.6310 C   0  0  0  0  0  0  0  0  0  0  0  0
   37.6100   21.7870   34.1730 C   0  0  1  0  0  0  0  0  0  0  0  0
   36.3100   21.5850   33.5680 N   0  0  0  0  0  0  0  0  0  0  0  0
   36.4440   21.4640   32.1490 C   0  0  0  0  0  0  0  0  0  0  0  0
   35.1100   21.0180   31.5880 C   0  0  0  0  0  0  0  0  0  0  0  0
   34.9110   19.5590   31.8910 C   0  0  0  0  0  0  0  0  0  0  0  0
   35.6190   19.2570   33.2180 C   0  0  0  0  0  0  0  0  0  0  0  0
   35.5550   20.5030   34.1060 C   0  0  0  0  0  0  0  0  0  0  0  0
   41.7562   25.5398   33.8987 H   0  0  0  0  0  0  0  0  0  0  0  0
   41.4366   25.9726   35.6448 H   0  0  0  0  0  0  0  0  0  0  0  0
   43.2487   24.2336   35.1042 H   0  0  0  0  0  0  0  0  0  0  0  0
   42.0476   23.9069   36.4111 H   0  0  0  0  0  0  0  0  0  0  0  0
   42.4978   22.2609   34.2139 H   0  0  0  0  0  0  0  0  0  0  0  0
   40.1114   21.4139   34.6103 H   0  0  0  0  0  0  0  0  0  0  0  0
   38.6121   25.8058   32.4891 H   0  0  0  0  0  0  0  0  0  0  0  0
   39.1564   26.4136   36.7316 H   0  0  0  0  0  0  0  0  0  0  0  0
   36.5031   28.8560   34.5125 H   0  0  0  0  0  0  0  0  0  0  0  0
   37.7521   24.0873   34.1482 H   0  0  0  0  0  0  0  0  0  0  0  0
   38.5445   21.5917   36.2170 H   0  0  0  0  0  0  0  0  0  0  0  0
   37.0830   22.0065   36.5117 H   0  0  0  0  0  0  0  0  0  0  0  0
   38.0114   21.0079   33.5083 H   0  0  0  0  0  0  0  0  0  0  0  0
   36.7245   22.4358   31.7166 H   0  0  0  0  0  0  0  0  0  0  0  0
   37.2264   20.7318   31.9007 H   0  0  0  0  0  0  0  0  0  0  0  0
   35.0982   21.1728   30.4990 H   0  0  0  0  0  0  0  0  0  0  0  0
   34.3006   21.6051   32.0465 H   0  0  0  0  0  0  0  0  0  0  0  0
   33.8371   19.3381   31.9807 H   0  0  0  0  0  0  0  0  0  0  0  0
   35.3256   18.9379   31.0833 H   0  0  0  0  0  0  0  0  0  0  0  0
   35.1175   18.4176   33.7220 H   0  0  0  0  0  0  0  0  0  0  0  0
   36.6682   18.9863   33.0288 H   0  0  0  0  0  0  0  0  0  0  0  0
   35.9546   20.2512   35.0994 H   0  0  0  0  0  0  0  0  0  0  0  0
   34.5038   20.8213   34.1671 H   0  0  0  0  0  0  0  0  0  0  0  0
  1  2  1  0
  2  3  1  0
  4  3  1  0
  5  6  2  0
  5  4  1  0
  6  1  1  0
  7  8  2  0
  8  1  1  0
  8  9  1  0
 10  9  2  0
 11 10  1  0
 12  7  1  0
 12 11  2  0
 13  6  1  0
 13 14  1  0
 15 13  1  0
 15 14  1  0
 16 21  1  0
 16 15  1  0
 17 16  1  0
 18 19  1  0
 18 17  1  0
 19 20  1  0
 20 21  1  0
  2 22  1  0
  2 23  1  0
  3 24  1  0
  3 25  1  0
  4 26  1  0
  5 27  1  0
  7 28  1  0
  9 29  1  0
 11 30  1  0
 13 31  1  1
 14 32  1  0
 14 33  1  0
 15 34  1  6
 17 35  1  0
 17 36  1  0
 18 37  1  0
 18 38  1  0
 19 39  1  0
 19 40  1  0
 20 41  1  0
 20 42  1  0
 21 43  1  0
 21 44  1  0
M  ISO  8  22  13  23  13  24  13  25  13  27  13  28  14  29  14  30  14
M  ISO  8  31  13  32  13  33  13  34  13  35  13  36  13  37  13  38  13
M  ISO  6  39  13  40  13  41  13  42  13  43  13  44  13
M  END
>  <minimizedAffinity>  (1) 
-4.64513588

>  <minimizedRMSD>  (1) 
3.7270143

$$$$
