
     RDKit          3D

 36 39  0  0  1  0  0  0  0  0999 V2000
   39.9410   23.4880   36.3790 N   0  0  0  0  0  0  0  0  0  0  0  0
   39.7320   22.7500   37.6180 C   0  0  0  0  0  0  0  0  0  0  0  0
   38.7520   23.3920   38.5400 C   0  0  0  0  0  0  0  0  0  0  0  0
   37.6620   23.9290   37.8300 N   0  0  0  0  0  0  0  0  0  0  0  0
   37.8710   24.7700   36.7030 C   0  0  0  0  0  0  0  0  0  0  0  0
   39.0830   24.5190   35.9340 C   0  0  0  0  0  0  0  0  0  0  0  0
   41.0210   22.3300   34.4610 C   0  0  0  0  0  0  0  0  0  0  0  0
   41.0510   23.1750   35.5890 C   0  0  0  0  0  0  0  0  0  0  0  0
   42.3140   23.7160   35.8960 C   0  0  0  0  0  0  0  0  0  0  0  0
   43.4160   23.4380   35.1540 N   0  0  0  0  0  0  0  0  0  0  0  0
   43.3160   22.6210   34.0880 C   0  0  0  0  0  0  0  0  0  0  0  0
   42.1380   22.0780   33.7500 N   0  0  0  0  0  0  0  0  0  0  0  0
   39.2060   25.3640   34.7550 C   0  0  2  0  0  0  0  0  0  0  0  0
   40.0420   26.6320   35.0630 C   0  0  0  0  0  0  0  0  0  0  0  0
   38.6420   26.6830   34.5580 C   0  0  1  0  0  0  0  0  0  0  0  0
   38.4480   27.1510   33.1370 C   0  0  0  0  0  0  0  0  0  0  0  0
   37.2500   27.6450   32.6080 C   0  0  0  0  0  0  0  0  0  0  0  0
   37.4640   27.9740   31.2680 C   0  0  0  0  0  0  0  0  0  0  0  0
   38.7930   27.6540   31.0680 C   0  0  0  0  0  0  0  0  0  0  0  0
   39.3350   27.1870   32.1470 O   0  0  0  0  0  0  0  0  0  0  0  0
   39.3641   21.7446   37.3655 H   0  0  0  0  0  0  0  0  0  0  0  0
   40.6981   22.7237   38.1434 H   0  0  0  0  0  0  0  0  0  0  0  0
   38.3813   22.6387   39.2507 H   0  0  0  0  0  0  0  0  0  0  0  0
   39.2587   24.2107   39.0720 H   0  0  0  0  0  0  0  0  0  0  0  0
   36.7014   23.7101   38.1305 H   0  0  0  0  0  0  0  0  0  0  0  0
   37.1601   25.5630   36.4279 H   0  0  0  0  0  0  0  0  0  0  0  0
   40.0702   21.8686   34.1560 H   0  0  0  0  0  0  0  0  0  0  0  0
   42.4107   24.3847   36.7641 H   0  0  0  0  0  0  0  0  0  0  0  0
   44.2105   22.3969   33.4883 H   0  0  0  0  0  0  0  0  0  0  0  0
   39.1561   24.4890   34.0903 H   0  0  0  0  0  0  0  0  0  0  0  0
   40.2714   26.9109   36.1020 H   0  0  0  0  0  0  0  0  0  0  0  0
   41.0156   27.0383   34.7515 H   0  0  0  0  0  0  0  0  0  0  0  0
   37.7223   27.1692   34.9154 H   0  0  0  0  0  0  0  0  0  0  0  0
   36.3018   27.7552   33.1546 H   0  0  0  0  0  0  0  0  0  0  0  0
   36.7463   28.3887   30.5448 H   0  0  0  0  0  0  0  0  0  0  0  0
   39.3236   27.7801   30.1127 H   0  0  0  0  0  0  0  0  0  0  0  0
  1  2  1  0
  2  3  1  0
  4  3  1  0
  5  4  1  0
  6  1  1  0
  6  5  2  0
  7  8  2  0
  8  9  1  0
  8  1  1  0
 10  9  2  0
 11 10  1  0
 12 11  2  0
 12  7  1  0
 13 14  1  0
 13  6  1  0
 15 13  1  0
 15 14  1  0
 16 15  1  0
 17 16  2  0
 18 17  1  0
 19 18  2  0
 19 20  1  0
 20 16  1  0
  2 21  1  0
  2 22  1  0
  3 23  1  0
  3 24  1  0
  4 25  1  0
  5 26  1  0
  7 27  1  0
  9 28  1  0
 11 29  1  0
 13 30  1  6
 14 31  1  0
 14 32  1  0
 15 33  1  1
 17 34  1  0
 18 35  1  0
 19 36  1  0
M  ISO  8  21  13  22  13  23  13  24  13  26  13  27  14  28  14  29  14
M  ISO  7  30  13  31  13  32  13  33  13  34  14  35  14  36  14
M  END
>  <minimizedAffinity>  (1) 
-4.52772808

>  <minimizedRMSD>  (1) 
6.26721334

$$$$
