
     RDKit          3D

 36 39  0  0  1  0  0  0  0  0999 V2000
   39.7350   23.4710   36.3430 N   0  0  0  0  0  0  0  0  0  0  0  0
   39.9120   22.7720   37.6080 C   0  0  0  0  0  0  0  0  0  0  0  0
   39.0090   23.2610   38.6910 C   0  0  0  0  0  0  0  0  0  0  0  0
   37.7150   23.5180   38.1910 N   0  0  0  0  0  0  0  0  0  0  0  0
   37.5380   24.3230   37.0330 C   0  0  0  0  0  0  0  0  0  0  0  0
   38.6160   24.2860   36.0480 C   0  0  0  0  0  0  0  0  0  0  0  0
   40.7070   22.3950   34.3200 C   0  0  0  0  0  0  0  0  0  0  0  0
   40.7230   23.3470   35.3620 C   0  0  0  0  0  0  0  0  0  0  0  0
   41.8380   24.2090   35.3640 C   0  0  0  0  0  0  0  0  0  0  0  0
   42.8200   24.1260   34.4310 N   0  0  0  0  0  0  0  0  0  0  0  0
   42.7460   23.1940   33.4610 C   0  0  0  0  0  0  0  0  0  0  0  0
   41.7060   22.3500   33.4160 N   0  0  0  0  0  0  0  0  0  0  0  0
   38.3510   25.0770   34.8600 C   0  0  2  0  0  0  0  0  0  0  0  0
   38.8610   26.5290   35.0340 C   0  0  0  0  0  0  0  0  0  0  0  0
   37.4370   26.1970   34.7430 C   0  0  1  0  0  0  0  0  0  0  0  0
   36.9830   26.5740   33.3960 N   0  0  0  0  0  0  0  0  0  0  0  0
   36.7010   27.7560   32.8440 C   0  0  0  0  0  0  0  0  0  0  0  0
   36.3110   27.5620   31.5340 C   0  0  0  0  0  0  0  0  0  0  0  0
   36.3670   26.2360   31.3100 N   0  0  0  0  0  0  0  0  0  0  0  0
   36.7760   25.6240   32.4390 C   0  0  0  0  0  0  0  0  0  0  0  0
   39.7129   21.7025   37.4454 H   0  0  0  0  0  0  0  0  0  0  0  0
   40.9442   22.9592   37.9389 H   0  0  0  0  0  0  0  0  0  0  0  0
   38.9451   22.4962   39.4791 H   0  0  0  0  0  0  0  0  0  0  0  0
   39.4212   24.1970   39.0958 H   0  0  0  0  0  0  0  0  0  0  0  0
   36.8935   23.1198   38.6680 H   0  0  0  0  0  0  0  0  0  0  0  0
   36.6390   24.9397   36.8867 H   0  0  0  0  0  0  0  0  0  0  0  0
   39.8717   21.6833   34.2449 H   0  0  0  0  0  0  0  0  0  0  0  0
   41.9150   24.9757   36.1490 H   0  0  0  0  0  0  0  0  0  0  0  0
   43.5412   23.1256   32.7040 H   0  0  0  0  0  0  0  0  0  0  0  0
   38.4410   24.1914   34.2137 H   0  0  0  0  0  0  0  0  0  0  0  0
   39.1558   26.9020   36.0259 H   0  0  0  0  0  0  0  0  0  0  0  0
   39.6399   27.1582   34.5786 H   0  0  0  0  0  0  0  0  0  0  0  0
   36.4738   26.4182   35.2260 H   0  0  0  0  0  0  0  0  0  0  0  0
   36.7686   28.7294   33.3518 H   0  0  0  0  0  0  0  0  0  0  0  0
   36.0129   28.3388   30.8144 H   0  0  0  0  0  0  0  0  0  0  0  0
   36.9189   24.5409   32.5672 H   0  0  0  0  0  0  0  0  0  0  0  0
  1  2  1  0
  2  3  1  0
  4  3  1  0
  5  4  1  0
  6  1  1  0
  6  5  2  0
  7  8  2  0
  8  9  1  0
  8  1  1  0
 10  9  2  0
 11 10  1  0
 12 11  2  0
 12  7  1  0
 13 14  1  0
 13  6  1  0
 15 13  1  0
 15 14  1  0
 16 15  1  0
 17 16  1  0
 18 17  2  0
 19 18  1  0
 19 20  2  0
 20 16  1  0
  2 21  1  0
  2 22  1  0
  3 23  1  0
  3 24  1  0
  4 25  1  0
  5 26  1  0
  7 27  1  0
  9 28  1  0
 11 29  1  0
 13 30  1  6
 14 31  1  0
 14 32  1  0
 15 33  1  1
 17 34  1  0
 18 35  1  0
 20 36  1  0
M  ISO  8  21  13  22  13  23  13  24  13  26  13  27  14  28  14  29  14
M  ISO  7  30  13  31  13  32  13  33  13  34  14  35  14  36  14
M  END
>  <minimizedAffinity>  (1) 
-4.40414572

>  <minimizedRMSD>  (1) 
5.62599659

$$$$
