
     RDKit          3D

 36 39  0  0  1  0  0  0  0  0999 V2000
   39.5780   24.0550   33.8600 N   0  0  0  0  0  0  0  0  0  0  0  0
   41.0090   24.2660   33.6450 C   0  0  0  0  0  0  0  0  0  0  0  0
   41.8080   23.0060   33.6220 C   0  0  0  0  0  0  0  0  0  0  0  0
   41.1160   21.9830   32.9420 N   0  0  0  0  0  0  0  0  0  0  0  0
   39.7600   21.6760   33.2710 C   0  0  0  0  0  0  0  0  0  0  0  0
   38.9590   22.7910   33.7450 C   0  0  0  0  0  0  0  0  0  0  0  0
   37.9210   25.8300   33.3260 C   0  0  0  0  0  0  0  0  0  0  0  0
   38.7840   25.1510   34.2090 C   0  0  0  0  0  0  0  0  0  0  0  0
   38.8140   25.6460   35.5280 C   0  0  0  0  0  0  0  0  0  0  0  0
   38.0620   26.7040   35.9150 N   0  0  0  0  0  0  0  0  0  0  0  0
   37.2530   27.3140   35.0180 C   0  0  0  0  0  0  0  0  0  0  0  0
   37.1890   26.8800   33.7500 N   0  0  0  0  0  0  0  0  0  0  0  0
   37.5670   22.4370   33.9910 C   0  0  2  0  0  0  0  0  0  0  0  0
   37.3730   21.9110   35.4350 C   0  0  0  0  0  0  0  0  0  0  0  0
   37.0320   21.1110   34.2230 C   0  0  1  0  0  0  0  0  0  0  0  0
   35.6080   20.7460   33.9320 C   0  0  0  0  0  0  0  0  0  0  0  0
   35.4730   19.4690   33.0700 C   0  0  0  0  0  0  0  0  0  0  0  0
   35.1070   20.8520   32.5650 C   0  0  0  0  0  0  0  0  0  0  0  0
   41.1427   24.7788   32.6811 H   0  0  0  0  0  0  0  0  0  0  0  0
   41.3756   24.8617   34.4940 H   0  0  0  0  0  0  0  0  0  0  0  0
   42.7638   23.1951   33.1114 H   0  0  0  0  0  0  0  0  0  0  0  0
   41.9832   22.6824   34.6586 H   0  0  0  0  0  0  0  0  0  0  0  0
   41.5932   21.4513   32.2001 H   0  0  0  0  0  0  0  0  0  0  0  0
   39.3491   20.6605   33.1717 H   0  0  0  0  0  0  0  0  0  0  0  0
   37.8436   25.4999   32.2795 H   0  0  0  0  0  0  0  0  0  0  0  0
   39.4681   25.1583   36.2658 H   0  0  0  0  0  0  0  0  0  0  0  0
   36.6422   28.1736   35.3313 H   0  0  0  0  0  0  0  0  0  0  0  0
   37.2164   23.2072   33.2882 H   0  0  0  0  0  0  0  0  0  0  0  0
   38.2425   21.6443   36.0538 H   0  0  0  0  0  0  0  0  0  0  0  0
   36.8467   22.2474   36.3405 H   0  0  0  0  0  0  0  0  0  0  0  0
   37.3214   20.1187   33.8467 H   0  0  0  0  0  0  0  0  0  0  0  0
   35.2242   21.1223   34.8917 H   0  0  0  0  0  0  0  0  0  0  0  0
   36.3680   18.9546   32.6901 H   0  0  0  0  0  0  0  0  0  0  0  0
   34.9676   18.4964   33.1626 H   0  0  0  0  0  0  0  0  0  0  0  0
   35.7292   21.3307   31.7945 H   0  0  0  0  0  0  0  0  0  0  0  0
   34.2005   21.2847   32.1166 H   0  0  0  0  0  0  0  0  0  0  0  0
  1  8  1  0
  2  1  1  0
  3  2  1  0
  4  5  1  0
  4  3  1  0
  5  6  2  0
  6  1  1  0
  6 13  1  0
  7 12  2  0
  7  8  1  0
  8  9  2  0
  9 10  1  0
 11 10  2  0
 12 11  1  0
 13 15  1  0
 13 14  1  0
 15 14  1  0
 16 15  1  0
 17 16  1  0
 18 17  1  0
 18 16  1  0
  2 19  1  0
  2 20  1  0
  3 21  1  0
  3 22  1  0
  4 23  1  0
  5 24  1  0
  7 25  1  0
  9 26  1  0
 11 27  1  0
 13 28  1  1
 14 29  1  0
 14 30  1  0
 15 31  1  6
 16 32  1  0
 17 33  1  0
 17 34  1  0
 18 35  1  0
 18 36  1  0
M  ISO  8  19  13  20  13  21  13  22  13  24  13  25  14  26  14  27  14
M  ISO  8  28  13  29  13  30  13  31  13  32  13  33  13  34  13  35  13
M  ISO  1  36  13
M  END
>  <minimizedAffinity>  (1) 
-3.6831696

>  <minimizedRMSD>  (1) 
3.31371188

$$$$
