
     RDKit          3D

 50 55  0  0  1  0  0  0  0  0999 V2000
   38.0880   22.8250   33.8130 C   0  0  2  0  0  0  0  0  0  0  0  0
   37.2860   21.7580   34.6160 C   0  0  0  0  0  0  0  0  0  0  0  0
   37.3100   21.8440   33.1140 C   0  0  1  0  0  0  0  0  0  0  0  0
   40.3020   23.7010   34.8480 N   0  0  0  0  0  0  0  0  0  0  0  0
   41.7020   23.4640   35.1770 C   0  0  0  0  0  0  0  0  0  0  0  0
   42.1300   22.0370   35.0200 C   0  0  0  0  0  0  0  0  0  0  0  0
   41.5630   21.4850   33.8570 N   0  0  0  0  0  0  0  0  0  0  0  0
   40.1640   21.5840   33.6180 C   0  0  0  0  0  0  0  0  0  0  0  0
   39.5120   22.7680   34.1460 C   0  0  0  0  0  0  0  0  0  0  0  0
   39.9610   26.1520   34.7110 C   0  0  0  0  0  0  0  0  0  0  0  0
   39.7060   24.8870   35.2460 C   0  0  0  0  0  0  0  0  0  0  0  0
   38.7410   24.8700   36.2860 C   0  0  0  0  0  0  0  0  0  0  0  0
   38.1240   25.9910   36.7190 N   0  0  0  0  0  0  0  0  0  0  0  0
   38.4200   27.1740   36.1580 C   0  0  0  0  0  0  0  0  0  0  0  0
   39.3180   27.2430   35.1770 N   0  0  0  0  0  0  0  0  0  0  0  0
   36.0670   22.1750   32.3630 C   0  0  2  0  0  0  0  0  0  0  0  0
   36.0260   21.5930   30.9440 C   0  0  0  0  0  0  0  0  0  0  0  0
   36.1080   23.0860   31.2430 C   0  0  2  0  0  0  0  0  0  0  0  0
   37.2540   23.8380   30.7390 C   0  0  0  0  0  0  0  0  0  0  0  0
   38.2080   23.4350   29.8990 N   0  0  0  0  0  0  0  0  0  0  0  0
   39.2080   24.2400   29.5250 C   0  0  0  0  0  0  0  0  0  0  0  0
   39.3210   25.5220   29.9740 N   0  0  0  0  0  0  0  0  0  0  0  0
   38.3790   26.0090   30.8370 C   0  0  0  0  0  0  0  0  0  0  0  0
   38.5240   27.3090   31.2660 C   0  0  0  0  0  0  0  0  0  0  0  0
   37.5820   27.8060   32.1310 C   0  0  0  0  0  0  0  0  0  0  0  0
   36.5400   27.0120   32.5390 C   0  0  0  0  0  0  0  0  0  0  0  0
   36.4650   25.7190   32.0640 C   0  0  0  0  0  0  0  0  0  0  0  0
   37.3670   25.1420   31.1940 C   0  0  0  0  0  0  0  0  0  0  0  0
   38.1528   23.9054   33.6169 H   0  0  0  0  0  0  0  0  0  0  0  0
   37.8057   20.9422   35.1398 H   0  0  0  0  0  0  0  0  0  0  0  0
   36.5213   21.7576   35.4068 H   0  0  0  0  0  0  0  0  0  0  0  0
   37.5639   21.1437   32.3046 H   0  0  0  0  0  0  0  0  0  0  0  0
   42.3231   24.0864   34.5161 H   0  0  0  0  0  0  0  0  0  0  0  0
   41.8277   23.7197   36.2395 H   0  0  0  0  0  0  0  0  0  0  0  0
   43.2266   21.9926   34.9459 H   0  0  0  0  0  0  0  0  0  0  0  0
   41.7890   21.4618   35.8934 H   0  0  0  0  0  0  0  0  0  0  0  0
   42.1655   21.0053   33.1730 H   0  0  0  0  0  0  0  0  0  0  0  0
   39.6102   20.8100   33.0664 H   0  0  0  0  0  0  0  0  0  0  0  0
   40.6955   26.2601   33.8993 H   0  0  0  0  0  0  0  0  0  0  0  0
   38.4860   23.9091   36.7568 H   0  0  0  0  0  0  0  0  0  0  0  0
   37.9197   28.0885   36.5093 H   0  0  0  0  0  0  0  0  0  0  0  0
   35.4369   22.1530   33.2644 H   0  0  0  0  0  0  0  0  0  0  0  0
   35.1002   21.1517   30.5464 H   0  0  0  0  0  0  0  0  0  0  0  0
   36.6076   20.8616   30.3637 H   0  0  0  0  0  0  0  0  0  0  0  0
   35.5234   23.9972   31.0481 H   0  0  0  0  0  0  0  0  0  0  0  0
   39.9674   23.8534   28.8294 H   0  0  0  0  0  0  0  0  0  0  0  0
   39.3671   27.9287   30.9266 H   0  0  0  0  0  0  0  0  0  0  0  0
   37.6621   28.8402   32.4971 H   0  0  0  0  0  0  0  0  0  0  0  0
   35.7786   27.3993   33.2320 H   0  0  0  0  0  0  0  0  0  0  0  0
   35.6215   25.1007   32.4050 H   0  0  0  0  0  0  0  0  0  0  0  0
  1  9  1  0
  1  2  1  0
  3  1  1  0
  3  2  1  0
  4  5  1  0
  4 11  1  0
  6  5  1  0
  7  6  1  0
  8  7  1  0
  8  9  2  0
  9  4  1  0
 10 15  2  0
 10 11  1  0
 11 12  2  0
 12 13  1  0
 14 13  2  0
 15 14  1  0
 16  3  1  0
 17 18  1  0
 17 16  1  0
 18 16  1  0
 19 28  1  0
 19 18  1  0
 20 19  2  0
 21 20  1  0
 21 22  2  0
 22 23  1  0
 23 28  2  0
 23 24  1  0
 24 25  2  0
 25 26  1  0
 27 26  2  0
 28 27  1  0
  1 29  1  1
  2 30  1  0
  2 31  1  0
  3 32  1  6
  5 33  1  0
  5 34  1  0
  6 35  1  0
  6 36  1  0
  7 37  1  0
  8 38  1  0
 10 39  1  0
 12 40  1  0
 14 41  1  0
 16 42  1  1
 17 43  1  0
 17 44  1  0
 18 45  1  1
 21 46  1  0
 24 47  1  0
 25 48  1  0
 26 49  1  0
 27 50  1  0
M  ISO  8  29  13  30  13  31  13  32  13  33  13  34  13  35  13  36  13
M  ISO  8  38  13  39  14  40  14  41  14  42  13  43  13  44  13  45  13
M  ISO  5  46  14  47  14  48  14  49  14  50  14
M  END
>  <minimizedAffinity>  (1) 
-5.42898178

>  <minimizedRMSD>  (1) 
2.64160681

$$$$
