
     RDKit          3D

 38 41  0  0  1  0  0  0  0  0999 V2000
   38.7620   24.2790   36.3290 N   0  0  0  0  0  0  0  0  0  0  0  0
   37.5270   24.1390   37.0990 C   0  0  0  0  0  0  0  0  0  0  0  0
   37.5170   22.9650   38.0290 C   0  0  0  0  0  0  0  0  0  0  0  0
   38.7730   22.8030   38.6370 N   0  0  0  0  0  0  0  0  0  0  0  0
   39.9720   22.8030   37.8670 C   0  0  0  0  0  0  0  0  0  0  0  0
   39.9440   23.5960   36.6540 C   0  0  0  0  0  0  0  0  0  0  0  0
   39.2250   26.4360   35.2020 C   0  0  0  0  0  0  0  0  0  0  0  0
   38.7680   25.1150   35.2220 C   0  0  0  0  0  0  0  0  0  0  0  0
   38.2810   24.6370   33.9790 C   0  0  0  0  0  0  0  0  0  0  0  0
   38.2630   25.4050   32.8660 N   0  0  0  0  0  0  0  0  0  0  0  0
   38.7200   26.6660   32.9230 C   0  0  0  0  0  0  0  0  0  0  0  0
   39.1880   27.1650   34.0660 N   0  0  0  0  0  0  0  0  0  0  0  0
   41.2320   23.5880   35.9470 C   0  0  2  0  0  0  0  0  0  0  0  0
   41.6060   22.1440   35.4980 C   0  0  0  0  0  0  0  0  0  0  0  0
   42.4700   23.0040   36.3750 C   0  0  1  0  0  0  0  0  0  0  0  0
   43.8010   23.4830   35.8900 C   0  0  2  0  0  0  0  0  0  0  0  0
   44.6120   24.2390   36.9750 C   0  0  0  0  0  0  0  0  0  0  0  0
   44.0320   24.9170   35.7650 C   0  0  1  0  0  0  0  0  0  0  0  0
   45.0630   25.4810   34.8440 C   0  0  0  0  0  0  0  0  0  0  0  0
   44.5940   25.0080   33.8040 O   0  0  0  0  0  0  0  0  0  0  0  0
   37.3856   25.0529   37.6946 H   0  0  0  0  0  0  0  0  0  0  0  0
   36.7168   23.9760   36.3730 H   0  0  0  0  0  0  0  0  0  0  0  0
   36.7571   23.1275   38.8076 H   0  0  0  0  0  0  0  0  0  0  0  0
   37.2838   22.0582   37.4517 H   0  0  0  0  0  0  0  0  0  0  0  0
   38.8283   22.6820   39.6584 H   0  0  0  0  0  0  0  0  0  0  0  0
   40.8634   22.2364   38.1741 H   0  0  0  0  0  0  0  0  0  0  0  0
   39.6200   26.8876   36.1240 H   0  0  0  0  0  0  0  0  0  0  0  0
   37.9046   23.6052   33.9179 H   0  0  0  0  0  0  0  0  0  0  0  0
   38.7079   27.2922   32.0187 H   0  0  0  0  0  0  0  0  0  0  0  0
   41.0582   24.6068   35.5703 H   0  0  0  0  0  0  0  0  0  0  0  0
   41.0772   21.2729   35.9123 H   0  0  0  0  0  0  0  0  0  0  0  0
   41.7169   21.6044   34.5459 H   0  0  0  0  0  0  0  0  0  0  0  0
   42.9221   22.8764   37.3697 H   0  0  0  0  0  0  0  0  0  0  0  0
   43.9542   22.6387   35.2017 H   0  0  0  0  0  0  0  0  0  0  0  0
   44.1823   24.4138   37.9724 H   0  0  0  0  0  0  0  0  0  0  0  0
   45.6077   24.1451   37.4330 H   0  0  0  0  0  0  0  0  0  0  0  0
   43.3241   25.7321   35.5539 H   0  0  0  0  0  0  0  0  0  0  0  0
   45.9467   26.1091   35.0300 H   0  0  0  0  0  0  0  0  0  0  0  0
  1  6  1  0
  1  2  1  0
  2  3  1  0
  3  4  1  0
  5  4  1  0
  6  5  2  0
  7  8  2  0
  8  1  1  0
  9  8  1  0
 10 11  1  0
 10  9  2  0
 11 12  2  0
 12  7  1  0
 13 15  1  0
 13  6  1  0
 14 13  1  0
 14 15  1  0
 16 15  1  0
 16 17  1  0
 18 16  1  0
 18 17  1  0
 19 18  1  0
 20 19  2  0
  2 21  1  0
  2 22  1  0
  3 23  1  0
  3 24  1  0
  4 25  1  0
  5 26  1  0
  7 27  1  0
  9 28  1  0
 11 29  1  0
 13 30  1  6
 14 31  1  0
 14 32  1  0
 15 33  1  1
 16 34  1  6
 17 35  1  0
 17 36  1  0
 18 37  1  1
 19 38  1  0
M  ISO  8  21  13  22  13  23  13  24  13  26  13  27  14  28  14  29  14
M  ISO  8  30  13  31  13  32  13  33  13  34  13  35  13  36  13  37  13
M  ISO  1  38   6
M  END
>  <minimizedAffinity>  (1) 
-4.59013987

>  <minimizedRMSD>  (1) 
6.51198769

$$$$
