
     RDKit          3D

 44 48  0  0  1  0  0  0  0  0999 V2000
   41.5000   23.3700   35.6100 N   0  0  0  0  0  0  0  0  0  0  0  0
   42.3060   22.2770   36.1540 C   0  0  0  0  0  0  0  0  0  0  0  0
   41.7380   21.6600   37.3950 C   0  0  0  0  0  0  0  0  0  0  0  0
   40.3420   21.5400   37.2900 N   0  0  0  0  0  0  0  0  0  0  0  0
   39.5360   22.6450   36.8850 C   0  0  0  0  0  0  0  0  0  0  0  0
   40.1690   23.5990   35.9950 C   0  0  0  0  0  0  0  0  0  0  0  0
   42.1060   24.0240   33.3010 C   0  0  0  0  0  0  0  0  0  0  0  0
   42.0730   24.2270   34.6830 C   0  0  0  0  0  0  0  0  0  0  0  0
   42.6910   25.4280   35.1190 C   0  0  0  0  0  0  0  0  0  0  0  0
   43.2640   26.2990   34.2570 N   0  0  0  0  0  0  0  0  0  0  0  0
   43.2530   26.0290   32.9390 C   0  0  0  0  0  0  0  0  0  0  0  0
   42.6870   24.9190   32.4740 N   0  0  0  0  0  0  0  0  0  0  0  0
   39.2610   24.6760   35.5890 C   0  0  2  0  0  0  0  0  0  0  0  0
   38.3130   24.1990   34.4490 C   0  0  0  0  0  0  0  0  0  0  0  0
   39.2310   25.3840   34.3430 C   0  0  1  0  0  0  0  0  0  0  0  0
   38.6650   26.7610   34.2010 C   0  0  2  0  0  0  0  0  0  0  0  0
   38.4110   27.4600   35.5660 C   0  0  0  0  0  0  0  0  0  0  0  0
   37.3030   27.0140   34.6520 C   0  0  1  0  0  0  0  0  0  0  0  0
   36.5490   28.1380   34.0330 C   0  0  0  0  0  0  0  0  0  0  0  0
   36.4560   28.1320   32.6620 C   0  0  0  0  0  0  0  0  0  0  0  0
   35.7770   29.1300   31.9620 C   0  0  0  0  0  0  0  0  0  0  0  0
   35.1910   30.1330   32.6550 N   0  0  0  0  0  0  0  0  0  0  0  0
   35.3020   30.1060   33.9990 C   0  0  0  0  0  0  0  0  0  0  0  0
   35.9500   29.1550   34.6670 N   0  0  0  0  0  0  0  0  0  0  0  0
   42.3904   21.4941   35.3860 H   0  0  0  0  0  0  0  0  0  0  0  0
   43.2803   22.7069   36.4297 H   0  0  0  0  0  0  0  0  0  0  0  0
   42.1776   20.6617   37.5368 H   0  0  0  0  0  0  0  0  0  0  0  0
   41.9762   22.3045   38.2540 H   0  0  0  0  0  0  0  0  0  0  0  0
   39.8932   20.6392   37.5091 H   0  0  0  0  0  0  0  0  0  0  0  0
   38.4975   22.7661   37.2270 H   0  0  0  0  0  0  0  0  0  0  0  0
   41.6495   23.1168   32.8784 H   0  0  0  0  0  0  0  0  0  0  0  0
   42.7045   25.6584   36.1945 H   0  0  0  0  0  0  0  0  0  0  0  0
   43.7185   26.7360   32.2365 H   0  0  0  0  0  0  0  0  0  0  0  0
   39.2689   25.0959   36.6057 H   0  0  0  0  0  0  0  0  0  0  0  0
   38.5248   23.2736   33.8934 H   0  0  0  0  0  0  0  0  0  0  0  0
   37.2367   24.0058   34.3299 H   0  0  0  0  0  0  0  0  0  0  0  0
   40.0289   25.6821   33.6469 H   0  0  0  0  0  0  0  0  0  0  0  0
   39.1927   26.9790   33.2608 H   0  0  0  0  0  0  0  0  0  0  0  0
   38.6042   26.9291   36.5098 H   0  0  0  0  0  0  0  0  0  0  0  0
   38.7156   28.4013   36.0469 H   0  0  0  0  0  0  0  0  0  0  0  0
   36.4274   26.3540   34.7405 H   0  0  0  0  0  0  0  0  0  0  0  0
   36.9315   27.3153   32.0990 H   0  0  0  0  0  0  0  0  0  0  0  0
   35.7192   29.1015   30.8639 H   0  0  0  0  0  0  0  0  0  0  0  0
   34.8303   30.9156   34.5752 H   0  0  0  0  0  0  0  0  0  0  0  0
  1  6  1  0
  1  2  1  0
  2  3  1  0
  4  3  1  0
  5  4  1  0
  6  5  2  0
  7  8  2  0
  8  9  1  0
  8  1  1  0
 10  9  2  0
 11 10  1  0
 12 11  2  0
 12  7  1  0
 13  6  1  0
 14 13  1  0
 15 14  1  0
 15 13  1  0
 16 15  1  0
 16 18  1  0
 16 17  1  0
 18 17  1  0
 19 18  1  0
 19 24  1  0
 20 19  2  0
 21 22  2  0
 21 20  1  0
 22 23  1  0
 23 24  2  0
  2 25  1  0
  2 26  1  0
  3 27  1  0
  3 28  1  0
  4 29  1  0
  5 30  1  0
  7 31  1  0
  9 32  1  0
 11 33  1  0
 13 34  1  1
 14 35  1  0
 14 36  1  0
 15 37  1  6
 16 38  1  6
 17 39  1  0
 17 40  1  0
 18 41  1  1
 20 42  1  0
 21 43  1  0
 23 44  1  0
M  ISO  8  25  13  26  13  27  13  28  13  30  13  31  14  32  14  33  14
M  ISO  8  34  13  35  13  36  13  37  13  38  13  39  13  40  13  41  13
M  ISO  3  42  14  43  14  44  14
M  END
>  <minimizedAffinity>  (1) 
-5.11245823

>  <minimizedRMSD>  (1) 
6.16098928

$$$$
