
     RDKit          3D

 46 50  0  0  1  0  0  0  0  0999 V2000
   38.2590   22.1290   34.0130 C   0  0  2  0  0  0  0  0  0  0  0  0
   37.4970   21.8610   35.3420 C   0  0  0  0  0  0  0  0  0  0  0  0
   38.7260   22.7220   35.2320 C   0  0  1  0  0  0  0  0  0  0  0  0
   36.4860   22.0790   32.1270 N   0  0  0  0  0  0  0  0  0  0  0  0
   35.6080   22.8130   31.2120 C   0  0  0  0  0  0  0  0  0  0  0  0
   35.4780   24.2710   31.5270 C   0  0  0  0  0  0  0  0  0  0  0  0
   36.7150   24.8030   31.9260 N   0  0  0  0  0  0  0  0  0  0  0  0
   37.5020   24.1610   32.9230 C   0  0  0  0  0  0  0  0  0  0  0  0
   37.3710   22.7200   33.0050 C   0  0  0  0  0  0  0  0  0  0  0  0
   37.3140   19.8480   31.4500 C   0  0  0  0  0  0  0  0  0  0  0  0
   36.4350   20.6920   32.1350 C   0  0  0  0  0  0  0  0  0  0  0  0
   35.4280   20.0320   32.8860 C   0  0  0  0  0  0  0  0  0  0  0  0
   35.3350   18.6840   32.9280 N   0  0  0  0  0  0  0  0  0  0  0  0
   36.2120   17.9320   32.2450 C   0  0  0  0  0  0  0  0  0  0  0  0
   37.1750   18.5040   31.5260 N   0  0  0  0  0  0  0  0  0  0  0  0
   39.9970   22.3060   35.9050 C   0  0  2  0  0  0  0  0  0  0  0  0
   40.1210   22.8320   37.3590 C   0  0  0  0  0  0  0  0  0  0  0  0
   40.9870   23.3220   36.2340 C   0  0  1  0  0  0  0  0  0  0  0  0
   42.4440   22.9660   36.2180 C   0  0  0  0  0  0  0  0  0  0  0  0
   42.7520   21.6380   36.0350 C   0  0  0  0  0  0  0  0  0  0  0  0
   44.1020   21.3300   36.0220 C   0  0  0  0  0  0  0  0  0  0  0  0
   45.0750   22.3090   36.1860 C   0  0  0  0  0  0  0  0  0  0  0  0
   44.7330   23.6280   36.3680 C   0  0  0  0  0  0  0  0  0  0  0  0
   43.4100   23.9640   36.3850 C   0  0  0  0  0  0  0  0  0  0  0  0
   38.8511   21.6334   33.2296 H   0  0  0  0  0  0  0  0  0  0  0  0
   36.5103   22.3120   35.5239 H   0  0  0  0  0  0  0  0  0  0  0  0
   37.1846   20.9808   35.9231 H   0  0  0  0  0  0  0  0  0  0  0  0
   38.9673   23.7609   35.5013 H   0  0  0  0  0  0  0  0  0  0  0  0
   34.6068   22.3595   31.2559 H   0  0  0  0  0  0  0  0  0  0  0  0
   36.0625   22.7438   30.2127 H   0  0  0  0  0  0  0  0  0  0  0  0
   35.1271   24.8044   30.6313 H   0  0  0  0  0  0  0  0  0  0  0  0
   34.7577   24.3932   32.3494 H   0  0  0  0  0  0  0  0  0  0  0  0
   37.0579   25.6711   31.4904 H   0  0  0  0  0  0  0  0  0  0  0  0
   38.1696   24.7247   33.5912 H   0  0  0  0  0  0  0  0  0  0  0  0
   38.1248   20.2796   30.8447 H   0  0  0  0  0  0  0  0  0  0  0  0
   34.7017   20.6350   33.4506 H   0  0  0  0  0  0  0  0  0  0  0  0
   36.1344   16.8353   32.2797 H   0  0  0  0  0  0  0  0  0  0  0  0
   40.0625   21.3410   35.3811 H   0  0  0  0  0  0  0  0  0  0  0  0
   39.3417   23.4800   37.7866 H   0  0  0  0  0  0  0  0  0  0  0  0
   40.2833   22.3905   38.3533 H   0  0  0  0  0  0  0  0  0  0  0  0
   41.2124   24.3195   35.8287 H   0  0  0  0  0  0  0  0  0  0  0  0
   41.9754   20.8696   35.9071 H   0  0  0  0  0  0  0  0  0  0  0  0
   44.4121   20.2845   35.8783 H   0  0  0  0  0  0  0  0  0  0  0  0
   46.1371   22.0234   36.1699 H   0  0  0  0  0  0  0  0  0  0  0  0
   45.5092   24.3966   36.4972 H   0  0  0  0  0  0  0  0  0  0  0  0
   43.1059   25.0113   36.5289 H   0  0  0  0  0  0  0  0  0  0  0  0
  1  3  1  0
  1  2  1  0
  3  2  1  0
  3 16  1  0
  4 11  1  0
  4  9  1  0
  5  6  1  0
  5  4  1  0
  6  7  1  0
  7  8  1  0
  8  9  2  0
  9  1  1  0
 10 15  2  0
 10 11  1  0
 11 12  2  0
 12 13  1  0
 14 13  2  0
 15 14  1  0
 16 18  1  0
 16 17  1  0
 18 17  1  0
 19 18  1  0
 19 24  1  0
 20 19  2  0
 21 20  1  0
 21 22  2  0
 22 23  1  0
 23 24  2  0
  1 25  1  6
  2 26  1  0
  2 27  1  0
  3 28  1  6
  5 29  1  0
  5 30  1  0
  6 31  1  0
  6 32  1  0
  7 33  1  0
  8 34  1  0
 10 35  1  0
 12 36  1  0
 14 37  1  0
 16 38  1  1
 17 39  1  0
 17 40  1  0
 18 41  1  6
 20 42  1  0
 21 43  1  0
 22 44  1  0
 23 45  1  0
 24 46  1  0
M  ISO  8  25  13  26  13  27  13  28  13  29  13  30  13  31  13  32  13
M  ISO  8  34  13  35  14  36  14  37  14  38  13  39  13  40  13  41  13
M  ISO  5  42  14  43  14  44  14  45  14  46  14
M  END
>  <minimizedAffinity>  (1) 
-5.28767443

>  <minimizedRMSD>  (1) 
8.10738087

$$$$
