
     RDKit          3D

 27 29  0  0  0  0  0  0  0  0999 V2000
   40.3200   23.0590   35.6700 C   0  0  0  0  0  0  0  0  0  0  0  0
   39.7810   23.0220   36.9800 C   0  0  0  0  0  0  0  0  0  0  0  0
   38.7030   23.8870   37.2360 C   0  0  0  0  0  0  0  0  0  0  0  0
   38.2550   24.6820   36.2470 N   0  0  0  0  0  0  0  0  0  0  0  0
   38.8070   24.6800   35.0050 C   0  0  0  0  0  0  0  0  0  0  0  0
   39.8380   23.8650   34.7320 N   0  0  0  0  0  0  0  0  0  0  0  0
   38.2660   25.5620   34.0090 N   0  0  0  0  0  0  0  0  0  0  0  0
   38.5090   26.8910   33.9880 C   0  0  0  0  0  0  0  0  0  0  0  0
   37.8420   27.4110   32.9170 N   0  0  0  0  0  0  0  0  0  0  0  0
   37.2190   26.3880   32.3220 C   0  0  0  0  0  0  0  0  0  0  0  0
   36.4110   26.3780   31.1950 C   0  0  0  0  0  0  0  0  0  0  0  0
   36.1520   27.4180   30.5520 O   0  0  0  0  0  0  0  0  0  0  0  0
   35.9010   25.2090   30.7980 N   0  0  0  0  0  0  0  0  0  0  0  0
   36.1600   24.0650   31.4710 C   0  0  0  0  0  0  0  0  0  0  0  0
   35.5580   22.8840   30.9500 N   0  0  0  0  0  0  0  0  0  0  0  0
   36.9420   24.0260   32.5740 N   0  0  0  0  0  0  0  0  0  0  0  0
   37.4720   25.2070   32.9960 C   0  0  0  0  0  0  0  0  0  0  0  0
   38.1800   23.8170   38.5950 C   0  0  0  0  0  0  0  0  0  0  0  0
   37.5920   25.0270   38.9210 F   0  0  0  0  0  0  0  0  0  0  0  0
   39.2590   23.7010   39.4490 F   0  0  0  0  0  0  0  0  0  0  0  0
   37.2560   22.8250   38.7830 F   0  0  0  0  0  0  0  0  0  0  0  0
   41.1645   22.3990   35.4226 H   0  0  0  0  0  0  0  0  0  0  0  0
   40.1842   22.3528   37.7544 H   0  0  0  0  0  0  0  0  0  0  0  0
   39.1302   27.4508   34.7027 H   0  0  0  0  0  0  0  0  0  0  0  0
   35.2987   25.1783   29.9630 H   0  0  0  0  0  0  0  0  0  0  0  0
   35.7143   21.9782   31.4147 H   0  0  0  0  0  0  0  0  0  0  0  0
   34.9663   22.9357   30.1085 H   0  0  0  0  0  0  0  0  0  0  0  0
  1  2  2  0
  2  3  1  0
  3 18  1  0
  4  3  2  0
  5  4  1  0
  6  5  2  0
  6  1  1  0
  7  5  1  0
  8  7  1  0
  9  8  2  0
 10  9  1  0
 10 17  2  0
 11 10  1  0
 12 11  2  0
 13 11  1  0
 13 14  1  0
 14 16  2  0
 15 14  1  0
 16 17  1  0
 17  7  1  0
 18 21  1  0
 18 19  1  0
 18 20  1  0
  1 22  1  0
  2 23  1  0
  8 24  1  0
 13 25  1  0
 15 26  1  0
 15 27  1  0
M  ISO  4  22  14  23  14  24  14  25   9
M  END
>  <minimizedAffinity>  (1) 
-6.24250793

>  <minimizedRMSD>  (1) 
3.8321991

$$$$
