
     RDKit          3D

 43 46  0  0  1  0  0  0  0  0999 V2000
   38.1510   21.9750   34.4760 C   0  0  2  0  0  0  0  0  0  0  0  0
   37.1590   21.8380   35.6710 C   0  0  0  0  0  0  0  0  0  0  0  0
   38.4880   22.5380   35.7510 C   0  0  1  0  0  0  0  0  0  0  0  0
   36.7490   22.0800   32.2990 N   0  0  0  0  0  0  0  0  0  0  0  0
   36.1150   22.8860   31.2530 C   0  0  0  0  0  0  0  0  0  0  0  0
   36.0180   24.3460   31.5900 C   0  0  0  0  0  0  0  0  0  0  0  0
   37.2060   24.7810   32.2070 N   0  0  0  0  0  0  0  0  0  0  0  0
   37.7540   24.0700   33.3160 C   0  0  0  0  0  0  0  0  0  0  0  0
   37.5060   22.6410   33.3400 C   0  0  0  0  0  0  0  0  0  0  0  0
   37.4940   19.7930   31.7120 C   0  0  0  0  0  0  0  0  0  0  0  0
   36.5910   20.7020   32.2710 C   0  0  0  0  0  0  0  0  0  0  0  0
   35.4320   20.1150   32.8440 C   0  0  0  0  0  0  0  0  0  0  0  0
   35.2210   18.7800   32.8480 N   0  0  0  0  0  0  0  0  0  0  0  0
   36.1360   17.9640   32.2900 C   0  0  0  0  0  0  0  0  0  0  0  0
   37.2400   18.4660   31.7400 N   0  0  0  0  0  0  0  0  0  0  0  0
   39.5710   21.9930   36.6230 C   0  0  2  0  0  0  0  0  0  0  0  0
   39.9760   22.9510   37.7750 C   0  0  0  0  0  0  0  0  0  0  0  0
   40.8790   22.6370   36.6160 C   0  0  1  0  0  0  0  0  0  0  0  0
   42.0650   21.8720   37.0230 N   0  0  0  0  0  0  0  0  0  0  0  0
   42.5870   20.8320   36.2070 C   0  0  0  0  0  0  0  0  0  0  0  0
   42.4600   20.9610   34.9290 N   0  0  0  0  0  0  0  0  0  0  0  0
   43.2130   19.7210   36.8390 N   0  0  0  0  0  0  0  0  0  0  0  0
   42.8630   20.1630   34.3570 H   0  0  0  0  0  0  0  0  0  0  0  0
   38.7957   21.3933   33.8008 H   0  0  0  0  0  0  0  0  0  0  0  0
   36.2205   22.4115   35.6900 H   0  0  0  0  0  0  0  0  0  0  0  0
   36.6510   21.0191   36.2014 H   0  0  0  0  0  0  0  0  0  0  0  0
   38.8124   23.5466   36.0466 H   0  0  0  0  0  0  0  0  0  0  0  0
   35.0986   22.5001   31.0857 H   0  0  0  0  0  0  0  0  0  0  0  0
   36.7481   22.8047   30.3572 H   0  0  0  0  0  0  0  0  0  0  0  0
   35.8555   24.9222   30.6672 H   0  0  0  0  0  0  0  0  0  0  0  0
   35.1764   24.5003   32.2813 H   0  0  0  0  0  0  0  0  0  0  0  0
   37.6850   25.6218   31.8540 H   0  0  0  0  0  0  0  0  0  0  0  0
   38.3300   24.5751   34.1054 H   0  0  0  0  0  0  0  0  0  0  0  0
   38.4195   20.1611   31.2452 H   0  0  0  0  0  0  0  0  0  0  0  0
   34.6774   20.7715   33.3019 H   0  0  0  0  0  0  0  0  0  0  0  0
   35.9703   16.8766   32.2886 H   0  0  0  0  0  0  0  0  0  0  0  0
   39.2527   20.9461   36.5101 H   0  0  0  0  0  0  0  0  0  0  0  0
   39.5093   23.9429   37.8662 H   0  0  0  0  0  0  0  0  0  0  0  0
   40.0405   22.8931   38.8716 H   0  0  0  0  0  0  0  0  0  0  0  0
   41.3967   23.2017   35.8266 H   0  0  0  0  0  0  0  0  0  0  0  0
   42.5270   22.0934   37.9165 H   0  0  0  0  0  0  0  0  0  0  0  0
   43.5991   18.9547   36.2692 H   0  0  0  0  0  0  0  0  0  0  0  0
   43.2800   19.6833   37.8661 H   0  0  0  0  0  0  0  0  0  0  0  0
  1  2  1  0
  1  3  1  0
  2  3  1  0
  3 16  1  0
  4  9  1  0
  5  6  1  0
  5  4  1  0
  6  7  1  0
  7  8  1  0
  8  9  2  0
  9  1  1  0
 10 15  2  0
 10 11  1  0
 11  4  1  0
 11 12  2  0
 12 13  1  0
 14 13  2  0
 15 14  1  0
 16 17  1  0
 18 16  1  0
 18 19  1  0
 18 17  1  0
 20 22  1  0
 20 19  1  0
 21 20  2  0
 23 21  1  0
  1 24  1  6
  2 25  1  0
  2 26  1  0
  3 27  1  6
  5 28  1  0
  5 29  1  0
  6 30  1  0
  6 31  1  0
  7 32  1  0
  8 33  1  0
 10 34  1  0
 12 35  1  0
 14 36  1  0
 16 37  1  1
 17 38  1  0
 17 39  1  0
 18 40  1  6
 19 41  1  0
 22 42  1  0
 22 43  1  0
M  ISO  8  24  13  25  13  26  13  27  13  28  13  29  13  30  13  31  13
M  ISO  8  33  13  34  14  35  14  36  14  37  13  38  13  39  13  40  13
M  END
>  <minimizedAffinity>  (1) 
-4.49683809

>  <minimizedRMSD>  (1) 
7.01177597

$$$$
