
     RDKit          3D

 39 42  0  0  1  0  0  0  0  0999 V2000
   39.6220   24.1530   33.7940 N   0  0  0  0  0  0  0  0  0  0  0  0
   41.0580   24.3620   33.6030 C   0  0  0  0  0  0  0  0  0  0  0  0
   41.8540   23.0930   33.5320 C   0  0  0  0  0  0  0  0  0  0  0  0
   41.1610   22.1180   32.7960 N   0  0  0  0  0  0  0  0  0  0  0  0
   39.8020   21.8110   33.0940 C   0  0  0  0  0  0  0  0  0  0  0  0
   39.0040   22.9040   33.6120 C   0  0  0  0  0  0  0  0  0  0  0  0
   37.9830   25.9510   33.3420 C   0  0  0  0  0  0  0  0  0  0  0  0
   38.8320   25.2260   34.1800 C   0  0  0  0  0  0  0  0  0  0  0  0
   38.8600   25.6590   35.5310 C   0  0  0  0  0  0  0  0  0  0  0  0
   38.1150   26.6980   35.9670 N   0  0  0  0  0  0  0  0  0  0  0  0
   37.3170   27.3520   35.1060 C   0  0  0  0  0  0  0  0  0  0  0  0
   37.2580   26.9830   33.8280 N   0  0  0  0  0  0  0  0  0  0  0  0
   37.6040   22.5240   33.8340 C   0  0  2  0  0  0  0  0  0  0  0  0
   37.4220   21.8630   35.2320 C   0  0  0  0  0  0  0  0  0  0  0  0
   37.0530   21.2040   33.9310 C   0  0  1  0  0  0  0  0  0  0  0  0
   35.6220   20.8940   33.6290 C   0  0  2  0  0  0  0  0  0  0  0  0
   35.4120   19.4590   33.0710 C   0  0  0  0  0  0  0  0  0  0  0  0
   35.2150   20.7010   32.2450 C   0  0  2  0  0  0  0  0  0  0  0  0
   36.1530   20.8170   31.0840 C   0  0  0  0  0  0  0  0  0  0  0  0
   41.2052   24.9159   32.6641 H   0  0  0  0  0  0  0  0  0  0  0  0
   41.4191   24.9159   34.4821 H   0  0  0  0  0  0  0  0  0  0  0  0
   42.8183   23.2974   33.0439 H   0  0  0  0  0  0  0  0  0  0  0  0
   42.0177   22.7182   34.5531 H   0  0  0  0  0  0  0  0  0  0  0  0
   41.6404   21.6196   32.0327 H   0  0  0  0  0  0  0  0  0  0  0  0
   39.3839   20.8053   32.9402 H   0  0  0  0  0  0  0  0  0  0  0  0
   37.9035   25.6805   32.2787 H   0  0  0  0  0  0  0  0  0  0  0  0
   39.5089   25.1319   36.2459 H   0  0  0  0  0  0  0  0  0  0  0  0
   36.7086   28.1976   35.4593 H   0  0  0  0  0  0  0  0  0  0  0  0
   37.2560   23.3590   33.2081 H   0  0  0  0  0  0  0  0  0  0  0  0
   38.2938   21.5190   35.8079 H   0  0  0  0  0  0  0  0  0  0  0  0
   36.9158   22.1117   36.1764 H   0  0  0  0  0  0  0  0  0  0  0  0
   37.3225   20.2566   33.4413 H   0  0  0  0  0  0  0  0  0  0  0  0
   35.2235   21.5175   34.4429 H   0  0  0  0  0  0  0  0  0  0  0  0
   36.2728   18.7985   32.8900 H   0  0  0  0  0  0  0  0  0  0  0  0
   34.8096   18.5796   33.3424 H   0  0  0  0  0  0  0  0  0  0  0  0
   34.4041   21.1822   31.6786 H   0  0  0  0  0  0  0  0  0  0  0  0
   37.1809   20.9441   31.4544 H   0  0  0  0  0  0  0  0  0  0  0  0
   36.0939   19.9047   30.4723 H   0  0  0  0  0  0  0  0  0  0  0  0
   35.8734   21.6874   30.4723 H   0  0  0  0  0  0  0  0  0  0  0  0
  1  8  1  0
  2  1  1  0
  3  2  1  0
  4  5  1  0
  4  3  1  0
  5  6  2  0
  6  1  1  0
  6 13  1  0
  7 12  2  0
  7  8  1  0
  8  9  2  0
  9 10  1  0
 11 10  2  0
 12 11  1  0
 13 15  1  0
 13 14  1  0
 15 14  1  0
 16 15  1  0
 17 16  1  0
 18 17  1  0
 18 16  1  0
 19 18  1  0
  2 20  1  0
  2 21  1  0
  3 22  1  0
  3 23  1  0
  4 24  1  0
  5 25  1  0
  7 26  1  0
  9 27  1  0
 11 28  1  0
 13 29  1  1
 14 30  1  0
 14 31  1  0
 15 32  1  6
 16 33  1  1
 17 34  1  0
 17 35  1  0
 18 36  1  6
 19 37  1  0
 19 38  1  0
 19 39  1  0
M  ISO  8  20  13  21  13  22  13  23  13  25  13  26  14  27  14  28  14
M  ISO  8  29  13  30  13  31  13  32  13  33  13  34  13  35  13  36  13
M  ISO  3  37   8  38   8  39   8
M  END
>  <minimizedAffinity>  (1) 
-3.9718287

>  <minimizedRMSD>  (1) 
0.241947457

$$$$
