
     RDKit          3D

 51 55  0  0  1  0  0  0  0  0999 V2000
   39.8830   24.6110   33.7920 N   0  0  0  0  0  0  0  0  0  0  0  0
   39.5920   25.9610   33.3000 C   0  0  0  0  0  0  0  0  0  0  0  0
   40.1640   27.0520   34.1600 C   0  0  0  0  0  0  0  0  0  0  0  0
   41.4620   26.7090   34.5760 N   0  0  0  0  0  0  0  0  0  0  0  0
   41.7220   25.4430   35.1770 C   0  0  0  0  0  0  0  0  0  0  0  0
   40.8790   24.3470   34.7420 C   0  0  0  0  0  0  0  0  0  0  0  0
   39.4470   22.7970   32.1660 C   0  0  0  0  0  0  0  0  0  0  0  0
   39.1370   23.5460   33.3040 C   0  0  0  0  0  0  0  0  0  0  0  0
   37.9560   23.1450   33.9800 C   0  0  0  0  0  0  0  0  0  0  0  0
   37.1930   22.1180   33.5510 N   0  0  0  0  0  0  0  0  0  0  0  0
   37.5470   21.4390   32.4480 C   0  0  0  0  0  0  0  0  0  0  0  0
   38.6470   21.7760   31.7790 N   0  0  0  0  0  0  0  0  0  0  0  0
   41.2460   23.0690   35.3650 C   0  0  2  0  0  0  0  0  0  0  0  0
   40.4930   22.8720   36.7140 C   0  0  0  0  0  0  0  0  0  0  0  0
   41.9900   22.8560   36.5720 C   0  0  1  0  0  0  0  0  0  0  0  0
   42.7620   21.6040   36.8440 C   0  0  2  0  0  0  0  0  0  0  0  0
   44.0730   21.5020   36.0140 C   0  0  0  0  0  0  0  0  0  0  0  0
   42.8870   20.6100   35.7880 C   0  0  1  0  0  0  0  0  0  0  0  0
   43.1210   19.2010   36.0470 N   0  0  0  0  0  0  0  0  0  0  0  0
   43.4170   18.5690   34.8010 C   0  0  0  0  0  0  0  0  0  0  0  0
   44.3620   17.4020   34.9220 C   0  0  0  0  0  0  0  0  0  0  0  0
   44.2880   16.7160   36.2480 C   0  0  0  0  0  0  0  0  0  0  0  0
   44.6020   17.7110   37.3250 C   0  0  0  0  0  0  0  0  0  0  0  0
   44.1420   19.1060   37.0420 C   0  0  0  0  0  0  0  0  0  0  0  0
   40.0117   26.0601   32.2880 H   0  0  0  0  0  0  0  0  0  0  0  0
   38.4985   26.0800   33.3136 H   0  0  0  0  0  0  0  0  0  0  0  0
   40.2023   27.9877   33.5830 H   0  0  0  0  0  0  0  0  0  0  0  0
   39.5253   27.1842   35.0458 H   0  0  0  0  0  0  0  0  0  0  0  0
   42.2331   27.3793   34.4452 H   0  0  0  0  0  0  0  0  0  0  0  0
   42.5154   25.3058   35.9265 H   0  0  0  0  0  0  0  0  0  0  0  0
   40.3467   23.0385   31.5810 H   0  0  0  0  0  0  0  0  0  0  0  0
   37.6516   23.6903   34.8855 H   0  0  0  0  0  0  0  0  0  0  0  0
   36.9261   20.6019   32.0964 H   0  0  0  0  0  0  0  0  0  0  0  0
   41.4109   22.6115   34.3784 H   0  0  0  0  0  0  0  0  0  0  0  0
   39.9845   23.7169   37.2015 H   0  0  0  0  0  0  0  0  0  0  0  0
   39.7181   22.1983   37.1084 H   0  0  0  0  0  0  0  0  0  0  0  0
   42.8140   23.4155   37.0388 H   0  0  0  0  0  0  0  0  0  0  0  0
   42.4596   21.5392   37.8996 H   0  0  0  0  0  0  0  0  0  0  0  0
   44.3331   22.2814   35.2826 H   0  0  0  0  0  0  0  0  0  0  0  0
   45.1428   21.3642   36.2297 H   0  0  0  0  0  0  0  0  0  0  0  0
   42.2061   20.3689   34.9584 H   0  0  0  0  0  0  0  0  0  0  0  0
   43.8710   19.3153   34.1325 H   0  0  0  0  0  0  0  0  0  0  0  0
   42.4684   18.1744   34.4079 H   0  0  0  0  0  0  0  0  0  0  0  0
   44.1170   16.6715   34.1369 H   0  0  0  0  0  0  0  0  0  0  0  0
   45.3830   17.7974   34.8164 H   0  0  0  0  0  0  0  0  0  0  0  0
   43.2756   16.3137   36.4001 H   0  0  0  0  0  0  0  0  0  0  0  0
   45.0116   15.8882   36.2814 H   0  0  0  0  0  0  0  0  0  0  0  0
   44.1199   17.3733   38.2543 H   0  0  0  0  0  0  0  0  0  0  0  0
   45.6988   17.7546   37.3969 H   0  0  0  0  0  0  0  0  0  0  0  0
   45.0089   19.6917   36.7022 H   0  0  0  0  0  0  0  0  0  0  0  0
   43.7056   19.4881   37.9767 H   0  0  0  0  0  0  0  0  0  0  0  0
  1  6  1  0
  2  1  1  0
  2  3  1  0
  3  4  1  0
  4  5  1  0
  6  5  2  0
  6 13  1  0
  7  8  2  0
  8  1  1  0
  8  9  1  0
 10  9  2  0
 11 10  1  0
 12  7  1  0
 12 11  2  0
 13 15  1  0
 13 14  1  0
 15 14  1  0
 15 16  1  0
 17 16  1  0
 18 17  1  0
 18 19  1  0
 18 16  1  0
 19 24  1  0
 20 21  1  0
 20 19  1  0
 21 22  1  0
 22 23  1  0
 24 23  1  0
  2 25  1  0
  2 26  1  0
  3 27  1  0
  3 28  1  0
  4 29  1  0
  5 30  1  0
  7 31  1  0
  9 32  1  0
 11 33  1  0
 13 34  1  6
 14 35  1  0
 14 36  1  0
 15 37  1  1
 16 38  1  1
 17 39  1  0
 17 40  1  0
 18 41  1  6
 20 42  1  0
 20 43  1  0
 21 44  1  0
 21 45  1  0
 22 46  1  0
 22 47  1  0
 23 48  1  0
 23 49  1  0
 24 50  1  0
 24 51  1  0
M  ISO  8  25  13  26  13  27  13  28  13  30  13  31  14  32  14  33  14
M  ISO  8  34  13  35  13  36  13  37  13  38  13  39  13  40  13  41  13
M  ISO  8  42  13  43  13  44  13  45  13  46  13  47  13  48  13  49  13
M  ISO  2  50  13  51  13
M  END
>  <minimizedAffinity>  (1) 
-3.79721355

>  <minimizedRMSD>  (1) 
7.78915071

$$$$
