
     RDKit          3D

 29 31  0  0  0  0  0  0  0  0999 V2000
   40.7490   22.0380   36.1380 C   0  0  0  0  0  0  0  0  0  0  0  0
   40.1550   22.5110   37.3320 C   0  0  0  0  0  0  0  0  0  0  0  0
   38.9560   23.1910   37.1700 C   0  0  0  0  0  0  0  0  0  0  0  0
   38.4880   23.3290   35.9230 N   0  0  0  0  0  0  0  0  0  0  0  0
   39.0620   22.8760   34.7980 C   0  0  0  0  0  0  0  0  0  0  0  0
   40.2090   22.2260   34.9430 N   0  0  0  0  0  0  0  0  0  0  0  0
   38.2570   23.2230   33.6320 C   0  0  0  0  0  0  0  0  0  0  0  0
   38.4630   24.3460   32.8240 C   0  0  0  0  0  0  0  0  0  0  0  0
   37.7060   24.6640   31.7320 C   0  0  0  0  0  0  0  0  0  0  0  0
   36.6700   23.8740   31.3580 C   0  0  0  0  0  0  0  0  0  0  0  0
   36.4030   22.7520   32.1010 C   0  0  0  0  0  0  0  0  0  0  0  0
   35.3420   21.9790   31.6820 C   0  0  0  0  0  0  0  0  0  0  0  0
   35.0070   20.8440   32.3650 C   0  0  0  0  0  0  0  0  0  0  0  0
   35.7780   20.5120   33.4830 C   0  0  0  0  0  0  0  0  0  0  0  0
   36.8290   21.3250   33.8520 C   0  0  0  0  0  0  0  0  0  0  0  0
   37.1920   22.4730   33.1890 C   0  0  0  0  0  0  0  0  0  0  0  0
   38.3300   23.6890   38.4000 C   0  0  0  0  0  0  0  0  0  0  0  0
   37.9500   25.0090   38.2320 F   0  0  0  0  0  0  0  0  0  0  0  0
   39.3470   23.7130   39.3560 F   0  0  0  0  0  0  0  0  0  0  0  0
   37.2310   22.9940   38.8010 F   0  0  0  0  0  0  0  0  0  0  0  0
   41.7006   21.4903   36.2050 H   0  0  0  0  0  0  0  0  0  0  0  0
   40.6117   22.3509   38.3198 H   0  0  0  0  0  0  0  0  0  0  0  0
   39.2920   25.0199   33.0859 H   0  0  0  0  0  0  0  0  0  0  0  0
   37.9392   25.5687   31.1514 H   0  0  0  0  0  0  0  0  0  0  0  0
   36.0579   24.1265   30.4796 H   0  0  0  0  0  0  0  0  0  0  0  0
   34.7631   22.2765   30.7952 H   0  0  0  0  0  0  0  0  0  0  0  0
   34.1624   20.2151   32.0471 H   0  0  0  0  0  0  0  0  0  0  0  0
   35.5476   19.6074   34.0650 H   0  0  0  0  0  0  0  0  0  0  0  0
   37.4161   21.0354   34.7360 H   0  0  0  0  0  0  0  0  0  0  0  0
  1  2  2  0
  3  2  1  0
  3 17  1  0
  4  3  2  0
  5  6  2  0
  5  4  1  0
  6  1  1  0
  7  5  1  0
  8  7  2  0
  9  8  1  0
 10  9  2  0
 10 11  1  0
 11 16  2  0
 12 11  1  0
 12 13  2  0
 13 14  1  0
 14 15  2  0
 16  7  1  0
 16 15  1  0
 17 20  1  0
 17 19  1  0
 18 17  1  0
  1 21  1  0
  2 22  1  0
  8 23  1  0
  9 24  1  0
 10 25  1  0
 12 26  1  0
 13 27  1  0
 14 28  1  0
 15 29  1  0
M  ISO  8  21  14  22  14  23  14  24  14  25  14  26  14  27  14  28  14
M  ISO  1  29  14
M  END
>  <minimizedAffinity>  (1) 
-6.05732679

>  <minimizedRMSD>  (1) 
1.02231419

$$$$
