
     RDKit          3D

 38 41  0  0  1  0  0  0  0  0999 V2000
   39.5320   24.0840   33.5770 N   0  0  0  0  0  0  0  0  0  0  0  0
   40.9610   24.3110   33.3660 C   0  0  0  0  0  0  0  0  0  0  0  0
   41.7680   23.0510   33.2560 C   0  0  0  0  0  0  0  0  0  0  0  0
   41.0690   22.0880   32.5080 N   0  0  0  0  0  0  0  0  0  0  0  0
   39.7180   21.7630   32.8180 C   0  0  0  0  0  0  0  0  0  0  0  0
   38.9200   22.8360   33.3760 C   0  0  0  0  0  0  0  0  0  0  0  0
   37.9170   25.9210   33.1870 C   0  0  0  0  0  0  0  0  0  0  0  0
   38.7420   25.1430   34.0040 C   0  0  0  0  0  0  0  0  0  0  0  0
   38.7380   25.5010   35.3780 C   0  0  0  0  0  0  0  0  0  0  0  0
   37.9870   26.5210   35.8500 N   0  0  0  0  0  0  0  0  0  0  0  0
   37.2170   27.2260   35.0060 C   0  0  0  0  0  0  0  0  0  0  0  0
   37.1840   26.9320   33.7080 N   0  0  0  0  0  0  0  0  0  0  0  0
   37.5270   22.4410   33.6120 C   0  0  2  0  0  0  0  0  0  0  0  0
   37.3600   21.8150   35.0290 C   0  0  0  0  0  0  0  0  0  0  0  0
   36.9990   21.1150   33.7480 C   0  0  1  0  0  0  0  0  0  0  0  0
   35.5720   20.7730   33.4580 C   0  0  2  0  0  0  0  0  0  0  0  0
   35.3700   19.2930   33.0340 C   0  0  0  0  0  0  0  0  0  0  0  0
   35.1880   20.4490   32.0900 C   0  0  2  0  0  0  0  0  0  0  0  0
   36.1890   20.5150   31.0600 N   0  0  0  0  0  0  0  0  0  0  0  0
   41.0867   24.8849   32.4360 H   0  0  0  0  0  0  0  0  0  0  0  0
   41.3319   24.8511   34.2496 H   0  0  0  0  0  0  0  0  0  0  0  0
   42.7232   23.2741   32.7581 H   0  0  0  0  0  0  0  0  0  0  0  0
   41.9528   22.6551   34.2655 H   0  0  0  0  0  0  0  0  0  0  0  0
   41.5401   21.6114   31.7258 H   0  0  0  0  0  0  0  0  0  0  0  0
   39.3051   20.7583   32.6444 H   0  0  0  0  0  0  0  0  0  0  0  0
   37.8630   25.7092   32.1089 H   0  0  0  0  0  0  0  0  0  0  0  0
   39.3650   24.9311   36.0795 H   0  0  0  0  0  0  0  0  0  0  0  0
   36.6065   28.0559   35.3913 H   0  0  0  0  0  0  0  0  0  0  0  0
   37.1631   23.2525   32.9647 H   0  0  0  0  0  0  0  0  0  0  0  0
   38.2391   21.5017   35.6113 H   0  0  0  0  0  0  0  0  0  0  0  0
   36.8522   22.0807   35.9679 H   0  0  0  0  0  0  0  0  0  0  0  0
   37.2835   20.1588   33.2845 H   0  0  0  0  0  0  0  0  0  0  0  0
   35.1607   21.4679   34.2050 H   0  0  0  0  0  0  0  0  0  0  0  0
   36.2331   18.6189   32.9313 H   0  0  0  0  0  0  0  0  0  0  0  0
   34.7619   18.4431   33.3774 H   0  0  0  0  0  0  0  0  0  0  0  0
   34.3756   20.8253   31.4509 H   0  0  0  0  0  0  0  0  0  0  0  0
   37.1222   20.5765   31.4916 H   0  0  0  0  0  0  0  0  0  0  0  0
   36.1363   19.6687   30.4753 H   0  0  0  0  0  0  0  0  0  0  0  0
  1  8  1  0
  2  1  1  0
  3  2  1  0
  4  5  1  0
  4  3  1  0
  5  6  2  0
  6  1  1  0
  6 13  1  0
  7 12  2  0
  7  8  1  0
  8  9  2  0
  9 10  1  0
 11 10  2  0
 12 11  1  0
 13 15  1  0
 13 14  1  0
 15 14  1  0
 16 15  1  0
 17 16  1  0
 18 17  1  0
 18 16  1  0
 19 18  1  0
  2 20  1  0
  2 21  1  0
  3 22  1  0
  3 23  1  0
  4 24  1  0
  5 25  1  0
  7 26  1  0
  9 27  1  0
 11 28  1  0
 13 29  1  1
 14 30  1  0
 14 31  1  0
 15 32  1  6
 16 33  1  1
 17 34  1  0
 17 35  1  0
 18 36  1  6
 19 37  1  0
 19 38  1  0
M  ISO  8  20  13  21  13  22  13  23  13  25  13  26  14  27  14  28  14
M  ISO  8  29  13  30  13  31  13  32  13  33  13  34  13  35  13  36  13
M  ISO  2  37   5  38   5
M  END
>  <minimizedAffinity>  (1) 
-3.68917465

>  <minimizedRMSD>  (1) 
0.412738889

$$$$
