
     RDKit          3D

 55 60  0  0  1  0  0  0  0  0999 V2000
   37.5800   22.5810   34.2380 C   0  0  2  0  0  0  0  0  0  0  0  0
   37.4120   22.0260   35.6900 C   0  0  0  0  0  0  0  0  0  0  0  0
   37.1140   21.2510   34.4300 C   0  0  1  0  0  0  0  0  0  0  0  0
   39.4950   24.3180   33.9670 N   0  0  0  0  0  0  0  0  0  0  0  0
   40.9200   24.5890   33.7640 C   0  0  0  0  0  0  0  0  0  0  0  0
   41.7960   23.3890   34.0070 C   0  0  0  0  0  0  0  0  0  0  0  0
   41.2030   22.2350   33.4530 N   0  0  0  0  0  0  0  0  0  0  0  0
   39.8520   21.9100   33.7400 C   0  0  0  0  0  0  0  0  0  0  0  0
   38.9580   23.0230   34.0040 C   0  0  0  0  0  0  0  0  0  0  0  0
   37.7620   25.8870   33.1820 C   0  0  0  0  0  0  0  0  0  0  0  0
   38.6310   25.3780   34.1370 C   0  0  0  0  0  0  0  0  0  0  0  0
   38.5860   26.0590   35.3930 C   0  0  0  0  0  0  0  0  0  0  0  0
   37.7630   27.1040   35.6200 N   0  0  0  0  0  0  0  0  0  0  0  0
   36.9570   27.5330   34.6500 C   0  0  0  0  0  0  0  0  0  0  0  0
   36.9570   26.9360   33.4560 N   0  0  0  0  0  0  0  0  0  0  0  0
   35.7260   20.8240   34.1620 C   0  0  2  0  0  0  0  0  0  0  0  0
   35.5290   19.5560   33.3270 C   0  0  0  0  0  0  0  0  0  0  0  0
   35.1980   20.8750   32.7780 C   0  0  2  0  0  0  0  0  0  0  0  0
   36.0300   21.2950   31.6060 C   0  0  0  0  0  0  0  0  0  0  0  0
   35.6070   22.2890   30.9290 O   0  0  0  0  0  0  0  0  0  0  0  0
   37.2090   20.6980   31.1850 O   0  0  0  0  0  0  0  0  0  0  0  0
   37.3990   20.0360   30.0180 C   0  0  0  0  0  0  0  0  0  0  0  0
   36.6030   19.0440   29.5000 C   0  0  0  0  0  0  0  0  0  0  0  0
   36.9150   18.4390   28.2760 C   0  0  0  0  0  0  0  0  0  0  0  0
   38.0420   18.8460   27.5760 C   0  0  0  0  0  0  0  0  0  0  0  0
   38.8470   19.8340   28.0780 C   0  0  0  0  0  0  0  0  0  0  0  0
   39.9550   20.1960   27.3340 C   0  0  0  0  0  0  0  0  0  0  0  0
   40.7820   21.1860   27.8140 C   0  0  0  0  0  0  0  0  0  0  0  0
   40.4920   21.7940   29.0180 C   0  0  0  0  0  0  0  0  0  0  0  0
   39.3800   21.4180   29.7450 C   0  0  0  0  0  0  0  0  0  0  0  0
   38.5170   20.4220   29.2980 C   0  0  0  0  0  0  0  0  0  0  0  0
   37.1920   23.3406   33.5434 H   0  0  0  0  0  0  0  0  0  0  0  0
   38.2910   21.7838   36.3054 H   0  0  0  0  0  0  0  0  0  0  0  0
   36.8733   22.3138   36.6049 H   0  0  0  0  0  0  0  0  0  0  0  0
   37.4555   20.2964   34.0031 H   0  0  0  0  0  0  0  0  0  0  0  0
   41.0671   24.9241   32.7267 H   0  0  0  0  0  0  0  0  0  0  0  0
   41.2121   25.3582   34.4941 H   0  0  0  0  0  0  0  0  0  0  0  0
   42.7774   23.5543   33.5385 H   0  0  0  0  0  0  0  0  0  0  0  0
   41.9177   23.2460   35.0909 H   0  0  0  0  0  0  0  0  0  0  0  0
   41.7553   21.6234   32.8351 H   0  0  0  0  0  0  0  0  0  0  0  0
   39.5000   20.8681   33.7614 H   0  0  0  0  0  0  0  0  0  0  0  0
   37.7284   25.4273   32.1832 H   0  0  0  0  0  0  0  0  0  0  0  0
   39.2464   25.7187   36.2042 H   0  0  0  0  0  0  0  0  0  0  0  0
   36.2866   28.3854   34.8342 H   0  0  0  0  0  0  0  0  0  0  0  0
   35.3843   21.2030   35.1365 H   0  0  0  0  0  0  0  0  0  0  0  0
   36.4013   19.0033   32.9481 H   0  0  0  0  0  0  0  0  0  0  0  0
   34.9897   18.6067   33.4613 H   0  0  0  0  0  0  0  0  0  0  0  0
   34.3125   21.3836   32.3690 H   0  0  0  0  0  0  0  0  0  0  0  0
   35.7091   18.7205   30.0534 H   0  0  0  0  0  0  0  0  0  0  0  0
   36.2699   17.6451   27.8715 H   0  0  0  0  0  0  0  0  0  0  0  0
   38.2898   18.3733   26.6142 H   0  0  0  0  0  0  0  0  0  0  0  0
   40.1716   19.7015   26.3756 H   0  0  0  0  0  0  0  0  0  0  0  0
   41.6698   21.4909   27.2405 H   0  0  0  0  0  0  0  0  0  0  0  0
   41.1525   22.5853   29.4022 H   0  0  0  0  0  0  0  0  0  0  0  0
   39.1709   21.9185   30.7020 H   0  0  0  0  0  0  0  0  0  0  0  0
  1  3  1  0
  1  2  1  0
  3  2  1  0
  4  9  1  0
  4 11  1  0
  5  4  1  0
  5  6  1  0
  7  8  1  0
  7  6  1  0
  8  9  2  0
  9  1  1  0
 10 15  2  0
 10 11  1  0
 11 12  2  0
 12 13  1  0
 14 13  2  0
 15 14  1  0
 16  3  1  0
 17 16  1  0
 18 17  1  0
 18 16  1  0
 19 18  1  0
 20 19  2  0
 21 19  1  0
 22 21  1  0
 23 22  2  0
 24 23  1  0
 25 26  1  0
 25 24  2  0
 26 31  2  0
 27 28  2  0
 27 26  1  0
 28 29  1  0
 29 30  2  0
 31 30  1  0
 31 22  1  0
  1 32  1  1
  2 33  1  0
  2 34  1  0
  3 35  1  6
  5 36  1  0
  5 37  1  0
  6 38  1  0
  6 39  1  0
  7 40  1  0
  8 41  1  0
 10 42  1  0
 12 43  1  0
 14 44  1  0
 16 45  1  1
 17 46  1  0
 17 47  1  0
 18 48  1  1
 23 49  1  0
 24 50  1  0
 25 51  1  0
 27 52  1  0
 28 53  1  0
 29 54  1  0
 30 55  1  0
M  ISO  8  32  13  33  13  34  13  35  13  36  13  37  13  38  13  39  13
M  ISO  8  41  13  42  14  43  14  44  14  45  13  46  13  47  13  48  13
M  ISO  7  49  14  50  14  51  14  52  14  53  14  54  14  55  14
M  END
>  <minimizedAffinity>  (1) 
-5.01725149

>  <minimizedRMSD>  (1) 
1.70557189

$$$$
