
     RDKit          3D

 46 50  0  0  1  0  0  0  0  0999 V2000
   37.5800   22.5070   34.1100 C   0  0  2  0  0  0  0  0  0  0  0  0
   37.4090   21.9720   35.5680 C   0  0  0  0  0  0  0  0  0  0  0  0
   37.0860   21.1920   34.3190 C   0  0  1  0  0  0  0  0  0  0  0  0
   39.5480   24.1910   33.9090 N   0  0  0  0  0  0  0  0  0  0  0  0
   40.9770   24.4260   33.6710 C   0  0  0  0  0  0  0  0  0  0  0  0
   41.8110   23.1750   33.7770 C   0  0  0  0  0  0  0  0  0  0  0  0
   41.1510   22.1020   33.1510 N   0  0  0  0  0  0  0  0  0  0  0  0
   39.7990   21.8000   33.4630 C   0  0  0  0  0  0  0  0  0  0  0  0
   38.9660   22.9180   33.8580 C   0  0  0  0  0  0  0  0  0  0  0  0
   37.8530   25.8830   33.3330 C   0  0  0  0  0  0  0  0  0  0  0  0
   38.7380   25.2650   34.2030 C   0  0  0  0  0  0  0  0  0  0  0  0
   38.7700   25.8380   35.5120 C   0  0  0  0  0  0  0  0  0  0  0  0
   38.0020   26.8890   35.8590 N   0  0  0  0  0  0  0  0  0  0  0  0
   37.1750   27.4280   34.9640 C   0  0  0  0  0  0  0  0  0  0  0  0
   37.1030   26.9340   33.7270 N   0  0  0  0  0  0  0  0  0  0  0  0
   35.6860   20.7890   34.0690 C   0  0  2  0  0  0  0  0  0  0  0  0
   35.4550   19.4520   33.3590 C   0  0  0  0  0  0  0  0  0  0  0  0
   35.1780   20.7190   32.6790 C   0  0  2  0  0  0  0  0  0  0  0  0
   36.0410   20.9920   31.4860 C   0  0  0  0  0  0  0  0  0  0  0  0
   35.6140   21.8760   30.6650 O   0  0  0  0  0  0  0  0  0  0  0  0
   37.2580   20.3640   31.1820 O   0  0  0  0  0  0  0  0  0  0  0  0
   37.3310   19.7410   29.9330 C   0  0  0  0  0  0  0  0  0  0  0  0
   38.3000   19.7600   28.9330 C   0  0  0  0  0  0  0  0  0  0  0  0
   37.8250   18.9620   27.9360 N   0  0  0  0  0  0  0  0  0  0  0  0
   36.6280   18.4930   28.3310 C   0  0  0  0  0  0  0  0  0  0  0  0
   36.2890   18.9500   29.5510 N   0  0  0  0  0  0  0  0  0  0  0  0
   37.2047   23.2682   33.4102 H   0  0  0  0  0  0  0  0  0  0  0  0
   38.2862   21.7163   36.1805 H   0  0  0  0  0  0  0  0  0  0  0  0
   36.8829   22.2815   36.4831 H   0  0  0  0  0  0  0  0  0  0  0  0
   37.4034   20.2271   33.8968 H   0  0  0  0  0  0  0  0  0  0  0  0
   41.3401   25.1520   34.4133 H   0  0  0  0  0  0  0  0  0  0  0  0
   41.0794   24.8004   32.6418 H   0  0  0  0  0  0  0  0  0  0  0  0
   42.7815   23.3416   33.2867 H   0  0  0  0  0  0  0  0  0  0  0  0
   41.9660   22.9334   34.8389 H   0  0  0  0  0  0  0  0  0  0  0  0
   41.6540   21.5290   32.4586 H   0  0  0  0  0  0  0  0  0  0  0  0
   39.4058   20.7742   33.4079 H   0  0  0  0  0  0  0  0  0  0  0  0
   37.7602   25.5099   32.3024 H   0  0  0  0  0  0  0  0  0  0  0  0
   39.4465   25.4050   36.2636 H   0  0  0  0  0  0  0  0  0  0  0  0
   36.5475   28.2860   35.2471 H   0  0  0  0  0  0  0  0  0  0  0  0
   35.3454   21.2755   34.9949 H   0  0  0  0  0  0  0  0  0  0  0  0
   36.3121   18.8355   33.0502 H   0  0  0  0  0  0  0  0  0  0  0  0
   34.8810   18.5394   33.5771 H   0  0  0  0  0  0  0  0  0  0  0  0
   34.3158   21.2135   32.2077 H   0  0  0  0  0  0  0  0  0  0  0  0
   39.2540   20.3074   28.9455 H   0  0  0  0  0  0  0  0  0  0  0  0
   36.0016   17.8176   27.7298 H   0  0  0  0  0  0  0  0  0  0  0  0
   35.4293   18.7462   30.0805 H   0  0  0  0  0  0  0  0  0  0  0  0
  1  3  1  0
  1  2  1  0
  3  2  1  0
  4 11  1  0
  5  6  1  0
  5  4  1  0
  7  8  1  0
  7  6  1  0
  8  9  2  0
  9  4  1  0
  9  1  1  0
 10 15  2  0
 10 11  1  0
 11 12  2  0
 12 13  1  0
 14 13  2  0
 15 14  1  0
 16  3  1  0
 17 16  1  0
 18 17  1  0
 18 16  1  0
 19 18  1  0
 20 19  2  0
 21 19  1  0
 22 21  1  0
 23 22  2  0
 24 25  2  0
 24 23  1  0
 25 26  1  0
 26 22  1  0
  1 27  1  1
  2 28  1  0
  2 29  1  0
  3 30  1  6
  5 31  1  0
  5 32  1  0
  6 33  1  0
  6 34  1  0
  7 35  1  0
  8 36  1  0
 10 37  1  0
 12 38  1  0
 14 39  1  0
 16 40  1  1
 17 41  1  0
 17 42  1  0
 18 43  1  1
 23 44  1  0
 25 45  1  0
 26 46  1  0
M  ISO  8  27  13  28  13  29  13  30  13  31  13  32  13  33  13  34  13
M  ISO  8  36  13  37  14  38  14  39  14  40  13  41  13  42  13  43  13
M  ISO  3  44  14  45  14  46   9
M  END
>  <minimizedAffinity>  (1) 
-4.50343561

>  <minimizedRMSD>  (1) 
1.19230354

$$$$
