
     RDKit          3D

 50 55  0  0  1  0  0  0  0  0999 V2000
   37.6410   23.0360   33.4200 C   0  0  2  0  0  0  0  0  0  0  0  0
   38.1460   22.2820   34.6910 C   0  0  0  0  0  0  0  0  0  0  0  0
   37.3280   21.6580   33.5870 C   0  0  1  0  0  0  0  0  0  0  0  0
   39.3350   24.8930   32.7640 N   0  0  0  0  0  0  0  0  0  0  0  0
   40.4980   25.3050   31.9740 C   0  0  0  0  0  0  0  0  0  0  0  0
   41.2380   24.1610   31.3410 C   0  0  0  0  0  0  0  0  0  0  0  0
   40.3430   23.1850   30.8660 N   0  0  0  0  0  0  0  0  0  0  0  0
   39.2930   22.7010   31.6820 C   0  0  0  0  0  0  0  0  0  0  0  0
   38.7620   23.6150   32.6740 C   0  0  0  0  0  0  0  0  0  0  0  0
   37.5900   26.4890   33.4600 C   0  0  0  0  0  0  0  0  0  0  0  0
   38.7770   25.7930   33.6420 C   0  0  0  0  0  0  0  0  0  0  0  0
   39.4400   26.0780   34.8750 C   0  0  0  0  0  0  0  0  0  0  0  0
   38.9460   26.9490   35.7770 N   0  0  0  0  0  0  0  0  0  0  0  0
   37.7970   27.5790   35.5270 C   0  0  0  0  0  0  0  0  0  0  0  0
   37.1330   27.3520   34.3920 N   0  0  0  0  0  0  0  0  0  0  0  0
   35.9730   21.1570   33.8950 C   0  0  2  0  0  0  0  0  0  0  0  0
   35.7030   19.6680   33.6570 C   0  0  0  0  0  0  0  0  0  0  0  0
   35.0970   20.6870   32.7970 C   0  0  2  0  0  0  0  0  0  0  0  0
   35.5400   20.6430   31.3680 C   0  0  0  0  0  0  0  0  0  0  0  0
   35.6050   21.7650   30.7550 O   0  0  0  0  0  0  0  0  0  0  0  0
   35.8760   19.4930   30.6430 O   0  0  0  0  0  0  0  0  0  0  0  0
   38.3550   18.5970   26.8610 N   0  0  0  0  0  0  0  0  0  0  0  0
   37.0260   18.5950   26.6190 C   0  0  0  0  0  0  0  0  0  0  0  0
   36.3430   18.8650   27.7680 N   0  0  0  0  0  0  0  0  0  0  0  0
   37.2790   19.0300   28.7120 C   0  0  0  0  0  0  0  0  0  0  0  0
   37.1110   19.3240   30.0640 C   0  0  0  0  0  0  0  0  0  0  0  0
   38.2160   19.4460   30.8320 N   0  0  0  0  0  0  0  0  0  0  0  0
   39.4260   19.2760   30.2490 C   0  0  0  0  0  0  0  0  0  0  0  0
   39.6480   18.9890   28.9340 N   0  0  0  0  0  0  0  0  0  0  0  0
   38.5400   18.8690   28.1750 C   0  0  0  0  0  0  0  0  0  0  0  0
   36.9736   23.8479   33.0954 H   0  0  0  0  0  0  0  0  0  0  0  0
   39.2107   22.0333   34.8121 H   0  0  0  0  0  0  0  0  0  0  0  0
   38.0681   22.4011   35.7818 H   0  0  0  0  0  0  0  0  0  0  0  0
   37.4557   20.8003   32.9103 H   0  0  0  0  0  0  0  0  0  0  0  0
   40.1537   25.9792   31.1759 H   0  0  0  0  0  0  0  0  0  0  0  0
   41.1981   25.7949   32.6667 H   0  0  0  0  0  0  0  0  0  0  0  0
   41.8364   24.5407   30.4997 H   0  0  0  0  0  0  0  0  0  0  0  0
   41.8890   23.7013   32.0992 H   0  0  0  0  0  0  0  0  0  0  0  0
   40.4536   22.8173   29.9102 H   0  0  0  0  0  0  0  0  0  0  0  0
   38.8987   21.6803   31.5690 H   0  0  0  0  0  0  0  0  0  0  0  0
   37.0102   26.3343   32.5381 H   0  0  0  0  0  0  0  0  0  0  0  0
   40.3889   25.5676   35.0963 H   0  0  0  0  0  0  0  0  0  0  0  0
   37.3938   28.2911   36.2621 H   0  0  0  0  0  0  0  0  0  0  0  0
   35.8606   21.8704   34.7248 H   0  0  0  0  0  0  0  0  0  0  0  0
   36.4996   19.0179   33.2659 H   0  0  0  0  0  0  0  0  0  0  0  0
   35.3260   18.8338   34.2669 H   0  0  0  0  0  0  0  0  0  0  0  0
   34.0847   21.0043   32.5062 H   0  0  0  0  0  0  0  0  0  0  0  0
   39.0970   18.4224   26.1683 H   0  0  0  0  0  0  0  0  0  0  0  0
   36.5631   18.4038   25.6396 H   0  0  0  0  0  0  0  0  0  0  0  0
   40.3107   19.3787   30.8945 H   0  0  0  0  0  0  0  0  0  0  0  0
  1  3  1  0
  1  2  1  0
  3 16  1  0
  3  2  1  0
  4 11  1  0
  5  4  1  0
  6  5  1  0
  7  6  1  0
  7  8  1  0
  8  9  2  0
  9  4  1  0
  9  1  1  0
 10 11  2  0
 10 15  1  0
 11 12  1  0
 12 13  2  0
 14 13  1  0
 15 14  2  0
 17 16  1  0
 18 17  1  0
 18 16  1  0
 19 18  1  0
 20 19  2  0
 21 19  1  0
 22 30  1  0
 23 22  1  0
 23 24  2  0
 24 25  1  0
 25 26  1  0
 26 21  1  0
 26 27  2  0
 28 27  1  0
 29 28  2  0
 30 25  2  0
 30 29  1  0
  1 31  1  1
  2 32  1  0
  2 33  1  0
  3 34  1  6
  5 35  1  0
  5 36  1  0
  6 37  1  0
  6 38  1  0
  7 39  1  0
  8 40  1  0
 10 41  1  0
 12 42  1  0
 14 43  1  0
 16 44  1  1
 17 45  1  0
 17 46  1  0
 18 47  1  6
 22 48  1  0
 23 49  1  0
 28 50  1  0
M  ISO  8  31  13  32  13  33  13  34  13  35  13  36  13  37  13  38  13
M  ISO  8  40  13  41  14  42  14  43  14  44  13  45  13  46  13  47  13
M  ISO  3  48   9  49  14  50  14
M  END
>  <minimizedAffinity>  (1) 
-4.52546263

>  <minimizedRMSD>  (1) 
1.4384979

$$$$
