
     RDKit          3D

 45 49  0  0  1  0  0  0  0  0999 V2000
   37.5320   22.6960   33.4370 C   0  0  2  0  0  0  0  0  0  0  0  0
   37.7440   22.0420   34.8410 C   0  0  0  0  0  0  0  0  0  0  0  0
   37.1350   21.3480   33.6490 C   0  0  1  0  0  0  0  0  0  0  0  0
   39.4120   24.4370   33.0040 N   0  0  0  0  0  0  0  0  0  0  0  0
   40.7180   24.7530   32.4290 C   0  0  0  0  0  0  0  0  0  0  0  0
   41.5150   23.5330   32.0510 C   0  0  0  0  0  0  0  0  0  0  0  0
   40.6790   22.5690   31.4590 N   0  0  0  0  0  0  0  0  0  0  0  0
   39.4640   22.1790   32.0780 C   0  0  0  0  0  0  0  0  0  0  0  0
   38.8000   23.1830   32.8900 C   0  0  0  0  0  0  0  0  0  0  0  0
   37.6950   26.1990   33.2270 C   0  0  0  0  0  0  0  0  0  0  0  0
   38.7390   25.4200   33.7050 C   0  0  0  0  0  0  0  0  0  0  0  0
   39.1100   25.7050   35.0540 C   0  0  0  0  0  0  0  0  0  0  0  0
   38.4990   26.6480   35.7970 N   0  0  0  0  0  0  0  0  0  0  0  0
   37.4980   27.3570   35.2580 C   0  0  0  0  0  0  0  0  0  0  0  0
   37.1060   27.1350   34.0030 N   0  0  0  0  0  0  0  0  0  0  0  0
   35.7250   20.9090   33.7210 C   0  0  2  0  0  0  0  0  0  0  0  0
   35.4370   19.4320   33.4370 C   0  0  0  0  0  0  0  0  0  0  0  0
   35.0300   20.4730   32.4860 C   0  0  2  0  0  0  0  0  0  0  0  0
   35.7100   20.4020   31.1530 C   0  0  0  0  0  0  0  0  0  0  0  0
   35.7990   21.5040   30.5050 O   0  0  0  0  0  0  0  0  0  0  0  0
   36.2360   19.2470   30.5660 O   0  0  0  0  0  0  0  0  0  0  0  0
   37.0710   19.3000   29.4590 C   0  0  0  0  0  0  0  0  0  0  0  0
   38.4500   19.8150   29.4350 C   0  0  0  0  0  0  0  0  0  0  0  0
   38.8210   19.5230   27.6180 S   0  0  0  0  0  0  0  0  0  0  0  0
   37.0990   18.7930   27.2810 C   0  0  0  0  0  0  0  0  0  0  0  0
   36.4800   18.8200   28.3760 N   0  0  0  0  0  0  0  0  0  0  0  0
   36.9765   23.4915   32.9188 H   0  0  0  0  0  0  0  0  0  0  0  0
   38.7522   21.7772   35.1924 H   0  0  0  0  0  0  0  0  0  0  0  0
   37.4576   22.2567   35.8811 H   0  0  0  0  0  0  0  0  0  0  0  0
   37.3576   20.4327   33.0809 H   0  0  0  0  0  0  0  0  0  0  0  0
   40.5635   25.3622   31.5262 H   0  0  0  0  0  0  0  0  0  0  0  0
   41.2911   25.2898   33.1993 H   0  0  0  0  0  0  0  0  0  0  0  0
   42.3010   23.8197   31.3368 H   0  0  0  0  0  0  0  0  0  0  0  0
   41.9681   23.1059   32.9578 H   0  0  0  0  0  0  0  0  0  0  0  0
   40.9531   22.1404   30.5634 H   0  0  0  0  0  0  0  0  0  0  0  0
   39.0468   21.1693   31.9497 H   0  0  0  0  0  0  0  0  0  0  0  0
   37.3401   26.0516   32.1963 H   0  0  0  0  0  0  0  0  0  0  0  0
   39.9308   25.1292   35.5064 H   0  0  0  0  0  0  0  0  0  0  0  0
   36.9944   28.1301   35.8569 H   0  0  0  0  0  0  0  0  0  0  0  0
   35.5024   21.6301   34.5212 H   0  0  0  0  0  0  0  0  0  0  0  0
   36.2605   18.7470   33.1868 H   0  0  0  0  0  0  0  0  0  0  0  0
   34.9261   18.6176   33.9716 H   0  0  0  0  0  0  0  0  0  0  0  0
   34.0975   20.8326   32.0266 H   0  0  0  0  0  0  0  0  0  0  0  0
   39.0722   20.2405   30.2361 H   0  0  0  0  0  0  0  0  0  0  0  0
   36.7186   18.4204   26.3185 H   0  0  0  0  0  0  0  0  0  0  0  0
  1  3  1  0
  1  2  1  0
  3 16  1  0
  3  2  1  0
  4 11  1  0
  5  4  1  0
  6  5  1  0
  7  6  1  0
  7  8  1  0
  8  9  2  0
  9  4  1  0
  9  1  1  0
 10 11  2  0
 10 15  1  0
 11 12  1  0
 12 13  2  0
 14 13  1  0
 15 14  2  0
 17 16  1  0
 18 17  1  0
 18 16  1  0
 19 18  1  0
 20 19  2  0
 21 19  1  0
 22 21  1  0
 23 22  2  0
 24 23  1  0
 25 24  1  0
 25 26  2  0
 26 22  1  0
  1 27  1  1
  2 28  1  0
  2 29  1  0
  3 30  1  6
  5 31  1  0
  5 32  1  0
  6 33  1  0
  6 34  1  0
  7 35  1  0
  8 36  1  0
 10 37  1  0
 12 38  1  0
 14 39  1  0
 16 40  1  1
 17 41  1  0
 17 42  1  0
 18 43  1  6
 23 44  1  0
 25 45  1  0
M  ISO  8  27  13  28  13  29  13  30  13  31  13  32  13  33  13  34  13
M  ISO  8  36  13  37  14  38  14  39  14  40  13  41  13  42  13  43  13
M  ISO  2  44  14  45  14
M  END
>  <minimizedAffinity>  (1) 
-4.24807787

>  <minimizedRMSD>  (1) 
0.890724361

$$$$
