
     RDKit          3D

 45 48  0  0  1  0  0  0  0  0999 V2000
   39.4790   24.7490   32.9580 N   0  0  0  0  0  0  0  0  0  0  0  0
   40.7190   25.1230   32.2730 C   0  0  0  0  0  0  0  0  0  0  0  0
   41.5140   23.9470   31.7780 C   0  0  0  0  0  0  0  0  0  0  0  0
   40.6610   22.9680   31.2420 N   0  0  0  0  0  0  0  0  0  0  0  0
   39.5250   22.5160   31.9610 C   0  0  0  0  0  0  0  0  0  0  0  0
   38.9080   23.4720   32.8630 C   0  0  0  0  0  0  0  0  0  0  0  0
   37.6140   26.2760   33.4770 C   0  0  0  0  0  0  0  0  0  0  0  0
   38.8410   25.6870   33.7390 C   0  0  0  0  0  0  0  0  0  0  0  0
   39.4590   26.1290   34.9480 C   0  0  0  0  0  0  0  0  0  0  0  0
   38.8880   27.0440   35.7570 N   0  0  0  0  0  0  0  0  0  0  0  0
   37.7050   27.5660   35.4360 C   0  0  0  0  0  0  0  0  0  0  0  0
   37.0790   27.1880   34.3150 N   0  0  0  0  0  0  0  0  0  0  0  0
   37.7180   22.9220   33.5180 C   0  0  2  0  0  0  0  0  0  0  0  0
   38.1010   22.1710   34.8340 C   0  0  0  0  0  0  0  0  0  0  0  0
   37.3640   21.5550   33.6720 C   0  0  1  0  0  0  0  0  0  0  0  0
   35.9770   21.0850   33.8750 C   0  0  2  0  0  0  0  0  0  0  0  0
   35.6300   19.6840   33.3610 C   0  0  0  0  0  0  0  0  0  0  0  0
   35.0940   20.8790   32.7020 C   0  0  2  0  0  0  0  0  0  0  0  0
   35.5570   21.0820   31.2930 C   0  0  0  0  0  0  0  0  0  0  0  0
   35.4880   22.2770   30.8400 O   0  0  0  0  0  0  0  0  0  0  0  0
   36.0410   20.0870   30.4360 O   0  0  0  0  0  0  0  0  0  0  0  0
   37.4260   20.0710   30.1130 C   0  0  0  0  0  0  0  0  0  0  0  0
   37.7520   19.2840   28.8860 C   0  0  0  0  0  0  0  0  0  0  0  0
   40.4622   25.7562   31.4110 H   0  0  0  0  0  0  0  0  0  0  0  0
   41.3463   25.6489   33.0078 H   0  0  0  0  0  0  0  0  0  0  0  0
   42.2128   24.2846   30.9984 H   0  0  0  0  0  0  0  0  0  0  0  0
   42.0694   23.5120   32.6220 H   0  0  0  0  0  0  0  0  0  0  0  0
   40.8636   22.5724   30.3128 H   0  0  0  0  0  0  0  0  0  0  0  0
   39.1323   21.4954   31.8416 H   0  0  0  0  0  0  0  0  0  0  0  0
   37.0648   25.9939   32.5666 H   0  0  0  0  0  0  0  0  0  0  0  0
   40.4356   25.7080   35.2293 H   0  0  0  0  0  0  0  0  0  0  0  0
   37.2397   28.3125   36.0965 H   0  0  0  0  0  0  0  0  0  0  0  0
   37.0967   23.7430   33.1308 H   0  0  0  0  0  0  0  0  0  0  0  0
   39.1464   21.9012   35.0446 H   0  0  0  0  0  0  0  0  0  0  0  0
   37.9366   22.3026   35.9136 H   0  0  0  0  0  0  0  0  0  0  0  0
   37.5286   20.6888   33.0143 H   0  0  0  0  0  0  0  0  0  0  0  0
   35.8900   21.6365   34.8228 H   0  0  0  0  0  0  0  0  0  0  0  0
   36.3963   19.0741   32.8602 H   0  0  0  0  0  0  0  0  0  0  0  0
   35.1980   18.7736   33.8021 H   0  0  0  0  0  0  0  0  0  0  0  0
   34.1048   21.2998   32.4689 H   0  0  0  0  0  0  0  0  0  0  0  0
   37.7574   21.1083   29.9574 H   0  0  0  0  0  0  0  0  0  0  0  0
   37.9441   19.5836   30.9521 H   0  0  0  0  0  0  0  0  0  0  0  0
   38.1580   18.3038   29.1762 H   0  0  0  0  0  0  0  0  0  0  0  0
   36.8392   19.1406   28.2891 H   0  0  0  0  0  0  0  0  0  0  0  0
   38.4988   19.8281   28.2891 H   0  0  0  0  0  0  0  0  0  0  0  0
  1  8  1  0
  2  1  1  0
  3  2  1  0
  4  3  1  0
  4  5  1  0
  5  6  2  0
  6  1  1  0
  6 13  1  0
  7  8  2  0
  7 12  1  0
  8  9  1  0
  9 10  2  0
 11 10  1  0
 12 11  2  0
 13 15  1  0
 13 14  1  0
 15 16  1  0
 15 14  1  0
 17 16  1  0
 18 17  1  0
 18 16  1  0
 19 18  1  0
 20 19  2  0
 21 19  1  0
 22 21  1  0
 23 22  1  0
  2 24  1  0
  2 25  1  0
  3 26  1  0
  3 27  1  0
  4 28  1  0
  5 29  1  0
  7 30  1  0
  9 31  1  0
 11 32  1  0
 13 33  1  1
 14 34  1  0
 14 35  1  0
 15 36  1  6
 16 37  1  1
 17 38  1  0
 17 39  1  0
 18 40  1  1
 22 41  1  0
 22 42  1  0
 23 43  1  0
 23 44  1  0
 23 45  1  0
M  ISO  8  24  13  25  13  26  13  27  13  29  13  30  14  31  14  32  14
M  ISO  8  33  13  34  13  35  13  36  13  37  13  38  13  39  13  40  13
M  ISO  5  41   8  42   8  43   8  44   8  45   8
M  END
>  <minimizedAffinity>  (1) 
-4.13344145

>  <minimizedRMSD>  (1) 
0.63804853

$$$$
