
     RDKit          3D

 41 44  0  0  1  0  0  0  0  0999 V2000
   39.4160   24.5020   33.2400 N   0  0  0  0  0  0  0  0  0  0  0  0
   40.7560   24.8310   32.7430 C   0  0  0  0  0  0  0  0  0  0  0  0
   41.6330   23.6320   32.5330 C   0  0  0  0  0  0  0  0  0  0  0  0
   40.8990   22.5630   31.9800 N   0  0  0  0  0  0  0  0  0  0  0  0
   39.6530   22.1720   32.5370 C   0  0  0  0  0  0  0  0  0  0  0  0
   38.8790   23.2080   33.1940 C   0  0  0  0  0  0  0  0  0  0  0  0
   37.6550   26.2230   33.1290 C   0  0  0  0  0  0  0  0  0  0  0  0
   38.6460   25.5060   33.7830 C   0  0  0  0  0  0  0  0  0  0  0  0
   38.8420   25.8830   35.1450 C   0  0  0  0  0  0  0  0  0  0  0  0
   38.1210   26.8580   35.7370 N   0  0  0  0  0  0  0  0  0  0  0  0
   37.1840   27.5030   35.0390 C   0  0  0  0  0  0  0  0  0  0  0  0
   36.9580   27.1910   33.7630 N   0  0  0  0  0  0  0  0  0  0  0  0
   37.5950   22.7060   33.6870 C   0  0  2  0  0  0  0  0  0  0  0  0
   37.7650   22.0120   35.0770 C   0  0  0  0  0  0  0  0  0  0  0  0
   37.1900   21.3530   33.8500 C   0  0  1  0  0  0  0  0  0  0  0  0
   35.7790   20.9140   33.8620 C   0  0  2  0  0  0  0  0  0  0  0  0
   35.4630   19.5580   33.2210 C   0  0  0  0  0  0  0  0  0  0  0  0
   35.0340   20.8030   32.5860 C   0  0  2  0  0  0  0  0  0  0  0  0
   35.6570   21.0880   31.2550 C   0  0  0  0  0  0  0  0  0  0  0  0
   35.6220   22.2980   30.8510 O   0  0  0  0  0  0  0  0  0  0  0  0
   36.2620   20.1420   30.4140 O   0  0  0  0  0  0  0  0  0  0  0  0
   37.6330   20.2440   30.2230 C   0  0  0  0  0  0  0  0  0  0  0  0
   38.2290   19.9960   29.1200 O   0  0  0  0  0  0  0  0  0  0  0  0
   40.6507   25.3566   31.7825 H   0  0  0  0  0  0  0  0  0  0  0  0
   41.2399   25.4524   33.5109 H   0  0  0  0  0  0  0  0  0  0  0  0
   42.4511   23.8996   31.8481 H   0  0  0  0  0  0  0  0  0  0  0  0
   42.0353   23.3157   33.5067 H   0  0  0  0  0  0  0  0  0  0  0  0
   41.2711   22.0596   31.1621 H   0  0  0  0  0  0  0  0  0  0  0  0
   39.2924   21.1347   32.4735 H   0  0  0  0  0  0  0  0  0  0  0  0
   37.4327   25.9994   32.0752 H   0  0  0  0  0  0  0  0  0  0  0  0
   39.6092   25.3595   35.7343 H   0  0  0  0  0  0  0  0  0  0  0  0
   36.5943   28.2974   35.5199 H   0  0  0  0  0  0  0  0  0  0  0  0
   37.0559   23.5159   33.1737 H   0  0  0  0  0  0  0  0  0  0  0  0
   38.7622   21.7351   35.4498 H   0  0  0  0  0  0  0  0  0  0  0  0
   37.4488   22.1982   36.1140 H   0  0  0  0  0  0  0  0  0  0  0  0
   37.4280   20.4518   33.2659 H   0  0  0  0  0  0  0  0  0  0  0  0
   35.5948   21.4102   34.8263 H   0  0  0  0  0  0  0  0  0  0  0  0
   36.2686   18.9584   32.7721 H   0  0  0  0  0  0  0  0  0  0  0  0
   34.9631   18.6349   33.5497 H   0  0  0  0  0  0  0  0  0  0  0  0
   34.0859   21.2615   32.2682 H   0  0  0  0  0  0  0  0  0  0  0  0
   38.2480   20.5596   31.0787 H   0  0  0  0  0  0  0  0  0  0  0  0
  1  8  1  0
  2  1  1  0
  3  2  1  0
  4  3  1  0
  4  5  1  0
  5  6  2  0
  6  1  1  0
  6 13  1  0
  7 12  2  0
  7  8  1  0
  8  9  2  0
  9 10  1  0
 11 10  2  0
 12 11  1  0
 13 15  1  0
 13 14  1  0
 15 16  1  0
 15 14  1  0
 17 16  1  0
 18 17  1  0
 18 16  1  0
 19 18  1  0
 20 19  2  0
 21 19  1  0
 22 21  1  0
 23 22  2  0
  2 24  1  0
  2 25  1  0
  3 26  1  0
  3 27  1  0
  4 28  1  0
  5 29  1  0
  7 30  1  0
  9 31  1  0
 11 32  1  0
 13 33  1  1
 14 34  1  0
 14 35  1  0
 15 36  1  6
 16 37  1  1
 17 38  1  0
 17 39  1  0
 18 40  1  1
 22 41  1  0
M  ISO  8  24  13  25  13  26  13  27  13  29  13  30  14  31  14  32  14
M  ISO  8  33  13  34  13  35  13  36  13  37  13  38  13  39  13  40  13
M  ISO  1  41   6
M  END
>  <minimizedAffinity>  (1) 
-4.06574202

>  <minimizedRMSD>  (1) 
0.381162226

$$$$
