
     RDKit          3D

 33 35  0  0  1  0  0  0  0  0999 V2000
   38.1110   25.9220   35.2930 C   0  0  1  0  0  0  0  0  0  0  0  0
   38.0100   24.6470   37.3880 C   0  0  0  0  0  0  0  0  0  0  0  0
   38.6610   24.8310   36.1400 C   0  0  0  0  0  0  0  0  0  0  0  0
   39.7150   23.9880   35.8230 C   0  0  0  0  0  0  0  0  0  0  0  0
   40.0790   23.0290   36.7040 N   0  0  0  0  0  0  0  0  0  0  0  0
   39.4400   22.8710   37.8930 C   0  0  0  0  0  0  0  0  0  0  0  0
   38.4120   23.6790   38.2280 N   0  0  0  0  0  0  0  0  0  0  0  0
   38.5200   27.2710   35.9210 C   0  0  0  0  0  0  0  0  0  0  0  0
   38.5310   25.8780   33.8750 C   0  0  0  0  0  0  0  0  0  0  0  0
   37.4250   25.8380   32.9040 C   0  0  0  0  0  0  0  0  0  0  0  0
   36.8340   26.9810   32.4680 N   0  0  0  0  0  0  0  0  0  0  0  0
   35.8050   26.9790   31.6010 C   0  0  0  0  0  0  0  0  0  0  0  0
   35.3130   25.8240   31.1210 N   0  0  0  0  0  0  0  0  0  0  0  0
   35.8270   24.6410   31.4900 C   0  0  0  0  0  0  0  0  0  0  0  0
   35.3210   23.4600   30.9890 C   0  0  0  0  0  0  0  0  0  0  0  0
   35.9140   22.2890   31.4150 C   0  0  0  0  0  0  0  0  0  0  0  0
   36.9680   22.3100   32.3040 C   0  0  0  0  0  0  0  0  0  0  0  0
   37.4880   23.4920   32.8180 C   0  0  0  0  0  0  0  0  0  0  0  0
   36.8880   24.6590   32.3860 C   0  0  0  0  0  0  0  0  0  0  0  0
   37.0191   25.7906   35.2713 H   0  0  0  0  0  0  0  0  0  0  0  0
   37.1713   25.3010   37.6688 H   0  0  0  0  0  0  0  0  0  0  0  0
   40.2482   24.0979   34.8672 H   0  0  0  0  0  0  0  0  0  0  0  0
   39.7624   22.0802   38.5863 H   0  0  0  0  0  0  0  0  0  0  0  0
   38.4947   27.1876   37.0175 H   0  0  0  0  0  0  0  0  0  0  0  0
   39.5379   27.5329   35.5965 H   0  0  0  0  0  0  0  0  0  0  0  0
   37.8189   28.0541   35.5965 H   0  0  0  0  0  0  0  0  0  0  0  0
   39.1348   26.7741   33.6691 H   0  0  0  0  0  0  0  0  0  0  0  0
   39.0896   24.9391   33.7467 H   0  0  0  0  0  0  0  0  0  0  0  0
   35.3614   27.9335   31.2814 H   0  0  0  0  0  0  0  0  0  0  0  0
   34.4802   23.4517   30.2798 H   0  0  0  0  0  0  0  0  0  0  0  0
   35.5405   21.3247   31.0400 H   0  0  0  0  0  0  0  0  0  0  0  0
   37.4142   21.3549   32.6183 H   0  0  0  0  0  0  0  0  0  0  0  0
   38.3285   23.4979   33.5276 H   0  0  0  0  0  0  0  0  0  0  0  0
  1  8  1  0
  1  3  1  0
  2  7  2  0
  3  2  1  0
  4  3  2  0
  4  5  1  0
  5  6  2  0
  6  7  1  0
  9  1  1  0
 10  9  1  0
 11 10  2  0
 12 11  1  0
 13 14  1  0
 13 12  2  0
 14 19  2  0
 15 16  2  0
 15 14  1  0
 16 17  1  0
 17 18  2  0
 19 18  1  0
 19 10  1  0
  1 20  1  6
  2 21  1  0
  4 22  1  0
  6 23  1  0
  8 24  1  0
  8 25  1  0
  8 26  1  0
  9 27  1  0
  9 28  1  0
 12 29  1  0
 15 30  1  0
 16 31  1  0
 17 32  1  0
 18 33  1  0
M  ISO  8  20   8  21  14  22  14  23  14  24   8  25   8  26   8  27   8
M  ISO  6  28   8  29  14  30  14  31  14  32  14  33  14
M  END
>  <minimizedAffinity>  (1) 
-5.20424509

>  <minimizedRMSD>  (1) 
2.19211006

$$$$
