
     RDKit          3D

 35 37  0  0  1  0  0  0  0  0999 V2000
   38.1070   25.9050   35.2550 C   0  0  1  0  0  0  0  0  0  0  0  0
   37.9960   24.6680   37.3670 C   0  0  0  0  0  0  0  0  0  0  0  0
   38.6500   24.8390   36.1170 C   0  0  0  0  0  0  0  0  0  0  0  0
   39.6970   23.9850   35.8180 C   0  0  0  0  0  0  0  0  0  0  0  0
   40.0510   23.0300   36.7210 N   0  0  0  0  0  0  0  0  0  0  0  0
   39.4130   22.8880   37.8970 C   0  0  0  0  0  0  0  0  0  0  0  0
   38.3970   23.7070   38.2050 N   0  0  0  0  0  0  0  0  0  0  0  0
   38.4460   27.2640   35.9010 C   0  0  0  0  0  0  0  0  0  0  0  0
   38.5890   25.8850   33.8530 C   0  0  0  0  0  0  0  0  0  0  0  0
   37.4540   25.8460   32.8710 C   0  0  0  0  0  0  0  0  0  0  0  0
   36.8570   27.0100   32.4270 C   0  0  0  0  0  0  0  0  0  0  0  0
   35.7860   26.9280   31.5390 C   0  0  0  0  0  0  0  0  0  0  0  0
   35.2930   25.7230   31.0780 C   0  0  0  0  0  0  0  0  0  0  0  0
   35.8920   24.5370   31.5220 C   0  0  0  0  0  0  0  0  0  0  0  0
   35.3930   23.3520   31.0470 C   0  0  0  0  0  0  0  0  0  0  0  0
   35.9860   22.1650   31.4740 C   0  0  0  0  0  0  0  0  0  0  0  0
   37.0630   22.2090   32.3630 C   0  0  0  0  0  0  0  0  0  0  0  0
   37.5020   23.4510   32.7910 C   0  0  0  0  0  0  0  0  0  0  0  0
   36.9490   24.6520   32.3990 C   0  0  0  0  0  0  0  0  0  0  0  0
   37.0227   25.7332   35.1863 H   0  0  0  0  0  0  0  0  0  0  0  0
   37.1598   25.3265   37.6449 H   0  0  0  0  0  0  0  0  0  0  0  0
   40.2359   24.0767   34.8635 H   0  0  0  0  0  0  0  0  0  0  0  0
   39.7235   22.1034   38.6027 H   0  0  0  0  0  0  0  0  0  0  0  0
   38.4215   27.1656   36.9963 H   0  0  0  0  0  0  0  0  0  0  0  0
   39.4506   27.5804   35.5837 H   0  0  0  0  0  0  0  0  0  0  0  0
   37.7077   28.0152   35.5837 H   0  0  0  0  0  0  0  0  0  0  0  0
   39.1869   26.7899   33.6696 H   0  0  0  0  0  0  0  0  0  0  0  0
   39.1922   24.9759   33.7130 H   0  0  0  0  0  0  0  0  0  0  0  0
   37.2223   27.9892   32.7700 H   0  0  0  0  0  0  0  0  0  0  0  0
   35.3149   27.8594   31.1917 H   0  0  0  0  0  0  0  0  0  0  0  0
   34.4466   25.6951   30.3760 H   0  0  0  0  0  0  0  0  0  0  0  0
   34.5454   23.3381   30.3460 H   0  0  0  0  0  0  0  0  0  0  0  0
   35.6076   21.1975   31.1125 H   0  0  0  0  0  0  0  0  0  0  0  0
   37.5475   21.2853   32.7124 H   0  0  0  0  0  0  0  0  0  0  0  0
   38.3496   23.4815   33.4914 H   0  0  0  0  0  0  0  0  0  0  0  0
  1  8  1  0
  1  3  1  0
  2  7  2  0
  3  2  1  0
  4  3  2  0
  4  5  1  0
  5  6  2  0
  6  7  1  0
  9  1  1  0
 10  9  1  0
 11 10  2  0
 12 11  1  0
 13 14  1  0
 13 12  2  0
 14 19  2  0
 15 16  2  0
 15 14  1  0
 16 17  1  0
 17 18  2  0
 19 18  1  0
 19 10  1  0
  1 20  1  6
  2 21  1  0
  4 22  1  0
  6 23  1  0
  8 24  1  0
  8 25  1  0
  8 26  1  0
  9 27  1  0
  9 28  1  0
 11 29  1  0
 12 30  1  0
 13 31  1  0
 15 32  1  0
 16 33  1  0
 17 34  1  0
 18 35  1  0
M  ISO  8  20   8  21  14  22  14  23  14  24   8  25   8  26   8  27   8
M  ISO  8  28   8  29  14  30  14  31  14  32  14  33  14  34  14  35  14
M  END
>  <minimizedAffinity>  (1) 
-5.38589001

>  <minimizedRMSD>  (1) 
2.36765027

$$$$
