
     RDKit          3D

 32 33  0  0  1  0  0  0  0  0999 V2000
   38.5930   25.5240   35.0510 C   0  0  1  0  0  0  0  0  0  0  0  0
   37.8690   25.0370   37.3450 C   0  0  0  0  0  0  0  0  0  0  0  0
   38.7010   24.7070   36.2610 C   0  0  0  0  0  0  0  0  0  0  0  0
   39.5610   23.6200   36.4090 C   0  0  0  0  0  0  0  0  0  0  0  0
   39.5730   22.9180   37.5730 N   0  0  0  0  0  0  0  0  0  0  0  0
   38.7470   23.2750   38.5980 C   0  0  0  0  0  0  0  0  0  0  0  0
   37.9120   24.3140   38.4840 N   0  0  0  0  0  0  0  0  0  0  0  0
   39.5030   26.7600   35.2090 C   0  0  0  0  0  0  0  0  0  0  0  0
   38.8800   24.8940   33.7680 C   0  0  0  0  0  0  0  0  0  0  0  0
   37.8720   24.3570   32.9590 N   0  0  0  0  0  0  0  0  0  0  0  0
   36.8520   24.9250   32.2860 C   0  0  0  0  0  0  0  0  0  0  0  0
   35.9270   24.2750   31.5270 C   0  0  0  0  0  0  0  0  0  0  0  0
   34.8740   25.0800   30.8590 C   0  0  0  0  0  0  0  0  0  0  0  0
   36.0150   22.9110   31.4190 C   0  0  0  0  0  0  0  0  0  0  0  0
   35.1860   22.2850   30.7350 O   0  0  0  0  0  0  0  0  0  0  0  0
   37.0320   22.3060   32.0850 N   0  0  0  0  0  0  0  0  0  0  0  0
   37.9190   23.0140   32.8240 C   0  0  0  0  0  0  0  0  0  0  0  0
   38.7900   22.2830   33.3690 O   0  0  0  0  0  0  0  0  0  0  0  0
   37.5203   25.7598   34.9901 H   0  0  0  0  0  0  0  0  0  0  0  0
   37.1787   25.8896   37.2645 H   0  0  0  0  0  0  0  0  0  0  0  0
   40.2293   23.3305   35.5846 H   0  0  0  0  0  0  0  0  0  0  0  0
   38.7678   22.6986   39.5347 H   0  0  0  0  0  0  0  0  0  0  0  0
   39.6563   26.9682   36.2782 H   0  0  0  0  0  0  0  0  0  0  0  0
   40.4740   26.5640   34.7307 H   0  0  0  0  0  0  0  0  0  0  0  0
   39.0275   27.6290   34.7307 H   0  0  0  0  0  0  0  0  0  0  0  0
   39.3892   25.6556   33.1591 H   0  0  0  0  0  0  0  0  0  0  0  0
   39.4323   23.9932   34.0738 H   0  0  0  0  0  0  0  0  0  0  0  0
   36.7576   26.0187   32.3565 H   0  0  0  0  0  0  0  0  0  0  0  0
   34.2431   25.5623   31.6201 H   0  0  0  0  0  0  0  0  0  0  0  0
   35.3448   25.8507   30.2309 H   0  0  0  0  0  0  0  0  0  0  0  0
   34.2538   24.4236   30.2309 H   0  0  0  0  0  0  0  0  0  0  0  0
   37.1314   21.2825   32.0267 H   0  0  0  0  0  0  0  0  0  0  0  0
  1  8  1  0
  1  3  1  0
  2  7  2  0
  3  4  2  0
  3  2  1  0
  4  5  1  0
  5  6  2  0
  7  6  1  0
  9  1  1  0
 10  9  1  0
 11 10  1  0
 12 11  2  0
 13 12  1  0
 14 12  1  0
 14 16  1  0
 15 14  2  0
 16 17  1  0
 17 10  1  0
 17 18  2  0
  1 19  1  6
  2 20  1  0
  4 21  1  0
  6 22  1  0
  8 23  1  0
  8 24  1  0
  8 25  1  0
  9 26  1  0
  9 27  1  0
 11 28  1  0
 13 29  1  0
 13 30  1  0
 13 31  1  0
 16 32  1  0
M  ISO  8  19   8  20  14  21  14  22  14  23   8  24   8  25   8  26   8
M  ISO  6  27   8  28  14  29   8  30   8  31   8  32   9
M  END
>  <minimizedAffinity>  (1) 
-4.68301678

>  <minimizedRMSD>  (1) 
1.38333952

$$$$
