
     RDKit          3D

 30 32  0  0  1  0  0  0  0  0999 V2000
   38.0690   26.0930   35.4020 C   0  0  1  0  0  0  0  0  0  0  0  0
   39.6600   24.2320   35.6310 C   0  0  0  0  0  0  0  0  0  0  0  0
   38.5450   24.9420   36.1670 C   0  0  0  0  0  0  0  0  0  0  0  0
   38.0040   24.4800   37.3790 C   0  0  0  0  0  0  0  0  0  0  0  0
   38.5730   23.3860   37.9670 N   0  0  0  0  0  0  0  0  0  0  0  0
   39.6380   22.7490   37.4060 C   0  0  0  0  0  0  0  0  0  0  0  0
   40.1690   23.1700   36.2570 N   0  0  0  0  0  0  0  0  0  0  0  0
   38.4200   27.3830   36.1670 C   0  0  0  0  0  0  0  0  0  0  0  0
   38.5360   26.1740   34.0030 C   0  0  0  0  0  0  0  0  0  0  0  0
   37.4810   26.4380   33.0720 N   0  0  0  0  0  0  0  0  0  0  0  0
   36.8710   27.5180   32.5940 C   0  0  0  0  0  0  0  0  0  0  0  0
   35.9080   27.1950   31.7110 N   0  0  0  0  0  0  0  0  0  0  0  0
   35.8910   25.8450   31.6110 C   0  0  0  0  0  0  0  0  0  0  0  0
   35.0600   25.0930   30.8180 C   0  0  0  0  0  0  0  0  0  0  0  0
   35.2570   23.7460   30.9090 N   0  0  0  0  0  0  0  0  0  0  0  0
   36.2130   23.2580   31.7340 C   0  0  0  0  0  0  0  0  0  0  0  0
   37.0040   24.0330   32.4930 N   0  0  0  0  0  0  0  0  0  0  0  0
   36.8760   25.3830   32.4630 C   0  0  0  0  0  0  0  0  0  0  0  0
   36.9807   25.9617   35.3108 H   0  0  0  0  0  0  0  0  0  0  0  0
   40.1083   24.5665   34.6839 H   0  0  0  0  0  0  0  0  0  0  0  0
   37.1444   24.9863   37.8423 H   0  0  0  0  0  0  0  0  0  0  0  0
   40.0684   21.8709   37.9098 H   0  0  0  0  0  0  0  0  0  0  0  0
   38.3683   27.1931   37.2492 H   0  0  0  0  0  0  0  0  0  0  0  0
   39.4378   27.7028   35.8990 H   0  0  0  0  0  0  0  0  0  0  0  0
   37.7045   28.1744   35.8990 H   0  0  0  0  0  0  0  0  0  0  0  0
   39.2788   26.9819   33.9283 H   0  0  0  0  0  0  0  0  0  0  0  0
   38.9643   25.1946   33.7435 H   0  0  0  0  0  0  0  0  0  0  0  0
   37.1223   28.5488   32.8844 H   0  0  0  0  0  0  0  0  0  0  0  0
   34.2977   25.5399   30.1629 H   0  0  0  0  0  0  0  0  0  0  0  0
   36.3490   22.1676   31.7852 H   0  0  0  0  0  0  0  0  0  0  0  0
  1  8  1  0
  1  3  1  0
  2  3  2  0
  2  7  1  0
  3  4  1  0
  4  5  2  0
  6  5  1  0
  7  6  2  0
  9  1  1  0
 10  9  1  0
 11 10  1  0
 12 11  2  0
 13 12  1  0
 13 18  2  0
 14 15  2  0
 14 13  1  0
 15 16  1  0
 16 17  2  0
 18 17  1  0
 18 10  1  0
  1 19  1  6
  2 20  1  0
  4 21  1  0
  6 22  1  0
  8 23  1  0
  8 24  1  0
  8 25  1  0
  9 26  1  0
  9 27  1  0
 11 28  1  0
 14 29  1  0
 16 30  1  0
M  ISO  8  19   8  20  14  21  14  22  14  23   8  24   8  25   8  26   8
M  ISO  4  27   8  28  14  29  14  30  14
M  END
>  <minimizedAffinity>  (1) 
-4.78716612

>  <minimizedRMSD>  (1) 
2.92959189

$$$$
