
     RDKit          3D

 27 28  0  0  1  0  0  0  0  0999 V2000
   37.9920   25.8610   35.3090 C   0  0  1  0  0  0  0  0  0  0  0  0
   39.6440   24.1030   35.7410 C   0  0  0  0  0  0  0  0  0  0  0  0
   38.4940   24.8160   36.1980 C   0  0  0  0  0  0  0  0  0  0  0  0
   37.9600   24.4640   37.4490 C   0  0  0  0  0  0  0  0  0  0  0  0
   38.5680   23.4670   38.1510 N   0  0  0  0  0  0  0  0  0  0  0  0
   39.6480   22.8180   37.6910 C   0  0  0  0  0  0  0  0  0  0  0  0
   40.1850   23.1330   36.4920 N   0  0  0  0  0  0  0  0  0  0  0  0
   38.2830   27.2360   35.9260 C   0  0  0  0  0  0  0  0  0  0  0  0
   38.4820   25.8110   33.9120 C   0  0  0  0  0  0  0  0  0  0  0  0
   37.3700   25.7520   32.9260 C   0  0  0  0  0  0  0  0  0  0  0  0
   36.8050   26.9360   32.4990 C   0  0  0  0  0  0  0  0  0  0  0  0
   35.7610   27.0530   31.5840 C   0  0  0  0  0  0  0  0  0  0  0  0
   35.2900   25.8980   31.0960 N   0  0  0  0  0  0  0  0  0  0  0  0
   35.8230   24.7270   31.4970 C   0  0  0  0  0  0  0  0  0  0  0  0
   36.8280   24.6430   32.3790 N   0  0  0  0  0  0  0  0  0  0  0  0
   36.9107   25.6773   35.2247 H   0  0  0  0  0  0  0  0  0  0  0  0
   40.0889   24.3514   34.7662 H   0  0  0  0  0  0  0  0  0  0  0  0
   37.0751   24.9793   37.8508 H   0  0  0  0  0  0  0  0  0  0  0  0
   40.1017   22.0200   38.2971 H   0  0  0  0  0  0  0  0  0  0  0  0
   38.2662   27.1566   37.0230 H   0  0  0  0  0  0  0  0  0  0  0  0
   39.2744   27.5824   35.5986 H   0  0  0  0  0  0  0  0  0  0  0  0
   37.5170   27.9544   35.5986 H   0  0  0  0  0  0  0  0  0  0  0  0
   39.0821   26.7116   33.7151 H   0  0  0  0  0  0  0  0  0  0  0  0
   39.0819   24.8960   33.7981 H   0  0  0  0  0  0  0  0  0  0  0  0
   37.2140   27.8677   32.9169 H   0  0  0  0  0  0  0  0  0  0  0  0
   35.3511   28.0283   31.2826 H   0  0  0  0  0  0  0  0  0  0  0  0
   35.4132   23.7952   31.0801 H   0  0  0  0  0  0  0  0  0  0  0  0
  1  8  1  0
  1  3  1  0
  2  3  2  0
  2  7  1  0
  3  4  1  0
  4  5  2  0
  6  5  1  0
  7  6  2  0
  9  1  1  0
 10  9  1  0
 11 10  2  0
 12 11  1  0
 13 14  1  0
 13 12  2  0
 14 15  2  0
 15 10  1  0
  1 16  1  6
  2 17  1  0
  4 18  1  0
  6 19  1  0
  8 20  1  0
  8 21  1  0
  8 22  1  0
  9 23  1  0
  9 24  1  0
 11 25  1  0
 12 26  1  0
 14 27  1  0
M  ISO  8  16   8  17  14  18  14  19  14  20   8  21   8  22   8  23   8
M  ISO  4  24   8  25  14  26  14  27  14
M  END
>  <minimizedAffinity>  (1) 
-4.34063578

>  <minimizedRMSD>  (1) 
2.38588262

$$$$
