
     RDKit          3D

 31 32  0  0  1  0  0  0  0  0999 V2000
   37.9050   25.8850   35.3190 C   0  0  1  0  0  0  0  0  0  0  0  0
   37.9500   24.6270   37.4160 C   0  0  0  0  0  0  0  0  0  0  0  0
   38.5250   24.8280   36.1310 C   0  0  0  0  0  0  0  0  0  0  0  0
   39.5850   24.0210   35.7530 C   0  0  0  0  0  0  0  0  0  0  0  0
   40.0320   23.0740   36.6200 N   0  0  0  0  0  0  0  0  0  0  0  0
   39.4690   22.9020   37.8370 C   0  0  0  0  0  0  0  0  0  0  0  0
   38.4360   23.6720   38.2330 N   0  0  0  0  0  0  0  0  0  0  0  0
   38.3210   27.2610   35.8730 C   0  0  0  0  0  0  0  0  0  0  0  0
   38.1790   25.8280   33.8670 C   0  0  0  0  0  0  0  0  0  0  0  0
   36.9610   25.6320   33.0650 N   0  0  0  0  0  0  0  0  0  0  0  0
   37.0450   24.4300   32.3120 C   0  0  0  0  0  0  0  0  0  0  0  0
   36.5850   24.5000   30.8970 C   0  0  0  0  0  0  0  0  0  0  0  0
   35.5200   25.4650   30.7000 N   0  0  0  0  0  0  0  0  0  0  0  0
   36.0560   26.7450   31.0370 C   0  0  0  0  0  0  0  0  0  0  0  0
   36.7500   26.8420   32.3510 C   0  0  0  0  0  0  0  0  0  0  0  0
   36.8213   25.7175   35.4054 H   0  0  0  0  0  0  0  0  0  0  0  0
   37.1066   25.2525   37.7438 H   0  0  0  0  0  0  0  0  0  0  0  0
   40.0576   24.1442   34.7674 H   0  0  0  0  0  0  0  0  0  0  0  0
   39.8582   22.1251   38.5115 H   0  0  0  0  0  0  0  0  0  0  0  0
   38.3121   27.2315   36.9726 H   0  0  0  0  0  0  0  0  0  0  0  0
   39.3337   27.5071   35.5210 H   0  0  0  0  0  0  0  0  0  0  0  0
   37.6143   28.0269   35.5210 H   0  0  0  0  0  0  0  0  0  0  0  0
   38.6531   26.7723   33.5613 H   0  0  0  0  0  0  0  0  0  0  0  0
   38.8368   24.9648   33.6873 H   0  0  0  0  0  0  0  0  0  0  0  0
   38.0980   24.1120   32.3060 H   0  0  0  0  0  0  0  0  0  0  0  0
   36.3590   23.7271   32.8072 H   0  0  0  0  0  0  0  0  0  0  0  0
   37.4383   24.7839   30.2635 H   0  0  0  0  0  0  0  0  0  0  0  0
   36.1890   23.5097   30.6277 H   0  0  0  0  0  0  0  0  0  0  0  0
   34.5619   25.2654   30.3789 H   0  0  0  0  0  0  0  0  0  0  0  0
   35.9616   27.6101   30.3642 H   0  0  0  0  0  0  0  0  0  0  0  0
   37.0852   27.8099   32.7520 H   0  0  0  0  0  0  0  0  0  0  0  0
  1  8  1  0
  1  3  1  0
  2  7  2  0
  3  2  1  0
  4  3  2  0
  4  5  1  0
  5  6  2  0
  6  7  1  0
  9  1  1  0
 10  9  1  0
 11 10  1  0
 12 11  1  0
 13 12  1  0
 13 14  1  0
 14 15  2  0
 15 10  1  0
  1 16  1  6
  2 17  1  0
  4 18  1  0
  6 19  1  0
  8 20  1  0
  8 21  1  0
  8 22  1  0
  9 23  1  0
  9 24  1  0
 11 25  1  0
 11 26  1  0
 12 27  1  0
 12 28  1  0
 13 29  1  0
 14 30  1  0
 15 31  1  0
M  ISO  8  16   8  17  14  18  14  19  14  20   8  21   8  22   8  23   8
M  ISO  7  24   8  25  13  26  13  27  13  28  13  30  13  31  13
M  END
>  <minimizedAffinity>  (1) 
-4.393713

>  <minimizedRMSD>  (1) 
1.64459646

$$$$
