
     RDKit          3D

 28 29  0  0  1  0  0  0  0  0999 V2000
   37.9750   25.7930   35.1710 C   0  0  1  0  0  0  0  0  0  0  0  0
   37.9390   24.6250   37.3320 C   0  0  0  0  0  0  0  0  0  0  0  0
   38.5460   24.7880   36.0740 C   0  0  0  0  0  0  0  0  0  0  0  0
   39.6340   23.9650   35.7660 C   0  0  0  0  0  0  0  0  0  0  0  0
   40.0530   23.0520   36.6910 N   0  0  0  0  0  0  0  0  0  0  0  0
   39.4440   22.9290   37.8850 C   0  0  0  0  0  0  0  0  0  0  0  0
   38.3890   23.7160   38.2010 N   0  0  0  0  0  0  0  0  0  0  0  0
   38.1980   27.1910   35.7720 C   0  0  0  0  0  0  0  0  0  0  0  0
   38.4110   25.7420   33.7590 C   0  0  0  0  0  0  0  0  0  0  0  0
   37.2850   25.6990   32.7880 C   0  0  0  0  0  0  0  0  0  0  0  0
   36.9020   24.4370   32.3320 C   0  0  0  0  0  0  0  0  0  0  0  0
   35.8580   24.3090   31.4250 C   0  0  0  0  0  0  0  0  0  0  0  0
   35.2050   25.4480   30.9790 C   0  0  0  0  0  0  0  0  0  0  0  0
   35.6160   26.6930   31.4570 C   0  0  0  0  0  0  0  0  0  0  0  0
   36.6340   26.7920   32.3390 N   0  0  0  0  0  0  0  0  0  0  0  0
   36.9046   25.5486   35.1045 H   0  0  0  0  0  0  0  0  0  0  0  0
   37.0802   25.2560   37.6046 H   0  0  0  0  0  0  0  0  0  0  0  0
   40.1436   24.0517   34.7950 H   0  0  0  0  0  0  0  0  0  0  0  0
   39.8060   22.1840   38.6088 H   0  0  0  0  0  0  0  0  0  0  0  0
   38.1873   27.1241   36.8699 H   0  0  0  0  0  0  0  0  0  0  0  0
   39.1700   27.5829   35.4380 H   0  0  0  0  0  0  0  0  0  0  0  0
   37.3962   27.8659   35.4380 H   0  0  0  0  0  0  0  0  0  0  0  0
   39.0164   26.6362   33.5497 H   0  0  0  0  0  0  0  0  0  0  0  0
   38.9818   24.8103   33.6317 H   0  0  0  0  0  0  0  0  0  0  0  0
   37.4286   23.5408   32.6920 H   0  0  0  0  0  0  0  0  0  0  0  0
   35.5527   23.3156   31.0646 H   0  0  0  0  0  0  0  0  0  0  0  0
   34.3762   25.3714   30.2598 H   0  0  0  0  0  0  0  0  0  0  0  0
   35.1051   27.6039   31.1116 H   0  0  0  0  0  0  0  0  0  0  0  0
  1  8  1  0
  1  3  1  0
  2  7  2  0
  3  2  1  0
  4  3  2  0
  4  5  1  0
  5  6  2  0
  6  7  1  0
  9  1  1  0
 10  9  1  0
 11 10  2  0
 12 11  1  0
 13 12  2  0
 13 14  1  0
 14 15  2  0
 15 10  1  0
  1 16  1  6
  2 17  1  0
  4 18  1  0
  6 19  1  0
  8 20  1  0
  8 21  1  0
  8 22  1  0
  9 23  1  0
  9 24  1  0
 11 25  1  0
 12 26  1  0
 13 27  1  0
 14 28  1  0
M  ISO  8  16   8  17  14  18  14  19  14  20   8  21   8  22   8  23   8
M  ISO  5  24   8  25  14  26  14  27  14  28  14
M  END
>  <minimizedAffinity>  (1) 
-4.42967081

>  <minimizedRMSD>  (1) 
1.75138998

$$$$
