
     RDKit          3D

 24 25  0  0  0  0  0  0  0  0999 V2000
   40.8380   22.3090   36.2360 C   0  0  0  0  0  0  0  0  0  0  0  0
   40.2680   22.8390   37.4290 C   0  0  0  0  0  0  0  0  0  0  0  0
   38.8850   23.0840   37.3920 C   0  0  0  0  0  0  0  0  0  0  0  0
   38.1740   22.8140   36.2620 N   0  0  0  0  0  0  0  0  0  0  0  0
   38.7960   22.3060   35.1610 C   0  0  0  0  0  0  0  0  0  0  0  0
   40.1040   22.0580   35.1470 N   0  0  0  0  0  0  0  0  0  0  0  0
   37.9650   22.0550   34.0180 N   0  0  0  0  0  0  0  0  0  0  0  0
   38.3800   22.4030   32.7690 C   0  0  0  0  0  0  0  0  0  0  0  0
   37.5680   22.1560   31.6600 C   0  0  0  0  0  0  0  0  0  0  0  0
   36.3450   21.5530   31.8890 C   0  0  0  0  0  0  0  0  0  0  0  0
   35.4640   21.2710   30.8020 N   0  0  0  0  0  0  0  0  0  0  0  0
   35.9340   21.2070   33.1320 N   0  0  0  0  0  0  0  0  0  0  0  0
   36.7530   21.4630   34.1950 C   0  0  0  0  0  0  0  0  0  0  0  0
   36.3790   21.1450   35.3540 O   0  0  0  0  0  0  0  0  0  0  0  0
   38.3340   23.6320   38.6440 C   0  0  0  0  0  0  0  0  0  0  0  0
   37.8590   24.8930   38.4110 F   0  0  0  0  0  0  0  0  0  0  0  0
   39.3880   23.7660   39.5160 F   0  0  0  0  0  0  0  0  0  0  0  0
   37.3150   22.8600   39.1580 F   0  0  0  0  0  0  0  0  0  0  0  0
   41.9175   22.0993   36.2098 H   0  0  0  0  0  0  0  0  0  0  0  0
   40.8734   23.0439   38.3243 H   0  0  0  0  0  0  0  0  0  0  0  0
   39.3609   22.8817   32.6325 H   0  0  0  0  0  0  0  0  0  0  0  0
   37.8888   22.4304   30.6442 H   0  0  0  0  0  0  0  0  0  0  0  0
   34.5544   20.8216   30.9796 H   0  0  0  0  0  0  0  0  0  0  0  0
   35.7379   21.5169   29.8400 H   0  0  0  0  0  0  0  0  0  0  0  0
  1  2  2  0
  3  2  1  0
  3 15  1  0
  4  3  2  0
  5  4  1  0
  6  5  2  0
  6  1  1  0
  7 13  1  0
  7  5  1  0
  8  7  1  0
  9 10  1  0
  9  8  2  0
 10 12  2  0
 11 10  1  0
 12 13  1  0
 13 14  2  0
 15 18  1  0
 15 17  1  0
 16 15  1  0
  1 19  1  0
  2 20  1  0
  8 21  1  0
  9 22  1  0
 11 23  1  0
 11 24  1  0
M  ISO  4  19  14  20  14  21  14  22  14
M  END
>  <minimizedAffinity>  (1) 
-5.20839119

>  <minimizedRMSD>  (1) 
0.947081864

$$$$
