
     RDKit          3D

 26 27  0  0  1  0  0  0  0  0999 V2000
   37.9360   25.8610   35.2930 C   0  0  1  0  0  0  0  0  0  0  0  0
   37.9400   24.6230   37.4100 C   0  0  0  0  0  0  0  0  0  0  0  0
   38.5340   24.8090   36.1350 C   0  0  0  0  0  0  0  0  0  0  0  0
   39.6180   23.9910   35.7760 C   0  0  0  0  0  0  0  0  0  0  0  0
   40.0390   23.0600   36.6800 N   0  0  0  0  0  0  0  0  0  0  0  0
   39.4360   22.9180   37.8920 C   0  0  0  0  0  0  0  0  0  0  0  0
   38.4020   23.6910   38.2450 N   0  0  0  0  0  0  0  0  0  0  0  0
   38.3000   27.2360   35.8920 C   0  0  0  0  0  0  0  0  0  0  0  0
   38.3160   25.8500   33.8700 C   0  0  0  0  0  0  0  0  0  0  0  0
   37.2430   26.1870   32.9360 C   0  0  0  0  0  0  0  0  0  0  0  0
   36.6030   27.3420   32.5590 C   0  0  0  0  0  0  0  0  0  0  0  0
   35.6760   27.0480   31.6400 N   0  0  0  0  0  0  0  0  0  0  0  0
   35.7230   25.7370   31.4350 C   0  0  0  0  0  0  0  0  0  0  0  0
   36.6730   25.1790   32.2140 N   0  0  0  0  0  0  0  0  0  0  0  0
   36.8551   25.6569   35.3012 H   0  0  0  0  0  0  0  0  0  0  0  0
   37.0907   25.2531   37.7127 H   0  0  0  0  0  0  0  0  0  0  0  0
   40.1110   24.0975   34.7985 H   0  0  0  0  0  0  0  0  0  0  0  0
   39.8048   22.1550   38.5933 H   0  0  0  0  0  0  0  0  0  0  0  0
   38.2835   27.1736   36.9901 H   0  0  0  0  0  0  0  0  0  0  0  0
   39.3062   27.5274   35.5564 H   0  0  0  0  0  0  0  0  0  0  0  0
   37.5697   27.9871   35.5564 H   0  0  0  0  0  0  0  0  0  0  0  0
   39.1299   26.5766   33.7296 H   0  0  0  0  0  0  0  0  0  0  0  0
   38.6065   24.8143   33.6399 H   0  0  0  0  0  0  0  0  0  0  0  0
   36.8179   28.3475   32.9498 H   0  0  0  0  0  0  0  0  0  0  0  0
   35.0808   25.1859   30.7322 H   0  0  0  0  0  0  0  0  0  0  0  0
   36.9212   24.1802   32.2558 H   0  0  0  0  0  0  0  0  0  0  0  0
  1  8  1  0
  1  3  1  0
  2  7  2  0
  3  2  1  0
  4  3  2  0
  4  5  1  0
  5  6  2  0
  6  7  1  0
  9  1  1  0
 10  9  1  0
 11 10  2  0
 12 11  1  0
 13 12  2  0
 13 14  1  0
 14 10  1  0
  1 15  1  6
  2 16  1  0
  4 17  1  0
  6 18  1  0
  8 19  1  0
  8 20  1  0
  8 21  1  0
  9 22  1  0
  9 23  1  0
 11 24  1  0
 13 25  1  0
 14 26  1  0
M  ISO  8  15   8  16  14  17  14  18  14  19   8  20   8  21   8  22   8
M  ISO  4  23   8  24  14  25  14  26   9
M  END
>  <minimizedAffinity>  (1) 
-3.97861528

>  <minimizedRMSD>  (1) 
1.99708891

$$$$
