
     RDKit          3D

 25 26  0  0  1  0  0  0  0  0999 V2000
   37.9850   25.8380   35.2440 C   0  0  1  0  0  0  0  0  0  0  0  0
   37.9560   24.6200   37.3690 C   0  0  0  0  0  0  0  0  0  0  0  0
   38.5650   24.8010   36.0960 C   0  0  0  0  0  0  0  0  0  0  0  0
   39.6460   23.9750   35.7830 C   0  0  0  0  0  0  0  0  0  0  0  0
   40.0540   23.0540   36.7040 N   0  0  0  0  0  0  0  0  0  0  0  0
   39.4350   22.9250   37.9070 C   0  0  0  0  0  0  0  0  0  0  0  0
   38.3850   23.7120   38.2350 N   0  0  0  0  0  0  0  0  0  0  0  0
   38.2510   27.2160   35.8790 C   0  0  0  0  0  0  0  0  0  0  0  0
   38.4260   25.8450   33.8340 C   0  0  0  0  0  0  0  0  0  0  0  0
   37.3340   25.8730   32.8800 N   0  0  0  0  0  0  0  0  0  0  0  0
   36.5740   26.8200   32.3010 C   0  0  0  0  0  0  0  0  0  0  0  0
   35.6970   26.2370   31.4790 N   0  0  0  0  0  0  0  0  0  0  0  0
   35.8850   24.9010   31.5230 C   0  0  0  0  0  0  0  0  0  0  0  0
   36.8960   24.7170   32.3910 N   0  0  0  0  0  0  0  0  0  0  0  0
   36.9116   25.6030   35.1938 H   0  0  0  0  0  0  0  0  0  0  0  0
   37.1006   25.2545   37.6441 H   0  0  0  0  0  0  0  0  0  0  0  0
   40.1585   24.0646   34.8138 H   0  0  0  0  0  0  0  0  0  0  0  0
   39.7926   22.1707   38.6233 H   0  0  0  0  0  0  0  0  0  0  0  0
   38.2333   27.1242   36.9750 H   0  0  0  0  0  0  0  0  0  0  0  0
   39.2367   27.5837   35.5577 H   0  0  0  0  0  0  0  0  0  0  0  0
   37.4730   27.9241   35.5577 H   0  0  0  0  0  0  0  0  0  0  0  0
   39.0522   26.7345   33.6708 H   0  0  0  0  0  0  0  0  0  0  0  0
   38.9754   24.9071   33.6652 H   0  0  0  0  0  0  0  0  0  0  0  0
   36.6609   27.9024   32.4765 H   0  0  0  0  0  0  0  0  0  0  0  0
   35.3309   24.1292   30.9686 H   0  0  0  0  0  0  0  0  0  0  0  0
  1  8  1  0
  1  3  1  0
  2  7  2  0
  3  2  1  0
  4  3  2  0
  4  5  1  0
  5  6  2  0
  6  7  1  0
  9  1  1  0
 10  9  1  0
 11 10  1  0
 12 13  1  0
 12 11  2  0
 13 14  2  0
 14 10  1  0
  1 15  1  6
  2 16  1  0
  4 17  1  0
  6 18  1  0
  8 19  1  0
  8 20  1  0
  8 21  1  0
  9 22  1  0
  9 23  1  0
 11 24  1  0
 13 25  1  0
M  ISO  8  15   8  16  14  17  14  18  14  19   8  20   8  21   8  22   8
M  ISO  3  23   8  24  14  25  14
M  END
>  <minimizedAffinity>  (1) 
-3.92374611

>  <minimizedRMSD>  (1) 
1.79133546

$$$$
