
     RDKit          3D

 46 48  0  0  1  0  0  0  0  0999 V2000
   37.0460   27.7600   33.8470 C   0  0  2  0  0  0  0  0  0  0  0  0
   35.7130   28.3840   34.1660 C   0  0  0  0  0  0  0  0  0  0  0  0
   35.7970   29.8140   33.6630 C   0  0  0  0  0  0  0  0  0  0  0  0
   35.8070   29.7460   32.1940 C   0  0  0  0  0  0  0  0  0  0  0  0
   36.7780   28.8170   31.6060 C   0  0  0  0  0  0  0  0  0  0  0  0
   37.4200   27.7610   32.4320 C   0  0  0  0  0  0  0  0  0  0  0  0
   38.2570   27.1440   31.5000 N   0  0  0  0  0  0  0  0  0  0  0  0
   39.3790   27.5320   30.9110 C   0  0  0  0  0  0  0  0  0  0  0  0
   40.1070   27.0060   29.8850 C   0  0  0  0  0  0  0  0  0  0  0  0
   41.3530   27.6150   29.3750 C   0  0  0  0  0  0  0  0  0  0  0  0
   39.5660   25.8570   29.3740 C   0  0  0  0  0  0  0  0  0  0  0  0
   40.1940   25.3120   28.4160 O   0  0  0  0  0  0  0  0  0  0  0  0
   38.4460   25.3420   29.8600 N   0  0  0  0  0  0  0  0  0  0  0  0
   37.8600   25.9790   30.8600 C   0  0  0  0  0  0  0  0  0  0  0  0
   36.7920   25.3280   31.1800 O   0  0  0  0  0  0  0  0  0  0  0  0
   37.0520   26.4220   34.5070 C   0  0  0  0  0  0  0  0  0  0  0  0
   37.8140   26.3410   35.7600 C   0  0  1  0  0  0  0  0  0  0  0  0
   37.8860   24.2970   37.1140 C   0  0  0  0  0  0  0  0  0  0  0  0
   38.4380   25.0740   36.0850 C   0  0  0  0  0  0  0  0  0  0  0  0
   39.5440   24.5350   35.4580 C   0  0  0  0  0  0  0  0  0  0  0  0
   40.0430   23.3210   35.8410 N   0  0  0  0  0  0  0  0  0  0  0  0
   39.4710   22.6220   36.8340 C   0  0  0  0  0  0  0  0  0  0  0  0
   38.3960   23.1180   37.4620 N   0  0  0  0  0  0  0  0  0  0  0  0
   38.8710   27.4550   35.8190 C   0  0  0  0  0  0  0  0  0  0  0  0
   37.8563   28.3841   34.2519 H   0  0  0  0  0  0  0  0  0  0  0  0
   34.9041   27.8438   33.6524 H   0  0  0  0  0  0  0  0  0  0  0  0
   35.4943   28.3451   35.2433 H   0  0  0  0  0  0  0  0  0  0  0  0
   34.9261   30.3895   34.0098 H   0  0  0  0  0  0  0  0  0  0  0  0
   36.7006   30.3140   34.0418 H   0  0  0  0  0  0  0  0  0  0  0  0
   34.8036   29.4399   31.8632 H   0  0  0  0  0  0  0  0  0  0  0  0
   36.1045   30.7475   31.8499 H   0  0  0  0  0  0  0  0  0  0  0  0
   37.0345   28.9029   30.5398 H   0  0  0  0  0  0  0  0  0  0  0  0
   39.8047   28.4556   31.3302 H   0  0  0  0  0  0  0  0  0  0  0  0
   41.9838   27.9233   30.2218 H   0  0  0  0  0  0  0  0  0  0  0  0
   41.8958   26.8806   28.7618 H   0  0  0  0  0  0  0  0  0  0  0  0
   41.1070   28.4944   28.7618 H   0  0  0  0  0  0  0  0  0  0  0  0
   38.0457   24.4757   29.4725 H   0  0  0  0  0  0  0  0  0  0  0  0
   36.0096   26.1466   34.7253 H   0  0  0  0  0  0  0  0  0  0  0  0
   37.5516   25.7394   33.8038 H   0  0  0  0  0  0  0  0  0  0  0  0
   37.0351   26.4634   36.5271 H   0  0  0  0  0  0  0  0  0  0  0  0
   37.0030   24.6743   37.6507 H   0  0  0  0  0  0  0  0  0  0  0  0
   40.0293   25.0888   34.6408 H   0  0  0  0  0  0  0  0  0  0  0  0
   39.8829   21.6462   37.1310 H   0  0  0  0  0  0  0  0  0  0  0  0
   39.0958   27.6919   36.8694 H   0  0  0  0  0  0  0  0  0  0  0  0
   39.7884   27.1170   35.3149 H   0  0  0  0  0  0  0  0  0  0  0  0
   38.4854   28.3534   35.3149 H   0  0  0  0  0  0  0  0  0  0  0  0
  1  2  1  0
  1 16  1  0
  3  2  1  0
  4  3  1  0
  5  4  1  0
  5  6  2  0
  6  1  1  0
  7  6  1  0
  8  7  1  0
  9  8  2  0
 10  9  1  0
 11 13  1  0
 11  9  1  0
 12 11  2  0
 13 14  1  0
 14 15  2  0
 14  7  1  0
 16 17  1  0
 17 24  1  0
 17 19  1  0
 18 23  2  0
 19 18  1  0
 20 21  1  0
 20 19  2  0
 21 22  2  0
 22 23  1  0
  1 25  1  1
  2 26  1  0
  2 27  1  0
  3 28  1  0
  3 29  1  0
  4 30  1  0
  4 31  1  0
  5 32  1  0
  8 33  1  0
 10 34  1  0
 10 35  1  0
 10 36  1  0
 13 37  1  0
 16 38  1  0
 16 39  1  0
 17 40  1  1
 18 41  1  0
 20 42  1  0
 22 43  1  0
 24 44  1  0
 24 45  1  0
 24 46  1  0
M  ISO  8  25  13  26  13  27  13  28  13  29  13  30  13  31  13  32  13
M  ISO  8  33  14  34   8  35   8  36   8  37   9  38   8  39   8  40   8
M  ISO  6  41  14  42  14  43  14  44   8  45   8  46   8
M  END
>  <minimizedAffinity>  (1) 
-5.26036692

>  <minimizedRMSD>  (1) 
2.36865568

$$$$
