
     RDKit          3D

 43 45  0  0  1  0  0  0  0  0999 V2000
   37.6980   27.0320   33.3700 C   0  0  2  0  0  0  0  0  0  0  0  0
   36.3550   27.1050   32.6480 C   0  0  0  0  0  0  0  0  0  0  0  0
   36.3280   28.4860   32.0320 C   0  0  0  0  0  0  0  0  0  0  0  0
   37.2870   28.3820   30.8820 C   0  0  0  0  0  0  0  0  0  0  0  0
   38.6370   27.9430   31.2580 C   0  0  0  0  0  0  0  0  0  0  0  0
   38.8730   27.2540   32.5480 C   0  0  0  0  0  0  0  0  0  0  0  0
   40.2660   26.9630   32.5940 C   0  0  0  0  0  0  0  0  0  0  0  0
   41.0840   26.5370   31.5800 C   0  0  0  0  0  0  0  0  0  0  0  0
   42.4200   26.3260   31.5190 C   0  0  0  0  0  0  0  0  0  0  0  0
   43.0990   26.5760   32.6680 C   0  0  0  0  0  0  0  0  0  0  0  0
   42.4490   27.0080   33.7830 C   0  0  0  0  0  0  0  0  0  0  0  0
   41.0920   27.1810   33.7070 C   0  0  0  0  0  0  0  0  0  0  0  0
   37.6720   25.6860   34.0850 C   0  0  0  0  0  0  0  0  0  0  0  0
   37.7530   25.7940   35.5360 C   0  0  1  0  0  0  0  0  0  0  0  0
   38.0180   24.4180   37.5610 C   0  0  0  0  0  0  0  0  0  0  0  0
   38.4540   24.7690   36.2760 C   0  0  0  0  0  0  0  0  0  0  0  0
   39.5520   24.0890   35.8080 C   0  0  0  0  0  0  0  0  0  0  0  0
   40.1700   23.1330   36.5640 N   0  0  0  0  0  0  0  0  0  0  0  0
   39.6990   22.8420   37.8000 C   0  0  0  0  0  0  0  0  0  0  0  0
   38.6310   23.4830   38.2860 N   0  0  0  0  0  0  0  0  0  0  0  0
   38.2470   27.1720   35.9570 C   0  0  0  0  0  0  0  0  0  0  0  0
   37.8052   27.8719   34.0722 H   0  0  0  0  0  0  0  0  0  0  0  0
   36.2902   26.3310   31.8691 H   0  0  0  0  0  0  0  0  0  0  0  0
   35.5065   26.9342   33.3268 H   0  0  0  0  0  0  0  0  0  0  0  0
   35.3174   28.7379   31.6783 H   0  0  0  0  0  0  0  0  0  0  0  0
   36.6029   29.2764   32.7459 H   0  0  0  0  0  0  0  0  0  0  0  0
   37.3660   29.3719   30.4089 H   0  0  0  0  0  0  0  0  0  0  0  0
   36.8839   27.6149   30.2044 H   0  0  0  0  0  0  0  0  0  0  0  0
   39.4801   28.1273   30.5760 H   0  0  0  0  0  0  0  0  0  0  0  0
   40.5555   26.3270   30.6384 H   0  0  0  0  0  0  0  0  0  0  0  0
   42.9199   25.9768   30.6035 H   0  0  0  0  0  0  0  0  0  0  0  0
   44.1885   26.4275   32.6980 H   0  0  0  0  0  0  0  0  0  0  0  0
   42.9957   27.2118   34.7155 H   0  0  0  0  0  0  0  0  0  0  0  0
   40.5933   27.5307   34.6230 H   0  0  0  0  0  0  0  0  0  0  0  0
   36.7339   25.1730   33.8264 H   0  0  0  0  0  0  0  0  0  0  0  0
   38.5597   25.1276   33.7533 H   0  0  0  0  0  0  0  0  0  0  0  0
   36.7050   25.6251   35.8244 H   0  0  0  0  0  0  0  0  0  0  0  0
   37.1418   24.9308   37.9845 H   0  0  0  0  0  0  0  0  0  0  0  0
   39.9414   24.3185   34.8051 H   0  0  0  0  0  0  0  0  0  0  0  0
   40.1984   22.0733   38.4080 H   0  0  0  0  0  0  0  0  0  0  0  0
   38.2692   27.2339   37.0550 H   0  0  0  0  0  0  0  0  0  0  0  0
   39.2597   27.3355   35.5600 H   0  0  0  0  0  0  0  0  0  0  0  0
   37.5688   27.9417   35.5600 H   0  0  0  0  0  0  0  0  0  0  0  0
  1 13  1  0
  2  1  1  0
  3  2  1  0
  4  5  1  0
  4  3  1  0
  5  6  2  0
  6  7  1  0
  6  1  1  0
  7 12  1  0
  8  7  2  0
  9  8  1  0
  9 10  2  0
 10 11  1  0
 12 11  2  0
 13 14  1  0
 14 21  1  0
 14 16  1  0
 15 20  2  0
 16 15  1  0
 17 16  2  0
 17 18  1  0
 18 19  2  0
 19 20  1  0
  1 22  1  1
  2 23  1  0
  2 24  1  0
  3 25  1  0
  3 26  1  0
  4 27  1  0
  4 28  1  0
  5 29  1  0
  8 30  1  0
  9 31  1  0
 10 32  1  0
 11 33  1  0
 12 34  1  0
 13 35  1  0
 13 36  1  0
 14 37  1  1
 15 38  1  0
 17 39  1  0
 19 40  1  0
 21 41  1  0
 21 42  1  0
 21 43  1  0
M  ISO  8  22  13  23  13  24  13  25  13  26  13  27  13  28  13  29  13
M  ISO  8  30  14  31  14  32  14  33  14  34  14  35   8  36   8  37   8
M  ISO  6  38  14  39  14  40  14  41   8  42   8  43   8
M  END
>  <minimizedAffinity>  (1) 
-5.11606407

>  <minimizedRMSD>  (1) 
0.588346422

$$$$
