
     RDKit          3D

 46 48  0  0  1  0  0  0  0  0999 V2000
   37.7510   27.0940   33.3220 C   0  0  2  0  0  0  0  0  0  0  0  0
   36.4060   27.2260   32.6340 C   0  0  0  0  0  0  0  0  0  0  0  0
   36.4070   28.6210   32.0470 C   0  0  0  0  0  0  0  0  0  0  0  0
   37.3690   28.5720   30.9020 C   0  0  0  0  0  0  0  0  0  0  0  0
   38.6720   27.9540   31.1680 C   0  0  0  0  0  0  0  0  0  0  0  0
   38.8920   27.1980   32.4140 C   0  0  0  0  0  0  0  0  0  0  0  0
   40.2390   26.6700   32.5340 C   0  0  0  0  0  0  0  0  0  0  0  0
   41.0620   27.2570   33.6690 C   0  0  0  0  0  0  0  0  0  0  0  0
   42.5230   27.1690   33.2230 C   0  0  0  0  0  0  0  0  0  0  0  0
   42.4480   26.4560   31.8700 C   0  0  0  0  0  0  0  0  0  0  0  0
   41.1310   27.0840   31.3650 C   0  0  0  0  0  0  0  0  0  0  0  0
   37.6970   25.7510   34.0290 C   0  0  0  0  0  0  0  0  0  0  0  0
   37.7120   25.8420   35.4870 C   0  0  1  0  0  0  0  0  0  0  0  0
   37.9680   24.4490   37.4910 C   0  0  0  0  0  0  0  0  0  0  0  0
   38.4330   24.8160   36.2160 C   0  0  0  0  0  0  0  0  0  0  0  0
   39.5580   24.1420   35.7620 C   0  0  0  0  0  0  0  0  0  0  0  0
   40.1500   23.1880   36.5360 N   0  0  0  0  0  0  0  0  0  0  0  0
   39.6550   22.8780   37.7570 C   0  0  0  0  0  0  0  0  0  0  0  0
   38.5630   23.5150   38.2250 N   0  0  0  0  0  0  0  0  0  0  0  0
   38.2270   27.2280   35.9180 C   0  0  0  0  0  0  0  0  0  0  0  0
   37.9139   27.9274   34.0212 H   0  0  0  0  0  0  0  0  0  0  0  0
   36.3011   26.4717   31.8402 H   0  0  0  0  0  0  0  0  0  0  0  0
   35.5674   27.0683   33.3282 H   0  0  0  0  0  0  0  0  0  0  0  0
   35.4009   28.8897   31.6926 H   0  0  0  0  0  0  0  0  0  0  0  0
   36.6969   29.3770   32.7916 H   0  0  0  0  0  0  0  0  0  0  0  0
   37.5504   29.6060   30.5735 H   0  0  0  0  0  0  0  0  0  0  0  0
   36.8910   27.9300   30.1475 H   0  0  0  0  0  0  0  0  0  0  0  0
   39.4869   28.0549   30.4361 H   0  0  0  0  0  0  0  0  0  0  0  0
   40.0310   25.5951   32.6405 H   0  0  0  0  0  0  0  0  0  0  0  0
   40.7786   28.3054   33.8436 H   0  0  0  0  0  0  0  0  0  0  0  0
   40.8954   26.7121   34.6099 H   0  0  0  0  0  0  0  0  0  0  0  0
   42.9608   28.1722   33.1138 H   0  0  0  0  0  0  0  0  0  0  0  0
   43.1587   26.6403   33.9485 H   0  0  0  0  0  0  0  0  0  0  0  0
   43.3019   26.7025   31.2218 H   0  0  0  0  0  0  0  0  0  0  0  0
   42.4758   25.3568   31.9028 H   0  0  0  0  0  0  0  0  0  0  0  0
   41.2027   28.1768   31.2618 H   0  0  0  0  0  0  0  0  0  0  0  0
   40.7965   26.7681   30.3659 H   0  0  0  0  0  0  0  0  0  0  0  0
   36.7730   25.2376   33.7247 H   0  0  0  0  0  0  0  0  0  0  0  0
   38.6046   25.2026   33.7367 H   0  0  0  0  0  0  0  0  0  0  0  0
   36.6604   25.6751   35.7631 H   0  0  0  0  0  0  0  0  0  0  0  0
   37.0785   24.9539   37.8959 H   0  0  0  0  0  0  0  0  0  0  0  0
   39.9747   24.3787   34.7719 H   0  0  0  0  0  0  0  0  0  0  0  0
   40.1444   22.1053   38.3682 H   0  0  0  0  0  0  0  0  0  0  0  0
   38.2485   27.2859   37.0163 H   0  0  0  0  0  0  0  0  0  0  0  0
   39.2421   27.3812   35.5228 H   0  0  0  0  0  0  0  0  0  0  0  0
   37.5582   28.0068   35.5228 H   0  0  0  0  0  0  0  0  0  0  0  0
  1 12  1  0
  2  1  1  0
  3  2  1  0
  4  5  1  0
  4  3  1  0
  5  6  2  0
  6  7  1  0
  6  1  1  0
  7  8  1  0
  9  8  1  0
 10  9  1  0
 11 10  1  0
 11  7  1  0
 12 13  1  0
 13 20  1  0
 13 15  1  0
 14 19  2  0
 15 14  1  0
 16 15  2  0
 16 17  1  0
 17 18  2  0
 18 19  1  0
  1 21  1  1
  2 22  1  0
  2 23  1  0
  3 24  1  0
  3 25  1  0
  4 26  1  0
  4 27  1  0
  5 28  1  0
  7 29  1  0
  8 30  1  0
  8 31  1  0
  9 32  1  0
  9 33  1  0
 10 34  1  0
 10 35  1  0
 11 36  1  0
 11 37  1  0
 12 38  1  0
 12 39  1  0
 13 40  1  1
 14 41  1  0
 16 42  1  0
 18 43  1  0
 20 44  1  0
 20 45  1  0
 20 46  1  0
M  ISO  8  21  13  22  13  23  13  24  13  25  13  26  13  27  13  28  13
M  ISO  8  29  13  30  13  31  13  32  13  33  13  34  13  35  13  36  13
M  ISO  8  37  13  38   8  39   8  40   8  41  14  42  14  43  14  44   8
M  ISO  2  45   8  46   8
M  END
>  <minimizedAffinity>  (1) 
-5.05025482

>  <minimizedRMSD>  (1) 
0.506593525

$$$$
