
     RDKit          3D

 26 27  0  0  0  0  0  0  0  0999 V2000
   40.9570   22.0900   36.4390 C   0  0  0  0  0  0  0  0  0  0  0  0
   40.2840   22.6140   37.5720 C   0  0  0  0  0  0  0  0  0  0  0  0
   38.9830   23.1130   37.3610 C   0  0  0  0  0  0  0  0  0  0  0  0
   38.4510   23.0670   36.1030 N   0  0  0  0  0  0  0  0  0  0  0  0
   39.1540   22.5530   35.0690 C   0  0  0  0  0  0  0  0  0  0  0  0
   40.3850   22.0700   35.2200 N   0  0  0  0  0  0  0  0  0  0  0  0
   38.5460   22.5320   33.7830 N   0  0  0  0  0  0  0  0  0  0  0  0
   37.8320   23.6810   33.2540 C   0  0  0  0  0  0  0  0  0  0  0  0
   36.8830   23.2170   32.1710 C   0  0  0  0  0  0  0  0  0  0  0  0
   36.3390   21.9740   32.4430 O   0  0  0  0  0  0  0  0  0  0  0  0
   37.2160   20.9420   32.5600 C   0  0  0  0  0  0  0  0  0  0  0  0
   38.6170   21.3520   32.9440 C   0  0  0  0  0  0  0  0  0  0  0  0
   38.3340   23.6400   38.5550 C   0  0  0  0  0  0  0  0  0  0  0  0
   37.8630   24.9060   38.3020 F   0  0  0  0  0  0  0  0  0  0  0  0
   39.3200   23.7800   39.5200 F   0  0  0  0  0  0  0  0  0  0  0  0
   37.2850   22.8640   38.9960 F   0  0  0  0  0  0  0  0  0  0  0  0
   41.9742   21.6889   36.5592 H   0  0  0  0  0  0  0  0  0  0  0  0
   40.7542   22.6302   38.5663 H   0  0  0  0  0  0  0  0  0  0  0  0
   37.2621   24.1644   34.0612 H   0  0  0  0  0  0  0  0  0  0  0  0
   38.5488   24.4026   32.8351 H   0  0  0  0  0  0  0  0  0  0  0  0
   37.4326   23.1615   31.2198 H   0  0  0  0  0  0  0  0  0  0  0  0
   36.0561   23.9404   32.1173 H   0  0  0  0  0  0  0  0  0  0  0  0
   36.8362   20.2539   33.3296 H   0  0  0  0  0  0  0  0  0  0  0  0
   37.2873   20.4776   31.5654 H   0  0  0  0  0  0  0  0  0  0  0  0
   39.1029   20.5344   33.4966 H   0  0  0  0  0  0  0  0  0  0  0  0
   39.2029   21.5718   32.0393 H   0  0  0  0  0  0  0  0  0  0  0  0
  1  2  2  0
  3  2  1  0
  3 13  1  0
  4  3  2  0
  5  6  2  0
  5  4  1  0
  6  1  1  0
  7  5  1  0
  8  7  1  0
  9 10  1  0
  9  8  1  0
 10 11  1  0
 11 12  1  0
 12  7  1  0
 13 16  1  0
 13 15  1  0
 14 13  1  0
  1 17  1  0
  2 18  1  0
  8 19  1  0
  8 20  1  0
  9 21  1  0
  9 22  1  0
 11 23  1  0
 11 24  1  0
 12 25  1  0
 12 26  1  0
M  ISO  8  17  14  18  14  19  13  20  13  21  13  22  13  23  13  24  13
M  ISO  2  25  13  26  13
M  END
>  <minimizedAffinity>  (1) 
-4.9131341

>  <minimizedRMSD>  (1) 
0.398135364

$$$$
