
     RDKit          3D

 49 51  0  0  1  0  0  0  0  0999 V2000
   37.8070   26.9960   33.4120 C   0  0  2  0  0  0  0  0  0  0  0  0
   36.5290   27.2200   32.6210 C   0  0  0  0  0  0  0  0  0  0  0  0
   36.7020   28.6030   32.0080 C   0  0  0  0  0  0  0  0  0  0  0  0
   37.7350   28.4300   30.9410 C   0  0  0  0  0  0  0  0  0  0  0  0
   38.9590   27.7120   31.3180 C   0  0  0  0  0  0  0  0  0  0  0  0
   39.0170   26.9780   32.5940 C   0  0  0  0  0  0  0  0  0  0  0  0
   40.3300   26.3380   32.7630 C   0  0  0  0  0  0  0  0  0  0  0  0
   41.1160   27.0440   33.8940 C   0  0  0  0  0  0  0  0  0  0  0  0
   42.5900   27.1230   33.5770 C   0  0  0  0  0  0  0  0  0  0  0  0
   43.0160   25.7350   33.0880 C   0  0  0  0  0  0  0  0  0  0  0  0
   42.3840   25.4110   31.7730 C   0  0  0  0  0  0  0  0  0  0  0  0
   41.2040   26.3710   31.5230 C   0  0  0  0  0  0  0  0  0  0  0  0
   37.5880   25.6860   34.1500 C   0  0  0  0  0  0  0  0  0  0  0  0
   37.6820   25.7970   35.6030 C   0  0  1  0  0  0  0  0  0  0  0  0
   38.0250   24.4110   37.5990 C   0  0  0  0  0  0  0  0  0  0  0  0
   38.4330   24.7700   36.3030 C   0  0  0  0  0  0  0  0  0  0  0  0
   39.5350   24.0870   35.8090 C   0  0  0  0  0  0  0  0  0  0  0  0
   40.1470   23.1400   36.5720 N   0  0  0  0  0  0  0  0  0  0  0  0
   39.7140   22.8380   37.8070 C   0  0  0  0  0  0  0  0  0  0  0  0
   38.6520   23.4770   38.3150 N   0  0  0  0  0  0  0  0  0  0  0  0
   38.2460   27.1740   35.9880 C   0  0  0  0  0  0  0  0  0  0  0  0
   37.9881   27.8358   34.0990 H   0  0  0  0  0  0  0  0  0  0  0  0
   36.4180   26.4573   31.8362 H   0  0  0  0  0  0  0  0  0  0  0  0
   35.6287   27.1488   33.2490 H   0  0  0  0  0  0  0  0  0  0  0  0
   35.7541   28.9545   31.5744 H   0  0  0  0  0  0  0  0  0  0  0  0
   37.0038   29.3506   32.7564 H   0  0  0  0  0  0  0  0  0  0  0  0
   38.0293   29.4323   30.5965 H   0  0  0  0  0  0  0  0  0  0  0  0
   37.2565   27.8027   30.1746 H   0  0  0  0  0  0  0  0  0  0  0  0
   39.8317   27.7221   30.6484 H   0  0  0  0  0  0  0  0  0  0  0  0
   40.1100   25.2855   32.9951 H   0  0  0  0  0  0  0  0  0  0  0  0
   40.7224   28.0634   34.0205 H   0  0  0  0  0  0  0  0  0  0  0  0
   40.9923   26.4593   34.8175 H   0  0  0  0  0  0  0  0  0  0  0  0
   42.7682   27.8719   32.7912 H   0  0  0  0  0  0  0  0  0  0  0  0
   43.1677   27.4219   34.4641 H   0  0  0  0  0  0  0  0  0  0  0  0
   44.1101   25.7136   32.9759 H   0  0  0  0  0  0  0  0  0  0  0  0
   42.6887   24.9884   33.8266 H   0  0  0  0  0  0  0  0  0  0  0  0
   43.1272   25.5258   30.9702 H   0  0  0  0  0  0  0  0  0  0  0  0
   42.0180   24.3738   31.7863 H   0  0  0  0  0  0  0  0  0  0  0  0
   41.5777   27.3914   31.3521 H   0  0  0  0  0  0  0  0  0  0  0  0
   40.6330   26.0655   30.6339 H   0  0  0  0  0  0  0  0  0  0  0  0
   36.5858   25.3101   33.8964 H   0  0  0  0  0  0  0  0  0  0  0  0
   38.3907   25.0046   33.8315 H   0  0  0  0  0  0  0  0  0  0  0  0
   36.6433   25.6543   35.9356 H   0  0  0  0  0  0  0  0  0  0  0  0
   37.1551   24.9200   38.0397 H   0  0  0  0  0  0  0  0  0  0  0  0
   39.9142   24.3106   34.8009 H   0  0  0  0  0  0  0  0  0  0  0  0
   40.2300   22.0682   38.3996 H   0  0  0  0  0  0  0  0  0  0  0  0
   38.2821   27.2621   37.0839 H   0  0  0  0  0  0  0  0  0  0  0  0
   39.2609   27.2823   35.5778 H   0  0  0  0  0  0  0  0  0  0  0  0
   37.5986   27.9631   35.5778 H   0  0  0  0  0  0  0  0  0  0  0  0
  1 13  1  0
  2  1  1  0
  3  2  1  0
  4  5  1  0
  4  3  1  0
  5  6  2  0
  6  7  1  0
  6  1  1  0
  7  8  1  0
  9  8  1  0
 10  9  1  0
 11 10  1  0
 12 11  1  0
 12  7  1  0
 13 14  1  0
 14 21  1  0
 14 16  1  0
 15 20  2  0
 16 15  1  0
 17 16  2  0
 17 18  1  0
 18 19  2  0
 19 20  1  0
  1 22  1  1
  2 23  1  0
  2 24  1  0
  3 25  1  0
  3 26  1  0
  4 27  1  0
  4 28  1  0
  5 29  1  0
  7 30  1  0
  8 31  1  0
  8 32  1  0
  9 33  1  0
  9 34  1  0
 10 35  1  0
 10 36  1  0
 11 37  1  0
 11 38  1  0
 12 39  1  0
 12 40  1  0
 13 41  1  0
 13 42  1  0
 14 43  1  1
 15 44  1  0
 17 45  1  0
 19 46  1  0
 21 47  1  0
 21 48  1  0
 21 49  1  0
M  ISO  8  22  13  23  13  24  13  25  13  26  13  27  13  28  13  29  13
M  ISO  8  30  13  31  13  32  13  33  13  34  13  35  13  36  13  37  13
M  ISO  8  38  13  39  13  40  13  41   8  42   8  43   8  44  14  45  14
M  ISO  4  46  14  47   8  48   8  49   8
M  END
>  <minimizedAffinity>  (1) 
-5.12149811

>  <minimizedRMSD>  (1) 
0.815080583

$$$$
