
     RDKit          3D

 41 43  0  0  1  0  0  0  0  0999 V2000
   37.8740   26.9140   33.4380 C   0  0  2  0  0  0  0  0  0  0  0  0
   36.6660   27.1720   32.5490 C   0  0  0  0  0  0  0  0  0  0  0  0
   36.9450   28.4930   31.8780 C   0  0  0  0  0  0  0  0  0  0  0  0
   38.0590   28.2330   30.9160 C   0  0  0  0  0  0  0  0  0  0  0  0
   39.2290   27.5390   31.4620 C   0  0  0  0  0  0  0  0  0  0  0  0
   39.1600   26.8810   32.7740 C   0  0  0  0  0  0  0  0  0  0  0  0
   40.4720   26.3760   33.0830 C   0  0  0  0  0  0  0  0  0  0  0  0
   41.4030   26.9170   33.9210 C   0  0  0  0  0  0  0  0  0  0  0  0
   42.5860   26.3400   34.2270 C   0  0  0  0  0  0  0  0  0  0  0  0
   42.8930   25.1520   33.6820 N   0  0  0  0  0  0  0  0  0  0  0  0
   42.0170   24.5680   32.8500 C   0  0  0  0  0  0  0  0  0  0  0  0
   40.8740   25.2070   32.6030 N   0  0  0  0  0  0  0  0  0  0  0  0
   37.5450   25.6610   34.2190 C   0  0  0  0  0  0  0  0  0  0  0  0
   37.6960   25.7880   35.6680 C   0  0  1  0  0  0  0  0  0  0  0  0
   38.0490   24.3740   37.6490 C   0  0  0  0  0  0  0  0  0  0  0  0
   38.4380   24.7580   36.3580 C   0  0  0  0  0  0  0  0  0  0  0  0
   39.5320   24.0930   35.8420 C   0  0  0  0  0  0  0  0  0  0  0  0
   40.1890   23.1280   36.5510 N   0  0  0  0  0  0  0  0  0  0  0  0
   39.7530   22.8070   37.8030 C   0  0  0  0  0  0  0  0  0  0  0  0
   38.6940   23.4310   38.3330 N   0  0  0  0  0  0  0  0  0  0  0  0
   38.3030   27.1640   36.0090 C   0  0  0  0  0  0  0  0  0  0  0  0
   38.0294   27.7758   34.1037 H   0  0  0  0  0  0  0  0  0  0  0  0
   36.5605   26.3734   31.7999 H   0  0  0  0  0  0  0  0  0  0  0  0
   35.7286   27.1926   33.1243 H   0  0  0  0  0  0  0  0  0  0  0  0
   36.0516   28.8473   31.3430 H   0  0  0  0  0  0  0  0  0  0  0  0
   37.2139   29.2699   32.6089 H   0  0  0  0  0  0  0  0  0  0  0  0
   38.3964   29.2027   30.5214 H   0  0  0  0  0  0  0  0  0  0  0  0
   37.6421   27.5582   30.1539 H   0  0  0  0  0  0  0  0  0  0  0  0
   40.1654   27.5106   30.8854 H   0  0  0  0  0  0  0  0  0  0  0  0
   41.1747   27.8905   34.3794 H   0  0  0  0  0  0  0  0  0  0  0  0
   43.2878   26.8368   34.9131 H   0  0  0  0  0  0  0  0  0  0  0  0
   42.2352   23.5942   32.3873 H   0  0  0  0  0  0  0  0  0  0  0  0
   36.5009   25.3883   34.0057 H   0  0  0  0  0  0  0  0  0  0  0  0
   38.2661   24.8953   33.8970 H   0  0  0  0  0  0  0  0  0  0  0  0
   36.6682   25.6697   36.0416 H   0  0  0  0  0  0  0  0  0  0  0  0
   37.1822   24.8681   38.1123 H   0  0  0  0  0  0  0  0  0  0  0  0
   39.8846   24.3473   34.8315 H   0  0  0  0  0  0  0  0  0  0  0  0
   40.2751   22.0302   38.3809 H   0  0  0  0  0  0  0  0  0  0  0  0
   38.3548   27.2813   37.1015 H   0  0  0  0  0  0  0  0  0  0  0  0
   39.3153   27.2336   35.5844 H   0  0  0  0  0  0  0  0  0  0  0  0
   37.6719   27.9586   35.5844 H   0  0  0  0  0  0  0  0  0  0  0  0
  1 13  1  0
  2  1  1  0
  3  2  1  0
  4  5  1  0
  4  3  1  0
  5  6  2  0
  6  7  1  0
  6  1  1  0
  7  8  2  0
  8  9  1  0
 10  9  2  0
 11 10  1  0
 12 11  2  0
 12  7  1  0
 13 14  1  0
 14 21  1  0
 14 16  1  0
 15 20  2  0
 16 15  1  0
 17 16  2  0
 17 18  1  0
 18 19  2  0
 19 20  1  0
  1 22  1  1
  2 23  1  0
  2 24  1  0
  3 25  1  0
  3 26  1  0
  4 27  1  0
  4 28  1  0
  5 29  1  0
  8 30  1  0
  9 31  1  0
 11 32  1  0
 13 33  1  0
 13 34  1  0
 14 35  1  1
 15 36  1  0
 17 37  1  0
 19 38  1  0
 21 39  1  0
 21 40  1  0
 21 41  1  0
M  ISO  8  22  13  23  13  24  13  25  13  26  13  27  13  28  13  29  13
M  ISO  8  30  14  31  14  32  14  33   8  34   8  35   8  36  14  37  14
M  ISO  4  38  14  39   8  40   8  41   8
M  END
>  <minimizedAffinity>  (1) 
-4.99749374

>  <minimizedRMSD>  (1) 
1.04494333

$$$$
