
     RDKit          3D

 46 48  0  0  1  0  0  0  0  0999 V2000
   37.8060   26.9160   33.3960 C   0  0  2  0  0  0  0  0  0  0  0  0
   36.5540   27.0780   32.5960 C   0  0  0  0  0  0  0  0  0  0  0  0
   36.6740   28.4730   31.9790 C   0  0  0  0  0  0  0  0  0  0  0  0
   37.7230   28.3890   30.9360 C   0  0  0  0  0  0  0  0  0  0  0  0
   38.9770   27.7540   31.3350 C   0  0  0  0  0  0  0  0  0  0  0  0
   39.0510   26.9930   32.5880 C   0  0  0  0  0  0  0  0  0  0  0  0
   40.3060   26.4510   32.8250 N   0  0  0  0  0  0  0  0  0  0  0  0
   40.8000   25.2740   32.1360 C   0  0  0  0  0  0  0  0  0  0  0  0
   41.9500   24.7230   32.9820 C   0  0  0  0  0  0  0  0  0  0  0  0
   42.9540   25.6940   32.9070 O   0  0  0  0  0  0  0  0  0  0  0  0
   42.6270   26.8800   33.5250 C   0  0  0  0  0  0  0  0  0  0  0  0
   41.1740   27.0780   33.8050 C   0  0  0  0  0  0  0  0  0  0  0  0
   37.7030   25.6050   34.1280 C   0  0  0  0  0  0  0  0  0  0  0  0
   37.7500   25.7350   35.5850 C   0  0  1  0  0  0  0  0  0  0  0  0
   38.0310   24.4210   37.6350 C   0  0  0  0  0  0  0  0  0  0  0  0
   38.4870   24.7260   36.3320 C   0  0  0  0  0  0  0  0  0  0  0  0
   39.5950   24.0300   35.8490 C   0  0  0  0  0  0  0  0  0  0  0  0
   40.1920   23.0880   36.6410 N   0  0  0  0  0  0  0  0  0  0  0  0
   39.7250   22.8230   37.8850 C   0  0  0  0  0  0  0  0  0  0  0  0
   38.6570   23.4850   38.3680 N   0  0  0  0  0  0  0  0  0  0  0  0
   38.2660   27.1270   35.9860 C   0  0  0  0  0  0  0  0  0  0  0  0
   37.8871   27.7586   34.0984 H   0  0  0  0  0  0  0  0  0  0  0  0
   36.4913   26.3095   31.8114 H   0  0  0  0  0  0  0  0  0  0  0  0
   35.6475   26.9675   33.2093 H   0  0  0  0  0  0  0  0  0  0  0  0
   35.7157   28.7723   31.5295 H   0  0  0  0  0  0  0  0  0  0  0  0
   36.9338   29.2218   32.7418 H   0  0  0  0  0  0  0  0  0  0  0  0
   37.9543   29.4134   30.6088 H   0  0  0  0  0  0  0  0  0  0  0  0
   37.3045   27.7466   30.1472 H   0  0  0  0  0  0  0  0  0  0  0  0
   39.8671   27.8464   30.6953 H   0  0  0  0  0  0  0  0  0  0  0  0
   40.0010   24.5233   32.0465 H   0  0  0  0  0  0  0  0  0  0  0  0
   41.1388   25.5223   31.1194 H   0  0  0  0  0  0  0  0  0  0  0  0
   41.6286   24.5793   34.0241 H   0  0  0  0  0  0  0  0  0  0  0  0
   42.2957   23.7433   32.6204 H   0  0  0  0  0  0  0  0  0  0  0  0
   43.1660   26.9231   34.4829 H   0  0  0  0  0  0  0  0  0  0  0  0
   42.9108   27.6763   32.8212 H   0  0  0  0  0  0  0  0  0  0  0  0
   40.9651   28.1579   33.8151 H   0  0  0  0  0  0  0  0  0  0  0  0
   40.9633   26.6039   34.7750 H   0  0  0  0  0  0  0  0  0  0  0  0
   36.7504   25.1286   33.8532 H   0  0  0  0  0  0  0  0  0  0  0  0
   38.5758   25.0043   33.8323 H   0  0  0  0  0  0  0  0  0  0  0  0
   36.7003   25.5752   35.8723 H   0  0  0  0  0  0  0  0  0  0  0  0
   37.1613   24.9515   38.0499 H   0  0  0  0  0  0  0  0  0  0  0  0
   39.9848   24.2365   34.8413 H   0  0  0  0  0  0  0  0  0  0  0  0
   40.2219   22.0618   38.5044 H   0  0  0  0  0  0  0  0  0  0  0  0
   38.2950   27.2053   37.0828 H   0  0  0  0  0  0  0  0  0  0  0  0
   39.2782   27.2735   35.5810 H   0  0  0  0  0  0  0  0  0  0  0  0
   37.5939   27.8979   35.5810 H   0  0  0  0  0  0  0  0  0  0  0  0
  1 13  1  0
  2  1  1  0
  3  2  1  0
  4  5  1  0
  4  3  1  0
  5  6  2  0
  6  7  1  0
  6  1  1  0
  7 12  1  0
  8  7  1  0
  8  9  1  0
 10  9  1  0
 10 11  1  0
 11 12  1  0
 13 14  1  0
 14 21  1  0
 14 16  1  0
 15 20  2  0
 16 15  1  0
 17 16  2  0
 17 18  1  0
 18 19  2  0
 19 20  1  0
  1 22  1  1
  2 23  1  0
  2 24  1  0
  3 25  1  0
  3 26  1  0
  4 27  1  0
  4 28  1  0
  5 29  1  0
  8 30  1  0
  8 31  1  0
  9 32  1  0
  9 33  1  0
 11 34  1  0
 11 35  1  0
 12 36  1  0
 12 37  1  0
 13 38  1  0
 13 39  1  0
 14 40  1  1
 15 41  1  0
 17 42  1  0
 19 43  1  0
 21 44  1  0
 21 45  1  0
 21 46  1  0
M  ISO  8  22  13  23  13  24  13  25  13  26  13  27  13  28  13  29  13
M  ISO  8  30  13  31  13  32  13  33  13  34  13  35  13  36  13  37  13
M  ISO  8  38   8  39   8  40   8  41  14  42  14  43  14  44   8  45   8
M  ISO  1  46   8
M  END
>  <minimizedAffinity>  (1) 
-4.81982422

>  <minimizedRMSD>  (1) 
0.728598654

$$$$
