
     RDKit          3D

 39 41  0  0  1  0  0  0  0  0999 V2000
   37.8670   26.9550   33.4660 C   0  0  2  0  0  0  0  0  0  0  0  0
   36.6480   27.2580   32.6080 C   0  0  0  0  0  0  0  0  0  0  0  0
   36.9510   28.5660   31.9210 C   0  0  0  0  0  0  0  0  0  0  0  0
   38.0110   28.2300   30.9090 C   0  0  0  0  0  0  0  0  0  0  0  0
   39.2000   27.5530   31.4560 C   0  0  0  0  0  0  0  0  0  0  0  0
   39.1470   26.9120   32.7880 C   0  0  0  0  0  0  0  0  0  0  0  0
   40.4210   26.4380   33.0610 N   0  0  0  0  0  0  0  0  0  0  0  0
   41.1190   25.3810   32.6390 C   0  0  0  0  0  0  0  0  0  0  0  0
   42.3430   25.4300   33.1790 N   0  0  0  0  0  0  0  0  0  0  0  0
   42.3970   26.5230   33.9370 C   0  0  0  0  0  0  0  0  0  0  0  0
   41.2120   27.1150   33.8440 N   0  0  0  0  0  0  0  0  0  0  0  0
   37.5010   25.6970   34.2350 C   0  0  0  0  0  0  0  0  0  0  0  0
   37.7130   25.8000   35.6740 C   0  0  1  0  0  0  0  0  0  0  0  0
   38.0590   24.3520   37.6360 C   0  0  0  0  0  0  0  0  0  0  0  0
   38.4460   24.7650   36.3540 C   0  0  0  0  0  0  0  0  0  0  0  0
   39.5420   24.1160   35.8310 C   0  0  0  0  0  0  0  0  0  0  0  0
   40.2020   23.1390   36.5220 N   0  0  0  0  0  0  0  0  0  0  0  0
   39.7680   22.7900   37.7670 C   0  0  0  0  0  0  0  0  0  0  0  0
   38.7020   23.4060   38.2980 N   0  0  0  0  0  0  0  0  0  0  0  0
   38.3260   27.1730   36.0370 C   0  0  0  0  0  0  0  0  0  0  0  0
   38.0709   27.7998   34.1404 H   0  0  0  0  0  0  0  0  0  0  0  0
   36.4932   26.4611   31.8657 H   0  0  0  0  0  0  0  0  0  0  0  0
   35.7302   27.3180   33.2113 H   0  0  0  0  0  0  0  0  0  0  0  0
   36.0522   28.9606   31.4246 H   0  0  0  0  0  0  0  0  0  0  0  0
   37.2822   29.3404   32.6286 H   0  0  0  0  0  0  0  0  0  0  0  0
   38.3393   29.1665   30.4345 H   0  0  0  0  0  0  0  0  0  0  0  0
   37.5505   27.5222   30.2040 H   0  0  0  0  0  0  0  0  0  0  0  0
   40.1312   27.5242   30.8712 H   0  0  0  0  0  0  0  0  0  0  0  0
   40.7493   24.5988   31.9596 H   0  0  0  0  0  0  0  0  0  0  0  0
   43.2582   26.8694   34.5273 H   0  0  0  0  0  0  0  0  0  0  0  0
   36.4376   25.4793   34.0565 H   0  0  0  0  0  0  0  0  0  0  0  0
   38.1632   24.8973   33.8717 H   0  0  0  0  0  0  0  0  0  0  0  0
   36.6881   25.6682   36.0510 H   0  0  0  0  0  0  0  0  0  0  0  0
   37.1892   24.8322   38.1080 H   0  0  0  0  0  0  0  0  0  0  0  0
   39.8969   24.3922   34.8271 H   0  0  0  0  0  0  0  0  0  0  0  0
   40.2909   22.0056   38.3338 H   0  0  0  0  0  0  0  0  0  0  0  0
   38.3721   27.2762   37.1312 H   0  0  0  0  0  0  0  0  0  0  0  0
   39.3410   27.2434   35.6190 H   0  0  0  0  0  0  0  0  0  0  0  0
   37.7008   27.9757   35.6190 H   0  0  0  0  0  0  0  0  0  0  0  0
  1 12  1  0
  2  1  1  0
  3  2  1  0
  4  5  1  0
  4  3  1  0
  5  6  2  0
  6  7  1  0
  6  1  1  0
  7 11  1  0
  8  7  1  0
  8  9  2  0
  9 10  1  0
 11 10  2  0
 12 13  1  0
 13 20  1  0
 13 15  1  0
 14 19  2  0
 15 14  1  0
 16 15  2  0
 16 17  1  0
 17 18  2  0
 18 19  1  0
  1 21  1  1
  2 22  1  0
  2 23  1  0
  3 24  1  0
  3 25  1  0
  4 26  1  0
  4 27  1  0
  5 28  1  0
  8 29  1  0
 10 30  1  0
 12 31  1  0
 12 32  1  0
 13 33  1  1
 14 34  1  0
 16 35  1  0
 18 36  1  0
 20 37  1  0
 20 38  1  0
 20 39  1  0
M  ISO  8  21  13  22  13  23  13  24  13  25  13  26  13  27  13  28  13
M  ISO  8  29  14  30  14  31   8  32   8  33   8  34  14  35  14  36  14
M  ISO  3  37   8  38   8  39   8
M  END
>  <minimizedAffinity>  (1) 
-4.76317072

>  <minimizedRMSD>  (1) 
0.586404204

$$$$
