
     RDKit          3D

 36 37  0  0  1  0  0  0  0  0999 V2000
   37.5580   25.7720   34.1230 C   0  0  0  0  0  0  0  0  0  0  0  0
   37.7630   27.0390   33.3490 C   0  0  2  0  0  0  0  0  0  0  0  0
   36.4400   27.3660   32.6970 C   0  0  0  0  0  0  0  0  0  0  0  0
   36.6650   28.7390   32.0510 C   0  0  0  0  0  0  0  0  0  0  0  0
   37.5430   28.4540   30.8670 C   0  0  0  0  0  0  0  0  0  0  0  0
   38.7780   27.7140   31.1520 C   0  0  0  0  0  0  0  0  0  0  0  0
   38.8930   26.9960   32.4280 C   0  0  0  0  0  0  0  0  0  0  0  0
   40.1720   26.4070   32.4680 C   0  0  0  0  0  0  0  0  0  0  0  0
   40.9670   26.2290   31.5120 O   0  0  0  0  0  0  0  0  0  0  0  0
   41.2160   25.8120   33.1020 O   0  0  0  0  0  0  0  0  0  0  0  0
   37.7610   25.9140   35.5650 C   0  0  1  0  0  0  0  0  0  0  0  0
   38.0050   24.4540   37.5240 C   0  0  0  0  0  0  0  0  0  0  0  0
   38.4610   24.8450   36.2540 C   0  0  0  0  0  0  0  0  0  0  0  0
   39.5580   24.1510   35.7610 C   0  0  0  0  0  0  0  0  0  0  0  0
   40.1400   23.1520   36.4880 N   0  0  0  0  0  0  0  0  0  0  0  0
   39.6520   22.8190   37.7120 C   0  0  0  0  0  0  0  0  0  0  0  0
   38.5930   23.4740   38.2100 N   0  0  0  0  0  0  0  0  0  0  0  0
   38.4580   27.2530   35.8870 C   0  0  0  0  0  0  0  0  0  0  0  0
   38.2661   25.0189   33.7469 H   0  0  0  0  0  0  0  0  0  0  0  0
   36.5081   25.4776   33.9777 H   0  0  0  0  0  0  0  0  0  0  0  0
   38.0574   27.8544   34.0261 H   0  0  0  0  0  0  0  0  0  0  0  0
   36.1844   26.6143   31.9357 H   0  0  0  0  0  0  0  0  0  0  0  0
   35.6072   27.3710   33.4156 H   0  0  0  0  0  0  0  0  0  0  0  0
   35.7096   29.1797   31.7302 H   0  0  0  0  0  0  0  0  0  0  0  0
   37.1189   29.4606   32.7461 H   0  0  0  0  0  0  0  0  0  0  0  0
   37.8230   29.4168   30.4147 H   0  0  0  0  0  0  0  0  0  0  0  0
   36.9512   27.8046   30.2052 H   0  0  0  0  0  0  0  0  0  0  0  0
   39.6021   27.6975   30.4235 H   0  0  0  0  0  0  0  0  0  0  0  0
   42.0192   25.5443   32.5889 H   0  0  0  0  0  0  0  0  0  0  0  0
   36.7337   25.8700   35.9557 H   0  0  0  0  0  0  0  0  0  0  0  0
   37.1393   24.9706   37.9642 H   0  0  0  0  0  0  0  0  0  0  0  0
   39.9637   24.4093   34.7717 H   0  0  0  0  0  0  0  0  0  0  0  0
   40.1249   22.0136   38.2932 H   0  0  0  0  0  0  0  0  0  0  0  0
   38.5237   27.3792   36.9778 H   0  0  0  0  0  0  0  0  0  0  0  0
   39.4702   27.2523   35.4564 H   0  0  0  0  0  0  0  0  0  0  0  0
   37.8769   28.0817   35.4564 H   0  0  0  0  0  0  0  0  0  0  0  0
  1 11  1  0
  2  1  1  0
  3  2  1  0
  4  3  1  0
  5  6  1  0
  5  4  1  0
  6  7  2  0
  7  8  1  0
  7  2  1  0
  8 10  1  0
  9  8  2  0
 11 18  1  0
 11 13  1  0
 12 17  2  0
 13 12  1  0
 14 13  2  0
 14 15  1  0
 15 16  2  0
 16 17  1  0
  1 19  1  0
  1 20  1  0
  2 21  1  1
  3 22  1  0
  3 23  1  0
  4 24  1  0
  4 25  1  0
  5 26  1  0
  5 27  1  0
  6 28  1  0
 10 29  1  0
 11 30  1  1
 12 31  1  0
 14 32  1  0
 16 33  1  0
 18 34  1  0
 18 35  1  0
 18 36  1  0
M  ISO  8  19   8  20   8  21  13  22  13  23  13  24  13  25  13  26  13
M  ISO  8  27  13  28  13  29   3  30   8  31  14  32  14  33  14  34   8
M  ISO  2  35   8  36   8
M  END
>  <minimizedAffinity>  (1) 
-4.5041213

>  <minimizedRMSD>  (1) 
0.115451828

$$$$
