
     RDKit          3D

 21 22  0  0  0  0  0  0  0  0999 V2000
   40.3550   22.3230   35.5340 C   0  0  0  0  0  0  0  0  0  0  0  0
   39.9750   22.8130   36.8080 C   0  0  0  0  0  0  0  0  0  0  0  0
   38.6090   23.0080   37.0260 C   0  0  0  0  0  0  0  0  0  0  0  0
   37.7350   22.7260   36.0310 N   0  0  0  0  0  0  0  0  0  0  0  0
   38.1430   22.2590   34.8240 C   0  0  0  0  0  0  0  0  0  0  0  0
   39.4380   22.0610   34.5820 N   0  0  0  0  0  0  0  0  0  0  0  0
   37.1460   21.9740   33.7920 C   0  0  0  0  0  0  0  0  0  0  0  0
   36.2550   20.9620   33.9610 C   0  0  0  0  0  0  0  0  0  0  0  0
   35.3100   20.6770   33.0060 C   0  0  0  0  0  0  0  0  0  0  0  0
   35.3160   21.4490   31.8980 N   0  0  0  0  0  0  0  0  0  0  0  0
   36.1810   22.4590   31.6950 C   0  0  0  0  0  0  0  0  0  0  0  0
   37.0830   22.6910   32.6650 N   0  0  0  0  0  0  0  0  0  0  0  0
   38.2700   23.5150   38.3580 C   0  0  0  0  0  0  0  0  0  0  0  0
   37.8690   24.8200   38.2700 F   0  0  0  0  0  0  0  0  0  0  0  0
   39.4380   23.5090   39.1090 F   0  0  0  0  0  0  0  0  0  0  0  0
   37.2560   22.8070   38.9690 F   0  0  0  0  0  0  0  0  0  0  0  0
   41.4200   22.1530   35.3177 H   0  0  0  0  0  0  0  0  0  0  0  0
   40.7198   23.0295   37.5880 H   0  0  0  0  0  0  0  0  0  0  0  0
   36.2913   20.3594   34.8805 H   0  0  0  0  0  0  0  0  0  0  0  0
   34.5845   19.8607   33.1371 H   0  0  0  0  0  0  0  0  0  0  0  0
   36.1519   23.0666   30.7785 H   0  0  0  0  0  0  0  0  0  0  0  0
  1  2  2  0
  2  3  1  0
  3 13  1  0
  4  3  2  0
  5  4  1  0
  6  5  2  0
  6  1  1  0
  7  8  2  0
  7  5  1  0
  9  8  1  0
 10  9  2  0
 11 10  1  0
 11 12  2  0
 12  7  1  0
 13 16  1  0
 13 15  1  0
 14 13  1  0
  1 17  1  0
  2 18  1  0
  8 19  1  0
  9 20  1  0
 11 21  1  0
M  ISO  5  17  14  18  14  19  14  20  14  21  14
M  END
>  <minimizedAffinity>  (1) 
-4.83906794

>  <minimizedRMSD>  (1) 
1.58843946

$$$$
