
     RDKit          3D

 45 47  0  0  1  0  0  0  0  0999 V2000
   37.8090   26.9100   33.3850 C   0  0  2  0  0  0  0  0  0  0  0  0
   36.5490   27.0110   32.5890 C   0  0  0  0  0  0  0  0  0  0  0  0
   36.5830   28.4140   31.9780 C   0  0  0  0  0  0  0  0  0  0  0  0
   37.6200   28.3730   30.9250 C   0  0  0  0  0  0  0  0  0  0  0  0
   38.9320   27.8470   31.3230 C   0  0  0  0  0  0  0  0  0  0  0  0
   39.0430   27.0930   32.5820 C   0  0  0  0  0  0  0  0  0  0  0  0
   40.3410   26.6420   32.8530 N   0  0  0  0  0  0  0  0  0  0  0  0
   41.2560   27.0550   33.9020 C   0  0  0  0  0  0  0  0  0  0  0  0
   42.6260   27.0980   33.2700 C   0  0  0  0  0  0  0  0  0  0  0  0
   42.4500   26.4100   31.9230 C   0  0  0  0  0  0  0  0  0  0  0  0
   41.1520   25.6450   32.1810 C   0  0  0  0  0  0  0  0  0  0  0  0
   37.7950   25.5910   34.1020 C   0  0  0  0  0  0  0  0  0  0  0  0
   37.7890   25.7060   35.5590 C   0  0  1  0  0  0  0  0  0  0  0  0
   38.0370   24.3990   37.6200 C   0  0  0  0  0  0  0  0  0  0  0  0
   38.5180   24.6970   36.3220 C   0  0  0  0  0  0  0  0  0  0  0  0
   39.6470   24.0070   35.8410 C   0  0  0  0  0  0  0  0  0  0  0  0
   40.2280   23.0760   36.6600 N   0  0  0  0  0  0  0  0  0  0  0  0
   39.7370   22.8140   37.9040 C   0  0  0  0  0  0  0  0  0  0  0  0
   38.6480   23.4750   38.3790 N   0  0  0  0  0  0  0  0  0  0  0  0
   38.2680   27.1050   35.9930 C   0  0  0  0  0  0  0  0  0  0  0  0
   37.8344   27.7406   34.1057 H   0  0  0  0  0  0  0  0  0  0  0  0
   36.5270   26.2452   31.7997 H   0  0  0  0  0  0  0  0  0  0  0  0
   35.6536   26.8492   33.2072 H   0  0  0  0  0  0  0  0  0  0  0  0
   35.6048   28.6651   31.5420 H   0  0  0  0  0  0  0  0  0  0  0  0
   36.8074   29.1790   32.7359 H   0  0  0  0  0  0  0  0  0  0  0  0
   37.7676   29.4001   30.5600 H   0  0  0  0  0  0  0  0  0  0  0  0
   37.2407   27.6714   30.1674 H   0  0  0  0  0  0  0  0  0  0  0  0
   39.8167   28.0137   30.6909 H   0  0  0  0  0  0  0  0  0  0  0  0
   40.9788   28.0500   34.2804 H   0  0  0  0  0  0  0  0  0  0  0  0
   41.2287   26.3610   34.7550 H   0  0  0  0  0  0  0  0  0  0  0  0
   42.9585   28.1377   33.1344 H   0  0  0  0  0  0  0  0  0  0  0  0
   43.3880   26.6066   33.8927 H   0  0  0  0  0  0  0  0  0  0  0  0
   43.2861   25.7310   31.6994 H   0  0  0  0  0  0  0  0  0  0  0  0
   42.4230   27.0881   31.0573 H   0  0  0  0  0  0  0  0  0  0  0  0
   40.6861   25.3199   31.2391 H   0  0  0  0  0  0  0  0  0  0  0  0
   41.2903   24.7215   32.7623 H   0  0  0  0  0  0  0  0  0  0  0  0
   36.8939   25.0400   33.7949 H   0  0  0  0  0  0  0  0  0  0  0  0
   38.7243   25.0701   33.8279 H   0  0  0  0  0  0  0  0  0  0  0  0
   36.7328   25.5270   35.8089 H   0  0  0  0  0  0  0  0  0  0  0  0
   37.1554   24.9289   38.0099 H   0  0  0  0  0  0  0  0  0  0  0  0
   40.0501   24.2096   34.8378 H   0  0  0  0  0  0  0  0  0  0  0  0
   40.2287   22.0570   38.5327 H   0  0  0  0  0  0  0  0  0  0  0  0
   38.2874   27.1615   37.0914 H   0  0  0  0  0  0  0  0  0  0  0  0
   39.2790   27.2851   35.5987 H   0  0  0  0  0  0  0  0  0  0  0  0
   37.5796   27.8669   35.5987 H   0  0  0  0  0  0  0  0  0  0  0  0
  1 12  1  0
  2  1  1  0
  3  2  1  0
  4  5  1  0
  4  3  1  0
  5  6  2  0
  6  7  1  0
  6  1  1  0
  7  8  1  0
  9  8  1  0
 10 11  1  0
 10  9  1  0
 11  7  1  0
 12 13  1  0
 13 20  1  0
 13 15  1  0
 14 19  2  0
 15 14  1  0
 16 15  2  0
 16 17  1  0
 17 18  2  0
 18 19  1  0
  1 21  1  1
  2 22  1  0
  2 23  1  0
  3 24  1  0
  3 25  1  0
  4 26  1  0
  4 27  1  0
  5 28  1  0
  8 29  1  0
  8 30  1  0
  9 31  1  0
  9 32  1  0
 10 33  1  0
 10 34  1  0
 11 35  1  0
 11 36  1  0
 12 37  1  0
 12 38  1  0
 13 39  1  1
 14 40  1  0
 16 41  1  0
 18 42  1  0
 20 43  1  0
 20 44  1  0
 20 45  1  0
M  ISO  8  21  13  22  13  23  13  24  13  25  13  26  13  27  13  28  13
M  ISO  8  29  13  30  13  31  13  32  13  33  13  34  13  35  13  36  13
M  ISO  8  37   8  38   8  39   8  40  14  41  14  42  14  43   8  44   8
M  ISO  1  45   8
M  END
>  <minimizedAffinity>  (1) 
-4.72017336

>  <minimizedRMSD>  (1) 
0.704739988

$$$$
