
     RDKit          3D

 27 28  0  0  0  0  0  0  0  0999 V2000
   41.0300   22.0300   36.5350 C   0  0  0  0  0  0  0  0  0  0  0  0
   40.3160   22.5630   37.6420 C   0  0  0  0  0  0  0  0  0  0  0  0
   39.0590   23.1120   37.3680 C   0  0  0  0  0  0  0  0  0  0  0  0
   38.5910   23.1130   36.0970 N   0  0  0  0  0  0  0  0  0  0  0  0
   39.3230   22.5880   35.0780 C   0  0  0  0  0  0  0  0  0  0  0  0
   40.5240   22.0540   35.2870 N   0  0  0  0  0  0  0  0  0  0  0  0
   38.7790   22.6170   33.7630 N   0  0  0  0  0  0  0  0  0  0  0  0
   38.2320   21.4760   33.0770 C   0  0  0  0  0  0  0  0  0  0  0  0
   36.8270   21.8560   32.6270 C   0  0  0  0  0  0  0  0  0  0  0  0
   36.8410   23.0230   31.7810 N   0  0  0  0  0  0  0  0  0  0  0  0
   37.2790   24.1470   32.5770 C   0  0  0  0  0  0  0  0  0  0  0  0
   38.7210   23.8220   32.9720 C   0  0  0  0  0  0  0  0  0  0  0  0
   38.3550   23.6490   38.5280 C   0  0  0  0  0  0  0  0  0  0  0  0
   37.8760   24.9020   38.2590 F   0  0  0  0  0  0  0  0  0  0  0  0
   39.3000   23.7940   39.5380 F   0  0  0  0  0  0  0  0  0  0  0  0
   37.2990   22.8590   38.9390 F   0  0  0  0  0  0  0  0  0  0  0  0
   42.0225   21.5859   36.7018 H   0  0  0  0  0  0  0  0  0  0  0  0
   40.7301   22.5448   38.6609 H   0  0  0  0  0  0  0  0  0  0  0  0
   38.8534   21.2267   32.2042 H   0  0  0  0  0  0  0  0  0  0  0  0
   38.2075   20.5965   33.7372 H   0  0  0  0  0  0  0  0  0  0  0  0
   36.3908   21.0148   32.0684 H   0  0  0  0  0  0  0  0  0  0  0  0
   36.2282   22.0848   33.5209 H   0  0  0  0  0  0  0  0  0  0  0  0
   35.8946   23.2012   31.4157 H   0  0  0  0  0  0  0  0  0  0  0  0
   37.2404   25.0751   31.9879 H   0  0  0  0  0  0  0  0  0  0  0  0
   36.6371   24.3025   33.4567 H   0  0  0  0  0  0  0  0  0  0  0  0
   39.3216   23.6839   32.0608 H   0  0  0  0  0  0  0  0  0  0  0  0
   39.1175   24.6550   33.5710 H   0  0  0  0  0  0  0  0  0  0  0  0
  1  2  2  0
  3  2  1  0
  3 13  1  0
  4  3  2  0
  5  6  2  0
  5  4  1  0
  6  1  1  0
  7  5  1  0
  8  7  1  0
  9  8  1  0
 10 11  1  0
 10  9  1  0
 11 12  1  0
 12  7  1  0
 13 16  1  0
 13 15  1  0
 14 13  1  0
  1 17  1  0
  2 18  1  0
  8 19  1  0
  8 20  1  0
  9 21  1  0
  9 22  1  0
 10 23  1  0
 11 24  1  0
 11 25  1  0
 12 26  1  0
 12 27  1  0
M  ISO  8  17  14  18  14  19  13  20  13  21  13  22  13  23   5  24  13
M  ISO  3  25  13  26  13  27  13
M  END
>  <minimizedAffinity>  (1) 
-4.83556747

>  <minimizedRMSD>  (1) 
0.353706658

$$$$
