
     RDKit          3D

 45 48  0  0  1  0  0  0  0  0999 V2000
   37.7720   24.0210   34.0110 C   0  0  0  0  0  0  0  0  0  0  0  0
   37.4030   24.4760   32.6250 C   0  0  2  0  0  0  0  0  0  0  0  0
   36.9080   25.9150   32.8150 C   0  0  0  0  0  0  0  0  0  0  0  0
   36.7090   26.4250   31.3980 C   0  0  0  0  0  0  0  0  0  0  0  0
   35.4330   25.7370   30.9740 C   0  0  0  0  0  0  0  0  0  0  0  0
   35.4610   24.2700   31.1170 C   0  0  0  0  0  0  0  0  0  0  0  0
   36.4670   23.5980   31.9460 C   0  0  0  0  0  0  0  0  0  0  0  0
   36.2110   22.1720   31.8140 C   0  0  0  0  0  0  0  0  0  0  0  0
   35.1310   21.3980   32.4660 C   0  0  0  0  0  0  0  0  0  0  0  0
   35.4260   19.7780   31.7010 S   0  0  0  0  0  0  0  0  0  0  0  0
   36.9010   20.3510   30.6560 C   0  0  0  0  0  0  0  0  0  0  0  0
   37.0660   21.7060   30.9530 N   0  0  0  0  0  0  0  0  0  0  0  0
   39.1620   24.2230   34.3710 C   0  0  1  0  0  0  0  0  0  0  0  0
   39.2500   23.5650   36.7360 C   0  0  0  0  0  0  0  0  0  0  0  0
   39.7360   23.4460   35.4310 C   0  0  0  0  0  0  0  0  0  0  0  0
   40.7510   22.5550   35.2780 C   0  0  0  0  0  0  0  0  0  0  0  0
   41.2590   21.8300   36.3210 N   0  0  0  0  0  0  0  0  0  0  0  0
   40.7390   21.9960   37.5610 C   0  0  0  0  0  0  0  0  0  0  0  0
   39.7400   22.8630   37.7510 N   0  0  0  0  0  0  0  0  0  0  0  0
   40.0540   24.1580   33.1290 C   0  0  0  0  0  0  0  0  0  0  0  0
   40.8410   25.4100   33.2020 N   0  0  0  0  0  0  0  0  0  0  0  0
   42.1960   25.4790   33.3650 C   0  0  0  0  0  0  0  0  0  0  0  0
   42.5940   26.7580   33.3860 N   0  0  0  0  0  0  0  0  0  0  0  0
   41.4800   27.5090   33.2350 C   0  0  0  0  0  0  0  0  0  0  0  0
   40.4490   26.6540   33.1280 N   0  0  0  0  0  0  0  0  0  0  0  0
   37.5522   22.9459   34.0874 H   0  0  0  0  0  0  0  0  0  0  0  0
   37.1814   24.6371   34.7050 H   0  0  0  0  0  0  0  0  0  0  0  0
   38.2617   24.4389   31.9385 H   0  0  0  0  0  0  0  0  0  0  0  0
   35.9604   25.9321   33.3734 H   0  0  0  0  0  0  0  0  0  0  0  0
   37.6121   26.5323   33.3923 H   0  0  0  0  0  0  0  0  0  0  0  0
   36.5939   27.5189   31.3826 H   0  0  0  0  0  0  0  0  0  0  0  0
   37.5604   26.2137   30.7343 H   0  0  0  0  0  0  0  0  0  0  0  0
   35.2466   25.9770   29.9168 H   0  0  0  0  0  0  0  0  0  0  0  0
   34.6392   26.1044   31.6410 H   0  0  0  0  0  0  0  0  0  0  0  0
   34.7092   23.6648   30.5892 H   0  0  0  0  0  0  0  0  0  0  0  0
   34.3727   21.7119   33.1985 H   0  0  0  0  0  0  0  0  0  0  0  0
   37.5007   19.7440   29.9618 H   0  0  0  0  0  0  0  0  0  0  0  0
   39.1281   25.2282   34.8165 H   0  0  0  0  0  0  0  0  0  0  0  0
   38.4276   24.2693   36.9303 H   0  0  0  0  0  0  0  0  0  0  0  0
   41.1810   22.4112   34.2758 H   0  0  0  0  0  0  0  0  0  0  0  0
   41.1378   21.4191   38.4085 H   0  0  0  0  0  0  0  0  0  0  0  0
   39.4484   24.1274   32.2113 H   0  0  0  0  0  0  0  0  0  0  0  0
   40.6844   23.2570   33.1013 H   0  0  0  0  0  0  0  0  0  0  0  0
   42.8633   24.6102   33.4645 H   0  0  0  0  0  0  0  0  0  0  0  0
   41.4278   28.6074   33.2055 H   0  0  0  0  0  0  0  0  0  0  0  0
  1 13  1  0
  2  3  1  0
  2  1  1  0
  4  3  1  0
  5  6  1  0
  5  4  1  0
  6  7  2  0
  7  2  1  0
  8  7  1  0
  8  9  2  0
 10  9  1  0
 11 12  2  0
 11 10  1  0
 12  8  1  0
 13 15  1  0
 14 19  2  0
 15 14  1  0
 16 15  2  0
 16 17  1  0
 17 18  2  0
 18 19  1  0
 20 21  1  0
 20 13  1  0
 21 22  1  0
 22 23  2  0
 24 23  1  0
 25 21  1  0
 25 24  2  0
  1 26  1  0
  1 27  1  0
  2 28  1  6
  3 29  1  0
  3 30  1  0
  4 31  1  0
  4 32  1  0
  5 33  1  0
  5 34  1  0
  6 35  1  0
  9 36  1  0
 11 37  1  0
 13 38  1  1
 14 39  1  0
 16 40  1  0
 18 41  1  0
 20 42  1  0
 20 43  1  0
 22 44  1  0
 24 45  1  0
M  ISO  8  26   8  27   8  28  13  29  13  30  13  31  13  32  13  33  13
M  ISO  8  34  13  35  13  36  14  37  14  38   8  39  14  40  14  41  14
M  ISO  4  42   8  43   8  44  14  45  14
M  END
>  <minimizedAffinity>  (1) 
-4.77126598

>  <minimizedRMSD>  (1) 
4.96586084

$$$$
