
     RDKit          3D

 49 52  0  0  1  0  0  0  0  0999 V2000
   36.9240   26.1060   33.0390 C   0  0  0  0  0  0  0  0  0  0  0  0
   37.1000   24.7910   32.3340 C   0  0  2  0  0  0  0  0  0  0  0  0
   35.7340   24.4800   31.7320 C   0  0  0  0  0  0  0  0  0  0  0  0
   35.9810   23.2530   30.8670 C   0  0  0  0  0  0  0  0  0  0  0  0
   36.0960   22.1490   31.8900 C   0  0  0  0  0  0  0  0  0  0  0  0
   37.1220   22.3900   32.9220 C   0  0  0  0  0  0  0  0  0  0  0  0
   37.6660   23.7450   33.1710 C   0  0  0  0  0  0  0  0  0  0  0  0
   38.6540   23.5870   34.2200 C   0  0  0  0  0  0  0  0  0  0  0  0
   38.3930   23.5260   35.6790 C   0  0  0  0  0  0  0  0  0  0  0  0
   40.0820   23.2240   36.2630 S   0  0  0  0  0  0  0  0  0  0  0  0
   40.8620   23.2250   34.5320 C   0  0  0  0  0  0  0  0  0  0  0  0
   39.8000   23.4500   33.6560 N   0  0  0  0  0  0  0  0  0  0  0  0
   37.8470   27.1520   32.6420 C   0  0  1  0  0  0  0  0  0  0  0  0
   39.5620   26.9760   34.3960 C   0  0  0  0  0  0  0  0  0  0  0  0
   39.2240   27.0630   33.0420 C   0  0  0  0  0  0  0  0  0  0  0  0
   40.2820   27.0490   32.1870 C   0  0  0  0  0  0  0  0  0  0  0  0
   41.5740   26.9560   32.6200 N   0  0  0  0  0  0  0  0  0  0  0  0
   41.8250   26.8760   33.9490 C   0  0  0  0  0  0  0  0  0  0  0  0
   40.8160   26.8870   34.8170 N   0  0  0  0  0  0  0  0  0  0  0  0
   37.7500   27.4120   31.1410 C   0  0  0  0  0  0  0  0  0  0  0  0
   37.2270   28.8270   31.0290 C   0  0  0  0  0  0  0  0  0  0  0  0
   37.6080   29.6300   29.9770 C   0  0  0  0  0  0  0  0  0  0  0  0
   37.1680   30.9270   29.8080 C   0  0  0  0  0  0  0  0  0  0  0  0
   36.2970   31.4580   30.7370 C   0  0  0  0  0  0  0  0  0  0  0  0
   35.8970   30.6780   31.8010 C   0  0  0  0  0  0  0  0  0  0  0  0
   36.3460   29.3830   31.9590 C   0  0  0  0  0  0  0  0  0  0  0  0
   35.9020   26.4624   32.8427 H   0  0  0  0  0  0  0  0  0  0  0  0
   37.1266   25.9099   34.1023 H   0  0  0  0  0  0  0  0  0  0  0  0
   37.8606   24.8494   31.5415 H   0  0  0  0  0  0  0  0  0  0  0  0
   35.0002   24.2601   32.5214 H   0  0  0  0  0  0  0  0  0  0  0  0
   35.3225   25.3244   31.1596 H   0  0  0  0  0  0  0  0  0  0  0  0
   35.1393   23.0738   30.1819 H   0  0  0  0  0  0  0  0  0  0  0  0
   36.8655   23.3442   30.2194 H   0  0  0  0  0  0  0  0  0  0  0  0
   35.1224   22.0382   32.3898 H   0  0  0  0  0  0  0  0  0  0  0  0
   36.3994   21.2423   31.3461 H   0  0  0  0  0  0  0  0  0  0  0  0
   37.4916   21.5442   33.5203 H   0  0  0  0  0  0  0  0  0  0  0  0
   37.4529   23.6325   36.2402 H   0  0  0  0  0  0  0  0  0  0  0  0
   41.9217   23.0796   34.2755 H   0  0  0  0  0  0  0  0  0  0  0  0
   37.4882   28.0024   33.2404 H   0  0  0  0  0  0  0  0  0  0  0  0
   38.7542   26.9816   35.1426 H   0  0  0  0  0  0  0  0  0  0  0  0
   40.0897   27.1151   31.1060 H   0  0  0  0  0  0  0  0  0  0  0  0
   42.8614   26.8020   34.3102 H   0  0  0  0  0  0  0  0  0  0  0  0
   38.7392   27.3255   30.6677 H   0  0  0  0  0  0  0  0  0  0  0  0
   37.0973   26.6859   30.6343 H   0  0  0  0  0  0  0  0  0  0  0  0
   38.3011   29.2148   29.2305 H   0  0  0  0  0  0  0  0  0  0  0  0
   37.5052   31.5260   28.9492 H   0  0  0  0  0  0  0  0  0  0  0  0
   35.9272   32.4885   30.6302 H   0  0  0  0  0  0  0  0  0  0  0  0
   35.2023   31.0988   32.5428 H   0  0  0  0  0  0  0  0  0  0  0  0
   36.0091   28.7869   32.8199 H   0  0  0  0  0  0  0  0  0  0  0  0
  2  1  1  0
  2  7  1  0
  3  2  1  0
  4  3  1  0
  4  5  1  0
  5  6  1  0
  6  7  2  0
  7  8  1  0
  8  9  2  0
  9 10  1  0
 11 10  1  0
 12  8  1  0
 12 11  2  0
 13  1  1  0
 13 15  1  0
 14 19  2  0
 15 14  1  0
 16 17  1  0
 16 15  2  0
 17 18  2  0
 18 19  1  0
 20 13  1  0
 21 20  1  0
 21 26  1  0
 22 21  2  0
 23 22  1  0
 23 24  2  0
 24 25  1  0
 25 26  2  0
  1 27  1  0
  1 28  1  0
  2 29  1  6
  3 30  1  0
  3 31  1  0
  4 32  1  0
  4 33  1  0
  5 34  1  0
  5 35  1  0
  6 36  1  0
  9 37  1  0
 11 38  1  0
 13 39  1  1
 14 40  1  0
 16 41  1  0
 18 42  1  0
 20 43  1  0
 20 44  1  0
 22 45  1  0
 23 46  1  0
 24 47  1  0
 25 48  1  0
 26 49  1  0
M  ISO  8  27   8  28   8  29  13  30  13  31  13  32  13  33  13  34  13
M  ISO  8  35  13  36  13  37  14  38  14  39   8  40  14  41  14  42  14
M  ISO  7  43   8  44   8  45  14  46  14  47  14  48  14  49  14
M  END
>  <minimizedAffinity>  (1) 
-4.88095045

>  <minimizedRMSD>  (1) 
5.90416527

$$$$
