
     RDKit          3D

 44 47  0  0  1  0  0  0  0  0999 V2000
   37.4320   25.8900   33.4860 C   0  0  0  0  0  0  0  0  0  0  0  0
   37.5140   27.3130   33.0180 C   0  0  2  0  0  0  0  0  0  0  0  0
   36.0820   27.8470   33.1550 C   0  0  0  0  0  0  0  0  0  0  0  0
   36.2150   29.3290   32.8560 C   0  0  0  0  0  0  0  0  0  0  0  0
   36.3910   29.3570   31.3560 C   0  0  0  0  0  0  0  0  0  0  0  0
   37.4990   28.5190   30.8620 C   0  0  0  0  0  0  0  0  0  0  0  0
   38.1000   27.4700   31.6980 C   0  0  0  0  0  0  0  0  0  0  0  0
   39.1710   26.8830   30.9040 C   0  0  0  0  0  0  0  0  0  0  0  0
   39.0790   25.6770   30.0490 C   0  0  0  0  0  0  0  0  0  0  0  0
   40.7500   25.7050   29.3330 S   0  0  0  0  0  0  0  0  0  0  0  0
   41.3000   27.2640   30.2540 C   0  0  0  0  0  0  0  0  0  0  0  0
   40.2050   27.6580   31.0280 N   0  0  0  0  0  0  0  0  0  0  0  0
   38.4250   25.5070   34.4670 C   0  0  1  0  0  0  0  0  0  0  0  0
   40.4860   24.6980   33.4020 C   0  0  0  0  0  0  0  0  0  0  0  0
   39.8200   25.6600   34.1640 C   0  0  0  0  0  0  0  0  0  0  0  0
   40.5880   26.7120   34.5590 C   0  0  0  0  0  0  0  0  0  0  0  0
   41.9130   26.8110   34.2300 N   0  0  0  0  0  0  0  0  0  0  0  0
   42.4900   25.8410   33.4910 C   0  0  0  0  0  0  0  0  0  0  0  0
   41.7690   24.7950   33.0850 N   0  0  0  0  0  0  0  0  0  0  0  0
   38.1190   26.1580   35.8250 C   0  0  0  0  0  0  0  0  0  0  0  0
   38.0090   24.9670   36.7600 C   0  0  0  0  0  0  0  0  0  0  0  0
   37.7780   23.6800   36.3990 N   0  0  0  0  0  0  0  0  0  0  0  0
   37.7520   22.9250   37.4560 O   0  0  0  0  0  0  0  0  0  0  0  0
   37.9570   23.6580   38.5230 C   0  0  0  0  0  0  0  0  0  0  0  0
   38.1160   24.9150   38.0910 N   0  0  0  0  0  0  0  0  0  0  0  0
   37.5493   25.2359   32.6094 H   0  0  0  0  0  0  0  0  0  0  0  0
   36.4559   25.7871   33.9826 H   0  0  0  0  0  0  0  0  0  0  0  0
   38.2149   27.9035   33.6264 H   0  0  0  0  0  0  0  0  0  0  0  0
   35.4119   27.3603   32.4311 H   0  0  0  0  0  0  0  0  0  0  0  0
   35.6495   27.6516   34.1473 H   0  0  0  0  0  0  0  0  0  0  0  0
   35.3101   29.8764   33.1584 H   0  0  0  0  0  0  0  0  0  0  0  0
   37.0425   29.8089   33.3992 H   0  0  0  0  0  0  0  0  0  0  0  0
   35.4581   29.0038   30.8925 H   0  0  0  0  0  0  0  0  0  0  0  0
   36.6347   30.3950   31.0855 H   0  0  0  0  0  0  0  0  0  0  0  0
   37.8846   28.6825   29.8448 H   0  0  0  0  0  0  0  0  0  0  0  0
   38.2474   24.9739   29.8935 H   0  0  0  0  0  0  0  0  0  0  0  0
   42.2806   27.7587   30.1927 H   0  0  0  0  0  0  0  0  0  0  0  0
   38.3060   24.4135   34.4740 H   0  0  0  0  0  0  0  0  0  0  0  0
   39.9215   23.8221   33.0497 H   0  0  0  0  0  0  0  0  0  0  0  0
   40.1288   27.5088   35.1625 H   0  0  0  0  0  0  0  0  0  0  0  0
   43.5545   25.9127   33.2234 H   0  0  0  0  0  0  0  0  0  0  0  0
   38.9341   26.8289   36.1341 H   0  0  0  0  0  0  0  0  0  0  0  0
   37.2135   26.7824   35.8113 H   0  0  0  0  0  0  0  0  0  0  0  0
   37.9915   23.3097   39.5658 H   0  0  0  0  0  0  0  0  0  0  0  0
  1 13  1  0
  2  3  1  0
  2  1  1  0
  4  3  1  0
  5  4  1  0
  6  5  1  0
  6  7  2  0
  7  2  1  0
  8 12  1  0
  8  7  1  0
  9  8  2  0
 10  9  1  0
 10 11  1  0
 11 12  2  0
 13 20  1  0
 14 15  2  0
 15 13  1  0
 15 16  1  0
 17 16  2  0
 18 17  1  0
 19 14  1  0
 19 18  2  0
 20 21  1  0
 21 25  1  0
 22 21  2  0
 22 23  1  0
 23 24  1  0
 25 24  2  0
  1 26  1  0
  1 27  1  0
  2 28  1  1
  3 29  1  0
  3 30  1  0
  4 31  1  0
  4 32  1  0
  5 33  1  0
  5 34  1  0
  6 35  1  0
  9 36  1  0
 11 37  1  0
 13 38  1  1
 14 39  1  0
 16 40  1  0
 18 41  1  0
 20 42  1  0
 20 43  1  0
 24 44  1  0
M  ISO  8  26   8  27   8  28  13  29  13  30  13  31  13  32  13  33  13
M  ISO  8  34  13  35  13  36  14  37  14  38   8  39  14  40  14  41  14
M  ISO  3  42   8  43   8  44  14
M  END
>  <minimizedAffinity>  (1) 
-4.49099541

>  <minimizedRMSD>  (1) 
3.19342756

$$$$
