
     RDKit          3D

 47 50  0  0  1  0  0  0  0  0999 V2000
   37.5370   26.0150   32.9470 C   0  0  0  0  0  0  0  0  0  0  0  0
   37.5590   27.4470   32.4900 C   0  0  2  0  0  0  0  0  0  0  0  0
   36.0920   27.8970   32.5570 C   0  0  0  0  0  0  0  0  0  0  0  0
   36.1490   29.3810   32.2700 C   0  0  0  0  0  0  0  0  0  0  0  0
   36.4000   29.4340   30.7810 C   0  0  0  0  0  0  0  0  0  0  0  0
   37.5820   28.6690   30.3410 C   0  0  0  0  0  0  0  0  0  0  0  0
   38.1990   27.6470   31.2030 C   0  0  0  0  0  0  0  0  0  0  0  0
   39.3390   27.1260   30.4570 C   0  0  0  0  0  0  0  0  0  0  0  0
   39.3520   25.9210   29.5950 C   0  0  0  0  0  0  0  0  0  0  0  0
   41.0530   26.0390   28.9670 S   0  0  0  0  0  0  0  0  0  0  0  0
   41.4710   27.6300   29.9250 C   0  0  0  0  0  0  0  0  0  0  0  0
   40.3180   27.9470   30.6330 N   0  0  0  0  0  0  0  0  0  0  0  0
   38.4880   25.6900   33.9930 C   0  0  1  0  0  0  0  0  0  0  0  0
   40.6280   24.9760   33.0120 C   0  0  0  0  0  0  0  0  0  0  0  0
   39.8910   25.9050   33.7570 C   0  0  0  0  0  0  0  0  0  0  0  0
   40.5980   26.9780   34.2080 C   0  0  0  0  0  0  0  0  0  0  0  0
   41.9310   27.1240   33.9460 N   0  0  0  0  0  0  0  0  0  0  0  0
   42.5810   26.1930   33.2240 C   0  0  0  0  0  0  0  0  0  0  0  0
   41.9190   25.1310   32.7670 N   0  0  0  0  0  0  0  0  0  0  0  0
   38.0790   26.3480   35.3140 C   0  0  0  0  0  0  0  0  0  0  0  0
   38.0110   25.2010   36.3040 C   0  0  0  0  0  0  0  0  0  0  0  0
   38.0140   25.3660   37.6760 C   0  0  0  0  0  0  0  0  0  0  0  0
   37.9630   24.2800   38.5060 C   0  0  0  0  0  0  0  0  0  0  0  0
   37.9080   23.0340   38.0000 N   0  0  0  0  0  0  0  0  0  0  0  0
   37.9040   22.8740   36.6650 C   0  0  0  0  0  0  0  0  0  0  0  0
   37.9550   23.9240   35.8240 N   0  0  0  0  0  0  0  0  0  0  0  0
   37.7541   25.3763   32.0781 H   0  0  0  0  0  0  0  0  0  0  0  0
   36.5385   25.8448   33.3760 H   0  0  0  0  0  0  0  0  0  0  0  0
   38.1926   28.0723   33.1362 H   0  0  0  0  0  0  0  0  0  0  0  0
   35.4884   27.3755   31.7996 H   0  0  0  0  0  0  0  0  0  0  0  0
   35.6248   27.6718   33.5270 H   0  0  0  0  0  0  0  0  0  0  0  0
   35.1977   29.8696   32.5275 H   0  0  0  0  0  0  0  0  0  0  0  0
   36.9180   29.9051   32.8565 H   0  0  0  0  0  0  0  0  0  0  0  0
   35.5157   29.0290   30.2672 H   0  0  0  0  0  0  0  0  0  0  0  0
   36.5928   30.4874   30.5295 H   0  0  0  0  0  0  0  0  0  0  0  0
   38.0117   28.8662   29.3478 H   0  0  0  0  0  0  0  0  0  0  0  0
   38.5666   25.1772   29.3950 H   0  0  0  0  0  0  0  0  0  0  0  0
   42.4229   28.1813   29.9194 H   0  0  0  0  0  0  0  0  0  0  0  0
   38.4164   24.5928   34.0238 H   0  0  0  0  0  0  0  0  0  0  0  0
   40.1158   24.0864   32.6167 H   0  0  0  0  0  0  0  0  0  0  0  0
   40.0817   27.7484   34.7995 H   0  0  0  0  0  0  0  0  0  0  0  0
   43.6542   26.3082   33.0120 H   0  0  0  0  0  0  0  0  0  0  0  0
   38.8290   27.0888   35.6280 H   0  0  0  0  0  0  0  0  0  0  0  0
   37.1246   26.8890   35.2341 H   0  0  0  0  0  0  0  0  0  0  0  0
   38.0577   26.3784   38.1039 H   0  0  0  0  0  0  0  0  0  0  0  0
   37.9670   24.4262   39.5962 H   0  0  0  0  0  0  0  0  0  0  0  0
   37.8578   21.8570   36.2484 H   0  0  0  0  0  0  0  0  0  0  0  0
  1 13  1  0
  2  3  1  0
  2  1  1  0
  4  3  1  0
  5  4  1  0
  6  5  1  0
  6  7  2  0
  7  2  1  0
  8 12  1  0
  8  7  1  0
  9  8  2  0
 10  9  1  0
 10 11  1  0
 11 12  2  0
 13 20  1  0
 14 15  2  0
 15 13  1  0
 15 16  1  0
 17 16  2  0
 18 17  1  0
 19 14  1  0
 19 18  2  0
 20 21  1  0
 21 22  2  0
 22 23  1  0
 24 23  2  0
 25 24  1  0
 26 21  1  0
 26 25  2  0
  1 27  1  0
  1 28  1  0
  2 29  1  1
  3 30  1  0
  3 31  1  0
  4 32  1  0
  4 33  1  0
  5 34  1  0
  5 35  1  0
  6 36  1  0
  9 37  1  0
 11 38  1  0
 13 39  1  1
 14 40  1  0
 16 41  1  0
 18 42  1  0
 20 43  1  0
 20 44  1  0
 22 45  1  0
 23 46  1  0
 25 47  1  0
M  ISO  8  27   8  28   8  29  13  30  13  31  13  32  13  33  13  34  13
M  ISO  8  35  13  36  13  37  14  38  14  39   8  40  14  41  14  42  14
M  ISO  5  43   8  44   8  45  14  46  14  47  14
M  END
>  <minimizedAffinity>  (1) 
-4.5999155

>  <minimizedRMSD>  (1) 
3.4778161

$$$$
