
     RDKit          3D

 20 21  0  0  0  0  0  0  0  0999 V2000
   38.6720   24.7520   35.0340 C   0  0  0  0  0  0  0  0  0  0  0  0
   39.6280   23.7570   35.2380 C   0  0  0  0  0  0  0  0  0  0  0  0
   39.6440   23.0520   36.4530 C   0  0  0  0  0  0  0  0  0  0  0  0
   38.6970   23.3940   37.3820 N   0  0  0  0  0  0  0  0  0  0  0  0
   37.7990   24.3530   37.1480 C   0  0  0  0  0  0  0  0  0  0  0  0
   37.7690   25.0340   35.9990 N   0  0  0  0  0  0  0  0  0  0  0  0
   38.6900   25.4560   33.7650 C   0  0  0  0  0  0  0  0  0  0  0  0
   39.7480   25.4520   33.0900 O   0  0  0  0  0  0  0  0  0  0  0  0
   37.5660   26.1140   33.3120 O   0  0  0  0  0  0  0  0  0  0  0  0
   36.7240   25.4990   32.3950 C   0  0  0  0  0  0  0  0  0  0  0  0
   35.9180   26.3330   31.6110 C   0  0  0  0  0  0  0  0  0  0  0  0
   35.1870   25.5200   30.7980 N   0  0  0  0  0  0  0  0  0  0  0  0
   35.5280   24.2470   31.0700 C   0  0  0  0  0  0  0  0  0  0  0  0
   36.4690   24.2250   32.0470 N   0  0  0  0  0  0  0  0  0  0  0  0
   40.3637   23.5261   34.4535 H   0  0  0  0  0  0  0  0  0  0  0  0
   40.3832   22.2614   36.6495 H   0  0  0  0  0  0  0  0  0  0  0  0
   37.0592   24.5906   37.9267 H   0  0  0  0  0  0  0  0  0  0  0  0
   35.8819   27.4319   31.6448 H   0  0  0  0  0  0  0  0  0  0  0  0
   35.1076   23.3590   30.5753 H   0  0  0  0  0  0  0  0  0  0  0  0
   36.9085   23.3849   32.4494 H   0  0  0  0  0  0  0  0  0  0  0  0
  1  2  2  0
  1  6  1  0
  2  3  1  0
  3  4  2  0
  5  4  1  0
  6  5  2  0
  7  1  1  0
  8  7  2  0
  9  7  1  0
 10  9  1  0
 11 10  2  0
 12 13  2  0
 12 11  1  0
 13 14  1  0
 14 10  1  0
  2 15  1  0
  3 16  1  0
  5 17  1  0
 11 18  1  0
 13 19  1  0
 14 20  1  0
M  ISO  6  15  14  16  14  17  14  18  14  19  14  20   9
M  END
>  <minimizedAffinity>  (1) 
-3.3701992

>  <minimizedRMSD>  (1) 
7.20716095

$$$$
