
     RDKit          3D

 19 19  0  0  0  0  0  0  0  0999 V2000
   38.6350   24.1950   36.0270 C   0  0  0  0  0  0  0  0  0  0  0  0
   37.8120   24.6620   37.0530 C   0  0  0  0  0  0  0  0  0  0  0  0
   38.0180   24.1560   38.3540 C   0  0  0  0  0  0  0  0  0  0  0  0
   39.0050   23.2460   38.5280 N   0  0  0  0  0  0  0  0  0  0  0  0
   39.7740   22.8230   37.5190 C   0  0  0  0  0  0  0  0  0  0  0  0
   39.6070   23.2840   36.2600 N   0  0  0  0  0  0  0  0  0  0  0  0
   38.3920   24.7400   34.6930 C   0  0  0  0  0  0  0  0  0  0  0  0
   39.0470   24.2610   33.7330 O   0  0  0  0  0  0  0  0  0  0  0  0
   37.4600   25.7620   34.5120 O   0  0  0  0  0  0  0  0  0  0  0  0
   37.1530   26.0620   33.1420 C   0  0  0  0  0  0  0  0  0  0  0  0
   37.5390   27.4600   32.7720 C   0  0  0  0  0  0  0  0  0  0  0  0
   37.0248   25.4038   36.8530 H   0  0  0  0  0  0  0  0  0  0  0  0
   37.3973   24.4898   39.1986 H   0  0  0  0  0  0  0  0  0  0  0  0
   40.5617   22.0817   37.7189 H   0  0  0  0  0  0  0  0  0  0  0  0
   37.6986   25.3601   32.4943 H   0  0  0  0  0  0  0  0  0  0  0  0
   36.0654   25.9643   33.0092 H   0  0  0  0  0  0  0  0  0  0  0  0
   37.7018   28.0496   33.6863 H   0  0  0  0  0  0  0  0  0  0  0  0
   38.4652   27.4399   32.1789 H   0  0  0  0  0  0  0  0  0  0  0  0
   36.7337   27.9180   32.1789 H   0  0  0  0  0  0  0  0  0  0  0  0
  1  6  2  0
  1  2  1  0
  2  3  2  0
  3  4  1  0
  5  4  2  0
  6  5  1  0
  7  1  1  0
  8  7  2  0
  9  7  1  0
 10  9  1  0
 11 10  1  0
  2 12  1  0
  3 13  1  0
  5 14  1  0
 10 15  1  0
 10 16  1  0
 11 17  1  0
 11 18  1  0
 11 19  1  0
M  ISO  8  12  14  13  14  14  14  15   8  16   8  17   8  18   8  19   8
M  END
>  <minimizedAffinity>  (1) 
-3.10105991

>  <minimizedRMSD>  (1) 
5.10158396

$$$$
