
     RDKit          3D

 28 29  0  0  0  0  0  0  0  0999 V2000
   37.1330   26.4550   33.5740 C   0  0  0  0  0  0  0  0  0  0  0  0
   36.6940   27.8970   33.5780 C   0  0  0  0  0  0  0  0  0  0  0  0
   36.8430   28.4330   32.1990 C   0  0  0  0  0  0  0  0  0  0  0  0
   36.2150   29.5870   31.7190 C   0  0  0  0  0  0  0  0  0  0  0  0
   36.4170   30.0020   30.4210 C   0  0  0  0  0  0  0  0  0  0  0  0
   37.2240   29.3300   29.5430 C   0  0  0  0  0  0  0  0  0  0  0  0
   37.8150   28.2000   30.0750 C   0  0  0  0  0  0  0  0  0  0  0  0
   37.6500   27.7550   31.3290 N   0  0  0  0  0  0  0  0  0  0  0  0
   37.3820   25.9510   34.8810 O   0  0  0  0  0  0  0  0  0  0  0  0
   38.2800   24.8750   34.9380 C   0  0  0  0  0  0  0  0  0  0  0  0
   38.8300   24.4150   33.8930 O   0  0  0  0  0  0  0  0  0  0  0  0
   38.6150   24.2460   36.2050 C   0  0  0  0  0  0  0  0  0  0  0  0
   37.8550   24.6300   37.3040 C   0  0  0  0  0  0  0  0  0  0  0  0
   38.1360   24.0510   38.5660 C   0  0  0  0  0  0  0  0  0  0  0  0
   39.1360   23.1520   38.6130 N   0  0  0  0  0  0  0  0  0  0  0  0
   39.8430   22.8070   37.5430 C   0  0  0  0  0  0  0  0  0  0  0  0
   39.5980   23.3410   36.3340 N   0  0  0  0  0  0  0  0  0  0  0  0
   36.3426   25.8483   33.1080 H   0  0  0  0  0  0  0  0  0  0  0  0
   38.0766   26.3976   33.0115 H   0  0  0  0  0  0  0  0  0  0  0  0
   35.6420   27.9649   33.8920 H   0  0  0  0  0  0  0  0  0  0  0  0
   37.3092   28.4790   34.2799 H   0  0  0  0  0  0  0  0  0  0  0  0
   35.5558   30.1667   32.3820 H   0  0  0  0  0  0  0  0  0  0  0  0
   35.9074   30.9134   30.0750 H   0  0  0  0  0  0  0  0  0  0  0  0
   37.3874   29.6601   28.5065 H   0  0  0  0  0  0  0  0  0  0  0  0
   38.4752   27.6176   29.4155 H   0  0  0  0  0  0  0  0  0  0  0  0
   37.0492   25.3708   37.1955 H   0  0  0  0  0  0  0  0  0  0  0  0
   37.5637   24.3235   39.4650 H   0  0  0  0  0  0  0  0  0  0  0  0
   40.6490   22.0659   37.6487 H   0  0  0  0  0  0  0  0  0  0  0  0
  1  2  1  0
  1  9  1  0
  3  2  1  0
  4  3  2  0
  5  4  1  0
  6  7  1  0
  6  5  2  0
  7  8  2  0
  8  3  1  0
  9 10  1  0
 10 12  1  0
 11 10  2  0
 12 17  1  0
 12 13  2  0
 13 14  1  0
 14 15  2  0
 16 15  1  0
 17 16  2  0
  1 18  1  0
  1 19  1  0
  2 20  1  0
  2 21  1  0
  4 22  1  0
  5 23  1  0
  6 24  1  0
  7 25  1  0
 13 26  1  0
 14 27  1  0
 16 28  1  0
M  ISO  8  18   8  19   8  20   8  21   8  22  14  23  14  24  14  25  14
M  ISO  3  26  14  27  14  28  14
M  END
>  <minimizedAffinity>  (1) 
-4.07639647

>  <minimizedRMSD>  (1) 
1.09330189

$$$$
