
     RDKit          3D

 34 35  0  0  0  0  0  0  0  0999 V2000
   37.2520   25.8480   33.2770 C   0  0  0  0  0  0  0  0  0  0  0  0
   36.8930   27.3020   33.3960 C   0  0  0  0  0  0  0  0  0  0  0  0
   36.0340   27.7840   32.3950 N   0  0  0  0  0  0  0  0  0  0  0  0
   36.2810   27.3280   31.0680 C   0  0  0  0  0  0  0  0  0  0  0  0
   37.1050   28.3450   30.2910 C   0  0  0  0  0  0  0  0  0  0  0  0
   36.4760   29.7190   30.3160 C   0  0  0  0  0  0  0  0  0  0  0  0
   36.2900   30.1370   31.7450 C   0  0  0  0  0  0  0  0  0  0  0  0
   35.5070   29.1000   32.4940 C   0  0  0  0  0  0  0  0  0  0  0  0
   38.2790   25.5020   34.2170 O   0  0  0  0  0  0  0  0  0  0  0  0
   38.2470   24.2050   34.6740 C   0  0  0  0  0  0  0  0  0  0  0  0
   37.9660   23.2500   33.9130 O   0  0  0  0  0  0  0  0  0  0  0  0
   38.5400   23.8850   36.0620 C   0  0  0  0  0  0  0  0  0  0  0  0
   37.7110   24.4770   37.0210 C   0  0  0  0  0  0  0  0  0  0  0  0
   37.9460   24.1890   38.3900 C   0  0  0  0  0  0  0  0  0  0  0  0
   38.9570   23.3580   38.6930 N   0  0  0  0  0  0  0  0  0  0  0  0
   39.7270   22.8130   37.7370 C   0  0  0  0  0  0  0  0  0  0  0  0
   39.5590   23.0460   36.4120 N   0  0  0  0  0  0  0  0  0  0  0  0
   36.3588   25.2378   33.4767 H   0  0  0  0  0  0  0  0  0  0  0  0
   37.6241   25.6571   32.2596 H   0  0  0  0  0  0  0  0  0  0  0  0
   36.4028   27.4542   34.3689 H   0  0  0  0  0  0  0  0  0  0  0  0
   37.8342   27.8613   33.2896 H   0  0  0  0  0  0  0  0  0  0  0  0
   36.8301   26.3758   31.1103 H   0  0  0  0  0  0  0  0  0  0  0  0
   35.3165   27.1917   30.5570 H   0  0  0  0  0  0  0  0  0  0  0  0
   37.1883   28.0112   29.2462 H   0  0  0  0  0  0  0  0  0  0  0  0
   38.0948   28.4151   30.7656 H   0  0  0  0  0  0  0  0  0  0  0  0
   37.1334   30.4364   29.8031 H   0  0  0  0  0  0  0  0  0  0  0  0
   35.5033   29.6953   29.8028 H   0  0  0  0  0  0  0  0  0  0  0  0
   37.2754   30.2594   32.2183 H   0  0  0  0  0  0  0  0  0  0  0  0
   35.7385   31.0885   31.7702 H   0  0  0  0  0  0  0  0  0  0  0  0
   34.4808   29.0907   32.0980 H   0  0  0  0  0  0  0  0  0  0  0  0
   35.5528   29.3782   33.5573 H   0  0  0  0  0  0  0  0  0  0  0  0
   36.8952   25.1507   36.7202 H   0  0  0  0  0  0  0  0  0  0  0  0
   37.3201   24.6322   39.1786 H   0  0  0  0  0  0  0  0  0  0  0  0
   40.5398   22.1396   38.0465 H   0  0  0  0  0  0  0  0  0  0  0  0
  1  2  1  0
  1  9  1  0
  3  8  1  0
  3  2  1  0
  4  3  1  0
  5  6  1  0
  5  4  1  0
  6  7  1  0
  7  8  1  0
  9 10  1  0
 10 12  1  0
 11 10  2  0
 12 17  1  0
 12 13  2  0
 13 14  1  0
 14 15  2  0
 16 15  1  0
 17 16  2  0
  1 18  1  0
  1 19  1  0
  2 20  1  0
  2 21  1  0
  4 22  1  0
  4 23  1  0
  5 24  1  0
  5 25  1  0
  6 26  1  0
  6 27  1  0
  7 28  1  0
  7 29  1  0
  8 30  1  0
  8 31  1  0
 13 32  1  0
 14 33  1  0
 16 34  1  0
M  ISO  8  18   8  19   8  20   8  21   8  22  13  23  13  24  13  25  13
M  ISO  8  26  13  27  13  28  13  29  13  30  13  31  13  32  14  33  14
M  ISO  1  34  14
M  END
>  <minimizedAffinity>  (1) 
-4.08299971

>  <minimizedRMSD>  (1) 
1.89651942

$$$$
