
     RDKit          3D

 26 27  0  0  0  0  0  0  0  0999 V2000
   37.4080   22.1940   33.8820 O   0  0  0  0  0  0  0  0  0  0  0  0
   37.3150   23.0860   32.7820 C   0  0  0  0  0  0  0  0  0  0  0  0
   37.1750   22.3530   31.4750 C   0  0  0  0  0  0  0  0  0  0  0  0
   36.3930   21.0480   31.7280 C   0  0  0  0  0  0  0  0  0  0  0  0
   34.9870   20.9270   31.9160 C   0  0  0  0  0  0  0  0  0  0  0  0
   34.5660   19.6610   32.1180 C   0  0  0  0  0  0  0  0  0  0  0  0
   35.4100   18.6110   32.1390 C   0  0  0  0  0  0  0  0  0  0  0  0
   37.0190   19.3500   31.8520 S   0  0  0  0  0  0  0  0  0  0  0  0
   38.6600   22.1050   34.4870 C   0  0  0  0  0  0  0  0  0  0  0  0
   39.6730   21.6900   33.8500 O   0  0  0  0  0  0  0  0  0  0  0  0
   38.8330   22.4900   35.8870 C   0  0  0  0  0  0  0  0  0  0  0  0
   37.7440   23.0620   36.5240 C   0  0  0  0  0  0  0  0  0  0  0  0
   37.9070   23.4360   37.8750 C   0  0  0  0  0  0  0  0  0  0  0  0
   39.1080   23.2140   38.4630 N   0  0  0  0  0  0  0  0  0  0  0  0
   40.1260   22.6620   37.8130 C   0  0  0  0  0  0  0  0  0  0  0  0
   40.0160   22.2900   36.5240 N   0  0  0  0  0  0  0  0  0  0  0  0
   36.4368   23.7334   32.9224 H   0  0  0  0  0  0  0  0  0  0  0  0
   38.2417   23.6774   32.7435 H   0  0  0  0  0  0  0  0  0  0  0  0
   38.1714   22.1167   31.0734 H   0  0  0  0  0  0  0  0  0  0  0  0
   36.6385   22.9792   30.7470 H   0  0  0  0  0  0  0  0  0  0  0  0
   34.3042   21.7893   31.8982 H   0  0  0  0  0  0  0  0  0  0  0  0
   33.4920   19.4792   32.2715 H   0  0  0  0  0  0  0  0  0  0  0  0
   35.1688   17.5492   32.2955 H   0  0  0  0  0  0  0  0  0  0  0  0
   36.7906   23.2184   35.9980 H   0  0  0  0  0  0  0  0  0  0  0  0
   37.0805   23.8959   38.4366 H   0  0  0  0  0  0  0  0  0  0  0  0
   41.0793   22.5054   38.3390 H   0  0  0  0  0  0  0  0  0  0  0  0
  1  9  1  0
  2  1  1  0
  3  4  1  0
  3  2  1  0
  4  8  1  0
  4  5  2  0
  5  6  1  0
  6  7  2  0
  8  7  1  0
  9 11  1  0
 10  9  2  0
 11 12  2  0
 11 16  1  0
 12 13  1  0
 13 14  2  0
 15 14  1  0
 16 15  2  0
  2 17  1  0
  2 18  1  0
  3 19  1  0
  3 20  1  0
  5 21  1  0
  6 22  1  0
  7 23  1  0
 12 24  1  0
 13 25  1  0
 15 26  1  0
M  ISO  8  17   8  18   8  19   8  20   8  21  14  22  14  23  14  24  14
M  ISO  2  25  14  26  14
M  END
>  <minimizedAffinity>  (1) 
-3.94145846

>  <minimizedRMSD>  (1) 
5.68370438

$$$$
