
     RDKit          3D

 26 27  0  0  0  0  0  0  0  0999 V2000
   37.0970   23.8380   32.9360 O   0  0  0  0  0  0  0  0  0  0  0  0
   38.2790   23.4930   33.6740 C   0  0  0  0  0  0  0  0  0  0  0  0
   38.0180   22.4740   34.7020 C   0  0  0  0  0  0  0  0  0  0  0  0
   37.9970   22.9070   36.1030 C   0  0  0  0  0  0  0  0  0  0  0  0
   38.1260   24.2970   36.2290 C   0  0  0  0  0  0  0  0  0  0  0  0
   38.0940   24.6460   37.5240 N   0  0  0  0  0  0  0  0  0  0  0  0
   37.9490   23.5620   38.2670 C   0  0  0  0  0  0  0  0  0  0  0  0
   37.8960   22.5540   37.3930 N   0  0  0  0  0  0  0  0  0  0  0  0
   36.9950   23.2220   31.7040 C   0  0  0  0  0  0  0  0  0  0  0  0
   37.3560   23.8050   30.6360 O   0  0  0  0  0  0  0  0  0  0  0  0
   36.4700   21.8770   31.5690 C   0  0  0  0  0  0  0  0  0  0  0  0
   35.2680   21.6230   32.2430 C   0  0  0  0  0  0  0  0  0  0  0  0
   34.7130   20.3260   32.1320 C   0  0  0  0  0  0  0  0  0  0  0  0
   35.3850   19.4100   31.3770 N   0  0  0  0  0  0  0  0  0  0  0  0
   36.5320   19.7010   30.7520 C   0  0  0  0  0  0  0  0  0  0  0  0
   37.0930   20.9180   30.8300 N   0  0  0  0  0  0  0  0  0  0  0  0
   39.0324   23.1037   32.9734 H   0  0  0  0  0  0  0  0  0  0  0  0
   38.6347   24.4009   34.1830 H   0  0  0  0  0  0  0  0  0  0  0  0
   37.0366   22.0289   34.4813 H   0  0  0  0  0  0  0  0  0  0  0  0
   38.8753   21.7879   34.6365 H   0  0  0  0  0  0  0  0  0  0  0  0
   38.2372   24.9988   35.3893 H   0  0  0  0  0  0  0  0  0  0  0  0
   37.8859   23.5035   39.3636 H   0  0  0  0  0  0  0  0  0  0  0  0
   37.7853   21.5736   37.6888 H   0  0  0  0  0  0  0  0  0  0  0  0
   34.7730   22.4048   32.8378 H   0  0  0  0  0  0  0  0  0  0  0  0
   33.7715   20.0653   32.6375 H   0  0  0  0  0  0  0  0  0  0  0  0
   37.0293   18.9206   30.1573 H   0  0  0  0  0  0  0  0  0  0  0  0
  1  2  1  0
  2  3  1  0
  3  4  1  0
  4  5  2  0
  4  8  1  0
  5  6  1  0
  6  7  2  0
  8  7  1  0
  9  1  1  0
 10  9  2  0
 11  9  1  0
 11 12  2  0
 13 12  1  0
 14 13  2  0
 15 16  2  0
 15 14  1  0
 16 11  1  0
  2 17  1  0
  2 18  1  0
  3 19  1  0
  3 20  1  0
  5 21  1  0
  7 22  1  0
  8 23  1  0
 12 24  1  0
 13 25  1  0
 15 26  1  0
M  ISO  8  17   8  18   8  19   8  20   8  21  14  22  14  23   9  24  14
M  ISO  2  25  14  26  14
M  END
>  <minimizedAffinity>  (1) 
-3.83710456

>  <minimizedRMSD>  (1) 
6.0981946

$$$$
