
     RDKit          3D

 32 33  0  0  0  0  0  0  0  0999 V2000
   37.5760   25.6860   34.5770 O   0  0  0  0  0  0  0  0  0  0  0  0
   37.2070   25.9660   33.2300 C   0  0  0  0  0  0  0  0  0  0  0  0
   36.7940   27.3490   33.0080 C   0  0  0  0  0  0  0  0  0  0  0  0
   37.3200   28.1400   31.8960 C   0  0  0  0  0  0  0  0  0  0  0  0
   36.3540   28.5490   30.8340 C   0  0  0  0  0  0  0  0  0  0  0  0
   37.3010   29.3450   29.9230 C   0  0  0  0  0  0  0  0  0  0  0  0
   38.4920   28.3920   29.8360 C   0  0  0  0  0  0  0  0  0  0  0  0
   38.5120   27.6530   31.1660 C   0  0  0  0  0  0  0  0  0  0  0  0
   38.2380   24.4610   34.7470 C   0  0  0  0  0  0  0  0  0  0  0  0
   38.5560   23.7460   33.7750 O   0  0  0  0  0  0  0  0  0  0  0  0
   38.5670   24.0040   36.1040 C   0  0  0  0  0  0  0  0  0  0  0  0
   37.7520   24.4770   37.1420 C   0  0  0  0  0  0  0  0  0  0  0  0
   38.0640   24.0420   38.4490 C   0  0  0  0  0  0  0  0  0  0  0  0
   39.1200   23.2050   38.6190 N   0  0  0  0  0  0  0  0  0  0  0  0
   39.8580   22.7890   37.5950 C   0  0  0  0  0  0  0  0  0  0  0  0
   39.6180   23.1620   36.3210 N   0  0  0  0  0  0  0  0  0  0  0  0
   38.0705   25.7536   32.5824 H   0  0  0  0  0  0  0  0  0  0  0  0
   36.3397   25.3309   32.9965 H   0  0  0  0  0  0  0  0  0  0  0  0
   35.7012   27.3291   32.8836 H   0  0  0  0  0  0  0  0  0  0  0  0
   37.2194   27.8632   33.8824 H   0  0  0  0  0  0  0  0  0  0  0  0
   37.6078   28.9911   32.5306 H   0  0  0  0  0  0  0  0  0  0  0  0
   35.9208   27.6803   30.3167 H   0  0  0  0  0  0  0  0  0  0  0  0
   35.4725   29.1020   31.1906 H   0  0  0  0  0  0  0  0  0  0  0  0
   36.8541   29.5243   28.9340 H   0  0  0  0  0  0  0  0  0  0  0  0
   37.5505   30.3495   30.2956 H   0  0  0  0  0  0  0  0  0  0  0  0
   38.3597   27.6847   29.0040 H   0  0  0  0  0  0  0  0  0  0  0  0
   39.4342   28.9285   29.6504 H   0  0  0  0  0  0  0  0  0  0  0  0
   38.4491   26.5667   31.0051 H   0  0  0  0  0  0  0  0  0  0  0  0
   39.4412   27.8365   31.7254 H   0  0  0  0  0  0  0  0  0  0  0  0
   36.9084   25.1556   36.9475 H   0  0  0  0  0  0  0  0  0  0  0  0
   37.4651   24.3737   39.3100 H   0  0  0  0  0  0  0  0  0  0  0  0
   40.7010   22.1112   37.7949 H   0  0  0  0  0  0  0  0  0  0  0  0
  1  9  1  0
  2  1  1  0
  3  2  1  0
  4  3  1  0
  5  4  1  0
  6  5  1  0
  7  6  1  0
  7  8  1  0
  8  4  1  0
  9 11  1  0
 10  9  2  0
 11 16  1  0
 11 12  2  0
 12 13  1  0
 13 14  2  0
 15 14  1  0
 16 15  2  0
  2 17  1  0
  2 18  1  0
  3 19  1  0
  3 20  1  0
  4 21  1  0
  5 22  1  0
  5 23  1  0
  6 24  1  0
  6 25  1  0
  7 26  1  0
  7 27  1  0
  8 28  1  0
  8 29  1  0
 12 30  1  0
 13 31  1  0
 15 32  1  0
M  ISO  8  17   8  18   8  19   8  20   8  21  13  22  13  23  13  24  13
M  ISO  8  25  13  26  13  27  13  28  13  29  13  30  14  31  14  32  14
M  END
>  <minimizedAffinity>  (1) 
-3.95389104

>  <minimizedRMSD>  (1) 
1.88674188

$$$$
