
     RDKit          3D

 46 49  0  0  0  0  0  0  0  0999 V2000
   38.3520   24.7860   34.8360 C   0  0  0  0  0  0  0  0  0  0  0  0
   37.7810   24.1670   33.9150 O   0  0  0  0  0  0  0  0  0  0  0  0
   39.0680   24.0450   35.8730 C   0  0  0  0  0  0  0  0  0  0  0  0
   38.3910   23.7850   37.0630 C   0  0  0  0  0  0  0  0  0  0  0  0
   39.0780   23.0710   38.0640 C   0  0  0  0  0  0  0  0  0  0  0  0
   40.3450   22.6830   37.8140 N   0  0  0  0  0  0  0  0  0  0  0  0
   40.9600   22.9530   36.6550 C   0  0  0  0  0  0  0  0  0  0  0  0
   40.3430   23.6350   35.6660 N   0  0  0  0  0  0  0  0  0  0  0  0
   42.3090   22.5070   36.4640 N   0  0  0  0  0  0  0  0  0  0  0  0
   42.7450   21.2370   36.4030 C   0  0  0  0  0  0  0  0  0  0  0  0
   44.0740   21.1680   36.2140 N   0  0  0  0  0  0  0  0  0  0  0  0
   44.4830   22.4460   36.1550 C   0  0  0  0  0  0  0  0  0  0  0  0
   45.7740   22.9440   35.9720 C   0  0  0  0  0  0  0  0  0  0  0  0
   46.7850   22.2170   35.8280 O   0  0  0  0  0  0  0  0  0  0  0  0
   45.8880   24.2970   35.9540 N   0  0  0  0  0  0  0  0  0  0  0  0
   44.8070   25.1050   36.1080 C   0  0  0  0  0  0  0  0  0  0  0  0
   45.1490   26.5040   36.0580 N   0  0  0  0  0  0  0  0  0  0  0  0
   43.5750   24.6020   36.2830 N   0  0  0  0  0  0  0  0  0  0  0  0
   43.3900   23.2840   36.3100 C   0  0  0  0  0  0  0  0  0  0  0  0
   38.3230   26.1930   34.8990 O   0  0  0  0  0  0  0  0  0  0  0  0
   37.0050   26.7280   35.0670 C   0  0  0  0  0  0  0  0  0  0  0  0
   36.7610   27.9530   34.3120 C   0  0  0  0  0  0  0  0  0  0  0  0
   36.9010   27.9780   32.8450 C   0  0  0  0  0  0  0  0  0  0  0  0
   36.2450   29.1500   32.1740 C   0  0  0  0  0  0  0  0  0  0  0  0
   36.5450   28.8220   30.7120 C   0  0  0  0  0  0  0  0  0  0  0  0
   36.2970   27.3310   30.6420 C   0  0  0  0  0  0  0  0  0  0  0  0
   36.3780   26.8170   32.0660 C   0  0  0  0  0  0  0  0  0  0  0  0
   37.3562   24.1255   37.2152 H   0  0  0  0  0  0  0  0  0  0  0  0
   38.5942   22.8363   39.0236 H   0  0  0  0  0  0  0  0  0  0  0  0
   42.0910   20.3575   36.4967 H   0  0  0  0  0  0  0  0  0  0  0  0
   46.8171   24.7211   35.8203 H   0  0  0  0  0  0  0  0  0  0  0  0
   44.4140   27.2179   36.1626 H   0  0  0  0  0  0  0  0  0  0  0  0
   46.1285   26.7900   35.9177 H   0  0  0  0  0  0  0  0  0  0  0  0
   36.2793   25.9692   34.7391 H   0  0  0  0  0  0  0  0  0  0  0  0
   36.8986   26.9837   36.1316 H   0  0  0  0  0  0  0  0  0  0  0  0
   35.7272   28.2568   34.5333 H   0  0  0  0  0  0  0  0  0  0  0  0
   37.5771   28.6108   34.6454 H   0  0  0  0  0  0  0  0  0  0  0  0
   38.0004   27.9956   32.8119 H   0  0  0  0  0  0  0  0  0  0  0  0
   35.1633   29.1805   32.3717 H   0  0  0  0  0  0  0  0  0  0  0  0
   36.6014   30.1349   32.5100 H   0  0  0  0  0  0  0  0  0  0  0  0
   35.8690   29.3677   30.0373 H   0  0  0  0  0  0  0  0  0  0  0  0
   37.5610   29.1083   30.4023 H   0  0  0  0  0  0  0  0  0  0  0  0
   35.3008   27.1303   30.2210 H   0  0  0  0  0  0  0  0  0  0  0  0
   37.0351   26.8336   29.9956 H   0  0  0  0  0  0  0  0  0  0  0  0
   35.3838   26.5188   32.4303 H   0  0  0  0  0  0  0  0  0  0  0  0
   37.0171   25.9263   32.1568 H   0  0  0  0  0  0  0  0  0  0  0  0
  1 20  1  0
  1  3  1  0
  2  1  2  0
  3  4  2  0
  4  5  1  0
  6  5  2  0
  7  6  1  0
  8  3  1  0
  8  7  2  0
  9  7  1  0
 10  9  1  0
 11 10  2  0
 12 11  1  0
 12 19  2  0
 13 12  1  0
 14 13  2  0
 15 13  1  0
 15 16  1  0
 16 18  2  0
 17 16  1  0
 18 19  1  0
 19  9  1  0
 20 21  1  0
 22 21  1  0
 23 22  1  0
 24 23  1  0
 25 24  1  0
 26 25  1  0
 26 27  1  0
 27 23  1  0
  4 28  1  0
  5 29  1  0
 10 30  1  0
 15 31  1  0
 17 32  1  0
 17 33  1  0
 21 34  1  0
 21 35  1  0
 22 36  1  0
 22 37  1  0
 23 38  1  0
 24 39  1  0
 24 40  1  0
 25 41  1  0
 25 42  1  0
 26 43  1  0
 26 44  1  0
 27 45  1  0
 27 46  1  0
M  ISO  8  28  14  29  14  30  14  31   9  34   8  35   8  36   8  37   8
M  ISO  8  38  13  39  13  40  13  41  13  42  13  43  13  44  13  45  13
M  ISO  1  46  13
M  END
>  <minimizedAffinity>  (1) 
-5.42347574

>  <minimizedRMSD>  (1) 
2.08244348

$$$$
