
     RDKit          3D

 43 45  0  0  0  0  0  0  0  0999 V2000
   36.7410   26.6120   33.3130 O   0  0  0  0  0  0  0  0  0  0  0  0
   36.3210   27.1090   32.0500 C   0  0  0  0  0  0  0  0  0  0  0  0
   36.9170   28.4020   31.6920 C   0  0  0  0  0  0  0  0  0  0  0  0
   37.8550   28.5170   30.5600 C   0  0  0  0  0  0  0  0  0  0  0  0
   37.2220   28.8270   29.2350 C   0  0  0  0  0  0  0  0  0  0  0  0
   38.4700   28.8580   28.3590 C   0  0  0  0  0  0  0  0  0  0  0  0
   39.2550   27.6540   28.8510 C   0  0  0  0  0  0  0  0  0  0  0  0
   38.6810   27.3340   30.2250 C   0  0  0  0  0  0  0  0  0  0  0  0
   37.5670   25.4760   33.2460 C   0  0  0  0  0  0  0  0  0  0  0  0
   37.2130   24.4380   32.6680 O   0  0  0  0  0  0  0  0  0  0  0  0
   38.8930   25.5300   33.8830 C   0  0  0  0  0  0  0  0  0  0  0  0
   39.6200   26.7300   33.7330 C   0  0  0  0  0  0  0  0  0  0  0  0
   40.8890   26.7770   34.3450 C   0  0  0  0  0  0  0  0  0  0  0  0
   41.3280   25.6780   35.0310 N   0  0  0  0  0  0  0  0  0  0  0  0
   40.5890   24.5770   35.1310 C   0  0  0  0  0  0  0  0  0  0  0  0
   39.3740   24.4510   34.5810 N   0  0  0  0  0  0  0  0  0  0  0  0
   41.0720   23.4500   35.8520 N   0  0  0  0  0  0  0  0  0  0  0  0
   42.2620   22.9090   35.5300 C   0  0  0  0  0  0  0  0  0  0  0  0
   42.6960   21.8170   36.2500 C   0  0  0  0  0  0  0  0  0  0  0  0
   41.8550   21.3760   37.2510 C   0  0  0  0  0  0  0  0  0  0  0  0
   42.2090   20.2640   38.0460 N   0  0  0  0  0  0  0  0  0  0  0  0
   40.6550   21.9310   37.5670 N   0  0  0  0  0  0  0  0  0  0  0  0
   40.2610   23.0090   36.8300 C   0  0  0  0  0  0  0  0  0  0  0  0
   39.1640   23.5500   37.0900 O   0  0  0  0  0  0  0  0  0  0  0  0
   36.5979   26.3746   31.2792 H   0  0  0  0  0  0  0  0  0  0  0  0
   35.2339   27.2648   32.1134 H   0  0  0  0  0  0  0  0  0  0  0  0
   36.0807   29.0831   31.4760 H   0  0  0  0  0  0  0  0  0  0  0  0
   37.5558   28.6232   32.5598 H   0  0  0  0  0  0  0  0  0  0  0  0
   38.4642   29.3331   30.9757 H   0  0  0  0  0  0  0  0  0  0  0  0
   36.5204   28.0399   28.9215 H   0  0  0  0  0  0  0  0  0  0  0  0
   36.6112   29.7415   29.2112 H   0  0  0  0  0  0  0  0  0  0  0  0
   39.0366   29.7889   28.5089 H   0  0  0  0  0  0  0  0  0  0  0  0
   38.2478   28.8233   27.2822 H   0  0  0  0  0  0  0  0  0  0  0  0
   39.1203   26.8014   28.1691 H   0  0  0  0  0  0  0  0  0  0  0  0
   40.3349   27.8587   28.8953 H   0  0  0  0  0  0  0  0  0  0  0  0
   38.0628   26.4249   30.1872 H   0  0  0  0  0  0  0  0  0  0  0  0
   39.4638   27.1418   30.9736 H   0  0  0  0  0  0  0  0  0  0  0  0
   39.2177   27.5839   33.1682 H   0  0  0  0  0  0  0  0  0  0  0  0
   41.5138   27.6794   34.2724 H   0  0  0  0  0  0  0  0  0  0  0  0
   42.8710   23.3270   34.7149 H   0  0  0  0  0  0  0  0  0  0  0  0
   43.6572   21.3255   36.0389 H   0  0  0  0  0  0  0  0  0  0  0  0
   41.5755   19.9412   38.7912 H   0  0  0  0  0  0  0  0  0  0  0  0
   43.1007   19.7757   37.8807 H   0  0  0  0  0  0  0  0  0  0  0  0
  2  1  1  0
  3  2  1  0
  4  3  1  0
  5  4  1  0
  6  7  1  0
  6  5  1  0
  7  8  1  0
  8  4  1  0
  9  1  1  0
  9 11  1  0
 10  9  2  0
 11 16  1  0
 12 11  2  0
 12 13  1  0
 13 14  2  0
 14 15  1  0
 15 17  1  0
 16 15  2  0
 17 23  1  0
 18 17  1  0
 18 19  2  0
 19 20  1  0
 20 22  2  0
 20 21  1  0
 23 24  2  0
 23 22  1  0
  2 25  1  0
  2 26  1  0
  3 27  1  0
  3 28  1  0
  4 29  1  0
  5 30  1  0
  5 31  1  0
  6 32  1  0
  6 33  1  0
  7 34  1  0
  7 35  1  0
  8 36  1  0
  8 37  1  0
 12 38  1  0
 13 39  1  0
 18 40  1  0
 19 41  1  0
 21 42  1  0
 21 43  1  0
M  ISO  8  25   8  26   8  27   8  28   8  29  13  30  13  31  13  32  13
M  ISO  8  33  13  34  13  35  13  36  13  37  13  38  14  39  14  40  14
M  ISO  1  41  14
M  END
>  <minimizedAffinity>  (1) 
-5.22160387

>  <minimizedRMSD>  (1) 
2.74396896

$$$$
