
     RDKit          3D

 45 47  0  0  0  0  0  0  0  0999 V2000
   37.2590   26.3450   35.3100 O   0  0  0  0  0  0  0  0  0  0  0  0
   37.0730   27.1570   34.1540 C   0  0  0  0  0  0  0  0  0  0  0  0
   36.2670   28.3580   34.4150 C   0  0  0  0  0  0  0  0  0  0  0  0
   35.8830   29.2620   33.3280 C   0  0  0  0  0  0  0  0  0  0  0  0
   34.4230   29.3140   32.9980 C   0  0  0  0  0  0  0  0  0  0  0  0
   34.4580   30.3600   31.8680 C   0  0  0  0  0  0  0  0  0  0  0  0
   35.6460   29.8800   31.0570 C   0  0  0  0  0  0  0  0  0  0  0  0
   36.4940   29.0370   31.9830 C   0  0  0  0  0  0  0  0  0  0  0  0
   37.8420   25.1000   35.0420 C   0  0  0  0  0  0  0  0  0  0  0  0
   37.8560   24.6020   33.8890 O   0  0  0  0  0  0  0  0  0  0  0  0
   38.4580   24.3480   36.1470 C   0  0  0  0  0  0  0  0  0  0  0  0
   37.7730   24.3250   37.3600 C   0  0  0  0  0  0  0  0  0  0  0  0
   38.3680   23.6050   38.4080 C   0  0  0  0  0  0  0  0  0  0  0  0
   39.5550   22.9850   38.1850 N   0  0  0  0  0  0  0  0  0  0  0  0
   40.1720   23.0370   37.0080 C   0  0  0  0  0  0  0  0  0  0  0  0
   39.6410   23.7130   35.9710 N   0  0  0  0  0  0  0  0  0  0  0  0
   43.8990   21.0670   36.3530 C   0  0  0  0  0  0  0  0  0  0  0  0
   42.8830   20.4260   37.0250 C   0  0  0  0  0  0  0  0  0  0  0  0
   41.6820   21.0740   37.2310 C   0  0  0  0  0  0  0  0  0  0  0  0
   41.4480   22.3640   36.7830 C   0  0  0  0  0  0  0  0  0  0  0  0
   42.4990   22.9600   36.1170 C   0  0  0  0  0  0  0  0  0  0  0  0
   43.7180   22.3530   35.8870 C   0  0  0  0  0  0  0  0  0  0  0  0
   45.4910   20.3960   36.0020 S   0  0  0  0  0  0  0  0  0  0  0  0
   45.5670   20.1240   34.5360 O   0  0  0  0  0  0  0  0  0  0  0  0
   45.6810   19.2050   36.8620 O   0  0  0  0  0  0  0  0  0  0  0  0
   36.5675   26.5572   33.3828 H   0  0  0  0  0  0  0  0  0  0  0  0
   38.0677   27.4948   33.8277 H   0  0  0  0  0  0  0  0  0  0  0  0
   35.3314   28.0117   34.8785 H   0  0  0  0  0  0  0  0  0  0  0  0
   36.9475   28.9791   35.0159 H   0  0  0  0  0  0  0  0  0  0  0  0
   36.2632   30.1792   33.8016 H   0  0  0  0  0  0  0  0  0  0  0  0
   34.0464   28.3421   32.6466 H   0  0  0  0  0  0  0  0  0  0  0  0
   33.7596   29.5562   33.8413 H   0  0  0  0  0  0  0  0  0  0  0  0
   33.5319   30.3432   31.2746 H   0  0  0  0  0  0  0  0  0  0  0  0
   34.5415   31.3994   32.2182 H   0  0  0  0  0  0  0  0  0  0  0  0
   35.3031   29.2770   30.2033 H   0  0  0  0  0  0  0  0  0  0  0  0
   36.2208   30.7287   30.6579 H   0  0  0  0  0  0  0  0  0  0  0  0
   36.4436   27.9746   31.7023 H   0  0  0  0  0  0  0  0  0  0  0  0
   37.5597   29.3076   31.9488 H   0  0  0  0  0  0  0  0  0  0  0  0
   36.8128   24.8456   37.4902 H   0  0  0  0  0  0  0  0  0  0  0  0
   37.8811   23.5443   39.3925 H   0  0  0  0  0  0  0  0  0  0  0  0
   43.0278   19.4008   37.3965 H   0  0  0  0  0  0  0  0  0  0  0  0
   40.8813   20.5470   37.7706 H   0  0  0  0  0  0  0  0  0  0  0  0
   42.3568   23.9854   35.7450 H   0  0  0  0  0  0  0  0  0  0  0  0
   44.5203   22.8788   35.3486 H   0  0  0  0  0  0  0  0  0  0  0  0
   46.5184   21.2556   36.2891 H   0  0  0  0  0  0  0  0  0  0  0  0
  2  3  1  0
  2  1  1  0
  4  3  1  0
  5  4  1  0
  6  5  1  0
  7  6  1  0
  7  8  1  0
  8  4  1  0
  9  1  1  0
  9 11  1  0
 10  9  2  0
 11 12  2  0
 12 13  1  0
 14 13  2  0
 15 14  1  0
 16 11  1  0
 16 15  2  0
 17 18  2  0
 18 19  1  0
 20 15  1  0
 20 19  2  0
 21 20  1  0
 22 21  2  0
 22 17  1  0
 23 17  1  0
 23 25  2  0
 24 23  2  0
  2 26  1  0
  2 27  1  0
  3 28  1  0
  3 29  1  0
  4 30  1  0
  5 31  1  0
  5 32  1  0
  6 33  1  0
  6 34  1  0
  7 35  1  0
  7 36  1  0
  8 37  1  0
  8 38  1  0
 12 39  1  0
 13 40  1  0
 18 41  1  0
 19 42  1  0
 21 43  1  0
 22 44  1  0
 23 45  1  0
M  ISO  8  26   8  27   8  28   8  29   8  30  13  31  13  32  13  33  13
M  ISO  8  34  13  35  13  36  13  37  13  38  13  39  14  40  14  41  14
M  ISO  4  42  14  43  14  44  14  45  11
M  END
>  <minimizedAffinity>  (1) 
-5.10284138

>  <minimizedRMSD>  (1) 
2.21581531

$$$$
