
     RDKit          3D

 47 49  0  0  0  0  0  0  0  0999 V2000
   37.0510   26.2760   33.2320 C   0  0  0  0  0  0  0  0  0  0  0  0
   36.8270   27.7180   33.1520 C   0  0  0  0  0  0  0  0  0  0  0  0
   37.0900   28.4650   31.9010 C   0  0  0  0  0  0  0  0  0  0  0  0
   35.9850   29.3840   31.4770 C   0  0  0  0  0  0  0  0  0  0  0  0
   36.6190   29.9510   30.1940 C   0  0  0  0  0  0  0  0  0  0  0  0
   37.1530   28.6900   29.5490 C   0  0  0  0  0  0  0  0  0  0  0  0
   37.3390   27.6830   30.6690 C   0  0  0  0  0  0  0  0  0  0  0  0
   37.4580   25.8250   34.5200 O   0  0  0  0  0  0  0  0  0  0  0  0
   37.9910   24.5170   34.5210 C   0  0  0  0  0  0  0  0  0  0  0  0
   37.9960   23.8190   33.4980 O   0  0  0  0  0  0  0  0  0  0  0  0
   38.5470   23.9820   35.7640 C   0  0  0  0  0  0  0  0  0  0  0  0
   37.7400   24.0090   36.8960 C   0  0  0  0  0  0  0  0  0  0  0  0
   38.2580   23.5010   38.0960 C   0  0  0  0  0  0  0  0  0  0  0  0
   39.5140   23.0120   38.0810 N   0  0  0  0  0  0  0  0  0  0  0  0
   40.2710   22.9980   36.9750 C   0  0  0  0  0  0  0  0  0  0  0  0
   39.8030   23.4780   35.8100 N   0  0  0  0  0  0  0  0  0  0  0  0
   41.6100   22.4650   37.0030 N   0  0  0  0  0  0  0  0  0  0  0  0
   42.7450   23.2890   36.6640 C   0  0  0  0  0  0  0  0  0  0  0  0
   43.8880   22.5690   36.0450 C   0  0  0  0  0  0  0  0  0  0  0  0
   43.5380   21.1660   35.6290 C   0  0  0  0  0  0  0  0  0  0  0  0
   43.0520   20.4620   36.8770 C   0  0  0  0  0  0  0  0  0  0  0  0
   41.7970   21.0830   37.3800 C   0  0  0  0  0  0  0  0  0  0  0  0
   37.8337   26.0065   32.5076 H   0  0  0  0  0  0  0  0  0  0  0  0
   36.0880   25.7911   33.0139 H   0  0  0  0  0  0  0  0  0  0  0  0
   35.7676   27.8834   33.3975 H   0  0  0  0  0  0  0  0  0  0  0  0
   37.5898   28.1183   33.8361 H   0  0  0  0  0  0  0  0  0  0  0  0
   38.0046   28.9787   32.2320 H   0  0  0  0  0  0  0  0  0  0  0  0
   35.0524   28.8388   31.2696 H   0  0  0  0  0  0  0  0  0  0  0  0
   35.6804   30.1322   32.2236 H   0  0  0  0  0  0  0  0  0  0  0  0
   35.8692   30.4433   29.5572 H   0  0  0  0  0  0  0  0  0  0  0  0
   37.3800   30.7255   30.3702 H   0  0  0  0  0  0  0  0  0  0  0  0
   36.4348   28.3076   28.8087 H   0  0  0  0  0  0  0  0  0  0  0  0
   38.0997   28.8810   29.0225 H   0  0  0  0  0  0  0  0  0  0  0  0
   36.6168   26.8584   30.5770 H   0  0  0  0  0  0  0  0  0  0  0  0
   38.3357   27.2177   30.6579 H   0  0  0  0  0  0  0  0  0  0  0  0
   36.7202   24.4188   36.8513 H   0  0  0  0  0  0  0  0  0  0  0  0
   37.6593   23.5015   39.0188 H   0  0  0  0  0  0  0  0  0  0  0  0
   42.4061   24.0607   35.9572 H   0  0  0  0  0  0  0  0  0  0  0  0
   43.1202   23.6971   37.6141 H   0  0  0  0  0  0  0  0  0  0  0  0
   44.2151   23.1278   35.1558 H   0  0  0  0  0  0  0  0  0  0  0  0
   44.6845   22.5010   36.8006 H   0  0  0  0  0  0  0  0  0  0  0  0
   42.7449   21.1813   34.8670 H   0  0  0  0  0  0  0  0  0  0  0  0
   44.4055   20.6505   35.1912 H   0  0  0  0  0  0  0  0  0  0  0  0
   42.8622   19.4040   36.6433 H   0  0  0  0  0  0  0  0  0  0  0  0
   43.8249   20.5500   37.6547 H   0  0  0  0  0  0  0  0  0  0  0  0
   41.8038   21.0261   38.4785 H   0  0  0  0  0  0  0  0  0  0  0  0
   40.9693   20.5227   36.9207 H   0  0  0  0  0  0  0  0  0  0  0  0
  1  8  1  0
  2  1  1  0
  3  2  1  0
  4  3  1  0
  5  4  1  0
  6  5  1  0
  6  7  1  0
  7  3  1  0
  8  9  1  0
  9 11  1  0
 10  9  2  0
 11 16  1  0
 11 12  2  0
 12 13  1  0
 14 13  2  0
 15 17  1  0
 15 14  1  0
 16 15  2  0
 17 22  1  0
 18 17  1  0
 19 18  1  0
 20 19  1  0
 20 21  1  0
 21 22  1  0
  1 23  1  0
  1 24  1  0
  2 25  1  0
  2 26  1  0
  3 27  1  0
  4 28  1  0
  4 29  1  0
  5 30  1  0
  5 31  1  0
  6 32  1  0
  6 33  1  0
  7 34  1  0
  7 35  1  0
 12 36  1  0
 13 37  1  0
 18 38  1  0
 18 39  1  0
 19 40  1  0
 19 41  1  0
 20 42  1  0
 20 43  1  0
 21 44  1  0
 21 45  1  0
 22 46  1  0
 22 47  1  0
M  ISO  8  23   8  24   8  25   8  26   8  27  13  28  13  29  13  30  13
M  ISO  8  31  13  32  13  33  13  34  13  35  13  36  14  37  14  38  13
M  ISO  8  39  13  40  13  41  13  42  13  43  13  44  13  45  13  46  13
M  ISO  1  47  13
M  END
>  <minimizedAffinity>  (1) 
-5.06214714

>  <minimizedRMSD>  (1) 
1.08762622

$$$$
