
     RDKit          3D

 39 41  0  0  0  0  0  0  0  0999 V2000
   37.5070   26.1290   35.1770 C   0  0  0  0  0  0  0  0  0  0  0  0
   38.0990   24.7790   35.2370 C   0  0  0  0  0  0  0  0  0  0  0  0
   38.7490   24.2880   36.4520 C   0  0  0  0  0  0  0  0  0  0  0  0
   39.2430   22.8780   36.4040 C   0  0  0  0  0  0  0  0  0  0  0  0
   39.8590   22.7870   37.8170 C   0  0  0  0  0  0  0  0  0  0  0  0
   38.7490   23.4110   38.6560 C   0  0  0  0  0  0  0  0  0  0  0  0
   37.9670   24.3170   37.7240 C   0  0  0  0  0  0  0  0  0  0  0  0
   37.8710   26.8650   34.0230 O   0  0  0  0  0  0  0  0  0  0  0  0
   36.8540   27.0550   33.0860 C   0  0  0  0  0  0  0  0  0  0  0  0
   36.4460   26.1140   32.3880 O   0  0  0  0  0  0  0  0  0  0  0  0
   36.2660   28.3860   32.9300 C   0  0  0  0  0  0  0  0  0  0  0  0
   36.1370   28.8940   31.6360 C   0  0  0  0  0  0  0  0  0  0  0  0
   35.5690   30.1770   31.5120 C   0  0  0  0  0  0  0  0  0  0  0  0
   35.1800   30.8440   32.6400 N   0  0  0  0  0  0  0  0  0  0  0  0
   35.3270   30.3080   33.8370 C   0  0  0  0  0  0  0  0  0  0  0  0
   35.8610   29.0920   34.0370 N   0  0  0  0  0  0  0  0  0  0  0  0
   34.9470   30.9420   35.0560 N   0  0  0  0  0  0  0  0  0  0  0  0
   35.6810   31.7140   35.8480 N   0  0  0  0  0  0  0  0  0  0  0  0
   34.9540   32.1200   36.9060 C   0  0  0  0  0  0  0  0  0  0  0  0
   33.6880   31.5550   36.7450 C   0  0  0  0  0  0  0  0  0  0  0  0
   33.7100   30.8170   35.5700 C   0  0  0  0  0  0  0  0  0  0  0  0
   36.4118   26.0278   35.1919 H   0  0  0  0  0  0  0  0  0  0  0  0
   37.8919   26.6850   36.0446 H   0  0  0  0  0  0  0  0  0  0  0  0
   37.2867   24.0725   35.0112 H   0  0  0  0  0  0  0  0  0  0  0  0
   38.9390   24.8550   34.5308 H   0  0  0  0  0  0  0  0  0  0  0  0
   39.5574   25.0339   36.4659 H   0  0  0  0  0  0  0  0  0  0  0  0
   38.4227   22.1585   36.2650 H   0  0  0  0  0  0  0  0  0  0  0  0
   39.9273   22.6454   35.5747 H   0  0  0  0  0  0  0  0  0  0  0  0
   40.0488   21.7436   38.1090 H   0  0  0  0  0  0  0  0  0  0  0  0
   40.8373   23.2795   37.9189 H   0  0  0  0  0  0  0  0  0  0  0  0
   38.0935   22.6272   39.0636 H   0  0  0  0  0  0  0  0  0  0  0  0
   39.1601   23.9733   39.5074 H   0  0  0  0  0  0  0  0  0  0  0  0
   37.9130   25.3392   38.1266 H   0  0  0  0  0  0  0  0  0  0  0  0
   36.9260   23.9883   37.5887 H   0  0  0  0  0  0  0  0  0  0  0  0
   36.4631   28.3202   30.7560 H   0  0  0  0  0  0  0  0  0  0  0  0
   35.4402   30.6361   30.5207 H   0  0  0  0  0  0  0  0  0  0  0  0
   35.2898   32.7662   37.7304 H   0  0  0  0  0  0  0  0  0  0  0  0
   32.8308   31.6729   37.4242 H   0  0  0  0  0  0  0  0  0  0  0  0
   32.8767   30.2409   35.1415 H   0  0  0  0  0  0  0  0  0  0  0  0
  1  2  1  0
  2  3  1  0
  3  7  1  0
  4  3  1  0
  4  5  1  0
  5  6  1  0
  7  6  1  0
  8  1  1  0
  9  8  1  0
 10  9  2  0
 11  9  1  0
 11 16  1  0
 12 11  2  0
 13 12  1  0
 13 14  2  0
 14 15  1  0
 15 16  2  0
 15 17  1  0
 17 21  1  0
 17 18  1  0
 18 19  2  0
 20 19  1  0
 21 20  2  0
  1 22  1  0
  1 23  1  0
  2 24  1  0
  2 25  1  0
  3 26  1  0
  4 27  1  0
  4 28  1  0
  5 29  1  0
  5 30  1  0
  6 31  1  0
  6 32  1  0
  7 33  1  0
  7 34  1  0
 12 35  1  0
 13 36  1  0
 19 37  1  0
 20 38  1  0
 21 39  1  0
M  ISO  8  22   8  23   8  24   8  25   8  26  13  27  13  28  13  29  13
M  ISO  8  30  13  31  13  32  13  33  13  34  13  35  14  36  14  37  14
M  ISO  2  38  14  39  14
M  END
>  <minimizedAffinity>  (1) 
-5.22121429

>  <minimizedRMSD>  (1) 
8.90758419

$$$$
