
     RDKit          3D

 42 44  0  0  0  0  0  0  0  0999 V2000
   37.4420   27.4900   35.0400 C   0  0  0  0  0  0  0  0  0  0  0  0
   36.3980   28.2590   34.3410 C   0  0  0  0  0  0  0  0  0  0  0  0
   36.5570   28.6520   32.9410 C   0  0  0  0  0  0  0  0  0  0  0  0
   35.3610   29.2490   32.2730 C   0  0  0  0  0  0  0  0  0  0  0  0
   35.9620   29.5300   30.8870 C   0  0  0  0  0  0  0  0  0  0  0  0
   36.7040   28.2400   30.6140 C   0  0  0  0  0  0  0  0  0  0  0  0
   36.9600   27.6000   31.9620 C   0  0  0  0  0  0  0  0  0  0  0  0
   37.0410   26.1720   35.3830 O   0  0  0  0  0  0  0  0  0  0  0  0
   37.9810   25.1800   35.0600 C   0  0  0  0  0  0  0  0  0  0  0  0
   38.3320   24.9670   33.8870 O   0  0  0  0  0  0  0  0  0  0  0  0
   38.5630   24.3760   36.1490 C   0  0  0  0  0  0  0  0  0  0  0  0
   37.8280   24.2660   37.3270 C   0  0  0  0  0  0  0  0  0  0  0  0
   38.4130   23.4870   38.3540 C   0  0  0  0  0  0  0  0  0  0  0  0
   39.6120   22.9090   38.1540 N   0  0  0  0  0  0  0  0  0  0  0  0
   40.2720   23.0490   37.0030 C   0  0  0  0  0  0  0  0  0  0  0  0
   39.7660   23.7740   35.9970 N   0  0  0  0  0  0  0  0  0  0  0  0
   41.5700   22.4270   36.7780 C   0  0  0  0  0  0  0  0  0  0  0  0
   42.6010   23.2070   36.2970 C   0  0  0  0  0  0  0  0  0  0  0  0
   43.8420   22.6410   36.0740 C   0  0  0  0  0  0  0  0  0  0  0  0
   44.0610   21.3060   36.3290 C   0  0  0  0  0  0  0  0  0  0  0  0
   43.0580   20.4970   36.8090 C   0  0  0  0  0  0  0  0  0  0  0  0
   41.8150   21.0740   37.0290 C   0  0  0  0  0  0  0  0  0  0  0  0
   37.7082   28.0244   35.9639 H   0  0  0  0  0  0  0  0  0  0  0  0
   38.2938   27.3996   34.3499 H   0  0  0  0  0  0  0  0  0  0  0  0
   35.4790   27.6567   34.3935 H   0  0  0  0  0  0  0  0  0  0  0  0
   36.4197   29.2255   34.8657 H   0  0  0  0  0  0  0  0  0  0  0  0
   37.3638   29.3767   33.1252 H   0  0  0  0  0  0  0  0  0  0  0  0
   34.5224   28.5390   32.2209 H   0  0  0  0  0  0  0  0  0  0  0  0
   34.9264   30.1221   32.7818 H   0  0  0  0  0  0  0  0  0  0  0  0
   35.1772   29.7088   30.1372 H   0  0  0  0  0  0  0  0  0  0  0  0
   36.5945   30.4290   30.8458 H   0  0  0  0  0  0  0  0  0  0  0  0
   36.0922   27.5747   29.9871 H   0  0  0  0  0  0  0  0  0  0  0  0
   37.6453   28.4277   30.0767 H   0  0  0  0  0  0  0  0  0  0  0  0
   36.3490   26.6939   32.0874 H   0  0  0  0  0  0  0  0  0  0  0  0
   38.0050   27.2807   32.0885 H   0  0  0  0  0  0  0  0  0  0  0  0
   36.8508   24.7555   37.4519 H   0  0  0  0  0  0  0  0  0  0  0  0
   37.8895   23.3545   39.3123 H   0  0  0  0  0  0  0  0  0  0  0  0
   42.4362   24.2750   36.0918 H   0  0  0  0  0  0  0  0  0  0  0  0
   44.6630   23.2635   35.6889 H   0  0  0  0  0  0  0  0  0  0  0  0
   45.0576   20.8782   36.1452 H   0  0  0  0  0  0  0  0  0  0  0  0
   43.2345   19.4303   37.0114 H   0  0  0  0  0  0  0  0  0  0  0  0
   40.9970   20.4468   37.4130 H   0  0  0  0  0  0  0  0  0  0  0  0
  1  8  1  0
  2  1  1  0
  3  2  1  0
  4  3  1  0
  5  4  1  0
  6  5  1  0
  6  7  1  0
  7  3  1  0
  9  8  1  0
  9 11  1  0
 10  9  2  0
 11 12  2  0
 12 13  1  0
 14 13  2  0
 15 14  1  0
 16 11  1  0
 16 15  2  0
 17 15  1  0
 17 22  1  0
 18 17  2  0
 19 18  1  0
 19 20  2  0
 20 21  1  0
 21 22  2  0
  1 23  1  0
  1 24  1  0
  2 25  1  0
  2 26  1  0
  3 27  1  0
  4 28  1  0
  4 29  1  0
  5 30  1  0
  5 31  1  0
  6 32  1  0
  6 33  1  0
  7 34  1  0
  7 35  1  0
 12 36  1  0
 13 37  1  0
 18 38  1  0
 19 39  1  0
 20 40  1  0
 21 41  1  0
 22 42  1  0
M  ISO  8  23   8  24   8  25   8  26   8  27  13  28  13  29  13  30  13
M  ISO  8  31  13  32  13  33  13  34  13  35  13  36  14  37  14  38  14
M  ISO  4  39  14  40  14  41  14  42  14
M  END
>  <minimizedAffinity>  (1) 
-5.17088079

>  <minimizedRMSD>  (1) 
1.62886381

$$$$
