
     RDKit          3D

 40 42  0  0  0  0  0  0  0  0999 V2000
   37.0570   27.1680   34.1420 C   0  0  0  0  0  0  0  0  0  0  0  0
   36.2600   28.3750   34.3960 C   0  0  0  0  0  0  0  0  0  0  0  0
   35.8860   29.2850   33.3110 C   0  0  0  0  0  0  0  0  0  0  0  0
   34.4140   29.3380   32.9880 C   0  0  0  0  0  0  0  0  0  0  0  0
   34.4490   30.3610   31.8570 C   0  0  0  0  0  0  0  0  0  0  0  0
   35.6500   29.9020   31.0380 C   0  0  0  0  0  0  0  0  0  0  0  0
   36.5000   29.0690   31.9750 C   0  0  0  0  0  0  0  0  0  0  0  0
   37.2320   26.3490   35.2950 O   0  0  0  0  0  0  0  0  0  0  0  0
   37.8360   25.1090   35.0330 C   0  0  0  0  0  0  0  0  0  0  0  0
   37.8730   24.6260   33.8770 O   0  0  0  0  0  0  0  0  0  0  0  0
   38.4420   24.3520   36.1290 C   0  0  0  0  0  0  0  0  0  0  0  0
   37.7260   24.3240   37.3420 C   0  0  0  0  0  0  0  0  0  0  0  0
   38.2980   23.5990   38.4010 C   0  0  0  0  0  0  0  0  0  0  0  0
   39.4800   22.9810   38.2000 N   0  0  0  0  0  0  0  0  0  0  0  0
   40.1210   23.0350   37.0320 C   0  0  0  0  0  0  0  0  0  0  0  0
   39.6270   23.7140   35.9720 N   0  0  0  0  0  0  0  0  0  0  0  0
   41.3990   22.3600   36.8310 C   0  0  0  0  0  0  0  0  0  0  0  0
   42.4930   23.0090   36.2720 C   0  0  0  0  0  0  0  0  0  0  0  0
   43.7170   22.4140   36.0640 C   0  0  0  0  0  0  0  0  0  0  0  0
   43.8850   21.1240   36.4170 N   0  0  0  0  0  0  0  0  0  0  0  0
   42.8310   20.4880   36.9590 C   0  0  0  0  0  0  0  0  0  0  0  0
   41.6210   21.0770   37.1650 N   0  0  0  0  0  0  0  0  0  0  0  0
   36.5515   26.5739   33.3664 H   0  0  0  0  0  0  0  0  0  0  0  0
   38.0569   27.5010   33.8271 H   0  0  0  0  0  0  0  0  0  0  0  0
   35.3197   28.0356   34.8550 H   0  0  0  0  0  0  0  0  0  0  0  0
   36.9461   28.9906   34.9963 H   0  0  0  0  0  0  0  0  0  0  0  0
   36.2721   30.2029   33.7783 H   0  0  0  0  0  0  0  0  0  0  0  0
   34.0315   28.3636   32.6500 H   0  0  0  0  0  0  0  0  0  0  0  0
   33.7554   29.5911   33.8319 H   0  0  0  0  0  0  0  0  0  0  0  0
   33.5248   30.3276   31.2613 H   0  0  0  0  0  0  0  0  0  0  0  0
   34.5271   31.4009   32.2070 H   0  0  0  0  0  0  0  0  0  0  0  0
   35.3195   29.2963   30.1813 H   0  0  0  0  0  0  0  0  0  0  0  0
   36.2134   30.7565   30.6350 H   0  0  0  0  0  0  0  0  0  0  0  0
   36.4621   28.0058   31.6952 H   0  0  0  0  0  0  0  0  0  0  0  0
   37.5619   29.3545   31.9476 H   0  0  0  0  0  0  0  0  0  0  0  0
   36.7640   24.8454   37.4548 H   0  0  0  0  0  0  0  0  0  0  0  0
   37.7915   23.5366   39.3755 H   0  0  0  0  0  0  0  0  0  0  0  0
   42.3739   24.0622   35.9778 H   0  0  0  0  0  0  0  0  0  0  0  0
   44.5454   22.9828   35.6165 H   0  0  0  0  0  0  0  0  0  0  0  0
   42.9533   19.4347   37.2517 H   0  0  0  0  0  0  0  0  0  0  0  0
  1  2  1  0
  1  8  1  0
  3  2  1  0
  4  3  1  0
  5  4  1  0
  6  5  1  0
  6  7  1  0
  7  3  1  0
  9  8  1  0
  9 11  1  0
 10  9  2  0
 11 12  2  0
 12 13  1  0
 14 13  2  0
 15 14  1  0
 16 11  1  0
 16 15  2  0
 17 15  1  0
 17 22  1  0
 18 17  2  0
 19 18  1  0
 19 20  2  0
 20 21  1  0
 21 22  2  0
  1 23  1  0
  1 24  1  0
  2 25  1  0
  2 26  1  0
  3 27  1  0
  4 28  1  0
  4 29  1  0
  5 30  1  0
  5 31  1  0
  6 32  1  0
  6 33  1  0
  7 34  1  0
  7 35  1  0
 12 36  1  0
 13 37  1  0
 18 38  1  0
 19 39  1  0
 21 40  1  0
M  ISO  8  23   8  24   8  25   8  26   8  27  13  28  13  29  13  30  13
M  ISO  8  31  13  32  13  33  13  34  13  35  13  36  14  37  14  38  14
M  ISO  2  39  14  40  14
M  END
>  <minimizedAffinity>  (1) 
-4.84273815

>  <minimizedRMSD>  (1) 
1.84604442

$$$$
