
     RDKit          3D

 39 41  0  0  0  0  0  0  0  0999 V2000
   37.0720   26.3110   33.3750 C   0  0  0  0  0  0  0  0  0  0  0  0
   36.7850   27.7400   33.2670 C   0  0  0  0  0  0  0  0  0  0  0  0
   37.0230   28.4610   32.0070 C   0  0  0  0  0  0  0  0  0  0  0  0
   35.9260   29.3960   31.5660 C   0  0  0  0  0  0  0  0  0  0  0  0
   36.5540   29.9370   30.2800 C   0  0  0  0  0  0  0  0  0  0  0  0
   37.0920   28.6720   29.6430 C   0  0  0  0  0  0  0  0  0  0  0  0
   37.2580   27.6670   30.7640 C   0  0  0  0  0  0  0  0  0  0  0  0
   37.4530   25.9050   34.6900 O   0  0  0  0  0  0  0  0  0  0  0  0
   38.0190   24.6290   34.7630 C   0  0  0  0  0  0  0  0  0  0  0  0
   38.1610   23.9210   33.7360 O   0  0  0  0  0  0  0  0  0  0  0  0
   38.4600   24.0980   36.0610 C   0  0  0  0  0  0  0  0  0  0  0  0
   37.7380   24.4880   37.1850 C   0  0  0  0  0  0  0  0  0  0  0  0
   38.1550   23.9830   38.4260 C   0  0  0  0  0  0  0  0  0  0  0  0
   39.2240   23.1560   38.4620 N   0  0  0  0  0  0  0  0  0  0  0  0
   39.8800   22.8150   37.3570 C   0  0  0  0  0  0  0  0  0  0  0  0
   39.5270   23.2670   36.1340 N   0  0  0  0  0  0  0  0  0  0  0  0
   41.0520   21.9030   37.4300 C   0  0  0  0  0  0  0  0  0  0  0  0
   41.7430   21.4570   36.1760 C   0  0  0  0  0  0  0  0  0  0  0  0
   42.3760   22.5620   36.9620 C   0  0  0  0  0  0  0  0  0  0  0  0
   37.8923   26.0673   32.6838 H   0  0  0  0  0  0  0  0  0  0  0  0
   36.1443   25.7747   33.1265 H   0  0  0  0  0  0  0  0  0  0  0  0
   35.7180   27.8649   33.5037 H   0  0  0  0  0  0  0  0  0  0  0  0
   37.5209   28.1900   33.9496 H   0  0  0  0  0  0  0  0  0  0  0  0
   37.9413   28.9645   32.3435 H   0  0  0  0  0  0  0  0  0  0  0  0
   34.9854   28.8606   31.3692 H   0  0  0  0  0  0  0  0  0  0  0  0
   35.6388   30.1602   32.3032 H   0  0  0  0  0  0  0  0  0  0  0  0
   35.8016   30.4197   29.6390 H   0  0  0  0  0  0  0  0  0  0  0  0
   37.3173   30.7110   30.4480 H   0  0  0  0  0  0  0  0  0  0  0  0
   36.3825   28.2920   28.8932 H   0  0  0  0  0  0  0  0  0  0  0  0
   38.0468   28.8586   29.1296 H   0  0  0  0  0  0  0  0  0  0  0  0
   36.5198   26.8565   30.6736 H   0  0  0  0  0  0  0  0  0  0  0  0
   38.2463   27.1841   30.7535 H   0  0  0  0  0  0  0  0  0  0  0  0
   36.8749   25.1651   37.1038 H   0  0  0  0  0  0  0  0  0  0  0  0
   37.6234   24.2542   39.3500 H   0  0  0  0  0  0  0  0  0  0  0  0
   40.6649   21.3579   38.3035 H   0  0  0  0  0  0  0  0  0  0  0  0
   41.2894   21.6765   35.1982 H   0  0  0  0  0  0  0  0  0  0  0  0
   42.0974   20.4844   35.8040 H   0  0  0  0  0  0  0  0  0  0  0  0
   43.3092   22.3823   37.5160 H   0  0  0  0  0  0  0  0  0  0  0  0
   42.7073   23.5883   36.7453 H   0  0  0  0  0  0  0  0  0  0  0  0
  1  8  1  0
  2  1  1  0
  3  2  1  0
  4  3  1  0
  5  4  1  0
  6  5  1  0
  6  7  1  0
  7  3  1  0
  8  9  1  0
  9 11  1  0
 10  9  2  0
 11 16  1  0
 11 12  2  0
 12 13  1  0
 13 14  2  0
 15 17  1  0
 15 14  1  0
 16 15  2  0
 18 19  1  0
 18 17  1  0
 19 17  1  0
  1 20  1  0
  1 21  1  0
  2 22  1  0
  2 23  1  0
  3 24  1  0
  4 25  1  0
  4 26  1  0
  5 27  1  0
  5 28  1  0
  6 29  1  0
  6 30  1  0
  7 31  1  0
  7 32  1  0
 12 33  1  0
 13 34  1  0
 17 35  1  0
 18 36  1  0
 18 37  1  0
 19 38  1  0
 19 39  1  0
M  ISO  8  20   8  21   8  22   8  23   8  24  13  25  13  26  13  27  13
M  ISO  8  28  13  29  13  30  13  31  13  32  13  33  14  34  14  35  13
M  ISO  4  36  13  37  13  38  13  39  13
M  END
>  <minimizedAffinity>  (1) 
-4.59313965

>  <minimizedRMSD>  (1) 
0.861905992

$$$$
