
     RDKit          3D

 39 41  0  0  0  0  0  0  0  0999 V2000
   37.0270   26.3410   33.2740 C   0  0  0  0  0  0  0  0  0  0  0  0
   36.8020   27.7820   33.1780 C   0  0  0  0  0  0  0  0  0  0  0  0
   37.0620   28.4960   31.9170 C   0  0  0  0  0  0  0  0  0  0  0  0
   35.9800   29.4450   31.4850 C   0  0  0  0  0  0  0  0  0  0  0  0
   36.6080   29.9680   30.1930 C   0  0  0  0  0  0  0  0  0  0  0  0
   37.1450   28.6910   29.5570 C   0  0  0  0  0  0  0  0  0  0  0  0
   37.2930   27.6920   30.6870 C   0  0  0  0  0  0  0  0  0  0  0  0
   37.4760   25.9170   34.5680 O   0  0  0  0  0  0  0  0  0  0  0  0
   37.9720   24.5990   34.5660 C   0  0  0  0  0  0  0  0  0  0  0  0
   37.9960   23.8830   33.5320 O   0  0  0  0  0  0  0  0  0  0  0  0
   38.4820   24.0330   35.8150 C   0  0  0  0  0  0  0  0  0  0  0  0
   37.8100   24.3880   36.9910 C   0  0  0  0  0  0  0  0  0  0  0  0
   38.2890   23.8400   38.1890 C   0  0  0  0  0  0  0  0  0  0  0  0
   39.3600   23.0070   38.1430 N   0  0  0  0  0  0  0  0  0  0  0  0
   39.9720   22.6940   36.9940 C   0  0  0  0  0  0  0  0  0  0  0  0
   39.5460   23.1990   35.8160 N   0  0  0  0  0  0  0  0  0  0  0  0
   41.1260   21.8010   36.9120 C   0  0  0  0  0  0  0  0  0  0  0  0
   41.9070   21.0460   37.7650 C   0  0  0  0  0  0  0  0  0  0  0  0
   42.8520   20.4390   36.9470 C   0  0  0  0  0  0  0  0  0  0  0  0
   42.5990   20.8550   35.6380 C   0  0  0  0  0  0  0  0  0  0  0  0
   41.5550   21.6710   35.6660 O   0  0  0  0  0  0  0  0  0  0  0  0
   37.7873   26.0571   32.5314 H   0  0  0  0  0  0  0  0  0  0  0  0
   36.0601   25.8497   33.0901 H   0  0  0  0  0  0  0  0  0  0  0  0
   35.7437   27.9530   33.4247 H   0  0  0  0  0  0  0  0  0  0  0  0
   37.5603   28.1969   33.8583 H   0  0  0  0  0  0  0  0  0  0  0  0
   37.9906   28.9894   32.2400 H   0  0  0  0  0  0  0  0  0  0  0  0
   35.0285   28.9256   31.2983 H   0  0  0  0  0  0  0  0  0  0  0  0
   35.7108   30.2163   32.2216 H   0  0  0  0  0  0  0  0  0  0  0  0
   35.8559   30.4483   29.5498 H   0  0  0  0  0  0  0  0  0  0  0  0
   37.3768   30.7378   30.3555 H   0  0  0  0  0  0  0  0  0  0  0  0
   36.4388   28.3133   28.8029 H   0  0  0  0  0  0  0  0  0  0  0  0
   38.1034   28.8672   29.0468 H   0  0  0  0  0  0  0  0  0  0  0  0
   36.5454   26.8899   30.5991 H   0  0  0  0  0  0  0  0  0  0  0  0
   38.2751   27.1965   30.6856 H   0  0  0  0  0  0  0  0  0  0  0  0
   36.9446   25.0668   36.9755 H   0  0  0  0  0  0  0  0  0  0  0  0
   37.8064   24.0803   39.1478 H   0  0  0  0  0  0  0  0  0  0  0  0
   41.8033   20.9467   38.8556 H   0  0  0  0  0  0  0  0  0  0  0  0
   43.6518   19.7567   37.2707 H   0  0  0  0  0  0  0  0  0  0  0  0
   43.1654   20.5582   34.7430 H   0  0  0  0  0  0  0  0  0  0  0  0
  1  8  1  0
  2  1  1  0
  3  2  1  0
  4  3  1  0
  5  4  1  0
  6  5  1  0
  6  7  1  0
  7  3  1  0
  9  8  1  0
  9 11  1  0
 10  9  2  0
 11 16  1  0
 11 12  2  0
 12 13  1  0
 14 13  2  0
 15 14  1  0
 16 15  2  0
 17 15  1  0
 17 18  2  0
 19 18  1  0
 20 21  1  0
 20 19  2  0
 21 17  1  0
  1 22  1  0
  1 23  1  0
  2 24  1  0
  2 25  1  0
  3 26  1  0
  4 27  1  0
  4 28  1  0
  5 29  1  0
  5 30  1  0
  6 31  1  0
  6 32  1  0
  7 33  1  0
  7 34  1  0
 12 35  1  0
 13 36  1  0
 18 37  1  0
 19 38  1  0
 20 39  1  0
M  ISO  8  22   8  23   8  24   8  25   8  26  13  27  13  28  13  29  13
M  ISO  8  30  13  31  13  32  13  33  13  34  13  35  14  36  14  37  14
M  ISO  2  38  14  39  14
M  END
>  <minimizedAffinity>  (1) 
-4.73464012

>  <minimizedRMSD>  (1) 
0.84918189

$$$$
