
     RDKit          3D

 20 21  0  0  0  0  0  0  0  0999 V2000
   41.2040   22.0990   36.6330 C   0  0  0  0  0  0  0  0  0  0  0  0
   40.4380   22.6670   37.6790 C   0  0  0  0  0  0  0  0  0  0  0  0
   39.1310   23.0400   37.3740 C   0  0  0  0  0  0  0  0  0  0  0  0
   38.6550   22.8490   36.1220 N   0  0  0  0  0  0  0  0  0  0  0  0
   39.4370   22.2950   35.1470 C   0  0  0  0  0  0  0  0  0  0  0  0
   40.6900   21.9290   35.4080 N   0  0  0  0  0  0  0  0  0  0  0  0
   38.3780   23.6250   38.4940 C   0  0  0  0  0  0  0  0  0  0  0  0
   37.9530   24.8970   38.1420 F   0  0  0  0  0  0  0  0  0  0  0  0
   39.2860   23.8050   39.5260 F   0  0  0  0  0  0  0  0  0  0  0  0
   37.2900   22.9030   38.8720 F   0  0  0  0  0  0  0  0  0  0  0  0
   38.8200   22.1320   33.8200 C   0  0  0  0  0  0  0  0  0  0  0  0
   37.7740   23.1210   33.4030 C   0  0  0  0  0  0  0  0  0  0  0  0
   37.3890   21.6630   33.6990 C   0  0  0  0  0  0  0  0  0  0  0  0
   42.2415   21.7913   36.8301 H   0  0  0  0  0  0  0  0  0  0  0  0
   40.8558   22.8075   38.6868 H   0  0  0  0  0  0  0  0  0  0  0  0
   39.7714   21.7750   33.3988 H   0  0  0  0  0  0  0  0  0  0  0  0
   37.7526   23.4975   32.3697 H   0  0  0  0  0  0  0  0  0  0  0  0
   37.4416   24.1044   33.7669 H   0  0  0  0  0  0  0  0  0  0  0  0
   36.8098   21.4162   34.6010 H   0  0  0  0  0  0  0  0  0  0  0  0
   36.8698   20.8625   33.1517 H   0  0  0  0  0  0  0  0  0  0  0  0
  1  2  2  0
  3  2  1  0
  3  7  1  0
  4  3  2  0
  5  6  2  0
  5  4  1  0
  6  1  1  0
  7 10  1  0
  7  9  1  0
  8  7  1  0
 11  5  1  0
 12 13  1  0
 12 11  1  0
 13 11  1  0
  1 14  1  0
  2 15  1  0
 11 16  1  0
 12 17  1  0
 12 18  1  0
 13 19  1  0
 13 20  1  0
M  ISO  7  14  14  15  14  16  13  17  13  18  13  19  13  20  13
M  END
>  <minimizedAffinity>  (1) 
-4.12962866

>  <minimizedRMSD>  (1) 
0.262449026

$$$$
