
     RDKit          3D

 43 45  0  0  0  0  0  0  0  0999 V2000
   38.3680   25.0400   33.5100 C   0  0  0  0  0  0  0  0  0  0  0  0
   37.1440   25.7790   33.2290 C   0  0  0  0  0  0  0  0  0  0  0  0
   37.1890   26.9870   32.3640 C   0  0  0  0  0  0  0  0  0  0  0  0
   36.2220   26.9510   31.2170 C   0  0  0  0  0  0  0  0  0  0  0  0
   36.5650   28.2660   30.5340 C   0  0  0  0  0  0  0  0  0  0  0  0
   38.0800   28.3570   30.6680 C   0  0  0  0  0  0  0  0  0  0  0  0
   38.4760   27.2920   31.6770 C   0  0  0  0  0  0  0  0  0  0  0  0
   38.8070   25.1260   34.8670 O   0  0  0  0  0  0  0  0  0  0  0  0
   39.6150   26.2330   35.1310 C   0  0  0  0  0  0  0  0  0  0  0  0
   39.1670   27.2320   35.7210 O   0  0  0  0  0  0  0  0  0  0  0  0
   41.0150   26.2140   34.7030 C   0  0  0  0  0  0  0  0  0  0  0  0
   41.4620   27.2320   33.8770 C   0  0  0  0  0  0  0  0  0  0  0  0
   42.8110   27.2040   33.4700 C   0  0  0  0  0  0  0  0  0  0  0  0
   43.5840   26.1840   33.9120 N   0  0  0  0  0  0  0  0  0  0  0  0
   43.1260   25.2270   34.7000 C   0  0  0  0  0  0  0  0  0  0  0  0
   41.8460   25.2120   35.1140 N   0  0  0  0  0  0  0  0  0  0  0  0
   44.1240   23.8700   35.2940 S   0  0  0  0  0  0  0  0  0  0  0  0
   44.9960   24.5130   36.7380 C   0  0  0  0  0  0  0  0  0  0  0  0
   44.3570   25.3820   37.6300 C   0  0  0  0  0  0  0  0  0  0  0  0
   44.9870   25.8960   38.7450 C   0  0  0  0  0  0  0  0  0  0  0  0
   46.2920   25.5520   39.0020 C   0  0  0  0  0  0  0  0  0  0  0  0
   46.9310   24.6940   38.1260 C   0  0  0  0  0  0  0  0  0  0  0  0
   46.3190   24.1690   37.0070 C   0  0  0  0  0  0  0  0  0  0  0  0
   39.1656   25.4356   32.8639 H   0  0  0  0  0  0  0  0  0  0  0  0
   38.1481   23.9798   33.3161 H   0  0  0  0  0  0  0  0  0  0  0  0
   36.4484   25.0725   32.7525 H   0  0  0  0  0  0  0  0  0  0  0  0
   36.8595   26.1817   34.2123 H   0  0  0  0  0  0  0  0  0  0  0  0
   36.9635   27.7415   33.1320 H   0  0  0  0  0  0  0  0  0  0  0  0
   36.4042   26.0897   30.5574 H   0  0  0  0  0  0  0  0  0  0  0  0
   35.1663   26.8434   31.5068 H   0  0  0  0  0  0  0  0  0  0  0  0
   36.0748   29.1107   31.0402 H   0  0  0  0  0  0  0  0  0  0  0  0
   36.2261   28.3048   29.4882 H   0  0  0  0  0  0  0  0  0  0  0  0
   38.5618   28.1628   29.6984 H   0  0  0  0  0  0  0  0  0  0  0  0
   38.3961   29.3587   30.9945 H   0  0  0  0  0  0  0  0  0  0  0  0
   38.8767   26.3998   31.1736 H   0  0  0  0  0  0  0  0  0  0  0  0
   39.2682   27.6203   32.3659 H   0  0  0  0  0  0  0  0  0  0  0  0
   40.7863   28.0359   33.5495 H   0  0  0  0  0  0  0  0  0  0  0  0
   43.2226   27.9855   32.8144 H   0  0  0  0  0  0  0  0  0  0  0  0
   43.3124   25.6662   37.4347 H   0  0  0  0  0  0  0  0  0  0  0  0
   44.4488   26.5754   39.4223 H   0  0  0  0  0  0  0  0  0  0  0  0
   46.8160   25.9497   39.8836 H   0  0  0  0  0  0  0  0  0  0  0  0
   47.9757   24.4173   38.3310 H   0  0  0  0  0  0  0  0  0  0  0  0
   46.8668   23.4895   36.3376 H   0  0  0  0  0  0  0  0  0  0  0  0
  1  8  1  0
  2  1  1  0
  3  2  1  0
  4  3  1  0
  5  6  1  0
  5  4  1  0
  6  7  1  0
  7  3  1  0
  8  9  1  0
  9 10  2  0
 11 16  1  0
 11  9  1  0
 12 11  2  0
 13 12  1  0
 13 14  2  0
 14 15  1  0
 15 16  2  0
 15 17  1  0
 17 18  1  0
 18 23  1  0
 18 19  2  0
 19 20  1  0
 20 21  2  0
 22 21  1  0
 23 22  2  0
  1 24  1  0
  1 25  1  0
  2 26  1  0
  2 27  1  0
  3 28  1  0
  4 29  1  0
  4 30  1  0
  5 31  1  0
  5 32  1  0
  6 33  1  0
  6 34  1  0
  7 35  1  0
  7 36  1  0
 12 37  1  0
 13 38  1  0
 19 39  1  0
 20 40  1  0
 21 41  1  0
 22 42  1  0
 23 43  1  0
M  ISO  8  24   8  25   8  26   8  27   8  28  13  29  13  30  13  31  13
M  ISO  8  32  13  33  13  34  13  35  13  36  13  37  14  38  14  39  14
M  ISO  4  40  14  41  14  42  14  43  14
M  END
>  <minimizedAffinity>  (1) 
-4.99429131

>  <minimizedRMSD>  (1) 
3.51963925

$$$$
