
     RDKit          3D

 40 42  0  0  0  0  0  0  0  0999 V2000
   37.0210   26.3960   33.4070 C   0  0  0  0  0  0  0  0  0  0  0  0
   36.7740   27.8240   33.2840 C   0  0  0  0  0  0  0  0  0  0  0  0
   37.0300   28.4980   31.9880 C   0  0  0  0  0  0  0  0  0  0  0  0
   35.9910   29.5180   31.6070 C   0  0  0  0  0  0  0  0  0  0  0  0
   36.5610   29.9800   30.2680 C   0  0  0  0  0  0  0  0  0  0  0  0
   37.0790   28.6980   29.6450 C   0  0  0  0  0  0  0  0  0  0  0  0
   37.1190   27.6660   30.7590 C   0  0  0  0  0  0  0  0  0  0  0  0
   37.4080   25.9800   34.7220 O   0  0  0  0  0  0  0  0  0  0  0  0
   38.0260   24.7160   34.7440 C   0  0  0  0  0  0  0  0  0  0  0  0
   38.2360   24.0710   33.7060 O   0  0  0  0  0  0  0  0  0  0  0  0
   38.4290   24.1590   36.0380 C   0  0  0  0  0  0  0  0  0  0  0  0
   37.6970   24.5090   37.1580 C   0  0  0  0  0  0  0  0  0  0  0  0
   38.1080   23.9630   38.3940 C   0  0  0  0  0  0  0  0  0  0  0  0
   39.1930   23.1310   38.4100 N   0  0  0  0  0  0  0  0  0  0  0  0
   39.8570   22.8280   37.3140 C   0  0  0  0  0  0  0  0  0  0  0  0
   39.4840   23.3320   36.1390 N   0  0  0  0  0  0  0  0  0  0  0  0
   41.2670   21.7580   37.3430 S   0  0  0  0  0  0  0  0  0  0  0  0
   42.4830   22.0550   36.0840 C   0  0  0  0  0  0  0  0  0  0  0  0
   43.5190   23.0920   36.4300 C   0  0  0  0  0  0  0  0  0  0  0  0
   43.8900   21.6730   36.1430 C   0  0  0  0  0  0  0  0  0  0  0  0
   37.8252   26.1231   32.7078 H   0  0  0  0  0  0  0  0  0  0  0  0
   36.0711   25.8894   33.1810 H   0  0  0  0  0  0  0  0  0  0  0  0
   35.7136   27.9879   33.5265 H   0  0  0  0  0  0  0  0  0  0  0  0
   37.5142   28.2747   33.9615 H   0  0  0  0  0  0  0  0  0  0  0  0
   38.0174   28.9115   32.2411 H   0  0  0  0  0  0  0  0  0  0  0  0
   34.9951   29.0650   31.4934 H   0  0  0  0  0  0  0  0  0  0  0  0
   35.8302   30.3173   32.3454 H   0  0  0  0  0  0  0  0  0  0  0  0
   35.7780   30.4332   29.6423 H   0  0  0  0  0  0  0  0  0  0  0  0
   37.3391   30.7501   30.3754 H   0  0  0  0  0  0  0  0  0  0  0  0
   36.4045   28.3654   28.8422 H   0  0  0  0  0  0  0  0  0  0  0  0
   38.0746   28.8442   29.2007 H   0  0  0  0  0  0  0  0  0  0  0  0
   36.2672   26.9737   30.6875 H   0  0  0  0  0  0  0  0  0  0  0  0
   38.0163   27.0304   30.7295 H   0  0  0  0  0  0  0  0  0  0  0  0
   36.8313   25.1841   37.0891 H   0  0  0  0  0  0  0  0  0  0  0  0
   37.5679   24.2015   39.3221 H   0  0  0  0  0  0  0  0  0  0  0  0
   41.7234   21.8513   35.3149 H   0  0  0  0  0  0  0  0  0  0  0  0
   43.7695   23.8871   35.7124 H   0  0  0  0  0  0  0  0  0  0  0  0
   43.6823   23.7975   37.2580 H   0  0  0  0  0  0  0  0  0  0  0  0
   44.2468   21.0260   36.9579 H   0  0  0  0  0  0  0  0  0  0  0  0
   44.5854   21.1851   35.4442 H   0  0  0  0  0  0  0  0  0  0  0  0
  1  8  1  0
  2  1  1  0
  3  2  1  0
  4  3  1  0
  5  4  1  0
  6  5  1  0
  6  7  1  0
  7  3  1  0
  8  9  1  0
  9 11  1  0
 10  9  2  0
 11 16  1  0
 11 12  2  0
 12 13  1  0
 13 14  2  0
 15 17  1  0
 15 14  1  0
 16 15  2  0
 18 20  1  0
 18 19  1  0
 18 17  1  0
 20 19  1  0
  1 21  1  0
  1 22  1  0
  2 23  1  0
  2 24  1  0
  3 25  1  0
  4 26  1  0
  4 27  1  0
  5 28  1  0
  5 29  1  0
  6 30  1  0
  6 31  1  0
  7 32  1  0
  7 33  1  0
 12 34  1  0
 13 35  1  0
 18 36  1  0
 19 37  1  0
 19 38  1  0
 20 39  1  0
 20 40  1  0
M  ISO  8  21   8  22   8  23   8  24   8  25  13  26  13  27  13  28  13
M  ISO  8  29  13  30  13  31  13  32  13  33  13  34  14  35  14  36  13
M  ISO  4  37  13  38  13  39  13  40  13
M  END
>  <minimizedAffinity>  (1) 
-4.48749161

>  <minimizedRMSD>  (1) 
0.641814053

$$$$
