
     RDKit          3D

 41 43  0  0  0  0  0  0  0  0999 V2000
   41.0360   24.9050   34.5060 C   0  0  0  0  0  0  0  0  0  0  0  0
   42.2130   24.5530   35.2750 C   0  0  0  0  0  0  0  0  0  0  0  0
   42.1450   23.4570   36.2730 C   0  0  0  0  0  0  0  0  0  0  0  0
   42.8480   22.2010   35.8120 C   0  0  0  0  0  0  0  0  0  0  0  0
   42.5270   21.2780   36.9780 C   0  0  0  0  0  0  0  0  0  0  0  0
   41.0940   21.6160   37.3210 C   0  0  0  0  0  0  0  0  0  0  0  0
   40.8130   22.9600   36.6950 C   0  0  0  0  0  0  0  0  0  0  0  0
   40.3890   26.1060   34.9790 O   0  0  0  0  0  0  0  0  0  0  0  0
   38.9980   25.9020   35.1540 C   0  0  0  0  0  0  0  0  0  0  0  0
   38.4790   25.6290   36.2750 O   0  0  0  0  0  0  0  0  0  0  0  0
   38.1410   26.0150   33.9860 C   0  0  0  0  0  0  0  0  0  0  0  0
   37.6740   24.8670   33.3780 C   0  0  0  0  0  0  0  0  0  0  0  0
   36.8340   24.9820   32.2560 C   0  0  0  0  0  0  0  0  0  0  0  0
   36.5280   26.2220   31.8340 N   0  0  0  0  0  0  0  0  0  0  0  0
   36.9840   27.3020   32.4300 C   0  0  0  0  0  0  0  0  0  0  0  0
   37.7900   27.2140   33.5030 N   0  0  0  0  0  0  0  0  0  0  0  0
   36.5710   28.9550   31.8990 S   0  0  0  0  0  0  0  0  0  0  0  0
   35.0810   29.4830   32.7490 C   0  0  0  0  0  0  0  0  0  0  0  0
   34.9030   29.3790   34.0970 C   0  0  0  0  0  0  0  0  0  0  0  0
   33.7540   29.7850   34.7530 C   0  0  0  0  0  0  0  0  0  0  0  0
   32.7700   30.3070   34.0270 N   0  0  0  0  0  0  0  0  0  0  0  0
   32.9240   30.4190   32.6960 C   0  0  0  0  0  0  0  0  0  0  0  0
   34.0520   30.0170   32.0660 N   0  0  0  0  0  0  0  0  0  0  0  0
   40.3178   24.0739   34.5650 H   0  0  0  0  0  0  0  0  0  0  0  0
   41.3634   25.0938   33.4729 H   0  0  0  0  0  0  0  0  0  0  0  0
   42.9942   24.2763   34.5517 H   0  0  0  0  0  0  0  0  0  0  0  0
   42.3897   25.4467   35.8915 H   0  0  0  0  0  0  0  0  0  0  0  0
   42.6174   23.9786   37.1185 H   0  0  0  0  0  0  0  0  0  0  0  0
   42.4323   21.8239   34.8660 H   0  0  0  0  0  0  0  0  0  0  0  0
   43.9200   22.3215   35.5970 H   0  0  0  0  0  0  0  0  0  0  0  0
   42.6204   20.2232   36.6801 H   0  0  0  0  0  0  0  0  0  0  0  0
   43.2114   21.4130   37.8285 H   0  0  0  0  0  0  0  0  0  0  0  0
   40.4145   20.8550   36.9097 H   0  0  0  0  0  0  0  0  0  0  0  0
   40.9397   21.6426   38.4098 H   0  0  0  0  0  0  0  0  0  0  0  0
   40.3571   23.6426   37.4272 H   0  0  0  0  0  0  0  0  0  0  0  0
   40.1061   22.8914   35.8550 H   0  0  0  0  0  0  0  0  0  0  0  0
   37.9549   23.8766   33.7655 H   0  0  0  0  0  0  0  0  0  0  0  0
   36.4420   24.0915   31.7428 H   0  0  0  0  0  0  0  0  0  0  0  0
   35.7184   28.9482   34.6966 H   0  0  0  0  0  0  0  0  0  0  0  0
   33.6576   29.6789   35.8436 H   0  0  0  0  0  0  0  0  0  0  0  0
   32.1067   30.8513   32.1001 H   0  0  0  0  0  0  0  0  0  0  0  0
  1  8  1  0
  1  2  1  0
  2  3  1  0
  3  7  1  0
  4  3  1  0
  4  5  1  0
  5  6  1  0
  7  6  1  0
  8  9  1  0
  9 10  2  0
 11  9  1  0
 12 11  2  0
 13 12  1  0
 14 13  2  0
 14 15  1  0
 15 16  2  0
 16 11  1  0
 17 15  1  0
 17 18  1  0
 18 19  2  0
 19 20  1  0
 21 20  2  0
 22 21  1  0
 23 22  2  0
 23 18  1  0
  1 24  1  0
  1 25  1  0
  2 26  1  0
  2 27  1  0
  3 28  1  0
  4 29  1  0
  4 30  1  0
  5 31  1  0
  5 32  1  0
  6 33  1  0
  6 34  1  0
  7 35  1  0
  7 36  1  0
 12 37  1  0
 13 38  1  0
 19 39  1  0
 20 40  1  0
 22 41  1  0
M  ISO  8  24   8  25   8  26   8  27   8  28  13  29  13  30  13  31  13
M  ISO  8  32  13  33  13  34  13  35  13  36  13  37  14  38  14  39  14
M  ISO  2  40  14  41  14
M  END
>  <minimizedAffinity>  (1) 
-4.2218914

>  <minimizedRMSD>  (1) 
9.33964825

$$$$
