
     RDKit          3D

 15 15  0  0  0  0  0  0  0  0999 V2000
   41.1830   22.1070   36.6450 C   0  0  0  0  0  0  0  0  0  0  0  0
   40.4290   22.6730   37.6960 C   0  0  0  0  0  0  0  0  0  0  0  0
   39.1100   23.0540   37.4060 C   0  0  0  0  0  0  0  0  0  0  0  0
   38.6390   22.8610   36.1560 N   0  0  0  0  0  0  0  0  0  0  0  0
   39.4050   22.3110   35.1750 C   0  0  0  0  0  0  0  0  0  0  0  0
   40.6630   21.9360   35.4120 N   0  0  0  0  0  0  0  0  0  0  0  0
   38.3770   23.6310   38.5220 C   0  0  0  0  0  0  0  0  0  0  0  0
   37.9350   24.8870   38.1860 F   0  0  0  0  0  0  0  0  0  0  0  0
   39.2840   23.8100   39.5550 F   0  0  0  0  0  0  0  0  0  0  0  0
   37.3010   22.8770   38.9270 F   0  0  0  0  0  0  0  0  0  0  0  0
   38.8480   22.1250   33.8440 C   0  0  0  0  0  0  0  0  0  0  0  0
   37.7390   21.5670   33.6470 O   0  0  0  0  0  0  0  0  0  0  0  0
   42.2211   21.7975   36.8365 H   0  0  0  0  0  0  0  0  0  0  0  0
   40.8575   22.8095   38.6999 H   0  0  0  0  0  0  0  0  0  0  0  0
   39.4194   22.4867   32.9764 H   0  0  0  0  0  0  0  0  0  0  0  0
  1  2  2  0
  3  2  1  0
  3  7  1  0
  4  3  2  0
  5  6  2  0
  5  4  1  0
  6  1  1  0
  7 10  1  0
  7  9  1  0
  8  7  1  0
 11  5  1  0
 12 11  2  0
  1 13  1  0
  2 14  1  0
 11 15  1  0
M  ISO  3  13  14  14  14  15   6
M  END
>  <minimizedAffinity>  (1) 
-3.92498302

>  <minimizedRMSD>  (1) 
0.139374375

$$$$
