
     RDKit          3D

 47 49  0  0  0  0  0  0  0  0999 V2000
   37.8810   24.5940   34.7000 C   0  0  0  0  0  0  0  0  0  0  0  0
   37.8380   23.8580   33.6670 O   0  0  0  0  0  0  0  0  0  0  0  0
   38.4310   24.0330   35.9270 C   0  0  0  0  0  0  0  0  0  0  0  0
   37.7140   24.2270   37.1140 C   0  0  0  0  0  0  0  0  0  0  0  0
   38.2280   23.6930   38.3080 C   0  0  0  0  0  0  0  0  0  0  0  0
   39.3970   23.0170   38.2400 N   0  0  0  0  0  0  0  0  0  0  0  0
   40.0370   22.8570   37.1130 C   0  0  0  0  0  0  0  0  0  0  0  0
   39.5970   23.3450   35.9290 N   0  0  0  0  0  0  0  0  0  0  0  0
   41.6040   21.9620   36.9620 S   0  0  0  0  0  0  0  0  0  0  0  0
   42.3080   22.4700   35.3600 C   0  0  0  0  0  0  0  0  0  0  0  0
   43.3580   23.4310   35.6850 N   0  0  0  0  0  0  0  0  0  0  0  0
   44.5340   22.9560   36.1620 C   0  0  0  0  0  0  0  0  0  0  0  0
   45.6090   23.7660   36.5060 C   0  0  0  0  0  0  0  0  0  0  0  0
   45.4130   25.1240   36.3330 C   0  0  0  0  0  0  0  0  0  0  0  0
   46.5280   25.9420   36.6920 N   0  0  0  0  0  0  0  0  0  0  0  0
   44.2430   25.5940   35.8590 N   0  0  0  0  0  0  0  0  0  0  0  0
   43.2230   24.7770   35.5350 C   0  0  0  0  0  0  0  0  0  0  0  0
   42.1360   25.2080   35.0940 O   0  0  0  0  0  0  0  0  0  0  0  0
   37.4160   25.9220   34.6970 O   0  0  0  0  0  0  0  0  0  0  0  0
   37.0440   26.3460   33.3660 C   0  0  0  0  0  0  0  0  0  0  0  0
   36.8070   27.7790   33.2780 C   0  0  0  0  0  0  0  0  0  0  0  0
   37.0640   28.4700   31.9980 C   0  0  0  0  0  0  0  0  0  0  0  0
   36.0230   29.5140   31.6600 C   0  0  0  0  0  0  0  0  0  0  0  0
   36.5040   29.9750   30.3250 C   0  0  0  0  0  0  0  0  0  0  0  0
   37.0600   28.7190   29.6720 C   0  0  0  0  0  0  0  0  0  0  0  0
   37.0390   27.6500   30.7370 C   0  0  0  0  0  0  0  0  0  0  0  0
   36.7669   24.7865   37.1119 H   0  0  0  0  0  0  0  0  0  0  0  0
   37.6983   23.8204   39.2636 H   0  0  0  0  0  0  0  0  0  0  0  0
   41.5366   22.9404   34.7325 H   0  0  0  0  0  0  0  0  0  0  0  0
   42.6999   21.6115   34.7948 H   0  0  0  0  0  0  0  0  0  0  0  0
   44.6436   21.8683   36.2836 H   0  0  0  0  0  0  0  0  0  0  0  0
   46.5538   23.3543   36.8906 H   0  0  0  0  0  0  0  0  0  0  0  0
   46.4683   26.9656   36.5947 H   0  0  0  0  0  0  0  0  0  0  0  0
   47.3916   25.5081   37.0482 H   0  0  0  0  0  0  0  0  0  0  0  0
   37.8555   26.0804   32.6725 H   0  0  0  0  0  0  0  0  0  0  0  0
   36.1038   25.8375   33.1063 H   0  0  0  0  0  0  0  0  0  0  0  0
   35.7490   27.9467   33.5281 H   0  0  0  0  0  0  0  0  0  0  0  0
   37.5490   28.2118   33.9651 H   0  0  0  0  0  0  0  0  0  0  0  0
   38.0749   28.8411   32.2225 H   0  0  0  0  0  0  0  0  0  0  0  0
   35.0164   29.0750   31.5970 H   0  0  0  0  0  0  0  0  0  0  0  0
   35.9250   30.3149   32.4077 H   0  0  0  0  0  0  0  0  0  0  0  0
   35.6738   30.3873   29.7327 H   0  0  0  0  0  0  0  0  0  0  0  0
   37.2540   30.7760   30.4020 H   0  0  0  0  0  0  0  0  0  0  0  0
   36.4314   28.4214   28.8198 H   0  0  0  0  0  0  0  0  0  0  0  0
   38.0772   28.8827   29.2866 H   0  0  0  0  0  0  0  0  0  0  0  0
   36.1257   27.0401   30.6741 H   0  0  0  0  0  0  0  0  0  0  0  0
   37.8652   26.9279   30.6592 H   0  0  0  0  0  0  0  0  0  0  0  0
  1  3  1  0
  2  1  2  0
  3  8  1  0
  3  4  2  0
  4  5  1  0
  6  5  2  0
  7  6  1  0
  8  7  2  0
  9  7  1  0
 10 11  1  0
 10  9  1  0
 11 12  1  0
 12 13  2  0
 14 13  1  0
 14 15  1  0
 16 14  2  0
 17 11  1  0
 17 16  1  0
 18 17  2  0
 19  1  1  0
 20 19  1  0
 21 20  1  0
 22 21  1  0
 23 22  1  0
 24 23  1  0
 25 24  1  0
 25 26  1  0
 26 22  1  0
  4 27  1  0
  5 28  1  0
 10 29  1  0
 10 30  1  0
 12 31  1  0
 13 32  1  0
 15 33  1  0
 15 34  1  0
 20 35  1  0
 20 36  1  0
 21 37  1  0
 21 38  1  0
 22 39  1  0
 23 40  1  0
 23 41  1  0
 24 42  1  0
 24 43  1  0
 25 44  1  0
 25 45  1  0
 26 46  1  0
 26 47  1  0
M  ISO  8  27  14  28  14  29   8  30   8  31  14  32  14  35   8  36   8
M  ISO  8  37   8  38   8  39  13  40  13  41  13  42  13  43  13  44  13
M  ISO  3  45  13  46  13  47  13
M  END
>  <minimizedAffinity>  (1) 
-4.90550089

>  <minimizedRMSD>  (1) 
2.9339447

$$$$
