
     RDKit          3D

 41 43  0  0  0  0  0  0  0  0999 V2000
   37.5950   25.7540   34.6930 O   0  0  0  0  0  0  0  0  0  0  0  0
   37.1170   26.2060   33.4200 C   0  0  0  0  0  0  0  0  0  0  0  0
   36.8610   27.6420   33.3620 C   0  0  0  0  0  0  0  0  0  0  0  0
   37.0710   28.3690   32.0930 C   0  0  0  0  0  0  0  0  0  0  0  0
   36.0470   29.4450   31.8440 C   0  0  0  0  0  0  0  0  0  0  0  0
   36.4070   29.9000   30.4720 C   0  0  0  0  0  0  0  0  0  0  0  0
   37.0010   28.6780   29.7740 C   0  0  0  0  0  0  0  0  0  0  0  0
   36.9560   27.5790   30.8110 C   0  0  0  0  0  0  0  0  0  0  0  0
   38.0400   24.4200   34.6530 C   0  0  0  0  0  0  0  0  0  0  0  0
   37.8620   23.6930   33.6480 O   0  0  0  0  0  0  0  0  0  0  0  0
   38.7240   23.8700   35.8040 C   0  0  0  0  0  0  0  0  0  0  0  0
   38.0450   23.8430   37.0390 C   0  0  0  0  0  0  0  0  0  0  0  0
   38.6920   23.3130   38.1650 C   0  0  0  0  0  0  0  0  0  0  0  0
   39.9660   22.8470   37.9910 N   0  0  0  0  0  0  0  0  0  0  0  0
   40.5600   22.8890   36.8320 C   0  0  0  0  0  0  0  0  0  0  0  0
   39.9840   23.3860   35.7220 N   0  0  0  0  0  0  0  0  0  0  0  0
   42.2410   22.2810   36.5730 S   0  0  0  0  0  0  0  0  0  0  0  0
   42.3600   20.7220   37.5460 C   0  0  0  0  0  0  0  0  0  0  0  0
   42.8400   19.6940   36.5870 C   0  0  0  0  0  0  0  0  0  0  0  0
   43.0540   18.3860   36.9100 N   0  0  0  0  0  0  0  0  0  0  0  0
   43.4730   17.7310   35.8590 O   0  0  0  0  0  0  0  0  0  0  0  0
   43.5420   18.5820   34.8380 C   0  0  0  0  0  0  0  0  0  0  0  0
   43.1550   19.8070   35.2630 N   0  0  0  0  0  0  0  0  0  0  0  0
   37.8707   25.9572   32.6584 H   0  0  0  0  0  0  0  0  0  0  0  0
   36.1556   25.7021   33.2418 H   0  0  0  0  0  0  0  0  0  0  0  0
   35.8086   27.7908   33.6453 H   0  0  0  0  0  0  0  0  0  0  0  0
   37.6232   28.0669   34.0317 H   0  0  0  0  0  0  0  0  0  0  0  0
   38.1003   28.7136   32.2710 H   0  0  0  0  0  0  0  0  0  0  0  0
   35.0249   29.0397   31.8758 H   0  0  0  0  0  0  0  0  0  0  0  0
   36.0549   30.2485   32.5952 H   0  0  0  0  0  0  0  0  0  0  0  0
   35.5120   30.2501   29.9368 H   0  0  0  0  0  0  0  0  0  0  0  0
   37.1176   30.7393   30.4959 H   0  0  0  0  0  0  0  0  0  0  0  0
   36.4004   28.4047   28.8939 H   0  0  0  0  0  0  0  0  0  0  0  0
   38.0226   28.8638   29.4109 H   0  0  0  0  0  0  0  0  0  0  0  0
   36.0082   27.0225   30.7657 H   0  0  0  0  0  0  0  0  0  0  0  0
   37.7347   26.8122   30.6856 H   0  0  0  0  0  0  0  0  0  0  0  0
   37.0196   24.2331   37.1188 H   0  0  0  0  0  0  0  0  0  0  0  0
   38.1960   23.2738   39.1460 H   0  0  0  0  0  0  0  0  0  0  0  0
   43.0743   20.8389   38.3743 H   0  0  0  0  0  0  0  0  0  0  0  0
   41.3943   20.4445   37.9937 H   0  0  0  0  0  0  0  0  0  0  0  0
   43.8614   18.3306   33.8158 H   0  0  0  0  0  0  0  0  0  0  0  0
  2  1  1  0
  3  2  1  0
  4  3  1  0
  5  4  1  0
  6  5  1  0
  7  6  1  0
  7  8  1  0
  8  4  1  0
  9  1  1  0
  9 11  1  0
 10  9  2  0
 11 12  2  0
 12 13  1  0
 14 13  2  0
 15 14  1  0
 16 11  1  0
 16 15  2  0
 17 15  1  0
 17 18  1  0
 19 20  2  0
 19 18  1  0
 21 20  1  0
 22 23  2  0
 22 21  1  0
 23 19  1  0
  2 24  1  0
  2 25  1  0
  3 26  1  0
  3 27  1  0
  4 28  1  0
  5 29  1  0
  5 30  1  0
  6 31  1  0
  6 32  1  0
  7 33  1  0
  7 34  1  0
  8 35  1  0
  8 36  1  0
 12 37  1  0
 13 38  1  0
 18 39  1  0
 18 40  1  0
 22 41  1  0
M  ISO  8  24   8  25   8  26   8  27   8  28  13  29  13  30  13  31  13
M  ISO  8  32  13  33  13  34  13  35  13  36  13  37  14  38  14  39   8
M  ISO  2  40   8  41  14
M  END
>  <minimizedAffinity>  (1) 
-4.24059868

>  <minimizedRMSD>  (1) 
1.08424544

$$$$
