
     RDKit          3D

 36 38  0  0  0  0  0  0  0  0999 V2000
   39.5430   22.2650   35.7290 C   0  0  0  0  0  0  0  0  0  0  0  0
   40.4860   21.5050   36.4310 C   0  0  0  0  0  0  0  0  0  0  0  0
   40.4100   21.9300   37.7060 N   0  0  0  0  0  0  0  0  0  0  0  0
   39.5010   22.8940   37.8720 C   0  0  0  0  0  0  0  0  0  0  0  0
   39.0810   23.6180   38.9730 C   0  0  0  0  0  0  0  0  0  0  0  0
   38.0960   24.5780   38.8450 C   0  0  0  0  0  0  0  0  0  0  0  0
   37.5400   24.8030   37.6120 C   0  0  0  0  0  0  0  0  0  0  0  0
   37.9380   24.0920   36.4800 C   0  0  0  0  0  0  0  0  0  0  0  0
   38.9350   23.1230   36.6210 C   0  0  0  0  0  0  0  0  0  0  0  0
   40.0100   22.2440   32.0980 C   0  0  0  0  0  0  0  0  0  0  0  0
   38.7450   21.8890   31.6160 C   0  0  0  0  0  0  0  0  0  0  0  0
   37.7280   21.6560   32.5660 C   0  0  0  0  0  0  0  0  0  0  0  0
   38.0530   21.7960   33.8840 N   0  0  0  0  0  0  0  0  0  0  0  0
   39.2840   22.1390   34.3060 C   0  0  0  0  0  0  0  0  0  0  0  0
   40.2640   22.3650   33.4250 N   0  0  0  0  0  0  0  0  0  0  0  0
   36.3550   21.2730   32.1270 C   0  0  0  0  0  0  0  0  0  0  0  0
   36.4030   20.3520   30.9070 C   0  0  0  0  0  0  0  0  0  0  0  0
   35.5740   20.6150   33.2190 C   0  0  0  0  0  0  0  0  0  0  0  0
   35.6500   22.5360   31.6280 C   0  0  0  0  0  0  0  0  0  0  0  0
   41.1486   20.7257   36.0265 H   0  0  0  0  0  0  0  0  0  0  0  0
   40.9893   21.5530   38.4696 H   0  0  0  0  0  0  0  0  0  0  0  0
   39.5343   23.4281   39.9571 H   0  0  0  0  0  0  0  0  0  0  0  0
   37.7622   25.1542   39.7205 H   0  0  0  0  0  0  0  0  0  0  0  0
   36.7558   25.5679   37.5125 H   0  0  0  0  0  0  0  0  0  0  0  0
   37.4784   24.2892   35.5003 H   0  0  0  0  0  0  0  0  0  0  0  0
   40.8221   22.4304   31.3798 H   0  0  0  0  0  0  0  0  0  0  0  0
   38.5509   21.7952   30.5373 H   0  0  0  0  0  0  0  0  0  0  0  0
   36.4576   19.3050   31.2399 H   0  0  0  0  0  0  0  0  0  0  0  0
   35.4961   20.4975   30.3018 H   0  0  0  0  0  0  0  0  0  0  0  0
   37.2899   20.5910   30.3018 H   0  0  0  0  0  0  0  0  0  0  0  0
   35.9617   20.9417   34.1952 H   0  0  0  0  0  0  0  0  0  0  0  0
   34.5141   20.8965   33.1326 H   0  0  0  0  0  0  0  0  0  0  0  0
   35.6715   19.5227   33.1326 H   0  0  0  0  0  0  0  0  0  0  0  0
   35.3162   23.1340   32.4888 H   0  0  0  0  0  0  0  0  0  0  0  0
   36.3477   23.1288   31.0182 H   0  0  0  0  0  0  0  0  0  0  0  0
   34.7792   22.2532   31.0182 H   0  0  0  0  0  0  0  0  0  0  0  0
  1  2  2  0
  1  9  1  0
  2  3  1  0
  3  4  1  0
  4  5  2  0
  6  5  1  0
  7  6  2  0
  8  9  2  0
  8  7  1  0
  9  4  1  0
 10 15  2  0
 11 10  1  0
 11 12  2  0
 12 13  1  0
 13 14  2  0
 14  1  1  0
 15 14  1  0
 16 12  1  0
 16 18  1  0
 17 16  1  0
 19 16  1  0
  2 20  1  0
  3 21  1  0
  5 22  1  0
  6 23  1  0
  7 24  1  0
  8 25  1  0
 10 26  1  0
 11 27  1  0
 17 28  1  0
 17 29  1  0
 17 30  1  0
 18 31  1  0
 18 32  1  0
 18 33  1  0
 19 34  1  0
 19 35  1  0
 19 36  1  0
M  ISO  8  20  14  21   9  22  14  23  14  24  14  25  14  26  14  27  14
M  ISO  8  28   8  29   8  30   8  31   8  32   8  33   8  34   8  35   8
M  ISO  1  36   8
M  END
>  <minimizedAffinity>  (1) 
-5.16710854

>  <minimizedRMSD>  (1) 
6.07596397

$$$$
