
     RDKit          3D

 31 34  0  0  0  0  0  0  0  0999 V2000
   39.0880   22.2500   34.5450 C   0  0  0  0  0  0  0  0  0  0  0  0
   40.4320   21.9480   34.4800 C   0  0  0  0  0  0  0  0  0  0  0  0
   40.9210   22.1500   35.7140 N   0  0  0  0  0  0  0  0  0  0  0  0
   39.9610   22.5660   36.5700 C   0  0  0  0  0  0  0  0  0  0  0  0
   39.9860   22.8950   37.9130 C   0  0  0  0  0  0  0  0  0  0  0  0
   38.8250   23.3010   38.5510 C   0  0  0  0  0  0  0  0  0  0  0  0
   37.6530   23.3700   37.8260 C   0  0  0  0  0  0  0  0  0  0  0  0
   37.6010   23.0450   36.4730 C   0  0  0  0  0  0  0  0  0  0  0  0
   38.7840   22.6350   35.8340 C   0  0  0  0  0  0  0  0  0  0  0  0
   36.5810   23.1730   32.0400 C   0  0  0  0  0  0  0  0  0  0  0  0
   36.4140   21.9910   31.2950 C   0  0  0  0  0  0  0  0  0  0  0  0
   37.1840   20.8910   31.6850 C   0  0  0  0  0  0  0  0  0  0  0  0
   38.0310   21.0190   32.7350 N   0  0  0  0  0  0  0  0  0  0  0  0
   38.1670   22.1710   33.4290 C   0  0  0  0  0  0  0  0  0  0  0  0
   37.4390   23.2410   33.0750 N   0  0  0  0  0  0  0  0  0  0  0  0
   37.0420   19.6480   30.9400 C   0  0  0  0  0  0  0  0  0  0  0  0
   36.9570   19.4480   29.6090 C   0  0  0  0  0  0  0  0  0  0  0  0
   36.8260   18.1700   29.1370 C   0  0  0  0  0  0  0  0  0  0  0  0
   36.7920   17.1350   30.1290 C   0  0  0  0  0  0  0  0  0  0  0  0
   36.9570   18.1150   31.7460 S   0  0  0  0  0  0  0  0  0  0  0  0
   40.9910   21.6097   33.5951 H   0  0  0  0  0  0  0  0  0  0  0  0
   41.9066   22.0057   35.9762 H   0  0  0  0  0  0  0  0  0  0  0  0
   40.9292   22.8343   38.4757 H   0  0  0  0  0  0  0  0  0  0  0  0
   38.8374   23.5642   39.6190 H   0  0  0  0  0  0  0  0  0  0  0  0
   36.7311   23.6917   38.3326 H   0  0  0  0  0  0  0  0  0  0  0  0
   36.6544   23.1078   35.9161 H   0  0  0  0  0  0  0  0  0  0  0  0
   35.9955   24.0641   31.7697 H   0  0  0  0  0  0  0  0  0  0  0  0
   35.7133   21.9352   30.4489 H   0  0  0  0  0  0  0  0  0  0  0  0
   36.9924   20.2992   28.9132 H   0  0  0  0  0  0  0  0  0  0  0  0
   36.7513   17.9501   28.0618 H   0  0  0  0  0  0  0  0  0  0  0  0
   36.6949   16.0484   29.9884 H   0  0  0  0  0  0  0  0  0  0  0  0
  1  9  1  0
  2  1  2  0
  2  3  1  0
  3  4  1  0
  4  5  2  0
  5  6  1  0
  7  6  2  0
  8  7  1  0
  9  8  2  0
  9  4  1  0
 10 15  2  0
 11 12  2  0
 11 10  1  0
 12 13  1  0
 13 14  2  0
 14  1  1  0
 15 14  1  0
 16 12  1  0
 16 20  1  0
 17 16  2  0
 18 17  1  0
 18 19  2  0
 19 20  1  0
  2 21  1  0
  3 22  1  0
  5 23  1  0
  6 24  1  0
  7 25  1  0
  8 26  1  0
 10 27  1  0
 11 28  1  0
 17 29  1  0
 18 30  1  0
 19 31  1  0
M  ISO  8  21  14  22   9  23  14  24  14  25  14  26  14  27  14  28  14
M  ISO  3  29  14  30  14  31  14
M  END
>  <minimizedAffinity>  (1) 
-4.97665644

>  <minimizedRMSD>  (1) 
7.43639851

$$$$
