
     RDKit          3D

 26 28  0  0  0  0  0  0  0  0999 V2000
   37.8740   22.8210   33.7780 C   0  0  0  0  0  0  0  0  0  0  0  0
   38.1120   23.7840   32.7960 C   0  0  0  0  0  0  0  0  0  0  0  0
   37.2700   23.4800   31.7870 N   0  0  0  0  0  0  0  0  0  0  0  0
   36.5210   22.3980   32.0630 C   0  0  0  0  0  0  0  0  0  0  0  0
   35.5450   21.7220   31.3610 C   0  0  0  0  0  0  0  0  0  0  0  0
   34.9250   20.6080   31.9050 C   0  0  0  0  0  0  0  0  0  0  0  0
   35.2960   20.1860   33.1540 C   0  0  0  0  0  0  0  0  0  0  0  0
   36.2820   20.8460   33.8940 C   0  0  0  0  0  0  0  0  0  0  0  0
   36.8990   21.9630   33.3390 C   0  0  0  0  0  0  0  0  0  0  0  0
   40.4690   22.2310   36.3070 C   0  0  0  0  0  0  0  0  0  0  0  0
   39.8640   22.7010   37.4870 C   0  0  0  0  0  0  0  0  0  0  0  0
   38.5600   23.2170   37.3860 C   0  0  0  0  0  0  0  0  0  0  0  0
   37.9580   23.2320   36.1580 N   0  0  0  0  0  0  0  0  0  0  0  0
   38.5710   22.7720   35.0490 C   0  0  0  0  0  0  0  0  0  0  0  0
   39.8020   22.2830   35.1320 N   0  0  0  0  0  0  0  0  0  0  0  0
   37.8810   23.7190   38.5740 C   0  0  0  0  0  0  0  0  0  0  0  0
   38.0550   24.9110   38.9210 O   0  0  0  0  0  0  0  0  0  0  0  0
   38.8327   24.6140   32.8364 H   0  0  0  0  0  0  0  0  0  0  0  0
   37.2081   24.0140   30.9084 H   0  0  0  0  0  0  0  0  0  0  0  0
   35.2555   22.0707   30.3587 H   0  0  0  0  0  0  0  0  0  0  0  0
   34.1471   20.0712   31.3423 H   0  0  0  0  0  0  0  0  0  0  0  0
   34.8043   19.3026   33.5874 H   0  0  0  0  0  0  0  0  0  0  0  0
   36.5644   20.4891   34.8954 H   0  0  0  0  0  0  0  0  0  0  0  0
   41.4886   21.8196   36.3404 H   0  0  0  0  0  0  0  0  0  0  0  0
   40.3911   22.6661   38.4519 H   0  0  0  0  0  0  0  0  0  0  0  0
   37.2234   23.0595   39.1594 H   0  0  0  0  0  0  0  0  0  0  0  0
  1 14  1  0
  2  1  2  0
  3  4  1  0
  3  2  1  0
  4  9  2  0
  5  6  2  0
  5  4  1  0
  6  7  1  0
  7  8  2  0
  9  1  1  0
  9  8  1  0
 10 11  2  0
 12 11  1  0
 12 16  1  0
 13 12  2  0
 14 15  2  0
 14 13  1  0
 15 10  1  0
 16 17  2  0
  2 18  1  0
  3 19  1  0
  5 20  1  0
  6 21  1  0
  7 22  1  0
  8 23  1  0
 10 24  1  0
 11 25  1  0
 16 26  1  0
M  ISO  8  18  14  19   9  20  14  21  14  22  14  23  14  24  14  25  14
M  ISO  1  26   6
M  END
>  <minimizedAffinity>  (1) 
-4.95625782

>  <minimizedRMSD>  (1) 
0.937592328

$$$$
