
     RDKit          3D

 25 27  0  0  0  0  0  0  0  0999 V2000
   37.8420   22.8860   34.0980 C   0  0  0  0  0  0  0  0  0  0  0  0
   38.0790   23.8360   33.1120 C   0  0  0  0  0  0  0  0  0  0  0  0
   37.2830   23.4800   32.0940 N   0  0  0  0  0  0  0  0  0  0  0  0
   36.5610   22.3840   32.3510 C   0  0  0  0  0  0  0  0  0  0  0  0
   35.6270   21.6540   31.6340 C   0  0  0  0  0  0  0  0  0  0  0  0
   35.0290   20.5400   32.1630 C   0  0  0  0  0  0  0  0  0  0  0  0
   35.3700   20.1470   33.4340 C   0  0  0  0  0  0  0  0  0  0  0  0
   36.3090   20.8520   34.1990 C   0  0  0  0  0  0  0  0  0  0  0  0
   36.9020   21.9800   33.6390 C   0  0  0  0  0  0  0  0  0  0  0  0
   40.2360   22.1850   36.7970 C   0  0  0  0  0  0  0  0  0  0  0  0
   39.6900   22.8760   37.8830 C   0  0  0  0  0  0  0  0  0  0  0  0
   38.4970   23.5810   37.6820 C   0  0  0  0  0  0  0  0  0  0  0  0
   37.9400   23.5500   36.4300 N   0  0  0  0  0  0  0  0  0  0  0  0
   38.4980   22.8720   35.4070 C   0  0  0  0  0  0  0  0  0  0  0  0
   39.6270   22.2030   35.5950 N   0  0  0  0  0  0  0  0  0  0  0  0
   37.8250   24.3160   38.6500 O   0  0  0  0  0  0  0  0  0  0  0  0
   38.7683   24.6920   33.1570 H   0  0  0  0  0  0  0  0  0  0  0  0
   37.2326   23.9975   31.2049 H   0  0  0  0  0  0  0  0  0  0  0  0
   35.3592   21.9759   30.6168 H   0  0  0  0  0  0  0  0  0  0  0  0
   34.2895   19.9711   31.5803 H   0  0  0  0  0  0  0  0  0  0  0  0
   34.8927   19.2539   33.8636 H   0  0  0  0  0  0  0  0  0  0  0  0
   36.5706   20.5226   35.2154 H   0  0  0  0  0  0  0  0  0  0  0  0
   41.1718   21.6212   36.9250 H   0  0  0  0  0  0  0  0  0  0  0  0
   40.1831   22.8661   38.8662 H   0  0  0  0  0  0  0  0  0  0  0  0
   36.9842   24.7853   38.4201 H   0  0  0  0  0  0  0  0  0  0  0  0
  1 14  1  0
  2  1  2  0
  3  4  1  0
  3  2  1  0
  4  9  2  0
  5  6  2  0
  5  4  1  0
  6  7  1  0
  7  8  2  0
  9  1  1  0
  9  8  1  0
 10 11  2  0
 12 11  1  0
 12 16  1  0
 13 12  2  0
 14 15  2  0
 14 13  1  0
 15 10  1  0
  2 17  1  0
  3 18  1  0
  5 19  1  0
  6 20  1  0
  7 21  1  0
  8 22  1  0
 10 23  1  0
 11 24  1  0
 16 25  1  0
M  ISO  8  17  14  18   9  19  14  20  14  21  14  22  14  23  14  24  14
M  ISO  1  25   3
M  END
>  <minimizedAffinity>  (1) 
-4.93051529

>  <minimizedRMSD>  (1) 
0.609169781

$$$$
