
     RDKit          3D

 31 34  0  0  0  0  0  0  0  0999 V2000
   40.1930   26.2240   33.4670 C   0  0  0  0  0  0  0  0  0  0  0  0
   40.0890   26.1820   32.0800 C   0  0  0  0  0  0  0  0  0  0  0  0
   38.9100   26.7810   31.8000 N   0  0  0  0  0  0  0  0  0  0  0  0
   38.2650   27.1940   32.8950 C   0  0  0  0  0  0  0  0  0  0  0  0
   37.0600   27.8390   33.0970 C   0  0  0  0  0  0  0  0  0  0  0  0
   36.6330   28.1500   34.3630 C   0  0  0  0  0  0  0  0  0  0  0  0
   37.4270   27.8080   35.4450 C   0  0  0  0  0  0  0  0  0  0  0  0
   38.6500   27.1570   35.2760 C   0  0  0  0  0  0  0  0  0  0  0  0
   39.0700   26.8470   33.9830 C   0  0  0  0  0  0  0  0  0  0  0  0
   43.5410   25.8020   34.8940 C   0  0  0  0  0  0  0  0  0  0  0  0
   43.4100   24.6410   35.6850 C   0  0  0  0  0  0  0  0  0  0  0  0
   42.1500   24.0300   35.7000 C   0  0  0  0  0  0  0  0  0  0  0  0
   41.1390   24.5680   34.9740 N   0  0  0  0  0  0  0  0  0  0  0  0
   41.3080   25.6910   34.2240 C   0  0  0  0  0  0  0  0  0  0  0  0
   42.4970   26.2970   34.1890 N   0  0  0  0  0  0  0  0  0  0  0  0
   41.9510   22.8250   36.4970 C   0  0  0  0  0  0  0  0  0  0  0  0
   42.8380   21.7710   36.5660 C   0  0  0  0  0  0  0  0  0  0  0  0
   42.1990   20.8860   37.4410 C   0  0  0  0  0  0  0  0  0  0  0  0
   41.0080   21.3940   37.8590 N   0  0  0  0  0  0  0  0  0  0  0  0
   40.8800   22.5890   37.2630 N   0  0  0  0  0  0  0  0  0  0  0  0
   40.8092   25.7545   31.3669 H   0  0  0  0  0  0  0  0  0  0  0  0
   38.5473   26.9058   30.8441 H   0  0  0  0  0  0  0  0  0  0  0  0
   36.4353   28.1064   32.2320 H   0  0  0  0  0  0  0  0  0  0  0  0
   35.6728   28.6642   34.5167 H   0  0  0  0  0  0  0  0  0  0  0  0
   37.0859   28.0552   36.4611 H   0  0  0  0  0  0  0  0  0  0  0  0
   39.2702   26.8937   36.1455 H   0  0  0  0  0  0  0  0  0  0  0  0
   44.5125   26.3159   34.8493 H   0  0  0  0  0  0  0  0  0  0  0  0
   44.2552   24.2361   36.2610 H   0  0  0  0  0  0  0  0  0  0  0  0
   43.8072   21.6551   36.0589 H   0  0  0  0  0  0  0  0  0  0  0  0
   42.6046   19.9111   37.7494 H   0  0  0  0  0  0  0  0  0  0  0  0
   40.3387   20.9500   38.5039 H   0  0  0  0  0  0  0  0  0  0  0  0
  1  9  1  0
  1 14  1  0
  2  1  2  0
  3  2  1  0
  3  4  1  0
  4  5  2  0
  4  9  1  0
  5  6  1  0
  6  7  2  0
  8  7  1  0
  9  8  2  0
 10 11  2  0
 11 12  1  0
 12 16  1  0
 13 12  2  0
 14 13  1  0
 15 14  2  0
 15 10  1  0
 16 17  1  0
 16 20  2  0
 17 18  2  0
 18 19  1  0
 20 19  1  0
  2 21  1  0
  3 22  1  0
  5 23  1  0
  6 24  1  0
  7 25  1  0
  8 26  1  0
 10 27  1  0
 11 28  1  0
 17 29  1  0
 18 30  1  0
 19 31  1  0
M  ISO  8  21  14  22   9  23  14  24  14  25  14  26  14  27  14  28  14
M  ISO  3  29  14  30  14  31   9
M  END
>  <minimizedAffinity>  (1) 
-5.34360027

>  <minimizedRMSD>  (1) 
5.89514589

$$$$
