
     RDKit          3D

 40 43  0  0  0  0  0  0  0  0999 V2000
   42.7430   26.8610   33.5880 C   0  0  0  0  0  0  0  0  0  0  0  0
   42.3920   25.8740   34.5430 C   0  0  0  0  0  0  0  0  0  0  0  0
   41.0960   25.3740   34.4790 C   0  0  0  0  0  0  0  0  0  0  0  0
   40.2370   25.8300   33.5420 N   0  0  0  0  0  0  0  0  0  0  0  0
   40.6040   26.7840   32.6340 C   0  0  0  0  0  0  0  0  0  0  0  0
   41.8470   27.2930   32.6600 N   0  0  0  0  0  0  0  0  0  0  0  0
   39.6480   27.2410   31.6470 C   0  0  0  0  0  0  0  0  0  0  0  0
   39.9220   27.3720   30.2880 C   0  0  0  0  0  0  0  0  0  0  0  0
   38.7660   27.8220   29.7400 N   0  0  0  0  0  0  0  0  0  0  0  0
   37.7980   27.9820   30.6380 C   0  0  0  0  0  0  0  0  0  0  0  0
   36.4800   28.4080   30.5590 C   0  0  0  0  0  0  0  0  0  0  0  0
   35.7010   28.4750   31.6740 C   0  0  0  0  0  0  0  0  0  0  0  0
   36.2320   28.1120   32.9080 C   0  0  0  0  0  0  0  0  0  0  0  0
   37.5460   27.6820   33.0180 C   0  0  0  0  0  0  0  0  0  0  0  0
   38.3380   27.6150   31.8840 C   0  0  0  0  0  0  0  0  0  0  0  0
   40.6870   24.3530   35.4430 C   0  0  0  0  0  0  0  0  0  0  0  0
   41.4130   23.2430   35.7860 C   0  0  0  0  0  0  0  0  0  0  0  0
   40.5980   22.6040   36.7250 C   0  0  0  0  0  0  0  0  0  0  0  0
   39.4610   23.3030   36.9180 N   0  0  0  0  0  0  0  0  0  0  0  0
   39.5320   24.3740   36.1230 N   0  0  0  0  0  0  0  0  0  0  0  0
   38.3430   23.0530   37.7690 C   0  0  0  0  0  0  0  0  0  0  0  0
   37.1250   22.7200   36.8980 C   0  0  0  0  0  0  0  0  0  0  0  0
   37.9180   24.2400   38.6040 C   0  0  0  0  0  0  0  0  0  0  0  0
   43.7579   27.2851   33.5975 H   0  0  0  0  0  0  0  0  0  0  0  0
   43.1099   25.5208   35.2979 H   0  0  0  0  0  0  0  0  0  0  0  0
   40.8693   27.1573   29.7717 H   0  0  0  0  0  0  0  0  0  0  0  0
   38.6500   28.0188   28.7357 H   0  0  0  0  0  0  0  0  0  0  0  0
   36.0592   28.6951   29.5841 H   0  0  0  0  0  0  0  0  0  0  0  0
   34.6573   28.8143   31.5996 H   0  0  0  0  0  0  0  0  0  0  0  0
   35.6015   28.1668   33.8077 H   0  0  0  0  0  0  0  0  0  0  0  0
   37.9557   27.3965   33.9981 H   0  0  0  0  0  0  0  0  0  0  0  0
   42.3992   22.9301   35.4126 H   0  0  0  0  0  0  0  0  0  0  0  0
   40.8491   21.6624   37.2352 H   0  0  0  0  0  0  0  0  0  0  0  0
   38.6620   22.2404   38.4383 H   0  0  0  0  0  0  0  0  0  0  0  0
   36.2658   22.4851   37.5435 H   0  0  0  0  0  0  0  0  0  0  0  0
   36.8810   23.5844   36.2630 H   0  0  0  0  0  0  0  0  0  0  0  0
   37.3547   21.8517   36.2630 H   0  0  0  0  0  0  0  0  0  0  0  0
   38.0080   23.9887   39.6711 H   0  0  0  0  0  0  0  0  0  0  0  0
   38.5640   25.1001   38.3741 H   0  0  0  0  0  0  0  0  0  0  0  0
   36.8729   24.4946   38.3741 H   0  0  0  0  0  0  0  0  0  0  0  0
  1  2  2  0
  3  2  1  0
  3 16  1  0
  4  3  2  0
  5  6  2  0
  5  4  1  0
  6  1  1  0
  7 15  1  0
  7  5  1  0
  8  7  2  0
  9  8  1  0
  9 10  1  0
 10 15  2  0
 11 10  1  0
 11 12  2  0
 12 13  1  0
 13 14  2  0
 15 14  1  0
 16 17  1  0
 16 20  2  0
 17 18  2  0
 18 19  1  0
 19 21  1  0
 20 19  1  0
 21 23  1  0
 22 21  1  0
  1 24  1  0
  2 25  1  0
  8 26  1  0
  9 27  1  0
 11 28  1  0
 12 29  1  0
 13 30  1  0
 14 31  1  0
 17 32  1  0
 18 33  1  0
 21 34  1  0
 22 35  1  0
 22 36  1  0
 22 37  1  0
 23 38  1  0
 23 39  1  0
 23 40  1  0
M  ISO  8  24  14  25  14  26  14  27   9  28  14  29  14  30  14  31  14
M  ISO  8  32  14  33  14  34   8  35   8  36   8  37   8  38   8  39   8
M  ISO  1  40   8
M  END
>  <minimizedAffinity>  (1) 
-4.87963629

>  <minimizedRMSD>  (1) 
2.64349866

$$$$
