
     RDKit          3D

 37 40  0  0  0  0  0  0  0  0999 V2000
   41.4980   24.9010   32.3730 C   0  0  0  0  0  0  0  0  0  0  0  0
   41.4300   24.2520   33.6250 C   0  0  0  0  0  0  0  0  0  0  0  0
   40.2030   24.3410   34.3130 C   0  0  0  0  0  0  0  0  0  0  0  0
   39.1720   25.0260   33.7580 N   0  0  0  0  0  0  0  0  0  0  0  0
   39.2840   25.6330   32.5510 C   0  0  0  0  0  0  0  0  0  0  0  0
   40.4350   25.5680   31.8710 N   0  0  0  0  0  0  0  0  0  0  0  0
   38.1550   26.3480   32.0070 C   0  0  0  0  0  0  0  0  0  0  0  0
   37.7450   26.2790   30.6800 C   0  0  0  0  0  0  0  0  0  0  0  0
   36.6650   27.0870   30.5870 N   0  0  0  0  0  0  0  0  0  0  0  0
   36.3710   27.6600   31.7700 C   0  0  0  0  0  0  0  0  0  0  0  0
   35.3770   28.5410   32.1510 C   0  0  0  0  0  0  0  0  0  0  0  0
   35.3050   28.9780   33.4570 C   0  0  0  0  0  0  0  0  0  0  0  0
   36.2330   28.5280   34.3760 C   0  0  0  0  0  0  0  0  0  0  0  0
   37.2450   27.6360   34.0070 C   0  0  0  0  0  0  0  0  0  0  0  0
   37.3060   27.2060   32.6920 C   0  0  0  0  0  0  0  0  0  0  0  0
   40.0880   23.6880   35.6080 C   0  0  0  0  0  0  0  0  0  0  0  0
   40.9420   22.7340   36.1010 C   0  0  0  0  0  0  0  0  0  0  0  0
   40.3910   22.4460   37.3560 C   0  0  0  0  0  0  0  0  0  0  0  0
   39.2820   23.1840   37.5850 N   0  0  0  0  0  0  0  0  0  0  0  0
   39.1060   23.9510   36.4900 N   0  0  0  0  0  0  0  0  0  0  0  0
   38.4140   23.2140   38.7210 C   0  0  0  0  0  0  0  0  0  0  0  0
   37.8640   24.6060   38.8500 C   0  0  0  0  0  0  0  0  0  0  0  0
   42.4334   24.8631   31.7954 H   0  0  0  0  0  0  0  0  0  0  0  0
   42.2892   23.7058   34.0415 H   0  0  0  0  0  0  0  0  0  0  0  0
   38.2043   25.6892   29.8731 H   0  0  0  0  0  0  0  0  0  0  0  0
   36.1331   27.2448   29.7192 H   0  0  0  0  0  0  0  0  0  0  0  0
   34.6426   28.8940   31.4120 H   0  0  0  0  0  0  0  0  0  0  0  0
   34.5151   29.6791   33.7644 H   0  0  0  0  0  0  0  0  0  0  0  0
   36.1749   28.8777   35.4173 H   0  0  0  0  0  0  0  0  0  0  0  0
   37.9783   27.2828   34.7469 H   0  0  0  0  0  0  0  0  0  0  0  0
   41.8367   22.3027   35.6283 H   0  0  0  0  0  0  0  0  0  0  0  0
   40.8070   21.7139   38.0638 H   0  0  0  0  0  0  0  0  0  0  0  0
   37.5901   22.4989   38.5800 H   0  0  0  0  0  0  0  0  0  0  0  0
   38.9664   22.9362   39.6307 H   0  0  0  0  0  0  0  0  0  0  0  0
   37.7625   24.8629   39.9147 H   0  0  0  0  0  0  0  0  0  0  0  0
   38.5487   25.3172   38.3649 H   0  0  0  0  0  0  0  0  0  0  0  0
   36.8781   24.6571   38.3649 H   0  0  0  0  0  0  0  0  0  0  0  0
  1  2  2  0
  2  3  1  0
  3 16  1  0
  4  3  2  0
  5  4  1  0
  6  1  1  0
  6  5  2  0
  7  5  1  0
  7 15  1  0
  8  7  2  0
  9  8  1  0
  9 10  1  0
 10 11  2  0
 10 15  1  0
 11 12  1  0
 12 13  2  0
 14 13  1  0
 15 14  2  0
 16 17  1  0
 16 20  2  0
 17 18  2  0
 18 19  1  0
 19 21  1  0
 20 19  1  0
 21 22  1  0
  1 23  1  0
  2 24  1  0
  8 25  1  0
  9 26  1  0
 11 27  1  0
 12 28  1  0
 13 29  1  0
 14 30  1  0
 17 31  1  0
 18 32  1  0
 21 33  1  0
 21 34  1  0
 22 35  1  0
 22 36  1  0
 22 37  1  0
M  ISO  8  23  14  24  14  25  14  26   9  27  14  28  14  29  14  30  14
M  ISO  7  31  14  32  14  33   8  34   8  35   8  36   8  37   8
M  END
>  <minimizedAffinity>  (1) 
-5.12690592

>  <minimizedRMSD>  (1) 
2.50195694

$$$$
