
     RDKit          3D

 39 42  0  0  0  0  0  0  0  0999 V2000
   42.6780   25.5100   31.4060 C   0  0  0  0  0  0  0  0  0  0  0  0
   42.9000   24.8140   32.6170 C   0  0  0  0  0  0  0  0  0  0  0  0
   41.7890   24.7160   33.4940 C   0  0  0  0  0  0  0  0  0  0  0  0
   40.6120   25.2760   33.1400 N   0  0  0  0  0  0  0  0  0  0  0  0
   40.4500   25.9400   31.9570 C   0  0  0  0  0  0  0  0  0  0  0  0
   41.4730   26.0490   31.1120 N   0  0  0  0  0  0  0  0  0  0  0  0
   39.1710   26.5150   31.6390 C   0  0  0  0  0  0  0  0  0  0  0  0
   38.6520   26.5960   30.3430 C   0  0  0  0  0  0  0  0  0  0  0  0
   37.4470   27.1940   30.4740 N   0  0  0  0  0  0  0  0  0  0  0  0
   37.1740   27.4940   31.7600 C   0  0  0  0  0  0  0  0  0  0  0  0
   36.0880   28.0970   32.3670 C   0  0  0  0  0  0  0  0  0  0  0  0
   36.0730   28.2830   33.7380 C   0  0  0  0  0  0  0  0  0  0  0  0
   37.1490   27.8620   34.4890 C   0  0  0  0  0  0  0  0  0  0  0  0
   38.2570   27.2500   33.8940 C   0  0  0  0  0  0  0  0  0  0  0  0
   38.2610   27.0700   32.5310 C   0  0  0  0  0  0  0  0  0  0  0  0
   41.9660   24.0130   34.7420 C   0  0  0  0  0  0  0  0  0  0  0  0
   43.1720   23.7110   35.3310 C   0  0  0  0  0  0  0  0  0  0  0  0
   42.7870   23.0400   36.4990 C   0  0  0  0  0  0  0  0  0  0  0  0
   41.4500   22.9520   36.5960 N   0  0  0  0  0  0  0  0  0  0  0  0
   40.9540   23.5610   35.4980 N   0  0  0  0  0  0  0  0  0  0  0  0
   40.6260   22.3550   37.6140 C   0  0  0  0  0  0  0  0  0  0  0  0
   39.2940   23.0510   37.5850 C   0  0  0  0  0  0  0  0  0  0  0  0
   38.6600   22.8290   38.8670 N   0  0  0  0  0  0  0  0  0  0  0  0
   43.5039   25.6153   30.6872 H   0  0  0  0  0  0  0  0  0  0  0  0
   43.8774   24.3741   32.8646 H   0  0  0  0  0  0  0  0  0  0  0  0
   39.1247   26.2467   29.4132 H   0  0  0  0  0  0  0  0  0  0  0  0
   36.8140   27.3961   29.6870 H   0  0  0  0  0  0  0  0  0  0  0  0
   35.2340   28.4296   31.7587 H   0  0  0  0  0  0  0  0  0  0  0  0
   35.2104   28.7624   34.2239 H   0  0  0  0  0  0  0  0  0  0  0  0
   37.1362   28.0103   35.5789 H   0  0  0  0  0  0  0  0  0  0  0  0
   39.1094   26.9188   34.5053 H   0  0  0  0  0  0  0  0  0  0  0  0
   44.1869   23.9397   34.9735 H   0  0  0  0  0  0  0  0  0  0  0  0
   43.4902   22.6364   37.2423 H   0  0  0  0  0  0  0  0  0  0  0  0
   40.4936   21.2825   37.4085 H   0  0  0  0  0  0  0  0  0  0  0  0
   41.0959   22.4602   38.6030 H   0  0  0  0  0  0  0  0  0  0  0  0
   39.4368   24.1288   37.4181 H   0  0  0  0  0  0  0  0  0  0  0  0
   38.6687   22.6578   36.7699 H   0  0  0  0  0  0  0  0  0  0  0  0
   39.3214   23.0606   39.6218 H   0  0  0  0  0  0  0  0  0  0  0  0
   37.8258   23.4279   38.9458 H   0  0  0  0  0  0  0  0  0  0  0  0
  1  2  2  0
  2  3  1  0
  3 16  1  0
  4  3  2  0
  5  4  1  0
  6  1  1  0
  6  5  2  0
  7  5  1  0
  7 15  1  0
  8  9  1  0
  8  7  2  0
  9 10  1  0
 10 11  1  0
 10 15  2  0
 11 12  2  0
 12 13  1  0
 14 13  2  0
 15 14  1  0
 16 17  1  0
 16 20  2  0
 17 18  2  0
 18 19  1  0
 19 21  1  0
 20 19  1  0
 22 21  1  0
 22 23  1  0
  1 24  1  0
  2 25  1  0
  8 26  1  0
  9 27  1  0
 11 28  1  0
 12 29  1  0
 13 30  1  0
 14 31  1  0
 17 32  1  0
 18 33  1  0
 21 34  1  0
 21 35  1  0
 22 36  1  0
 22 37  1  0
 23 38  1  0
 23 39  1  0
M  ISO  8  24  14  25  14  26  14  27   9  28  14  29  14  30  14  31  14
M  ISO  8  32  14  33  14  34   8  35   8  36   8  37   8  38   5  39   5
M  END
>  <minimizedAffinity>  (1) 
-4.83740616

>  <minimizedRMSD>  (1) 
1.77793467

$$$$
