
     RDKit          3D

 20 21  0  0  0  0  0  0  0  0999 V2000
   40.6120   22.1580   36.0670 C   0  0  0  0  0  0  0  0  0  0  0  0
   40.0870   22.6460   37.2920 C   0  0  0  0  0  0  0  0  0  0  0  0
   38.7790   23.1390   37.2760 C   0  0  0  0  0  0  0  0  0  0  0  0
   38.0880   23.1290   36.1120 N   0  0  0  0  0  0  0  0  0  0  0  0
   38.6330   22.6520   34.9640 C   0  0  0  0  0  0  0  0  0  0  0  0
   39.8910   22.1710   34.9530 N   0  0  0  0  0  0  0  0  0  0  0  0
   37.8100   22.6830   33.7650 C   0  0  0  0  0  0  0  0  0  0  0  0
   37.1130   21.6250   33.2120 C   0  0  0  0  0  0  0  0  0  0  0  0
   36.4650   22.1010   32.0760 C   0  0  0  0  0  0  0  0  0  0  0  0
   36.7700   23.4070   31.9590 N   0  0  0  0  0  0  0  0  0  0  0  0
   37.5760   23.7460   32.9750 N   0  0  0  0  0  0  0  0  0  0  0  0
   38.2960   23.6280   38.5770 C   0  0  0  0  0  0  0  0  0  0  0  0
   37.8300   24.9050   38.4360 F   0  0  0  0  0  0  0  0  0  0  0  0
   39.3860   23.6880   39.4210 F   0  0  0  0  0  0  0  0  0  0  0  0
   37.2720   22.8520   39.0790 F   0  0  0  0  0  0  0  0  0  0  0  0
   41.6375   21.7609   36.0405 H   0  0  0  0  0  0  0  0  0  0  0  0
   40.6845   22.6367   38.2155 H   0  0  0  0  0  0  0  0  0  0  0  0
   37.0771   20.5959   33.5988 H   0  0  0  0  0  0  0  0  0  0  0  0
   35.8228   21.5182   31.3993 H   0  0  0  0  0  0  0  0  0  0  0  0
   36.4401   24.0385   31.2152 H   0  0  0  0  0  0  0  0  0  0  0  0
  1  2  2  0
  3  2  1  0
  3 12  1  0
  4  3  2  0
  5  4  1  0
  6  5  2  0
  6  1  1  0
  7  5  1  0
  8  7  1  0
  9  8  2  0
 10  9  1  0
 10 11  1  0
 11  7  2  0
 12 15  1  0
 12 14  1  0
 13 12  1  0
  1 16  1  0
  2 17  1  0
  8 18  1  0
  9 19  1  0
 10 20  1  0
M  ISO  5  16  14  17  14  18  14  19  14  20   9
M  END
>  <minimizedAffinity>  (1) 
-4.40065384

>  <minimizedRMSD>  (1) 
0.916829109

$$$$
