
     RDKit          3D

 13 13  0  0  0  0  0  0  0  0999 V2000
   39.7240   22.6140   35.9010 C   0  0  0  0  0  0  0  0  0  0  0  0
   39.3830   22.9150   37.2270 C   0  0  0  0  0  0  0  0  0  0  0  0
   38.4210   23.9100   37.4160 C   0  0  0  0  0  0  0  0  0  0  0  0
   37.8610   24.5350   36.3450 N   0  0  0  0  0  0  0  0  0  0  0  0
   38.2360   24.1980   35.0700 C   0  0  0  0  0  0  0  0  0  0  0  0
   39.1510   23.2520   34.8750 N   0  0  0  0  0  0  0  0  0  0  0  0
   37.9370   24.3620   38.6830 N   0  0  0  0  0  0  0  0  0  0  0  0
   39.8640   22.3670   38.3810 O   0  0  0  0  0  0  0  0  0  0  0  0
   40.4775   21.8380   35.7007 H   0  0  0  0  0  0  0  0  0  0  0  0
   37.7807   24.7093   34.2090 H   0  0  0  0  0  0  0  0  0  0  0  0
   37.2237   25.1037   38.7270 H   0  0  0  0  0  0  0  0  0  0  0  0
   38.3016   23.9459   39.5518 H   0  0  0  0  0  0  0  0  0  0  0  0
   39.5269   22.6823   39.2568 H   0  0  0  0  0  0  0  0  0  0  0  0
  1  2  2  0
  2  3  1  0
  2  8  1  0
  3  7  1  0
  4  3  2  0
  5  4  1  0
  6  5  2  0
  6  1  1  0
  1  9  1  0
  5 10  1  0
  7 11  1  0
  7 12  1  0
  8 13  1  0
M  ISO  3   9  14  10  14  13   3
M  END
>  <minimizedAffinity>  (1) 
-3.12167001

>  <minimizedRMSD>  (1) 
1.10135984

$$$$
