
     RDKit          3D

 15 15  0  0  0  0  0  0  0  0999 V2000
   40.4660   22.2270   37.5730 C   0  0  0  0  0  0  0  0  0  0  0  0
   39.3990   23.1300   37.5690 C   0  0  0  0  0  0  0  0  0  0  0  0
   39.0610   23.7360   36.3660 C   0  0  0  0  0  0  0  0  0  0  0  0
   39.7770   23.4330   35.2320 N   0  0  0  0  0  0  0  0  0  0  0  0
   40.8100   22.5450   35.2920 C   0  0  0  0  0  0  0  0  0  0  0  0
   41.1390   21.9580   36.4480 N   0  0  0  0  0  0  0  0  0  0  0  0
   38.0160   24.6730   36.1640 N   0  0  0  0  0  0  0  0  0  0  0  0
   38.5770   23.5090   38.7520 C   0  0  0  0  0  0  0  0  0  0  0  0
   40.7558   21.7319   38.5115 H   0  0  0  0  0  0  0  0  0  0  0  0
   41.3786   22.3089   34.3804 H   0  0  0  0  0  0  0  0  0  0  0  0
   37.8490   25.0639   35.2258 H   0  0  0  0  0  0  0  0  0  0  0  0
   37.4239   24.9627   36.9555 H   0  0  0  0  0  0  0  0  0  0  0  0
   39.1226   23.2574   39.6734 H   0  0  0  0  0  0  0  0  0  0  0  0
   38.3767   24.5904   38.7281 H   0  0  0  0  0  0  0  0  0  0  0  0
   37.6246   22.9591   38.7281 H   0  0  0  0  0  0  0  0  0  0  0  0
  2  1  2  0
  2  8  1  0
  3  2  1  0
  4  5  1  0
  4  3  2  0
  5  6  2  0
  6  1  1  0
  7  3  1  0
  1  9  1  0
  5 10  1  0
  7 11  1  0
  7 12  1  0
  8 13  1  0
  8 14  1  0
  8 15  1  0
M  ISO  5   9  14  10  14  13   8  14   8  15   8
M  END
>  <minimizedAffinity>  (1) 
-2.75349569

>  <minimizedRMSD>  (1) 
2.0665009

$$$$
