
     RDKit          3D

 21 21  0  0  0  0  0  0  0  0999 V2000
   38.2300   24.0340   36.1290 C   0  0  0  0  0  0  0  0  0  0  0  0
   39.2450   23.0820   36.2460 C   0  0  0  0  0  0  0  0  0  0  0  0
   39.6020   22.7170   37.5570 C   0  0  0  0  0  0  0  0  0  0  0  0
   38.9590   23.2930   38.6320 N   0  0  0  0  0  0  0  0  0  0  0  0
   37.9850   24.2090   38.4320 C   0  0  0  0  0  0  0  0  0  0  0  0
   37.6250   24.5750   37.1940 N   0  0  0  0  0  0  0  0  0  0  0  0
   40.6150   21.7620   37.8790 N   0  0  0  0  0  0  0  0  0  0  0  0
   39.9590   22.4400   35.1500 C   0  0  0  0  0  0  0  0  0  0  0  0
   40.9580   23.4300   34.5760 C   0  0  0  0  0  0  0  0  0  0  0  0
   38.9610   22.0150   34.0770 C   0  0  0  0  0  0  0  0  0  0  0  0
   37.9156   24.3515   35.1238 H   0  0  0  0  0  0  0  0  0  0  0  0
   37.4802   24.6608   39.2986 H   0  0  0  0  0  0  0  0  0  0  0  0
   40.8230   21.5441   38.8640 H   0  0  0  0  0  0  0  0  0  0  0  0
   41.1372   21.2915   37.1261 H   0  0  0  0  0  0  0  0  0  0  0  0
   40.4922   21.5480   35.5106 H   0  0  0  0  0  0  0  0  0  0  0  0
   41.4775   23.9448   35.3977 H   0  0  0  0  0  0  0  0  0  0  0  0
   41.6922   22.8931   33.9573 H   0  0  0  0  0  0  0  0  0  0  0  0
   40.4278   24.1690   33.9573 H   0  0  0  0  0  0  0  0  0  0  0  0
   38.0501   21.6271   34.5565 H   0  0  0  0  0  0  0  0  0  0  0  0
   38.7048   22.8821   33.4505 H   0  0  0  0  0  0  0  0  0  0  0  0
   39.4086   21.2294   33.4505 H   0  0  0  0  0  0  0  0  0  0  0  0
  1  2  2  0
  1  6  1  0
  2  3  1  0
  3  7  1  0
  3  4  2  0
  5  4  1  0
  6  5  2  0
  8  2  1  0
  9  8  1  0
 10  8  1  0
  1 11  1  0
  5 12  1  0
  7 13  1  0
  7 14  1  0
  8 15  1  0
  9 16  1  0
  9 17  1  0
  9 18  1  0
 10 19  1  0
 10 20  1  0
 10 21  1  0
M  ISO  8  11  14  12  14  15   8  16   8  17   8  18   8  19   8  20   8
M  ISO  1  21   8
M  END
>  <minimizedAffinity>  (1) 
-3.56266403

>  <minimizedRMSD>  (1) 
3.673347

$$$$
