
     RDKit          3D

 34 36  0  0  1  0  0  0  0  0999 V2000
   40.2040   23.1450   35.1070 C   0  0  2  0  0  0  0  0  0  0  0  0
   38.5240   24.6290   36.2910 C   0  0  0  0  0  0  0  0  0  0  0  0
   39.4440   23.5690   36.2700 C   0  0  0  0  0  0  0  0  0  0  0  0
   39.5870   22.8650   37.4730 C   0  0  0  0  0  0  0  0  0  0  0  0
   38.8550   23.2190   38.5810 N   0  0  0  0  0  0  0  0  0  0  0  0
   37.9910   24.2460   38.5250 C   0  0  0  0  0  0  0  0  0  0  0  0
   37.8330   24.9360   37.3980 N   0  0  0  0  0  0  0  0  0  0  0  0
   40.4980   21.7650   37.6390 N   0  0  0  0  0  0  0  0  0  0  0  0
   41.5880   23.8240   35.1960 C   0  0  0  0  0  0  0  0  0  0  0  0
   39.5020   23.5320   33.8430 C   0  0  0  0  0  0  0  0  0  0  0  0
   38.9880   22.3640   33.1280 N   0  0  0  0  0  0  0  0  0  0  0  0
   39.5040   21.1380   32.9650 C   0  0  0  0  0  0  0  0  0  0  0  0
   38.6610   20.3860   32.2200 N   0  0  0  0  0  0  0  0  0  0  0  0
   37.6070   21.1520   31.9140 C   0  0  0  0  0  0  0  0  0  0  0  0
   36.4420   20.9520   31.1910 C   0  0  0  0  0  0  0  0  0  0  0  0
   35.5410   21.9520   31.0560 N   0  0  0  0  0  0  0  0  0  0  0  0
   35.7260   23.1660   31.6050 C   0  0  0  0  0  0  0  0  0  0  0  0
   36.8660   23.3570   32.3110 N   0  0  0  0  0  0  0  0  0  0  0  0
   37.7920   22.3920   32.4730 C   0  0  0  0  0  0  0  0  0  0  0  0
   36.1760   19.6920   30.5800 N   0  0  0  0  0  0  0  0  0  0  0  0
   40.3101   22.0502   35.0917 H   0  0  0  0  0  0  0  0  0  0  0  0
   38.3664   25.2216   35.3778 H   0  0  0  0  0  0  0  0  0  0  0  0
   37.4094   24.5189   39.4179 H   0  0  0  0  0  0  0  0  0  0  0  0
   40.5627   21.2824   38.5466 H   0  0  0  0  0  0  0  0  0  0  0  0
   41.0858   21.4596   36.8503 H   0  0  0  0  0  0  0  0  0  0  0  0
   41.8630   23.9589   36.2525 H   0  0  0  0  0  0  0  0  0  0  0  0
   42.3391   23.1921   34.6994 H   0  0  0  0  0  0  0  0  0  0  0  0
   41.5479   24.8047   34.6994 H   0  0  0  0  0  0  0  0  0  0  0  0
   38.6609   24.1959   34.0917 H   0  0  0  0  0  0  0  0  0  0  0  0
   40.2273   24.0404   33.1908 H   0  0  0  0  0  0  0  0  0  0  0  0
   40.4658   20.7953   33.3743 H   0  0  0  0  0  0  0  0  0  0  0  0
   34.9836   23.9689   31.4857 H   0  0  0  0  0  0  0  0  0  0  0  0
   35.3073   19.5525   30.0444 H   0  0  0  0  0  0  0  0  0  0  0  0
   36.8525   18.9210   30.6740 H   0  0  0  0  0  0  0  0  0  0  0  0
  1  9  1  0
  1  3  1  0
  2  7  2  0
  3  2  1  0
  3  4  2  0
  4  8  1  0
  4  5  1  0
  6  5  2  0
  7  6  1  0
 10  1  1  0
 11 10  1  0
 12 11  1  0
 13 12  2  0
 14 13  1  0
 14 19  2  0
 15 14  1  0
 16 15  2  0
 16 17  1  0
 17 18  2  0
 18 19  1  0
 19 11  1  0
 20 15  1  0
  1 21  1  1
  2 22  1  0
  6 23  1  0
  8 24  1  0
  8 25  1  0
  9 26  1  0
  9 27  1  0
  9 28  1  0
 10 29  1  0
 10 30  1  0
 12 31  1  0
 17 32  1  0
 20 33  1  0
 20 34  1  0
M  ISO  8  21   8  22  14  23  14  26   8  27   8  28   8  29   8  30   8
M  ISO  2  31  14  32  14
M  END
>  <minimizedAffinity>  (1) 
-5.02327967

>  <minimizedRMSD>  (1) 
2.38877249

$$$$
