
     RDKit          3D

 35 37  0  0  1  0  0  0  0  0999 V2000
   39.7760   22.6330   35.0430 C   0  0  2  0  0  0  0  0  0  0  0  0
   38.2030   24.2530   36.2290 C   0  0  0  0  0  0  0  0  0  0  0  0
   39.1660   23.2340   36.2310 C   0  0  0  0  0  0  0  0  0  0  0  0
   39.5620   22.7290   37.4800 C   0  0  0  0  0  0  0  0  0  0  0  0
   38.9940   23.2550   38.6280 N   0  0  0  0  0  0  0  0  0  0  0  0
   38.0760   24.2330   38.5380 C   0  0  0  0  0  0  0  0  0  0  0  0
   37.6790   24.7320   37.3660 N   0  0  0  0  0  0  0  0  0  0  0  0
   40.5200   21.7080   37.6750 N   0  0  0  0  0  0  0  0  0  0  0  0
   41.0980   23.3770   34.7980 C   0  0  0  0  0  0  0  0  0  0  0  0
   38.8780   22.7720   33.8530 C   0  0  0  0  0  0  0  0  0  0  0  0
   38.7130   21.5370   33.0540 C   0  0  0  0  0  0  0  0  0  0  0  0
   39.6130   20.6530   32.4890 C   0  0  0  0  0  0  0  0  0  0  0  0
   38.9440   19.6620   31.8540 N   0  0  0  0  0  0  0  0  0  0  0  0
   37.6310   19.8990   32.0060 C   0  0  0  0  0  0  0  0  0  0  0  0
   36.5020   19.2300   31.5710 C   0  0  0  0  0  0  0  0  0  0  0  0
   35.2210   19.6590   31.8390 C   0  0  0  0  0  0  0  0  0  0  0  0
   35.0270   20.8200   32.5800 C   0  0  0  0  0  0  0  0  0  0  0  0
   36.1510   21.5200   33.0340 C   0  0  0  0  0  0  0  0  0  0  0  0
   37.4340   21.0630   32.7490 C   0  0  0  0  0  0  0  0  0  0  0  0
   39.9459   21.5574   35.1988 H   0  0  0  0  0  0  0  0  0  0  0  0
   37.8683   24.6708   35.2681 H   0  0  0  0  0  0  0  0  0  0  0  0
   37.6369   24.6358   39.4627 H   0  0  0  0  0  0  0  0  0  0  0  0
   40.7528   21.3955   38.6284 H   0  0  0  0  0  0  0  0  0  0  0  0
   40.9852   21.2765   36.8636 H   0  0  0  0  0  0  0  0  0  0  0  0
   41.5575   23.6356   35.7634 H   0  0  0  0  0  0  0  0  0  0  0  0
   41.7819   22.7313   34.2276 H   0  0  0  0  0  0  0  0  0  0  0  0
   40.9009   24.2967   34.2276 H   0  0  0  0  0  0  0  0  0  0  0  0
   37.8851   23.0855   34.2079 H   0  0  0  0  0  0  0  0  0  0  0  0
   39.3537   23.5094   33.1897 H   0  0  0  0  0  0  0  0  0  0  0  0
   40.7079   20.7414   32.5466 H   0  0  0  0  0  0  0  0  0  0  0  0
   39.3653   18.8707   31.3468 H   0  0  0  0  0  0  0  0  0  0  0  0
   36.6333   18.3102   30.9821 H   0  0  0  0  0  0  0  0  0  0  0  0
   34.3570   19.0872   31.4695 H   0  0  0  0  0  0  0  0  0  0  0  0
   34.0122   21.1803   32.8044 H   0  0  0  0  0  0  0  0  0  0  0  0
   36.0187   22.4403   33.6218 H   0  0  0  0  0  0  0  0  0  0  0  0
  1  3  1  0
  2  3  2  0
  2  7  1  0
  3  4  1  0
  4  8  1  0
  4  5  2  0
  6  5  1  0
  7  6  2  0
  9  1  1  0
 10  1  1  0
 11 10  1  0
 12 11  2  0
 13 14  1  0
 13 12  1  0
 14 19  2  0
 15 16  2  0
 15 14  1  0
 16 17  1  0
 17 18  2  0
 19 18  1  0
 19 11  1  0
  1 20  1  1
  2 21  1  0
  6 22  1  0
  8 23  1  0
  8 24  1  0
  9 25  1  0
  9 26  1  0
  9 27  1  0
 10 28  1  0
 10 29  1  0
 12 30  1  0
 13 31  1  0
 15 32  1  0
 16 33  1  0
 17 34  1  0
 18 35  1  0
M  ISO  8  20   8  21  14  22  14  25   8  26   8  27   8  28   8  29   8
M  ISO  6  30  14  31   9  32  14  33  14  34  14  35  14
M  END
>  <minimizedAffinity>  (1) 
-5.05444002

>  <minimizedRMSD>  (1) 
1.64387608

$$$$
