
     RDKit          3D

 29 30  0  0  1  0  0  0  0  0999 V2000
   40.2270   22.9760   35.2140 C   0  0  2  0  0  0  0  0  0  0  0  0
   38.5730   24.5610   36.3100 C   0  0  0  0  0  0  0  0  0  0  0  0
   39.4730   23.4840   36.3490 C   0  0  0  0  0  0  0  0  0  0  0  0
   39.6070   22.8370   37.5870 C   0  0  0  0  0  0  0  0  0  0  0  0
   38.8900   23.2500   38.6740 N   0  0  0  0  0  0  0  0  0  0  0  0
   38.0350   24.3040   38.5610 C   0  0  0  0  0  0  0  0  0  0  0  0
   37.8800   24.9480   37.3940 N   0  0  0  0  0  0  0  0  0  0  0  0
   40.5010   21.7310   37.8040 N   0  0  0  0  0  0  0  0  0  0  0  0
   41.6340   23.5930   35.2930 C   0  0  0  0  0  0  0  0  0  0  0  0
   39.5720   23.3370   33.9130 C   0  0  0  0  0  0  0  0  0  0  0  0
   38.6820   22.2310   33.4210 C   0  0  0  0  0  0  0  0  0  0  0  0
   39.2300   21.2640   32.5980 C   0  0  0  0  0  0  0  0  0  0  0  0
   38.4420   20.2270   32.1230 C   0  0  0  0  0  0  0  0  0  0  0  0
   37.1320   20.2020   32.4960 N   0  0  0  0  0  0  0  0  0  0  0  0
   36.6030   21.1400   33.2940 C   0  0  0  0  0  0  0  0  0  0  0  0
   37.3770   22.1520   33.7560 N   0  0  0  0  0  0  0  0  0  0  0  0
   40.2717   21.8776   35.2529 H   0  0  0  0  0  0  0  0  0  0  0  0
   38.4311   25.1040   35.3639 H   0  0  0  0  0  0  0  0  0  0  0  0
   37.4622   24.6327   39.4407 H   0  0  0  0  0  0  0  0  0  0  0  0
   40.5607   21.2918   38.7337 H   0  0  0  0  0  0  0  0  0  0  0  0
   41.0814   21.3783   37.0296 H   0  0  0  0  0  0  0  0  0  0  0  0
   41.9206   23.7187   36.3476 H   0  0  0  0  0  0  0  0  0  0  0  0
   42.3544   22.9282   34.7940 H   0  0  0  0  0  0  0  0  0  0  0  0
   41.6330   24.5733   34.7940 H   0  0  0  0  0  0  0  0  0  0  0  0
   38.9681   24.2452   34.0564 H   0  0  0  0  0  0  0  0  0  0  0  0
   40.3599   23.5059   33.1642 H   0  0  0  0  0  0  0  0  0  0  0  0
   40.2929   21.3178   32.3198 H   0  0  0  0  0  0  0  0  0  0  0  0
   38.8607   19.4500   31.4666 H   0  0  0  0  0  0  0  0  0  0  0  0
   35.5405   21.0884   33.5740 H   0  0  0  0  0  0  0  0  0  0  0  0
  1  9  1  0
  1  3  1  0
  2  3  2  0
  2  7  1  0
  3  4  1  0
  4  8  1  0
  4  5  2  0
  6  5  1  0
  7  6  2  0
 10  1  1  0
 11 16  1  0
 11 10  1  0
 12 11  2  0
 13 14  2  0
 13 12  1  0
 14 15  1  0
 15 16  2  0
  1 17  1  1
  2 18  1  0
  6 19  1  0
  8 20  1  0
  8 21  1  0
  9 22  1  0
  9 23  1  0
  9 24  1  0
 10 25  1  0
 10 26  1  0
 12 27  1  0
 13 28  1  0
 15 29  1  0
M  ISO  8  17   8  18  14  19  14  22   8  23   8  24   8  25   8  26   8
M  ISO  3  27  14  28  14  29  14
M  END
>  <minimizedAffinity>  (1) 
-4.1764183

>  <minimizedRMSD>  (1) 
2.00617385

$$$$
