
     RDKit          3D

 28 29  0  0  1  0  0  0  0  0999 V2000
   40.2660   22.9750   35.2030 C   0  0  2  0  0  0  0  0  0  0  0  0
   38.5960   24.5480   36.2700 C   0  0  0  0  0  0  0  0  0  0  0  0
   39.5040   23.4740   36.3320 C   0  0  0  0  0  0  0  0  0  0  0  0
   39.6080   22.8340   37.5720 C   0  0  0  0  0  0  0  0  0  0  0  0
   38.8670   23.2400   38.6470 N   0  0  0  0  0  0  0  0  0  0  0  0
   38.0080   24.2890   38.5100 C   0  0  0  0  0  0  0  0  0  0  0  0
   37.8810   24.9290   37.3350 N   0  0  0  0  0  0  0  0  0  0  0  0
   40.5120   21.7380   37.8090 N   0  0  0  0  0  0  0  0  0  0  0  0
   41.6770   23.6080   35.3130 C   0  0  0  0  0  0  0  0  0  0  0  0
   39.6270   23.3150   33.8980 C   0  0  0  0  0  0  0  0  0  0  0  0
   38.7350   22.2660   33.4260 N   0  0  0  0  0  0  0  0  0  0  0  0
   39.1670   21.3020   32.6270 N   0  0  0  0  0  0  0  0  0  0  0  0
   38.1520   20.4570   32.3330 C   0  0  0  0  0  0  0  0  0  0  0  0
   37.0130   20.9170   32.9840 C   0  0  0  0  0  0  0  0  0  0  0  0
   37.4240   22.0500   33.6540 C   0  0  0  0  0  0  0  0  0  0  0  0
   40.3146   21.8764   35.2313 H   0  0  0  0  0  0  0  0  0  0  0  0
   38.4709   25.0887   35.3203 H   0  0  0  0  0  0  0  0  0  0  0  0
   37.4101   24.6166   39.3733 H   0  0  0  0  0  0  0  0  0  0  0  0
   40.5544   21.2972   38.7390 H   0  0  0  0  0  0  0  0  0  0  0  0
   41.1161   21.3950   37.0485 H   0  0  0  0  0  0  0  0  0  0  0  0
   41.9436   23.7276   36.3735 H   0  0  0  0  0  0  0  0  0  0  0  0
   42.4119   22.9533   34.8218 H   0  0  0  0  0  0  0  0  0  0  0  0
   41.6766   24.5922   34.8218 H   0  0  0  0  0  0  0  0  0  0  0  0
   39.0482   24.2425   34.0193 H   0  0  0  0  0  0  0  0  0  0  0  0
   40.4281   23.4337   33.1536 H   0  0  0  0  0  0  0  0  0  0  0  0
   38.2165   19.5648   31.6928 H   0  0  0  0  0  0  0  0  0  0  0  0
   36.0060   20.4747   32.9681 H   0  0  0  0  0  0  0  0  0  0  0  0
   36.7786   22.6829   34.2808 H   0  0  0  0  0  0  0  0  0  0  0  0
  1  9  1  0
  1  3  1  0
  2  3  2  0
  2  7  1  0
  3  4  1  0
  4  8  1  0
  4  5  2  0
  6  5  1  0
  7  6  2  0
 10  1  1  0
 11 15  1  0
 11 10  1  0
 12 11  1  0
 13 12  2  0
 13 14  1  0
 14 15  2  0
  1 16  1  1
  2 17  1  0
  6 18  1  0
  8 19  1  0
  8 20  1  0
  9 21  1  0
  9 22  1  0
  9 23  1  0
 10 24  1  0
 10 25  1  0
 13 26  1  0
 14 27  1  0
 15 28  1  0
M  ISO  8  16   8  17  14  18  14  21   8  22   8  23   8  24   8  25   8
M  ISO  3  26  14  27  14  28  14
M  END
>  <minimizedAffinity>  (1) 
-3.99222875

>  <minimizedRMSD>  (1) 
1.68152404

$$$$
