
     RDKit          3D

 33 34  0  0  1  0  0  0  0  0999 V2000
   40.0850   22.8950   35.1920 C   0  0  2  0  0  0  0  0  0  0  0  0
   38.4320   24.4710   36.3080 C   0  0  0  0  0  0  0  0  0  0  0  0
   39.3710   23.4260   36.3470 C   0  0  0  0  0  0  0  0  0  0  0  0
   39.6040   22.8340   37.5910 C   0  0  0  0  0  0  0  0  0  0  0  0
   38.9330   23.2750   38.7020 N   0  0  0  0  0  0  0  0  0  0  0  0
   38.0430   24.2830   38.5930 C   0  0  0  0  0  0  0  0  0  0  0  0
   37.7870   24.8830   37.4080 N   0  0  0  0  0  0  0  0  0  0  0  0
   40.5310   21.7700   37.8100 N   0  0  0  0  0  0  0  0  0  0  0  0
   41.2620   23.8630   34.9080 C   0  0  0  0  0  0  0  0  0  0  0  0
   39.2010   22.8190   33.9870 C   0  0  0  0  0  0  0  0  0  0  0  0
   38.5650   21.5510   33.8190 N   0  0  0  0  0  0  0  0  0  0  0  0
   37.1440   21.7500   34.0340 C   0  0  0  0  0  0  0  0  0  0  0  0
   36.4450   20.8490   33.0380 C   0  0  0  0  0  0  0  0  0  0  0  0
   37.3700   20.9300   31.8580 C   0  0  0  0  0  0  0  0  0  0  0  0
   38.7210   21.0890   32.4750 C   0  0  0  0  0  0  0  0  0  0  0  0
   40.4346   21.8742   35.4057 H   0  0  0  0  0  0  0  0  0  0  0  0
   38.2207   24.9644   35.3479 H   0  0  0  0  0  0  0  0  0  0  0  0
   37.5109   24.6264   39.4924 H   0  0  0  0  0  0  0  0  0  0  0  0
   40.6531   21.3797   38.7553 H   0  0  0  0  0  0  0  0  0  0  0  0
   41.0775   21.3929   37.0226 H   0  0  0  0  0  0  0  0  0  0  0  0
   41.6871   24.2127   35.8604 H   0  0  0  0  0  0  0  0  0  0  0  0
   42.0375   23.3379   34.3311 H   0  0  0  0  0  0  0  0  0  0  0  0
   40.8965   24.7253   34.3311 H   0  0  0  0  0  0  0  0  0  0  0  0
   38.4209   23.5890   34.0798 H   0  0  0  0  0  0  0  0  0  0  0  0
   39.8431   22.9750   33.1076 H   0  0  0  0  0  0  0  0  0  0  0  0
   36.8694   21.4703   35.0618 H   0  0  0  0  0  0  0  0  0  0  0  0
   36.8578   22.8032   33.8970 H   0  0  0  0  0  0  0  0  0  0  0  0
   36.3650   19.8189   33.4155 H   0  0  0  0  0  0  0  0  0  0  0  0
   35.4091   21.1452   32.8162 H   0  0  0  0  0  0  0  0  0  0  0  0
   37.1236   21.7956   31.2256 H   0  0  0  0  0  0  0  0  0  0  0  0
   37.3024   20.0489   31.2030 H   0  0  0  0  0  0  0  0  0  0  0  0
   39.2429   20.1207   32.4757 H   0  0  0  0  0  0  0  0  0  0  0  0
   39.3113   21.8156   31.8974 H   0  0  0  0  0  0  0  0  0  0  0  0
  1  3  1  0
  2  3  2  0
  2  7  1  0
  3  4  1  0
  4  8  1  0
  4  5  2  0
  6  5  1  0
  7  6  2  0
  9  1  1  0
 10  1  1  0
 11 10  1  0
 11 12  1  0
 13 12  1  0
 14 15  1  0
 14 13  1  0
 15 11  1  0
  1 16  1  1
  2 17  1  0
  6 18  1  0
  8 19  1  0
  8 20  1  0
  9 21  1  0
  9 22  1  0
  9 23  1  0
 10 24  1  0
 10 25  1  0
 12 26  1  0
 12 27  1  0
 13 28  1  0
 13 29  1  0
 14 30  1  0
 14 31  1  0
 15 32  1  0
 15 33  1  0
M  ISO  8  16   8  17  14  18  14  21   8  22   8  23   8  24   8  25   8
M  ISO  8  26  13  27  13  28  13  29  13  30  13  31  13  32  13  33  13
M  END
>  <minimizedAffinity>  (1) 
-4.10020828

>  <minimizedRMSD>  (1) 
1.10062563

$$$$
