
     RDKit          3D

 22 22  0  0  1  0  0  0  0  0999 V2000
   38.6290   24.5800   36.2820 C   0  0  0  0  0  0  0  0  0  0  0  0
   39.5570   23.5240   36.3430 C   0  0  0  0  0  0  0  0  0  0  0  0
   39.6550   22.8440   37.5590 C   0  0  0  0  0  0  0  0  0  0  0  0
   38.8490   23.2390   38.6190 N   0  0  0  0  0  0  0  0  0  0  0  0
   37.9830   24.2570   38.4920 C   0  0  0  0  0  0  0  0  0  0  0  0
   37.8700   24.9290   37.3290 N   0  0  0  0  0  0  0  0  0  0  0  0
   40.5320   21.7560   37.8070 N   0  0  0  0  0  0  0  0  0  0  0  0
   40.3640   23.0750   35.2380 C   0  0  2  0  0  0  0  0  0  0  0  0
   41.6450   23.9220   35.2190 C   0  0  0  0  0  0  0  0  0  0  0  0
   39.6550   23.1850   33.9240 C   0  0  0  0  0  0  0  0  0  0  0  0
   38.4940   21.8190   33.7030 S   0  0  0  0  0  0  0  0  0  0  0  0
   38.5231   25.1390   35.3406 H   0  0  0  0  0  0  0  0  0  0  0  0
   37.3570   24.5467   39.3489 H   0  0  0  0  0  0  0  0  0  0  0  0
   40.5452   21.3060   38.7334 H   0  0  0  0  0  0  0  0  0  0  0  0
   41.1552   21.4164   37.0606 H   0  0  0  0  0  0  0  0  0  0  0  0
   40.5917   22.0079   35.3778 H   0  0  0  0  0  0  0  0  0  0  0  0
   41.9615   24.1313   36.2515 H   0  0  0  0  0  0  0  0  0  0  0  0
   42.4408   23.3715   34.6960 H   0  0  0  0  0  0  0  0  0  0  0  0
   41.4501   24.8699   34.6960 H   0  0  0  0  0  0  0  0  0  0  0  0
   39.1031   24.1359   33.8909 H   0  0  0  0  0  0  0  0  0  0  0  0
   40.4015   23.1463   33.1170 H   0  0  0  0  0  0  0  0  0  0  0  0
   38.0981   21.3532   34.9291 H   0  0  0  0  0  0  0  0  0  0  0  0
  1  2  2  0
  1  6  1  0
  2  3  1  0
  3  7  1  0
  3  4  2  0
  5  4  1  0
  6  5  2  0
  8  2  1  0
  9  8  1  0
 10  8  1  0
 11 10  1  0
  1 12  1  0
  5 13  1  0
  7 14  1  0
  7 15  1  0
  8 16  1  1
  9 17  1  0
  9 18  1  0
  9 19  1  0
 10 20  1  0
 10 21  1  0
 11 22  1  0
M  ISO  8  12  14  13  14  16   8  17   8  18   8  19   8  20   8  21   8
M  ISO  1  22  11
M  END
>  <minimizedAffinity>  (1) 
-3.54188728

>  <minimizedRMSD>  (1) 
0.813135326

$$$$
