
     RDKit          3D

 47 49  0  0  1  0  0  0  0  0999 V2000
   38.2370   23.3730   33.1550 C   0  0  2  0  0  0  0  0  0  0  0  0
   39.3460   23.7020   32.1700 C   0  0  0  0  0  0  0  0  0  0  0  0
   39.2120   22.9710   30.8780 C   0  0  0  0  0  0  0  0  0  0  0  0
   37.8970   23.2700   30.2420 C   0  0  0  0  0  0  0  0  0  0  0  0
   36.9410   23.9280   31.1770 C   0  0  0  0  0  0  0  0  0  0  0  0
   36.9220   23.1260   32.4700 C   0  0  1  0  0  0  0  0  0  0  0  0
   36.4560   21.7690   32.3640 C   0  0  0  0  0  0  0  0  0  0  0  0
   37.1350   20.5710   32.4340 C   0  0  0  0  0  0  0  0  0  0  0  0
   36.6040   19.3300   32.3060 C   0  0  0  0  0  0  0  0  0  0  0  0
   35.2660   19.1810   32.0850 C   0  0  0  0  0  0  0  0  0  0  0  0
   34.4890   20.3160   31.9990 C   0  0  0  0  0  0  0  0  0  0  0  0
   35.0850   21.5500   32.1360 C   0  0  0  0  0  0  0  0  0  0  0  0
   38.0780   24.6450   33.9390 C   0  0  0  0  0  0  0  0  0  0  0  0
   39.2130   24.9480   34.7890 C   0  0  2  0  0  0  0  0  0  0  0  0
   38.0360   24.8480   37.0390 C   0  0  0  0  0  0  0  0  0  0  0  0
   39.0070   24.4150   36.1460 C   0  0  0  0  0  0  0  0  0  0  0  0
   39.8490   23.3640   36.5780 C   0  0  0  0  0  0  0  0  0  0  0  0
   39.6670   22.8340   37.8290 N   0  0  0  0  0  0  0  0  0  0  0  0
   38.7060   23.3040   38.6420 C   0  0  0  0  0  0  0  0  0  0  0  0
   37.9100   24.2920   38.2470 N   0  0  0  0  0  0  0  0  0  0  0  0
   40.9050   22.8240   35.7620 N   0  0  0  0  0  0  0  0  0  0  0  0
   39.4250   26.4610   34.9050 C   0  0  0  0  0  0  0  0  0  0  0  0
   38.4878   22.4741   33.7374 H   0  0  0  0  0  0  0  0  0  0  0  0
   39.3242   24.7826   31.9654 H   0  0  0  0  0  0  0  0  0  0  0  0
   40.2964   23.3903   32.6278 H   0  0  0  0  0  0  0  0  0  0  0  0
   40.0208   23.2823   30.2005 H   0  0  0  0  0  0  0  0  0  0  0  0
   39.2750   21.8902   31.0729 H   0  0  0  0  0  0  0  0  0  0  0  0
   38.0650   23.9372   29.3837 H   0  0  0  0  0  0  0  0  0  0  0  0
   37.4527   22.3124   29.9328 H   0  0  0  0  0  0  0  0  0  0  0  0
   37.2678   24.9583   31.3813 H   0  0  0  0  0  0  0  0  0  0  0  0
   35.9349   23.9627   30.7336 H   0  0  0  0  0  0  0  0  0  0  0  0
   36.1216   23.4837   33.1344 H   0  0  0  0  0  0  0  0  0  0  0  0
   38.2190   20.6279   32.6120 H   0  0  0  0  0  0  0  0  0  0  0  0
   37.2516   18.4439   32.3803 H   0  0  0  0  0  0  0  0  0  0  0  0
   34.8192   18.1815   31.9783 H   0  0  0  0  0  0  0  0  0  0  0  0
   33.4060   20.2373   31.8231 H   0  0  0  0  0  0  0  0  0  0  0  0
   34.4370   22.4357   32.0611 H   0  0  0  0  0  0  0  0  0  0  0  0
   37.9423   25.4756   33.2307 H   0  0  0  0  0  0  0  0  0  0  0  0
   37.2076   24.5113   34.5982 H   0  0  0  0  0  0  0  0  0  0  0  0
   40.0946   24.4798   34.3269 H   0  0  0  0  0  0  0  0  0  0  0  0
   37.3583   25.6636   36.7464 H   0  0  0  0  0  0  0  0  0  0  0  0
   38.5771   22.8671   39.6433 H   0  0  0  0  0  0  0  0  0  0  0  0
   41.4925   22.0578   36.1207 H   0  0  0  0  0  0  0  0  0  0  0  0
   41.0730   23.2038   34.8195 H   0  0  0  0  0  0  0  0  0  0  0  0
   39.4648   26.7453   35.9669 H   0  0  0  0  0  0  0  0  0  0  0  0
   40.3706   26.7373   34.4157 H   0  0  0  0  0  0  0  0  0  0  0  0
   38.5917   26.9866   34.4157 H   0  0  0  0  0  0  0  0  0  0  0  0
  1 13  1  0
  2  1  1  0
  3  2  1  0
  4  3  1  0
  4  5  1  0
  5  6  1  0
  6  1  1  0
  7  8  2  0
  7  6  1  0
  9  8  1  0
 10  9  2  0
 11 10  1  0
 11 12  2  0
 12  7  1  0
 13 14  1  0
 14 22  1  0
 14 16  1  0
 15 20  2  0
 16 17  2  0
 16 15  1  0
 17 18  1  0
 18 19  2  0
 20 19  1  0
 21 17  1  0
  1 23  1  1
  2 24  1  0
  2 25  1  0
  3 26  1  0
  3 27  1  0
  4 28  1  0
  4 29  1  0
  5 30  1  0
  5 31  1  0
  6 32  1  1
  8 33  1  0
  9 34  1  0
 10 35  1  0
 11 36  1  0
 12 37  1  0
 13 38  1  0
 13 39  1  0
 14 40  1  6
 15 41  1  0
 19 42  1  0
 21 43  1  0
 21 44  1  0
 22 45  1  0
 22 46  1  0
 22 47  1  0
M  ISO  8  23  13  24  13  25  13  26  13  27  13  28  13  29  13  30  13
M  ISO  8  31  13  32  13  33  14  34  14  35  14  36  14  37  14  38   8
M  ISO  7  39   8  40   8  41  14  42  14  45   8  46   8  47   8
M  END
>  <minimizedAffinity>  (1) 
-5.23102379

>  <minimizedRMSD>  (1) 
3.83840013

$$$$
