
     RDKit          3D

 51 54  0  0  1  0  0  0  0  0999 V2000
   41.6830   24.0900   34.0380 C   0  0  2  0  0  0  0  0  0  0  0  0
   42.9870   23.6110   33.4190 C   0  0  0  0  0  0  0  0  0  0  0  0
   43.4230   22.2950   33.9860 C   0  0  0  0  0  0  0  0  0  0  0  0
   42.3940   21.2570   33.6750 C   0  0  0  0  0  0  0  0  0  0  0  0
   41.0600   21.8650   33.4080 C   0  0  0  0  0  0  0  0  0  0  0  0
   40.7310   22.9410   34.3340 C   0  0  1  0  0  0  0  0  0  0  0  0
   40.4860   22.6830   35.7420 C   0  0  0  0  0  0  0  0  0  0  0  0
   41.0690   21.7750   36.5900 C   0  0  0  0  0  0  0  0  0  0  0  0
   40.5710   21.8460   37.8380 N   0  0  0  0  0  0  0  0  0  0  0  0
   39.6330   22.8100   37.8600 C   0  0  0  0  0  0  0  0  0  0  0  0
   38.8000   23.3240   38.8380 C   0  0  0  0  0  0  0  0  0  0  0  0
   37.8940   24.3540   38.5810 C   0  0  0  0  0  0  0  0  0  0  0  0
   37.8440   24.8630   37.3040 C   0  0  0  0  0  0  0  0  0  0  0  0
   38.6690   24.3540   36.3370 C   0  0  0  0  0  0  0  0  0  0  0  0
   39.5730   23.3200   36.6070 C   0  0  0  0  0  0  0  0  0  0  0  0
   41.0720   24.9160   32.9600 C   0  0  0  0  0  0  0  0  0  0  0  0
   40.0200   25.7980   33.4180 C   0  0  2  0  0  0  0  0  0  0  0  0
   40.0930   27.2390   31.3230 C   0  0  0  0  0  0  0  0  0  0  0  0
   39.4040   26.4890   32.2680 C   0  0  0  0  0  0  0  0  0  0  0  0
   38.0020   26.3680   32.1000 C   0  0  0  0  0  0  0  0  0  0  0  0
   37.4040   26.9840   31.0310 N   0  0  0  0  0  0  0  0  0  0  0  0
   38.1320   27.6940   30.1550 C   0  0  0  0  0  0  0  0  0  0  0  0
   39.4540   27.8160   30.3020 N   0  0  0  0  0  0  0  0  0  0  0  0
   37.1660   25.6310   33.0120 N   0  0  0  0  0  0  0  0  0  0  0  0
   40.5550   26.8550   34.3760 C   0  0  0  0  0  0  0  0  0  0  0  0
   41.8644   24.6133   34.9884 H   0  0  0  0  0  0  0  0  0  0  0  0
   43.7694   24.3592   33.6140 H   0  0  0  0  0  0  0  0  0  0  0  0
   42.8244   23.4803   32.3390 H   0  0  0  0  0  0  0  0  0  0  0  0
   44.3853   22.0035   33.5398 H   0  0  0  0  0  0  0  0  0  0  0  0
   43.5383   22.3840   35.0763 H   0  0  0  0  0  0  0  0  0  0  0  0
   42.7134   20.6938   32.7857 H   0  0  0  0  0  0  0  0  0  0  0  0
   42.3002   20.5951   34.5485 H   0  0  0  0  0  0  0  0  0  0  0  0
   41.0571   22.2693   32.3850 H   0  0  0  0  0  0  0  0  0  0  0  0
   40.3055   21.0753   33.5385 H   0  0  0  0  0  0  0  0  0  0  0  0
   39.6808   23.1882   34.1195 H   0  0  0  0  0  0  0  0  0  0  0  0
   41.8548   21.0688   36.2839 H   0  0  0  0  0  0  0  0  0  0  0  0
   40.8581   21.2635   38.6375 H   0  0  0  0  0  0  0  0  0  0  0  0
   38.8538   22.9060   39.8541 H   0  0  0  0  0  0  0  0  0  0  0  0
   37.2407   24.7463   39.3743 H   0  0  0  0  0  0  0  0  0  0  0  0
   37.1439   25.6758   37.0606 H   0  0  0  0  0  0  0  0  0  0  0  0
   38.6200   24.7693   35.3196 H   0  0  0  0  0  0  0  0  0  0  0  0
   40.6502   24.2389   32.2026 H   0  0  0  0  0  0  0  0  0  0  0  0
   41.8713   25.5562   32.5583 H   0  0  0  0  0  0  0  0  0  0  0  0
   39.2780   25.1777   33.9420 H   0  0  0  0  0  0  0  0  0  0  0  0
   41.1823   27.3595   31.4172 H   0  0  0  0  0  0  0  0  0  0  0  0
   37.6333   28.1820   29.3046 H   0  0  0  0  0  0  0  0  0  0  0  0
   36.1510   25.5719   32.8470 H   0  0  0  0  0  0  0  0  0  0  0  0
   37.5830   25.1630   33.8293 H   0  0  0  0  0  0  0  0  0  0  0  0
   40.3893   26.5276   35.4130 H   0  0  0  0  0  0  0  0  0  0  0  0
   41.6323   26.9947   34.2033 H   0  0  0  0  0  0  0  0  0  0  0  0
   40.0297   27.8059   34.2033 H   0  0  0  0  0  0  0  0  0  0  0  0
  1  6  1  0
  2  3  1  0
  2  1  1  0
  4  3  1  0
  5  4  1  0
  5  6  1  0
  6  7  1  0
  7  8  2  0
  7 15  1  0
  8  9  1  0
  9 10  1  0
 10 11  2  0
 12 11  1  0
 13 12  2  0
 14 15  2  0
 14 13  1  0
 15 10  1  0
 16 17  1  0
 16  1  1  0
 17 25  1  0
 18 19  2  0
 19 17  1  0
 20 19  1  0
 20 24  1  0
 21 20  2  0
 22 23  2  0
 22 21  1  0
 23 18  1  0
  1 26  1  1
  2 27  1  0
  2 28  1  0
  3 29  1  0
  3 30  1  0
  4 31  1  0
  4 32  1  0
  5 33  1  0
  5 34  1  0
  6 35  1  6
  8 36  1  0
  9 37  1  0
 11 38  1  0
 12 39  1  0
 13 40  1  0
 14 41  1  0
 16 42  1  0
 16 43  1  0
 17 44  1  1
 18 45  1  0
 22 46  1  0
 24 47  1  0
 24 48  1  0
 25 49  1  0
 25 50  1  0
 25 51  1  0
M  ISO  8  26  13  27  13  28  13  29  13  30  13  31  13  32  13  33  13
M  ISO  8  34  13  35  13  36  14  37   9  38  14  39  14  40  14  41  14
M  ISO  8  42   8  43   8  44   8  45  14  46  14  49   8  50   8  51   8
M  END
>  <minimizedAffinity>  (1) 
-5.54550362

>  <minimizedRMSD>  (1) 
7.65538216

$$$$
