
     RDKit          3D

 46 48  0  0  1  0  0  0  0  0999 V2000
   37.4440   22.3680   34.8600 C   0  0  2  0  0  0  0  0  0  0  0  0
   36.6340   21.1290   35.2020 C   0  0  0  0  0  0  0  0  0  0  0  0
   35.6750   20.7480   34.1240 C   0  0  0  0  0  0  0  0  0  0  0  0
   36.3960   20.5060   32.8420 C   0  0  0  0  0  0  0  0  0  0  0  0
   37.7940   21.0350   32.8580 C   0  0  0  0  0  0  0  0  0  0  0  0
   37.7440   22.4640   33.3910 C   0  0  1  0  0  0  0  0  0  0  0  0
   36.9720   23.3900   32.6010 C   0  0  0  0  0  0  0  0  0  0  0  0
   36.0550   23.1750   31.5970 C   0  0  0  0  0  0  0  0  0  0  0  0
   35.3870   24.1260   30.8930 C   0  0  0  0  0  0  0  0  0  0  0  0
   35.6190   25.4550   31.1800 C   0  0  0  0  0  0  0  0  0  0  0  0
   36.5340   25.6980   32.1830 C   0  0  0  0  0  0  0  0  0  0  0  0
   37.1720   24.7230   32.8520 N   0  0  0  0  0  0  0  0  0  0  0  0
   38.7560   22.1290   35.5550 C   0  0  0  0  0  0  0  0  0  0  0  0
   39.1140   23.1850   36.4800 C   0  0  2  0  0  0  0  0  0  0  0  0
   41.1950   24.1400   35.3860 C   0  0  0  0  0  0  0  0  0  0  0  0
   39.8790   24.2470   35.8090 C   0  0  0  0  0  0  0  0  0  0  0  0
   39.2220   25.4730   35.5510 C   0  0  0  0  0  0  0  0  0  0  0  0
   39.9070   26.4700   34.9080 N   0  0  0  0  0  0  0  0  0  0  0  0
   41.1830   26.2940   34.5270 C   0  0  0  0  0  0  0  0  0  0  0  0
   41.8110   25.1470   34.7650 N   0  0  0  0  0  0  0  0  0  0  0  0
   37.8630   25.7270   35.9440 N   0  0  0  0  0  0  0  0  0  0  0  0
   39.9810   22.6320   37.6240 C   0  0  0  0  0  0  0  0  0  0  0  0
   36.9037   23.2808   35.1512 H   0  0  0  0  0  0  0  0  0  0  0  0
   37.3270   20.2910   35.3679 H   0  0  0  0  0  0  0  0  0  0  0  0
   36.0454   21.3570   36.1029 H   0  0  0  0  0  0  0  0  0  0  0  0
   35.1449   19.8306   34.4194 H   0  0  0  0  0  0  0  0  0  0  0  0
   34.9595   21.5708   33.9787 H   0  0  0  0  0  0  0  0  0  0  0  0
   35.8427   20.9983   32.0287 H   0  0  0  0  0  0  0  0  0  0  0  0
   36.4541   19.4176   32.6937 H   0  0  0  0  0  0  0  0  0  0  0  0
   38.4223   20.4130   33.5124 H   0  0  0  0  0  0  0  0  0  0  0  0
   38.2242   21.0165   31.8458 H   0  0  0  0  0  0  0  0  0  0  0  0
   38.7191   22.9608   33.2794 H   0  0  0  0  0  0  0  0  0  0  0  0
   35.8415   22.1273   31.3385 H   0  0  0  0  0  0  0  0  0  0  0  0
   34.6726   23.8406   30.1068 H   0  0  0  0  0  0  0  0  0  0  0  0
   35.1076   26.2681   30.6439 H   0  0  0  0  0  0  0  0  0  0  0  0
   36.7525   26.7428   32.4487 H   0  0  0  0  0  0  0  0  0  0  0  0
   38.6885   21.1836   36.1133 H   0  0  0  0  0  0  0  0  0  0  0  0
   39.5351   22.0968   34.7792 H   0  0  0  0  0  0  0  0  0  0  0  0
   38.1734   23.5969   36.8746 H   0  0  0  0  0  0  0  0  0  0  0  0
   41.7434   23.2037   35.5666 H   0  0  0  0  0  0  0  0  0  0  0  0
   41.7141   27.1082   34.0123 H   0  0  0  0  0  0  0  0  0  0  0  0
   37.4275   26.6364   35.7337 H   0  0  0  0  0  0  0  0  0  0  0  0
   37.3246   24.9996   36.4359 H   0  0  0  0  0  0  0  0  0  0  0  0
   39.5374   22.9149   38.5900 H   0  0  0  0  0  0  0  0  0  0  0  0
   40.0298   21.5356   37.5500 H   0  0  0  0  0  0  0  0  0  0  0  0
   40.9958   23.0500   37.5500 H   0  0  0  0  0  0  0  0  0  0  0  0
  1  2  1  0
  1 13  1  0
  3  2  1  0
  4  5  1  0
  4  3  1  0
  5  6  1  0
  6  1  1  0
  7 12  1  0
  7  6  1  0
  8  7  2  0
  9 10  2  0
  9  8  1  0
 10 11  1  0
 11 12  2  0
 13 14  1  0
 14 22  1  0
 15 16  2  0
 16 14  1  0
 17 16  1  0
 17 21  1  0
 18 17  2  0
 19 20  2  0
 19 18  1  0
 20 15  1  0
  1 23  1  1
  2 24  1  0
  2 25  1  0
  3 26  1  0
  3 27  1  0
  4 28  1  0
  4 29  1  0
  5 30  1  0
  5 31  1  0
  6 32  1  1
  8 33  1  0
  9 34  1  0
 10 35  1  0
 11 36  1  0
 13 37  1  0
 13 38  1  0
 14 39  1  1
 15 40  1  0
 19 41  1  0
 21 42  1  0
 21 43  1  0
 22 44  1  0
 22 45  1  0
 22 46  1  0
M  ISO  8  23  13  24  13  25  13  26  13  27  13  28  13  29  13  30  13
M  ISO  8  31  13  32  13  33  14  34  14  35  14  36  14  37   8  38   8
M  ISO  6  39   8  40  14  41  14  44   8  45   8  46   8
M  END
>  <minimizedAffinity>  (1) 
-5.04740953

>  <minimizedRMSD>  (1) 
3.90548944

$$$$
