
     RDKit          3D

 50 52  0  0  1  0  0  0  0  0999 V2000
   37.5610   22.4640   34.1330 C   0  0  2  0  0  0  0  0  0  0  0  0
   36.7850   21.2110   34.4870 C   0  0  0  0  0  0  0  0  0  0  0  0
   35.6270   20.9390   33.5720 C   0  0  0  0  0  0  0  0  0  0  0  0
   36.1060   20.8200   32.1590 C   0  0  0  0  0  0  0  0  0  0  0  0
   37.4910   21.3550   31.9800 C   0  0  0  0  0  0  0  0  0  0  0  0
   37.5990   22.7020   32.6300 C   0  0  1  0  0  0  0  0  0  0  0  0
   36.9250   23.7680   32.0910 N   0  0  0  0  0  0  0  0  0  0  0  0
   36.0880   23.7900   31.0020 C   0  0  0  0  0  0  0  0  0  0  0  0
   35.0810   24.9580   31.0710 C   0  0  0  0  0  0  0  0  0  0  0  0
   35.7330   26.1710   31.0670 O   0  0  0  0  0  0  0  0  0  0  0  0
   37.0080   26.1070   31.6170 C   0  0  0  0  0  0  0  0  0  0  0  0
   37.0250   25.0520   32.7180 C   0  0  0  0  0  0  0  0  0  0  0  0
   38.9490   22.1600   34.5740 C   0  0  0  0  0  0  0  0  0  0  0  0
   39.2970   22.7740   35.8430 C   0  0  2  0  0  0  0  0  0  0  0  0
   40.1150   24.9870   34.8940 C   0  0  0  0  0  0  0  0  0  0  0  0
   39.2690   24.2400   35.7320 C   0  0  0  0  0  0  0  0  0  0  0  0
   38.3210   24.9480   36.4870 C   0  0  0  0  0  0  0  0  0  0  0  0
   38.2590   26.3140   36.3830 N   0  0  0  0  0  0  0  0  0  0  0  0
   39.0960   26.9770   35.5650 C   0  0  0  0  0  0  0  0  0  0  0  0
   40.0010   26.3220   34.8400 N   0  0  0  0  0  0  0  0  0  0  0  0
   37.4130   24.3050   37.3900 N   0  0  0  0  0  0  0  0  0  0  0  0
   40.7160   22.3670   36.2860 C   0  0  0  0  0  0  0  0  0  0  0  0
   37.1081   23.3523   34.5976 H   0  0  0  0  0  0  0  0  0  0  0  0
   37.4719   20.3530   34.4421 H   0  0  0  0  0  0  0  0  0  0  0  0
   36.3695   21.3643   35.4939 H   0  0  0  0  0  0  0  0  0  0  0  0
   35.1394   19.9995   33.8714 H   0  0  0  0  0  0  0  0  0  0  0  0
   34.9103   21.7706   33.6408 H   0  0  0  0  0  0  0  0  0  0  0  0
   36.0974   19.7583   31.8712 H   0  0  0  0  0  0  0  0  0  0  0  0
   35.4320   21.4147   31.5250 H   0  0  0  0  0  0  0  0  0  0  0  0
   38.2122   20.6660   32.4439 H   0  0  0  0  0  0  0  0  0  0  0  0
   37.7096   21.4495   30.9061 H   0  0  0  0  0  0  0  0  0  0  0  0
   38.5648   23.1574   32.3658 H   0  0  0  0  0  0  0  0  0  0  0  0
   35.5308   22.8424   30.9630 H   0  0  0  0  0  0  0  0  0  0  0  0
   36.7050   23.9257   30.1015 H   0  0  0  0  0  0  0  0  0  0  0  0
   34.4103   24.9069   30.2006 H   0  0  0  0  0  0  0  0  0  0  0  0
   34.5064   24.8714   32.0050 H   0  0  0  0  0  0  0  0  0  0  0  0
   37.7329   25.8353   30.8355 H   0  0  0  0  0  0  0  0  0  0  0  0
   37.2790   27.0863   32.0384 H   0  0  0  0  0  0  0  0  0  0  0  0
   36.1731   25.2050   33.3969 H   0  0  0  0  0  0  0  0  0  0  0  0
   37.9520   25.1230   33.3059 H   0  0  0  0  0  0  0  0  0  0  0  0
   39.0524   21.0694   34.6740 H   0  0  0  0  0  0  0  0  0  0  0  0
   39.6294   22.5735   33.8151 H   0  0  0  0  0  0  0  0  0  0  0  0
   38.5586   22.4282   36.5814 H   0  0  0  0  0  0  0  0  0  0  0  0
   40.8720   24.4755   34.2814 H   0  0  0  0  0  0  0  0  0  0  0  0
   39.0323   28.0729   35.4940 H   0  0  0  0  0  0  0  0  0  0  0  0
   36.7337   24.8660   37.9237 H   0  0  0  0  0  0  0  0  0  0  0  0
   37.4396   23.2818   37.5054 H   0  0  0  0  0  0  0  0  0  0  0  0
   40.7670   22.3524   37.3847 H   0  0  0  0  0  0  0  0  0  0  0  0
   40.9492   21.3657   35.8947 H   0  0  0  0  0  0  0  0  0  0  0  0
   41.4445   23.0924   35.8947 H   0  0  0  0  0  0  0  0  0  0  0  0
  1  2  1  0
  1 13  1  0
  3  2  1  0
  4  3  1  0
  5  4  1  0
  5  6  1  0
  6  1  1  0
  7  6  1  0
  7 12  1  0
  8  9  1  0
  8  7  1  0
 10  9  1  0
 10 11  1  0
 11 12  1  0
 13 14  1  0
 14 22  1  0
 15 16  2  0
 16 14  1  0
 16 17  1  0
 17 21  1  0
 18 17  2  0
 19 18  1  0
 20 15  1  0
 20 19  2  0
  1 23  1  1
  2 24  1  0
  2 25  1  0
  3 26  1  0
  3 27  1  0
  4 28  1  0
  4 29  1  0
  5 30  1  0
  5 31  1  0
  6 32  1  1
  8 33  1  0
  8 34  1  0
  9 35  1  0
  9 36  1  0
 11 37  1  0
 11 38  1  0
 12 39  1  0
 12 40  1  0
 13 41  1  0
 13 42  1  0
 14 43  1  1
 15 44  1  0
 19 45  1  0
 21 46  1  0
 21 47  1  0
 22 48  1  0
 22 49  1  0
 22 50  1  0
M  ISO  8  23  13  24  13  25  13  26  13  27  13  28  13  29  13  30  13
M  ISO  8  31  13  32  13  33  13  34  13  35  13  36  13  37  13  38  13
M  ISO  8  39  13  40  13  41   8  42   8  43   8  44  14  45  14  48   8
M  ISO  2  49   8  50   8
M  END
>  <minimizedAffinity>  (1) 
-5.05367088

>  <minimizedRMSD>  (1) 
3.51981401

$$$$
