
     RDKit          3D

 35 37  0  0  0  0  0  0  0  0999 V2000
   39.0030   22.9720   33.8430 C   0  0  0  0  0  0  0  0  0  0  0  0
   39.2710   22.1910   32.7300 C   0  0  0  0  0  0  0  0  0  0  0  0
   38.5910   22.7470   31.6640 C   0  0  0  0  0  0  0  0  0  0  0  0
   37.9330   23.8230   32.1040 N   0  0  0  0  0  0  0  0  0  0  0  0
   38.1880   23.9510   33.4210 N   0  0  0  0  0  0  0  0  0  0  0  0
   41.0920   21.9380   36.6670 C   0  0  0  0  0  0  0  0  0  0  0  0
   40.3620   22.4420   37.7790 C   0  0  0  0  0  0  0  0  0  0  0  0
   39.1770   23.1200   37.5070 C   0  0  0  0  0  0  0  0  0  0  0  0
   38.7790   23.2660   36.2200 N   0  0  0  0  0  0  0  0  0  0  0  0
   39.5020   22.7710   35.1910 C   0  0  0  0  0  0  0  0  0  0  0  0
   40.6590   22.1080   35.4280 N   0  0  0  0  0  0  0  0  0  0  0  0
   38.4630   23.6190   38.6910 C   0  0  0  0  0  0  0  0  0  0  0  0
   37.9250   24.8550   38.4140 F   0  0  0  0  0  0  0  0  0  0  0  0
   39.4160   23.8280   39.6790 F   0  0  0  0  0  0  0  0  0  0  0  0
   37.4560   22.7830   39.0920 F   0  0  0  0  0  0  0  0  0  0  0  0
   35.4260   26.3780   30.1400 N   0  0  0  0  0  0  0  0  0  0  0  0
   36.2490   27.0190   31.1340 C   0  0  0  0  0  0  0  0  0  0  0  0
   37.4230   26.1540   31.5430 C   0  0  0  0  0  0  0  0  0  0  0  0
   37.0960   24.6970   31.3110 C   0  0  0  0  0  0  0  0  0  0  0  0
   35.6530   24.3850   31.5810 C   0  0  0  0  0  0  0  0  0  0  0  0
   34.7550   25.2050   30.6670 C   0  0  0  0  0  0  0  0  0  0  0  0
   39.9074   21.2943   32.7009 H   0  0  0  0  0  0  0  0  0  0  0  0
   38.5913   22.3690   30.6310 H   0  0  0  0  0  0  0  0  0  0  0  0
   42.0339   21.3969   36.8401 H   0  0  0  0  0  0  0  0  0  0  0  0
   40.7187   22.3019   38.8101 H   0  0  0  0  0  0  0  0  0  0  0  0
   36.0206   26.0938   29.3484 H   0  0  0  0  0  0  0  0  0  0  0  0
   36.6312   27.9647   30.7223 H   0  0  0  0  0  0  0  0  0  0  0  0
   35.6296   27.1945   32.0259 H   0  0  0  0  0  0  0  0  0  0  0  0
   38.3043   26.4294   30.9451 H   0  0  0  0  0  0  0  0  0  0  0  0
   37.6333   26.3116   32.6112 H   0  0  0  0  0  0  0  0  0  0  0  0
   37.2974   24.5130   30.2454 H   0  0  0  0  0  0  0  0  0  0  0  0
   35.4734   23.3148   31.4011 H   0  0  0  0  0  0  0  0  0  0  0  0
   35.4227   24.6354   32.6271 H   0  0  0  0  0  0  0  0  0  0  0  0
   33.8722   25.5294   31.2374 H   0  0  0  0  0  0  0  0  0  0  0  0
   34.4729   24.5688   29.8151 H   0  0  0  0  0  0  0  0  0  0  0  0
  1 10  1  0
  2  1  1  0
  3  4  1  0
  3  2  2  0
  4  5  1  0
  5  1  2  0
  6  7  2  0
  8  7  1  0
  8 12  1  0
  9  8  2  0
 10 11  2  0
 10  9  1  0
 11  6  1  0
 12 15  1  0
 12 14  1  0
 13 12  1  0
 16 21  1  0
 16 17  1  0
 17 18  1  0
 19 18  1  0
 19 20  1  0
 19  4  1  0
 21 20  1  0
  2 22  1  0
  3 23  1  0
  6 24  1  0
  7 25  1  0
 16 26  1  0
 17 27  1  0
 17 28  1  0
 18 29  1  0
 18 30  1  0
 19 31  1  0
 20 32  1  0
 20 33  1  0
 21 34  1  0
 21 35  1  0
M  ISO  8  22  14  23  14  24  14  25  14  26   5  27  13  28  13  29  13
M  ISO  6  30  13  31  13  32  13  33  13  34  13  35  13
M  END
>  <minimizedAffinity>  (1) 
-5.64416933

>  <minimizedRMSD>  (1) 
1.09951186

$$$$
