
     RDKit          3D

 40 41  0  0  1  0  0  0  0  0999 V2000
   38.7870   22.2760   33.9610 C   0  0  0  0  0  0  0  0  0  0  0  0
   37.3350   22.2560   33.6450 C   0  0  2  0  0  0  0  0  0  0  0  0
   36.7640   21.2940   34.6720 C   0  0  0  0  0  0  0  0  0  0  0  0
   35.5320   20.6070   34.1710 C   0  0  0  0  0  0  0  0  0  0  0  0
   35.8610   19.8330   32.9300 C   0  0  0  0  0  0  0  0  0  0  0  0
   37.1570   20.2520   32.3160 C   0  0  0  0  0  0  0  0  0  0  0  0
   37.1750   21.7540   32.2330 C   0  0  1  0  0  0  0  0  0  0  0  0
   36.1830   22.4010   31.3870 C   0  0  0  0  0  0  0  0  0  0  0  0
   36.4950   23.4320   30.5990 F   0  0  0  0  0  0  0  0  0  0  0  0
   35.1610   22.8430   32.2260 F   0  0  0  0  0  0  0  0  0  0  0  0
   35.5760   21.4040   30.6130 F   0  0  0  0  0  0  0  0  0  0  0  0
   39.0920   22.6930   35.3110 C   0  0  2  0  0  0  0  0  0  0  0  0
   39.8980   25.0030   34.6330 C   0  0  0  0  0  0  0  0  0  0  0  0
   39.1060   24.1620   35.4040 C   0  0  0  0  0  0  0  0  0  0  0  0
   38.2360   24.7740   36.3330 C   0  0  0  0  0  0  0  0  0  0  0  0
   38.2050   26.1410   36.4370 N   0  0  0  0  0  0  0  0  0  0  0  0
   39.0020   26.8920   35.6560 C   0  0  0  0  0  0  0  0  0  0  0  0
   39.8250   26.3280   34.7780 N   0  0  0  0  0  0  0  0  0  0  0  0
   37.3650   24.0180   37.2060 N   0  0  0  0  0  0  0  0  0  0  0  0
   40.4580   22.1770   35.7620 C   0  0  0  0  0  0  0  0  0  0  0  0
   39.2823   22.9692   33.2652 H   0  0  0  0  0  0  0  0  0  0  0  0
   39.1477   21.2418   33.8596 H   0  0  0  0  0  0  0  0  0  0  0  0
   36.8286   23.2313   33.6941 H   0  0  0  0  0  0  0  0  0  0  0  0
   37.5235   20.5341   34.9080 H   0  0  0  0  0  0  0  0  0  0  0  0
   36.4907   21.8736   35.5661 H   0  0  0  0  0  0  0  0  0  0  0  0
   35.1559   19.9195   34.9430 H   0  0  0  0  0  0  0  0  0  0  0  0
   34.7613   21.3576   33.9415 H   0  0  0  0  0  0  0  0  0  0  0  0
   35.9223   18.7652   33.1871 H   0  0  0  0  0  0  0  0  0  0  0  0
   35.0663   20.0295   32.1953 H   0  0  0  0  0  0  0  0  0  0  0  0
   37.9939   19.9036   32.9391 H   0  0  0  0  0  0  0  0  0  0  0  0
   37.2601   19.8151   31.3118 H   0  0  0  0  0  0  0  0  0  0  0  0
   38.0365   22.0778   31.6305 H   0  0  0  0  0  0  0  0  0  0  0  0
   38.3102   22.2731   35.9610 H   0  0  0  0  0  0  0  0  0  0  0  0
   40.5921   24.5731   33.8958 H   0  0  0  0  0  0  0  0  0  0  0  0
   38.9722   27.9880   35.7452 H   0  0  0  0  0  0  0  0  0  0  0  0
   36.7472   24.5089   37.8680 H   0  0  0  0  0  0  0  0  0  0  0  0
   37.3626   22.9888   37.1656 H   0  0  0  0  0  0  0  0  0  0  0  0
   40.4994   22.1614   36.8611 H   0  0  0  0  0  0  0  0  0  0  0  0
   40.6115   21.1589   35.3748 H   0  0  0  0  0  0  0  0  0  0  0  0
   41.2463   22.8393   35.3748 H   0  0  0  0  0  0  0  0  0  0  0  0
  1 12  1  0
  2  1  1  0
  2  3  1  0
  4  3  1  0
  5  4  1  0
  6  5  1  0
  7  6  1  0
  7  2  1  0
  8 10  1  0
  8  7  1  0
  9  8  1  0
 11  8  1  0
 12 14  1  0
 12 20  1  0
 13 18  2  0
 13 14  1  0
 14 15  2  0
 15 16  1  0
 15 19  1  0
 17 16  2  0
 18 17  1  0
  1 21  1  0
  1 22  1  0
  2 23  1  6
  3 24  1  0
  3 25  1  0
  4 26  1  0
  4 27  1  0
  5 28  1  0
  5 29  1  0
  6 30  1  0
  6 31  1  0
  7 32  1  6
 12 33  1  1
 13 34  1  0
 17 35  1  0
 19 36  1  0
 19 37  1  0
 20 38  1  0
 20 39  1  0
 20 40  1  0
M  ISO  8  21   8  22   8  23  13  24  13  25  13  26  13  27  13  28  13
M  ISO  8  29  13  30  13  31  13  32  13  33   8  34  14  35  14  38   8
M  ISO  2  39   8  40   8
M  END
>  <minimizedAffinity>  (1) 
-4.83040333

>  <minimizedRMSD>  (1) 
2.11861372

$$$$
