
     RDKit          3D

 44 46  0  0  1  0  0  0  0  0999 V2000
   37.3980   22.3890   33.4150 C   0  0  2  0  0  0  0  0  0  0  0  0
   36.6470   21.1120   33.7570 C   0  0  0  0  0  0  0  0  0  0  0  0
   35.3370   21.0100   33.0330 C   0  0  0  0  0  0  0  0  0  0  0  0
   35.5730   20.9990   31.5610 C   0  0  0  0  0  0  0  0  0  0  0  0
   36.9250   21.5750   31.2110 C   0  0  0  0  0  0  0  0  0  0  0  0
   37.2180   22.7900   31.9700 C   0  0  1  0  0  0  0  0  0  0  0  0
   36.5060   23.9900   31.7180 N   0  0  0  0  0  0  0  0  0  0  0  0
   35.3880   24.2160   30.9480 C   0  0  0  0  0  0  0  0  0  0  0  0
   34.9980   25.5170   30.9580 C   0  0  0  0  0  0  0  0  0  0  0  0
   35.8820   26.1660   31.7550 N   0  0  0  0  0  0  0  0  0  0  0  0
   36.7420   25.2420   32.1760 C   0  0  0  0  0  0  0  0  0  0  0  0
   38.8230   22.0130   33.6140 C   0  0  0  0  0  0  0  0  0  0  0  0
   39.3200   22.2510   34.9480 C   0  0  2  0  0  0  0  0  0  0  0  0
   39.4880   24.7750   34.6680 C   0  0  0  0  0  0  0  0  0  0  0  0
   39.0330   23.6390   35.3480 C   0  0  0  0  0  0  0  0  0  0  0  0
   38.2240   23.8520   36.4860 C   0  0  0  0  0  0  0  0  0  0  0  0
   37.9250   25.1330   36.8710 N   0  0  0  0  0  0  0  0  0  0  0  0
   38.3950   26.1810   36.1740 C   0  0  0  0  0  0  0  0  0  0  0  0
   39.1640   26.0010   35.0900 N   0  0  0  0  0  0  0  0  0  0  0  0
   37.7020   22.7790   37.2780 N   0  0  0  0  0  0  0  0  0  0  0  0
   40.8250   22.0310   35.0360 C   0  0  0  0  0  0  0  0  0  0  0  0
   37.0457   23.2335   34.0255 H   0  0  0  0  0  0  0  0  0  0  0  0
   37.2717   20.2497   33.4810 H   0  0  0  0  0  0  0  0  0  0  0  0
   36.4346   21.1255   34.8362 H   0  0  0  0  0  0  0  0  0  0  0  0
   34.8280   20.0806   33.3282 H   0  0  0  0  0  0  0  0  0  0  0  0
   34.7096   21.8751   33.2938 H   0  0  0  0  0  0  0  0  0  0  0  0
   35.5222   19.9615   31.1989 H   0  0  0  0  0  0  0  0  0  0  0  0
   34.8003   21.6195   31.0837 H   0  0  0  0  0  0  0  0  0  0  0  0
   37.6982   20.8242   31.4309 H   0  0  0  0  0  0  0  0  0  0  0  0
   36.9156   21.8368   30.1426 H   0  0  0  0  0  0  0  0  0  0  0  0
   38.1536   23.1911   31.5531 H   0  0  0  0  0  0  0  0  0  0  0  0
   34.8664   23.4279   30.3851 H   0  0  0  0  0  0  0  0  0  0  0  0
   34.1396   25.9549   30.4274 H   0  0  0  0  0  0  0  0  0  0  0  0
   37.5819   25.4778   32.8461 H   0  0  0  0  0  0  0  0  0  0  0  0
   38.9304   20.9409   33.3927 H   0  0  0  0  0  0  0  0  0  0  0  0
   39.4138   22.6504   32.9397 H   0  0  0  0  0  0  0  0  0  0  0  0
   38.8153   21.5387   35.6172 H   0  0  0  0  0  0  0  0  0  0  0  0
   40.1199   24.6571   33.7754 H   0  0  0  0  0  0  0  0  0  0  0  0
   38.1453   27.2023   36.4973 H   0  0  0  0  0  0  0  0  0  0  0  0
   37.1160   22.9834   38.1000 H   0  0  0  0  0  0  0  0  0  0  0  0
   37.9126   21.8029   37.0256 H   0  0  0  0  0  0  0  0  0  0  0  0
   41.1279   21.9867   36.0925 H   0  0  0  0  0  0  0  0  0  0  0  0
   41.0869   21.0850   34.5395 H   0  0  0  0  0  0  0  0  0  0  0  0
   41.3468   22.8624   34.5395 H   0  0  0  0  0  0  0  0  0  0  0  0
  1 12  1  0
  1  2  1  0
  3  2  1  0
  4  3  1  0
  5  4  1  0
  5  6  1  0
  6  1  1  0
  7  6  1  0
  7 11  1  0
  8  9  2  0
  8  7  1  0
  9 10  1  0
 10 11  2  0
 12 13  1  0
 13 21  1  0
 13 15  1  0
 14 19  2  0
 14 15  1  0
 15 16  2  0
 16 17  1  0
 16 20  1  0
 18 17  2  0
 19 18  1  0
  1 22  1  1
  2 23  1  0
  2 24  1  0
  3 25  1  0
  3 26  1  0
  4 27  1  0
  4 28  1  0
  5 29  1  0
  5 30  1  0
  6 31  1  6
  8 32  1  0
  9 33  1  0
 11 34  1  0
 12 35  1  0
 12 36  1  0
 13 37  1  1
 14 38  1  0
 18 39  1  0
 20 40  1  0
 20 41  1  0
 21 42  1  0
 21 43  1  0
 21 44  1  0
M  ISO  8  22  13  23  13  24  13  25  13  26  13  27  13  28  13  29  13
M  ISO  8  30  13  31  13  32  14  33  14  34  14  35   8  36   8  37   8
M  ISO  5  38  14  39  14  42   8  43   8  44   8
M  END
>  <minimizedAffinity>  (1) 
-4.96209097

>  <minimizedRMSD>  (1) 
2.81629729

$$$$
