
     RDKit          3D

 27 29  0  0  0  0  0  0  0  0999 V2000
   38.0010   24.0160   33.7220 C   0  0  0  0  0  0  0  0  0  0  0  0
   37.3660   23.2700   32.7590 C   0  0  0  0  0  0  0  0  0  0  0  0
   36.8460   24.1500   31.8250 C   0  0  0  0  0  0  0  0  0  0  0  0
   37.1630   25.3890   32.2220 N   0  0  0  0  0  0  0  0  0  0  0  0
   37.8590   25.3070   33.3640 N   0  0  0  0  0  0  0  0  0  0  0  0
   40.4200   22.3590   35.9180 C   0  0  0  0  0  0  0  0  0  0  0  0
   39.9090   22.6580   37.2050 C   0  0  0  0  0  0  0  0  0  0  0  0
   38.7400   23.4270   37.2770 C   0  0  0  0  0  0  0  0  0  0  0  0
   38.1720   23.8350   36.1140 N   0  0  0  0  0  0  0  0  0  0  0  0
   38.6960   23.5250   34.9030 C   0  0  0  0  0  0  0  0  0  0  0  0
   39.8200   22.7850   34.8200 N   0  0  0  0  0  0  0  0  0  0  0  0
   38.2620   23.7030   38.6380 C   0  0  0  0  0  0  0  0  0  0  0  0
   37.7260   24.9510   38.6850 F   0  0  0  0  0  0  0  0  0  0  0  0
   39.3690   23.6830   39.4600 F   0  0  0  0  0  0  0  0  0  0  0  0
   37.2940   22.7970   39.0410 F   0  0  0  0  0  0  0  0  0  0  0  0
   36.9240   26.6960   31.7070 C   0  0  0  0  0  0  0  0  0  0  0  0
   37.0830   27.8140   32.4990 C   0  0  0  0  0  0  0  0  0  0  0  0
   36.7940   28.9170   31.7660 N   0  0  0  0  0  0  0  0  0  0  0  0
   36.4660   28.4530   30.5470 C   0  0  0  0  0  0  0  0  0  0  0  0
   36.5380   27.1100   30.4870 N   0  0  0  0  0  0  0  0  0  0  0  0
   37.2853   22.1732   32.7344 H   0  0  0  0  0  0  0  0  0  0  0  0
   36.2771   23.8809   30.9228 H   0  0  0  0  0  0  0  0  0  0  0  0
   41.3374   21.7584   35.8304 H   0  0  0  0  0  0  0  0  0  0  0  0
   40.4119   22.2993   38.1152 H   0  0  0  0  0  0  0  0  0  0  0  0
   37.3939   27.8110   33.5542 H   0  0  0  0  0  0  0  0  0  0  0  0
   36.1742   29.0933   29.7015 H   0  0  0  0  0  0  0  0  0  0  0  0
   36.3373   26.5171   29.6690 H   0  0  0  0  0  0  0  0  0  0  0  0
  1 10  1  0
  2  1  1  0
  3  4  1  0
  3  2  2  0
  4  5  1  0
  5  1  2  0
  6  7  2  0
  7  8  1  0
  8 12  1  0
  9  8  2  0
 10  9  1  0
 11 10  2  0
 11  6  1  0
 12 13  1  0
 12 15  1  0
 12 14  1  0
 16  4  1  0
 16 17  2  0
 18 17  1  0
 19 18  2  0
 20 19  1  0
 20 16  1  0
  2 21  1  0
  3 22  1  0
  6 23  1  0
  7 24  1  0
 17 25  1  0
 19 26  1  0
 20 27  1  0
M  ISO  7  21  14  22  14  23  14  24  14  25  14  26  14  27   9
M  END
>  <minimizedAffinity>  (1) 
-5.41888428

>  <minimizedRMSD>  (1) 
1.85060942

$$$$
