
     RDKit          3D

 39 41  0  0  1  0  0  0  0  0999 V2000
   37.6230   24.1170   33.0330 C   0  0  0  0  0  0  0  0  0  0  0  0
   37.4140   25.4950   33.2130 C   0  0  0  0  0  0  0  0  0  0  0  0
   36.6110   26.1070   32.2550 C   0  0  0  0  0  0  0  0  0  0  0  0
   36.0750   25.3550   31.2090 C   0  0  0  0  0  0  0  0  0  0  0  0
   36.3360   23.9930   31.1150 C   0  0  0  0  0  0  0  0  0  0  0  0
   37.1230   23.3190   32.0260 C   0  0  0  0  0  0  0  0  0  0  0  0
   37.2280   21.9270   31.7110 C   0  0  2  0  0  0  0  0  0  0  0  0
   37.9460   21.5950   30.4260 C   0  0  0  0  0  0  0  0  0  0  0  0
   37.7450   20.0710   30.4450 C   0  0  0  0  0  0  0  0  0  0  0  0
   36.3660   19.8780   31.0810 C   0  0  0  0  0  0  0  0  0  0  0  0
   35.8590   21.3000   31.3300 C   0  0  1  0  0  0  0  0  0  0  0  0
   34.9840   21.2240   32.5420 C   0  0  0  0  0  0  0  0  0  0  0  0
   35.5620   20.3820   33.6460 C   0  0  0  0  0  0  0  0  0  0  0  0
   37.8550   22.8960   35.1700 C   0  0  0  0  0  0  0  0  0  0  0  0
   38.4710   23.5070   34.0460 C   0  0  0  0  0  0  0  0  0  0  0  0
   39.8560   23.5120   33.9310 C   0  0  0  0  0  0  0  0  0  0  0  0
   40.6180   22.9410   34.8820 N   0  0  0  0  0  0  0  0  0  0  0  0
   40.0090   22.3490   35.9740 C   0  0  0  0  0  0  0  0  0  0  0  0
   38.6510   22.3290   36.1120 N   0  0  0  0  0  0  0  0  0  0  0  0
   37.8547   26.0516   34.0532 H   0  0  0  0  0  0  0  0  0  0  0  0
   36.3988   27.1842   32.3225 H   0  0  0  0  0  0  0  0  0  0  0  0
   35.4417   25.8433   30.4537 H   0  0  0  0  0  0  0  0  0  0  0  0
   35.8966   23.4288   30.2792 H   0  0  0  0  0  0  0  0  0  0  0  0
   37.7258   21.5642   32.6223 H   0  0  0  0  0  0  0  0  0  0  0  0
   39.0095   21.8739   30.4606 H   0  0  0  0  0  0  0  0  0  0  0  0
   37.5842   22.1150   29.5267 H   0  0  0  0  0  0  0  0  0  0  0  0
   37.7634   19.6630   29.4236 H   0  0  0  0  0  0  0  0  0  0  0  0
   38.5395   19.5497   30.9991 H   0  0  0  0  0  0  0  0  0  0  0  0
   35.6938   19.3394   30.3969 H   0  0  0  0  0  0  0  0  0  0  0  0
   36.4099   19.2810   32.0039 H   0  0  0  0  0  0  0  0  0  0  0  0
   35.2991   21.8138   30.5347 H   0  0  0  0  0  0  0  0  0  0  0  0
   34.8305   22.2435   32.9254 H   0  0  0  0  0  0  0  0  0  0  0  0
   34.0414   20.7492   32.2319 H   0  0  0  0  0  0  0  0  0  0  0  0
   35.2721   20.8044   34.6194 H   0  0  0  0  0  0  0  0  0  0  0  0
   35.1779   19.3546   33.5630 H   0  0  0  0  0  0  0  0  0  0  0  0
   36.6588   20.3712   33.5630 H   0  0  0  0  0  0  0  0  0  0  0  0
   36.7601   22.8825   35.2748 H   0  0  0  0  0  0  0  0  0  0  0  0
   40.3314   23.9847   33.0589 H   0  0  0  0  0  0  0  0  0  0  0  0
   40.6342   21.8831   36.7499 H   0  0  0  0  0  0  0  0  0  0  0  0
  1  2  2  0
  1 15  1  0
  3  2  1  0
  4  3  2  0
  5  4  1  0
  5  6  2  0
  6  1  1  0
  7  6  1  0
  8  9  1  0
  8  7  1  0
  9 10  1  0
 10 11  1  0
 11  7  1  0
 11 12  1  0
 12 13  1  0
 14 19  2  0
 15 14  1  0
 16 15  2  0
 16 17  1  0
 17 18  2  0
 18 19  1  0
  2 20  1  0
  3 21  1  0
  4 22  1  0
  5 23  1  0
  7 24  1  1
  8 25  1  0
  8 26  1  0
  9 27  1  0
  9 28  1  0
 10 29  1  0
 10 30  1  0
 11 31  1  6
 12 32  1  0
 12 33  1  0
 13 34  1  0
 13 35  1  0
 13 36  1  0
 14 37  1  0
 16 38  1  0
 18 39  1  0
M  ISO  8  20  14  21  14  22  14  23  14  24  13  25  13  26  13  27  13
M  ISO  8  28  13  29  13  30  13  31  13  32   8  33   8  34   8  35   8
M  ISO  4  36   8  37  14  38  14  39  14
M  END
>  <minimizedAffinity>  (1) 
-4.61010361

>  <minimizedRMSD>  (1) 
1.20228887

$$$$
