
     RDKit          3D

 40 42  0  0  1  0  0  0  0  0999 V2000
   37.3160   22.1650   31.8010 C   0  0  2  0  0  0  0  0  0  0  0  0
   37.8510   21.9220   30.3940 C   0  0  0  0  0  0  0  0  0  0  0  0
   37.6770   20.3950   30.3510 C   0  0  0  0  0  0  0  0  0  0  0  0
   36.4170   20.1290   31.1920 C   0  0  0  0  0  0  0  0  0  0  0  0
   35.9320   21.5290   31.5750 C   0  0  1  0  0  0  0  0  0  0  0  0
   37.7710   24.2510   33.2480 C   0  0  0  0  0  0  0  0  0  0  0  0
   37.6000   25.6210   33.5090 C   0  0  0  0  0  0  0  0  0  0  0  0
   36.8170   26.3160   32.5890 C   0  0  0  0  0  0  0  0  0  0  0  0
   36.2660   25.6440   31.5050 C   0  0  0  0  0  0  0  0  0  0  0  0
   36.4870   24.2860   31.3250 C   0  0  0  0  0  0  0  0  0  0  0  0
   37.2500   23.5390   32.1920 C   0  0  0  0  0  0  0  0  0  0  0  0
   37.9840   22.9900   35.3630 C   0  0  0  0  0  0  0  0  0  0  0  0
   38.5970   23.5610   34.2190 C   0  0  0  0  0  0  0  0  0  0  0  0
   39.9740   23.4460   34.0610 C   0  0  0  0  0  0  0  0  0  0  0  0
   40.7200   22.8020   34.9800 N   0  0  0  0  0  0  0  0  0  0  0  0
   40.0980   22.2530   36.0880 C   0  0  0  0  0  0  0  0  0  0  0  0
   38.7480   22.3480   36.2750 N   0  0  0  0  0  0  0  0  0  0  0  0
   35.2400   21.4460   32.8380 N   0  0  0  0  0  0  0  0  0  0  0  0
   35.4600   20.3070   33.6840 C   0  0  0  0  0  0  0  0  0  0  0  0
   35.6760   19.1600   33.1460 N   0  0  0  0  0  0  0  0  0  0  0  0
   35.4380   20.4400   35.1080 N   0  0  0  0  0  0  0  0  0  0  0  0
   35.6970   19.0310   32.1300 H   0  0  0  0  0  0  0  0  0  0  0  0
   37.9287   21.7644   32.6221 H   0  0  0  0  0  0  0  0  0  0  0  0
   37.2485   22.4305   29.6269 H   0  0  0  0  0  0  0  0  0  0  0  0
   38.8667   22.2950   30.1958 H   0  0  0  0  0  0  0  0  0  0  0  0
   37.5348   20.0485   29.3167 H   0  0  0  0  0  0  0  0  0  0  0  0
   38.5585   19.8618   30.7367 H   0  0  0  0  0  0  0  0  0  0  0  0
   35.6559   19.5986   30.6008 H   0  0  0  0  0  0  0  0  0  0  0  0
   36.6160   19.4933   32.0674 H   0  0  0  0  0  0  0  0  0  0  0  0
   35.2598   22.0398   30.8699 H   0  0  0  0  0  0  0  0  0  0  0  0
   38.0542   26.1126   34.3819 H   0  0  0  0  0  0  0  0  0  0  0  0
   36.6359   27.3930   32.7207 H   0  0  0  0  0  0  0  0  0  0  0  0
   35.6474   26.1948   30.7811 H   0  0  0  0  0  0  0  0  0  0  0  0
   36.0344   23.7875   30.4551 H   0  0  0  0  0  0  0  0  0  0  0  0
   36.8963   23.0687   35.5072 H   0  0  0  0  0  0  0  0  0  0  0  0
   40.4591   23.8852   33.1768 H   0  0  0  0  0  0  0  0  0  0  0  0
   40.7067   21.7263   36.8377 H   0  0  0  0  0  0  0  0  0  0  0  0
   34.5957   22.1949   33.1294 H   0  0  0  0  0  0  0  0  0  0  0  0
   35.5972   19.6157   35.7047 H   0  0  0  0  0  0  0  0  0  0  0  0
   35.2630   21.3601   35.5367 H   0  0  0  0  0  0  0  0  0  0  0  0
  1 11  1  0
  2  1  1  0
  3  2  1  0
  3  4  1  0
  4  5  1  0
  5  1  1  0
  5 18  1  0
  6  7  2  0
  6 13  1  0
  8  7  1  0
  9  8  2  0
 10  9  1  0
 10 11  2  0
 11  6  1  0
 12 17  2  0
 13 12  1  0
 14 13  2  0
 14 15  1  0
 15 16  2  0
 16 17  1  0
 18 19  1  0
 19 21  1  0
 20 19  2  0
 22 20  1  0
  1 23  1  1
  2 24  1  0
  2 25  1  0
  3 26  1  0
  3 27  1  0
  4 28  1  0
  4 29  1  0
  5 30  1  6
  7 31  1  0
  8 32  1  0
  9 33  1  0
 10 34  1  0
 12 35  1  0
 14 36  1  0
 16 37  1  0
 18 38  1  0
 21 39  1  0
 21 40  1  0
M  ISO  8  23  13  24  13  25  13  26  13  27  13  28  13  29  13  30  13
M  ISO  7  31  14  32  14  33  14  34  14  35  14  36  14  37  14
M  END
>  <minimizedAffinity>  (1) 
-4.92021179

>  <minimizedRMSD>  (1) 
1.37255239

$$$$
