
     RDKit          3D

 36 38  0  0  1  0  0  0  0  0999 V2000
   36.7740   25.4620   31.8950 C   0  0  0  0  0  0  0  0  0  0  0  0
   36.1500   24.6590   30.9200 C   0  0  0  0  0  0  0  0  0  0  0  0
   36.1850   23.2940   31.1540 C   0  0  0  0  0  0  0  0  0  0  0  0
   36.8130   22.8000   32.2990 C   0  0  0  0  0  0  0  0  0  0  0  0
   37.4030   23.6700   33.2080 C   0  0  0  0  0  0  0  0  0  0  0  0
   37.4050   25.0370   33.0400 C   0  0  0  0  0  0  0  0  0  0  0  0
   38.0600   25.7060   34.1250 C   0  0  2  0  0  0  0  0  0  0  0  0
   37.2830   26.8570   34.7350 C   0  0  0  0  0  0  0  0  0  0  0  0
   38.3420   27.3330   35.7400 C   0  0  0  0  0  0  0  0  0  0  0  0
   39.6850   27.0420   35.0670 C   0  0  0  0  0  0  0  0  0  0  0  0
   39.2910   26.5260   33.6740 C   0  0  1  0  0  0  0  0  0  0  0  0
   40.3510   25.6510   33.1220 C   0  0  0  0  0  0  0  0  0  0  0  0
   40.6870   25.7880   31.9090 O   0  0  0  0  0  0  0  0  0  0  0  0
   40.9360   24.7140   33.9630 O   0  0  0  0  0  0  0  0  0  0  0  0
   35.5860   27.6280   32.0220 C   0  0  0  0  0  0  0  0  0  0  0  0
   36.7270   26.8920   31.6140 C   0  0  0  0  0  0  0  0  0  0  0  0
   37.7720   27.5370   30.9610 C   0  0  0  0  0  0  0  0  0  0  0  0
   37.7030   28.8580   30.7150 N   0  0  0  0  0  0  0  0  0  0  0  0
   36.5840   29.5670   31.1180 C   0  0  0  0  0  0  0  0  0  0  0  0
   35.5460   28.9570   31.7600 N   0  0  0  0  0  0  0  0  0  0  0  0
   35.6662   25.0882   30.0302 H   0  0  0  0  0  0  0  0  0  0  0  0
   35.7187   22.6004   30.4388 H   0  0  0  0  0  0  0  0  0  0  0  0
   36.8409   21.7158   32.4826 H   0  0  0  0  0  0  0  0  0  0  0  0
   37.8894   23.2487   34.1001 H   0  0  0  0  0  0  0  0  0  0  0  0
   38.2397   24.8529   34.7958 H   0  0  0  0  0  0  0  0  0  0  0  0
   37.0369   27.6311   33.9933 H   0  0  0  0  0  0  0  0  0  0  0  0
   36.3007   26.6010   35.1588 H   0  0  0  0  0  0  0  0  0  0  0  0
   38.2329   28.4099   35.9358 H   0  0  0  0  0  0  0  0  0  0  0  0
   38.2478   26.8254   36.7113 H   0  0  0  0  0  0  0  0  0  0  0  0
   40.2911   27.9567   34.9894 H   0  0  0  0  0  0  0  0  0  0  0  0
   40.2968   26.3222   35.6306 H   0  0  0  0  0  0  0  0  0  0  0  0
   39.1231   27.2753   32.8864 H   0  0  0  0  0  0  0  0  0  0  0  0
   41.6469   24.1165   33.6199 H   0  0  0  0  0  0  0  0  0  0  0  0
   34.7520   27.1315   32.5396 H   0  0  0  0  0  0  0  0  0  0  0  0
   38.6572   26.9656   30.6448 H   0  0  0  0  0  0  0  0  0  0  0  0
   36.5306   30.6470   30.9159 H   0  0  0  0  0  0  0  0  0  0  0  0
  1  6  2  0
  2  3  2  0
  2  1  1  0
  3  4  1  0
  4  5  2  0
  6  5  1  0
  6  7  1  0
  7  8  1  0
  8  9  1  0
 10  9  1  0
 11  7  1  0
 11 10  1  0
 12 11  1  0
 12 14  1  0
 13 12  2  0
 16  1  1  0
 16 15  2  0
 17 16  1  0
 18 17  2  0
 18 19  1  0
 19 20  2  0
 20 15  1  0
  2 21  1  0
  3 22  1  0
  4 23  1  0
  5 24  1  0
  7 25  1  1
  8 26  1  0
  8 27  1  0
  9 28  1  0
  9 29  1  0
 10 30  1  0
 10 31  1  0
 11 32  1  6
 14 33  1  0
 15 34  1  0
 17 35  1  0
 19 36  1  0
M  ISO  8  21  14  22  14  23  14  24  14  25  13  26  13  27  13  28  13
M  ISO  8  29  13  30  13  31  13  32  13  33   3  34  14  35  14  36  14
M  END
>  <minimizedAffinity>  (1) 
-4.60874987

>  <minimizedRMSD>  (1) 
6.44869471

$$$$
