
     RDKit          3D

 41 44  0  0  1  0  0  0  0  0999 V2000
   38.9720   25.5580   31.7240 C   0  0  2  0  0  0  0  0  0  0  0  0
   39.7430   26.4960   30.8290 C   0  0  0  0  0  0  0  0  0  0  0  0
   40.3000   25.4790   29.8310 C   0  0  0  0  0  0  0  0  0  0  0  0
   39.2090   24.4140   29.7410 C   0  0  0  0  0  0  0  0  0  0  0  0
   38.0710   24.9460   30.6310 C   0  0  1  0  0  0  0  0  0  0  0  0
   38.0340   25.8940   34.1120 C   0  0  0  0  0  0  0  0  0  0  0  0
   37.2580   26.6190   35.0330 C   0  0  0  0  0  0  0  0  0  0  0  0
   36.6340   27.7560   34.5220 C   0  0  0  0  0  0  0  0  0  0  0  0
   36.8070   28.1010   33.1780 C   0  0  0  0  0  0  0  0  0  0  0  0
   37.5980   27.3200   32.3330 C   0  0  0  0  0  0  0  0  0  0  0  0
   38.2370   26.1890   32.7790 C   0  0  0  0  0  0  0  0  0  0  0  0
   37.9740   23.4900   34.6790 C   0  0  0  0  0  0  0  0  0  0  0  0
   38.6780   24.7200   34.6750 C   0  0  0  0  0  0  0  0  0  0  0  0
   39.9620   24.7840   35.2070 C   0  0  0  0  0  0  0  0  0  0  0  0
   40.5440   23.6870   35.7280 N   0  0  0  0  0  0  0  0  0  0  0  0
   39.8390   22.4890   35.7250 C   0  0  0  0  0  0  0  0  0  0  0  0
   38.5800   22.3990   35.2100 N   0  0  0  0  0  0  0  0  0  0  0  0
   37.3620   23.7360   31.0570 C   0  0  0  0  0  0  0  0  0  0  0  0
   36.0480   23.6090   31.3890 C   0  0  0  0  0  0  0  0  0  0  0  0
   35.4480   22.4330   31.7820 C   0  0  0  0  0  0  0  0  0  0  0  0
   36.2260   21.3290   31.8400 N   0  0  0  0  0  0  0  0  0  0  0  0
   37.5480   21.4210   31.5130 C   0  0  0  0  0  0  0  0  0  0  0  0
   38.0840   22.5880   31.1360 N   0  0  0  0  0  0  0  0  0  0  0  0
   39.5849   24.8616   32.3151 H   0  0  0  0  0  0  0  0  0  0  0  0
   39.0871   27.2331   30.3428 H   0  0  0  0  0  0  0  0  0  0  0  0
   40.4946   27.1193   31.3356 H   0  0  0  0  0  0  0  0  0  0  0  0
   40.4714   25.9470   28.8504 H   0  0  0  0  0  0  0  0  0  0  0  0
   41.2701   25.0659   30.1444 H   0  0  0  0  0  0  0  0  0  0  0  0
   38.8666   24.2959   28.7023 H   0  0  0  0  0  0  0  0  0  0  0  0
   39.5644   23.4249   30.0658 H   0  0  0  0  0  0  0  0  0  0  0  0
   37.3124   25.6459   30.2506 H   0  0  0  0  0  0  0  0  0  0  0  0
   37.1507   26.3107   36.0834 H   0  0  0  0  0  0  0  0  0  0  0  0
   36.0067   28.3807   35.1749 H   0  0  0  0  0  0  0  0  0  0  0  0
   36.3131   29.0001   32.7809 H   0  0  0  0  0  0  0  0  0  0  0  0
   37.7126   27.6189   31.2806 H   0  0  0  0  0  0  0  0  0  0  0  0
   36.9589   23.4217   34.2608 H   0  0  0  0  0  0  0  0  0  0  0  0
   40.5068   25.7396   35.2020 H   0  0  0  0  0  0  0  0  0  0  0  0
   40.3094   21.5898   36.1494 H   0  0  0  0  0  0  0  0  0  0  0  0
   35.4199   24.5107   31.3399 H   0  0  0  0  0  0  0  0  0  0  0  0
   34.3790   22.3938   32.0383 H   0  0  0  0  0  0  0  0  0  0  0  0
   38.1819   20.5232   31.5600 H   0  0  0  0  0  0  0  0  0  0  0  0
  1 11  1  0
  2  1  1  0
  3  2  1  0
  4  3  1  0
  4  5  1  0
  5 18  1  0
  5  1  1  0
  6 13  1  0
  6  7  2  0
  8  7  1  0
  9  8  2  0
 10 11  2  0
 10  9  1  0
 11  6  1  0
 12 17  2  0
 13 12  1  0
 13 14  2  0
 14 15  1  0
 16 15  2  0
 17 16  1  0
 18 23  1  0
 18 19  2  0
 19 20  1  0
 20 21  2  0
 22 21  1  0
 23 22  2  0
  1 24  1  1
  2 25  1  0
  2 26  1  0
  3 27  1  0
  3 28  1  0
  4 29  1  0
  4 30  1  0
  5 31  1  6
  7 32  1  0
  8 33  1  0
  9 34  1  0
 10 35  1  0
 12 36  1  0
 14 37  1  0
 16 38  1  0
 19 39  1  0
 20 40  1  0
 22 41  1  0
M  ISO  8  24  13  25  13  26  13  27  13  28  13  29  13  30  13  31  13
M  ISO  8  32  14  33  14  34  14  35  14  36  14  37  14  38  14  39  14
M  ISO  2  40  14  41  14
M  END
>  <minimizedAffinity>  (1) 
-4.89593744

>  <minimizedRMSD>  (1) 
4.47844648

$$$$
