
     RDKit          3D

 41 44  0  0  1  0  0  0  0  0999 V2000
   40.0260   23.6740   32.6790 C   0  0  2  0  0  0  0  0  0  0  0  0
   41.0760   22.6680   32.2290 C   0  0  0  0  0  0  0  0  0  0  0  0
   42.3260   23.4170   32.7120 C   0  0  0  0  0  0  0  0  0  0  0  0
   41.8660   24.1930   33.9560 C   0  0  0  0  0  0  0  0  0  0  0  0
   40.4260   23.6990   34.1620 C   0  0  1  0  0  0  0  0  0  0  0  0
   37.5140   23.9380   32.1050 C   0  0  0  0  0  0  0  0  0  0  0  0
   36.2310   23.3810   31.9500 C   0  0  0  0  0  0  0  0  0  0  0  0
   36.1360   22.0200   32.1820 C   0  0  0  0  0  0  0  0  0  0  0  0
   37.2650   21.2940   32.5420 C   0  0  0  0  0  0  0  0  0  0  0  0
   38.5040   21.9230   32.6750 C   0  0  0  0  0  0  0  0  0  0  0  0
   38.6680   23.2710   32.4590 C   0  0  0  0  0  0  0  0  0  0  0  0
   36.9800   26.2560   32.7770 C   0  0  0  0  0  0  0  0  0  0  0  0
   37.5870   25.3680   31.8510 C   0  0  0  0  0  0  0  0  0  0  0  0
   38.2310   25.8730   30.7260 C   0  0  0  0  0  0  0  0  0  0  0  0
   38.2840   27.1990   30.5070 N   0  0  0  0  0  0  0  0  0  0  0  0
   37.6850   28.0570   31.4250 C   0  0  0  0  0  0  0  0  0  0  0  0
   37.0470   27.5890   32.5350 N   0  0  0  0  0  0  0  0  0  0  0  0
   39.6430   24.6790   34.9370 C   0  0  0  0  0  0  0  0  0  0  0  0
   38.6090   24.4140   35.8150 C   0  0  0  0  0  0  0  0  0  0  0  0
   37.9300   25.3800   36.4970 C   0  0  0  0  0  0  0  0  0  0  0  0
   38.2860   26.6780   36.3060 N   0  0  0  0  0  0  0  0  0  0  0  0
   39.2970   26.9770   35.4530 C   0  0  0  0  0  0  0  0  0  0  0  0
   39.9600   25.9910   34.7810 N   0  0  0  0  0  0  0  0  0  0  0  0
   40.0230   24.6347   32.1432 H   0  0  0  0  0  0  0  0  0  0  0  0
   40.9577   21.6941   32.7265 H   0  0  0  0  0  0  0  0  0  0  0  0
   41.0590   22.4033   31.1614 H   0  0  0  0  0  0  0  0  0  0  0  0
   43.1257   22.7079   32.9720 H   0  0  0  0  0  0  0  0  0  0  0  0
   42.7355   24.0818   31.9372 H   0  0  0  0  0  0  0  0  0  0  0  0
   42.4943   23.9524   34.8262 H   0  0  0  0  0  0  0  0  0  0  0  0
   41.9357   25.2841   33.8353 H   0  0  0  0  0  0  0  0  0  0  0  0
   40.2847   22.7601   34.7175 H   0  0  0  0  0  0  0  0  0  0  0  0
   35.3599   23.9882   31.6630 H   0  0  0  0  0  0  0  0  0  0  0  0
   35.1655   21.5121   32.0813 H   0  0  0  0  0  0  0  0  0  0  0  0
   37.1814   20.2124   32.7240 H   0  0  0  0  0  0  0  0  0  0  0  0
   39.3782   21.3203   32.9621 H   0  0  0  0  0  0  0  0  0  0  0  0
   36.4667   25.8718   33.6709 H   0  0  0  0  0  0  0  0  0  0  0  0
   38.7005   25.1825   30.0100 H   0  0  0  0  0  0  0  0  0  0  0  0
   37.7277   29.1421   31.2499 H   0  0  0  0  0  0  0  0  0  0  0  0
   38.3175   23.3651   35.9724 H   0  0  0  0  0  0  0  0  0  0  0  0
   37.1137   25.1153   37.1852 H   0  0  0  0  0  0  0  0  0  0  0  0
   39.5864   28.0273   35.3007 H   0  0  0  0  0  0  0  0  0  0  0  0
  1  5  1  0
  2  1  1  0
  2  3  1  0
  3  4  1  0
  4  5  1  0
  5 18  1  0
  6 11  1  0
  7  6  2  0
  7  8  1  0
  8  9  2  0
  9 10  1  0
 11 10  2  0
 11  1  1  0
 13  6  1  0
 13 12  2  0
 14 13  1  0
 15 14  2  0
 15 16  1  0
 16 17  2  0
 17 12  1  0
 18 19  2  0
 19 20  1  0
 21 20  2  0
 22 21  1  0
 23 18  1  0
 23 22  2  0
  1 24  1  6
  2 25  1  0
  2 26  1  0
  3 27  1  0
  3 28  1  0
  4 29  1  0
  4 30  1  0
  5 31  1  1
  7 32  1  0
  8 33  1  0
  9 34  1  0
 10 35  1  0
 12 36  1  0
 14 37  1  0
 16 38  1  0
 19 39  1  0
 20 40  1  0
 22 41  1  0
M  ISO  8  24  13  25  13  26  13  27  13  28  13  29  13  30  13  31  13
M  ISO  8  32  14  33  14  34  14  35  14  36  14  37  14  38  14  39  14
M  ISO  2  40  14  41  14
M  END
>  <minimizedAffinity>  (1) 
-4.28024006

>  <minimizedRMSD>  (1) 
5.64615488

$$$$
