
     RDKit          3D

 35 37  0  0  1  0  0  0  0  0999 V2000
   37.3680   23.3550   32.7940 C   0  0  0  0  0  0  0  0  0  0  0  0
   37.2720   24.7530   32.6950 C   0  0  0  0  0  0  0  0  0  0  0  0
   36.2640   25.2360   31.8720 C   0  0  0  0  0  0  0  0  0  0  0  0
   35.4250   24.3340   31.2060 C   0  0  0  0  0  0  0  0  0  0  0  0
   35.5890   22.9580   31.3590 C   0  0  0  0  0  0  0  0  0  0  0  0
   36.5700   22.4250   32.1630 C   0  0  0  0  0  0  0  0  0  0  0  0
   36.5160   20.9900   32.1710 C   0  0  2  0  0  0  0  0  0  0  0  0
   36.1660   20.3450   30.8420 C   0  0  0  0  0  0  0  0  0  0  0  0
   36.1270   18.8780   31.3190 C   0  0  0  0  0  0  0  0  0  0  0  0
   35.6070   18.9550   32.7660 C   0  0  0  0  0  0  0  0  0  0  0  0
   35.3110   20.4420   32.9660 C   0  0  1  0  0  0  0  0  0  0  0  0
   35.4680   20.7620   34.3600 N   0  0  0  0  0  0  0  0  0  0  0  0
   38.2020   22.7790   35.0490 C   0  0  0  0  0  0  0  0  0  0  0  0
   38.4410   22.8860   33.6560 C   0  0  0  0  0  0  0  0  0  0  0  0
   39.6860   22.5450   33.1410 C   0  0  0  0  0  0  0  0  0  0  0  0
   40.6650   22.1150   33.9600 N   0  0  0  0  0  0  0  0  0  0  0  0
   40.4160   22.0160   35.3180 C   0  0  0  0  0  0  0  0  0  0  0  0
   39.2040   22.3430   35.8510 N   0  0  0  0  0  0  0  0  0  0  0  0
   37.9544   25.4243   33.2369 H   0  0  0  0  0  0  0  0  0  0  0  0
   36.1252   26.3197   31.7438 H   0  0  0  0  0  0  0  0  0  0  0  0
   34.6261   24.7162   30.5536 H   0  0  0  0  0  0  0  0  0  0  0  0
   34.9132   22.2775   30.8203 H   0  0  0  0  0  0  0  0  0  0  0  0
   37.5234   20.7628   32.5499 H   0  0  0  0  0  0  0  0  0  0  0  0
   36.9406   20.5148   30.0796 H   0  0  0  0  0  0  0  0  0  0  0  0
   35.2553   20.7170   30.3498 H   0  0  0  0  0  0  0  0  0  0  0  0
   35.4457   18.2837   30.6924 H   0  0  0  0  0  0  0  0  0  0  0  0
   37.1115   18.3916   31.2544 H   0  0  0  0  0  0  0  0  0  0  0  0
   34.6940   18.3535   32.8873 H   0  0  0  0  0  0  0  0  0  0  0  0
   36.3263   18.5611   33.4991 H   0  0  0  0  0  0  0  0  0  0  0  0
   34.3160   20.8049   32.6691 H   0  0  0  0  0  0  0  0  0  0  0  0
   35.0911   19.9937   34.9332 H   0  0  0  0  0  0  0  0  0  0  0  0
   36.4677   20.8903   34.5724 H   0  0  0  0  0  0  0  0  0  0  0  0
   37.2217   23.0448   35.4713 H   0  0  0  0  0  0  0  0  0  0  0  0
   39.8726   22.6266   32.0600 H   0  0  0  0  0  0  0  0  0  0  0  0
   41.2169   21.6643   35.9850 H   0  0  0  0  0  0  0  0  0  0  0  0
  1 14  1  0
  2  1  2  0
  3  2  1  0
  4  5  1  0
  4  3  2  0
  5  6  2  0
  6  7  1  0
  6  1  1  0
  7 11  1  0
  8  9  1  0
  8  7  1  0
  9 10  1  0
 10 11  1  0
 11 12  1  0
 13 18  2  0
 14 13  1  0
 15 14  2  0
 15 16  1  0
 16 17  2  0
 17 18  1  0
  2 19  1  0
  3 20  1  0
  4 21  1  0
  5 22  1  0
  7 23  1  1
  8 24  1  0
  8 25  1  0
  9 26  1  0
  9 27  1  0
 10 28  1  0
 10 29  1  0
 11 30  1  6
 12 31  1  0
 12 32  1  0
 13 33  1  0
 15 34  1  0
 17 35  1  0
M  ISO  8  19  14  20  14  21  14  22  14  23  13  24  13  25  13  26  13
M  ISO  8  27  13  28  13  29  13  30  13  31   5  32   5  33  14  34  14
M  ISO  1  35  14
M  END
>  <minimizedAffinity>  (1) 
-4.66019249

>  <minimizedRMSD>  (1) 
0.511525214

$$$$
