
     RDKit          3D

 23 24  0  0  0  0  0  0  0  0999 V2000
   41.0430   22.1400   36.4810 C   0  0  0  0  0  0  0  0  0  0  0  0
   40.3370   22.6930   37.5790 C   0  0  0  0  0  0  0  0  0  0  0  0
   39.0150   23.0680   37.3710 C   0  0  0  0  0  0  0  0  0  0  0  0
   38.4740   22.8880   36.1420 N   0  0  0  0  0  0  0  0  0  0  0  0
   39.1940   22.3510   35.1140 C   0  0  0  0  0  0  0  0  0  0  0  0
   40.4690   21.9830   35.2950 N   0  0  0  0  0  0  0  0  0  0  0  0
   38.5140   22.2020   33.8370 C   0  0  0  0  0  0  0  0  0  0  0  0
   38.6690   21.1640   32.9320 C   0  0  0  0  0  0  0  0  0  0  0  0
   37.8310   21.4270   31.8570 C   0  0  0  0  0  0  0  0  0  0  0  0
   37.1980   22.5770   32.1080 N   0  0  0  0  0  0  0  0  0  0  0  0
   37.6160   23.0240   33.2900 N   0  0  0  0  0  0  0  0  0  0  0  0
   36.2260   23.2540   31.2770 C   0  0  0  0  0  0  0  0  0  0  0  0
   36.8630   24.0040   30.3160 F   0  0  0  0  0  0  0  0  0  0  0  0
   35.4480   24.1040   32.0290 F   0  0  0  0  0  0  0  0  0  0  0  0
   35.3590   22.3350   30.6730 F   0  0  0  0  0  0  0  0  0  0  0  0
   38.3380   23.6330   38.5400 C   0  0  0  0  0  0  0  0  0  0  0  0
   37.8590   24.8710   38.2520 F   0  0  0  0  0  0  0  0  0  0  0  0
   39.2960   23.7870   39.5340 F   0  0  0  0  0  0  0  0  0  0  0  0
   37.2760   22.8440   38.9610 F   0  0  0  0  0  0  0  0  0  0  0  0
   42.0910   21.8340   36.6154 H   0  0  0  0  0  0  0  0  0  0  0  0
   40.8181   22.8206   38.5600 H   0  0  0  0  0  0  0  0  0  0  0  0
   39.3324   20.2938   33.0445 H   0  0  0  0  0  0  0  0  0  0  0  0
   37.7098   20.8016   30.9602 H   0  0  0  0  0  0  0  0  0  0  0  0
  1  2  2  0
  3  2  1  0
  3 16  1  0
  4  3  2  0
  5  6  2  0
  5  4  1  0
  6  1  1  0
  7  5  1  0
  8  7  1  0
  9 10  1  0
  9  8  2  0
 10 11  1  0
 11  7  2  0
 12 14  1  0
 12 10  1  0
 13 12  1  0
 15 12  1  0
 16 19  1  0
 16 18  1  0
 17 16  1  0
  1 20  1  0
  2 21  1  0
  8 22  1  0
  9 23  1  0
M  ISO  4  20  14  21  14  22  14  23  14
M  END
>  <minimizedAffinity>  (1) 
-5.31533337

>  <minimizedRMSD>  (1) 
1.02133405

$$$$
