
     RDKit          3D

 42 44  0  0  1  0  0  0  0  0999 V2000
   37.3780   23.4780   33.0850 C   0  0  0  0  0  0  0  0  0  0  0  0
   37.3730   24.8660   32.9520 C   0  0  0  0  0  0  0  0  0  0  0  0
   36.6050   25.3730   31.9240 C   0  0  0  0  0  0  0  0  0  0  0  0
   35.8970   24.4940   31.0970 C   0  0  0  0  0  0  0  0  0  0  0  0
   35.9630   23.1200   31.3070 C   0  0  0  0  0  0  0  0  0  0  0  0
   36.7080   22.5690   32.3090 C   0  0  0  0  0  0  0  0  0  0  0  0
   37.8560   23.3060   35.5120 C   0  0  0  0  0  0  0  0  0  0  0  0
   38.2070   22.9830   34.1870 C   0  0  0  0  0  0  0  0  0  0  0  0
   39.3320   22.2030   33.9460 C   0  0  0  0  0  0  0  0  0  0  0  0
   40.0790   21.7600   34.9750 N   0  0  0  0  0  0  0  0  0  0  0  0
   39.7160   22.0890   36.2660 C   0  0  0  0  0  0  0  0  0  0  0  0
   38.6210   22.8500   36.5300 N   0  0  0  0  0  0  0  0  0  0  0  0
   40.5280   21.6030   37.3220 N   0  0  0  0  0  0  0  0  0  0  0  0
   41.8080   21.0940   37.0580 C   0  0  0  0  0  0  0  0  0  0  0  0
   42.3350   21.3960   35.9200 N   0  0  0  0  0  0  0  0  0  0  0  0
   42.5200   20.2770   37.9890 N   0  0  0  0  0  0  0  0  0  0  0  0
   43.2780   21.0450   35.6790 H   0  0  0  0  0  0  0  0  0  0  0  0
   36.6410   21.1340   32.2780 C   0  0  2  0  0  0  0  0  0  0  0  0
   36.3800   20.4880   30.9540 C   0  0  0  0  0  0  0  0  0  0  0  0
   36.2480   19.0230   31.4360 C   0  0  0  0  0  0  0  0  0  0  0  0
   35.6310   19.1260   32.8350 C   0  0  0  0  0  0  0  0  0  0  0  0
   35.3530   20.6180   33.0120 C   0  0  1  0  0  0  0  0  0  0  0  0
   35.4380   20.9320   34.4100 N   0  0  0  0  0  0  0  0  0  0  0  0
   37.9472   25.5180   33.6266 H   0  0  0  0  0  0  0  0  0  0  0  0
   36.5498   26.4587   31.7560 H   0  0  0  0  0  0  0  0  0  0  0  0
   35.2839   24.8920   30.2750 H   0  0  0  0  0  0  0  0  0  0  0  0
   35.3942   22.4540   30.6415 H   0  0  0  0  0  0  0  0  0  0  0  0
   36.9687   23.9229   35.7170 H   0  0  0  0  0  0  0  0  0  0  0  0
   39.6124   21.9473   32.9135 H   0  0  0  0  0  0  0  0  0  0  0  0
   40.1754   21.6239   38.2895 H   0  0  0  0  0  0  0  0  0  0  0  0
   43.4586   19.9250   37.7525 H   0  0  0  0  0  0  0  0  0  0  0  0
   42.0947   20.0400   38.8966 H   0  0  0  0  0  0  0  0  0  0  0  0
   37.6299   20.8856   32.6907 H   0  0  0  0  0  0  0  0  0  0  0  0
   37.2193   20.6205   30.2555 H   0  0  0  0  0  0  0  0  0  0  0  0
   35.5231   20.8844   30.3896 H   0  0  0  0  0  0  0  0  0  0  0  0
   35.5911   18.4515   30.7638 H   0  0  0  0  0  0  0  0  0  0  0  0
   37.2157   18.5001   31.4462 H   0  0  0  0  0  0  0  0  0  0  0  0
   34.6985   18.5455   32.8940 H   0  0  0  0  0  0  0  0  0  0  0  0
   36.2912   18.7243   33.6177 H   0  0  0  0  0  0  0  0  0  0  0  0
   34.3877   21.0080   32.6569 H   0  0  0  0  0  0  0  0  0  0  0  0
   35.2112   20.0941   34.9645 H   0  0  0  0  0  0  0  0  0  0  0  0
   36.3937   21.2438   34.6344 H   0  0  0  0  0  0  0  0  0  0  0  0
  1  8  1  0
  2  1  2  0
  3  2  1  0
  4  5  1  0
  4  3  2  0
  5  6  2  0
  6  1  1  0
  7 12  2  0
  8  7  1  0
  9  8  2  0
  9 10  1  0
 10 11  2  0
 11 12  1  0
 11 13  1  0
 14 13  1  0
 14 16  1  0
 15 14  2  0
 17 15  1  0
 18  6  1  0
 18 22  1  0
 19 20  1  0
 19 18  1  0
 20 21  1  0
 21 22  1  0
 22 23  1  0
  2 24  1  0
  3 25  1  0
  4 26  1  0
  5 27  1  0
  7 28  1  0
  9 29  1  0
 13 30  1  0
 16 31  1  0
 16 32  1  0
 18 33  1  1
 19 34  1  0
 19 35  1  0
 20 36  1  0
 20 37  1  0
 21 38  1  0
 21 39  1  0
 22 40  1  6
 23 41  1  0
 23 42  1  0
M  ISO  8  24  14  25  14  26  14  27  14  28  14  29  14  33  13  34  13
M  ISO  8  35  13  36  13  37  13  38  13  39  13  40  13  41   5  42   5
M  END
>  <minimizedAffinity>  (1) 
-6.12191248

>  <minimizedRMSD>  (1) 
0.949785352

$$$$
