
     RDKit          3D

 48 51  0  0  1  0  0  0  0  0999 V2000
   37.4240   23.4000   32.6250 C   0  0  0  0  0  0  0  0  0  0  0  0
   37.3350   24.7880   32.5290 C   0  0  0  0  0  0  0  0  0  0  0  0
   36.2250   25.2850   31.8600 C   0  0  0  0  0  0  0  0  0  0  0  0
   35.2920   24.3970   31.3390 C   0  0  0  0  0  0  0  0  0  0  0  0
   35.4550   23.0170   31.4790 C   0  0  0  0  0  0  0  0  0  0  0  0
   36.5340   22.4800   32.1300 C   0  0  0  0  0  0  0  0  0  0  0  0
   38.5700   22.8330   34.7490 C   0  0  0  0  0  0  0  0  0  0  0  0
   38.6050   22.9200   33.3340 C   0  0  0  0  0  0  0  0  0  0  0  0
   39.7560   22.5490   32.6520 C   0  0  0  0  0  0  0  0  0  0  0  0
   40.8360   22.1060   33.3340 N   0  0  0  0  0  0  0  0  0  0  0  0
   40.7750   22.0310   34.7040 C   0  0  0  0  0  0  0  0  0  0  0  0
   39.6710   22.3840   35.4020 N   0  0  0  0  0  0  0  0  0  0  0  0
   41.9180   21.5630   35.4070 N   0  0  0  0  0  0  0  0  0  0  0  0
   42.2440   21.9990   36.7520 C   0  0  0  0  0  0  0  0  0  0  0  0
   42.2000   20.7670   37.6310 C   0  0  0  0  0  0  0  0  0  0  0  0
   42.8530   19.7180   37.0250 O   0  0  0  0  0  0  0  0  0  0  0  0
   43.6540   20.0520   35.9610 C   0  0  0  0  0  0  0  0  0  0  0  0
   42.8270   20.6100   34.8000 C   0  0  0  0  0  0  0  0  0  0  0  0
   36.4920   21.0450   32.1020 C   0  0  2  0  0  0  0  0  0  0  0  0
   36.0490   20.3950   30.8280 C   0  0  0  0  0  0  0  0  0  0  0  0
   36.0470   18.9250   31.3100 C   0  0  0  0  0  0  0  0  0  0  0  0
   35.6030   19.0150   32.7770 C   0  0  0  0  0  0  0  0  0  0  0  0
   35.3190   20.5040   32.9980 C   0  0  1  0  0  0  0  0  0  0  0  0
   35.5880   20.8130   34.3720 N   0  0  0  0  0  0  0  0  0  0  0  0
   38.1003   25.4511   32.9587 H   0  0  0  0  0  0  0  0  0  0  0  0
   36.0855   26.3699   31.7436 H   0  0  0  0  0  0  0  0  0  0  0  0
   34.4112   24.7870   30.8079 H   0  0  0  0  0  0  0  0  0  0  0  0
   34.6962   22.3429   31.0549 H   0  0  0  0  0  0  0  0  0  0  0  0
   37.6674   23.1240   35.3064 H   0  0  0  0  0  0  0  0  0  0  0  0
   39.7893   22.6156   31.5545 H   0  0  0  0  0  0  0  0  0  0  0  0
   43.2497   22.4440   36.7730 H   0  0  0  0  0  0  0  0  0  0  0  0
   41.5339   22.7618   37.1038 H   0  0  0  0  0  0  0  0  0  0  0  0
   42.6874   20.9902   38.5915 H   0  0  0  0  0  0  0  0  0  0  0  0
   41.1496   20.4847   37.7949 H   0  0  0  0  0  0  0  0  0  0  0  0
   44.3797   20.8133   36.2832 H   0  0  0  0  0  0  0  0  0  0  0  0
   44.1715   19.1447   35.6159 H   0  0  0  0  0  0  0  0  0  0  0  0
   42.2666   19.8045   34.3030 H   0  0  0  0  0  0  0  0  0  0  0  0
   43.4595   21.0766   34.0304 H   0  0  0  0  0  0  0  0  0  0  0  0
   37.5341   20.8175   32.3710 H   0  0  0  0  0  0  0  0  0  0  0  0
   36.7628   20.5613   30.0077 H   0  0  0  0  0  0  0  0  0  0  0  0
   35.1004   20.7619   30.4090 H   0  0  0  0  0  0  0  0  0  0  0  0
   35.3381   18.3222   30.7233 H   0  0  0  0  0  0  0  0  0  0  0  0
   37.0276   18.4403   31.1937 H   0  0  0  0  0  0  0  0  0  0  0  0
   34.6959   18.4163   32.9467 H   0  0  0  0  0  0  0  0  0  0  0  0
   36.3634   18.6256   33.4700 H   0  0  0  0  0  0  0  0  0  0  0  0
   34.3078   20.8766   32.7775 H   0  0  0  0  0  0  0  0  0  0  0  0
   35.0414   20.1851   34.9785 H   0  0  0  0  0  0  0  0  0  0  0  0
   36.5922   20.6857   34.5623 H   0  0  0  0  0  0  0  0  0  0  0  0
  1  8  1  0
  2  1  2  0
  3  2  1  0
  4  5  1  0
  4  3  2  0
  5  6  2  0
  6  1  1  0
  7 12  2  0
  8  7  1  0
  9 10  1  0
  9  8  2  0
 10 11  2  0
 11 12  1  0
 11 13  1  0
 13 14  1  0
 14 15  1  0
 16 15  1  0
 17 16  1  0
 18 13  1  0
 18 17  1  0
 19  6  1  0
 19 23  1  0
 20 21  1  0
 20 19  1  0
 21 22  1  0
 22 23  1  0
 23 24  1  0
  2 25  1  0
  3 26  1  0
  4 27  1  0
  5 28  1  0
  7 29  1  0
  9 30  1  0
 14 31  1  0
 14 32  1  0
 15 33  1  0
 15 34  1  0
 17 35  1  0
 17 36  1  0
 18 37  1  0
 18 38  1  0
 19 39  1  1
 20 40  1  0
 20 41  1  0
 21 42  1  0
 21 43  1  0
 22 44  1  0
 22 45  1  0
 23 46  1  6
 24 47  1  0
 24 48  1  0
M  ISO  8  25  14  26  14  27  14  28  14  29  14  30  14  31  13  32  13
M  ISO  8  33  13  34  13  35  13  36  13  37  13  38  13  39  13  40  13
M  ISO  8  41  13  42  13  43  13  44  13  45  13  46  13  47   5  48   5
M  END
>  <minimizedAffinity>  (1) 
-5.4812398

>  <minimizedRMSD>  (1) 
0.600454688

$$$$
