
     RDKit          3D

 42 45  0  0  1  0  0  0  0  0999 V2000
   37.3100   23.4570   32.5960 C   0  0  0  0  0  0  0  0  0  0  0  0
   37.1890   24.8560   32.5620 C   0  0  0  0  0  0  0  0  0  0  0  0
   36.1550   25.3710   31.8130 C   0  0  0  0  0  0  0  0  0  0  0  0
   35.3000   24.4960   31.1420 C   0  0  0  0  0  0  0  0  0  0  0  0
   35.4730   23.1260   31.2150 C   0  0  0  0  0  0  0  0  0  0  0  0
   36.4950   22.5640   31.9560 C   0  0  0  0  0  0  0  0  0  0  0  0
   36.4710   21.1240   31.8610 C   0  0  2  0  0  0  0  0  0  0  0  0
   36.1350   20.5360   30.5310 C   0  0  0  0  0  0  0  0  0  0  0  0
   36.1270   19.0480   30.9400 C   0  0  0  0  0  0  0  0  0  0  0  0
   35.5340   19.0630   32.3560 C   0  0  0  0  0  0  0  0  0  0  0  0
   35.2200   20.5370   32.6170 C   0  0  1  0  0  0  0  0  0  0  0  0
   35.3580   20.7890   34.0250 N   0  0  0  0  0  0  0  0  0  0  0  0
   38.1590   22.5970   34.7540 C   0  0  0  0  0  0  0  0  0  0  0  0
   38.4070   22.9590   33.3960 C   0  0  0  0  0  0  0  0  0  0  0  0
   39.6860   22.8290   32.8750 C   0  0  0  0  0  0  0  0  0  0  0  0
   40.6860   22.3630   33.6490 N   0  0  0  0  0  0  0  0  0  0  0  0
   40.4290   22.0190   34.9550 C   0  0  0  0  0  0  0  0  0  0  0  0
   39.1850   22.1330   35.5010 N   0  0  0  0  0  0  0  0  0  0  0  0
   41.4280   21.5210   35.8370 N   0  0  0  0  0  0  0  0  0  0  0  0
   42.6350   20.9580   35.6600 C   0  0  0  0  0  0  0  0  0  0  0  0
   43.1200   20.6880   36.9320 C   0  0  0  0  0  0  0  0  0  0  0  0
   42.1950   21.0960   37.8470 N   0  0  0  0  0  0  0  0  0  0  0  0
   41.1440   21.6120   37.1500 C   0  0  0  0  0  0  0  0  0  0  0  0
   37.8866   25.5085   33.1074 H   0  0  0  0  0  0  0  0  0  0  0  0
   36.0048   26.4585   31.7444 H   0  0  0  0  0  0  0  0  0  0  0  0
   34.4723   24.9039   30.5433 H   0  0  0  0  0  0  0  0  0  0  0  0
   34.7804   22.4677   30.6701 H   0  0  0  0  0  0  0  0  0  0  0  0
   37.4872   20.8898   32.2110 H   0  0  0  0  0  0  0  0  0  0  0  0
   36.9029   20.7546   29.7744 H   0  0  0  0  0  0  0  0  0  0  0  0
   35.2132   20.9091   30.0608 H   0  0  0  0  0  0  0  0  0  0  0  0
   35.4983   18.4570   30.2577 H   0  0  0  0  0  0  0  0  0  0  0  0
   37.1263   18.5898   30.9012 H   0  0  0  0  0  0  0  0  0  0  0  0
   34.6183   18.4552   32.4017 H   0  0  0  0  0  0  0  0  0  0  0  0
   36.2205   18.6400   33.1043 H   0  0  0  0  0  0  0  0  0  0  0  0
   34.2299   20.9127   32.3195 H   0  0  0  0  0  0  0  0  0  0  0  0
   34.9340   20.0147   34.5556 H   0  0  0  0  0  0  0  0  0  0  0  0
   36.3571   20.8625   34.2643 H   0  0  0  0  0  0  0  0  0  0  0  0
   37.1514   22.6939   35.1846 H   0  0  0  0  0  0  0  0  0  0  0  0
   39.8842   23.1065   31.8292 H   0  0  0  0  0  0  0  0  0  0  0  0
   43.1363   20.7530   34.7026 H   0  0  0  0  0  0  0  0  0  0  0  0
   44.0893   20.2223   37.1635 H   0  0  0  0  0  0  0  0  0  0  0  0
   40.2239   22.0300   37.5843 H   0  0  0  0  0  0  0  0  0  0  0  0
  1 14  1  0
  2  1  2  0
  3  2  1  0
  4  5  1  0
  4  3  2  0
  5  6  2  0
  6  1  1  0
  7  6  1  0
  7 11  1  0
  8  9  1  0
  8  7  1  0
  9 10  1  0
 10 11  1  0
 11 12  1  0
 13 18  2  0
 14 13  1  0
 15 14  2  0
 15 16  1  0
 16 17  2  0
 17 18  1  0
 17 19  1  0
 19 23  1  0
 20 19  1  0
 20 21  2  0
 21 22  1  0
 23 22  2  0
  2 24  1  0
  3 25  1  0
  4 26  1  0
  5 27  1  0
  7 28  1  1
  8 29  1  0
  8 30  1  0
  9 31  1  0
  9 32  1  0
 10 33  1  0
 10 34  1  0
 11 35  1  6
 12 36  1  0
 12 37  1  0
 13 38  1  0
 15 39  1  0
 20 40  1  0
 21 41  1  0
 23 42  1  0
M  ISO  8  24  14  25  14  26  14  27  14  28  13  29  13  30  13  31  13
M  ISO  8  32  13  33  13  34  13  35  13  36   5  37   5  38  14  39  14
M  ISO  3  40  14  41  14  42  14
M  END
>  <minimizedAffinity>  (1) 
-5.33733177

>  <minimizedRMSD>  (1) 
0.374742746

$$$$
