
     RDKit          3D

 48 52  0  0  1  0  0  0  0  0999 V2000
   37.4940   23.2970   32.4770 C   0  0  0  0  0  0  0  0  0  0  0  0
   37.4230   24.6870   32.3840 C   0  0  0  0  0  0  0  0  0  0  0  0
   36.2670   25.2090   31.8200 C   0  0  0  0  0  0  0  0  0  0  0  0
   35.2690   24.3290   31.3910 C   0  0  0  0  0  0  0  0  0  0  0  0
   35.4200   22.9480   31.5220 C   0  0  0  0  0  0  0  0  0  0  0  0
   36.5500   22.3940   32.0740 C   0  0  0  0  0  0  0  0  0  0  0  0
   38.7820   22.6320   34.4910 C   0  0  0  0  0  0  0  0  0  0  0  0
   38.7230   22.8020   33.0770 C   0  0  0  0  0  0  0  0  0  0  0  0
   39.8390   22.4920   32.3120 C   0  0  0  0  0  0  0  0  0  0  0  0
   40.9670   22.0350   32.8930 N   0  0  0  0  0  0  0  0  0  0  0  0
   40.9950   21.8810   34.2620 C   0  0  0  0  0  0  0  0  0  0  0  0
   39.9260   22.1710   35.0500 N   0  0  0  0  0  0  0  0  0  0  0  0
   42.1140   21.4100   35.0030 N   0  0  0  0  0  0  0  0  0  0  0  0
   42.5430   22.0630   36.0870 C   0  0  0  0  0  0  0  0  0  0  0  0
   43.6040   21.3970   36.5790 N   0  0  0  0  0  0  0  0  0  0  0  0
   43.8320   20.3190   35.7850 C   0  0  0  0  0  0  0  0  0  0  0  0
   44.7440   19.2870   35.7650 C   0  0  0  0  0  0  0  0  0  0  0  0
   44.7220   18.3260   34.8170 N   0  0  0  0  0  0  0  0  0  0  0  0
   43.7720   18.3810   33.8580 C   0  0  0  0  0  0  0  0  0  0  0  0
   42.8390   19.3740   33.8170 N   0  0  0  0  0  0  0  0  0  0  0  0
   42.8750   20.3290   34.7740 C   0  0  0  0  0  0  0  0  0  0  0  0
   45.7190   19.2950   36.8110 N   0  0  0  0  0  0  0  0  0  0  0  0
   36.4780   20.9590   32.0630 C   0  0  2  0  0  0  0  0  0  0  0  0
   36.0130   20.3040   30.8000 C   0  0  0  0  0  0  0  0  0  0  0  0
   35.9670   18.8410   31.2960 C   0  0  0  0  0  0  0  0  0  0  0  0
   35.5540   18.9530   32.7640 C   0  0  0  0  0  0  0  0  0  0  0  0
   35.3090   20.4490   32.9810 C   0  0  1  0  0  0  0  0  0  0  0  0
   35.6100   20.7660   34.3500 N   0  0  0  0  0  0  0  0  0  0  0  0
   38.2387   25.3343   32.7383 H   0  0  0  0  0  0  0  0  0  0  0  0
   36.1384   26.2962   31.7125 H   0  0  0  0  0  0  0  0  0  0  0  0
   34.3490   24.7321   30.9425 H   0  0  0  0  0  0  0  0  0  0  0  0
   34.6136   22.2856   31.1744 H   0  0  0  0  0  0  0  0  0  0  0  0
   37.9111   22.8717   35.1188 H   0  0  0  0  0  0  0  0  0  0  0  0
   39.8029   22.6205   31.2201 H   0  0  0  0  0  0  0  0  0  0  0  0
   42.1061   22.9825   36.5037 H   0  0  0  0  0  0  0  0  0  0  0  0
   43.7507   17.5988   33.0849 H   0  0  0  0  0  0  0  0  0  0  0  0
   46.4315   18.5526   36.8566 H   0  0  0  0  0  0  0  0  0  0  0  0
   45.7088   20.0432   37.5188 H   0  0  0  0  0  0  0  0  0  0  0  0
   37.5181   20.7140   32.3239 H   0  0  0  0  0  0  0  0  0  0  0  0
   36.7295   20.4389   29.9763 H   0  0  0  0  0  0  0  0  0  0  0  0
   35.0735   20.6934   30.3808 H   0  0  0  0  0  0  0  0  0  0  0  0
   35.2273   18.2594   30.7263 H   0  0  0  0  0  0  0  0  0  0  0  0
   36.9291   18.3233   31.1682 H   0  0  0  0  0  0  0  0  0  0  0  0
   34.6364   18.3772   32.9546 H   0  0  0  0  0  0  0  0  0  0  0  0
   36.3187   18.5515   33.4452 H   0  0  0  0  0  0  0  0  0  0  0  0
   34.3014   20.8397   32.7758 H   0  0  0  0  0  0  0  0  0  0  0  0
   35.0449   20.1709   34.9724 H   0  0  0  0  0  0  0  0  0  0  0  0
   36.6103   20.5981   34.5294 H   0  0  0  0  0  0  0  0  0  0  0  0
  1  8  1  0
  2  1  2  0
  3  2  1  0
  4  5  1  0
  4  3  2  0
  5  6  2  0
  6  1  1  0
  7 12  2  0
  8  7  1  0
  9 10  1  0
  9  8  2  0
 10 11  2  0
 11 13  1  0
 11 12  1  0
 13 14  1  0
 14 15  2  0
 16 15  1  0
 17 16  2  0
 17 22  1  0
 18 17  1  0
 19 18  2  0
 20 19  1  0
 20 21  2  0
 21 13  1  0
 21 16  1  0
 23  6  1  0
 23 27  1  0
 24 25  1  0
 24 23  1  0
 25 26  1  0
 26 27  1  0
 27 28  1  0
  2 29  1  0
  3 30  1  0
  4 31  1  0
  5 32  1  0
  7 33  1  0
  9 34  1  0
 14 35  1  0
 19 36  1  0
 22 37  1  0
 22 38  1  0
 23 39  1  1
 24 40  1  0
 24 41  1  0
 25 42  1  0
 25 43  1  0
 26 44  1  0
 26 45  1  0
 27 46  1  6
 28 47  1  0
 28 48  1  0
M  ISO  8  29  14  30  14  31  14  32  14  33  14  34  14  35  14  36  14
M  ISO  8  39  13  40  13  41  13  42  13  43  13  44  13  45  13  46  13
M  ISO  2  47   5  48   5
M  END
>  <minimizedAffinity>  (1) 
-5.35256863

>  <minimizedRMSD>  (1) 
1.24188077

$$$$
