
     RDKit          3D

 41 44  0  0  1  0  0  0  0  0999 V2000
   37.3530   23.4260   32.6690 C   0  0  0  0  0  0  0  0  0  0  0  0
   37.2670   24.8140   32.5800 C   0  0  0  0  0  0  0  0  0  0  0  0
   36.2150   25.3160   31.8320 C   0  0  0  0  0  0  0  0  0  0  0  0
   35.3220   24.4420   31.2260 C   0  0  0  0  0  0  0  0  0  0  0  0
   35.4750   23.0630   31.3640 C   0  0  0  0  0  0  0  0  0  0  0  0
   36.4950   22.5130   32.0890 C   0  0  0  0  0  0  0  0  0  0  0  0
   36.4560   21.0750   32.0490 C   0  0  2  0  0  0  0  0  0  0  0  0
   36.0360   20.4460   30.7530 C   0  0  0  0  0  0  0  0  0  0  0  0
   35.9930   18.9720   31.2130 C   0  0  0  0  0  0  0  0  0  0  0  0
   35.5520   19.0390   32.6760 C   0  0  0  0  0  0  0  0  0  0  0  0
   35.2640   20.5280   32.9120 C   0  0  1  0  0  0  0  0  0  0  0  0
   35.5050   20.8170   34.2940 N   0  0  0  0  0  0  0  0  0  0  0  0
   38.3360   22.8980   34.8750 C   0  0  0  0  0  0  0  0  0  0  0  0
   38.4700   22.9340   33.4600 C   0  0  0  0  0  0  0  0  0  0  0  0
   39.6420   22.5040   32.8620 C   0  0  0  0  0  0  0  0  0  0  0  0
   40.6660   22.0450   33.6190 N   0  0  0  0  0  0  0  0  0  0  0  0
   40.5110   22.0190   35.0010 C   0  0  0  0  0  0  0  0  0  0  0  0
   39.3770   22.4350   35.6130 N   0  0  0  0  0  0  0  0  0  0  0  0
   41.6100   21.5290   35.7630 N   0  0  0  0  0  0  0  0  0  0  0  0
   41.4780   21.2760   37.0790 C   0  0  0  0  0  0  0  0  0  0  0  0
   42.6360   20.8150   37.6320 N   0  0  0  0  0  0  0  0  0  0  0  0
   43.5060   20.7940   36.5800 C   0  0  0  0  0  0  0  0  0  0  0  0
   42.8580   21.2310   35.4600 N   0  0  0  0  0  0  0  0  0  0  0  0
   37.9939   25.4740   33.0760 H   0  0  0  0  0  0  0  0  0  0  0  0
   36.0873   26.4026   31.7184 H   0  0  0  0  0  0  0  0  0  0  0  0
   34.4867   24.8411   30.6319 H   0  0  0  0  0  0  0  0  0  0  0  0
   34.7511   22.3957   30.8733 H   0  0  0  0  0  0  0  0  0  0  0  0
   37.4897   20.8384   32.3413 H   0  0  0  0  0  0  0  0  0  0  0  0
   36.7753   20.6091   29.9550 H   0  0  0  0  0  0  0  0  0  0  0  0
   35.1056   20.8354   30.3140 H   0  0  0  0  0  0  0  0  0  0  0  0
   35.2692   18.3991   30.6148 H   0  0  0  0  0  0  0  0  0  0  0  0
   36.9631   18.4679   31.0917 H   0  0  0  0  0  0  0  0  0  0  0  0
   34.6469   18.4355   32.8391 H   0  0  0  0  0  0  0  0  0  0  0  0
   36.3120   18.6415   33.3648 H   0  0  0  0  0  0  0  0  0  0  0  0
   34.2585   20.9067   32.6763 H   0  0  0  0  0  0  0  0  0  0  0  0
   34.9627   20.1667   34.8804 H   0  0  0  0  0  0  0  0  0  0  0  0
   36.5087   20.7075   34.4977 H   0  0  0  0  0  0  0  0  0  0  0  0
   37.4094   23.2377   35.3609 H   0  0  0  0  0  0  0  0  0  0  0  0
   39.7416   22.5354   31.7670 H   0  0  0  0  0  0  0  0  0  0  0  0
   40.5448   21.4240   37.6422 H   0  0  0  0  0  0  0  0  0  0  0  0
   44.5582   20.4766   36.6269 H   0  0  0  0  0  0  0  0  0  0  0  0
  1 14  1  0
  2  1  2  0
  3  2  1  0
  4  5  1  0
  4  3  2  0
  5  6  2  0
  6  1  1  0
  7  6  1  0
  7 11  1  0
  8  9  1  0
  8  7  1  0
  9 10  1  0
 10 11  1  0
 11 12  1  0
 13 18  2  0
 14 13  1  0
 15 14  2  0
 15 16  1  0
 16 17  2  0
 17 18  1  0
 17 19  1  0
 19 20  1  0
 20 21  2  0
 22 21  1  0
 23 19  1  0
 23 22  2  0
  2 24  1  0
  3 25  1  0
  4 26  1  0
  5 27  1  0
  7 28  1  1
  8 29  1  0
  8 30  1  0
  9 31  1  0
  9 32  1  0
 10 33  1  0
 10 34  1  0
 11 35  1  6
 12 36  1  0
 12 37  1  0
 13 38  1  0
 15 39  1  0
 20 40  1  0
 22 41  1  0
M  ISO  8  24  14  25  14  26  14  27  14  28  13  29  13  30  13  31  13
M  ISO  8  32  13  33  13  34  13  35  13  36   5  37   5  38  14  39  14
M  ISO  2  40  14  41  14
M  END
>  <minimizedAffinity>  (1) 
-5.31085443

>  <minimizedRMSD>  (1) 
0.291984707

$$$$
