
     RDKit          3D

 37 39  0  0  1  0  0  0  0  0999 V2000
   37.3010   23.4020   32.8150 C   0  0  0  0  0  0  0  0  0  0  0  0
   37.2080   24.7920   32.6860 C   0  0  0  0  0  0  0  0  0  0  0  0
   36.2590   25.2550   31.7930 C   0  0  0  0  0  0  0  0  0  0  0  0
   35.4700   24.3440   31.0910 C   0  0  0  0  0  0  0  0  0  0  0  0
   35.6320   22.9740   31.2860 C   0  0  0  0  0  0  0  0  0  0  0  0
   36.5550   22.4640   32.1560 C   0  0  0  0  0  0  0  0  0  0  0  0
   36.5460   21.0260   32.1450 C   0  0  2  0  0  0  0  0  0  0  0  0
   36.2590   20.3580   30.8330 C   0  0  0  0  0  0  0  0  0  0  0  0
   36.2260   18.8920   31.3340 C   0  0  0  0  0  0  0  0  0  0  0  0
   35.6320   18.9830   32.7440 C   0  0  0  0  0  0  0  0  0  0  0  0
   35.3000   20.4690   32.9190 C   0  0  1  0  0  0  0  0  0  0  0  0
   35.4250   20.7980   34.3140 N   0  0  0  0  0  0  0  0  0  0  0  0
   38.0210   22.9640   35.1420 C   0  0  0  0  0  0  0  0  0  0  0  0
   38.3170   22.9570   33.7660 C   0  0  0  0  0  0  0  0  0  0  0  0
   39.5680   22.5300   33.3350 C   0  0  0  0  0  0  0  0  0  0  0  0
   40.4880   22.1260   34.2320 N   0  0  0  0  0  0  0  0  0  0  0  0
   40.1750   22.1420   35.5770 C   0  0  0  0  0  0  0  0  0  0  0  0
   38.9600   22.5550   36.0240 N   0  0  0  0  0  0  0  0  0  0  0  0
   41.1680   21.7060   36.5520 C   0  0  0  0  0  0  0  0  0  0  0  0
   40.9950   21.7260   37.7850 O   0  0  0  0  0  0  0  0  0  0  0  0
   37.8509   25.4753   33.2602 H   0  0  0  0  0  0  0  0  0  0  0  0
   36.1271   26.3359   31.6372 H   0  0  0  0  0  0  0  0  0  0  0  0
   34.7152   24.7094   30.3791 H   0  0  0  0  0  0  0  0  0  0  0  0
   34.9949   22.2784   30.7201 H   0  0  0  0  0  0  0  0  0  0  0  0
   37.5555   20.8202   32.5303 H   0  0  0  0  0  0  0  0  0  0  0  0
   37.0581   20.5278   30.0963 H   0  0  0  0  0  0  0  0  0  0  0  0
   35.3598   20.7054   30.3031 H   0  0  0  0  0  0  0  0  0  0  0  0
   35.5909   18.2728   30.6835 H   0  0  0  0  0  0  0  0  0  0  0  0
   37.2219   18.4250   31.3284 H   0  0  0  0  0  0  0  0  0  0  0  0
   34.7233   18.3684   32.8246 H   0  0  0  0  0  0  0  0  0  0  0  0
   36.3225   18.6126   33.5160 H   0  0  0  0  0  0  0  0  0  0  0  0
   34.3091   20.8173   32.5921 H   0  0  0  0  0  0  0  0  0  0  0  0
   35.1204   19.9963   34.8845 H   0  0  0  0  0  0  0  0  0  0  0  0
   36.4082   21.0179   34.5281 H   0  0  0  0  0  0  0  0  0  0  0  0
   37.0350   23.2991   35.4962 H   0  0  0  0  0  0  0  0  0  0  0  0
   39.8065   22.5221   32.2612 H   0  0  0  0  0  0  0  0  0  0  0  0
   42.1322   21.3355   36.1738 H   0  0  0  0  0  0  0  0  0  0  0  0
  1 14  1  0
  2  1  2  0
  3  2  1  0
  4  5  1  0
  4  3  2  0
  5  6  2  0
  6  1  1  0
  7  6  1  0
  7 11  1  0
  8  9  1  0
  8  7  1  0
  9 10  1  0
 10 11  1  0
 11 12  1  0
 13 18  2  0
 14 13  1  0
 15 14  2  0
 15 16  1  0
 16 17  2  0
 17 18  1  0
 17 19  1  0
 19 20  2  0
  2 21  1  0
  3 22  1  0
  4 23  1  0
  5 24  1  0
  7 25  1  1
  8 26  1  0
  8 27  1  0
  9 28  1  0
  9 29  1  0
 10 30  1  0
 10 31  1  0
 11 32  1  6
 12 33  1  0
 12 34  1  0
 13 35  1  0
 15 36  1  0
 19 37  1  0
M  ISO  8  21  14  22  14  23  14  24  14  25  13  26  13  27  13  28  13
M  ISO  8  29  13  30  13  31  13  32  13  33   5  34   5  35  14  36  14
M  ISO  1  37   6
M  END
>  <minimizedAffinity>  (1) 
-5.06138086

>  <minimizedRMSD>  (1) 
0.241068289

$$$$
