
     RDKit          3D

 38 40  0  0  1  0  0  0  0  0999 V2000
   37.3600   23.2310   33.0060 C   0  0  0  0  0  0  0  0  0  0  0  0
   37.2400   24.6240   32.8270 C   0  0  0  0  0  0  0  0  0  0  0  0
   36.3180   25.0580   31.8960 C   0  0  0  0  0  0  0  0  0  0  0  0
   35.5730   24.1100   31.1980 C   0  0  0  0  0  0  0  0  0  0  0  0
   35.7350   22.7540   31.4150 C   0  0  0  0  0  0  0  0  0  0  0  0
   36.6460   22.2720   32.3390 C   0  0  0  0  0  0  0  0  0  0  0  0
   36.6400   20.8300   32.3730 C   0  0  2  0  0  0  0  0  0  0  0  0
   36.4020   20.1250   31.0790 C   0  0  0  0  0  0  0  0  0  0  0  0
   36.3760   18.6780   31.6170 C   0  0  0  0  0  0  0  0  0  0  0  0
   35.7040   18.8050   32.9870 C   0  0  0  0  0  0  0  0  0  0  0  0
   35.3540   20.2900   33.0910 C   0  0  1  0  0  0  0  0  0  0  0  0
   35.3940   20.6700   34.4830 N   0  0  0  0  0  0  0  0  0  0  0  0
   37.9830   22.9220   35.3780 C   0  0  0  0  0  0  0  0  0  0  0  0
   38.3360   22.8230   33.9980 C   0  0  0  0  0  0  0  0  0  0  0  0
   39.5800   22.3520   33.6360 C   0  0  0  0  0  0  0  0  0  0  0  0
   40.4660   21.9850   34.5830 N   0  0  0  0  0  0  0  0  0  0  0  0
   40.1130   22.0850   35.9140 C   0  0  0  0  0  0  0  0  0  0  0  0
   38.8810   22.5500   36.3110 N   0  0  0  0  0  0  0  0  0  0  0  0
   41.0640   21.6890   36.9990 C   0  0  0  0  0  0  0  0  0  0  0  0
   37.8531   25.3328   33.4029 H   0  0  0  0  0  0  0  0  0  0  0  0
   36.1741   26.1323   31.7087 H   0  0  0  0  0  0  0  0  0  0  0  0
   34.8365   24.4491   30.4547 H   0  0  0  0  0  0  0  0  0  0  0  0
   35.1255   22.0415   30.8398 H   0  0  0  0  0  0  0  0  0  0  0  0
   37.6309   20.6438   32.8128 H   0  0  0  0  0  0  0  0  0  0  0  0
   37.2195   20.2869   30.3610 H   0  0  0  0  0  0  0  0  0  0  0  0
   35.5133   20.4438   30.5145 H   0  0  0  0  0  0  0  0  0  0  0  0
   35.7908   18.0244   30.9534 H   0  0  0  0  0  0  0  0  0  0  0  0
   37.3789   18.2302   31.6769 H   0  0  0  0  0  0  0  0  0  0  0  0
   34.7967   18.1850   33.0365 H   0  0  0  0  0  0  0  0  0  0  0  0
   36.3505   18.4638   33.8090 H   0  0  0  0  0  0  0  0  0  0  0  0
   34.3818   20.6184   32.6948 H   0  0  0  0  0  0  0  0  0  0  0  0
   35.3055   19.8291   35.0711 H   0  0  0  0  0  0  0  0  0  0  0  0
   36.2889   21.1380   34.6856 H   0  0  0  0  0  0  0  0  0  0  0  0
   36.9923   23.2965   35.6751 H   0  0  0  0  0  0  0  0  0  0  0  0
   39.8500   22.2756   32.5724 H   0  0  0  0  0  0  0  0  0  0  0  0
   40.6028   21.8811   37.9790 H   0  0  0  0  0  0  0  0  0  0  0  0
   41.2990   20.6183   36.9079 H   0  0  0  0  0  0  0  0  0  0  0  0
   41.9895   22.2765   36.9079 H   0  0  0  0  0  0  0  0  0  0  0  0
  1 14  1  0
  2  1  2  0
  3  2  1  0
  4  5  1  0
  4  3  2  0
  5  6  2  0
  6  7  1  0
  6  1  1  0
  7 11  1  0
  8  9  1  0
  8  7  1  0
  9 10  1  0
 10 11  1  0
 11 12  1  0
 13 18  2  0
 14 13  1  0
 15 14  2  0
 15 16  1  0
 16 17  2  0
 17 18  1  0
 17 19  1  0
  2 20  1  0
  3 21  1  0
  4 22  1  0
  5 23  1  0
  7 24  1  1
  8 25  1  0
  8 26  1  0
  9 27  1  0
  9 28  1  0
 10 29  1  0
 10 30  1  0
 11 31  1  6
 12 32  1  0
 12 33  1  0
 13 34  1  0
 15 35  1  0
 19 36  1  0
 19 37  1  0
 19 38  1  0
M  ISO  8  20  14  21  14  22  14  23  14  24  13  25  13  26  13  27  13
M  ISO  8  28  13  29  13  30  13  31  13  32   5  33   5  34  14  35  14
M  ISO  3  36   8  37   8  38   8
M  END
>  <minimizedAffinity>  (1) 
-5.05949497

>  <minimizedRMSD>  (1) 
0.427791834

$$$$
