
     RDKit          3D

 41 43  0  0  1  0  0  0  0  0999 V2000
   37.3660   23.2260   32.9970 C   0  0  0  0  0  0  0  0  0  0  0  0
   37.2490   24.6160   32.8270 C   0  0  0  0  0  0  0  0  0  0  0  0
   36.3140   25.0440   31.8960 C   0  0  0  0  0  0  0  0  0  0  0  0
   35.5660   24.0960   31.2020 C   0  0  0  0  0  0  0  0  0  0  0  0
   35.7330   22.7400   31.4190 C   0  0  0  0  0  0  0  0  0  0  0  0
   36.6510   22.2580   32.3370 C   0  0  0  0  0  0  0  0  0  0  0  0
   36.6510   20.8190   32.3660 C   0  0  2  0  0  0  0  0  0  0  0  0
   36.4300   20.1160   31.0690 C   0  0  0  0  0  0  0  0  0  0  0  0
   36.4130   18.6680   31.6070 C   0  0  0  0  0  0  0  0  0  0  0  0
   35.7070   18.7920   32.9640 C   0  0  0  0  0  0  0  0  0  0  0  0
   35.3570   20.2740   33.0720 C   0  0  1  0  0  0  0  0  0  0  0  0
   35.3880   20.6450   34.4640 N   0  0  0  0  0  0  0  0  0  0  0  0
   37.9750   22.7990   35.3590 C   0  0  0  0  0  0  0  0  0  0  0  0
   38.3490   22.8180   33.9830 C   0  0  0  0  0  0  0  0  0  0  0  0
   39.6280   22.4530   33.6180 C   0  0  0  0  0  0  0  0  0  0  0  0
   40.5240   22.0820   34.5530 N   0  0  0  0  0  0  0  0  0  0  0  0
   40.1440   22.0700   35.8800 C   0  0  0  0  0  0  0  0  0  0  0  0
   38.8880   22.4230   36.2820 N   0  0  0  0  0  0  0  0  0  0  0  0
   41.0930   21.6680   36.9430 C   0  0  0  0  0  0  0  0  0  0  0  0
   42.4310   22.3160   36.6580 C   0  0  0  0  0  0  0  0  0  0  0  0
   37.8645   25.3250   33.4002 H   0  0  0  0  0  0  0  0  0  0  0  0
   36.1653   26.1176   31.7084 H   0  0  0  0  0  0  0  0  0  0  0  0
   34.8243   24.4338   30.4632 H   0  0  0  0  0  0  0  0  0  0  0  0
   35.1210   22.0264   30.8478 H   0  0  0  0  0  0  0  0  0  0  0  0
   37.6386   20.6342   32.8137 H   0  0  0  0  0  0  0  0  0  0  0  0
   37.2518   20.2863   30.3579 H   0  0  0  0  0  0  0  0  0  0  0  0
   35.5440   20.4279   30.4966 H   0  0  0  0  0  0  0  0  0  0  0  0
   35.8516   18.0054   30.9319 H   0  0  0  0  0  0  0  0  0  0  0  0
   37.4195   18.2318   31.6886 H   0  0  0  0  0  0  0  0  0  0  0  0
   34.7974   18.1739   32.9881 H   0  0  0  0  0  0  0  0  0  0  0  0
   36.3352   18.4463   33.7982 H   0  0  0  0  0  0  0  0  0  0  0  0
   34.3881   20.6046   32.6696 H   0  0  0  0  0  0  0  0  0  0  0  0
   35.3173   19.7985   35.0466 H   0  0  0  0  0  0  0  0  0  0  0  0
   36.2725   21.1308   34.6702 H   0  0  0  0  0  0  0  0  0  0  0  0
   36.9581   23.0862   35.6648 H   0  0  0  0  0  0  0  0  0  0  0  0
   39.9182   22.4649   32.5570 H   0  0  0  0  0  0  0  0  0  0  0  0
   40.7187   22.0031   37.9216 H   0  0  0  0  0  0  0  0  0  0  0  0
   41.1991   20.5733   36.9611 H   0  0  0  0  0  0  0  0  0  0  0  0
   42.9308   22.5581   37.6075 H   0  0  0  0  0  0  0  0  0  0  0  0
   43.0587   21.6221   36.0797 H   0  0  0  0  0  0  0  0  0  0  0  0
   42.2758   23.2387   36.0797 H   0  0  0  0  0  0  0  0  0  0  0  0
  1 14  1  0
  2  1  2  0
  3  2  1  0
  4  5  1  0
  4  3  2  0
  5  6  2  0
  6  7  1  0
  6  1  1  0
  7 11  1  0
  8  9  1  0
  8  7  1  0
  9 10  1  0
 10 11  1  0
 11 12  1  0
 13 18  2  0
 14 13  1  0
 15 14  2  0
 15 16  1  0
 16 17  2  0
 17 18  1  0
 17 19  1  0
 20 19  1  0
  2 21  1  0
  3 22  1  0
  4 23  1  0
  5 24  1  0
  7 25  1  1
  8 26  1  0
  8 27  1  0
  9 28  1  0
  9 29  1  0
 10 30  1  0
 10 31  1  0
 11 32  1  6
 12 33  1  0
 12 34  1  0
 13 35  1  0
 15 36  1  0
 19 37  1  0
 19 38  1  0
 20 39  1  0
 20 40  1  0
 20 41  1  0
M  ISO  8  21  14  22  14  23  14  24  14  25  13  26  13  27  13  28  13
M  ISO  8  29  13  30  13  31  13  32  13  33   5  34   5  35  14  36  14
M  ISO  5  37   8  38   8  39   8  40   8  41   8
M  END
>  <minimizedAffinity>  (1) 
-5.08613777

>  <minimizedRMSD>  (1) 
0.427620173

$$$$
