
     RDKit          3D

 41 44  0  0  1  0  0  0  0  0999 V2000
   37.4970   23.3220   32.5500 C   0  0  0  0  0  0  0  0  0  0  0  0
   37.4160   24.7270   32.4820 C   0  0  0  0  0  0  0  0  0  0  0  0
   36.2880   25.2550   31.8900 C   0  0  0  0  0  0  0  0  0  0  0  0
   35.3090   24.3810   31.4030 C   0  0  0  0  0  0  0  0  0  0  0  0
   35.4510   23.0090   31.5010 C   0  0  0  0  0  0  0  0  0  0  0  0
   36.5640   22.4360   32.0870 C   0  0  0  0  0  0  0  0  0  0  0  0
   36.4900   20.9940   32.0500 C   0  0  2  0  0  0  0  0  0  0  0  0
   36.0040   20.3750   30.7820 C   0  0  0  0  0  0  0  0  0  0  0  0
   36.0030   18.9010   31.2450 C   0  0  0  0  0  0  0  0  0  0  0  0
   35.5480   18.9860   32.7120 C   0  0  0  0  0  0  0  0  0  0  0  0
   35.3010   20.4750   32.9380 C   0  0  1  0  0  0  0  0  0  0  0  0
   35.5770   20.7740   34.3200 N   0  0  0  0  0  0  0  0  0  0  0  0
   38.6800   22.5770   34.5920 C   0  0  0  0  0  0  0  0  0  0  0  0
   38.7030   22.8100   33.1890 C   0  0  0  0  0  0  0  0  0  0  0  0
   39.8470   22.5590   32.4640 C   0  0  0  0  0  0  0  0  0  0  0  0
   40.9500   22.0930   33.0800 N   0  0  0  0  0  0  0  0  0  0  0  0
   40.9160   21.8710   34.4380 C   0  0  0  0  0  0  0  0  0  0  0  0
   39.7920   22.1110   35.1920 N   0  0  0  0  0  0  0  0  0  0  0  0
   42.0390   21.3650   35.2390 C   0  0  0  0  0  0  0  0  0  0  0  0
   43.4090   21.0150   34.8270 C   0  0  0  0  0  0  0  0  0  0  0  0
   44.0870   20.4780   36.5080 S   0  0  0  0  0  0  0  0  0  0  0  0
   42.4840   20.8150   37.3630 C   0  0  0  0  0  0  0  0  0  0  0  0
   41.6650   21.2390   36.5000 N   0  0  0  0  0  0  0  0  0  0  0  0
   38.2133   25.3710   32.8815 H   0  0  0  0  0  0  0  0  0  0  0  0
   36.1598   26.3440   31.8020 H   0  0  0  0  0  0  0  0  0  0  0  0
   34.4057   24.7952   30.9314 H   0  0  0  0  0  0  0  0  0  0  0  0
   34.6589   22.3577   31.1029 H   0  0  0  0  0  0  0  0  0  0  0  0
   37.5277   20.7388   32.3110 H   0  0  0  0  0  0  0  0  0  0  0  0
   36.6947   20.5473   29.9434 H   0  0  0  0  0  0  0  0  0  0  0  0
   35.0488   20.7586   30.3941 H   0  0  0  0  0  0  0  0  0  0  0  0
   35.2987   18.3021   30.6489 H   0  0  0  0  0  0  0  0  0  0  0  0
   36.9825   18.4143   31.1276 H   0  0  0  0  0  0  0  0  0  0  0  0
   34.6250   18.4086   32.8689 H   0  0  0  0  0  0  0  0  0  0  0  0
   36.2899   18.5699   33.4095 H   0  0  0  0  0  0  0  0  0  0  0  0
   34.2990   20.8705   32.7155 H   0  0  0  0  0  0  0  0  0  0  0  0
   35.0109   20.1607   34.9236 H   0  0  0  0  0  0  0  0  0  0  0  0
   36.5767   20.6171   34.5122 H   0  0  0  0  0  0  0  0  0  0  0  0
   37.7695   22.7741   35.1769 H   0  0  0  0  0  0  0  0  0  0  0  0
   39.8596   22.7397   31.3790 H   0  0  0  0  0  0  0  0  0  0  0  0
   43.8919   21.0542   33.8394 H   0  0  0  0  0  0  0  0  0  0  0  0
   42.2792   20.6717   38.4342 H   0  0  0  0  0  0  0  0  0  0  0  0
  1 14  1  0
  2  1  2  0
  3  2  1  0
  4  5  1  0
  4  3  2  0
  5  6  2  0
  6  1  1  0
  7  6  1  0
  7 11  1  0
  8  9  1  0
  8  7  1  0
  9 10  1  0
 10 11  1  0
 11 12  1  0
 13 18  2  0
 14 13  1  0
 15 16  1  0
 15 14  2  0
 16 17  2  0
 17 18  1  0
 17 19  1  0
 19 23  1  0
 20 19  2  0
 20 21  1  0
 21 22  1  0
 23 22  2  0
  2 24  1  0
  3 25  1  0
  4 26  1  0
  5 27  1  0
  7 28  1  1
  8 29  1  0
  8 30  1  0
  9 31  1  0
  9 32  1  0
 10 33  1  0
 10 34  1  0
 11 35  1  6
 12 36  1  0
 12 37  1  0
 13 38  1  0
 15 39  1  0
 20 40  1  0
 22 41  1  0
M  ISO  8  24  14  25  14  26  14  27  14  28  13  29  13  30  13  31  13
M  ISO  8  32  13  33  13  34  13  35  13  36   5  37   5  38  14  39  14
M  ISO  2  40  14  41  14
M  END
>  <minimizedAffinity>  (1) 
-4.77005672

>  <minimizedRMSD>  (1) 
1.03418314

$$$$
