
     RDKit          3D

 29 30  0  0  0  0  0  0  0  0999 V2000
   40.4990   22.3310   35.9200 C   0  0  0  0  0  0  0  0  0  0  0  0
   39.9920   22.6920   37.1960 C   0  0  0  0  0  0  0  0  0  0  0  0
   38.7390   23.3230   37.2410 C   0  0  0  0  0  0  0  0  0  0  0  0
   38.0880   23.5500   36.0750 N   0  0  0  0  0  0  0  0  0  0  0  0
   38.6210   23.1810   34.8720 C   0  0  0  0  0  0  0  0  0  0  0  0
   39.8150   22.5790   34.8130 N   0  0  0  0  0  0  0  0  0  0  0  0
   37.8350   23.4740   33.6880 C   0  0  0  0  0  0  0  0  0  0  0  0
   37.2360   22.5340   32.8530 C   0  0  0  0  0  0  0  0  0  0  0  0
   36.5830   23.2390   31.8420 C   0  0  0  0  0  0  0  0  0  0  0  0
   36.7920   24.5440   32.0730 N   0  0  0  0  0  0  0  0  0  0  0  0
   37.5400   24.6700   33.1770 N   0  0  0  0  0  0  0  0  0  0  0  0
   36.2600   25.5880   31.2190 C   0  0  0  0  0  0  0  0  0  0  0  0
   36.2160   26.9220   31.9210 C   0  0  0  0  0  0  0  0  0  0  0  0
   34.8200   25.2300   30.8440 C   0  0  0  0  0  0  0  0  0  0  0  0
   38.2750   23.6690   38.5910 C   0  0  0  0  0  0  0  0  0  0  0  0
   37.7970   24.9540   38.5780 F   0  0  0  0  0  0  0  0  0  0  0  0
   39.3780   23.6660   39.4170 F   0  0  0  0  0  0  0  0  0  0  0  0
   37.2840   22.8270   39.0260 F   0  0  0  0  0  0  0  0  0  0  0  0
   41.4787   21.8358   35.8492 H   0  0  0  0  0  0  0  0  0  0  0  0
   40.5599   22.4849   38.1150 H   0  0  0  0  0  0  0  0  0  0  0  0
   37.2713   21.4407   32.9690 H   0  0  0  0  0  0  0  0  0  0  0  0
   36.0055   22.8065   31.0117 H   0  0  0  0  0  0  0  0  0  0  0  0
   36.9157   25.6634   30.3390 H   0  0  0  0  0  0  0  0  0  0  0  0
   36.2212   26.7638   33.0096 H   0  0  0  0  0  0  0  0  0  0  0  0
   37.0950   27.5172   31.6327 H   0  0  0  0  0  0  0  0  0  0  0  0
   35.2997   27.4580   31.6327 H   0  0  0  0  0  0  0  0  0  0  0  0
   34.2284   25.0829   31.7596 H   0  0  0  0  0  0  0  0  0  0  0  0
   34.3816   26.0465   30.2514 H   0  0  0  0  0  0  0  0  0  0  0  0
   34.8150   24.3033   30.2514 H   0  0  0  0  0  0  0  0  0  0  0  0
  1  2  2  0
  2  3  1  0
  3 15  1  0
  4  3  2  0
  5  4  1  0
  6  5  2  0
  6  1  1  0
  7  5  1  0
  8  7  1  0
  9 10  1  0
  9  8  2  0
 10 11  1  0
 11  7  2  0
 12 13  1  0
 12 10  1  0
 14 12  1  0
 15 18  1  0
 15 17  1  0
 16 15  1  0
  1 19  1  0
  2 20  1  0
  8 21  1  0
  9 22  1  0
 12 23  1  0
 13 24  1  0
 13 25  1  0
 13 26  1  0
 14 27  1  0
 14 28  1  0
 14 29  1  0
M  ISO  8  19  14  20  14  21  14  22  14  23   8  24   8  25   8  26   8
M  ISO  3  27   8  28   8  29   8
M  END
>  <minimizedAffinity>  (1) 
-5.1317544

>  <minimizedRMSD>  (1) 
0.810972452

$$$$
