
     RDKit          3D

 37 39  0  0  1  0  0  0  0  0999 V2000
   37.3620   23.2150   32.9800 C   0  0  0  0  0  0  0  0  0  0  0  0
   37.2430   24.6100   32.8140 C   0  0  0  0  0  0  0  0  0  0  0  0
   36.3100   25.0550   31.8980 C   0  0  0  0  0  0  0  0  0  0  0  0
   35.5540   24.1120   31.2020 C   0  0  0  0  0  0  0  0  0  0  0  0
   35.7140   22.7550   31.4060 C   0  0  0  0  0  0  0  0  0  0  0  0
   36.6370   22.2620   32.3150 C   0  0  0  0  0  0  0  0  0  0  0  0
   36.6230   20.8200   32.3360 C   0  0  2  0  0  0  0  0  0  0  0  0
   36.3730   20.1280   31.0360 C   0  0  0  0  0  0  0  0  0  0  0  0
   36.3520   18.6760   31.5660 C   0  0  0  0  0  0  0  0  0  0  0  0
   35.6730   18.7930   32.9310 C   0  0  0  0  0  0  0  0  0  0  0  0
   35.3370   20.2800   33.0570 C   0  0  1  0  0  0  0  0  0  0  0  0
   35.3900   20.6440   34.4470 N   0  0  0  0  0  0  0  0  0  0  0  0
   37.9920   22.7950   35.3350 C   0  0  0  0  0  0  0  0  0  0  0  0
   38.3510   22.7930   33.9530 C   0  0  0  0  0  0  0  0  0  0  0  0
   39.6160   22.3990   33.5700 C   0  0  0  0  0  0  0  0  0  0  0  0
   40.5180   22.0140   34.4930 N   0  0  0  0  0  0  0  0  0  0  0  0
   40.1590   22.0210   35.8280 C   0  0  0  0  0  0  0  0  0  0  0  0
   38.9110   22.4060   36.2460 N   0  0  0  0  0  0  0  0  0  0  0  0
   41.1010   21.6200   36.7940 N   0  0  0  0  0  0  0  0  0  0  0  0
   37.8652   25.3123   33.3881 H   0  0  0  0  0  0  0  0  0  0  0  0
   36.1661   26.1311   31.7210 H   0  0  0  0  0  0  0  0  0  0  0  0
   34.8095   24.4584   30.4701 H   0  0  0  0  0  0  0  0  0  0  0  0
   35.0943   22.0491   30.8335 H   0  0  0  0  0  0  0  0  0  0  0  0
   37.6153   20.6243   32.7684 H   0  0  0  0  0  0  0  0  0  0  0  0
   37.1840   20.2956   30.3120 H   0  0  0  0  0  0  0  0  0  0  0  0
   35.4807   20.4521   30.4803 H   0  0  0  0  0  0  0  0  0  0  0  0
   35.7737   18.0230   30.8958 H   0  0  0  0  0  0  0  0  0  0  0  0
   37.3567   18.2324   31.6284 H   0  0  0  0  0  0  0  0  0  0  0  0
   34.7588   18.1822   32.9656 H   0  0  0  0  0  0  0  0  0  0  0  0
   36.3120   18.4345   33.7515 H   0  0  0  0  0  0  0  0  0  0  0  0
   34.3639   20.6193   32.6724 H   0  0  0  0  0  0  0  0  0  0  0  0
   35.2674   19.8019   35.0273 H   0  0  0  0  0  0  0  0  0  0  0  0
   36.3025   21.0742   34.6547 H   0  0  0  0  0  0  0  0  0  0  0  0
   36.9861   23.1074   35.6521 H   0  0  0  0  0  0  0  0  0  0  0  0
   39.8897   22.3992   32.5046 H   0  0  0  0  0  0  0  0  0  0  0  0
   40.8471   21.6203   37.7922 H   0  0  0  0  0  0  0  0  0  0  0  0
   42.0443   21.3262   36.5027 H   0  0  0  0  0  0  0  0  0  0  0  0
  1 14  1  0
  2  1  2  0
  3  2  1  0
  4  5  1  0
  4  3  2  0
  5  6  2  0
  6  7  1  0
  6  1  1  0
  7 11  1  0
  8  9  1  0
  8  7  1  0
  9 10  1  0
 10 11  1  0
 11 12  1  0
 13 18  2  0
 14 13  1  0
 15 14  2  0
 15 16  1  0
 16 17  2  0
 17 18  1  0
 17 19  1  0
  2 20  1  0
  3 21  1  0
  4 22  1  0
  5 23  1  0
  7 24  1  1
  8 25  1  0
  8 26  1  0
  9 27  1  0
  9 28  1  0
 10 29  1  0
 10 30  1  0
 11 31  1  6
 12 32  1  0
 12 33  1  0
 13 34  1  0
 15 35  1  0
 19 36  1  0
 19 37  1  0
M  ISO  8  20  14  21  14  22  14  23  14  24  13  25  13  26  13  27  13
M  ISO  8  28  13  29  13  30  13  31  13  32   5  33   5  34  14  35  14
M  END
>  <minimizedAffinity>  (1) 
-4.95181656

>  <minimizedRMSD>  (1) 
0.370210022

$$$$
