
     RDKit          3D

 42 45  0  0  1  0  0  0  0  0999 V2000
   37.4430   23.3890   32.6200 C   0  0  0  0  0  0  0  0  0  0  0  0
   37.3480   24.7910   32.5460 C   0  0  0  0  0  0  0  0  0  0  0  0
   36.2370   25.3010   31.9030 C   0  0  0  0  0  0  0  0  0  0  0  0
   35.2970   24.4220   31.3740 C   0  0  0  0  0  0  0  0  0  0  0  0
   35.4490   23.0510   31.4780 C   0  0  0  0  0  0  0  0  0  0  0  0
   36.5420   22.4870   32.1140 C   0  0  0  0  0  0  0  0  0  0  0  0
   36.4820   21.0490   32.0770 C   0  0  2  0  0  0  0  0  0  0  0  0
   36.0120   20.4260   30.8030 C   0  0  0  0  0  0  0  0  0  0  0  0
   36.0200   18.9520   31.2650 C   0  0  0  0  0  0  0  0  0  0  0  0
   35.5530   19.0280   32.7280 C   0  0  0  0  0  0  0  0  0  0  0  0
   35.3000   20.5140   32.9620 C   0  0  1  0  0  0  0  0  0  0  0  0
   35.5740   20.8090   34.3450 N   0  0  0  0  0  0  0  0  0  0  0  0
   38.5640   22.7270   34.7260 C   0  0  0  0  0  0  0  0  0  0  0  0
   38.6220   22.8900   33.3080 C   0  0  0  0  0  0  0  0  0  0  0  0
   39.7780   22.5820   32.6230 C   0  0  0  0  0  0  0  0  0  0  0  0
   40.8590   22.1270   33.2870 N   0  0  0  0  0  0  0  0  0  0  0  0
   40.7900   21.9730   34.6560 C   0  0  0  0  0  0  0  0  0  0  0  0
   39.6630   22.2680   35.3650 N   0  0  0  0  0  0  0  0  0  0  0  0
   41.8920   21.5060   35.3550 C   0  0  0  0  0  0  0  0  0  0  0  0
   42.1320   21.0450   36.6180 C   0  0  0  0  0  0  0  0  0  0  0  0
   43.3730   20.6420   37.0180 C   0  0  0  0  0  0  0  0  0  0  0  0
   44.4070   20.7250   36.0590 C   0  0  0  0  0  0  0  0  0  0  0  0
   43.5820   21.3950   34.5490 S   0  0  0  0  0  0  0  0  0  0  0  0
   38.1185   25.4467   32.9778 H   0  0  0  0  0  0  0  0  0  0  0  0
   36.0971   26.3881   31.8103 H   0  0  0  0  0  0  0  0  0  0  0  0
   34.4122   24.8269   30.8610 H   0  0  0  0  0  0  0  0  0  0  0  0
   34.6822   22.3922   31.0445 H   0  0  0  0  0  0  0  0  0  0  0  0
   37.5208   20.8047   32.3439 H   0  0  0  0  0  0  0  0  0  0  0  0
   36.7084   20.6050   29.9705 H   0  0  0  0  0  0  0  0  0  0  0  0
   35.0569   20.8014   30.4070 H   0  0  0  0  0  0  0  0  0  0  0  0
   35.3259   18.3479   30.6622 H   0  0  0  0  0  0  0  0  0  0  0  0
   37.0054   18.4755   31.1555 H   0  0  0  0  0  0  0  0  0  0  0  0
   34.6303   18.4472   32.8739 H   0  0  0  0  0  0  0  0  0  0  0  0
   36.2910   18.6103   33.4286 H   0  0  0  0  0  0  0  0  0  0  0  0
   34.2949   20.9027   32.7415 H   0  0  0  0  0  0  0  0  0  0  0  0
   35.0048   20.1961   34.9461 H   0  0  0  0  0  0  0  0  0  0  0  0
   36.5728   20.6486   34.5389 H   0  0  0  0  0  0  0  0  0  0  0  0
   37.6475   22.9691   35.2841 H   0  0  0  0  0  0  0  0  0  0  0  0
   39.8183   22.7080   31.5310 H   0  0  0  0  0  0  0  0  0  0  0  0
   41.2992   20.9970   37.3351 H   0  0  0  0  0  0  0  0  0  0  0  0
   43.5589   20.2709   38.0367 H   0  0  0  0  0  0  0  0  0  0  0  0
   45.4653   20.4520   36.1837 H   0  0  0  0  0  0  0  0  0  0  0  0
  1 14  1  0
  2  1  2  0
  3  2  1  0
  4  5  1  0
  4  3  2  0
  5  6  2  0
  6  1  1  0
  7  6  1  0
  7 11  1  0
  8  9  1  0
  8  7  1  0
  9 10  1  0
 10 11  1  0
 11 12  1  0
 13 18  2  0
 14 13  1  0
 15 16  1  0
 15 14  2  0
 16 17  2  0
 17 19  1  0
 17 18  1  0
 19 20  2  0
 20 21  1  0
 22 21  2  0
 23 19  1  0
 23 22  1  0
  2 24  1  0
  3 25  1  0
  4 26  1  0
  5 27  1  0
  7 28  1  1
  8 29  1  0
  8 30  1  0
  9 31  1  0
  9 32  1  0
 10 33  1  0
 10 34  1  0
 11 35  1  6
 12 36  1  0
 12 37  1  0
 13 38  1  0
 15 39  1  0
 20 40  1  0
 21 41  1  0
 22 42  1  0
M  ISO  8  24  14  25  14  26  14  27  14  28  13  29  13  30  13  31  13
M  ISO  8  32  13  33  13  34  13  35  13  36   5  37   5  38  14  39  14
M  ISO  3  40  14  41  14  42  14
M  END
>  <minimizedAffinity>  (1) 
-4.94068861

>  <minimizedRMSD>  (1) 
0.720074236

$$$$
