
     RDKit          3D

 43 46  0  0  1  0  0  0  0  0999 V2000
   37.4680   23.3680   32.6040 C   0  0  0  0  0  0  0  0  0  0  0  0
   37.3840   24.7580   32.5390 C   0  0  0  0  0  0  0  0  0  0  0  0
   36.2720   25.2790   31.9150 C   0  0  0  0  0  0  0  0  0  0  0  0
   35.3160   24.4090   31.3930 C   0  0  0  0  0  0  0  0  0  0  0  0
   35.4610   23.0370   31.4910 C   0  0  0  0  0  0  0  0  0  0  0  0
   36.5610   22.4690   32.1120 C   0  0  0  0  0  0  0  0  0  0  0  0
   36.4890   21.0270   32.0720 C   0  0  2  0  0  0  0  0  0  0  0  0
   36.0170   20.4050   30.8020 C   0  0  0  0  0  0  0  0  0  0  0  0
   36.0030   18.9320   31.2710 C   0  0  0  0  0  0  0  0  0  0  0  0
   35.5560   19.0140   32.7370 C   0  0  0  0  0  0  0  0  0  0  0  0
   35.3040   20.5070   32.9700 C   0  0  1  0  0  0  0  0  0  0  0  0
   35.5850   20.7990   34.3460 N   0  0  0  0  0  0  0  0  0  0  0  0
   38.6240   22.7090   34.6940 C   0  0  0  0  0  0  0  0  0  0  0  0
   38.6540   22.8610   33.2750 C   0  0  0  0  0  0  0  0  0  0  0  0
   39.8020   22.5260   32.5750 C   0  0  0  0  0  0  0  0  0  0  0  0
   40.8870   22.0590   33.2240 N   0  0  0  0  0  0  0  0  0  0  0  0
   40.8340   21.9190   34.6060 C   0  0  0  0  0  0  0  0  0  0  0  0
   39.7280   22.2370   35.3210 N   0  0  0  0  0  0  0  0  0  0  0  0
   42.0360   21.4090   35.2560 C   0  0  0  0  0  0  0  0  0  0  0  0
   41.9670   21.0640   36.5890 C   0  0  0  0  0  0  0  0  0  0  0  0
   43.1490   20.5910   37.1210 C   0  0  0  0  0  0  0  0  0  0  0  0
   44.3100   20.4590   36.4270 N   0  0  0  0  0  0  0  0  0  0  0  0
   44.2960   20.8220   35.1170 C   0  0  0  0  0  0  0  0  0  0  0  0
   43.1570   21.2940   34.5440 N   0  0  0  0  0  0  0  0  0  0  0  0
   38.1653   25.4052   32.9640 H   0  0  0  0  0  0  0  0  0  0  0  0
   36.1400   26.3677   31.8297 H   0  0  0  0  0  0  0  0  0  0  0  0
   34.4278   24.8223   30.8927 H   0  0  0  0  0  0  0  0  0  0  0  0
   34.6856   22.3825   31.0664 H   0  0  0  0  0  0  0  0  0  0  0  0
   37.5271   20.7713   32.3308 H   0  0  0  0  0  0  0  0  0  0  0  0
   36.7192   20.5705   29.9716 H   0  0  0  0  0  0  0  0  0  0  0  0
   35.0685   20.7912   30.4005 H   0  0  0  0  0  0  0  0  0  0  0  0
   35.2912   18.3394   30.6776 H   0  0  0  0  0  0  0  0  0  0  0  0
   36.9800   18.4405   31.1529 H   0  0  0  0  0  0  0  0  0  0  0  0
   34.6356   18.4333   32.8973 H   0  0  0  0  0  0  0  0  0  0  0  0
   36.3038   18.5998   33.4293 H   0  0  0  0  0  0  0  0  0  0  0  0
   34.3008   20.9045   32.7563 H   0  0  0  0  0  0  0  0  0  0  0  0
   35.0063   20.1977   34.9497 H   0  0  0  0  0  0  0  0  0  0  0  0
   36.5812   20.6214   34.5382 H   0  0  0  0  0  0  0  0  0  0  0  0
   37.7221   22.9700   35.2670 H   0  0  0  0  0  0  0  0  0  0  0  0
   39.8280   22.6421   31.4815 H   0  0  0  0  0  0  0  0  0  0  0  0
   41.0444   21.1582   37.1805 H   0  0  0  0  0  0  0  0  0  0  0  0
   43.1518   20.3002   38.1819 H   0  0  0  0  0  0  0  0  0  0  0  0
   45.2131   20.7332   34.5161 H   0  0  0  0  0  0  0  0  0  0  0  0
  1 14  1  0
  2  1  2  0
  3  2  1  0
  4  5  1  0
  4  3  2  0
  5  6  2  0
  6  1  1  0
  7  6  1  0
  7 11  1  0
  8  9  1  0
  8  7  1  0
  9 10  1  0
 10 11  1  0
 11 12  1  0
 13 18  2  0
 14 13  1  0
 15 16  1  0
 15 14  2  0
 16 17  2  0
 17 19  1  0
 17 18  1  0
 19 20  2  0
 20 21  1  0
 22 21  2  0
 23 22  1  0
 24 23  2  0
 24 19  1  0
  2 25  1  0
  3 26  1  0
  4 27  1  0
  5 28  1  0
  7 29  1  1
  8 30  1  0
  8 31  1  0
  9 32  1  0
  9 33  1  0
 10 34  1  0
 10 35  1  0
 11 36  1  6
 12 37  1  0
 12 38  1  0
 13 39  1  0
 15 40  1  0
 20 41  1  0
 21 42  1  0
 23 43  1  0
M  ISO  8  25  14  26  14  27  14  28  14  29  13  30  13  31  13  32  13
M  ISO  8  33  13  34  13  35  13  36  13  37   5  38   5  39  14  40  14
M  ISO  3  41  14  42  14  43  14
M  END
>  <minimizedAffinity>  (1) 
-4.91683197

>  <minimizedRMSD>  (1) 
0.735823691

$$$$
