
     RDKit          3D

 22 24  0  0  0  0  0  0  0  0999 V2000
   40.7580   23.1700   36.1820 C   0  0  0  0  0  0  0  0  0  0  0  0
   40.2120   22.6720   37.3870 C   0  0  0  0  0  0  0  0  0  0  0  0
   38.9660   23.1820   37.8220 C   0  0  0  0  0  0  0  0  0  0  0  0
   38.3630   24.1210   37.0560 N   0  0  0  0  0  0  0  0  0  0  0  0
   38.9140   24.5740   35.9090 C   0  0  0  0  0  0  0  0  0  0  0  0
   40.0970   24.1090   35.4700 N   0  0  0  0  0  0  0  0  0  0  0  0
   38.2620   25.5630   35.1170 N   0  0  0  0  0  0  0  0  0  0  0  0
   37.2780   26.4380   35.3980 C   0  0  0  0  0  0  0  0  0  0  0  0
   37.0060   27.1800   34.2860 N   0  0  0  0  0  0  0  0  0  0  0  0
   37.8480   26.7390   33.3090 C   0  0  0  0  0  0  0  0  0  0  0  0
   37.9680   27.1700   31.9940 C   0  0  0  0  0  0  0  0  0  0  0  0
   38.8810   26.5760   31.2120 N   0  0  0  0  0  0  0  0  0  0  0  0
   39.6580   25.5860   31.7070 C   0  0  0  0  0  0  0  0  0  0  0  0
   39.5600   25.1450   32.9920 N   0  0  0  0  0  0  0  0  0  0  0  0
   38.6470   25.7170   33.8230 C   0  0  0  0  0  0  0  0  0  0  0  0
   38.4930   22.6640   38.9900 O   0  0  0  0  0  0  0  0  0  0  0  0
   41.7260   22.7911   35.8221 H   0  0  0  0  0  0  0  0  0  0  0  0
   40.7429   21.9067   37.9722 H   0  0  0  0  0  0  0  0  0  0  0  0
   36.7733   26.5386   36.3702 H   0  0  0  0  0  0  0  0  0  0  0  0
   37.3307   27.9775   31.6043 H   0  0  0  0  0  0  0  0  0  0  0  0
   40.4002   25.1173   31.0441 H   0  0  0  0  0  0  0  0  0  0  0  0
   37.6265   22.9748   39.3543 H   0  0  0  0  0  0  0  0  0  0  0  0
  1  2  2  0
  2  3  1  0
  3 16  1  0
  4  3  2  0
  5  4  1  0
  6  5  2  0
  6  1  1  0
  7  8  1  0
  7  5  1  0
  9  8  2  0
 10 15  2  0
 10  9  1  0
 11 10  1  0
 12 13  1  0
 12 11  2  0
 13 14  2  0
 14 15  1  0
 15  7  1  0
  1 17  1  0
  2 18  1  0
  8 19  1  0
 11 20  1  0
 13 21  1  0
 16 22  1  0
M  ISO  6  17  14  18  14  19  14  20  14  21  14  22   3
M  END
>  <minimizedAffinity>  (1) 
-4.7008791

>  <minimizedRMSD>  (1) 
4.69323111

$$$$
