
     RDKit          3D

 24 25  0  0  0  0  0  0  0  0999 V2000
   40.8240   23.1200   36.2780 C   0  0  0  0  0  0  0  0  0  0  0  0
   40.3060   22.5990   37.4840 C   0  0  0  0  0  0  0  0  0  0  0  0
   39.0670   23.1000   37.9200 C   0  0  0  0  0  0  0  0  0  0  0  0
   38.4440   24.0490   37.1640 N   0  0  0  0  0  0  0  0  0  0  0  0
   38.9790   24.5090   36.0300 C   0  0  0  0  0  0  0  0  0  0  0  0
   40.1640   24.0570   35.5750 N   0  0  0  0  0  0  0  0  0  0  0  0
   36.9450   27.4810   33.7880 C   0  0  0  0  0  0  0  0  0  0  0  0
   37.4100   27.7740   35.0670 C   0  0  0  0  0  0  0  0  0  0  0  0
   38.0570   26.7870   35.7470 C   0  0  0  0  0  0  0  0  0  0  0  0
   38.2790   25.5240   35.2520 C   0  0  0  0  0  0  0  0  0  0  0  0
   37.8090   25.2570   33.9820 C   0  0  0  0  0  0  0  0  0  0  0  0
   37.1380   26.2380   33.2420 C   0  0  0  0  0  0  0  0  0  0  0  0
   36.1150   28.7100   32.8850 S   0  0  0  0  0  0  0  0  0  0  0  0
   34.9060   29.1940   33.6440 O   0  0  0  0  0  0  0  0  0  0  0  0
   35.6450   28.0960   31.5930 O   0  0  0  0  0  0  0  0  0  0  0  0
   38.5950   22.5670   39.0990 O   0  0  0  0  0  0  0  0  0  0  0  0
   41.7905   22.7504   35.9048 H   0  0  0  0  0  0  0  0  0  0  0  0
   40.8490   21.8336   38.0579 H   0  0  0  0  0  0  0  0  0  0  0  0
   37.2601   28.7683   35.5131 H   0  0  0  0  0  0  0  0  0  0  0  0
   38.4258   27.0154   36.7579 H   0  0  0  0  0  0  0  0  0  0  0  0
   37.9638   24.2594   33.5451 H   0  0  0  0  0  0  0  0  0  0  0  0
   36.7685   26.0134   32.2305 H   0  0  0  0  0  0  0  0  0  0  0  0
   36.9602   29.7655   32.6651 H   0  0  0  0  0  0  0  0  0  0  0  0
   37.7283   22.8717   39.4680 H   0  0  0  0  0  0  0  0  0  0  0  0
  1  2  2  0
  2  3  1  0
  3 16  1  0
  4  3  2  0
  5  4  1  0
  6  5  2  0
  6  1  1  0
  7  8  2  0
  8  9  1  0
 10  9  2  0
 10  5  1  0
 11 10  1  0
 12  7  1  0
 12 11  2  0
 13 14  2  0
 13  7  1  0
 15 13  2  0
  1 17  1  0
  2 18  1  0
  8 19  1  0
  9 20  1  0
 11 21  1  0
 12 22  1  0
 13 23  1  0
 16 24  1  0
M  ISO  8  17  14  18  14  19  14  20  14  21  14  22  14  23  11  24   3
M  END
>  <minimizedAffinity>  (1) 
-5.04149914

>  <minimizedRMSD>  (1) 
5.13222122

$$$$
