
     RDKit          3D

 25 27  0  0  0  0  0  0  0  0999 V2000
   38.1250   23.0180   34.2540 C   0  0  0  0  0  0  0  0  0  0  0  0
   38.8070   23.6640   33.2940 N   0  0  0  0  0  0  0  0  0  0  0  0
   38.6680   23.4490   31.9900 C   0  0  0  0  0  0  0  0  0  0  0  0
   37.7940   22.5280   31.5280 N   0  0  0  0  0  0  0  0  0  0  0  0
   37.0450   21.8120   32.4190 C   0  0  0  0  0  0  0  0  0  0  0  0
   36.1710   20.8880   31.9100 C   0  0  0  0  0  0  0  0  0  0  0  0
   35.4040   20.1510   32.7860 C   0  0  0  0  0  0  0  0  0  0  0  0
   35.5610   20.3870   34.1350 C   0  0  0  0  0  0  0  0  0  0  0  0
   36.4630   21.3340   34.5680 C   0  0  0  0  0  0  0  0  0  0  0  0
   37.2520   22.0950   33.7370 C   0  0  0  0  0  0  0  0  0  0  0  0
   37.9920   24.1010   37.8540 C   0  0  0  0  0  0  0  0  0  0  0  0
   39.0170   23.2990   38.3690 C   0  0  0  0  0  0  0  0  0  0  0  0
   39.6700   22.4590   37.4720 C   0  0  0  0  0  0  0  0  0  0  0  0
   39.2500   22.5040   36.2010 N   0  0  0  0  0  0  0  0  0  0  0  0
   38.2830   23.2600   35.6990 C   0  0  0  0  0  0  0  0  0  0  0  0
   37.6640   24.0590   36.5710 N   0  0  0  0  0  0  0  0  0  0  0  0
   40.6890   21.6510   37.9520 O   0  0  0  0  0  0  0  0  0  0  0  0
   39.2727   24.0287   31.2771 H   0  0  0  0  0  0  0  0  0  0  0  0
   36.0833   20.7374   30.8239 H   0  0  0  0  0  0  0  0  0  0  0  0
   34.6895   19.3987   32.4206 H   0  0  0  0  0  0  0  0  0  0  0  0
   34.9662   19.8193   34.8656 H   0  0  0  0  0  0  0  0  0  0  0  0
   36.5588   21.4924   35.6523 H   0  0  0  0  0  0  0  0  0  0  0  0
   37.4481   24.7795   38.5277 H   0  0  0  0  0  0  0  0  0  0  0  0
   39.2935   23.3312   39.4332 H   0  0  0  0  0  0  0  0  0  0  0  0
   41.1708   21.0436   37.3363 H   0  0  0  0  0  0  0  0  0  0  0  0
  1 15  1  0
  2  1  2  0
  3  2  1  0
  4  3  2  0
  4  5  1  0
  5 10  2  0
  6  5  1  0
  6  7  2  0
  7  8  1  0
  8  9  2  0
 10  1  1  0
 10  9  1  0
 11 12  2  0
 13 17  1  0
 13 12  1  0
 14 13  2  0
 15 14  1  0
 15 16  2  0
 16 11  1  0
  3 18  1  0
  6 19  1  0
  7 20  1  0
  8 21  1  0
  9 22  1  0
 11 23  1  0
 12 24  1  0
 17 25  1  0
M  ISO  8  18  14  19  14  20  14  21  14  22  14  23  14  24  14  25   3
M  END
>  <minimizedAffinity>  (1) 
-5.2607379

>  <minimizedRMSD>  (1) 
2.83138609

$$$$
