
     RDKit          3D

 18 19  0  0  0  0  0  0  0  0999 V2000
   40.0150   22.4730   36.9650 C   0  0  0  0  0  0  0  0  0  0  0  0
   39.5250   23.3500   37.9510 C   0  0  0  0  0  0  0  0  0  0  0  0
   38.1430   23.6590   37.9720 C   0  0  0  0  0  0  0  0  0  0  0  0
   37.3590   23.0760   37.0140 N   0  0  0  0  0  0  0  0  0  0  0  0
   37.8690   22.2460   36.0930 C   0  0  0  0  0  0  0  0  0  0  0  0
   39.1780   21.9360   36.0540 N   0  0  0  0  0  0  0  0  0  0  0  0
   37.0330   21.6510   35.1080 N   0  0  0  0  0  0  0  0  0  0  0  0
   37.3300   21.8410   33.8450 N   0  0  0  0  0  0  0  0  0  0  0  0
   36.4530   21.2210   33.0350 C   0  0  0  0  0  0  0  0  0  0  0  0
   35.5480   20.6010   33.8950 C   0  0  0  0  0  0  0  0  0  0  0  0
   35.9200   20.8780   35.2060 C   0  0  0  0  0  0  0  0  0  0  0  0
   37.7390   24.5130   38.9510 O   0  0  0  0  0  0  0  0  0  0  0  0
   41.0862   22.2244   36.9374 H   0  0  0  0  0  0  0  0  0  0  0  0
   40.2060   23.7892   38.6949 H   0  0  0  0  0  0  0  0  0  0  0  0
   36.4506   21.2065   31.9351 H   0  0  0  0  0  0  0  0  0  0  0  0
   34.6837   19.9939   33.5879 H   0  0  0  0  0  0  0  0  0  0  0  0
   35.4196   20.5427   36.1264 H   0  0  0  0  0  0  0  0  0  0  0  0
   36.7855   24.7700   39.0213 H   0  0  0  0  0  0  0  0  0  0  0  0
  1  2  2  0
  2  3  1  0
  3 12  1  0
  4  3  2  0
  5  4  1  0
  6  5  2  0
  6  1  1  0
  7 11  1  0
  7  5  1  0
  8  7  1  0
  9  8  2  0
  9 10  1  0
 10 11  2  0
  1 13  1  0
  2 14  1  0
  9 15  1  0
 10 16  1  0
 11 17  1  0
 12 18  1  0
M  ISO  6  13  14  14  14  15  14  16  14  17  14  18   3
M  END
>  <minimizedAffinity>  (1) 
-4.09054184

>  <minimizedRMSD>  (1) 
1.32176852

$$$$
