
     RDKit          3D

 17 18  0  0  0  0  0  0  0  0999 V2000
   40.2160   22.3680   37.2270 C   0  0  0  0  0  0  0  0  0  0  0  0
   39.5870   23.2200   38.1580 C   0  0  0  0  0  0  0  0  0  0  0  0
   38.2650   23.6130   37.9200 C   0  0  0  0  0  0  0  0  0  0  0  0
   37.6460   23.1450   36.7870 N   0  0  0  0  0  0  0  0  0  0  0  0
   38.2900   22.3320   35.9280 C   0  0  0  0  0  0  0  0  0  0  0  0
   39.5600   21.9410   36.1350 N   0  0  0  0  0  0  0  0  0  0  0  0
   37.4630   21.9320   34.7660 C   0  0  0  0  0  0  0  0  0  0  0  0
   37.7130   22.3530   33.3980 C   0  0  0  0  0  0  0  0  0  0  0  0
   36.2750   21.4430   32.5930 S   0  0  0  0  0  0  0  0  0  0  0  0
   35.6670   20.7130   34.2400 C   0  0  0  0  0  0  0  0  0  0  0  0
   36.4620   21.1320   35.1640 N   0  0  0  0  0  0  0  0  0  0  0  0
   37.6940   24.4390   38.8480 O   0  0  0  0  0  0  0  0  0  0  0  0
   41.2551   22.0495   37.3966 H   0  0  0  0  0  0  0  0  0  0  0  0
   40.1241   23.5684   39.0525 H   0  0  0  0  0  0  0  0  0  0  0  0
   38.4940   22.9981   32.9692 H   0  0  0  0  0  0  0  0  0  0  0  0
   34.7970   20.0544   34.3787 H   0  0  0  0  0  0  0  0  0  0  0  0
   36.7609   24.7474   38.7287 H   0  0  0  0  0  0  0  0  0  0  0  0
  1  2  2  0
  3  2  1  0
  3 12  1  0
  4  3  2  0
  5  6  2  0
  5  4  1  0
  6  1  1  0
  7 11  1  0
  7  5  1  0
  8  7  2  0
  9  8  1  0
  9 10  1  0
 10 11  2  0
  1 13  1  0
  2 14  1  0
  8 15  1  0
 10 16  1  0
 12 17  1  0
M  ISO  5  13  14  14  14  15  14  16  14  17   3
M  END
>  <minimizedAffinity>  (1) 
-3.70228553

>  <minimizedRMSD>  (1) 
0.692095935

$$$$
