
     RDKit          3D

 12 12  0  0  0  0  0  0  0  0999 V2000
   40.2630   22.3550   37.3260 C   0  0  0  0  0  0  0  0  0  0  0  0
   39.5860   23.1900   38.2520 C   0  0  0  0  0  0  0  0  0  0  0  0
   38.3080   23.6500   37.9160 C   0  0  0  0  0  0  0  0  0  0  0  0
   37.7760   23.2760   36.7220 N   0  0  0  0  0  0  0  0  0  0  0  0
   38.4550   22.4820   35.8730 C   0  0  0  0  0  0  0  0  0  0  0  0
   39.6850   22.0180   36.1560 N   0  0  0  0  0  0  0  0  0  0  0  0
   37.7140   24.4470   38.8510 O   0  0  0  0  0  0  0  0  0  0  0  0
   37.7440   21.9980   34.3060 S   0  0  0  0  0  0  0  0  0  0  0  0
   41.2688   21.9792   37.5652 H   0  0  0  0  0  0  0  0  0  0  0  0
   40.0532   23.4682   39.2082 H   0  0  0  0  0  0  0  0  0  0  0  0
   36.8086   24.8124   38.6869 H   0  0  0  0  0  0  0  0  0  0  0  0
   36.6264   21.2372   34.5272 H   0  0  0  0  0  0  0  0  0  0  0  0
  1  2  2  0
  3  2  1  0
  3  7  1  0
  4  3  2  0
  5  6  2  0
  5  4  1  0
  6  1  1  0
  8  5  1  0
  1  9  1  0
  2 10  1  0
  7 11  1  0
  8 12  1  0
M  ISO  4   9  14  10  14  11   3  12  11
M  END
>  <minimizedAffinity>  (1) 
-2.96379375

>  <minimizedRMSD>  (1) 
0.329160511

$$$$
