
     RDKit          3D

 14 14  0  0  0  0  0  0  0  0999 V2000
   40.2680   22.3550   37.3090 C   0  0  0  0  0  0  0  0  0  0  0  0
   39.6210   23.1920   38.2410 C   0  0  0  0  0  0  0  0  0  0  0  0
   38.3190   23.6410   37.9250 C   0  0  0  0  0  0  0  0  0  0  0  0
   37.7630   23.2390   36.7370 N   0  0  0  0  0  0  0  0  0  0  0  0
   38.4320   22.4400   35.8920 C   0  0  0  0  0  0  0  0  0  0  0  0
   39.6760   21.9900   36.1560 N   0  0  0  0  0  0  0  0  0  0  0  0
   37.7260   24.4490   38.8510 O   0  0  0  0  0  0  0  0  0  0  0  0
   37.8120   22.0110   34.6030 C   0  0  0  0  0  0  0  0  0  0  0  0
   41.2823   21.9909   37.5294 H   0  0  0  0  0  0  0  0  0  0  0  0
   40.1122   23.4850   39.1806 H   0  0  0  0  0  0  0  0  0  0  0  0
   36.8136   24.7984   38.6912 H   0  0  0  0  0  0  0  0  0  0  0  0
   36.9236   21.3963   34.8101 H   0  0  0  0  0  0  0  0  0  0  0  0
   37.5168   22.8989   34.0247 H   0  0  0  0  0  0  0  0  0  0  0  0
   38.5389   21.4218   34.0247 H   0  0  0  0  0  0  0  0  0  0  0  0
  1  2  2  0
  3  2  1  0
  3  7  1  0
  4  3  2  0
  5  6  2  0
  5  4  1  0
  6  1  1  0
  8  5  1  0
  1  9  1  0
  2 10  1  0
  7 11  1  0
  8 12  1  0
  8 13  1  0
  8 14  1  0
M  ISO  6   9  14  10  14  11   3  12   8  13   8  14   8
M  END
>  <minimizedAffinity>  (1) 
-2.97716904

>  <minimizedRMSD>  (1) 
0.323761761

$$$$
