
     RDKit          3D

 17 17  0  0  0  0  0  0  0  0999 V2000
   40.0050   22.4170   36.9560 C   0  0  0  0  0  0  0  0  0  0  0  0
   39.5140   23.2820   37.9520 C   0  0  0  0  0  0  0  0  0  0  0  0
   38.1550   23.6220   37.9450 C   0  0  0  0  0  0  0  0  0  0  0  0
   37.3650   23.0890   36.9590 N   0  0  0  0  0  0  0  0  0  0  0  0
   37.8790   22.2670   36.0300 C   0  0  0  0  0  0  0  0  0  0  0  0
   39.1790   21.9220   36.0090 N   0  0  0  0  0  0  0  0  0  0  0  0
   37.7460   24.4630   38.9370 O   0  0  0  0  0  0  0  0  0  0  0  0
   37.0200   21.6920   34.9620 C   0  0  0  0  0  0  0  0  0  0  0  0
   35.8670   20.8970   35.5770 C   0  0  0  0  0  0  0  0  0  0  0  0
   41.0700   22.1420   36.9489 H   0  0  0  0  0  0  0  0  0  0  0  0
   40.1867   23.6846   38.7236 H   0  0  0  0  0  0  0  0  0  0  0  0
   36.7978   24.7427   38.9892 H   0  0  0  0  0  0  0  0  0  0  0  0
   37.6246   21.0244   34.3305 H   0  0  0  0  0  0  0  0  0  0  0  0
   36.6059   22.5117   34.3565 H   0  0  0  0  0  0  0  0  0  0  0  0
   35.9339   20.9431   36.6740 H   0  0  0  0  0  0  0  0  0  0  0  0
   34.9091   21.3275   35.2496 H   0  0  0  0  0  0  0  0  0  0  0  0
   35.9288   19.8487   35.2496 H   0  0  0  0  0  0  0  0  0  0  0  0
  1  2  2  0
  3  2  1  0
  3  7  1  0
  4  3  2  0
  5  4  1  0
  6  5  2  0
  6  1  1  0
  8  9  1  0
  8  5  1  0
  1 10  1  0
  2 11  1  0
  7 12  1  0
  8 13  1  0
  8 14  1  0
  9 15  1  0
  9 16  1  0
  9 17  1  0
M  ISO  8  10  14  11  14  12   3  13   8  14   8  15   8  16   8  17   8
M  END
>  <minimizedAffinity>  (1) 
-3.07072878

>  <minimizedRMSD>  (1) 
0.893078029

$$$$
