
     RDKit          3D

 16 16  0  0  0  0  0  0  0  0999 V2000
   38.6940   23.4100   38.5150 C   0  0  0  0  0  0  0  0  0  0  0  0
   37.9790   24.3980   37.8050 C   0  0  0  0  0  0  0  0  0  0  0  0
   38.3580   24.6970   36.4790 C   0  0  0  0  0  0  0  0  0  0  0  0
   39.4020   24.0130   35.9440 N   0  0  0  0  0  0  0  0  0  0  0  0
   40.0540   23.0860   36.6450 C   0  0  0  0  0  0  0  0  0  0  0  0
   39.7110   22.7810   37.9150 N   0  0  0  0  0  0  0  0  0  0  0  0
   41.1350   22.4200   36.0020 N   0  0  0  0  0  0  0  0  0  0  0  0
   37.6110   25.6730   35.8560 O   0  0  0  0  0  0  0  0  0  0  0  0
   38.2610   26.8450   35.4550 C   0  0  0  0  0  0  0  0  0  0  0  0
   38.4410   27.1000   34.2350 O   0  0  0  0  0  0  0  0  0  0  0  0
   38.6980   27.7150   36.4390 O   0  0  0  0  0  0  0  0  0  0  0  0
   38.4183   23.1599   39.5501 H   0  0  0  0  0  0  0  0  0  0  0  0
   37.1387   24.9272   38.2782 H   0  0  0  0  0  0  0  0  0  0  0  0
   41.6670   21.6963   36.5061 H   0  0  0  0  0  0  0  0  0  0  0  0
   41.3853   22.6617   35.0325 H   0  0  0  0  0  0  0  0  0  0  0  0
   39.1615   28.5531   36.1885 H   0  0  0  0  0  0  0  0  0  0  0  0
  2  1  2  0
  3  2  1  0
  4  3  2  0
  4  5  1  0
  5  6  2  0
  6  1  1  0
  7  5  1  0
  8  3  1  0
  9  8  1  0
  9 11  1  0
 10  9  2  0
  1 12  1  0
  2 13  1  0
  7 14  1  0
  7 15  1  0
 11 16  1  0
M  ISO  3  12  14  13  14  16   3
M  END
>  <minimizedAffinity>  (1) 
-3.76200914

>  <minimizedRMSD>  (1) 
2.70590067

$$$$
