
     RDKit          3D

 26 27  0  0  0  0  0  0  0  0999 V2000
   40.4920   22.5010   37.7690 C   0  0  0  0  0  0  0  0  0  0  0  0
   39.2320   23.0920   37.5010 C   0  0  0  0  0  0  0  0  0  0  0  0
   38.8760   23.3840   36.1830 C   0  0  0  0  0  0  0  0  0  0  0  0
   39.7750   23.0760   35.2150 N   0  0  0  0  0  0  0  0  0  0  0  0
   40.9560   22.5200   35.4810 C   0  0  0  0  0  0  0  0  0  0  0  0
   41.3270   22.2280   36.7500 N   0  0  0  0  0  0  0  0  0  0  0  0
   41.8210   22.2400   34.3940 N   0  0  0  0  0  0  0  0  0  0  0  0
   37.6510   23.9490   36.0150 O   0  0  0  0  0  0  0  0  0  0  0  0
   37.5850   25.3100   35.6450 C   0  0  0  0  0  0  0  0  0  0  0  0
   38.5000   26.1750   36.4790 C   0  0  0  0  0  0  0  0  0  0  0  0
   38.5740   27.4360   35.6430 C   0  0  0  0  0  0  0  0  0  0  0  0
   38.5770   26.9630   34.2050 C   0  0  0  0  0  0  0  0  0  0  0  0
   38.1350   25.5070   34.2350 C   0  0  0  0  0  0  0  0  0  0  0  0
   40.7852   22.2671   38.8031 H   0  0  0  0  0  0  0  0  0  0  0  0
   38.5398   23.3189   38.3252 H   0  0  0  0  0  0  0  0  0  0  0  0
   42.7412   21.8103   34.5656 H   0  0  0  0  0  0  0  0  0  0  0  0
   41.5295   22.4662   33.4324 H   0  0  0  0  0  0  0  0  0  0  0  0
   36.5259   25.5841   35.7596 H   0  0  0  0  0  0  0  0  0  0  0  0
   38.0686   26.3758   37.4707 H   0  0  0  0  0  0  0  0  0  0  0  0
   39.4789   25.7189   36.6879 H   0  0  0  0  0  0  0  0  0  0  0  0
   37.7015   28.0776   35.8356 H   0  0  0  0  0  0  0  0  0  0  0  0
   39.4670   28.0330   35.8800 H   0  0  0  0  0  0  0  0  0  0  0  0
   39.5876   27.0458   33.7786 H   0  0  0  0  0  0  0  0  0  0  0  0
   37.9061   27.5724   33.5816 H   0  0  0  0  0  0  0  0  0  0  0  0
   37.3545   25.3209   33.4826 H   0  0  0  0  0  0  0  0  0  0  0  0
   38.9564   24.8131   34.0031 H   0  0  0  0  0  0  0  0  0  0  0  0
  2  1  2  0
  3  2  1  0
  4  5  1  0
  4  3  2  0
  5  6  2  0
  6  1  1  0
  7  5  1  0
  8  3  1  0
  9  8  1  0
  9 10  1  0
 11 10  1  0
 12 13  1  0
 12 11  1  0
 13  9  1  0
  1 14  1  0
  2 15  1  0
  7 16  1  0
  7 17  1  0
  9 18  1  0
 10 19  1  0
 10 20  1  0
 11 21  1  0
 11 22  1  0
 12 23  1  0
 12 24  1  0
 13 25  1  0
 13 26  1  0
M  ISO  8  14  14  15  14  18  13  19  13  20  13  21  13  22  13  23  13
M  ISO  3  24  13  25  13  26  13
M  END
>  <minimizedAffinity>  (1) 
-3.43084455

>  <minimizedRMSD>  (1) 
3.11185265

$$$$
