
     RDKit          3D

 13 13  0  0  0  0  0  0  0  0999 V2000
   40.4510   22.3340   37.4790 C   0  0  0  0  0  0  0  0  0  0  0  0
   39.6430   23.1500   38.3120 C   0  0  0  0  0  0  0  0  0  0  0  0
   38.3720   23.5450   37.8660 C   0  0  0  0  0  0  0  0  0  0  0  0
   37.9820   23.1140   36.6350 N   0  0  0  0  0  0  0  0  0  0  0  0
   38.7650   22.3460   35.8740 C   0  0  0  0  0  0  0  0  0  0  0  0
   39.9950   21.9530   36.2840 N   0  0  0  0  0  0  0  0  0  0  0  0
   38.2650   21.9470   34.6000 N   0  0  0  0  0  0  0  0  0  0  0  0
   37.6650   24.3280   38.7320 O   0  0  0  0  0  0  0  0  0  0  0  0
   41.4487   22.0168   37.8165 H   0  0  0  0  0  0  0  0  0  0  0  0
   40.0092   23.4703   39.2986 H   0  0  0  0  0  0  0  0  0  0  0  0
   37.3287   22.2503   34.2962 H   0  0  0  0  0  0  0  0  0  0  0  0
   38.8400   21.3554   33.9833 H   0  0  0  0  0  0  0  0  0  0  0  0
   36.7601   24.6455   38.4863 H   0  0  0  0  0  0  0  0  0  0  0  0
  1  2  2  0
  3  2  1  0
  3  8  1  0
  4  3  2  0
  5  6  2  0
  5  4  1  0
  6  1  1  0
  7  5  1  0
  1  9  1  0
  2 10  1  0
  7 11  1  0
  7 12  1  0
  8 13  1  0
M  ISO  3   9  14  10  14  13   3
M  END
>  <minimizedAffinity>  (1) 
-2.94345927

>  <minimizedRMSD>  (1) 
0.0443775691

$$$$
