
     RDKit          3D

 33 35  0  0  1  0  0  0  0  0999 V2000
   37.6010   26.0410   34.8030 C   0  0  1  0  0  0  0  0  0  0  0  0
   37.3740   27.5030   34.7330 C   0  0  0  0  0  0  0  0  0  0  0  0
   38.7780   26.9680   34.9560 C   0  0  2  0  0  0  0  0  0  0  0  0
   39.7690   27.0880   33.9050 N   0  0  0  0  0  0  0  0  0  0  0  0
   41.1030   27.0720   34.1750 C   0  0  0  0  0  0  0  0  0  0  0  0
   42.0800   27.1830   33.2020 C   0  0  0  0  0  0  0  0  0  0  0  0
   43.5280   27.1620   33.5290 C   0  0  0  0  0  0  0  0  0  0  0  0
   41.7060   27.3170   31.8860 C   0  0  0  0  0  0  0  0  0  0  0  0
   42.5380   27.4240   30.9480 O   0  0  0  0  0  0  0  0  0  0  0  0
   40.3990   27.3310   31.6310 N   0  0  0  0  0  0  0  0  0  0  0  0
   39.4780   27.2230   32.5990 C   0  0  0  0  0  0  0  0  0  0  0  0
   38.2910   27.2480   32.2450 O   0  0  0  0  0  0  0  0  0  0  0  0
   37.2930   25.3890   36.0420 O   0  0  0  0  0  0  0  0  0  0  0  0
   38.8330   23.3880   38.6160 C   0  0  0  0  0  0  0  0  0  0  0  0
   37.9890   24.3190   37.9100 C   0  0  0  0  0  0  0  0  0  0  0  0
   38.1700   24.4640   36.5260 C   0  0  0  0  0  0  0  0  0  0  0  0
   39.1350   23.7170   35.9140 N   0  0  0  0  0  0  0  0  0  0  0  0
   39.8790   22.8790   36.6150 C   0  0  0  0  0  0  0  0  0  0  0  0
   39.7560   22.6970   37.9340 N   0  0  0  0  0  0  0  0  0  0  0  0
   40.8760   22.1690   35.8780 N   0  0  0  0  0  0  0  0  0  0  0  0
   37.3032   25.2143   34.1413 H   0  0  0  0  0  0  0  0  0  0  0  0
   37.1111   27.9728   33.7737 H   0  0  0  0  0  0  0  0  0  0  0  0
   36.7209   28.2134   35.2610 H   0  0  0  0  0  0  0  0  0  0  0  0
   39.5681   27.1075   35.7085 H   0  0  0  0  0  0  0  0  0  0  0  0
   41.4211   26.9651   35.2226 H   0  0  0  0  0  0  0  0  0  0  0  0
   43.6572   27.1601   34.6214 H   0  0  0  0  0  0  0  0  0  0  0  0
   43.9868   26.2571   33.1040 H   0  0  0  0  0  0  0  0  0  0  0  0
   44.0129   28.0532   33.1040 H   0  0  0  0  0  0  0  0  0  0  0  0
   40.0845   27.4283   30.6550 H   0  0  0  0  0  0  0  0  0  0  0  0
   38.7206   23.2467   39.7011 H   0  0  0  0  0  0  0  0  0  0  0  0
   37.2225   24.9011   38.4426 H   0  0  0  0  0  0  0  0  0  0  0  0
   41.4927   21.4990   36.3593 H   0  0  0  0  0  0  0  0  0  0  0  0
   40.9781   22.3272   34.8653 H   0  0  0  0  0  0  0  0  0  0  0  0
  1  3  1  0
  1 13  1  0
  2  1  1  0
  2  3  1  0
  4  5  1  0
  4  3  1  0
  6  7  1  0
  6  5  2  0
  8  6  1  0
  9  8  2  0
 10  8  1  0
 10 11  1  0
 11  4  1  0
 12 11  2  0
 13 16  1  0
 15 14  2  0
 16 15  1  0
 17 16  2  0
 17 18  1  0
 18 19  2  0
 19 14  1  0
 20 18  1  0
  1 21  1  6
  2 22  1  0
  2 23  1  0
  3 24  1  1
  5 25  1  0
  7 26  1  0
  7 27  1  0
  7 28  1  0
 10 29  1  0
 14 30  1  0
 15 31  1  0
 20 32  1  0
 20 33  1  0
M  ISO  8  21  13  22  13  23  13  24  13  25  14  26   8  27   8  28   8
M  ISO  3  29   9  30  14  31  14
M  END
>  <minimizedAffinity>  (1) 
-4.64380789

>  <minimizedRMSD>  (1) 
1.33393776

$$$$
