
     RDKit          3D

 27 28  0  0  1  0  0  0  0  0999 V2000
   38.8300   23.4050   36.6870 C   0  0  1  0  0  0  0  0  0  0  0  0
   37.4190   23.4790   37.1460 C   0  0  0  0  0  0  0  0  0  0  0  0
   38.1710   24.7450   36.8440 C   0  0  2  0  0  0  0  0  0  0  0  0
   37.8220   25.5170   35.6960 N   0  0  0  0  0  0  0  0  0  0  0  0
   38.4160   26.7860   35.3860 C   0  0  0  0  0  0  0  0  0  0  0  0
   38.6140   27.5700   36.4050 N   0  0  0  0  0  0  0  0  0  0  0  0
   38.7350   27.0830   34.0100 N   0  0  0  0  0  0  0  0  0  0  0  0
   39.0450   28.5010   36.2070 H   0  0  0  0  0  0  0  0  0  0  0  0
   39.8380   23.2040   37.6940 O   0  0  0  0  0  0  0  0  0  0  0  0
   42.9580   22.6380   35.9670 C   0  0  0  0  0  0  0  0  0  0  0  0
   41.7390   23.2270   36.4620 C   0  0  0  0  0  0  0  0  0  0  0  0
   40.9390   22.4820   37.3550 C   0  0  0  0  0  0  0  0  0  0  0  0
   41.3620   21.2340   37.7110 N   0  0  0  0  0  0  0  0  0  0  0  0
   42.4790   20.7380   37.2360 C   0  0  0  0  0  0  0  0  0  0  0  0
   43.2860   21.3980   36.3790 N   0  0  0  0  0  0  0  0  0  0  0  0
   42.8450   19.4310   37.6450 N   0  0  0  0  0  0  0  0  0  0  0  0
   39.3230   22.8300   35.8893 H   0  0  0  0  0  0  0  0  0  0  0  0
   36.6071   23.1505   36.4805 H   0  0  0  0  0  0  0  0  0  0  0  0
   36.8643   23.0943   38.0145 H   0  0  0  0  0  0  0  0  0  0  0  0
   38.4078   25.6688   37.3922 H   0  0  0  0  0  0  0  0  0  0  0  0
   37.1062   25.1439   35.0562 H   0  0  0  0  0  0  0  0  0  0  0  0
   39.1619   27.9875   33.7640 H   0  0  0  0  0  0  0  0  0  0  0  0
   38.5358   26.3904   33.2741 H   0  0  0  0  0  0  0  0  0  0  0  0
   43.6056   23.1885   35.2688 H   0  0  0  0  0  0  0  0  0  0  0  0
   41.4379   24.2379   36.1498 H   0  0  0  0  0  0  0  0  0  0  0  0
   43.7152   19.0062   37.2939 H   0  0  0  0  0  0  0  0  0  0  0  0
   42.2408   18.9061   38.2933 H   0  0  0  0  0  0  0  0  0  0  0  0
  1  3  1  0
  1  2  1  0
  1  9  1  0
  3  2  1  0
  4  3  1  0
  5  4  1  0
  5  6  2  0
  7  5  1  0
  8  6  1  0
 10 15  2  0
 10 11  1  0
 11 12  2  0
 12  9  1  0
 12 13  1  0
 14 16  1  0
 14 13  2  0
 15 14  1  0
  1 17  1  6
  2 18  1  0
  2 19  1  0
  3 20  1  1
  4 21  1  0
  7 22  1  0
  7 23  1  0
 10 24  1  0
 11 25  1  0
 16 26  1  0
 16 27  1  0
M  ISO  6  17  13  18  13  19  13  20  13  24  14  25  14
M  END
>  <minimizedAffinity>  (1) 
-4.48902655

>  <minimizedRMSD>  (1) 
3.29135823

$$$$
