
     RDKit          3D

 29 30  0  0  1  0  0  0  0  0999 V2000
   38.8630   23.3790   38.6270 C   0  0  0  0  0  0  0  0  0  0  0  0
   38.0000   24.3000   37.9300 C   0  0  0  0  0  0  0  0  0  0  0  0
   38.1530   24.4290   36.5240 C   0  0  0  0  0  0  0  0  0  0  0  0
   39.1070   23.6720   35.9070 N   0  0  0  0  0  0  0  0  0  0  0  0
   39.8670   22.8490   36.5920 C   0  0  0  0  0  0  0  0  0  0  0  0
   39.7710   22.6850   37.9150 N   0  0  0  0  0  0  0  0  0  0  0  0
   40.8440   22.1160   35.8590 N   0  0  0  0  0  0  0  0  0  0  0  0
   37.2640   25.3440   36.0470 O   0  0  0  0  0  0  0  0  0  0  0  0
   37.7140   26.2690   35.0450 C   0  0  1  0  0  0  0  0  0  0  0  0
   37.9440   27.6730   35.4670 C   0  0  0  0  0  0  0  0  0  0  0  0
   39.1190   26.7250   35.3440 C   0  0  2  0  0  0  0  0  0  0  0  0
   40.0630   27.0860   34.2200 C   0  0  0  0  0  0  0  0  0  0  0  0
   39.5670   26.5380   32.8850 C   0  0  0  0  0  0  0  0  0  0  0  0
   41.4520   26.6430   34.5160 C   0  0  0  0  0  0  0  0  0  0  0  0
   38.7815   23.2463   39.7159 H   0  0  0  0  0  0  0  0  0  0  0  0
   37.2439   24.8866   38.4724 H   0  0  0  0  0  0  0  0  0  0  0  0
   41.4665   21.4565   36.3474 H   0  0  0  0  0  0  0  0  0  0  0  0
   40.9279   22.2454   34.8406 H   0  0  0  0  0  0  0  0  0  0  0  0
   37.1596   25.8360   34.1993 H   0  0  0  0  0  0  0  0  0  0  0  0
   37.8206   28.4914   34.7424 H   0  0  0  0  0  0  0  0  0  0  0  0
   37.5478   28.3181   36.2650 H   0  0  0  0  0  0  0  0  0  0  0  0
   39.9169   26.3110   35.9780 H   0  0  0  0  0  0  0  0  0  0  0  0
   40.0825   28.1827   34.1371 H   0  0  0  0  0  0  0  0  0  0  0  0
   38.8390   25.7336   33.0666 H   0  0  0  0  0  0  0  0  0  0  0  0
   39.0864   27.3454   32.3130 H   0  0  0  0  0  0  0  0  0  0  0  0
   40.4181   26.1400   32.3130 H   0  0  0  0  0  0  0  0  0  0  0  0
   41.5978   26.5965   35.6053 H   0  0  0  0  0  0  0  0  0  0  0  0
   41.6197   25.6468   34.0808 H   0  0  0  0  0  0  0  0  0  0  0  0
   42.1655   27.3581   34.0808 H   0  0  0  0  0  0  0  0  0  0  0  0
  2  1  2  0
  3  2  1  0
  4  3  2  0
  4  5  1  0
  5  6  2  0
  6  1  1  0
  7  5  1  0
  8  3  1  0
  9 11  1  0
  9 10  1  0
  9  8  1  0
 11 10  1  0
 12 14  1  0
 12 11  1  0
 13 12  1  0
  1 15  1  0
  2 16  1  0
  7 17  1  0
  7 18  1  0
  9 19  1  6
 10 20  1  0
 10 21  1  0
 11 22  1  1
 12 23  1  0
 13 24  1  0
 13 25  1  0
 13 26  1  0
 14 27  1  0
 14 28  1  0
 14 29  1  0
M  ISO  8  15  14  16  14  19  13  20  13  21  13  22  13  23   8  24   8
M  ISO  5  25   8  26   8  27   8  28   8  29   8
M  END
>  <minimizedAffinity>  (1) 
-4.2333312

>  <minimizedRMSD>  (1) 
1.61115873

$$$$
