
     RDKit          3D

 23 24  0  0  1  0  0  0  0  0999 V2000
   37.8170   25.1540   36.4550 O   0  0  0  0  0  0  0  0  0  0  0  0
   39.9830   22.5330   37.6780 C   0  0  0  0  0  0  0  0  0  0  0  0
   39.0860   23.6590   37.5970 C   0  0  0  0  0  0  0  0  0  0  0  0
   38.6460   24.0740   36.3330 C   0  0  0  0  0  0  0  0  0  0  0  0
   39.0890   23.3860   35.2400 N   0  0  0  0  0  0  0  0  0  0  0  0
   39.9090   22.3620   35.3720 C   0  0  0  0  0  0  0  0  0  0  0  0
   40.3610   21.9250   36.5520 N   0  0  0  0  0  0  0  0  0  0  0  0
   40.3210   21.7410   34.1490 N   0  0  0  0  0  0  0  0  0  0  0  0
   37.8080   26.1230   35.3920 C   0  0  1  0  0  0  0  0  0  0  0  0
   38.1000   27.5320   35.7380 C   0  0  0  0  0  0  0  0  0  0  0  0
   39.1920   26.6570   35.1440 C   0  0  2  0  0  0  0  0  0  0  0  0
   39.5720   26.9140   33.7020 C   0  0  0  0  0  0  0  0  0  0  0  0
   39.8970   25.7270   33.0450 F   0  0  0  0  0  0  0  0  0  0  0  0
   38.5800   27.5290   32.9980 F   0  0  0  0  0  0  0  0  0  0  0  0
   40.7510   27.6660   33.7280 F   0  0  0  0  0  0  0  0  0  0  0  0
   40.3501   22.1806   38.6532 H   0  0  0  0  0  0  0  0  0  0  0  0
   38.7545   24.1805   38.5070 H   0  0  0  0  0  0  0  0  0  0  0  0
   40.9614   20.9346   34.1711 H   0  0  0  0  0  0  0  0  0  0  0  0
   39.9769   22.1008   33.2473 H   0  0  0  0  0  0  0  0  0  0  0  0
   36.9959   25.6652   34.8081 H   0  0  0  0  0  0  0  0  0  0  0  0
   37.6629   28.3463   35.1414 H   0  0  0  0  0  0  0  0  0  0  0  0
   38.0037   28.1449   36.6463 H   0  0  0  0  0  0  0  0  0  0  0  0
   40.2128   26.3698   35.4363 H   0  0  0  0  0  0  0  0  0  0  0  0
  3  2  2  0
  4  1  1  0
  4  3  1  0
  5  6  1  0
  5  4  2  0
  6  7  2  0
  7  2  1  0
  8  6  1  0
  9 10  1  0
  9  1  1  0
 11  9  1  0
 11 10  1  0
 12 15  1  0
 12 11  1  0
 13 12  1  0
 14 12  1  0
  2 16  1  0
  3 17  1  0
  8 18  1  0
  8 19  1  0
  9 20  1  6
 10 21  1  0
 10 22  1  0
 11 23  1  1
M  ISO  6  16  14  17  14  20  13  21  13  22  13  23  13
M  END
>  <minimizedAffinity>  (1) 
-3.91544414

>  <minimizedRMSD>  (1) 
0.715960085

$$$$
