
     RDKit          3D

 34 37  0  0  1  0  0  0  0  0999 V2000
   39.0310   24.9680   33.9820 C   0  0  1  0  0  0  0  0  0  0  0  0
   38.8030   26.3040   33.4050 C   0  0  0  0  0  0  0  0  0  0  0  0
   39.7700   26.1190   34.5710 C   0  0  2  0  0  0  0  0  0  0  0  0
   41.1360   26.4970   34.2500 C   0  0  0  0  0  0  0  0  0  0  0  0
   41.5680   27.5570   33.4580 C   0  0  0  0  0  0  0  0  0  0  0  0
   42.9100   27.6100   33.3770 N   0  0  0  0  0  0  0  0  0  0  0  0
   43.3930   26.5900   34.1100 C   0  0  0  0  0  0  0  0  0  0  0  0
   44.6740   26.1210   34.4150 C   0  0  0  0  0  0  0  0  0  0  0  0
   44.9070   25.0220   35.2150 C   0  0  0  0  0  0  0  0  0  0  0  0
   43.8260   24.3370   35.7530 C   0  0  0  0  0  0  0  0  0  0  0  0
   42.5760   24.7920   35.4580 C   0  0  0  0  0  0  0  0  0  0  0  0
   42.3010   25.9010   34.6510 C   0  0  0  0  0  0  0  0  0  0  0  0
   38.0450   24.4490   34.8800 O   0  0  0  0  0  0  0  0  0  0  0  0
   38.0210   24.1510   38.4840 C   0  0  0  0  0  0  0  0  0  0  0  0
   37.7110   24.5510   37.1360 C   0  0  0  0  0  0  0  0  0  0  0  0
   38.4570   23.9490   36.0800 C   0  0  0  0  0  0  0  0  0  0  0  0
   39.4140   23.0310   36.3960 N   0  0  0  0  0  0  0  0  0  0  0  0
   39.6510   22.7070   37.6460 C   0  0  0  0  0  0  0  0  0  0  0  0
   38.9900   23.2340   38.6800 N   0  0  0  0  0  0  0  0  0  0  0  0
   40.6630   21.7500   37.8970 N   0  0  0  0  0  0  0  0  0  0  0  0
   39.2856   24.0030   33.5195 H   0  0  0  0  0  0  0  0  0  0  0  0
   39.1874   26.5447   32.4028 H   0  0  0  0  0  0  0  0  0  0  0  0
   37.9201   26.9321   33.2151 H   0  0  0  0  0  0  0  0  0  0  0  0
   39.9143   26.4166   35.6201 H   0  0  0  0  0  0  0  0  0  0  0  0
   40.8927   28.2668   32.9579 H   0  0  0  0  0  0  0  0  0  0  0  0
   43.4640   28.3018   32.8522 H   0  0  0  0  0  0  0  0  0  0  0  0
   45.5395   26.6552   33.9960 H   0  0  0  0  0  0  0  0  0  0  0  0
   45.9355   24.6927   35.4240 H   0  0  0  0  0  0  0  0  0  0  0  0
   43.9736   23.4566   36.3958 H   0  0  0  0  0  0  0  0  0  0  0  0
   41.7210   24.2477   35.8855 H   0  0  0  0  0  0  0  0  0  0  0  0
   37.4783   24.5848   39.3368 H   0  0  0  0  0  0  0  0  0  0  0  0
   36.9271   25.2941   36.9281 H   0  0  0  0  0  0  0  0  0  0  0  0
   40.8783   21.4698   38.8645 H   0  0  0  0  0  0  0  0  0  0  0  0
   41.1842   21.3337   37.1122 H   0  0  0  0  0  0  0  0  0  0  0  0
  1  3  1  0
  1 13  1  0
  2  1  1  0
  2  3  1  0
  4  3  1  0
  4 12  1  0
  5  4  2  0
  6  5  1  0
  6  7  1  0
  7  8  2  0
  7 12  1  0
  8  9  1  0
  9 10  2  0
 11 10  1  0
 12 11  2  0
 13 16  1  0
 14 19  2  0
 15 14  1  0
 16 17  1  0
 16 15  2  0
 17 18  2  0
 18 20  1  0
 18 19  1  0
  1 21  1  6
  2 22  1  0
  2 23  1  0
  3 24  1  1
  5 25  1  0
  6 26  1  0
  8 27  1  0
  9 28  1  0
 10 29  1  0
 11 30  1  0
 14 31  1  0
 15 32  1  0
 20 33  1  0
 20 34  1  0
M  ISO  8  21  13  22  13  23  13  24  13  25  14  26   9  27  14  28  14
M  ISO  4  29  14  30  14  31  14  32  14
M  END
>  <minimizedAffinity>  (1) 
-5.44653511

>  <minimizedRMSD>  (1) 
2.96323133

$$$$
