
     RDKit          3D

 40 43  0  0  1  0  0  0  0  0999 V2000
   41.1020   24.6920   33.6570 C   0  0  1  0  0  0  0  0  0  0  0  0
   41.2050   25.8730   32.7980 C   0  0  0  0  0  0  0  0  0  0  0  0
   41.5890   26.0650   34.2390 C   0  0  2  0  0  0  0  0  0  0  0  0
   43.0440   26.2630   34.3890 C   0  0  0  0  0  0  0  0  0  0  0  0
   43.8230   27.1830   33.6730 C   0  0  0  0  0  0  0  0  0  0  0  0
   45.0800   27.2320   34.1430 N   0  0  0  0  0  0  0  0  0  0  0  0
   45.1590   26.3610   35.1550 C   0  0  0  0  0  0  0  0  0  0  0  0
   46.1890   25.9370   35.9960 C   0  0  0  0  0  0  0  0  0  0  0  0
   46.0210   24.9640   36.9580 C   0  0  0  0  0  0  0  0  0  0  0  0
   44.7780   24.3710   37.1080 C   0  0  0  0  0  0  0  0  0  0  0  0
   43.7730   24.7900   36.2830 C   0  0  0  0  0  0  0  0  0  0  0  0
   43.9100   25.7690   35.3050 C   0  0  0  0  0  0  0  0  0  0  0  0
   39.7770   24.4420   34.2050 O   0  0  0  0  0  0  0  0  0  0  0  0
   38.4070   24.1460   37.5100 C   0  0  0  0  0  0  0  0  0  0  0  0
   38.6630   24.5720   36.1610 C   0  0  0  0  0  0  0  0  0  0  0  0
   39.6890   23.8790   35.4430 C   0  0  0  0  0  0  0  0  0  0  0  0
   40.3450   22.8800   36.0620 N   0  0  0  0  0  0  0  0  0  0  0  0
   40.0780   22.5290   37.2880 C   0  0  0  0  0  0  0  0  0  0  0  0
   39.1310   23.1350   38.0210 N   0  0  0  0  0  0  0  0  0  0  0  0
   40.8200   21.4760   37.8640 N   0  0  0  0  0  0  0  0  0  0  0  0
   37.7970   25.6830   35.7780 C   0  0  0  0  0  0  0  0  0  0  0  0
   38.3930   27.0540   36.0290 C   0  0  0  0  0  0  0  0  0  0  0  0
   41.4642   23.6592   33.5471 H   0  0  0  0  0  0  0  0  0  0  0  0
   41.9846   25.9095   32.0228 H   0  0  0  0  0  0  0  0  0  0  0  0
   40.4959   26.3854   32.1312 H   0  0  0  0  0  0  0  0  0  0  0  0
   41.2932   26.6770   35.1039 H   0  0  0  0  0  0  0  0  0  0  0  0
   43.4516   27.7880   32.8327 H   0  0  0  0  0  0  0  0  0  0  0  0
   45.8414   27.8291   33.7900 H   0  0  0  0  0  0  0  0  0  0  0  0
   47.1805   26.4006   35.8861 H   0  0  0  0  0  0  0  0  0  0  0  0
   46.8631   24.6623   37.5983 H   0  0  0  0  0  0  0  0  0  0  0  0
   44.6064   23.5908   37.8642 H   0  0  0  0  0  0  0  0  0  0  0  0
   42.7856   24.3197   36.4007 H   0  0  0  0  0  0  0  0  0  0  0  0
   37.6314   24.6392   38.1142 H   0  0  0  0  0  0  0  0  0  0  0  0
   40.6280   21.1798   38.8316 H   0  0  0  0  0  0  0  0  0  0  0  0
   41.5537   21.0035   37.3168 H   0  0  0  0  0  0  0  0  0  0  0  0
   36.8614   25.6039   36.3511 H   0  0  0  0  0  0  0  0  0  0  0  0
   37.6415   25.6012   34.6921 H   0  0  0  0  0  0  0  0  0  0  0  0
   38.4687   27.2281   37.1125 H   0  0  0  0  0  0  0  0  0  0  0  0
   39.3951   27.1063   35.5783 H   0  0  0  0  0  0  0  0  0  0  0  0
   37.7477   27.8224   35.5783 H   0  0  0  0  0  0  0  0  0  0  0  0
  1 13  1  0
  1  3  1  0
  2  1  1  0
  2  3  1  0
  3  4  1  0
  4 12  1  0
  5  6  1  0
  5  4  2  0
  6  7  1  0
  7 12  2  0
  7  8  1  0
  8  9  2  0
  9 10  1  0
 11 10  2  0
 12 11  1  0
 13 16  1  0
 14 19  2  0
 15 14  1  0
 16 17  1  0
 16 15  2  0
 17 18  2  0
 18 20  1  0
 18 19  1  0
 21 22  1  0
 21 15  1  0
  1 23  1  6
  2 24  1  0
  2 25  1  0
  3 26  1  1
  5 27  1  0
  6 28  1  0
  8 29  1  0
  9 30  1  0
 10 31  1  0
 11 32  1  0
 14 33  1  0
 20 34  1  0
 20 35  1  0
 21 36  1  0
 21 37  1  0
 22 38  1  0
 22 39  1  0
 22 40  1  0
M  ISO  8  23  13  24  13  25  13  26  13  27  14  28   9  29  14  30  14
M  ISO  8  31  14  32  14  33  14  36   8  37   8  38   8  39   8  40   8
M  END
>  <minimizedAffinity>  (1) 
-5.46192646

>  <minimizedRMSD>  (1) 
1.74235106

$$$$
