
     RDKit          3D

 31 34  0  0  0  0  0  0  0  0999 V2000
   37.1800   21.8890   34.8290 C   0  0  0  0  0  0  0  0  0  0  0  0
   36.2510   20.8790   35.0220 C   0  0  0  0  0  0  0  0  0  0  0  0
   35.5260   20.3820   33.9410 C   0  0  0  0  0  0  0  0  0  0  0  0
   35.7870   20.9420   32.7030 C   0  0  0  0  0  0  0  0  0  0  0  0
   36.7130   21.9530   32.4980 C   0  0  0  0  0  0  0  0  0  0  0  0
   37.4230   22.4310   33.5960 C   0  0  0  0  0  0  0  0  0  0  0  0
   38.3420   23.4520   33.3110 N   0  0  0  0  0  0  0  0  0  0  0  0
   39.6380   23.1690   32.9930 C   0  0  0  0  0  0  0  0  0  0  0  0
   40.3080   24.3240   32.7650 N   0  0  0  0  0  0  0  0  0  0  0  0
   39.4520   25.3430   32.9350 C   0  0  0  0  0  0  0  0  0  0  0  0
   39.5580   26.7190   32.8400 C   0  0  0  0  0  0  0  0  0  0  0  0
   38.4600   27.4910   33.0840 N   0  0  0  0  0  0  0  0  0  0  0  0
   37.2930   26.9030   33.4110 C   0  0  0  0  0  0  0  0  0  0  0  0
   37.1660   25.5640   33.5090 N   0  0  0  0  0  0  0  0  0  0  0  0
   38.2330   24.8090   33.2730 C   0  0  0  0  0  0  0  0  0  0  0  0
   38.1120   23.7600   37.8640 C   0  0  0  0  0  0  0  0  0  0  0  0
   39.4200   23.3360   38.0900 C   0  0  0  0  0  0  0  0  0  0  0  0
   39.9630   22.4050   37.1870 C   0  0  0  0  0  0  0  0  0  0  0  0
   39.1990   21.9730   36.1560 N   0  0  0  0  0  0  0  0  0  0  0  0
   37.9310   22.4030   35.9610 C   0  0  0  0  0  0  0  0  0  0  0  0
   37.3980   23.3000   36.8250 N   0  0  0  0  0  0  0  0  0  0  0  0
   36.0859   20.4694   36.0294 H   0  0  0  0  0  0  0  0  0  0  0  0
   34.7813   19.5822   34.0659 H   0  0  0  0  0  0  0  0  0  0  0  0
   35.2290   20.5642   31.8336 H   0  0  0  0  0  0  0  0  0  0  0  0
   36.8825   22.3671   31.4931 H   0  0  0  0  0  0  0  0  0  0  0  0
   40.0715   22.1599   32.9313 H   0  0  0  0  0  0  0  0  0  0  0  0
   40.5171   27.1855   32.5707 H   0  0  0  0  0  0  0  0  0  0  0  0
   36.4145   27.5360   33.6045 H   0  0  0  0  0  0  0  0  0  0  0  0
   37.6552   24.4870   38.5516 H   0  0  0  0  0  0  0  0  0  0  0  0
   40.0047   23.7147   38.9413 H   0  0  0  0  0  0  0  0  0  0  0  0
   40.9905   22.0341   37.3159 H   0  0  0  0  0  0  0  0  0  0  0  0
  1  2  2  0
  1 20  1  0
  3  2  1  0
  4  3  2  0
  5  4  1  0
  5  6  2  0
  6  1  1  0
  7  6  1  0
  8  7  1  0
  9 10  1  0
  9  8  2  0
 10 15  2  0
 11 10  1  0
 11 12  2  0
 12 13  1  0
 13 14  2  0
 15  7  1  0
 15 14  1  0
 16 17  2  0
 18 17  1  0
 19 18  2  0
 20 19  1  0
 20 21  2  0
 21 16  1  0
  2 22  1  0
  3 23  1  0
  4 24  1  0
  5 25  1  0
  8 26  1  0
 11 27  1  0
 13 28  1  0
 16 29  1  0
 17 30  1  0
 18 31  1  0
M  ISO  8  22  14  23  14  24  14  25  14  26  14  27  14  28  14  29  14
M  ISO  2  30  14  31  14
M  END
>  <minimizedAffinity>  (1) 
-4.92248869

>  <minimizedRMSD>  (1) 
5.96145058

$$$$
