
     RDKit          3D

 28 30  0  0  0  0  0  0  0  0999 V2000
   37.7920   23.7720   33.8180 C   0  0  0  0  0  0  0  0  0  0  0  0
   37.3260   23.7010   32.5110 C   0  0  0  0  0  0  0  0  0  0  0  0
   36.8780   22.4690   32.0180 C   0  0  0  0  0  0  0  0  0  0  0  0
   36.9280   21.3860   32.8800 C   0  0  0  0  0  0  0  0  0  0  0  0
   37.3870   21.4570   34.1690 C   0  0  0  0  0  0  0  0  0  0  0  0
   37.8370   22.6810   34.6690 C   0  0  0  0  0  0  0  0  0  0  0  0
   40.0010   26.5440   34.8510 C   0  0  0  0  0  0  0  0  0  0  0  0
   39.0690   27.4890   35.3400 C   0  0  0  0  0  0  0  0  0  0  0  0
   37.7160   27.1410   35.2970 C   0  0  0  0  0  0  0  0  0  0  0  0
   37.3650   25.9390   34.7990 N   0  0  0  0  0  0  0  0  0  0  0  0
   38.2650   25.0490   34.3370 C   0  0  0  0  0  0  0  0  0  0  0  0
   39.5810   25.3610   34.3670 N   0  0  0  0  0  0  0  0  0  0  0  0
   38.3310   22.8110   36.0270 C   0  0  0  0  0  0  0  0  0  0  0  0
   37.4160   23.2160   37.0010 C   0  0  0  0  0  0  0  0  0  0  0  0
   37.8310   23.3590   38.3200 C   0  0  0  0  0  0  0  0  0  0  0  0
   39.1220   23.1100   38.6870 N   0  0  0  0  0  0  0  0  0  0  0  0
   39.9910   22.7160   37.7160 C   0  0  0  0  0  0  0  0  0  0  0  0
   39.5880   22.5780   36.4400 N   0  0  0  0  0  0  0  0  0  0  0  0
   37.3092   24.5976   31.8740 H   0  0  0  0  0  0  0  0  0  0  0  0
   36.5022   22.3658   30.9894 H   0  0  0  0  0  0  0  0  0  0  0  0
   36.5787   20.4116   32.5078 H   0  0  0  0  0  0  0  0  0  0  0  0
   37.4010   20.5588   34.8039 H   0  0  0  0  0  0  0  0  0  0  0  0
   41.0758   26.7777   34.8665 H   0  0  0  0  0  0  0  0  0  0  0  0
   39.3965   28.4605   35.7388 H   0  0  0  0  0  0  0  0  0  0  0  0
   36.9487   27.8383   35.6644 H   0  0  0  0  0  0  0  0  0  0  0  0
   36.3710   23.4211   36.7256 H   0  0  0  0  0  0  0  0  0  0  0  0
   37.1054   23.6788   39.0824 H   0  0  0  0  0  0  0  0  0  0  0  0
   41.0386   22.5073   37.9788 H   0  0  0  0  0  0  0  0  0  0  0  0
  1 11  1  0
  1  6  1  0
  2  1  2  0
  3  2  1  0
  3  4  2  0
  4  5  1  0
  5  6  2  0
  6 13  1  0
  7  8  2  0
  9  8  1  0
 10  9  2  0
 11 12  2  0
 11 10  1  0
 12  7  1  0
 13 18  1  0
 13 14  2  0
 14 15  1  0
 15 16  2  0
 17 16  1  0
 18 17  2  0
  2 19  1  0
  3 20  1  0
  4 21  1  0
  5 22  1  0
  7 23  1  0
  8 24  1  0
  9 25  1  0
 14 26  1  0
 15 27  1  0
 17 28  1  0
M  ISO  8  19  14  20  14  21  14  22  14  23  14  24  14  25  14  26  14
M  ISO  2  27  14  28  14
M  END
>  <minimizedAffinity>  (1) 
-4.58766603

>  <minimizedRMSD>  (1) 
3.68350768

$$$$
