
     RDKit          3D

 27 29  0  0  0  0  0  0  0  0999 V2000
   39.1910   25.2370   34.7840 C   0  0  0  0  0  0  0  0  0  0  0  0
   39.8690   26.4420   34.7750 C   0  0  0  0  0  0  0  0  0  0  0  0
   39.9780   27.1620   33.5900 C   0  0  0  0  0  0  0  0  0  0  0  0
   39.3880   26.6160   32.4630 C   0  0  0  0  0  0  0  0  0  0  0  0
   38.7160   25.4230   32.4650 C   0  0  0  0  0  0  0  0  0  0  0  0
   38.6150   24.7150   33.6540 C   0  0  0  0  0  0  0  0  0  0  0  0
   39.8190   22.8630   37.5340 C   0  0  0  0  0  0  0  0  0  0  0  0
   38.7600   23.1180   38.4010 C   0  0  0  0  0  0  0  0  0  0  0  0
   37.8540   24.1030   38.0180 C   0  0  0  0  0  0  0  0  0  0  0  0
   38.0410   24.7500   36.8470 N   0  0  0  0  0  0  0  0  0  0  0  0
   39.0760   24.4840   36.0240 C   0  0  0  0  0  0  0  0  0  0  0  0
   39.9540   23.5380   36.3830 N   0  0  0  0  0  0  0  0  0  0  0  0
   37.8820   23.4550   33.5760 C   0  0  0  0  0  0  0  0  0  0  0  0
   37.0790   23.2480   32.4470 C   0  0  0  0  0  0  0  0  0  0  0  0
   36.4700   21.9940   32.5650 C   0  0  0  0  0  0  0  0  0  0  0  0
   36.9580   21.5210   33.7830 C   0  0  0  0  0  0  0  0  0  0  0  0
   37.7660   22.3850   34.3360 O   0  0  0  0  0  0  0  0  0  0  0  0
   40.3200   26.8293   35.7005 H   0  0  0  0  0  0  0  0  0  0  0  0
   40.5101   28.1239   33.5501 H   0  0  0  0  0  0  0  0  0  0  0  0
   39.4630   27.1699   31.5156 H   0  0  0  0  0  0  0  0  0  0  0  0
   38.2645   25.0330   31.5409 H   0  0  0  0  0  0  0  0  0  0  0  0
   40.5591   22.0932   37.7980 H   0  0  0  0  0  0  0  0  0  0  0  0
   38.6445   22.5663   39.3456 H   0  0  0  0  0  0  0  0  0  0  0  0
   36.9966   24.3514   38.6608 H   0  0  0  0  0  0  0  0  0  0  0  0
   36.9495   23.9510   31.6109 H   0  0  0  0  0  0  0  0  0  0  0  0
   35.7761   21.5016   31.8678 H   0  0  0  0  0  0  0  0  0  0  0  0
   36.6962   20.5465   34.2210 H   0  0  0  0  0  0  0  0  0  0  0  0
  1 11  1  0
  2  1  2  0
  3  2  1  0
  4  5  1  0
  4  3  2  0
  5  6  2  0
  6  1  1  0
  7  8  2  0
  9  8  1  0
 10  9  2  0
 11 12  2  0
 11 10  1  0
 12  7  1  0
 13  6  1  0
 13 17  1  0
 14 15  1  0
 14 13  2  0
 15 16  2  0
 16 17  1  0
  2 18  1  0
  3 19  1  0
  4 20  1  0
  5 21  1  0
  7 22  1  0
  8 23  1  0
  9 24  1  0
 14 25  1  0
 15 26  1  0
 16 27  1  0
M  ISO  8  18  14  19  14  20  14  21  14  22  14  23  14  24  14  25  14
M  ISO  2  26  14  27  14
M  END
>  <minimizedAffinity>  (1) 
-4.50122166

>  <minimizedRMSD>  (1) 
4.4394474

$$$$
