
     RDKit          3D

 32 33  0  0  0  0  0  0  0  0999 V2000
   38.6030   25.4440   35.3030 C   0  0  0  0  0  0  0  0  0  0  0  0
   38.5090   26.6810   35.9300 C   0  0  0  0  0  0  0  0  0  0  0  0
   37.7490   27.7020   35.3720 C   0  0  0  0  0  0  0  0  0  0  0  0
   37.1170   27.3930   34.1830 C   0  0  0  0  0  0  0  0  0  0  0  0
   37.2100   26.1800   33.5680 C   0  0  0  0  0  0  0  0  0  0  0  0
   37.9710   25.1360   34.1130 C   0  0  0  0  0  0  0  0  0  0  0  0
   41.3480   23.1300   36.1780 C   0  0  0  0  0  0  0  0  0  0  0  0
   40.8180   22.4350   37.2630 C   0  0  0  0  0  0  0  0  0  0  0  0
   39.5330   22.7770   37.6660 C   0  0  0  0  0  0  0  0  0  0  0  0
   38.9360   23.7450   36.9640 N   0  0  0  0  0  0  0  0  0  0  0  0
   39.4200   24.4220   35.9260 C   0  0  0  0  0  0  0  0  0  0  0  0
   40.6750   24.1050   35.5130 N   0  0  0  0  0  0  0  0  0  0  0  0
   37.9400   23.8630   33.3570 C   0  0  0  0  0  0  0  0  0  0  0  0
   39.2830   23.6550   32.6110 C   0  0  0  0  0  0  0  0  0  0  0  0
   36.9350   23.8690   32.2060 C   0  0  0  0  0  0  0  0  0  0  0  0
   37.7580   22.6430   34.2240 C   0  0  0  0  0  0  0  0  0  0  0  0
   39.0413   26.8535   36.8770 H   0  0  0  0  0  0  0  0  0  0  0  0
   37.6568   28.6905   35.8456 H   0  0  0  0  0  0  0  0  0  0  0  0
   36.5033   28.1707   33.7050 H   0  0  0  0  0  0  0  0  0  0  0  0
   36.6749   26.0162   32.6210 H   0  0  0  0  0  0  0  0  0  0  0  0
   42.3643   22.8761   35.8423 H   0  0  0  0  0  0  0  0  0  0  0  0
   41.3915   21.6502   37.7779 H   0  0  0  0  0  0  0  0  0  0  0  0
   39.0365   22.2804   38.5127 H   0  0  0  0  0  0  0  0  0  0  0  0
   40.0938   23.5294   33.3437 H   0  0  0  0  0  0  0  0  0  0  0  0
   39.2166   22.7564   31.9800 H   0  0  0  0  0  0  0  0  0  0  0  0
   39.4915   24.5316   31.9800 H   0  0  0  0  0  0  0  0  0  0  0  0
   35.9127   23.8751   32.6119 H   0  0  0  0  0  0  0  0  0  0  0  0
   37.0898   24.7662   31.5887 H   0  0  0  0  0  0  0  0  0  0  0  0
   37.0791   22.9700   31.5887 H   0  0  0  0  0  0  0  0  0  0  0  0
   37.8017   22.9362   35.2833 H   0  0  0  0  0  0  0  0  0  0  0  0
   36.7814   22.1839   34.0106 H   0  0  0  0  0  0  0  0  0  0  0  0
   38.5581   21.9189   34.0106 H   0  0  0  0  0  0  0  0  0  0  0  0
  1 11  1  0
  1  2  2  0
  3  2  1  0
  4  3  2  0
  5  6  2  0
  5  4  1  0
  6  1  1  0
  7  8  2  0
  8  9  1  0
 10  9  2  0
 11 10  1  0
 12 11  2  0
 12  7  1  0
 13  6  1  0
 13 16  1  0
 14 13  1  0
 15 13  1  0
  2 17  1  0
  3 18  1  0
  4 19  1  0
  5 20  1  0
  7 21  1  0
  8 22  1  0
  9 23  1  0
 14 24  1  0
 14 25  1  0
 14 26  1  0
 15 27  1  0
 15 28  1  0
 15 29  1  0
 16 30  1  0
 16 31  1  0
 16 32  1  0
M  ISO  8  17  14  18  14  19  14  20  14  21  14  22  14  23  14  24   8
M  ISO  8  25   8  26   8  27   8  28   8  29   8  30   8  31   8  32   8
M  END
>  <minimizedAffinity>  (1) 
-4.34632111

>  <minimizedRMSD>  (1) 
4.63416672

$$$$
