
     RDKit          3D

 26 28  0  0  0  0  0  0  0  0999 V2000
   37.8560   22.7510   34.7190 C   0  0  0  0  0  0  0  0  0  0  0  0
   37.1210   21.6280   34.3820 C   0  0  0  0  0  0  0  0  0  0  0  0
   36.7350   21.4380   33.0510 C   0  0  0  0  0  0  0  0  0  0  0  0
   37.1220   22.4090   32.1370 C   0  0  0  0  0  0  0  0  0  0  0  0
   37.8480   23.5220   32.4680 C   0  0  0  0  0  0  0  0  0  0  0  0
   38.2190   23.6890   33.7840 C   0  0  0  0  0  0  0  0  0  0  0  0
   37.8790   23.7100   38.2780 C   0  0  0  0  0  0  0  0  0  0  0  0
   39.1420   23.2810   38.6950 C   0  0  0  0  0  0  0  0  0  0  0  0
   39.9680   22.6670   37.7380 C   0  0  0  0  0  0  0  0  0  0  0  0
   39.5060   22.5190   36.4630 N   0  0  0  0  0  0  0  0  0  0  0  0
   38.2620   22.9530   36.0970 C   0  0  0  0  0  0  0  0  0  0  0  0
   37.4750   23.5370   37.0040 N   0  0  0  0  0  0  0  0  0  0  0  0
   39.0040   24.9000   34.1140 C   0  0  0  0  0  0  0  0  0  0  0  0
   40.3620   24.9740   33.9000 C   0  0  0  0  0  0  0  0  0  0  0  0
   40.7570   26.6830   34.4940 S   0  0  0  0  0  0  0  0  0  0  0  0
   38.9180   26.9710   34.9320 C   0  0  0  0  0  0  0  0  0  0  0  0
   38.4260   25.9720   34.6330 N   0  0  0  0  0  0  0  0  0  0  0  0
   36.8435   20.8931   35.1520 H   0  0  0  0  0  0  0  0  0  0  0  0
   36.1509   20.5585   32.7422 H   0  0  0  0  0  0  0  0  0  0  0  0
   36.8282   22.2764   31.0853 H   0  0  0  0  0  0  0  0  0  0  0  0
   38.1272   24.2624   31.7039 H   0  0  0  0  0  0  0  0  0  0  0  0
   37.2054   24.1955   38.9995 H   0  0  0  0  0  0  0  0  0  0  0  0
   39.4771   23.4188   39.7336 H   0  0  0  0  0  0  0  0  0  0  0  0
   40.9719   22.3111   38.0129 H   0  0  0  0  0  0  0  0  0  0  0  0
   41.0386   24.2134   33.4832 H   0  0  0  0  0  0  0  0  0  0  0  0
   38.4467   27.8670   35.3622 H   0  0  0  0  0  0  0  0  0  0  0  0
  1 11  1  0
  2  1  2  0
  3  2  1  0
  4  5  1  0
  4  3  2  0
  5  6  2  0
  6 13  1  0
  6  1  1  0
  7  8  2  0
  9  8  1  0
 10  9  2  0
 11 10  1  0
 11 12  2  0
 12  7  1  0
 13 17  1  0
 14 13  2  0
 14 15  1  0
 15 16  1  0
 17 16  2  0
  2 18  1  0
  3 19  1  0
  4 20  1  0
  5 21  1  0
  7 22  1  0
  8 23  1  0
  9 24  1  0
 14 25  1  0
 16 26  1  0
M  ISO  8  18  14  19  14  20  14  21  14  22  14  23  14  24  14  25  14
M  ISO  1  26  14
M  END
>  <minimizedAffinity>  (1) 
-4.33292484

>  <minimizedRMSD>  (1) 
4.71956587

$$$$
