
     RDKit          3D

 27 29  0  0  0  0  0  0  0  0999 V2000
   38.4290   25.3280   35.2790 C   0  0  0  0  0  0  0  0  0  0  0  0
   38.1720   26.5810   35.7760 C   0  0  0  0  0  0  0  0  0  0  0  0
   37.4740   27.5210   35.0300 C   0  0  0  0  0  0  0  0  0  0  0  0
   37.0630   27.1000   33.7590 C   0  0  0  0  0  0  0  0  0  0  0  0
   37.3130   25.8470   33.2460 C   0  0  0  0  0  0  0  0  0  0  0  0
   38.0110   24.9490   34.0280 C   0  0  0  0  0  0  0  0  0  0  0  0
   41.0510   23.0330   36.4900 C   0  0  0  0  0  0  0  0  0  0  0  0
   40.4860   22.5270   37.6600 C   0  0  0  0  0  0  0  0  0  0  0  0
   39.1980   22.9860   38.0180 C   0  0  0  0  0  0  0  0  0  0  0  0
   38.6080   23.8830   37.2000 N   0  0  0  0  0  0  0  0  0  0  0  0
   39.1600   24.3670   36.0720 C   0  0  0  0  0  0  0  0  0  0  0  0
   40.3910   23.9250   35.7330 N   0  0  0  0  0  0  0  0  0  0  0  0
   38.2070   23.6540   33.3840 C   0  0  0  0  0  0  0  0  0  0  0  0
   39.0340   23.0600   32.4580 C   0  0  0  0  0  0  0  0  0  0  0  0
   38.6330   21.7620   32.3120 C   0  0  0  0  0  0  0  0  0  0  0  0
   37.5820   21.5520   33.1280 N   0  0  0  0  0  0  0  0  0  0  0  0
   37.3280   22.6830   33.7700 N   0  0  0  0  0  0  0  0  0  0  0  0
   38.5254   26.8454   36.7836 H   0  0  0  0  0  0  0  0  0  0  0  0
   37.2580   28.5297   35.4119 H   0  0  0  0  0  0  0  0  0  0  0  0
   36.5070   27.8134   33.1329 H   0  0  0  0  0  0  0  0  0  0  0  0
   36.9658   25.5691   32.2399 H   0  0  0  0  0  0  0  0  0  0  0  0
   42.0521   22.6967   36.1823 H   0  0  0  0  0  0  0  0  0  0  0  0
   41.0236   21.7965   38.2824 H   0  0  0  0  0  0  0  0  0  0  0  0
   38.6958   22.6261   38.9281 H   0  0  0  0  0  0  0  0  0  0  0  0
   39.8688   23.5438   31.9298 H   0  0  0  0  0  0  0  0  0  0  0  0
   39.0896   21.0172   31.6436 H   0  0  0  0  0  0  0  0  0  0  0  0
   37.0660   20.6669   33.2343 H   0  0  0  0  0  0  0  0  0  0  0  0
  1  2  2  0
  1 11  1  0
  3  2  1  0
  4  3  2  0
  5  4  1  0
  5  6  2  0
  6  1  1  0
  7  8  2  0
  8  9  1  0
 10  9  2  0
 11 10  1  0
 12 11  2  0
 12  7  1  0
 13 17  2  0
 13  6  1  0
 14 13  1  0
 15 14  2  0
 15 16  1  0
 16 17  1  0
  2 18  1  0
  3 19  1  0
  4 20  1  0
  5 21  1  0
  7 22  1  0
  8 23  1  0
  9 24  1  0
 14 25  1  0
 15 26  1  0
 16 27  1  0
M  ISO  8  18  14  19  14  20  14  21  14  22  14  23  14  24  14  25  14
M  ISO  2  26  14  27   9
M  END
>  <minimizedAffinity>  (1) 
-4.32982731

>  <minimizedRMSD>  (1) 
4.68276262

$$$$
