
     RDKit          3D

 27 28  0  0  0  0  0  0  0  0999 V2000
   37.6710   22.1980   34.0960 C   0  0  0  0  0  0  0  0  0  0  0  0
   36.8010   21.7740   33.1270 C   0  0  0  0  0  0  0  0  0  0  0  0
   35.7090   20.9760   33.4090 C   0  0  0  0  0  0  0  0  0  0  0  0
   35.5610   20.6400   34.7410 C   0  0  0  0  0  0  0  0  0  0  0  0
   36.4170   21.0530   35.7220 C   0  0  0  0  0  0  0  0  0  0  0  0
   37.5210   21.8600   35.4250 C   0  0  0  0  0  0  0  0  0  0  0  0
   40.8720   23.3990   32.7150 C   0  0  0  0  0  0  0  0  0  0  0  0
   40.8690   24.7630   33.0930 C   0  0  0  0  0  0  0  0  0  0  0  0
   39.7680   25.2270   33.8100 C   0  0  0  0  0  0  0  0  0  0  0  0
   38.7860   24.3480   34.0920 N   0  0  0  0  0  0  0  0  0  0  0  0
   38.7990   23.0430   33.7250 C   0  0  0  0  0  0  0  0  0  0  0  0
   39.8510   22.5920   33.0380 N   0  0  0  0  0  0  0  0  0  0  0  0
   38.4030   22.2570   36.4610 N   0  0  0  0  0  0  0  0  0  0  0  0
   38.1210   23.2100   37.4850 C   0  0  0  0  0  0  0  0  0  0  0  0
   37.5460   24.2900   37.0250 N   0  0  0  0  0  0  0  0  0  0  0  0
   38.4970   22.8680   38.8340 N   0  0  0  0  0  0  0  0  0  0  0  0
   37.2680   25.0870   37.6200 H   0  0  0  0  0  0  0  0  0  0  0  0
   36.9782   22.0802   32.0854 H   0  0  0  0  0  0  0  0  0  0  0  0
   35.0100   20.6339   32.6316 H   0  0  0  0  0  0  0  0  0  0  0  0
   34.7085   20.0062   35.0266 H   0  0  0  0  0  0  0  0  0  0  0  0
   36.2356   20.7462   36.7626 H   0  0  0  0  0  0  0  0  0  0  0  0
   41.7239   22.9953   32.1483 H   0  0  0  0  0  0  0  0  0  0  0  0
   41.7031   25.4306   32.8310 H   0  0  0  0  0  0  0  0  0  0  0  0
   39.7025   26.2758   34.1351 H   0  0  0  0  0  0  0  0  0  0  0  0
   39.3340   21.8167   36.4762 H   0  0  0  0  0  0  0  0  0  0  0  0
   38.3116   23.5274   39.6032 H   0  0  0  0  0  0  0  0  0  0  0  0
   38.9511   21.9642   39.0287 H   0  0  0  0  0  0  0  0  0  0  0  0
  1  6  2  0
  2  3  2  0
  2  1  1  0
  3  4  1  0
  4  5  2  0
  6  5  1  0
  6 13  1  0
  7 12  2  0
  7  8  1  0
  8  9  2  0
  9 10  1  0
 11 10  2  0
 11  1  1  0
 12 11  1  0
 13 14  1  0
 14 16  1  0
 15 14  2  0
 15 17  1  0
  2 18  1  0
  3 19  1  0
  4 20  1  0
  5 21  1  0
  7 22  1  0
  8 23  1  0
  9 24  1  0
 13 25  1  0
 16 26  1  0
 16 27  1  0
M  ISO  7  18  14  19  14  20  14  21  14  22  14  23  14  24  14
M  END
>  <minimizedAffinity>  (1) 
-4.39425039

>  <minimizedRMSD>  (1) 
3.60171628

$$$$
