
     RDKit          3D

 27 29  0  0  0  0  0  0  0  0999 V2000
   38.4100   25.3480   35.2820 C   0  0  0  0  0  0  0  0  0  0  0  0
   38.2090   26.6320   35.7770 C   0  0  0  0  0  0  0  0  0  0  0  0
   37.5040   27.5680   35.0250 C   0  0  0  0  0  0  0  0  0  0  0  0
   37.0310   27.1490   33.7940 C   0  0  0  0  0  0  0  0  0  0  0  0
   37.2220   25.8870   33.2990 C   0  0  0  0  0  0  0  0  0  0  0  0
   37.9280   24.9690   34.0620 C   0  0  0  0  0  0  0  0  0  0  0  0
   41.0290   23.0440   36.4650 C   0  0  0  0  0  0  0  0  0  0  0  0
   40.4650   22.5280   37.6510 C   0  0  0  0  0  0  0  0  0  0  0  0
   39.1990   22.9960   37.9990 C   0  0  0  0  0  0  0  0  0  0  0  0
   38.5810   23.9000   37.2060 N   0  0  0  0  0  0  0  0  0  0  0  0
   39.1440   24.3810   36.0720 C   0  0  0  0  0  0  0  0  0  0  0  0
   40.3660   23.9420   35.7180 N   0  0  0  0  0  0  0  0  0  0  0  0
   38.1000   23.6210   33.4710 C   0  0  0  0  0  0  0  0  0  0  0  0
   38.8600   23.3260   32.3100 C   0  0  0  0  0  0  0  0  0  0  0  0
   38.8970   22.0200   31.9210 C   0  0  0  0  0  0  0  0  0  0  0  0
   38.2150   21.0930   32.6540 C   0  0  0  0  0  0  0  0  0  0  0  0
   37.4180   21.9330   34.0070 S   0  0  0  0  0  0  0  0  0  0  0  0
   38.6076   26.9086   36.7642 H   0  0  0  0  0  0  0  0  0  0  0  0
   37.3315   28.5907   35.3916 H   0  0  0  0  0  0  0  0  0  0  0  0
   36.4709   27.8693   33.1796 H   0  0  0  0  0  0  0  0  0  0  0  0
   36.8225   25.6060   32.3134 H   0  0  0  0  0  0  0  0  0  0  0  0
   42.0264   22.7058   36.1475 H   0  0  0  0  0  0  0  0  0  0  0  0
   40.9984   21.7922   38.2708 H   0  0  0  0  0  0  0  0  0  0  0  0
   38.7060   22.6323   38.9126 H   0  0  0  0  0  0  0  0  0  0  0  0
   39.3921   24.1108   31.7523 H   0  0  0  0  0  0  0  0  0  0  0  0
   39.4676   21.7183   31.0303 H   0  0  0  0  0  0  0  0  0  0  0  0
   38.1660   20.0141   32.4454 H   0  0  0  0  0  0  0  0  0  0  0  0
  1  2  2  0
  1 11  1  0
  3  2  1  0
  4  3  2  0
  5  4  1  0
  5  6  2  0
  6  1  1  0
  7  8  2  0
  8  9  1  0
 10  9  2  0
 11 10  1  0
 12 11  2  0
 12  7  1  0
 13 17  1  0
 13  6  1  0
 14 13  2  0
 15 14  1  0
 15 16  2  0
 16 17  1  0
  2 18  1  0
  3 19  1  0
  4 20  1  0
  5 21  1  0
  7 22  1  0
  8 23  1  0
  9 24  1  0
 14 25  1  0
 15 26  1  0
 16 27  1  0
M  ISO  8  18  14  19  14  20  14  21  14  22  14  23  14  24  14  25  14
M  ISO  2  26  14  27  14
M  END
>  <minimizedAffinity>  (1) 
-4.46858072

>  <minimizedRMSD>  (1) 
4.86350536

$$$$
