
     RDKit          3D

 33 35  0  0  0  0  0  0  0  0999 V2000
   38.5370   25.6190   35.2440 C   0  0  0  0  0  0  0  0  0  0  0  0
   38.4200   26.8060   35.9280 C   0  0  0  0  0  0  0  0  0  0  0  0
   37.6280   27.8250   35.3840 C   0  0  0  0  0  0  0  0  0  0  0  0
   36.9970   27.5910   34.1760 C   0  0  0  0  0  0  0  0  0  0  0  0
   37.1140   26.3910   33.4850 C   0  0  0  0  0  0  0  0  0  0  0  0
   37.9030   25.4040   34.0490 C   0  0  0  0  0  0  0  0  0  0  0  0
   41.3470   23.3130   35.8560 C   0  0  0  0  0  0  0  0  0  0  0  0
   40.8390   22.4810   36.8630 C   0  0  0  0  0  0  0  0  0  0  0  0
   39.5340   22.7350   37.3080 C   0  0  0  0  0  0  0  0  0  0  0  0
   38.8470   23.7530   36.7490 N   0  0  0  0  0  0  0  0  0  0  0  0
   39.3480   24.5470   35.7810 C   0  0  0  0  0  0  0  0  0  0  0  0
   40.6050   24.3100   35.3450 N   0  0  0  0  0  0  0  0  0  0  0  0
   37.9430   24.2300   33.2570 N   0  0  0  0  0  0  0  0  0  0  0  0
   37.5060   22.8520   33.3560 C   0  0  0  0  0  0  0  0  0  0  0  0
   36.8590   22.5280   32.0000 C   0  0  0  0  0  0  0  0  0  0  0  0
   37.8330   22.4370   31.0070 O   0  0  0  0  0  0  0  0  0  0  0  0
   38.9790   23.1580   31.3340 C   0  0  0  0  0  0  0  0  0  0  0  0
   38.6150   24.4590   31.9670 C   0  0  0  0  0  0  0  0  0  0  0  0
   38.9397   26.9528   36.8863 H   0  0  0  0  0  0  0  0  0  0  0  0
   37.5109   28.7870   35.9044 H   0  0  0  0  0  0  0  0  0  0  0  0
   36.3757   28.3891   33.7434 H   0  0  0  0  0  0  0  0  0  0  0  0
   36.5990   26.2318   32.5261 H   0  0  0  0  0  0  0  0  0  0  0  0
   42.3670   23.1476   35.4788 H   0  0  0  0  0  0  0  0  0  0  0  0
   41.4394   21.6625   37.2867 H   0  0  0  0  0  0  0  0  0  0  0  0
   39.0795   22.1172   38.0965 H   0  0  0  0  0  0  0  0  0  0  0  0
   38.3640   22.1889   33.5408 H   0  0  0  0  0  0  0  0  0  0  0  0
   36.8027   22.7057   34.1891 H   0  0  0  0  0  0  0  0  0  0  0  0
   36.3249   21.5691   32.0730 H   0  0  0  0  0  0  0  0  0  0  0  0
   36.1562   23.3327   31.7382 H   0  0  0  0  0  0  0  0  0  0  0  0
   39.5876   22.5709   32.0375 H   0  0  0  0  0  0  0  0  0  0  0  0
   39.5486   23.3569   30.4143 H   0  0  0  0  0  0  0  0  0  0  0  0
   39.5280   25.0495   32.1334 H   0  0  0  0  0  0  0  0  0  0  0  0
   37.9308   25.0026   31.2989 H   0  0  0  0  0  0  0  0  0  0  0  0
  1 11  1  0
  1  2  2  0
  3  2  1  0
  4  3  2  0
  5  6  2  0
  5  4  1  0
  6  1  1  0
  7  8  2  0
  8  9  1  0
 10  9  2  0
 11 10  1  0
 12 11  2  0
 12  7  1  0
 13 14  1  0
 13  6  1  0
 15 14  1  0
 16 17  1  0
 16 15  1  0
 17 18  1  0
 18 13  1  0
  2 19  1  0
  3 20  1  0
  4 21  1  0
  5 22  1  0
  7 23  1  0
  8 24  1  0
  9 25  1  0
 14 26  1  0
 14 27  1  0
 15 28  1  0
 15 29  1  0
 17 30  1  0
 17 31  1  0
 18 32  1  0
 18 33  1  0
M  ISO  8  19  14  20  14  21  14  22  14  23  14  24  14  25  14  26  13
M  ISO  7  27  13  28  13  29  13  30  13  31  13  32  13  33  13
M  END
>  <minimizedAffinity>  (1) 
-4.47964621

>  <minimizedRMSD>  (1) 
5.4858942

$$$$
