
     RDKit          3D

 35 37  0  0  0  0  0  0  0  0999 V2000
   37.9700   25.7480   34.6020 C   0  0  0  0  0  0  0  0  0  0  0  0
   37.7560   26.8380   35.4380 C   0  0  0  0  0  0  0  0  0  0  0  0
   37.0920   27.9570   34.9210 C   0  0  0  0  0  0  0  0  0  0  0  0
   36.6870   27.9090   33.6000 C   0  0  0  0  0  0  0  0  0  0  0  0
   36.9020   26.8310   32.7830 C   0  0  0  0  0  0  0  0  0  0  0  0
   37.5640   25.7070   33.2900 C   0  0  0  0  0  0  0  0  0  0  0  0
   40.6170   23.4430   35.7650 C   0  0  0  0  0  0  0  0  0  0  0  0
   39.8590   22.3200   36.1720 C   0  0  0  0  0  0  0  0  0  0  0  0
   38.4530   22.3830   36.0370 C   0  0  0  0  0  0  0  0  0  0  0  0
   37.9230   23.5100   35.5280 N   0  0  0  0  0  0  0  0  0  0  0  0
   38.6610   24.5830   35.1390 C   0  0  0  0  0  0  0  0  0  0  0  0
   39.9920   24.5280   35.2650 N   0  0  0  0  0  0  0  0  0  0  0  0
   37.7560   24.6320   32.4050 N   0  0  0  0  0  0  0  0  0  0  0  0
   36.7190   23.6530   32.1120 C   0  0  0  0  0  0  0  0  0  0  0  0
   37.2380   22.6780   31.0750 C   0  0  0  0  0  0  0  0  0  0  0  0
   38.4640   22.0220   31.7180 C   0  0  0  0  0  0  0  0  0  0  0  0
   39.5680   23.0430   31.8750 C   0  0  0  0  0  0  0  0  0  0  0  0
   39.0520   24.4590   31.7290 C   0  0  0  0  0  0  0  0  0  0  0  0
   38.1007   26.8217   36.4825 H   0  0  0  0  0  0  0  0  0  0  0  0
   36.8994   28.8430   35.5438 H   0  0  0  0  0  0  0  0  0  0  0  0
   36.1645   28.7827   33.1832 H   0  0  0  0  0  0  0  0  0  0  0  0
   36.5577   26.8485   31.7384 H   0  0  0  0  0  0  0  0  0  0  0  0
   41.7131   23.4310   35.8562 H   0  0  0  0  0  0  0  0  0  0  0  0
   40.3490   21.4243   36.5814 H   0  0  0  0  0  0  0  0  0  0  0  0
   37.8143   21.5395   36.3378 H   0  0  0  0  0  0  0  0  0  0  0  0
   36.4561   23.1084   33.0309 H   0  0  0  0  0  0  0  0  0  0  0  0
   35.8247   24.1640   31.7260 H   0  0  0  0  0  0  0  0  0  0  0  0
   37.5229   23.2091   30.1548 H   0  0  0  0  0  0  0  0  0  0  0  0
   36.4768   21.9365   30.7907 H   0  0  0  0  0  0  0  0  0  0  0  0
   38.1897   21.6258   32.7068 H   0  0  0  0  0  0  0  0  0  0  0  0
   38.8164   21.2021   31.0749 H   0  0  0  0  0  0  0  0  0  0  0  0
   40.0182   22.9295   32.8722 H   0  0  0  0  0  0  0  0  0  0  0  0
   40.3104   22.8671   31.0826 H   0  0  0  0  0  0  0  0  0  0  0  0
   39.7817   25.1530   32.1716 H   0  0  0  0  0  0  0  0  0  0  0  0
   38.9137   24.6678   30.6579 H   0  0  0  0  0  0  0  0  0  0  0  0
  1 11  1  0
  1  2  2  0
  3  2  1  0
  4  3  2  0
  5  6  2  0
  5  4  1  0
  6  1  1  0
  7  8  2  0
  9  8  1  0
 10  9  2  0
 11 12  2  0
 11 10  1  0
 12  7  1  0
 13  6  1  0
 14 13  1  0
 15 16  1  0
 15 14  1  0
 16 17  1  0
 18 17  1  0
 18 13  1  0
  2 19  1  0
  3 20  1  0
  4 21  1  0
  5 22  1  0
  7 23  1  0
  8 24  1  0
  9 25  1  0
 14 26  1  0
 14 27  1  0
 15 28  1  0
 15 29  1  0
 16 30  1  0
 16 31  1  0
 17 32  1  0
 17 33  1  0
 18 34  1  0
 18 35  1  0
M  ISO  8  19  14  20  14  21  14  22  14  23  14  24  14  25  14  26  13
M  ISO  8  27  13  28  13  29  13  30  13  31  13  32  13  33  13  34  13
M  ISO  1  35  13
M  END
>  <minimizedAffinity>  (1) 
-4.20005178

>  <minimizedRMSD>  (1) 
5.67841339

$$$$
