
     RDKit          3D

 21 22  0  0  0  0  0  0  0  0999 V2000
   37.3620   21.9050   35.0390 C   0  0  0  0  0  0  0  0  0  0  0  0
   37.9180   22.0610   33.7960 C   0  0  0  0  0  0  0  0  0  0  0  0
   37.3140   21.4920   32.6750 C   0  0  0  0  0  0  0  0  0  0  0  0
   36.1480   20.7790   32.8960 C   0  0  0  0  0  0  0  0  0  0  0  0
   35.5640   20.6060   34.1450 C   0  0  0  0  0  0  0  0  0  0  0  0
   36.1890   21.1850   35.2440 C   0  0  0  0  0  0  0  0  0  0  0  0
   39.7850   22.6830   37.6950 C   0  0  0  0  0  0  0  0  0  0  0  0
   39.1220   23.6460   38.4520 C   0  0  0  0  0  0  0  0  0  0  0  0
   37.8450   24.0070   38.0260 C   0  0  0  0  0  0  0  0  0  0  0  0
   37.3110   23.4260   36.9230 N   0  0  0  0  0  0  0  0  0  0  0  0
   37.9850   22.4940   36.2130 C   0  0  0  0  0  0  0  0  0  0  0  0
   39.2290   22.1220   36.6030 N   0  0  0  0  0  0  0  0  0  0  0  0
   35.5010   21.0100   36.8880 S   0  0  0  0  0  0  0  0  0  0  0  0
   38.8470   22.6389   33.6817 H   0  0  0  0  0  0  0  0  0  0  0  0
   37.7418   21.6039   31.6678 H   0  0  0  0  0  0  0  0  0  0  0  0
   35.6524   20.3203   32.0277 H   0  0  0  0  0  0  0  0  0  0  0  0
   34.6351   20.0283   34.2609 H   0  0  0  0  0  0  0  0  0  0  0  0
   40.7951   22.3702   37.9982 H   0  0  0  0  0  0  0  0  0  0  0  0
   39.5833   24.0991   39.3419 H   0  0  0  0  0  0  0  0  0  0  0  0
   37.2712   24.7619   38.5835 H   0  0  0  0  0  0  0  0  0  0  0  0
   36.4748   21.2577   37.8193 H   0  0  0  0  0  0  0  0  0  0  0  0
  1  6  1  0
  1 11  1  0
  2  1  2  0
  3  4  2  0
  3  2  1  0
  4  5  1  0
  5  6  2  0
  6 13  1  0
  7  8  2  0
  9  8  1  0
 10  9  2  0
 11 12  2  0
 11 10  1  0
 12  7  1  0
  2 14  1  0
  3 15  1  0
  4 16  1  0
  5 17  1  0
  7 18  1  0
  8 19  1  0
  9 20  1  0
 13 21  1  0
M  ISO  8  14  14  15  14  16  14  17  14  18  14  19  14  20  14  21  11
M  END
>  <minimizedAffinity>  (1) 
-3.86693382

>  <minimizedRMSD>  (1) 
0.325080544

$$$$
