
     RDKit          3D

 28 30  0  0  0  0  0  0  0  0999 V2000
   39.3900   25.1490   34.7080 C   0  0  0  0  0  0  0  0  0  0  0  0
   39.9870   26.4160   34.6970 C   0  0  0  0  0  0  0  0  0  0  0  0
   40.1830   27.1180   33.5250 C   0  0  0  0  0  0  0  0  0  0  0  0
   39.7500   26.4830   32.3710 C   0  0  0  0  0  0  0  0  0  0  0  0
   39.1570   25.2320   32.3520 C   0  0  0  0  0  0  0  0  0  0  0  0
   38.9730   24.5460   33.5630 C   0  0  0  0  0  0  0  0  0  0  0  0
   39.8610   22.8430   37.5360 C   0  0  0  0  0  0  0  0  0  0  0  0
   38.7810   23.2030   38.3800 C   0  0  0  0  0  0  0  0  0  0  0  0
   37.9150   24.2410   37.9440 C   0  0  0  0  0  0  0  0  0  0  0  0
   38.1880   24.8050   36.7560 N   0  0  0  0  0  0  0  0  0  0  0  0
   39.2100   24.4590   35.9630 C   0  0  0  0  0  0  0  0  0  0  0  0
   40.0400   23.4770   36.3640 N   0  0  0  0  0  0  0  0  0  0  0  0
   38.3510   23.2300   33.4570 C   0  0  0  0  0  0  0  0  0  0  0  0
   39.0110   22.1030   33.1770 N   0  0  0  0  0  0  0  0  0  0  0  0
   38.2220   21.0790   33.1570 O   0  0  0  0  0  0  0  0  0  0  0  0
   37.0270   21.4770   33.4170 C   0  0  0  0  0  0  0  0  0  0  0  0
   37.0910   22.7990   33.6030 N   0  0  0  0  0  0  0  0  0  0  0  0
   35.7800   20.6800   33.5060 C   0  0  0  0  0  0  0  0  0  0  0  0
   35.3450   20.5620   34.8260 F   0  0  0  0  0  0  0  0  0  0  0  0
   34.7560   21.1950   32.7330 F   0  0  0  0  0  0  0  0  0  0  0  0
   35.9950   19.3610   33.0980 F   0  0  0  0  0  0  0  0  0  0  0  0
   40.3085   26.8639   35.6488 H   0  0  0  0  0  0  0  0  0  0  0  0
   40.6508   28.1134   33.5076 H   0  0  0  0  0  0  0  0  0  0  0  0
   39.8859   27.0049   31.4122 H   0  0  0  0  0  0  0  0  0  0  0  0
   38.8346   24.7820   31.4015 H   0  0  0  0  0  0  0  0  0  0  0  0
   40.5534   22.0442   37.8400 H   0  0  0  0  0  0  0  0  0  0  0  0
   38.6186   22.6948   39.3420 H   0  0  0  0  0  0  0  0  0  0  0  0
   37.0589   24.5684   38.5522 H   0  0  0  0  0  0  0  0  0  0  0  0
  1 11  1  0
  2  1  2  0
  3  2  1  0
  4  3  2  0
  5  4  1  0
  5  6  2  0
  6  1  1  0
  7  8  2  0
  9  8  1  0
 10  9  2  0
 11 12  2  0
 11 10  1  0
 12  7  1  0
 13  6  1  0
 13 17  1  0
 14 13  2  0
 15 14  1  0
 15 16  1  0
 16 18  1  0
 16 17  2  0
 18 19  1  0
 20 18  1  0
 21 18  1  0
  2 22  1  0
  3 23  1  0
  4 24  1  0
  5 25  1  0
  7 26  1  0
  8 27  1  0
  9 28  1  0
M  ISO  7  22  14  23  14  24  14  25  14  26  14  27  14  28  14
M  END
>  <minimizedAffinity>  (1) 
-5.28952932

>  <minimizedRMSD>  (1) 
2.48220682

$$$$
