
     RDKit          3D

 32 35  0  0  0  0  0  0  0  0999 V2000
   38.5040   25.4880   35.3490 C   0  0  0  0  0  0  0  0  0  0  0  0
   38.4470   26.7580   35.9240 C   0  0  0  0  0  0  0  0  0  0  0  0
   37.7680   27.7960   35.3220 C   0  0  0  0  0  0  0  0  0  0  0  0
   37.1530   27.4780   34.1140 C   0  0  0  0  0  0  0  0  0  0  0  0
   37.2010   26.2400   33.5420 C   0  0  0  0  0  0  0  0  0  0  0  0
   37.8940   25.2040   34.1680 C   0  0  0  0  0  0  0  0  0  0  0  0
   41.0650   23.0190   36.3020 C   0  0  0  0  0  0  0  0  0  0  0  0
   40.4890   22.4290   37.4400 C   0  0  0  0  0  0  0  0  0  0  0  0
   39.2300   22.8930   37.8580 C   0  0  0  0  0  0  0  0  0  0  0  0
   38.6710   23.8710   37.1290 N   0  0  0  0  0  0  0  0  0  0  0  0
   39.2320   24.4390   36.0300 C   0  0  0  0  0  0  0  0  0  0  0  0
   40.4210   23.9950   35.6420 N   0  0  0  0  0  0  0  0  0  0  0  0
   37.8960   23.9180   33.4890 C   0  0  0  0  0  0  0  0  0  0  0  0
   38.7760   23.5710   32.5420 N   0  0  0  0  0  0  0  0  0  0  0  0
   38.5620   22.3730   32.0990 O   0  0  0  0  0  0  0  0  0  0  0  0
   37.5470   21.8810   32.7210 C   0  0  0  0  0  0  0  0  0  0  0  0
   37.1280   22.8220   33.5800 N   0  0  0  0  0  0  0  0  0  0  0  0
   36.8340   20.6090   32.6720 C   0  0  0  0  0  0  0  0  0  0  0  0
   35.6770   20.1480   33.2350 C   0  0  0  0  0  0  0  0  0  0  0  0
   35.4460   18.8490   32.8640 C   0  0  0  0  0  0  0  0  0  0  0  0
   36.4980   18.5350   32.0560 N   0  0  0  0  0  0  0  0  0  0  0  0
   37.3150   19.5660   31.9430 N   0  0  0  0  0  0  0  0  0  0  0  0
   38.9569   26.9357   36.8823 H   0  0  0  0  0  0  0  0  0  0  0  0
   37.7159   28.8020   35.7638 H   0  0  0  0  0  0  0  0  0  0  0  0
   36.5967   28.2698   33.5909 H   0  0  0  0  0  0  0  0  0  0  0  0
   36.6915   26.0585   32.5841 H   0  0  0  0  0  0  0  0  0  0  0  0
   42.0500   22.6790   35.9496 H   0  0  0  0  0  0  0  0  0  0  0  0
   41.0079   21.6281   37.9871 H   0  0  0  0  0  0  0  0  0  0  0  0
   38.7263   22.4740   38.7416 H   0  0  0  0  0  0  0  0  0  0  0  0
   35.0225   20.7374   33.8940 H   0  0  0  0  0  0  0  0  0  0  0  0
   34.6022   18.2052   33.1530 H   0  0  0  0  0  0  0  0  0  0  0  0
   36.6360   17.6226   31.5984 H   0  0  0  0  0  0  0  0  0  0  0  0
  1  2  2  0
  1 11  1  0
  3  2  1  0
  4  3  2  0
  5  4  1  0
  5  6  2  0
  6  1  1  0
  7  8  2  0
  8  9  1  0
 10  9  2  0
 11 10  1  0
 12 11  2  0
 12  7  1  0
 13 17  1  0
 13  6  1  0
 14 13  2  0
 15 14  1  0
 15 16  1  0
 16 17  2  0
 18 16  1  0
 18 19  1  0
 20 19  2  0
 21 20  1  0
 22 21  1  0
 22 18  2  0
  2 23  1  0
  3 24  1  0
  4 25  1  0
  5 26  1  0
  7 27  1  0
  8 28  1  0
  9 29  1  0
 19 30  1  0
 20 31  1  0
 21 32  1  0
M  ISO  8  23  14  24  14  25  14  26  14  27  14  28  14  29  14  30  14
M  ISO  2  31  14  32   9
M  END
>  <minimizedAffinity>  (1) 
-5.32754898

>  <minimizedRMSD>  (1) 
3.72414064

$$$$
