
     RDKit          3D

 32 35  0  0  0  0  0  0  0  0999 V2000
   39.7250   25.6160   34.4500 C   0  0  0  0  0  0  0  0  0  0  0  0
   40.7590   26.5140   34.7050 C   0  0  0  0  0  0  0  0  0  0  0  0
   41.2600   27.3470   33.7200 C   0  0  0  0  0  0  0  0  0  0  0  0
   40.6680   27.2280   32.4800 C   0  0  0  0  0  0  0  0  0  0  0  0
   39.6410   26.3460   32.2070 C   0  0  0  0  0  0  0  0  0  0  0  0
   39.1470   25.5090   33.2180 C   0  0  0  0  0  0  0  0  0  0  0  0
   38.0710   24.6130   32.8480 C   0  0  0  0  0  0  0  0  0  0  0  0
   36.9100   25.0100   32.3100 N   0  0  0  0  0  0  0  0  0  0  0  0
   36.1210   24.0090   32.0740 O   0  0  0  0  0  0  0  0  0  0  0  0
   36.7150   22.9300   32.4400 C   0  0  0  0  0  0  0  0  0  0  0  0
   37.9130   23.2920   32.9160 N   0  0  0  0  0  0  0  0  0  0  0  0
   36.1100   21.6470   32.3120 N   0  0  0  0  0  0  0  0  0  0  0  0
   36.0580   20.8660   33.4070 C   0  0  0  0  0  0  0  0  0  0  0  0
   35.4320   19.6700   33.0580 C   0  0  0  0  0  0  0  0  0  0  0  0
   35.1190   19.7590   31.7530 N   0  0  0  0  0  0  0  0  0  0  0  0
   35.5260   20.9530   31.2930 C   0  0  0  0  0  0  0  0  0  0  0  0
   39.3750   22.8710   36.8820 C   0  0  0  0  0  0  0  0  0  0  0  0
   38.2080   23.2370   37.5760 C   0  0  0  0  0  0  0  0  0  0  0  0
   37.5730   24.4270   37.1810 C   0  0  0  0  0  0  0  0  0  0  0  0
   38.1110   25.1410   36.1740 N   0  0  0  0  0  0  0  0  0  0  0  0
   39.2400   24.7680   35.5180 C   0  0  0  0  0  0  0  0  0  0  0  0
   39.8510   23.6380   35.8850 N   0  0  0  0  0  0  0  0  0  0  0  0
   41.1888   26.5623   35.7164 H   0  0  0  0  0  0  0  0  0  0  0  0
   42.0771   28.0576   33.9134 H   0  0  0  0  0  0  0  0  0  0  0  0
   41.0334   27.8699   31.6649 H   0  0  0  0  0  0  0  0  0  0  0  0
   39.2102   26.3000   31.1959 H   0  0  0  0  0  0  0  0  0  0  0  0
   36.4426   21.1261   34.4042 H   0  0  0  0  0  0  0  0  0  0  0  0
   35.2323   18.8168   33.7229 H   0  0  0  0  0  0  0  0  0  0  0  0
   35.4076   21.3136   30.2605 H   0  0  0  0  0  0  0  0  0  0  0  0
   39.9045   21.9471   37.1576 H   0  0  0  0  0  0  0  0  0  0  0  0
   37.8091   22.6182   38.3933 H   0  0  0  0  0  0  0  0  0  0  0  0
   36.6559   24.7679   37.6838 H   0  0  0  0  0  0  0  0  0  0  0  0
  1  2  2  0
  1 21  1  0
  3  2  1  0
  4  3  2  0
  5  4  1  0
  5  6  2  0
  6  1  1  0
  7 11  1  0
  7  6  1  0
  8  7  2  0
  9  8  1  0
  9 10  1  0
 10 11  2  0
 12 10  1  0
 12 13  1  0
 14 13  2  0
 15 14  1  0
 16 15  2  0
 16 12  1  0
 17 18  2  0
 19 18  1  0
 20 19  2  0
 21 22  2  0
 21 20  1  0
 22 17  1  0
  2 23  1  0
  3 24  1  0
  4 25  1  0
  5 26  1  0
 13 27  1  0
 14 28  1  0
 16 29  1  0
 17 30  1  0
 18 31  1  0
 19 32  1  0
M  ISO  8  23  14  24  14  25  14  26  14  27  14  28  14  29  14  30  14
M  ISO  2  31  14  32  14
M  END
>  <minimizedAffinity>  (1) 
-5.48171806

>  <minimizedRMSD>  (1) 
3.61772537

$$$$
