
     RDKit          3D

 42 46  0  0  0  0  0  0  0  0999 V2000
   36.8150   24.8350   31.7130 C   0  0  0  0  0  0  0  0  0  0  0  0
   35.6830   24.1330   31.4150 C   0  0  0  0  0  0  0  0  0  0  0  0
   34.7090   24.8720   30.7340 C   0  0  0  0  0  0  0  0  0  0  0  0
   34.8990   26.1390   30.4200 N   0  0  0  0  0  0  0  0  0  0  0  0
   35.9960   26.8320   30.7060 C   0  0  0  0  0  0  0  0  0  0  0  0
   36.9240   26.1010   31.3630 N   0  0  0  0  0  0  0  0  0  0  0  0
   36.4330   28.2000   30.4760 C   0  0  0  0  0  0  0  0  0  0  0  0
   37.1410   28.6020   29.3870 N   0  0  0  0  0  0  0  0  0  0  0  0
   37.5360   29.8610   29.1860 C   0  0  0  0  0  0  0  0  0  0  0  0
   37.2710   30.8550   30.0490 N   0  0  0  0  0  0  0  0  0  0  0  0
   36.5790   30.5450   31.1500 C   0  0  0  0  0  0  0  0  0  0  0  0
   36.3100   31.5720   32.0310 C   0  0  0  0  0  0  0  0  0  0  0  0
   35.6000   31.3160   33.1850 C   0  0  0  0  0  0  0  0  0  0  0  0
   35.1820   30.0100   33.4040 C   0  0  0  0  0  0  0  0  0  0  0  0
   35.4780   29.0340   32.4940 C   0  0  0  0  0  0  0  0  0  0  0  0
   36.1790   29.2430   31.3380 C   0  0  0  0  0  0  0  0  0  0  0  0
   39.1360   23.3420   34.0260 C   0  0  0  0  0  0  0  0  0  0  0  0
   39.7170   23.0060   32.8330 C   0  0  0  0  0  0  0  0  0  0  0  0
   38.9160   23.5260   31.8220 C   0  0  0  0  0  0  0  0  0  0  0  0
   37.8840   24.1560   32.4110 N   0  0  0  0  0  0  0  0  0  0  0  0
   38.0130   24.0480   33.7430 N   0  0  0  0  0  0  0  0  0  0  0  0
   41.1680   22.0380   36.7760 C   0  0  0  0  0  0  0  0  0  0  0  0
   40.4270   22.4560   37.9200 C   0  0  0  0  0  0  0  0  0  0  0  0
   39.2640   23.1650   37.7010 C   0  0  0  0  0  0  0  0  0  0  0  0
   38.8770   23.4330   36.4220 N   0  0  0  0  0  0  0  0  0  0  0  0
   39.6160   23.0150   35.3680 C   0  0  0  0  0  0  0  0  0  0  0  0
   40.7440   22.3270   35.5610 N   0  0  0  0  0  0  0  0  0  0  0  0
   38.5410   23.5700   38.9130 C   0  0  0  0  0  0  0  0  0  0  0  0
   37.8560   24.7360   38.6790 F   0  0  0  0  0  0  0  0  0  0  0  0
   39.4860   23.8720   39.8700 F   0  0  0  0  0  0  0  0  0  0  0  0
   37.6310   22.6280   39.3370 F   0  0  0  0  0  0  0  0  0  0  0  0
   35.5477   23.0758   31.6871 H   0  0  0  0  0  0  0  0  0  0  0  0
   33.7632   24.3851   30.4541 H   0  0  0  0  0  0  0  0  0  0  0  0
   38.1036   30.0946   28.2732 H   0  0  0  0  0  0  0  0  0  0  0  0
   36.6607   32.5917   31.8136 H   0  0  0  0  0  0  0  0  0  0  0  0
   35.3733   32.1161   33.9050 H   0  0  0  0  0  0  0  0  0  0  0  0
   34.6119   29.7606   34.3111 H   0  0  0  0  0  0  0  0  0  0  0  0
   35.1293   28.0124   32.7053 H   0  0  0  0  0  0  0  0  0  0  0  0
   40.6453   22.4313   32.6988 H   0  0  0  0  0  0  0  0  0  0  0  0
   39.0937   23.4382   30.7400 H   0  0  0  0  0  0  0  0  0  0  0  0
   42.1007   21.4700   36.9077 H   0  0  0  0  0  0  0  0  0  0  0  0
   40.7696   22.2220   38.9388 H   0  0  0  0  0  0  0  0  0  0  0  0
  1 20  1  0
  2  1  2  0
  3  2  1  0
  4  5  1  0
  4  3  2  0
  5  6  2  0
  6  1  1  0
  7  5  1  0
  7 16  1  0
  8  7  2  0
  9  8  1  0
  9 10  2  0
 10 11  1  0
 11 16  2  0
 11 12  1  0
 12 13  2  0
 13 14  1  0
 15 14  2  0
 16 15  1  0
 17 26  1  0
 18 17  1  0
 19 20  1  0
 19 18  2  0
 20 21  1  0
 21 17  2  0
 22 23  2  0
 24 23  1  0
 24 28  1  0
 25 24  2  0
 26 27  2  0
 26 25  1  0
 27 22  1  0
 28 31  1  0
 28 30  1  0
 29 28  1  0
  2 32  1  0
  3 33  1  0
  9 34  1  0
 12 35  1  0
 13 36  1  0
 14 37  1  0
 15 38  1  0
 18 39  1  0
 19 40  1  0
 22 41  1  0
 23 42  1  0
M  ISO  8  32  14  33  14  34  14  35  14  36  14  37  14  38  14  39  14
M  ISO  3  40  14  41  14  42  14
M  END
>  <minimizedAffinity>  (1) 
-6.49526405

>  <minimizedRMSD>  (1) 
0.315977931

$$$$
