
     RDKit          3D

 39 43  0  0  0  0  0  0  0  0999 V2000
   41.3630   26.2560   30.1820 C   0  0  0  0  0  0  0  0  0  0  0  0
   42.0150   27.0100   29.1960 C   0  0  0  0  0  0  0  0  0  0  0  0
   41.5310   27.0450   27.8970 C   0  0  0  0  0  0  0  0  0  0  0  0
   40.3960   26.3040   27.6510 C   0  0  0  0  0  0  0  0  0  0  0  0
   39.7520   25.5660   28.6050 C   0  0  0  0  0  0  0  0  0  0  0  0
   40.2410   25.5340   29.9120 C   0  0  0  0  0  0  0  0  0  0  0  0
   39.4940   24.7220   30.8620 C   0  0  0  0  0  0  0  0  0  0  0  0
   38.6030   23.7880   30.5130 N   0  0  0  0  0  0  0  0  0  0  0  0
   38.0820   23.2130   31.5380 O   0  0  0  0  0  0  0  0  0  0  0  0
   38.5920   23.7280   32.6200 C   0  0  0  0  0  0  0  0  0  0  0  0
   39.4670   24.6630   32.2000 N   0  0  0  0  0  0  0  0  0  0  0  0
   38.3350   23.4250   33.9810 N   0  0  0  0  0  0  0  0  0  0  0  0
   38.0840   22.1870   34.4540 C   0  0  0  0  0  0  0  0  0  0  0  0
   37.8780   22.2200   35.7990 N   0  0  0  0  0  0  0  0  0  0  0  0
   37.9970   23.4990   36.1840 C   0  0  0  0  0  0  0  0  0  0  0  0
   37.8880   24.1090   37.4260 C   0  0  0  0  0  0  0  0  0  0  0  0
   37.6310   23.4600   38.4730 O   0  0  0  0  0  0  0  0  0  0  0  0
   38.0560   25.4440   37.5560 N   0  0  0  0  0  0  0  0  0  0  0  0
   38.3290   26.0990   36.4060 C   0  0  0  0  0  0  0  0  0  0  0  0
   38.5130   27.5060   36.5050 N   0  0  0  0  0  0  0  0  0  0  0  0
   38.4500   25.5670   35.1670 N   0  0  0  0  0  0  0  0  0  0  0  0
   38.2810   24.2370   35.0520 C   0  0  0  0  0  0  0  0  0  0  0  0
   43.2480   25.3420   33.2070 C   0  0  0  0  0  0  0  0  0  0  0  0
   42.8310   26.3410   34.1200 C   0  0  0  0  0  0  0  0  0  0  0  0
   41.9070   27.3040   33.6600 C   0  0  0  0  0  0  0  0  0  0  0  0
   41.4970   27.1930   32.3880 N   0  0  0  0  0  0  0  0  0  0  0  0
   41.8960   26.2440   31.5280 C   0  0  0  0  0  0  0  0  0  0  0  0
   42.7670   25.3350   31.9570 N   0  0  0  0  0  0  0  0  0  0  0  0
   42.9196   27.5795   29.4555 H   0  0  0  0  0  0  0  0  0  0  0  0
   42.0251   27.6310   27.1080 H   0  0  0  0  0  0  0  0  0  0  0  0
   39.9851   26.3062   26.6306 H   0  0  0  0  0  0  0  0  0  0  0  0
   38.8479   24.9971   28.3423 H   0  0  0  0  0  0  0  0  0  0  0  0
   38.0504   21.2764   33.8378 H   0  0  0  0  0  0  0  0  0  0  0  0
   37.9815   25.9257   38.4634 H   0  0  0  0  0  0  0  0  0  0  0  0
   38.7234   28.0585   35.6616 H   0  0  0  0  0  0  0  0  0  0  0  0
   38.4358   27.9724   37.4201 H   0  0  0  0  0  0  0  0  0  0  0  0
   43.9667   24.5721   33.5243 H   0  0  0  0  0  0  0  0  0  0  0  0
   43.2135   26.3657   35.1510 H   0  0  0  0  0  0  0  0  0  0  0  0
   41.5402   28.1083   34.3147 H   0  0  0  0  0  0  0  0  0  0  0  0
  1 27  1  0
  2  1  2  0
  3  2  1  0
  4  3  2  0
  4  5  1  0
  5  6  2  0
  6  1  1  0
  6  7  1  0
  7 11  1  0
  8  7  2  0
  8  9  1  0
  9 10  1  0
 10 12  1  0
 11 10  2  0
 12 13  1  0
 12 22  1  0
 13 14  2  0
 14 15  1  0
 15 16  1  0
 16 18  1  0
 16 17  2  0
 19 20  1  0
 19 18  1  0
 21 19  2  0
 22 21  1  0
 22 15  2  0
 23 24  2  0
 25 24  1  0
 26 25  2  0
 27 28  2  0
 27 26  1  0
 28 23  1  0
  2 29  1  0
  3 30  1  0
  4 31  1  0
  5 32  1  0
 13 33  1  0
 18 34  1  0
 20 35  1  0
 20 36  1  0
 23 37  1  0
 24 38  1  0
 25 39  1  0
M  ISO  8  29  14  30  14  31  14  32  14  33  14  34   9  37  14  38  14
M  ISO  1  39  14
M  END
>  <minimizedAffinity>  (1) 
-5.19705343

>  <minimizedRMSD>  (1) 
5.70114756

$$$$
