
     RDKit          3D

 32 35  0  0  0  0  0  0  0  0999 V2000
   39.7830   25.6000   34.3350 C   0  0  0  0  0  0  0  0  0  0  0  0
   40.9590   26.2300   34.7530 C   0  0  0  0  0  0  0  0  0  0  0  0
   41.6120   27.1290   33.9300 C   0  0  0  0  0  0  0  0  0  0  0  0
   41.0250   27.3530   32.6890 C   0  0  0  0  0  0  0  0  0  0  0  0
   39.8740   26.7370   32.2810 C   0  0  0  0  0  0  0  0  0  0  0  0
   39.2170   25.8270   33.1190 C   0  0  0  0  0  0  0  0  0  0  0  0
   38.7580   22.5110   36.0680 C   0  0  0  0  0  0  0  0  0  0  0  0
   37.8300   23.0100   37.0250 C   0  0  0  0  0  0  0  0  0  0  0  0
   37.5860   24.3930   37.0430 C   0  0  0  0  0  0  0  0  0  0  0  0
   38.2530   25.1380   36.1490 N   0  0  0  0  0  0  0  0  0  0  0  0
   39.1370   24.6650   35.2380 C   0  0  0  0  0  0  0  0  0  0  0  0
   39.3650   23.3580   35.2250 N   0  0  0  0  0  0  0  0  0  0  0  0
   37.9980   25.2180   32.6050 C   0  0  0  0  0  0  0  0  0  0  0  0
   36.8260   25.8490   32.5330 N   0  0  0  0  0  0  0  0  0  0  0  0
   35.9070   25.0870   32.0400 O   0  0  0  0  0  0  0  0  0  0  0  0
   36.4200   23.9310   31.7680 C   0  0  0  0  0  0  0  0  0  0  0  0
   37.7120   24.0080   32.1150 N   0  0  0  0  0  0  0  0  0  0  0  0
   35.7350   22.7420   31.1860 C   0  0  0  0  0  0  0  0  0  0  0  0
   36.4000   21.4060   31.2510 C   0  0  0  0  0  0  0  0  0  0  0  0
   35.2780   21.6860   32.1780 C   0  0  0  0  0  0  0  0  0  0  0  0
   41.3699   26.0078   35.7489 H   0  0  0  0  0  0  0  0  0  0  0  0
   42.5385   27.6358   34.2377 H   0  0  0  0  0  0  0  0  0  0  0  0
   41.5108   28.0609   32.0014 H   0  0  0  0  0  0  0  0  0  0  0  0
   39.4606   26.9582   31.2859 H   0  0  0  0  0  0  0  0  0  0  0  0
   38.9763   21.4339   36.0204 H   0  0  0  0  0  0  0  0  0  0  0  0
   37.3204   22.3343   37.7277 H   0  0  0  0  0  0  0  0  0  0  0  0
   36.8810   24.8441   37.7568 H   0  0  0  0  0  0  0  0  0  0  0  0
   35.2843   23.3328   30.3749 H   0  0  0  0  0  0  0  0  0  0  0  0
   36.2633   20.6874   30.4295 H   0  0  0  0  0  0  0  0  0  0  0  0
   37.4392   21.0691   31.3802 H   0  0  0  0  0  0  0  0  0  0  0  0
   35.4714   21.8193   33.2526 H   0  0  0  0  0  0  0  0  0  0  0  0
   34.3199   21.1988   32.4121 H   0  0  0  0  0  0  0  0  0  0  0  0
  1  2  2  0
  1 11  1  0
  3  2  1  0
  4  3  2  0
  5  4  1  0
  5  6  2  0
  6  1  1  0
  7  8  2  0
  8  9  1  0
 10  9  2  0
 11 10  1  0
 12 11  2  0
 12  7  1  0
 13  6  1  0
 14 13  2  0
 15 14  1  0
 16 15  1  0
 16 17  2  0
 17 13  1  0
 18 19  1  0
 18 16  1  0
 18 20  1  0
 19 20  1  0
  2 21  1  0
  3 22  1  0
  4 23  1  0
  5 24  1  0
  7 25  1  0
  8 26  1  0
  9 27  1  0
 18 28  1  0
 19 29  1  0
 19 30  1  0
 20 31  1  0
 20 32  1  0
M  ISO  8  21  14  22  14  23  14  24  14  25  14  26  14  27  14  28  13
M  ISO  4  29  13  30  13  31  13  32  13
M  END
>  <minimizedAffinity>  (1) 
-4.99060106

>  <minimizedRMSD>  (1) 
3.85296988

$$$$
