
     RDKit          3D

 35 37  0  0  0  0  0  0  0  0999 V2000
   38.0140   24.3890   33.7510 C   0  0  0  0  0  0  0  0  0  0  0  0
   37.3880   23.7050   32.7400 C   0  0  0  0  0  0  0  0  0  0  0  0
   36.8820   24.6560   31.8490 C   0  0  0  0  0  0  0  0  0  0  0  0
   37.2040   25.8680   32.3250 N   0  0  0  0  0  0  0  0  0  0  0  0
   37.8860   25.7060   33.4700 N   0  0  0  0  0  0  0  0  0  0  0  0
   36.8720   27.1230   31.7070 C   0  0  0  0  0  0  0  0  0  0  0  0
   35.8880   27.8770   32.2890 C   0  0  0  0  0  0  0  0  0  0  0  0
   35.5980   29.0930   31.6500 C   0  0  0  0  0  0  0  0  0  0  0  0
   36.2640   29.4560   30.5480 N   0  0  0  0  0  0  0  0  0  0  0  0
   37.2220   28.7140   29.9900 C   0  0  0  0  0  0  0  0  0  0  0  0
   37.4950   27.5400   30.6110 N   0  0  0  0  0  0  0  0  0  0  0  0
   37.9260   29.1000   28.8190 N   0  0  0  0  0  0  0  0  0  0  0  0
   37.5920   30.3430   28.2130 C   0  0  0  0  0  0  0  0  0  0  0  0
   36.8960   31.2570   28.8020 N   0  0  0  0  0  0  0  0  0  0  0  0
   38.0980   30.5090   26.8730 N   0  0  0  0  0  0  0  0  0  0  0  0
   36.6470   32.1660   28.3690 H   0  0  0  0  0  0  0  0  0  0  0  0
   40.4210   22.5960   35.8420 C   0  0  0  0  0  0  0  0  0  0  0  0
   39.8980   22.8070   37.1410 C   0  0  0  0  0  0  0  0  0  0  0  0
   38.7360   23.5560   37.2610 C   0  0  0  0  0  0  0  0  0  0  0  0
   38.1600   24.0490   36.1290 N   0  0  0  0  0  0  0  0  0  0  0  0
   38.6910   23.8260   34.9090 C   0  0  0  0  0  0  0  0  0  0  0  0
   39.8200   23.0990   34.7800 N   0  0  0  0  0  0  0  0  0  0  0  0
   38.2360   23.7430   38.6310 C   0  0  0  0  0  0  0  0  0  0  0  0
   37.6980   24.9840   38.7620 F   0  0  0  0  0  0  0  0  0  0  0  0
   39.3390   23.7050   39.4640 F   0  0  0  0  0  0  0  0  0  0  0  0
   37.2820   22.8110   38.9590 F   0  0  0  0  0  0  0  0  0  0  0  0
   37.3005   22.6124   32.6477 H   0  0  0  0  0  0  0  0  0  0  0  0
   36.3217   24.4482   30.9255 H   0  0  0  0  0  0  0  0  0  0  0  0
   35.3597   27.5514   33.1972 H   0  0  0  0  0  0  0  0  0  0  0  0
   34.8176   29.7520   32.0584 H   0  0  0  0  0  0  0  0  0  0  0  0
   38.6586   28.4965   28.4191 H   0  0  0  0  0  0  0  0  0  0  0  0
   38.6500   29.7582   26.4343 H   0  0  0  0  0  0  0  0  0  0  0  0
   37.9074   31.3784   26.3546 H   0  0  0  0  0  0  0  0  0  0  0  0
   41.3403   22.0051   35.7164 H   0  0  0  0  0  0  0  0  0  0  0  0
   40.3976   22.3899   38.0278 H   0  0  0  0  0  0  0  0  0  0  0  0
  1 21  1  0
  2  1  1  0
  3  4  1  0
  3  2  2  0
  4  5  1  0
  5  1  2  0
  6  7  2  0
  6  4  1  0
  8  7  1  0
  9  8  2  0
 10  9  1  0
 10 11  2  0
 11  6  1  0
 12 10  1  0
 13 14  2  0
 13 12  1  0
 15 13  1  0
 16 14  1  0
 17 18  2  0
 18 19  1  0
 19 23  1  0
 20 19  2  0
 21 20  1  0
 22 21  2  0
 22 17  1  0
 23 24  1  0
 23 26  1  0
 23 25  1  0
  2 27  1  0
  3 28  1  0
  7 29  1  0
  8 30  1  0
 12 31  1  0
 15 32  1  0
 15 33  1  0
 17 34  1  0
 18 35  1  0
M  ISO  6  27  14  28  14  29  14  30  14  34  14  35  14
M  END
>  <minimizedAffinity>  (1) 
-6.38953447

>  <minimizedRMSD>  (1) 
2.19780636

$$$$
