
     RDKit          3D

 28 30  0  0  0  0  0  0  0  0999 V2000
   39.3540   23.2770   34.6150 C   0  0  0  0  0  0  0  0  0  0  0  0
   40.4160   23.8910   33.9390 C   0  0  0  0  0  0  0  0  0  0  0  0
   40.5730   23.7500   32.5680 C   0  0  0  0  0  0  0  0  0  0  0  0
   39.6350   22.9830   31.9250 C   0  0  0  0  0  0  0  0  0  0  0  0
   38.5880   22.3750   32.5720 C   0  0  0  0  0  0  0  0  0  0  0  0
   38.4270   22.5150   33.9550 C   0  0  0  0  0  0  0  0  0  0  0  0
   39.7900   22.8890   38.2410 C   0  0  0  0  0  0  0  0  0  0  0  0
   38.9160   23.8610   38.7560 C   0  0  0  0  0  0  0  0  0  0  0  0
   38.1960   24.6300   37.8290 C   0  0  0  0  0  0  0  0  0  0  0  0
   38.3860   24.3890   36.5190 N   0  0  0  0  0  0  0  0  0  0  0  0
   39.2290   23.4500   36.0420 C   0  0  0  0  0  0  0  0  0  0  0  0
   39.9140   22.7190   36.9190 N   0  0  0  0  0  0  0  0  0  0  0  0
   37.2910   21.8370   34.5630 C   0  0  0  0  0  0  0  0  0  0  0  0
   36.4080   21.1020   33.8750 N   0  0  0  0  0  0  0  0  0  0  0  0
   35.4960   20.6090   34.6500 O   0  0  0  0  0  0  0  0  0  0  0  0
   35.7330   20.9930   35.8620 C   0  0  0  0  0  0  0  0  0  0  0  0
   36.8350   21.7470   35.8160 N   0  0  0  0  0  0  0  0  0  0  0  0
   34.9900   20.7050   37.1220 C   0  0  0  0  0  0  0  0  0  0  0  0
   41.1389   24.4962   34.5058 H   0  0  0  0  0  0  0  0  0  0  0  0
   41.4034   24.2267   32.0266 H   0  0  0  0  0  0  0  0  0  0  0  0
   39.7263   22.8485   30.8371 H   0  0  0  0  0  0  0  0  0  0  0  0
   37.8689   21.7722   31.9980 H   0  0  0  0  0  0  0  0  0  0  0  0
   40.3768   22.2630   38.9293 H   0  0  0  0  0  0  0  0  0  0  0  0
   38.8010   24.0127   39.8394 H   0  0  0  0  0  0  0  0  0  0  0  0
   37.4952   25.4088   38.1643 H   0  0  0  0  0  0  0  0  0  0  0  0
   35.6245   20.9510   37.9862 H   0  0  0  0  0  0  0  0  0  0  0  0
   34.0740   21.3132   37.1547 H   0  0  0  0  0  0  0  0  0  0  0  0
   34.7232   19.6383   37.1547 H   0  0  0  0  0  0  0  0  0  0  0  0
  1 11  1  0
  2  1  2  0
  3  2  1  0
  4  3  2  0
  4  5  1  0
  5  6  2  0
  6 13  1  0
  6  1  1  0
  7  8  2  0
  9  8  1  0
 10  9  2  0
 11 10  1  0
 11 12  2  0
 12  7  1  0
 13 17  1  0
 14 13  2  0
 14 15  1  0
 15 16  1  0
 16 18  1  0
 17 16  2  0
  2 19  1  0
  3 20  1  0
  4 21  1  0
  5 22  1  0
  7 23  1  0
  8 24  1  0
  9 25  1  0
 18 26  1  0
 18 27  1  0
 18 28  1  0
M  ISO  8  19  14  20  14  21  14  22  14  23  14  24  14  25  14  26   8
M  ISO  2  27   8  28   8
M  END
>  <minimizedAffinity>  (1) 
-4.14929867

>  <minimizedRMSD>  (1) 
0.607531428

$$$$
