
     RDKit          3D

 38 41  0  0  0  0  0  0  0  0999 V2000
   39.1000   25.8600   34.7480 C   0  0  0  0  0  0  0  0  0  0  0  0
   39.0260   26.9760   35.5810 C   0  0  0  0  0  0  0  0  0  0  0  0
   37.9400   27.8330   35.5450 C   0  0  0  0  0  0  0  0  0  0  0  0
   36.9600   27.5140   34.6490 C   0  0  0  0  0  0  0  0  0  0  0  0
   37.0050   26.4180   33.8090 C   0  0  0  0  0  0  0  0  0  0  0  0
   38.1120   25.5610   33.8610 C   0  0  0  0  0  0  0  0  0  0  0  0
   42.3720   24.2940   34.0870 C   0  0  0  0  0  0  0  0  0  0  0  0
   42.4100   23.2870   35.0530 C   0  0  0  0  0  0  0  0  0  0  0  0
   41.2940   23.1610   35.9290 C   0  0  0  0  0  0  0  0  0  0  0  0
   40.2900   24.0190   35.7610 N   0  0  0  0  0  0  0  0  0  0  0  0
   40.2510   24.9970   34.8230 C   0  0  0  0  0  0  0  0  0  0  0  0
   41.3030   25.1020   34.0100 N   0  0  0  0  0  0  0  0  0  0  0  0
   41.2970   22.1620   36.9110 N   0  0  0  0  0  0  0  0  0  0  0  0
   42.3510   21.2240   37.1250 C   0  0  0  0  0  0  0  0  0  0  0  0
   43.4110   21.3750   36.3680 N   0  0  0  0  0  0  0  0  0  0  0  0
   42.2260   20.1870   38.1180 N   0  0  0  0  0  0  0  0  0  0  0  0
   44.1710   20.6670   36.5490 H   0  0  0  0  0  0  0  0  0  0  0  0
   38.0880   24.4190   32.9420 C   0  0  0  0  0  0  0  0  0  0  0  0
   38.5530   24.4610   31.6920 N   0  0  0  0  0  0  0  0  0  0  0  0
   38.4090   23.3170   31.1030 O   0  0  0  0  0  0  0  0  0  0  0  0
   37.8520   22.4850   31.9280 C   0  0  0  0  0  0  0  0  0  0  0  0
   37.6520   23.1590   33.0620 N   0  0  0  0  0  0  0  0  0  0  0  0
   37.5440   21.1350   31.6140 N   0  0  0  0  0  0  0  0  0  0  0  0
   38.0330   19.9060   31.8160 C   0  0  0  0  0  0  0  0  0  0  0  0
   37.2240   19.0120   31.2240 N   0  0  0  0  0  0  0  0  0  0  0  0
   36.2230   19.6860   30.6470 C   0  0  0  0  0  0  0  0  0  0  0  0
   36.4350   20.9910   30.8950 N   0  0  0  0  0  0  0  0  0  0  0  0
   39.8489   27.1795   36.2820 H   0  0  0  0  0  0  0  0  0  0  0  0
   37.8705   28.7160   36.1973 H   0  0  0  0  0  0  0  0  0  0  0  0
   36.0795   28.1709   34.5925 H   0  0  0  0  0  0  0  0  0  0  0  0
   36.1811   26.2206   33.1074 H   0  0  0  0  0  0  0  0  0  0  0  0
   43.2145   24.4248   33.3919 H   0  0  0  0  0  0  0  0  0  0  0  0
   43.2747   22.6120   35.1351 H   0  0  0  0  0  0  0  0  0  0  0  0
   40.4738   22.0996   37.5270 H   0  0  0  0  0  0  0  0  0  0  0  0
   42.9945   19.5166   38.2620 H   0  0  0  0  0  0  0  0  0  0  0  0
   41.3681   20.1163   38.6836 H   0  0  0  0  0  0  0  0  0  0  0  0
   38.9490   19.6666   32.3761 H   0  0  0  0  0  0  0  0  0  0  0  0
   35.3859   19.2552   30.0781 H   0  0  0  0  0  0  0  0  0  0  0  0
  1 11  1  0
  1  2  2  0
  3  2  1  0
  4  3  2  0
  5  6  2  0
  5  4  1  0
  6  1  1  0
  7  8  2  0
  8  9  1  0
  9 13  1  0
 10  9  2  0
 11 10  1  0
 12  7  1  0
 12 11  2  0
 13 14  1  0
 14 16  1  0
 15 17  1  0
 15 14  2  0
 18 22  1  0
 18  6  1  0
 19 18  2  0
 20 19  1  0
 20 21  1  0
 21 22  2  0
 23 24  1  0
 23 21  1  0
 25 24  2  0
 26 27  2  0
 26 25  1  0
 27 23  1  0
  2 28  1  0
  3 29  1  0
  4 30  1  0
  5 31  1  0
  7 32  1  0
  8 33  1  0
 13 34  1  0
 16 35  1  0
 16 36  1  0
 24 37  1  0
 26 38  1  0
M  ISO  8  28  14  29  14  30  14  31  14  32  14  33  14  37  14  38  14
M  END
>  <minimizedAffinity>  (1) 
-6.07909346

>  <minimizedRMSD>  (1) 
3.83963919

$$$$
