
     RDKit          3D

 34 37  0  0  0  0  0  0  0  0999 V2000
   38.9250   25.9150   34.8730 C   0  0  0  0  0  0  0  0  0  0  0  0
   38.8190   27.0560   35.6860 C   0  0  0  0  0  0  0  0  0  0  0  0
   37.7890   27.9730   35.5130 C   0  0  0  0  0  0  0  0  0  0  0  0
   36.9080   27.6810   34.5100 C   0  0  0  0  0  0  0  0  0  0  0  0
   36.9940   26.5710   33.7030 C   0  0  0  0  0  0  0  0  0  0  0  0
   38.0370   25.6570   33.8900 C   0  0  0  0  0  0  0  0  0  0  0  0
   38.0560   24.5020   32.9890 C   0  0  0  0  0  0  0  0  0  0  0  0
   38.6160   24.5010   31.7840 N   0  0  0  0  0  0  0  0  0  0  0  0
   38.4850   23.3470   31.2060 O   0  0  0  0  0  0  0  0  0  0  0  0
   37.8430   22.5540   31.9980 C   0  0  0  0  0  0  0  0  0  0  0  0
   37.5690   23.2480   33.1030 N   0  0  0  0  0  0  0  0  0  0  0  0
   37.5130   21.1990   31.6980 N   0  0  0  0  0  0  0  0  0  0  0  0
   37.9500   19.9580   31.9760 C   0  0  0  0  0  0  0  0  0  0  0  0
   37.1490   19.0710   31.3440 N   0  0  0  0  0  0  0  0  0  0  0  0
   36.2220   19.7620   30.6790 C   0  0  0  0  0  0  0  0  0  0  0  0
   36.4580   21.0600   30.9050 N   0  0  0  0  0  0  0  0  0  0  0  0
   42.1390   24.1380   34.5940 C   0  0  0  0  0  0  0  0  0  0  0  0
   42.0310   23.1860   35.6120 C   0  0  0  0  0  0  0  0  0  0  0  0
   40.8440   23.1740   36.3810 C   0  0  0  0  0  0  0  0  0  0  0  0
   39.9030   24.0680   36.0900 N   0  0  0  0  0  0  0  0  0  0  0  0
   40.0090   25.0000   35.0940 C   0  0  0  0  0  0  0  0  0  0  0  0
   41.1370   24.9980   34.3760 N   0  0  0  0  0  0  0  0  0  0  0  0
   40.7050   22.1950   37.4450 C   0  0  0  0  0  0  0  0  0  0  0  0
   41.5350   21.2530   37.5320 O   0  0  0  0  0  0  0  0  0  0  0  0
   39.6460   22.3500   38.3290 O   0  0  0  0  0  0  0  0  0  0  0  0
   39.5661   27.2269   36.4751 H   0  0  0  0  0  0  0  0  0  0  0  0
   37.6899   28.8714   36.1399 H   0  0  0  0  0  0  0  0  0  0  0  0
   36.0759   28.3794   34.3370 H   0  0  0  0  0  0  0  0  0  0  0  0
   36.2463   26.4023   32.9140 H   0  0  0  0  0  0  0  0  0  0  0  0
   38.8130   19.7071   32.6102 H   0  0  0  0  0  0  0  0  0  0  0  0
   35.4145   19.3434   30.0604 H   0  0  0  0  0  0  0  0  0  0  0  0
   43.0461   24.1802   33.9732 H   0  0  0  0  0  0  0  0  0  0  0  0
   42.8425   22.4698   35.8085 H   0  0  0  0  0  0  0  0  0  0  0  0
   39.5186   21.7027   39.0671 H   0  0  0  0  0  0  0  0  0  0  0  0
  1 21  1  0
  1  2  2  0
  3  2  1  0
  4  3  2  0
  5  6  2  0
  5  4  1  0
  6  1  1  0
  7 11  1  0
  7  6  1  0
  8  7  2  0
  9  8  1  0
  9 10  1  0
 10 11  2  0
 12 13  1  0
 12 10  1  0
 14 13  2  0
 15 16  2  0
 15 14  1  0
 16 12  1  0
 17 18  2  0
 18 19  1  0
 19 23  1  0
 20 19  2  0
 21 20  1  0
 22 17  1  0
 22 21  2  0
 23 24  2  0
 23 25  1  0
  2 26  1  0
  3 27  1  0
  4 28  1  0
  5 29  1  0
 13 30  1  0
 15 31  1  0
 17 32  1  0
 18 33  1  0
 25 34  1  0
M  ISO  8  26  14  27  14  28  14  29  14  30  14  31  14  32  14  33  14
M  ISO  1  34   3
M  END
>  <minimizedAffinity>  (1) 
-5.97226286

>  <minimizedRMSD>  (1) 
3.06341982

$$$$
