
     RDKit          3D

 34 37  0  0  0  0  0  0  0  0999 V2000
   39.9740   25.0450   34.4620 C   0  0  0  0  0  0  0  0  0  0  0  0
   40.4350   26.3660   34.5360 C   0  0  0  0  0  0  0  0  0  0  0  0
   40.3370   27.2290   33.4530 C   0  0  0  0  0  0  0  0  0  0  0  0
   39.7650   26.6980   32.3230 C   0  0  0  0  0  0  0  0  0  0  0  0
   39.3060   25.4020   32.2270 C   0  0  0  0  0  0  0  0  0  0  0  0
   39.4140   24.5470   33.3350 C   0  0  0  0  0  0  0  0  0  0  0  0
   38.9040   23.1950   33.1510 C   0  0  0  0  0  0  0  0  0  0  0  0
   39.6660   22.0940   33.1090 N   0  0  0  0  0  0  0  0  0  0  0  0
   38.9490   21.0280   32.9340 O   0  0  0  0  0  0  0  0  0  0  0  0
   37.7180   21.3610   32.8550 C   0  0  0  0  0  0  0  0  0  0  0  0
   37.6580   22.7000   32.9850 N   0  0  0  0  0  0  0  0  0  0  0  0
   36.6370   20.4520   32.6620 N   0  0  0  0  0  0  0  0  0  0  0  0
   35.6720   19.8440   33.3650 C   0  0  0  0  0  0  0  0  0  0  0  0
   34.9390   19.0700   32.5530 N   0  0  0  0  0  0  0  0  0  0  0  0
   35.4500   19.1930   31.3210 C   0  0  0  0  0  0  0  0  0  0  0  0
   36.4910   20.0450   31.4080 N   0  0  0  0  0  0  0  0  0  0  0  0
   41.2770   22.7040   36.9790 C   0  0  0  0  0  0  0  0  0  0  0  0
   40.2040   22.5860   37.8620 C   0  0  0  0  0  0  0  0  0  0  0  0
   39.0320   23.3250   37.5700 C   0  0  0  0  0  0  0  0  0  0  0  0
   39.0450   24.0810   36.4700 N   0  0  0  0  0  0  0  0  0  0  0  0
   40.0990   24.1880   35.6180 C   0  0  0  0  0  0  0  0  0  0  0  0
   41.1910   23.4900   35.9010 N   0  0  0  0  0  0  0  0  0  0  0  0
   37.7980   23.3140   38.4050 C   0  0  0  0  0  0  0  0  0  0  0  0
   40.8844   26.7272   35.4728 H   0  0  0  0  0  0  0  0  0  0  0  0
   40.6937   28.2686   33.4970 H   0  0  0  0  0  0  0  0  0  0  0  0
   39.6672   27.3470   31.4402 H   0  0  0  0  0  0  0  0  0  0  0  0
   38.8585   25.0405   31.2894 H   0  0  0  0  0  0  0  0  0  0  0  0
   35.5064   19.9624   34.4460 H   0  0  0  0  0  0  0  0  0  0  0  0
   35.0885   18.6932   30.4102 H   0  0  0  0  0  0  0  0  0  0  0  0
   42.2042   22.1443   37.1716 H   0  0  0  0  0  0  0  0  0  0  0  0
   40.2658   21.9428   38.7522 H   0  0  0  0  0  0  0  0  0  0  0  0
   38.0755   23.3165   39.4694 H   0  0  0  0  0  0  0  0  0  0  0  0
   37.1957   24.2068   38.1810 H   0  0  0  0  0  0  0  0  0  0  0  0
   37.2118   22.4106   38.1810 H   0  0  0  0  0  0  0  0  0  0  0  0
  1  2  2  0
  1 21  1  0
  3  2  1  0
  4  3  2  0
  5  4  1  0
  5  6  2  0
  6  1  1  0
  7  6  1  0
  8  7  2  0
  9  8  1  0
 10  9  1  0
 10 11  2  0
 11  7  1  0
 12 10  1  0
 12 13  1  0
 14 13  2  0
 15 16  2  0
 15 14  1  0
 16 12  1  0
 17 18  2  0
 19 18  1  0
 19 23  1  0
 20 19  2  0
 21 22  2  0
 21 20  1  0
 22 17  1  0
  2 24  1  0
  3 25  1  0
  4 26  1  0
  5 27  1  0
 13 28  1  0
 15 29  1  0
 17 30  1  0
 18 31  1  0
 23 32  1  0
 23 33  1  0
 23 34  1  0
M  ISO  8  24  14  25  14  26  14  27  14  28  14  29  14  30  14  31  14
M  ISO  3  32   8  33   8  34   8
M  END
>  <minimizedAffinity>  (1) 
-5.23968458

>  <minimizedRMSD>  (1) 
0.852994621

$$$$
