
     RDKit          3D

 41 44  0  0  0  0  0  0  0  0999 V2000
   38.9640   23.1830   34.0290 C   0  0  0  0  0  0  0  0  0  0  0  0
   39.3720   22.6060   32.8360 C   0  0  0  0  0  0  0  0  0  0  0  0
   38.5900   23.1630   31.8180 C   0  0  0  0  0  0  0  0  0  0  0  0
   37.7520   24.0380   32.3950 N   0  0  0  0  0  0  0  0  0  0  0  0
   37.9760   24.0500   33.7260 N   0  0  0  0  0  0  0  0  0  0  0  0
   36.7670   24.8360   31.6980 C   0  0  0  0  0  0  0  0  0  0  0  0
   35.6010   24.2260   31.3110 C   0  0  0  0  0  0  0  0  0  0  0  0
   34.6860   25.0430   30.6420 C   0  0  0  0  0  0  0  0  0  0  0  0
   34.9510   26.3140   30.4130 N   0  0  0  0  0  0  0  0  0  0  0  0
   36.0980   26.9170   30.7930 C   0  0  0  0  0  0  0  0  0  0  0  0
   37.0000   26.1280   31.4470 N   0  0  0  0  0  0  0  0  0  0  0  0
   36.4630   28.2780   30.5840 N   0  0  0  0  0  0  0  0  0  0  0  0
   37.1000   28.5720   29.4570 C   0  0  0  0  0  0  0  0  0  0  0  0
   37.4570   29.9100   29.2540 C   0  0  0  0  0  0  0  0  0  0  0  0
   38.1790   30.3740   28.0230 C   0  0  0  0  0  0  0  0  0  0  0  0
   37.1390   30.8490   30.2180 C   0  0  0  0  0  0  0  0  0  0  0  0
   37.4200   32.0850   30.1250 O   0  0  0  0  0  0  0  0  0  0  0  0
   36.4910   30.4920   31.3440 N   0  0  0  0  0  0  0  0  0  0  0  0
   36.1500   29.2030   31.5340 C   0  0  0  0  0  0  0  0  0  0  0  0
   35.5380   28.7770   32.5660 O   0  0  0  0  0  0  0  0  0  0  0  0
   41.1060   21.9920   36.7450 C   0  0  0  0  0  0  0  0  0  0  0  0
   40.4030   22.4410   37.8860 C   0  0  0  0  0  0  0  0  0  0  0  0
   39.2260   23.1310   37.6870 C   0  0  0  0  0  0  0  0  0  0  0  0
   38.7940   23.3510   36.4140 N   0  0  0  0  0  0  0  0  0  0  0  0
   39.5030   22.9010   35.3480 C   0  0  0  0  0  0  0  0  0  0  0  0
   40.6430   22.2330   35.5210 N   0  0  0  0  0  0  0  0  0  0  0  0
   38.5330   23.5730   38.9080 C   0  0  0  0  0  0  0  0  0  0  0  0
   37.8750   24.7580   38.6700 F   0  0  0  0  0  0  0  0  0  0  0  0
   39.5140   23.8690   39.8370 F   0  0  0  0  0  0  0  0  0  0  0  0
   37.6150   22.6600   39.3580 F   0  0  0  0  0  0  0  0  0  0  0  0
   40.1627   21.8513   32.7128 H   0  0  0  0  0  0  0  0  0  0  0  0
   38.6508   22.9276   30.7452 H   0  0  0  0  0  0  0  0  0  0  0  0
   35.3996   23.1638   31.5139 H   0  0  0  0  0  0  0  0  0  0  0  0
   33.7299   24.6192   30.3011 H   0  0  0  0  0  0  0  0  0  0  0  0
   37.3373   27.7965   28.7138 H   0  0  0  0  0  0  0  0  0  0  0  0
   39.0711   30.9473   28.3153 H   0  0  0  0  0  0  0  0  0  0  0  0
   38.4831   29.5018   27.4257 H   0  0  0  0  0  0  0  0  0  0  0  0
   37.5120   31.0130   27.4257 H   0  0  0  0  0  0  0  0  0  0  0  0
   36.2580   31.2001   32.0547 H   0  0  0  0  0  0  0  0  0  0  0  0
   42.0472   21.4366   36.8703 H   0  0  0  0  0  0  0  0  0  0  0  0
   40.7826   22.2463   38.8999 H   0  0  0  0  0  0  0  0  0  0  0  0
  1 25  1  0
  2  1  1  0
  3  4  1  0
  3  2  2  0
  4  5  1  0
  5  1  2  0
  6  4  1  0
  7  6  2  0
  8  7  1  0
  9  8  2  0
  9 10  1  0
 10 11  2  0
 11  6  1  0
 12 10  1  0
 12 19  1  0
 13 12  1  0
 14 13  2  0
 14 16  1  0
 15 14  1  0
 16 18  1  0
 17 16  2  0
 18 19  1  0
 19 20  2  0
 21 22  2  0
 23 22  1  0
 23 27  1  0
 24 23  2  0
 25 26  2  0
 25 24  1  0
 26 21  1  0
 27 30  1  0
 27 29  1  0
 28 27  1  0
  2 31  1  0
  3 32  1  0
  7 33  1  0
  8 34  1  0
 13 35  1  0
 15 36  1  0
 15 37  1  0
 15 38  1  0
 18 39  1  0
 21 40  1  0
 22 41  1  0
M  ISO  8  31  14  32  14  33  14  34  14  35  14  36   8  37   8  38   8
M  ISO  3  39   9  40  14  41  14
M  END
>  <minimizedAffinity>  (1) 
-6.36351681

>  <minimizedRMSD>  (1) 
0.105359428

$$$$
