
     RDKit          3D

 24 26  0  0  0  0  0  0  0  0999 V2000
   37.4040   22.4390   36.0670 C   0  0  0  0  0  0  0  0  0  0  0  0
   36.3510   21.8580   36.8100 C   0  0  0  0  0  0  0  0  0  0  0  0
   35.5450   20.9420   36.1540 C   0  0  0  0  0  0  0  0  0  0  0  0
   35.7900   20.6440   34.8600 N   0  0  0  0  0  0  0  0  0  0  0  0
   36.8140   21.2220   34.1760 C   0  0  0  0  0  0  0  0  0  0  0  0
   37.6200   22.1180   34.7780 N   0  0  0  0  0  0  0  0  0  0  0  0
   37.0660   20.8980   32.8000 N   0  0  0  0  0  0  0  0  0  0  0  0
   37.6660   21.7900   31.9820 C   0  0  0  0  0  0  0  0  0  0  0  0
   37.7800   21.2440   30.7650 N   0  0  0  0  0  0  0  0  0  0  0  0
   37.2460   19.9890   30.8130 C   0  0  0  0  0  0  0  0  0  0  0  0
   37.1170   19.0300   29.8540 C   0  0  0  0  0  0  0  0  0  0  0  0
   36.5370   17.8840   30.2240 N   0  0  0  0  0  0  0  0  0  0  0  0
   36.1060   17.7020   31.4900 C   0  0  0  0  0  0  0  0  0  0  0  0
   36.2320   18.6570   32.4540 N   0  0  0  0  0  0  0  0  0  0  0  0
   36.8050   19.8000   32.1050 C   0  0  0  0  0  0  0  0  0  0  0  0
   37.6000   19.3100   28.5510 N   0  0  0  0  0  0  0  0  0  0  0  0
   38.5550   23.6460   36.7430 S   0  0  0  0  0  0  0  0  0  0  0  0
   36.1790   22.1220   37.8639 H   0  0  0  0  0  0  0  0  0  0  0  0
   34.7103   20.4602   36.6842 H   0  0  0  0  0  0  0  0  0  0  0  0
   38.0044   22.7968   32.2681 H   0  0  0  0  0  0  0  0  0  0  0  0
   35.6340   16.7442   31.7543 H   0  0  0  0  0  0  0  0  0  0  0  0
   38.0355   20.2211   28.3479 H   0  0  0  0  0  0  0  0  0  0  0  0
   37.5155   18.6024   27.8073 H   0  0  0  0  0  0  0  0  0  0  0  0
   38.5122   23.6012   38.1116 H   0  0  0  0  0  0  0  0  0  0  0  0
  1 17  1  0
  1  2  2  0
  3  2  1  0
  4  3  2  0
  5  6  2  0
  5  4  1  0
  6  1  1  0
  7  5  1  0
  8  7  1  0
  9 10  1  0
  9  8  2  0
 10 15  2  0
 11 12  2  0
 11 10  1  0
 12 13  1  0
 13 14  2  0
 15 14  1  0
 15  7  1  0
 16 11  1  0
  2 18  1  0
  3 19  1  0
  8 20  1  0
 13 21  1  0
 16 22  1  0
 16 23  1  0
 17 24  1  0
M  ISO  5  18  14  19  14  20  14  21  14  24  11
M  END
>  <minimizedAffinity>  (1) 
-3.65194845

>  <minimizedRMSD>  (1) 
2.38507199

$$$$
