
     RDKit          3D

 25 27  0  0  0  0  0  0  0  0999 V2000
   37.6360   22.6010   34.3340 C   0  0  0  0  0  0  0  0  0  0  0  0
   36.9940   21.4460   33.9870 N   0  0  0  0  0  0  0  0  0  0  0  0
   36.5140   21.2200   32.7610 C   0  0  0  0  0  0  0  0  0  0  0  0
   36.6220   22.1130   31.7640 N   0  0  0  0  0  0  0  0  0  0  0  0
   37.2480   23.3000   32.0100 C   0  0  0  0  0  0  0  0  0  0  0  0
   37.3670   24.2150   31.0170 C   0  0  0  0  0  0  0  0  0  0  0  0
   37.9940   25.4240   31.2310 C   0  0  0  0  0  0  0  0  0  0  0  0
   38.4910   25.6460   32.5180 C   0  0  0  0  0  0  0  0  0  0  0  0
   38.3430   24.6840   33.4880 C   0  0  0  0  0  0  0  0  0  0  0  0
   37.7220   23.4800   33.2840 C   0  0  0  0  0  0  0  0  0  0  0  0
   39.9990   22.3630   37.0480 C   0  0  0  0  0  0  0  0  0  0  0  0
   39.4280   23.0400   38.1370 C   0  0  0  0  0  0  0  0  0  0  0  0
   38.1890   23.5980   37.9280 C   0  0  0  0  0  0  0  0  0  0  0  0
   37.6050   23.4700   36.7290 N   0  0  0  0  0  0  0  0  0  0  0  0
   38.1530   22.8200   35.6890 C   0  0  0  0  0  0  0  0  0  0  0  0
   39.3470   22.2890   35.9050 N   0  0  0  0  0  0  0  0  0  0  0  0
   41.6130   21.5600   37.1020 S   0  0  0  0  0  0  0  0  0  0  0  0
   36.0097   20.2633   32.5600 H   0  0  0  0  0  0  0  0  0  0  0  0
   36.9557   23.9887   30.0222 H   0  0  0  0  0  0  0  0  0  0  0  0
   38.0974   26.1731   30.4322 H   0  0  0  0  0  0  0  0  0  0  0  0
   39.0010   26.5914   32.7548 H   0  0  0  0  0  0  0  0  0  0  0  0
   38.7478   24.8934   34.4892 H   0  0  0  0  0  0  0  0  0  0  0  0
   39.9439   23.1198   39.1052 H   0  0  0  0  0  0  0  0  0  0  0  0
   37.6822   24.1442   38.7372 H   0  0  0  0  0  0  0  0  0  0  0  0
   41.9870   21.3739   38.4067 H   0  0  0  0  0  0  0  0  0  0  0  0
  1 15  1  0
  2  1  2  0
  3  2  1  0
  4  5  1  0
  4  3  2  0
  5 10  2  0
  6  7  2  0
  6  5  1  0
  7  8  1  0
  8  9  2  0
 10  9  1  0
 10  1  1  0
 11 17  1  0
 11 12  2  0
 13 12  1  0
 14 13  2  0
 15 16  2  0
 15 14  1  0
 16 11  1  0
  3 18  1  0
  6 19  1  0
  7 20  1  0
  8 21  1  0
  9 22  1  0
 12 23  1  0
 13 24  1  0
 17 25  1  0
M  ISO  8  18  14  19  14  20  14  21  14  22  14  23  14  24  14  25  11
M  END
>  <minimizedAffinity>  (1) 
-4.48146391

>  <minimizedRMSD>  (1) 
4.09500647

$$$$
