
     RDKit          3D

 27 29  0  0  0  0  0  0  0  0999 V2000
   36.0780   21.1580   35.6380 C   0  0  0  0  0  0  0  0  0  0  0  0
   35.6100   20.6090   34.4310 C   0  0  0  0  0  0  0  0  0  0  0  0
   36.3770   20.8460   33.3090 C   0  0  0  0  0  0  0  0  0  0  0  0
   37.4980   21.5690   33.4360 N   0  0  0  0  0  0  0  0  0  0  0  0
   37.9480   22.0950   34.5840 C   0  0  0  0  0  0  0  0  0  0  0  0
   37.1970   21.8550   35.6470 N   0  0  0  0  0  0  0  0  0  0  0  0
   39.1410   22.8930   34.8450 C   0  0  0  0  0  0  0  0  0  0  0  0
   40.3600   22.2940   35.1990 C   0  0  0  0  0  0  0  0  0  0  0  0
   41.5090   22.9940   35.4550 C   0  0  0  0  0  0  0  0  0  0  0  0
   41.5120   24.3660   35.3710 C   0  0  0  0  0  0  0  0  0  0  0  0
   40.3480   25.0130   35.0290 C   0  0  0  0  0  0  0  0  0  0  0  0
   40.3750   26.3850   34.9520 C   0  0  0  0  0  0  0  0  0  0  0  0
   39.2440   27.0970   34.6140 C   0  0  0  0  0  0  0  0  0  0  0  0
   38.0930   26.3410   34.3620 C   0  0  0  0  0  0  0  0  0  0  0  0
   38.1140   24.9690   34.4510 C   0  0  0  0  0  0  0  0  0  0  0  0
   39.2240   24.2610   34.7830 C   0  0  0  0  0  0  0  0  0  0  0  0
   35.2140   20.9550   37.2020 S   0  0  0  0  0  0  0  0  0  0  0  0
   34.6812   20.0215   34.3839 H   0  0  0  0  0  0  0  0  0  0  0  0
   36.0741   20.4490   32.3289 H   0  0  0  0  0  0  0  0  0  0  0  0
   40.3945   21.1972   35.2754 H   0  0  0  0  0  0  0  0  0  0  0  0
   42.4300   22.4580   35.7280 H   0  0  0  0  0  0  0  0  0  0  0  0
   42.4302   24.9367   35.5740 H   0  0  0  0  0  0  0  0  0  0  0  0
   41.3115   26.9221   35.1629 H   0  0  0  0  0  0  0  0  0  0  0  0
   39.2458   28.1949   34.5463 H   0  0  0  0  0  0  0  0  0  0  0  0
   37.1580   26.8521   34.0888 H   0  0  0  0  0  0  0  0  0  0  0  0
   37.1853   24.4175   34.2429 H   0  0  0  0  0  0  0  0  0  0  0  0
   36.0882   21.1604   38.2367 H   0  0  0  0  0  0  0  0  0  0  0  0
  1  6  2  0
  1 17  1  0
  2  1  1  0
  3  4  1  0
  3  2  2  0
  4  5  2  0
  5  7  1  0
  5  6  1  0
  7  8  2  0
  8  9  1  0
 10  9  2  0
 11 10  1  0
 12 11  2  0
 13 12  1  0
 14 15  1  0
 14 13  2  0
 15 16  2  0
 16  7  1  0
 16 11  1  0
  2 18  1  0
  3 19  1  0
  8 20  1  0
  9 21  1  0
 10 22  1  0
 12 23  1  0
 13 24  1  0
 14 25  1  0
 15 26  1  0
 17 27  1  0
M  ISO  8  18  14  19  14  20  14  21  14  22  14  23  14  24  14  25  14
M  ISO  2  26  14  27  11
M  END
>  <minimizedAffinity>  (1) 
-4.47786331

>  <minimizedRMSD>  (1) 
4.799263

$$$$
