
     RDKit          3D

 27 28  0  0  0  0  0  0  0  0999 V2000
   37.5570   22.0520   35.5960 C   0  0  0  0  0  0  0  0  0  0  0  0
   36.4640   21.4620   36.3060 C   0  0  0  0  0  0  0  0  0  0  0  0
   35.5290   20.7690   35.5260 C   0  0  0  0  0  0  0  0  0  0  0  0
   35.7060   20.6960   34.1820 N   0  0  0  0  0  0  0  0  0  0  0  0
   36.7620   21.2760   33.5660 C   0  0  0  0  0  0  0  0  0  0  0  0
   37.6720   21.9440   34.2770 N   0  0  0  0  0  0  0  0  0  0  0  0
   36.8760   21.1470   32.0870 C   0  0  0  0  0  0  0  0  0  0  0  0
   38.3190   21.0620   31.6550 C   0  0  0  0  0  0  0  0  0  0  0  0
   38.2710   21.0210   30.1390 C   0  0  0  0  0  0  0  0  0  0  0  0
   37.7360   19.6370   29.8030 C   0  0  0  0  0  0  0  0  0  0  0  0
   36.3360   19.4800   30.2780 C   0  0  0  0  0  0  0  0  0  0  0  0
   36.0370   20.0120   31.6400 C   0  0  0  0  0  0  0  0  0  0  0  0
   38.8570   22.9800   36.4230 S   0  0  0  0  0  0  0  0  0  0  0  0
   36.3638   21.5473   37.3981 H   0  0  0  0  0  0  0  0  0  0  0  0
   34.6595   20.2885   35.9983 H   0  0  0  0  0  0  0  0  0  0  0  0
   36.4918   22.0501   31.5902 H   0  0  0  0  0  0  0  0  0  0  0  0
   38.8790   21.9434   32.0008 H   0  0  0  0  0  0  0  0  0  0  0  0
   38.8265   20.1821   32.0771 H   0  0  0  0  0  0  0  0  0  0  0  0
   37.5986   21.8007   29.7516 H   0  0  0  0  0  0  0  0  0  0  0  0
   39.2571   21.2052   29.6878 H   0  0  0  0  0  0  0  0  0  0  0  0
   37.7645   19.4948   28.7126 H   0  0  0  0  0  0  0  0  0  0  0  0
   38.3638   18.8860   30.3048 H   0  0  0  0  0  0  0  0  0  0  0  0
   35.6795   19.9987   29.5639 H   0  0  0  0  0  0  0  0  0  0  0  0
   36.1680   18.3949   30.3432 H   0  0  0  0  0  0  0  0  0  0  0  0
   34.9881   20.3431   31.6502 H   0  0  0  0  0  0  0  0  0  0  0  0
   36.2530   19.1884   32.3364 H   0  0  0  0  0  0  0  0  0  0  0  0
   38.7037   22.8706   37.7800 H   0  0  0  0  0  0  0  0  0  0  0  0
  1  2  2  0
  1 13  1  0
  3  2  1  0
  4  3  2  0
  5  4  1  0
  5  6  2  0
  6  1  1  0
  7  5  1  0
  8  7  1  0
  9  8  1  0
 10  9  1  0
 10 11  1  0
 11 12  1  0
 12  7  1  0
  2 14  1  0
  3 15  1  0
  7 16  1  0
  8 17  1  0
  8 18  1  0
  9 19  1  0
  9 20  1  0
 10 21  1  0
 10 22  1  0
 11 23  1  0
 11 24  1  0
 12 25  1  0
 12 26  1  0
 13 27  1  0
M  ISO  8  14  14  15  14  16  13  17  13  18  13  19  13  20  13  21  13
M  ISO  6  22  13  23  13  24  13  25  13  26  13  27  11
M  END
>  <minimizedAffinity>  (1) 
-3.31917977

>  <minimizedRMSD>  (1) 
1.62816477

$$$$
