
     RDKit          3D

 25 26  0  0  0  0  0  0  0  0999 V2000
   37.5620   22.1710   35.8310 C   0  0  0  0  0  0  0  0  0  0  0  0
   36.5220   21.7440   36.7150 C   0  0  0  0  0  0  0  0  0  0  0  0
   35.5050   20.9850   36.1490 C   0  0  0  0  0  0  0  0  0  0  0  0
   35.5390   20.6920   34.8300 N   0  0  0  0  0  0  0  0  0  0  0  0
   36.5480   21.1200   34.0330 C   0  0  0  0  0  0  0  0  0  0  0  0
   37.5430   21.8510   34.5420 N   0  0  0  0  0  0  0  0  0  0  0  0
   36.5040   20.7630   32.6580 N   0  0  0  0  0  0  0  0  0  0  0  0
   36.4980   19.3980   32.2350 C   0  0  0  0  0  0  0  0  0  0  0  0
   36.2260   19.3730   30.7620 C   0  0  0  0  0  0  0  0  0  0  0  0
   37.2580   20.1030   30.0510 N   0  0  0  0  0  0  0  0  0  0  0  0
   37.5620   21.3870   30.6310 C   0  0  0  0  0  0  0  0  0  0  0  0
   36.4630   21.7790   31.6230 C   0  0  0  0  0  0  0  0  0  0  0  0
   38.9490   23.1530   36.3880 S   0  0  0  0  0  0  0  0  0  0  0  0
   36.5269   22.0022   37.7842 H   0  0  0  0  0  0  0  0  0  0  0  0
   34.6743   20.6235   36.7729 H   0  0  0  0  0  0  0  0  0  0  0  0
   37.4756   18.9383   32.4423 H   0  0  0  0  0  0  0  0  0  0  0  0
   35.7254   18.8326   32.7767 H   0  0  0  0  0  0  0  0  0  0  0  0
   36.2119   18.3301   30.4125 H   0  0  0  0  0  0  0  0  0  0  0  0
   35.2522   19.8465   30.5681 H   0  0  0  0  0  0  0  0  0  0  0  0
   36.9431   20.2503   29.0814 H   0  0  0  0  0  0  0  0  0  0  0  0
   38.5265   21.3314   31.1571 H   0  0  0  0  0  0  0  0  0  0  0  0
   37.6190   22.1425   29.8335 H   0  0  0  0  0  0  0  0  0  0  0  0
   36.6651   22.7725   32.0497 H   0  0  0  0  0  0  0  0  0  0  0  0
   35.4757   21.8353   31.1413 H   0  0  0  0  0  0  0  0  0  0  0  0
   38.9748   23.1713   37.7576 H   0  0  0  0  0  0  0  0  0  0  0  0
  1 13  1  0
  1  2  2  0
  3  2  1  0
  4  3  2  0
  5  6  2  0
  5  4  1  0
  6  1  1  0
  7  5  1  0
  8  7  1  0
  9  8  1  0
 10 11  1  0
 10  9  1  0
 11 12  1  0
 12  7  1  0
  2 14  1  0
  3 15  1  0
  8 16  1  0
  8 17  1  0
  9 18  1  0
  9 19  1  0
 10 20  1  0
 11 21  1  0
 11 22  1  0
 12 23  1  0
 12 24  1  0
 13 25  1  0
M  ISO  8  14  14  15  14  16  13  17  13  18  13  19  13  20   5  21  13
M  ISO  4  22  13  23  13  24  13  25  11
M  END
>  <minimizedAffinity>  (1) 
-3.30900955

>  <minimizedRMSD>  (1) 
2.25924492

$$$$
