
     RDKit          3D

 26 27  0  0  0  0  0  0  0  0999 V2000
   37.6370   22.1480   35.4640 C   0  0  0  0  0  0  0  0  0  0  0  0
   36.7030   21.6950   36.4310 C   0  0  0  0  0  0  0  0  0  0  0  0
   35.6400   20.9200   35.9930 C   0  0  0  0  0  0  0  0  0  0  0  0
   35.5450   20.6330   34.6670 N   0  0  0  0  0  0  0  0  0  0  0  0
   36.4530   21.0830   33.7760 C   0  0  0  0  0  0  0  0  0  0  0  0
   37.4870   21.8290   34.1620 N   0  0  0  0  0  0  0  0  0  0  0  0
   36.2520   20.7210   32.4130 N   0  0  0  0  0  0  0  0  0  0  0  0
   36.7160   21.6190   31.3670 C   0  0  0  0  0  0  0  0  0  0  0  0
   37.8380   20.7940   30.7220 C   0  0  0  0  0  0  0  0  0  0  0  0
   37.1060   19.7470   29.9050 C   0  0  0  0  0  0  0  0  0  0  0  0
   36.2460   18.8910   30.7550 C   0  0  0  0  0  0  0  0  0  0  0  0
   35.6250   19.5310   31.9430 C   0  0  0  0  0  0  0  0  0  0  0  0
   39.0590   23.1520   35.8520 S   0  0  0  0  0  0  0  0  0  0  0  0
   36.8185   21.9505   37.4947 H   0  0  0  0  0  0  0  0  0  0  0  0
   34.8887   20.5449   36.7036 H   0  0  0  0  0  0  0  0  0  0  0  0
   35.9160   21.8409   30.6453 H   0  0  0  0  0  0  0  0  0  0  0  0
   37.0413   22.6030   31.7358 H   0  0  0  0  0  0  0  0  0  0  0  0
   38.4647   21.4258   30.0753 H   0  0  0  0  0  0  0  0  0  0  0  0
   38.5162   20.3503   31.4658 H   0  0  0  0  0  0  0  0  0  0  0  0
   36.4774   20.2534   29.1577 H   0  0  0  0  0  0  0  0  0  0  0  0
   37.8558   19.1050   29.4197 H   0  0  0  0  0  0  0  0  0  0  0  0
   35.4330   18.5048   30.1226 H   0  0  0  0  0  0  0  0  0  0  0  0
   36.9197   18.1228   31.1626 H   0  0  0  0  0  0  0  0  0  0  0  0
   34.5844   19.7783   31.6862 H   0  0  0  0  0  0  0  0  0  0  0  0
   35.7270   18.8008   32.7594 H   0  0  0  0  0  0  0  0  0  0  0  0
   39.1936   23.2470   37.2121 H   0  0  0  0  0  0  0  0  0  0  0  0
  1 13  1  0
  1  2  2  0
  3  2  1  0
  4  3  2  0
  5  6  2  0
  5  4  1  0
  6  1  1  0
  7  5  1  0
  8  7  1  0
  9  8  1  0
 10  9  1  0
 10 11  1  0
 11 12  1  0
 12  7  1  0
  2 14  1  0
  3 15  1  0
  8 16  1  0
  8 17  1  0
  9 18  1  0
  9 19  1  0
 10 20  1  0
 10 21  1  0
 11 22  1  0
 11 23  1  0
 12 24  1  0
 12 25  1  0
 13 26  1  0
M  ISO  8  14  14  15  14  16  13  17  13  18  13  19  13  20  13  21  13
M  ISO  5  22  13  23  13  24  13  25  13  26  11
M  END
>  <minimizedAffinity>  (1) 
-3.56372142

>  <minimizedRMSD>  (1) 
2.28006983

$$$$
