
     RDKit          3D

 41 44  0  0  0  0  0  0  0  0999 V2000
   39.1120   24.7430   33.8280 C   0  0  0  0  0  0  0  0  0  0  0  0
   39.6540   24.6020   32.5590 C   0  0  0  0  0  0  0  0  0  0  0  0
   39.0360   25.5470   31.7450 C   0  0  0  0  0  0  0  0  0  0  0  0
   38.1640   26.2250   32.4800 N   0  0  0  0  0  0  0  0  0  0  0  0
   38.2120   25.7380   33.7410 N   0  0  0  0  0  0  0  0  0  0  0  0
   37.3170   27.2890   32.0300 C   0  0  0  0  0  0  0  0  0  0  0  0
   37.5370   27.7760   30.7490 C   0  0  0  0  0  0  0  0  0  0  0  0
   36.6910   28.8190   30.3360 C   0  0  0  0  0  0  0  0  0  0  0  0
   35.7490   29.2800   31.1600 N   0  0  0  0  0  0  0  0  0  0  0  0
   35.5490   28.8020   32.3900 C   0  0  0  0  0  0  0  0  0  0  0  0
   36.3490   27.7960   32.8150 N   0  0  0  0  0  0  0  0  0  0  0  0
   34.5370   29.3280   33.2150 N   0  0  0  0  0  0  0  0  0  0  0  0
   33.2210   29.5670   32.6470 C   0  0  0  0  0  0  0  0  0  0  0  0
   32.9570   31.0610   32.8120 C   0  0  0  0  0  0  0  0  0  0  0  0
   33.8550   31.6540   33.6710 O   0  0  0  0  0  0  0  0  0  0  0  0
   34.0380   30.9550   34.8620 C   0  0  0  0  0  0  0  0  0  0  0  0
   34.7800   29.6380   34.6120 C   0  0  0  0  0  0  0  0  0  0  0  0
   40.6890   22.3420   36.0830 C   0  0  0  0  0  0  0  0  0  0  0  0
   39.9910   22.5880   37.3020 C   0  0  0  0  0  0  0  0  0  0  0  0
   39.0140   23.5600   37.3020 C   0  0  0  0  0  0  0  0  0  0  0  0
   38.7540   24.2450   36.1490 N   0  0  0  0  0  0  0  0  0  0  0  0
   39.4500   23.9680   35.0130 C   0  0  0  0  0  0  0  0  0  0  0  0
   40.4020   23.0320   34.9830 N   0  0  0  0  0  0  0  0  0  0  0  0
   38.3350   23.7650   38.5840 C   0  0  0  0  0  0  0  0  0  0  0  0
   37.7760   25.0140   38.6120 F   0  0  0  0  0  0  0  0  0  0  0  0
   39.2980   23.7660   39.5640 F   0  0  0  0  0  0  0  0  0  0  0  0
   37.3460   22.8390   38.8100 F   0  0  0  0  0  0  0  0  0  0  0  0
   40.4259   23.8802   32.2538 H   0  0  0  0  0  0  0  0  0  0  0  0
   39.2364   25.7047   30.6750 H   0  0  0  0  0  0  0  0  0  0  0  0
   38.3250   27.3704   30.0974 H   0  0  0  0  0  0  0  0  0  0  0  0
   36.8056   29.2555   29.3328 H   0  0  0  0  0  0  0  0  0  0  0  0
   32.4604   28.9826   33.1855 H   0  0  0  0  0  0  0  0  0  0  0  0
   33.1770   29.2642   31.5904 H   0  0  0  0  0  0  0  0  0  0  0  0
   33.0347   31.5457   31.8276 H   0  0  0  0  0  0  0  0  0  0  0  0
   31.9501   31.1820   33.2382 H   0  0  0  0  0  0  0  0  0  0  0  0
   34.6254   31.5736   35.5565 H   0  0  0  0  0  0  0  0  0  0  0  0
   33.0515   30.7275   35.2922 H   0  0  0  0  0  0  0  0  0  0  0  0
   34.3831   28.8420   35.2592 H   0  0  0  0  0  0  0  0  0  0  0  0
   35.8538   29.7204   34.8358 H   0  0  0  0  0  0  0  0  0  0  0  0
   41.4742   21.5723   36.0522 H   0  0  0  0  0  0  0  0  0  0  0  0
   40.2252   22.0195   38.2141 H   0  0  0  0  0  0  0  0  0  0  0  0
  1 22  1  0
  2  1  1  0
  3  4  1  0
  3  2  2  0
  4  5  1  0
  5  1  2  0
  6  4  1  0
  6 11  1  0
  7  6  2  0
  8  7  1  0
  8  9  2  0
  9 10  1  0
 10 11  2  0
 10 12  1  0
 12 17  1  0
 13 14  1  0
 13 12  1  0
 14 15  1  0
 15 16  1  0
 17 16  1  0
 18 19  2  0
 20 19  1  0
 20 24  1  0
 21 20  2  0
 22 21  1  0
 23 22  2  0
 23 18  1  0
 24 25  1  0
 24 27  1  0
 24 26  1  0
  2 28  1  0
  3 29  1  0
  7 30  1  0
  8 31  1  0
 13 32  1  0
 13 33  1  0
 14 34  1  0
 14 35  1  0
 16 36  1  0
 16 37  1  0
 17 38  1  0
 17 39  1  0
 18 40  1  0
 19 41  1  0
M  ISO  8  28  14  29  14  30  14  31  14  32  13  33  13  34  13  35  13
M  ISO  6  36  13  37  13  38  13  39  13  40  14  41  14
M  END
>  <minimizedAffinity>  (1) 
-6.22580624

>  <minimizedRMSD>  (1) 
2.99482512

$$$$
