
     RDKit          3D

 21 22  0  0  0  0  0  0  0  0999 V2000
   36.7990   20.9960   33.1820 C   0  0  0  0  0  0  0  0  0  0  0  0
   35.5640   20.4230   33.5460 C   0  0  0  0  0  0  0  0  0  0  0  0
   34.9310   19.6130   32.6170 C   0  0  0  0  0  0  0  0  0  0  0  0
   35.5300   19.4120   31.4030 N   0  0  0  0  0  0  0  0  0  0  0  0
   36.7130   19.9790   31.0950 C   0  0  0  0  0  0  0  0  0  0  0  0
   37.3430   20.7640   31.9770 N   0  0  0  0  0  0  0  0  0  0  0  0
   37.3140   19.7350   29.7890 C   0  0  0  0  0  0  0  0  0  0  0  0
   38.5330   20.2750   29.4660 C   0  0  0  0  0  0  0  0  0  0  0  0
   39.0880   20.0370   28.2300 C   0  0  0  0  0  0  0  0  0  0  0  0
   38.4140   19.2530   27.3160 C   0  0  0  0  0  0  0  0  0  0  0  0
   37.1700   18.6750   27.5860 C   0  0  0  0  0  0  0  0  0  0  0  0
   36.6520   18.9480   28.8550 C   0  0  0  0  0  0  0  0  0  0  0  0
   37.7420   22.0610   34.2640 S   0  0  0  0  0  0  0  0  0  0  0  0
   35.1180   20.6123   34.5335 H   0  0  0  0  0  0  0  0  0  0  0  0
   33.9655   19.1406   32.8508 H   0  0  0  0  0  0  0  0  0  0  0  0
   39.0677   20.8995   30.1968 H   0  0  0  0  0  0  0  0  0  0  0  0
   40.0655   20.4700   27.9712 H   0  0  0  0  0  0  0  0  0  0  0  0
   38.8751   19.0753   26.3333 H   0  0  0  0  0  0  0  0  0  0  0  0
   36.6377   18.0509   26.8531 H   0  0  0  0  0  0  0  0  0  0  0  0
   35.6757   18.5202   29.1266 H   0  0  0  0  0  0  0  0  0  0  0  0
   37.4646   21.7477   35.5685 H   0  0  0  0  0  0  0  0  0  0  0  0
  1  2  2  0
  1 13  1  0
  3  2  1  0
  4  3  2  0
  5  4  1  0
  5  6  2  0
  6  1  1  0
  7  5  1  0
  8  7  2  0
  9  8  1  0
 10 11  1  0
 10  9  2  0
 11 12  2  0
 12  7  1  0
  2 14  1  0
  3 15  1  0
  8 16  1  0
  9 17  1  0
 10 18  1  0
 11 19  1  0
 12 20  1  0
 13 21  1  0
M  ISO  8  14  14  15  14  16  14  17  14  18  14  19  14  20  14  21  11
M  END
>  <minimizedAffinity>  (1) 
-3.0969913

>  <minimizedRMSD>  (1) 
2.24657726

$$$$
