
     RDKit          3D

 13 13  0  0  0  0  0  0  0  0999 V2000
   37.2150   22.0160   33.9280 C   0  0  0  0  0  0  0  0  0  0  0  0
   36.2570   20.9790   33.8910 C   0  0  0  0  0  0  0  0  0  0  0  0
   35.3510   20.9970   32.8440 C   0  0  0  0  0  0  0  0  0  0  0  0
   35.4240   21.9960   31.9150 N   0  0  0  0  0  0  0  0  0  0  0  0
   36.3530   22.9720   31.9820 C   0  0  0  0  0  0  0  0  0  0  0  0
   37.2450   22.9800   32.9860 N   0  0  0  0  0  0  0  0  0  0  0  0
   36.3810   24.0130   30.9600 C   0  0  0  0  0  0  0  0  0  0  0  0
   35.3240   24.7170   30.8880 O   0  0  0  0  0  0  0  0  0  0  0  0
   38.4650   22.1610   35.2000 S   0  0  0  0  0  0  0  0  0  0  0  0
   36.2317   20.1923   34.6594 H   0  0  0  0  0  0  0  0  0  0  0  0
   34.5811   20.2157   32.7612 H   0  0  0  0  0  0  0  0  0  0  0  0
   37.2482   24.1762   30.3033 H   0  0  0  0  0  0  0  0  0  0  0  0
   37.8719   22.0922   36.4330 H   0  0  0  0  0  0  0  0  0  0  0  0
  1  9  1  0
  2  1  2  0
  3  2  1  0
  4  5  1  0
  4  3  2  0
  5  6  2  0
  6  1  1  0
  7  5  1  0
  8  7  2  0
  2 10  1  0
  3 11  1  0
  7 12  1  0
  9 13  1  0
M  ISO  4  10  14  11  14  12   6  13  11
M  END
>  <minimizedAffinity>  (1) 
-2.49439621

>  <minimizedRMSD>  (1) 
2.20113659

$$$$
