
     RDKit          3D

 19 20  0  0  0  0  0  0  0  0999 V2000
   37.0760   21.4850   34.3290 C   0  0  0  0  0  0  0  0  0  0  0  0
   35.8320   20.7950   34.4820 C   0  0  0  0  0  0  0  0  0  0  0  0
   35.3480   20.1430   33.3620 C   0  0  0  0  0  0  0  0  0  0  0  0
   36.0410   20.1810   32.2080 N   0  0  0  0  0  0  0  0  0  0  0  0
   37.2140   20.8400   32.0910 C   0  0  0  0  0  0  0  0  0  0  0  0
   37.7190   21.4880   33.1610 N   0  0  0  0  0  0  0  0  0  0  0  0
   37.9370   20.8580   30.8230 C   0  0  0  0  0  0  0  0  0  0  0  0
   37.8060   19.7960   29.9570 C   0  0  0  0  0  0  0  0  0  0  0  0
   38.4910   19.8200   28.7630 C   0  0  0  0  0  0  0  0  0  0  0  0
   39.2830   20.8690   28.4400 N   0  0  0  0  0  0  0  0  0  0  0  0
   39.3810   21.8920   29.3220 C   0  0  0  0  0  0  0  0  0  0  0  0
   38.7320   21.9210   30.5070 N   0  0  0  0  0  0  0  0  0  0  0  0
   37.8600   22.3840   35.6640 S   0  0  0  0  0  0  0  0  0  0  0  0
   35.2895   20.7836   35.4389 H   0  0  0  0  0  0  0  0  0  0  0  0
   34.3966   19.5933   33.4141 H   0  0  0  0  0  0  0  0  0  0  0  0
   37.1637   18.9411   30.2151 H   0  0  0  0  0  0  0  0  0  0  0  0
   38.3935   18.9768   28.0633 H   0  0  0  0  0  0  0  0  0  0  0  0
   40.0236   22.7454   29.0597 H   0  0  0  0  0  0  0  0  0  0  0  0
   37.4269   21.8874   36.8651 H   0  0  0  0  0  0  0  0  0  0  0  0
  1  2  2  0
  1 13  1  0
  3  2  1  0
  4  3  2  0
  5  4  1  0
  5  6  2  0
  6  1  1  0
  7  5  1  0
  8  7  2  0
  9  8  1  0
 10  9  2  0
 10 11  1  0
 11 12  2  0
 12  7  1  0
  2 14  1  0
  3 15  1  0
  8 16  1  0
  9 17  1  0
 11 18  1  0
 13 19  1  0
M  ISO  6  14  14  15  14  16  14  17  14  18  14  19  11
M  END
>  <minimizedAffinity>  (1) 
-2.66564274

>  <minimizedRMSD>  (1) 
0.669158578

$$$$
