
     RDKit          3D

 12 12  0  0  0  0  0  0  0  0999 V2000
   37.1740   21.6370   34.6650 C   0  0  0  0  0  0  0  0  0  0  0  0
   35.9610   20.9280   34.8230 C   0  0  0  0  0  0  0  0  0  0  0  0
   35.4890   20.2490   33.7020 C   0  0  0  0  0  0  0  0  0  0  0  0
   36.1840   20.2900   32.5410 N   0  0  0  0  0  0  0  0  0  0  0  0
   37.3530   20.9880   32.4370 C   0  0  0  0  0  0  0  0  0  0  0  0
   37.8230   21.6480   33.5040 N   0  0  0  0  0  0  0  0  0  0  0  0
   37.9470   22.5710   35.9830 S   0  0  0  0  0  0  0  0  0  0  0  0
   38.0430   21.0100   31.2310 O   0  0  0  0  0  0  0  0  0  0  0  0
   35.4189   20.9134   35.7800 H   0  0  0  0  0  0  0  0  0  0  0  0
   34.5502   19.6787   33.7603 H   0  0  0  0  0  0  0  0  0  0  0  0
   37.5380   22.0768   37.1935 H   0  0  0  0  0  0  0  0  0  0  0  0
   38.8906   21.5158   31.1548 H   0  0  0  0  0  0  0  0  0  0  0  0
  1  2  2  0
  1  7  1  0
  3  2  1  0
  4  3  2  0
  5  4  1  0
  5  6  2  0
  6  1  1  0
  8  5  1  0
  2  9  1  0
  3 10  1  0
  7 11  1  0
  8 12  1  0
M  ISO  4   9  14  10  14  11  11  12   3
M  END
>  <minimizedAffinity>  (1) 
-2.10062814

>  <minimizedRMSD>  (1) 
0.0284218993

$$$$
