
     RDKit          3D

 13 13  0  0  0  0  0  0  0  0999 V2000
   37.1860   21.6350   34.6380 C   0  0  0  0  0  0  0  0  0  0  0  0
   35.9750   20.9260   34.8050 C   0  0  0  0  0  0  0  0  0  0  0  0
   35.4800   20.2450   33.7060 C   0  0  0  0  0  0  0  0  0  0  0  0
   36.1620   20.2840   32.5370 N   0  0  0  0  0  0  0  0  0  0  0  0
   37.3160   20.9740   32.4170 C   0  0  0  0  0  0  0  0  0  0  0  0
   37.8390   21.6540   33.4580 N   0  0  0  0  0  0  0  0  0  0  0  0
   37.9160   20.9200   31.1260 N   0  0  0  0  0  0  0  0  0  0  0  0
   37.9680   22.5680   35.9460 S   0  0  0  0  0  0  0  0  0  0  0  0
   35.4467   20.9156   35.7698 H   0  0  0  0  0  0  0  0  0  0  0  0
   34.5409   19.6772   33.7818 H   0  0  0  0  0  0  0  0  0  0  0  0
   38.7992   21.4189   30.9473 H   0  0  0  0  0  0  0  0  0  0  0  0
   37.4666   20.3821   30.3713 H   0  0  0  0  0  0  0  0  0  0  0  0
   37.5605   22.0818   37.1603 H   0  0  0  0  0  0  0  0  0  0  0  0
  1  2  2  0
  1  8  1  0
  3  2  1  0
  4  3  2  0
  5  4  1  0
  5  6  2  0
  6  1  1  0
  7  5  1  0
  2  9  1  0
  3 10  1  0
  7 11  1  0
  7 12  1  0
  8 13  1  0
M  ISO  3   9  14  10  14  13  11
M  END
>  <minimizedAffinity>  (1) 
-2.10689831

>  <minimizedRMSD>  (1) 
0.0545185655

$$$$
