
     RDKit          3D

 36 38  0  0  0  0  0  0  0  0999 V2000
   37.6470   22.5480   33.8800 C   0  0  0  0  0  0  0  0  0  0  0  0
   37.2710   21.5830   32.9010 C   0  0  0  0  0  0  0  0  0  0  0  0
   37.0200   22.0400   31.6070 C   0  0  0  0  0  0  0  0  0  0  0  0
   37.1460   23.3550   31.3640 N   0  0  0  0  0  0  0  0  0  0  0  0
   37.5040   24.2600   32.3050 C   0  0  0  0  0  0  0  0  0  0  0  0
   37.7480   23.8380   33.5500 N   0  0  0  0  0  0  0  0  0  0  0  0
   37.6220   25.6500   31.9830 N   0  0  0  0  0  0  0  0  0  0  0  0
   36.5420   26.6360   32.0640 C   0  0  0  0  0  0  0  0  0  0  0  0
   37.3220   27.9330   32.1020 C   0  0  0  0  0  0  0  0  0  0  0  0
   38.2910   27.5980   30.9590 C   0  0  0  0  0  0  0  0  0  0  0  0
   38.8410   26.2900   31.5250 C   0  0  0  0  0  0  0  0  0  0  0  0
   37.9970   22.1420   35.5690 S   0  0  0  0  0  0  0  0  0  0  0  0
   38.8010   23.5790   36.3360 C   0  0  0  0  0  0  0  0  0  0  0  0
   37.7490   24.4860   36.9190 C   0  0  0  0  0  0  0  0  0  0  0  0
   37.9830   24.4950   38.4150 C   0  0  0  0  0  0  0  0  0  0  0  0
   38.5980   23.1080   38.6340 C   0  0  0  0  0  0  0  0  0  0  0  0
   39.6140   23.0730   37.5090 C   0  0  0  0  0  0  0  0  0  0  0  0
   37.1819   20.5168   33.1563 H   0  0  0  0  0  0  0  0  0  0  0  0
   36.7271   21.3429   30.8081 H   0  0  0  0  0  0  0  0  0  0  0  0
   35.8859   26.5870   31.1825 H   0  0  0  0  0  0  0  0  0  0  0  0
   35.8664   26.4929   32.9202 H   0  0  0  0  0  0  0  0  0  0  0  0
   36.6946   28.8087   31.8795 H   0  0  0  0  0  0  0  0  0  0  0  0
   37.7730   28.2097   33.0664 H   0  0  0  0  0  0  0  0  0  0  0  0
   39.0734   28.3617   30.8384 H   0  0  0  0  0  0  0  0  0  0  0  0
   37.8503   27.5417   29.9527 H   0  0  0  0  0  0  0  0  0  0  0  0
   39.3429   25.6937   30.7487 H   0  0  0  0  0  0  0  0  0  0  0  0
   39.6048   26.4203   32.3058 H   0  0  0  0  0  0  0  0  0  0  0  0
   39.4113   24.1076   35.5889 H   0  0  0  0  0  0  0  0  0  0  0  0
   37.8523   25.5021   36.5105 H   0  0  0  0  0  0  0  0  0  0  0  0
   36.7357   24.1354   36.6733 H   0  0  0  0  0  0  0  0  0  0  0  0
   38.6791   25.2946   38.7084 H   0  0  0  0  0  0  0  0  0  0  0  0
   37.0776   24.6843   39.0104 H   0  0  0  0  0  0  0  0  0  0  0  0
   39.0807   23.0292   39.6193 H   0  0  0  0  0  0  0  0  0  0  0  0
   37.8743   22.2797   38.6229 H   0  0  0  0  0  0  0  0  0  0  0  0
   39.9787   22.0506   37.3313 H   0  0  0  0  0  0  0  0  0  0  0  0
   40.5192   23.6648   37.7099 H   0  0  0  0  0  0  0  0  0  0  0  0
  1 12  1  0
  2  1  2  0
  3  2  1  0
  4  3  2  0
  4  5  1  0
  5  6  2  0
  6  1  1  0
  7  8  1  0
  7  5  1  0
  8  9  1  0
 10 11  1  0
 10  9  1  0
 11  7  1  0
 12 13  1  0
 13 14  1  0
 13 17  1  0
 14 15  1  0
 15 16  1  0
 17 16  1  0
  2 18  1  0
  3 19  1  0
  8 20  1  0
  8 21  1  0
  9 22  1  0
  9 23  1  0
 10 24  1  0
 10 25  1  0
 11 26  1  0
 11 27  1  0
 13 28  1  0
 14 29  1  0
 14 30  1  0
 15 31  1  0
 15 32  1  0
 16 33  1  0
 16 34  1  0
 17 35  1  0
 17 36  1  0
M  ISO  8  18  14  19  14  20  13  21  13  22  13  23  13  24  13  25  13
M  ISO  8  26  13  27  13  28  13  29  13  30  13  31  13  32  13  33  13
M  ISO  3  34  13  35  13  36  13
M  END
>  <minimizedAffinity>  (1) 
-4.5096755

>  <minimizedRMSD>  (1) 
3.69359231

$$$$
