
     RDKit          3D

 26 27  0  0  0  0  0  0  0  0999 V2000
   37.5870   22.2660   35.7920 C   0  0  0  0  0  0  0  0  0  0  0  0
   36.6620   21.8540   36.7870 C   0  0  0  0  0  0  0  0  0  0  0  0
   35.6060   21.0510   36.3740 C   0  0  0  0  0  0  0  0  0  0  0  0
   35.5120   20.7060   35.0710 N   0  0  0  0  0  0  0  0  0  0  0  0
   36.4070   21.1120   34.1430 C   0  0  0  0  0  0  0  0  0  0  0  0
   37.4280   21.8870   34.5290 N   0  0  0  0  0  0  0  0  0  0  0  0
   36.2840   20.7340   32.7710 N   0  0  0  0  0  0  0  0  0  0  0  0
   35.5680   21.4730   31.7460 C   0  0  0  0  0  0  0  0  0  0  0  0
   36.1690   20.8680   30.4780 C   0  0  0  0  0  0  0  0  0  0  0  0
   36.0790   19.4000   30.9050 C   0  0  0  0  0  0  0  0  0  0  0  0
   36.8670   19.5300   32.1940 C   0  0  0  0  0  0  0  0  0  0  0  0
   38.9930   23.2990   36.1400 S   0  0  0  0  0  0  0  0  0  0  0  0
   38.4610   25.0380   36.1700 C   0  0  0  0  0  0  0  0  0  0  0  0
   38.1520   25.3610   37.4620 F   0  0  0  0  0  0  0  0  0  0  0  0
   37.3670   25.1110   35.3260 F   0  0  0  0  0  0  0  0  0  0  0  0
   39.5120   25.8220   35.6760 F   0  0  0  0  0  0  0  0  0  0  0  0
   36.7762   22.1570   37.8382 H   0  0  0  0  0  0  0  0  0  0  0  0
   34.8561   20.7006   37.0985 H   0  0  0  0  0  0  0  0  0  0  0  0
   34.4838   21.2963   31.8034 H   0  0  0  0  0  0  0  0  0  0  0  0
   35.6699   22.5658   31.8197 H   0  0  0  0  0  0  0  0  0  0  0  0
   37.2060   21.1932   30.3081 H   0  0  0  0  0  0  0  0  0  0  0  0
   35.6808   21.1336   29.5287 H   0  0  0  0  0  0  0  0  0  0  0  0
   35.0422   19.0752   31.0772 H   0  0  0  0  0  0  0  0  0  0  0  0
   36.4411   18.6550   30.1812 H   0  0  0  0  0  0  0  0  0  0  0  0
   36.7159   18.6578   32.8470 H   0  0  0  0  0  0  0  0  0  0  0  0
   37.9562   19.5838   32.0502 H   0  0  0  0  0  0  0  0  0  0  0  0
  1 12  1  0
  1  2  2  0
  3  2  1  0
  4  3  2  0
  5  6  2  0
  5  4  1  0
  6  1  1  0
  7  5  1  0
  8  7  1  0
  9 10  1  0
  9  8  1  0
 10 11  1  0
 11  7  1  0
 12 13  1  0
 13 14  1  0
 15 13  1  0
 16 13  1  0
  2 17  1  0
  3 18  1  0
  8 19  1  0
  8 20  1  0
  9 21  1  0
  9 22  1  0
 10 23  1  0
 10 24  1  0
 11 25  1  0
 11 26  1  0
M  ISO  8  17  14  18  14  19  13  20  13  21  13  22  13  23  13  24  13
M  ISO  2  25  13  26  13
M  END
>  <minimizedAffinity>  (1) 
-3.96690249

>  <minimizedRMSD>  (1) 
1.69577599

$$$$
