
     RDKit          3D

 33 36  0  0  0  0  0  0  0  0999 V2000
   37.2410   21.9390   33.9730 C   0  0  0  0  0  0  0  0  0  0  0  0
   37.8360   23.0670   34.5450 C   0  0  0  0  0  0  0  0  0  0  0  0
   38.0130   24.1900   33.7540 C   0  0  0  0  0  0  0  0  0  0  0  0
   37.6010   24.1490   32.4540 N   0  0  0  0  0  0  0  0  0  0  0  0
   37.0260   23.0320   31.9350 C   0  0  0  0  0  0  0  0  0  0  0  0
   36.8520   21.9340   32.7060 N   0  0  0  0  0  0  0  0  0  0  0  0
   38.6190   25.3930   34.2680 N   0  0  0  0  0  0  0  0  0  0  0  0
   37.9470   26.1540   35.1680 C   0  0  0  0  0  0  0  0  0  0  0  0
   38.8130   27.1940   35.4250 C   0  0  0  0  0  0  0  0  0  0  0  0
   39.9390   27.0470   34.7100 N   0  0  0  0  0  0  0  0  0  0  0  0
   39.8200   25.9080   33.9760 C   0  0  0  0  0  0  0  0  0  0  0  0
   38.2680   23.0870   35.9310 C   0  0  0  0  0  0  0  0  0  0  0  0
   37.5550   23.4940   37.0400 C   0  0  0  0  0  0  0  0  0  0  0  0
   38.0690   23.4670   38.2990 C   0  0  0  0  0  0  0  0  0  0  0  0
   39.3690   23.0110   38.4830 C   0  0  0  0  0  0  0  0  0  0  0  0
   40.1060   22.5970   37.3920 C   0  0  0  0  0  0  0  0  0  0  0  0
   41.4010   22.1490   37.6330 C   0  0  0  0  0  0  0  0  0  0  0  0
   42.1770   21.7240   36.5770 C   0  0  0  0  0  0  0  0  0  0  0  0
   41.6670   21.7490   35.3060 C   0  0  0  0  0  0  0  0  0  0  0  0
   40.3810   22.1950   35.0810 C   0  0  0  0  0  0  0  0  0  0  0  0
   39.5720   22.6290   36.1190 C   0  0  0  0  0  0  0  0  0  0  0  0
   37.0927   21.0379   34.5863 H   0  0  0  0  0  0  0  0  0  0  0  0
   36.7009   23.0208   30.8842 H   0  0  0  0  0  0  0  0  0  0  0  0
   36.9469   25.9813   35.5922 H   0  0  0  0  0  0  0  0  0  0  0  0
   38.6107   28.0251   36.1166 H   0  0  0  0  0  0  0  0  0  0  0  0
   40.5635   25.4922   33.2801 H   0  0  0  0  0  0  0  0  0  0  0  0
   36.5258   23.8562   36.8998 H   0  0  0  0  0  0  0  0  0  0  0  0
   37.4663   23.8003   39.1567 H   0  0  0  0  0  0  0  0  0  0  0  0
   39.8075   22.9803   39.4914 H   0  0  0  0  0  0  0  0  0  0  0  0
   41.8016   22.1343   38.6574 H   0  0  0  0  0  0  0  0  0  0  0  0
   43.2020   21.3660   36.7538 H   0  0  0  0  0  0  0  0  0  0  0  0
   42.2855   21.4120   34.4610 H   0  0  0  0  0  0  0  0  0  0  0  0
   39.9886   22.2064   34.0534 H   0  0  0  0  0  0  0  0  0  0  0  0
  1  2  2  0
  2 12  1  0
  3  7  1  0
  3  2  1  0
  4  3  2  0
  5  4  1  0
  5  6  2  0
  6  1  1  0
  7  8  1  0
  8  9  2  0
 10  9  1  0
 11  7  1  0
 11 10  2  0
 12 21  1  0
 12 13  2  0
 13 14  1  0
 14 15  2  0
 16 17  2  0
 16 15  1  0
 18 17  1  0
 19 18  2  0
 20 19  1  0
 20 21  2  0
 21 16  1  0
  1 22  1  0
  5 23  1  0
  8 24  1  0
  9 25  1  0
 11 26  1  0
 13 27  1  0
 14 28  1  0
 15 29  1  0
 17 30  1  0
 18 31  1  0
 19 32  1  0
 20 33  1  0
M  ISO  8  22  14  23  14  24  14  25  14  26  14  27  14  28  14  29  14
M  ISO  4  30  14  31  14  32  14  33  14
M  END
>  <minimizedAffinity>  (1) 
-5.70968056

>  <minimizedRMSD>  (1) 
4.14793682

$$$$
