
     RDKit          3D

 30 32  0  0  0  0  0  0  0  0999 V2000
   37.8070   22.2220   35.6210 C   0  0  0  0  0  0  0  0  0  0  0  0
   37.1350   22.8030   36.7250 C   0  0  0  0  0  0  0  0  0  0  0  0
   37.9280   23.2840   37.7440 C   0  0  0  0  0  0  0  0  0  0  0  0
   39.2640   23.1840   37.6480 N   0  0  0  0  0  0  0  0  0  0  0  0
   39.8780   22.6230   36.5780 C   0  0  0  0  0  0  0  0  0  0  0  0
   39.1440   22.1400   35.5600 N   0  0  0  0  0  0  0  0  0  0  0  0
   41.3070   22.5410   36.5230 N   0  0  0  0  0  0  0  0  0  0  0  0
   42.1140   21.4190   37.0090 C   0  0  0  0  0  0  0  0  0  0  0  0
   43.4090   21.6590   36.2550 C   0  0  0  0  0  0  0  0  0  0  0  0
   43.5220   23.1490   36.5190 C   0  0  0  0  0  0  0  0  0  0  0  0
   42.1640   23.5760   35.9690 C   0  0  0  0  0  0  0  0  0  0  0  0
   36.9580   21.5260   34.2250 S   0  0  0  0  0  0  0  0  0  0  0  0
   36.9950   22.5470   32.7540 C   0  0  0  0  0  0  0  0  0  0  0  0
   35.8760   22.6770   31.8200 C   0  0  0  0  0  0  0  0  0  0  0  0
   37.1440   21.9880   31.3900 C   0  0  0  0  0  0  0  0  0  0  0  0
   36.0376   22.8667   36.7664 H   0  0  0  0  0  0  0  0  0  0  0  0
   37.4699   23.7469   38.6305 H   0  0  0  0  0  0  0  0  0  0  0  0
   42.2634   21.4684   38.0977 H   0  0  0  0  0  0  0  0  0  0  0  0
   41.6658   20.4281   36.8442 H   0  0  0  0  0  0  0  0  0  0  0  0
   43.3175   21.4299   35.1830 H   0  0  0  0  0  0  0  0  0  0  0  0
   44.2695   21.0446   36.5582 H   0  0  0  0  0  0  0  0  0  0  0  0
   43.6251   23.3740   37.5908 H   0  0  0  0  0  0  0  0  0  0  0  0
   44.3965   23.6489   36.0770 H   0  0  0  0  0  0  0  0  0  0  0  0
   41.8772   24.5748   36.3297 H   0  0  0  0  0  0  0  0  0  0  0  0
   42.1235   23.6619   34.8731 H   0  0  0  0  0  0  0  0  0  0  0  0
   37.5644   23.2609   33.3673 H   0  0  0  0  0  0  0  0  0  0  0  0
   34.9576   22.0921   31.9765 H   0  0  0  0  0  0  0  0  0  0  0  0
   35.2761   23.5149   31.4353 H   0  0  0  0  0  0  0  0  0  0  0  0
   37.1576   20.8989   31.2364 H   0  0  0  0  0  0  0  0  0  0  0  0
   37.8627   22.1080   30.5660 H   0  0  0  0  0  0  0  0  0  0  0  0
  1  2  2  0
  2  3  1  0
  4  3  2  0
  5  4  1  0
  6  1  1  0
  6  5  2  0
  7  5  1  0
  7  8  1  0
  9 10  1  0
  9  8  1  0
 11 10  1  0
 11  7  1  0
 12  1  1  0
 13 12  1  0
 14 13  1  0
 15 14  1  0
 15 13  1  0
  2 16  1  0
  3 17  1  0
  8 18  1  0
  8 19  1  0
  9 20  1  0
  9 21  1  0
 10 22  1  0
 10 23  1  0
 11 24  1  0
 11 25  1  0
 13 26  1  0
 14 27  1  0
 14 28  1  0
 15 29  1  0
 15 30  1  0
M  ISO  8  16  14  17  14  18  13  19  13  20  13  21  13  22  13  23  13
M  ISO  7  24  13  25  13  26  13  27  13  28  13  29  13  30  13
M  END
>  <minimizedAffinity>  (1) 
-3.87138438

>  <minimizedRMSD>  (1) 
5.84086227

$$$$
