
     RDKit          3D

 34 37  0  0  0  0  0  0  0  0999 V2000
   37.8600   24.4960   33.6020 C   0  0  0  0  0  0  0  0  0  0  0  0
   37.1740   23.8740   32.5710 C   0  0  0  0  0  0  0  0  0  0  0  0
   36.6710   24.8850   31.7470 C   0  0  0  0  0  0  0  0  0  0  0  0
   37.0460   26.0530   32.2700 N   0  0  0  0  0  0  0  0  0  0  0  0
   37.7640   25.8190   33.3910 N   0  0  0  0  0  0  0  0  0  0  0  0
   36.7420   27.3600   31.7380 C   0  0  0  0  0  0  0  0  0  0  0  0
   35.7450   28.0800   32.3580 C   0  0  0  0  0  0  0  0  0  0  0  0
   35.4670   29.3340   31.8310 C   0  0  0  0  0  0  0  0  0  0  0  0
   36.1570   29.7790   30.7760 N   0  0  0  0  0  0  0  0  0  0  0  0
   37.1230   29.0790   30.1760 C   0  0  0  0  0  0  0  0  0  0  0  0
   37.4040   27.8400   30.6900 N   0  0  0  0  0  0  0  0  0  0  0  0
   37.8540   29.5720   29.0430 N   0  0  0  0  0  0  0  0  0  0  0  0
   37.6570   30.4040   28.0040 C   0  0  0  0  0  0  0  0  0  0  0  0
   38.7810   30.4410   27.2660 N   0  0  0  0  0  0  0  0  0  0  0  0
   39.6740   29.6250   27.8580 C   0  0  0  0  0  0  0  0  0  0  0  0
   39.0990   29.0820   28.9650 N   0  0  0  0  0  0  0  0  0  0  0  0
   40.1680   22.3990   35.5260 C   0  0  0  0  0  0  0  0  0  0  0  0
   39.7490   22.6350   36.8510 C   0  0  0  0  0  0  0  0  0  0  0  0
   38.6940   23.5030   37.0410 C   0  0  0  0  0  0  0  0  0  0  0  0
   38.1000   24.0920   35.9620 N   0  0  0  0  0  0  0  0  0  0  0  0
   38.5500   23.8240   34.7000 C   0  0  0  0  0  0  0  0  0  0  0  0
   39.5690   22.9880   34.4970 N   0  0  0  0  0  0  0  0  0  0  0  0
   38.2900   23.7210   38.4420 C   0  0  0  0  0  0  0  0  0  0  0  0
   37.8840   25.0200   38.6160 F   0  0  0  0  0  0  0  0  0  0  0  0
   39.4300   23.5840   39.2080 F   0  0  0  0  0  0  0  0  0  0  0  0
   37.2780   22.8970   38.8370 F   0  0  0  0  0  0  0  0  0  0  0  0
   37.0490   22.7905   32.4282 H   0  0  0  0  0  0  0  0  0  0  0  0
   36.0746   24.7430   30.8337 H   0  0  0  0  0  0  0  0  0  0  0  0
   35.1976   27.6823   33.2253 H   0  0  0  0  0  0  0  0  0  0  0  0
   34.6814   29.9594   32.2801 H   0  0  0  0  0  0  0  0  0  0  0  0
   36.7319   30.9606   27.7934 H   0  0  0  0  0  0  0  0  0  0  0  0
   40.6975   29.4301   27.5053 H   0  0  0  0  0  0  0  0  0  0  0  0
   41.0079   21.7133   35.3404 H   0  0  0  0  0  0  0  0  0  0  0  0
   40.2450   22.1451   37.7019 H   0  0  0  0  0  0  0  0  0  0  0  0
  1 21  1  0
  2  1  1  0
  3  4  1  0
  3  2  2  0
  4  5  1  0
  5  1  2  0
  6  4  1  0
  6  7  2  0
  8  7  1  0
  9  8  2  0
 10 11  2  0
 10  9  1  0
 11  6  1  0
 12 10  1  0
 13 12  1  0
 14 15  1  0
 14 13  2  0
 15 16  2  0
 16 12  1  0
 17 18  2  0
 18 19  1  0
 19 23  1  0
 20 19  2  0
 21 20  1  0
 22 21  2  0
 22 17  1  0
 23 24  1  0
 23 26  1  0
 23 25  1  0
  2 27  1  0
  3 28  1  0
  7 29  1  0
  8 30  1  0
 13 31  1  0
 15 32  1  0
 17 33  1  0
 18 34  1  0
M  ISO  8  27  14  28  14  29  14  30  14  31  14  32  14  33  14  34  14
M  END
>  <minimizedAffinity>  (1) 
-6.03967047

>  <minimizedRMSD>  (1) 
2.3648262

$$$$
