
     RDKit          3D

 23 25  0  0  0  0  0  0  0  0999 V2000
   37.4490   21.7940   34.6130 C   0  0  0  0  0  0  0  0  0  0  0  0
   37.9700   22.9920   35.1160 C   0  0  0  0  0  0  0  0  0  0  0  0
   38.1200   24.0720   34.2570 C   0  0  0  0  0  0  0  0  0  0  0  0
   37.7520   23.9090   32.9730 N   0  0  0  0  0  0  0  0  0  0  0  0
   37.2500   22.7440   32.4970 C   0  0  0  0  0  0  0  0  0  0  0  0
   37.1020   21.6830   33.3380 N   0  0  0  0  0  0  0  0  0  0  0  0
   38.6440   25.3160   34.7160 N   0  0  0  0  0  0  0  0  0  0  0  0
   37.9420   26.1030   35.5430 C   0  0  0  0  0  0  0  0  0  0  0  0
   38.7400   27.1980   35.7710 C   0  0  0  0  0  0  0  0  0  0  0  0
   39.8850   27.0630   35.0950 N   0  0  0  0  0  0  0  0  0  0  0  0
   39.8420   25.8770   34.4210 C   0  0  0  0  0  0  0  0  0  0  0  0
   38.3360   23.0950   36.4820 N   0  0  0  0  0  0  0  0  0  0  0  0
   39.6100   22.7750   36.8440 C   0  0  0  0  0  0  0  0  0  0  0  0
   39.7810   22.9310   38.1840 N   0  0  0  0  0  0  0  0  0  0  0  0
   38.5860   23.3540   38.6440 C   0  0  0  0  0  0  0  0  0  0  0  0
   37.7110   23.4530   37.6070 N   0  0  0  0  0  0  0  0  0  0  0  0
   37.3257   20.9321   35.2853 H   0  0  0  0  0  0  0  0  0  0  0  0
   36.9639   22.6557   31.4385 H   0  0  0  0  0  0  0  0  0  0  0  0
   36.9390   25.9126   35.9526 H   0  0  0  0  0  0  0  0  0  0  0  0
   38.4772   28.0533   36.4108 H   0  0  0  0  0  0  0  0  0  0  0  0
   40.6234   25.4598   33.7688 H   0  0  0  0  0  0  0  0  0  0  0  0
   40.3922   22.4371   36.1483 H   0  0  0  0  0  0  0  0  0  0  0  0
   38.3546   23.5834   39.6946 H   0  0  0  0  0  0  0  0  0  0  0  0
  1  2  2  0
  2 12  1  0
  3  7  1  0
  3  2  1  0
  4  3  2  0
  5  4  1  0
  5  6  2  0
  6  1  1  0
  7  8  1  0
  8  9  2  0
 10  9  1  0
 11  7  1  0
 11 10  2  0
 12 13  1  0
 12 16  1  0
 13 14  2  0
 14 15  1  0
 16 15  2  0
  1 17  1  0
  5 18  1  0
  8 19  1  0
  9 20  1  0
 11 21  1  0
 13 22  1  0
 15 23  1  0
M  ISO  7  17  14  18  14  19  14  20  14  21  14  22  14  23  14
M  END
>  <minimizedAffinity>  (1) 
-4.51854515

>  <minimizedRMSD>  (1) 
3.53160691

$$$$
