
     RDKit          3D

 35 38  0  0  0  0  0  0  0  0999 V2000
   38.6700   24.8360   33.8620 C   0  0  0  0  0  0  0  0  0  0  0  0
   38.7830   24.4950   32.5320 C   0  0  0  0  0  0  0  0  0  0  0  0
   38.2340   25.5450   31.7890 C   0  0  0  0  0  0  0  0  0  0  0  0
   37.8150   26.4680   32.6540 N   0  0  0  0  0  0  0  0  0  0  0  0
   38.0790   26.0380   33.9000 N   0  0  0  0  0  0  0  0  0  0  0  0
   40.4540   22.3980   35.9440 C   0  0  0  0  0  0  0  0  0  0  0  0
   39.8520   22.6060   37.2070 C   0  0  0  0  0  0  0  0  0  0  0  0
   38.8650   23.5660   37.3020 C   0  0  0  0  0  0  0  0  0  0  0  0
   38.5050   24.2720   36.1970 N   0  0  0  0  0  0  0  0  0  0  0  0
   39.1110   24.0380   35.0020 C   0  0  0  0  0  0  0  0  0  0  0  0
   40.0690   23.1130   34.8850 N   0  0  0  0  0  0  0  0  0  0  0  0
   38.2860   23.7310   38.6350 C   0  0  0  0  0  0  0  0  0  0  0  0
   37.7040   24.9750   38.7430 F   0  0  0  0  0  0  0  0  0  0  0  0
   39.3210   23.7330   39.5460 F   0  0  0  0  0  0  0  0  0  0  0  0
   37.3260   22.7930   38.9240 F   0  0  0  0  0  0  0  0  0  0  0  0
   37.1870   27.7130   32.3170 C   0  0  0  0  0  0  0  0  0  0  0  0
   36.2950   28.2510   33.2190 C   0  0  0  0  0  0  0  0  0  0  0  0
   35.6900   29.4570   32.8880 C   0  0  0  0  0  0  0  0  0  0  0  0
   35.9940   30.0410   31.7230 N   0  0  0  0  0  0  0  0  0  0  0  0
   36.8580   29.5220   30.8480 C   0  0  0  0  0  0  0  0  0  0  0  0
   37.4550   28.3440   31.1590 N   0  0  0  0  0  0  0  0  0  0  0  0
   37.1560   30.1970   29.5880 C   0  0  0  0  0  0  0  0  0  0  0  0
   36.8810   31.5170   29.3020 C   0  0  0  0  0  0  0  0  0  0  0  0
   37.3140   31.7280   28.0470 N   0  0  0  0  0  0  0  0  0  0  0  0
   37.8390   30.5570   27.5850 C   0  0  0  0  0  0  0  0  0  0  0  0
   37.7430   29.6000   28.5390 N   0  0  0  0  0  0  0  0  0  0  0  0
   39.2226   23.5703   32.1299 H   0  0  0  0  0  0  0  0  0  0  0  0
   38.1615   25.5990   30.6927 H   0  0  0  0  0  0  0  0  0  0  0  0
   41.2450   21.6416   35.8340 H   0  0  0  0  0  0  0  0  0  0  0  0
   40.1608   22.0210   38.0859 H   0  0  0  0  0  0  0  0  0  0  0  0
   36.0697   27.7431   34.1684 H   0  0  0  0  0  0  0  0  0  0  0  0
   34.9701   29.9259   33.5749 H   0  0  0  0  0  0  0  0  0  0  0  0
   36.4029   32.2509   29.9675 H   0  0  0  0  0  0  0  0  0  0  0  0
   38.2756   30.4113   26.5859 H   0  0  0  0  0  0  0  0  0  0  0  0
   38.0548   28.6205   28.4732 H   0  0  0  0  0  0  0  0  0  0  0  0
  1  5  2  0
  1 10  1  0
  2  1  1  0
  3  2  2  0
  3  4  1  0
  4  5  1  0
  6  7  2  0
  7  8  1  0
  8 12  1  0
  9  8  2  0
 10  9  1  0
 11 10  2  0
 11  6  1  0
 12 13  1  0
 12 15  1  0
 12 14  1  0
 16  4  1  0
 16 17  2  0
 18 17  1  0
 19 18  2  0
 20 21  2  0
 20 19  1  0
 21 16  1  0
 22 20  1  0
 23 22  2  0
 24 23  1  0
 25 24  2  0
 25 26  1  0
 26 22  1  0
  2 27  1  0
  3 28  1  0
  6 29  1  0
  7 30  1  0
 17 31  1  0
 18 32  1  0
 23 33  1  0
 25 34  1  0
 26 35  1  0
M  ISO  8  27  14  28  14  29  14  30  14  31  14  32  14  33  14  34  14
M  ISO  1  35   9
M  END
>  <minimizedAffinity>  (1) 
-5.84394693

>  <minimizedRMSD>  (1) 
2.34648824

$$$$
