
     RDKit          3D

 26 28  0  0  0  0  0  0  0  0999 V2000
   38.5770   23.7530   37.2780 C   0  0  0  0  0  0  0  0  0  0  0  0
   39.1460   24.4130   36.1670 C   0  0  0  0  0  0  0  0  0  0  0  0
   40.4080   23.9910   35.7950 C   0  0  0  0  0  0  0  0  0  0  0  0
   40.9970   23.0040   36.4980 N   0  0  0  0  0  0  0  0  0  0  0  0
   40.4370   22.3900   37.5540 C   0  0  0  0  0  0  0  0  0  0  0  0
   39.1980   22.7870   37.9380 N   0  0  0  0  0  0  0  0  0  0  0  0
   41.0860   24.5790   34.6800 N   0  0  0  0  0  0  0  0  0  0  0  0
   40.6550   24.3590   33.4100 C   0  0  0  0  0  0  0  0  0  0  0  0
   41.4980   25.0520   32.6010 C   0  0  0  0  0  0  0  0  0  0  0  0
   42.4240   25.6810   33.3680 N   0  0  0  0  0  0  0  0  0  0  0  0
   42.1640   25.3830   34.6710 C   0  0  0  0  0  0  0  0  0  0  0  0
   38.4380   25.4710   35.4770 C   0  0  0  0  0  0  0  0  0  0  0  0
   38.4520   26.7610   35.9570 C   0  0  0  0  0  0  0  0  0  0  0  0
   37.7990   27.8140   35.3490 C   0  0  0  0  0  0  0  0  0  0  0  0
   37.0820   27.6120   34.1970 C   0  0  0  0  0  0  0  0  0  0  0  0
   37.0720   26.3190   33.7200 C   0  0  0  0  0  0  0  0  0  0  0  0
   37.7270   25.3670   34.3690 N   0  0  0  0  0  0  0  0  0  0  0  0
   37.5727   24.0547   37.6104 H   0  0  0  0  0  0  0  0  0  0  0  0
   40.9673   21.5896   38.0908 H   0  0  0  0  0  0  0  0  0  0  0  0
   39.7972   23.7442   33.0999 H   0  0  0  0  0  0  0  0  0  0  0  0
   41.4395   25.0961   31.5034 H   0  0  0  0  0  0  0  0  0  0  0  0
   42.7278   25.7329   35.5483 H   0  0  0  0  0  0  0  0  0  0  0  0
   39.0165   26.9645   36.8789 H   0  0  0  0  0  0  0  0  0  0  0  0
   37.8537   28.8201   35.7903 H   0  0  0  0  0  0  0  0  0  0  0  0
   36.5498   28.4287   33.6873 H   0  0  0  0  0  0  0  0  0  0  0  0
   36.5199   26.0769   32.7999 H   0  0  0  0  0  0  0  0  0  0  0  0
  1  6  2  0
  2  1  1  0
  3  2  2  0
  3  4  1  0
  4  5  2  0
  5  6  1  0
  7  3  1  0
  8  7  1  0
  9 10  1  0
  9  8  2  0
 10 11  2  0
 11  7  1  0
 12 13  2  0
 12  2  1  0
 14 13  1  0
 15 14  2  0
 16 15  1  0
 16 17  2  0
 17 12  1  0
  1 18  1  0
  5 19  1  0
  8 20  1  0
  9 21  1  0
 11 22  1  0
 13 23  1  0
 14 24  1  0
 15 25  1  0
 16 26  1  0
M  ISO  8  18  14  19  14  20  14  21  14  22  14  23  14  24  14  25  14
M  ISO  1  26  14
M  END
>  <minimizedAffinity>  (1) 
-4.42780113

>  <minimizedRMSD>  (1) 
4.60677719

$$$$
