
     RDKit          3D

 26 27  0  0  0  0  0  0  0  0999 V2000
   40.3910   22.8320   36.3240 C   0  0  0  0  0  0  0  0  0  0  0  0
   39.3850   23.8090   36.1870 C   0  0  0  0  0  0  0  0  0  0  0  0
   39.7130   24.9590   35.4500 C   0  0  0  0  0  0  0  0  0  0  0  0
   40.9460   25.0650   34.9240 N   0  0  0  0  0  0  0  0  0  0  0  0
   41.8990   24.1110   35.0700 C   0  0  0  0  0  0  0  0  0  0  0  0
   41.5990   22.9850   35.7830 N   0  0  0  0  0  0  0  0  0  0  0  0
   38.7530   25.9960   35.2670 N   0  0  0  0  0  0  0  0  0  0  0  0
   37.6770   25.8210   34.4950 C   0  0  0  0  0  0  0  0  0  0  0  0
   36.9710   26.9820   34.5390 C   0  0  0  0  0  0  0  0  0  0  0  0
   37.6300   27.8550   35.3420 N   0  0  0  0  0  0  0  0  0  0  0  0
   38.7570   27.2410   35.8050 C   0  0  0  0  0  0  0  0  0  0  0  0
   38.0660   23.6300   36.7840 C   0  0  0  0  0  0  0  0  0  0  0  0
   38.1440   23.4770   38.2940 C   0  0  0  0  0  0  0  0  0  0  0  0
   37.4530   22.3550   36.1990 C   0  0  0  0  0  0  0  0  0  0  0  0
   40.1728   21.9168   36.8939 H   0  0  0  0  0  0  0  0  0  0  0  0
   42.8953   24.2416   34.6224 H   0  0  0  0  0  0  0  0  0  0  0  0
   37.4132   24.9132   33.9325 H   0  0  0  0  0  0  0  0  0  0  0  0
   36.0256   27.1801   34.0127 H   0  0  0  0  0  0  0  0  0  0  0  0
   39.5148   27.6688   36.4778 H   0  0  0  0  0  0  0  0  0  0  0  0
   37.4574   24.5191   36.5623 H   0  0  0  0  0  0  0  0  0  0  0  0
   37.6948   24.3581   38.7755 H   0  0  0  0  0  0  0  0  0  0  0  0
   37.5967   22.5731   38.5997 H   0  0  0  0  0  0  0  0  0  0  0  0
   39.1970   23.3890   38.5997 H   0  0  0  0  0  0  0  0  0  0  0  0
   37.1345   21.6925   37.0173 H   0  0  0  0  0  0  0  0  0  0  0  0
   36.5826   22.6174   35.5797 H   0  0  0  0  0  0  0  0  0  0  0  0
   38.2015   21.8390   35.5797 H   0  0  0  0  0  0  0  0  0  0  0  0
  2  1  2  0
  2 12  1  0
  3  2  1  0
  4  5  1  0
  4  3  2  0
  5  6  2  0
  6  1  1  0
  7  3  1  0
  7 11  1  0
  8  9  2  0
  8  7  1  0
  9 10  1  0
 10 11  2  0
 12 13  1  0
 14 12  1  0
  1 15  1  0
  5 16  1  0
  8 17  1  0
  9 18  1  0
 11 19  1  0
 12 20  1  0
 13 21  1  0
 13 22  1  0
 13 23  1  0
 14 24  1  0
 14 25  1  0
 14 26  1  0
M  ISO  8  15  14  16  14  17  14  18  14  19  14  20   8  21   8  22   8
M  ISO  4  23   8  24   8  25   8  26   8
M  END
>  <minimizedAffinity>  (1) 
-3.95140862

>  <minimizedRMSD>  (1) 
2.67460275

$$$$
