
     RDKit          3D

 24 25  0  0  0  0  0  0  0  0999 V2000
   41.9700   22.2620   36.8790 C   0  0  0  0  0  0  0  0  0  0  0  0
   40.7500   22.7520   36.3980 C   0  0  0  0  0  0  0  0  0  0  0  0
   40.8310   23.9020   35.5910 C   0  0  0  0  0  0  0  0  0  0  0  0
   42.0330   24.4430   35.3400 N   0  0  0  0  0  0  0  0  0  0  0  0
   43.1820   23.9430   35.8210 C   0  0  0  0  0  0  0  0  0  0  0  0
   43.1440   22.8430   36.5970 N   0  0  0  0  0  0  0  0  0  0  0  0
   39.6370   24.4930   35.0380 N   0  0  0  0  0  0  0  0  0  0  0  0
   38.9530   23.8570   34.0520 C   0  0  0  0  0  0  0  0  0  0  0  0
   37.9010   24.6700   33.7640 C   0  0  0  0  0  0  0  0  0  0  0  0
   37.9550   25.7510   34.5480 N   0  0  0  0  0  0  0  0  0  0  0  0
   39.0500   25.6490   35.3580 C   0  0  0  0  0  0  0  0  0  0  0  0
   39.4950   22.1560   36.6910 N   0  0  0  0  0  0  0  0  0  0  0  0
   38.5410   22.6570   37.6200 C   0  0  0  0  0  0  0  0  0  0  0  0
   39.0740   23.0450   38.7500 N   0  0  0  0  0  0  0  0  0  0  0  0
   37.1580   22.6680   37.2030 N   0  0  0  0  0  0  0  0  0  0  0  0
   38.5470   23.4350   39.5410 H   0  0  0  0  0  0  0  0  0  0  0  0
   41.9646   21.3638   37.5140 H   0  0  0  0  0  0  0  0  0  0  0  0
   44.1419   24.4253   35.5845 H   0  0  0  0  0  0  0  0  0  0  0  0
   39.1974   22.8910   33.5859 H   0  0  0  0  0  0  0  0  0  0  0  0
   37.1289   24.4696   33.0065 H   0  0  0  0  0  0  0  0  0  0  0  0
   39.3808   26.3715   36.1186 H   0  0  0  0  0  0  0  0  0  0  0  0
   39.2554   21.2889   36.1893 H   0  0  0  0  0  0  0  0  0  0  0  0
   36.4306   23.0214   37.8408 H   0  0  0  0  0  0  0  0  0  0  0  0
   36.8993   22.3224   36.2678 H   0  0  0  0  0  0  0  0  0  0  0  0
  2 12  1  0
  2  1  2  0
  3  2  1  0
  4  3  2  0
  4  5  1  0
  5  6  2  0
  6  1  1  0
  7 11  1  0
  7  3  1  0
  8  7  1  0
  9  8  2  0
  9 10  1  0
 10 11  2  0
 12 13  1  0
 13 14  2  0
 14 16  1  0
 15 13  1  0
  1 17  1  0
  5 18  1  0
  8 19  1  0
  9 20  1  0
 11 21  1  0
 12 22  1  0
 15 23  1  0
 15 24  1  0
M  ISO  5  17  14  18  14  19  14  20  14  21  14
M  END
>  <minimizedAffinity>  (1) 
-4.08212042

>  <minimizedRMSD>  (1) 
2.21819806

$$$$
