
     RDKit          3D

 23 25  0  0  0  0  0  0  0  0999 V2000
   38.3600   23.8110   37.1170 C   0  0  0  0  0  0  0  0  0  0  0  0
   38.9730   24.4140   36.0060 C   0  0  0  0  0  0  0  0  0  0  0  0
   40.2880   24.0560   35.7460 C   0  0  0  0  0  0  0  0  0  0  0  0
   40.8920   23.1650   36.5610 N   0  0  0  0  0  0  0  0  0  0  0  0
   40.2930   22.5980   37.6190 C   0  0  0  0  0  0  0  0  0  0  0  0
   38.9950   22.9410   37.8880 N   0  0  0  0  0  0  0  0  0  0  0  0
   40.9940   24.6090   34.6320 N   0  0  0  0  0  0  0  0  0  0  0  0
   40.6640   24.2650   33.3590 C   0  0  0  0  0  0  0  0  0  0  0  0
   41.5410   24.9780   32.5720 C   0  0  0  0  0  0  0  0  0  0  0  0
   42.3480   25.7070   33.3460 N   0  0  0  0  0  0  0  0  0  0  0  0
   42.0230   25.4920   34.6560 C   0  0  0  0  0  0  0  0  0  0  0  0
   38.2630   25.3770   35.1650 C   0  0  0  0  0  0  0  0  0  0  0  0
   38.1510   26.7280   35.5690 C   0  0  0  0  0  0  0  0  0  0  0  0
   37.2170   27.5050   34.2430 S   0  0  0  0  0  0  0  0  0  0  0  0
   37.1010   25.8810   33.3120 C   0  0  0  0  0  0  0  0  0  0  0  0
   37.6620   25.2180   34.0190 N   0  0  0  0  0  0  0  0  0  0  0  0
   37.3177   24.0700   37.3546 H   0  0  0  0  0  0  0  0  0  0  0  0
   40.8300   21.8772   38.2531 H   0  0  0  0  0  0  0  0  0  0  0  0
   39.8743   23.5730   33.0312 H   0  0  0  0  0  0  0  0  0  0  0  0
   41.5717   24.9508   31.4728 H   0  0  0  0  0  0  0  0  0  0  0  0
   42.4960   25.9403   35.5422 H   0  0  0  0  0  0  0  0  0  0  0  0
   38.5445   27.1956   36.4836 H   0  0  0  0  0  0  0  0  0  0  0  0
   36.6210   25.6474   32.3502 H   0  0  0  0  0  0  0  0  0  0  0  0
  1  6  2  0
  2  1  1  0
  3  2  2  0
  3  4  1  0
  4  5  2  0
  5  6  1  0
  7 11  1  0
  7  3  1  0
  8  7  1  0
  9 10  1  0
  9  8  2  0
 10 11  2  0
 12 13  2  0
 12  2  1  0
 14 13  1  0
 15 16  2  0
 15 14  1  0
 16 12  1  0
  1 17  1  0
  5 18  1  0
  8 19  1  0
  9 20  1  0
 11 21  1  0
 13 22  1  0
 15 23  1  0
M  ISO  7  17  14  18  14  19  14  20  14  21  14  22  14  23  14
M  END
>  <minimizedAffinity>  (1) 
-3.73835874

>  <minimizedRMSD>  (1) 
4.53879642

$$$$
