
     RDKit          3D

 19 20  0  0  0  0  0  0  0  0999 V2000
   41.8190   21.0610   37.6270 C   0  0  0  0  0  0  0  0  0  0  0  0
   40.8830   22.0320   37.2600 C   0  0  0  0  0  0  0  0  0  0  0  0
   40.9440   22.5380   35.9480 C   0  0  0  0  0  0  0  0  0  0  0  0
   41.8930   22.0610   35.1230 N   0  0  0  0  0  0  0  0  0  0  0  0
   42.7890   21.1240   35.4960 C   0  0  0  0  0  0  0  0  0  0  0  0
   42.7440   20.6260   36.7580 N   0  0  0  0  0  0  0  0  0  0  0  0
   40.0170   23.5320   35.5060 N   0  0  0  0  0  0  0  0  0  0  0  0
   38.7140   23.2270   35.3180 C   0  0  0  0  0  0  0  0  0  0  0  0
   38.1190   24.3790   34.9040 C   0  0  0  0  0  0  0  0  0  0  0  0
   39.0510   25.3520   34.8470 N   0  0  0  0  0  0  0  0  0  0  0  0
   40.2490   24.8300   35.2240 C   0  0  0  0  0  0  0  0  0  0  0  0
   39.8940   22.5070   38.1680 N   0  0  0  0  0  0  0  0  0  0  0  0
   41.7969   20.6464   38.6456 H   0  0  0  0  0  0  0  0  0  0  0  0
   43.5484   20.7671   34.7847 H   0  0  0  0  0  0  0  0  0  0  0  0
   38.2333   22.2491   35.4685 H   0  0  0  0  0  0  0  0  0  0  0  0
   37.0537   24.4969   34.6567 H   0  0  0  0  0  0  0  0  0  0  0  0
   41.2114   25.3591   35.2862 H   0  0  0  0  0  0  0  0  0  0  0  0
   39.2188   23.2235   37.8654 H   0  0  0  0  0  0  0  0  0  0  0  0
   39.8539   22.1340   39.1273 H   0  0  0  0  0  0  0  0  0  0  0  0
  2  1  2  0
  2 12  1  0
  3  2  1  0
  4  5  1  0
  4  3  2  0
  5  6  2  0
  6  1  1  0
  7  3  1  0
  8  7  1  0
  9  8  2  0
 10  9  1  0
 10 11  2  0
 11  7  1  0
  1 13  1  0
  5 14  1  0
  8 15  1  0
  9 16  1  0
 11 17  1  0
 12 18  1  0
 12 19  1  0
M  ISO  5  13  14  14  14  15  14  16  14  17  14
M  END
>  <minimizedAffinity>  (1) 
-3.3337481

>  <minimizedRMSD>  (1) 
0.660213828

$$$$
