
     RDKit          3D

 28 30  0  0  0  0  0  0  0  0999 V2000
   37.0690   21.7360   33.3030 C   0  0  0  0  0  0  0  0  0  0  0  0
   37.5410   23.0510   33.3180 C   0  0  0  0  0  0  0  0  0  0  0  0
   37.0830   23.9300   32.3310 C   0  0  0  0  0  0  0  0  0  0  0  0
   36.2200   23.4550   31.4320 N   0  0  0  0  0  0  0  0  0  0  0  0
   35.7600   22.1840   31.4120 C   0  0  0  0  0  0  0  0  0  0  0  0
   36.2090   21.3230   32.3800 N   0  0  0  0  0  0  0  0  0  0  0  0
   37.5280   25.2690   32.3000 N   0  0  0  0  0  0  0  0  0  0  0  0
   37.1510   26.1590   33.2310 C   0  0  0  0  0  0  0  0  0  0  0  0
   37.7430   27.3290   32.9130 C   0  0  0  0  0  0  0  0  0  0  0  0
   38.4760   27.1520   31.7940 N   0  0  0  0  0  0  0  0  0  0  0  0
   38.3480   25.8650   31.4030 C   0  0  0  0  0  0  0  0  0  0  0  0
   38.4960   23.5540   34.3230 C   0  0  0  0  0  0  0  0  0  0  0  0
   38.7470   22.5220   35.4090 C   0  0  0  0  0  0  0  0  0  0  0  0
   38.6040   23.1240   36.7620 C   0  0  0  0  0  0  0  0  0  0  0  0
   39.4270   22.8940   37.8220 N   0  0  0  0  0  0  0  0  0  0  0  0
   38.9850   23.5880   38.8160 O   0  0  0  0  0  0  0  0  0  0  0  0
   37.9080   24.2750   38.4870 C   0  0  0  0  0  0  0  0  0  0  0  0
   37.6580   23.9910   37.1960 N   0  0  0  0  0  0  0  0  0  0  0  0
   37.4168   21.0293   34.0709 H   0  0  0  0  0  0  0  0  0  0  0  0
   35.0475   21.8508   30.6430 H   0  0  0  0  0  0  0  0  0  0  0  0
   36.4874   25.9709   34.0879 H   0  0  0  0  0  0  0  0  0  0  0  0
   37.6445   28.2707   33.4729 H   0  0  0  0  0  0  0  0  0  0  0  0
   38.8181   25.3938   30.5272 H   0  0  0  0  0  0  0  0  0  0  0  0
   39.4484   23.7903   33.8259 H   0  0  0  0  0  0  0  0  0  0  0  0
   38.0679   24.4532   34.7900 H   0  0  0  0  0  0  0  0  0  0  0  0
   38.0206   21.7030   35.3014 H   0  0  0  0  0  0  0  0  0  0  0  0
   39.7743   22.1436   35.3013 H   0  0  0  0  0  0  0  0  0  0  0  0
   37.3295   24.9464   39.1386 H   0  0  0  0  0  0  0  0  0  0  0  0
  1  2  2  0
  2 12  1  0
  3  2  1  0
  4  3  2  0
  5  4  1  0
  5  6  2  0
  6  1  1  0
  7  3  1  0
  7  8  1  0
  9  8  2  0
 10  9  1  0
 11 10  2  0
 11  7  1  0
 12 13  1  0
 13 14  1  0
 14 18  1  0
 14 15  2  0
 15 16  1  0
 17 16  1  0
 18 17  2  0
  1 19  1  0
  5 20  1  0
  8 21  1  0
  9 22  1  0
 11 23  1  0
 12 24  1  0
 12 25  1  0
 13 26  1  0
 13 27  1  0
 17 28  1  0
M  ISO  8  19  14  20  14  21  14  22  14  23  14  24   8  25   8  26   8
M  ISO  2  27   8  28  14
M  END
>  <minimizedAffinity>  (1) 
-4.39723301

>  <minimizedRMSD>  (1) 
4.29256916

$$$$
