
     RDKit          3D

 30 32  0  0  0  0  0  0  0  0999 V2000
   40.8250   21.6670   33.7160 C   0  0  0  0  0  0  0  0  0  0  0  0
   39.4340   21.8000   33.6720 C   0  0  0  0  0  0  0  0  0  0  0  0
   38.7880   21.5560   32.4660 C   0  0  0  0  0  0  0  0  0  0  0  0
   39.5350   21.2050   31.4090 N   0  0  0  0  0  0  0  0  0  0  0  0
   40.8820   21.0760   31.4540 C   0  0  0  0  0  0  0  0  0  0  0  0
   41.5190   21.3150   32.6320 N   0  0  0  0  0  0  0  0  0  0  0  0
   37.3750   21.6740   32.3550 N   0  0  0  0  0  0  0  0  0  0  0  0
   36.5630   20.7800   32.9610 C   0  0  0  0  0  0  0  0  0  0  0  0
   35.3010   21.1640   32.6700 C   0  0  0  0  0  0  0  0  0  0  0  0
   35.3480   22.2850   31.8900 N   0  0  0  0  0  0  0  0  0  0  0  0
   36.6560   22.5980   31.6980 C   0  0  0  0  0  0  0  0  0  0  0  0
   38.6200   22.1880   34.8370 C   0  0  0  0  0  0  0  0  0  0  0  0
   39.4650   22.2190   36.1050 C   0  0  0  0  0  0  0  0  0  0  0  0
   38.9050   23.1550   37.0580 N   0  0  0  0  0  0  0  0  0  0  0  0
   38.8500   23.1590   38.3720 N   0  0  0  0  0  0  0  0  0  0  0  0
   38.2170   24.2600   38.8190 C   0  0  0  0  0  0  0  0  0  0  0  0
   37.8390   25.0140   37.7110 C   0  0  0  0  0  0  0  0  0  0  0  0
   38.2930   24.2790   36.6360 C   0  0  0  0  0  0  0  0  0  0  0  0
   41.3565   21.8558   34.6604 H   0  0  0  0  0  0  0  0  0  0  0  0
   41.4489   20.7843   30.5576 H   0  0  0  0  0  0  0  0  0  0  0  0
   36.8678   19.9149   33.5682 H   0  0  0  0  0  0  0  0  0  0  0  0
   34.3846   20.6568   33.0062 H   0  0  0  0  0  0  0  0  0  0  0  0
   37.0498   23.4447   31.1167 H   0  0  0  0  0  0  0  0  0  0  0  0
   38.1953   23.1876   34.6627 H   0  0  0  0  0  0  0  0  0  0  0  0
   37.8176   21.4470   34.9675 H   0  0  0  0  0  0  0  0  0  0  0  0
   39.4858   21.2142   36.5522 H   0  0  0  0  0  0  0  0  0  0  0  0
   40.4860   22.5374   35.8476 H   0  0  0  0  0  0  0  0  0  0  0  0
   38.0314   24.5180   39.8721 H   0  0  0  0  0  0  0  0  0  0  0  0
   37.3023   25.9741   37.6965 H   0  0  0  0  0  0  0  0  0  0  0  0
   38.1725   24.5695   35.5819 H   0  0  0  0  0  0  0  0  0  0  0  0
  2  1  2  0
  2 12  1  0
  3  2  1  0
  4  5  1  0
  4  3  2  0
  5  6  2  0
  6  1  1  0
  7  3  1  0
  7  8  1  0
  9  8  2  0
 10  9  1  0
 11 10  2  0
 11  7  1  0
 12 13  1  0
 13 14  1  0
 14 15  1  0
 15 16  2  0
 17 16  1  0
 18 14  1  0
 18 17  2  0
  1 19  1  0
  5 20  1  0
  8 21  1  0
  9 22  1  0
 11 23  1  0
 12 24  1  0
 12 25  1  0
 13 26  1  0
 13 27  1  0
 16 28  1  0
 17 29  1  0
 18 30  1  0
M  ISO  8  19  14  20  14  21  14  22  14  23  14  24   8  25   8  26   8
M  ISO  4  27   8  28  14  29  14  30  14
M  END
>  <minimizedAffinity>  (1) 
-3.58773208

>  <minimizedRMSD>  (1) 
4.67286348

$$$$
