
     RDKit          3D

 24 25  0  0  0  0  0  0  0  0999 V2000
   40.9100   23.5930   35.7290 C   0  0  0  0  0  0  0  0  0  0  0  0
   39.7390   24.3280   35.5170 C   0  0  0  0  0  0  0  0  0  0  0  0
   39.8540   25.6270   35.0210 C   0  0  0  0  0  0  0  0  0  0  0  0
   41.0840   26.0930   34.7780 N   0  0  0  0  0  0  0  0  0  0  0  0
   42.2150   25.3890   34.9800 C   0  0  0  0  0  0  0  0  0  0  0  0
   42.0990   24.1060   35.4700 N   0  0  0  0  0  0  0  0  0  0  0  0
   38.7030   26.4180   34.7890 N   0  0  0  0  0  0  0  0  0  0  0  0
   37.8530   26.1470   33.8010 C   0  0  0  0  0  0  0  0  0  0  0  0
   36.8760   27.0770   33.8500 C   0  0  0  0  0  0  0  0  0  0  0  0
   37.1400   27.9230   34.8850 N   0  0  0  0  0  0  0  0  0  0  0  0
   38.2870   27.5080   35.4730 C   0  0  0  0  0  0  0  0  0  0  0  0
   38.3840   23.7980   35.7920 C   0  0  0  0  0  0  0  0  0  0  0  0
   37.8650   24.3060   37.1240 C   0  0  0  0  0  0  0  0  0  0  0  0
   38.5210   23.3620   38.5000 S   0  0  0  0  0  0  0  0  0  0  0  0
   40.8391   22.5670   36.1193 H   0  0  0  0  0  0  0  0  0  0  0  0
   43.2008   25.8249   34.7605 H   0  0  0  0  0  0  0  0  0  0  0  0
   37.9320   25.3201   33.0798 H   0  0  0  0  0  0  0  0  0  0  0  0
   36.0136   27.1410   33.1702 H   0  0  0  0  0  0  0  0  0  0  0  0
   38.7843   27.9684   36.3395 H   0  0  0  0  0  0  0  0  0  0  0  0
   37.7014   24.1214   34.9923 H   0  0  0  0  0  0  0  0  0  0  0  0
   38.4369   22.7000   35.8306 H   0  0  0  0  0  0  0  0  0  0  0  0
   38.1597   25.3592   37.2424 H   0  0  0  0  0  0  0  0  0  0  0  0
   36.7703   24.1982   37.1273 H   0  0  0  0  0  0  0  0  0  0  0  0
   38.1224   23.9356   39.6786 H   0  0  0  0  0  0  0  0  0  0  0  0
  2  1  2  0
  2 12  1  0
  3  2  1  0
  4  5  1  0
  4  3  2  0
  5  6  2  0
  6  1  1  0
  7  3  1  0
  7 11  1  0
  8  9  2  0
  8  7  1  0
  9 10  1  0
 10 11  2  0
 12 13  1  0
 13 14  1  0
  1 15  1  0
  5 16  1  0
  8 17  1  0
  9 18  1  0
 11 19  1  0
 12 20  1  0
 12 21  1  0
 13 22  1  0
 13 23  1  0
 14 24  1  0
M  ISO  8  15  14  16  14  17  14  18  14  19  14  20   8  21   8  22   8
M  ISO  2  23   8  24  11
M  END
>  <minimizedAffinity>  (1) 
-3.4906621

>  <minimizedRMSD>  (1) 
1.37843144

$$$$
