
     RDKit          3D

 45 48  0  0  0  0  0  0  0  0999 V2000
   38.5070   25.4410   35.0450 C   0  0  0  0  0  0  0  0  0  0  0  0
   37.6860   25.4890   33.8410 N   0  0  0  0  0  0  0  0  0  0  0  0
   37.3740   24.3960   33.1070 C   0  0  0  0  0  0  0  0  0  0  0  0
   36.5720   24.5040   31.9920 C   0  0  0  0  0  0  0  0  0  0  0  0
   36.0620   25.7450   31.5970 C   0  0  0  0  0  0  0  0  0  0  0  0
   35.3240   25.9140   30.5880 O   0  0  0  0  0  0  0  0  0  0  0  0
   36.3880   26.8170   32.3460 N   0  0  0  0  0  0  0  0  0  0  0  0
   37.1700   26.6630   33.4210 C   0  0  0  0  0  0  0  0  0  0  0  0
   37.4460   27.6810   34.0930 O   0  0  0  0  0  0  0  0  0  0  0  0
   35.9040   28.1180   32.0030 C   0  0  0  0  0  0  0  0  0  0  0  0
   36.6670   28.8190   31.0650 C   0  0  0  0  0  0  0  0  0  0  0  0
   36.3240   30.0790   30.6400 C   0  0  0  0  0  0  0  0  0  0  0  0
   35.1910   30.6750   31.1540 C   0  0  0  0  0  0  0  0  0  0  0  0
   34.4580   29.9510   32.0830 C   0  0  0  0  0  0  0  0  0  0  0  0
   34.7860   28.7010   32.5130 N   0  0  0  0  0  0  0  0  0  0  0  0
   36.2240   23.3180   31.1750 C   0  0  0  0  0  0  0  0  0  0  0  0
   39.8860   24.9020   34.7750 C   0  0  0  0  0  0  0  0  0  0  0  0
   39.4150   23.2120   36.5310 C   0  0  0  0  0  0  0  0  0  0  0  0
   40.3130   23.8880   35.7230 C   0  0  0  0  0  0  0  0  0  0  0  0
   41.6710   23.5590   35.8090 C   0  0  0  0  0  0  0  0  0  0  0  0
   42.0140   22.5940   36.6810 N   0  0  0  0  0  0  0  0  0  0  0  0
   41.1370   21.9380   37.4640 C   0  0  0  0  0  0  0  0  0  0  0  0
   39.8080   22.2630   37.3800 N   0  0  0  0  0  0  0  0  0  0  0  0
   42.6270   24.2240   35.0210 N   0  0  0  0  0  0  0  0  0  0  0  0
   43.0090   23.7410   33.8360 C   0  0  0  0  0  0  0  0  0  0  0  0
   43.9260   24.6060   33.3460 C   0  0  0  0  0  0  0  0  0  0  0  0
   44.0970   25.6040   34.2260 N   0  0  0  0  0  0  0  0  0  0  0  0
   43.2860   25.3670   35.2740 C   0  0  0  0  0  0  0  0  0  0  0  0
   38.5985   26.4590   35.4516 H   0  0  0  0  0  0  0  0  0  0  0  0
   38.0157   24.7652   35.7605 H   0  0  0  0  0  0  0  0  0  0  0  0
   37.7646   23.4113   33.4035 H   0  0  0  0  0  0  0  0  0  0  0  0
   37.5712   28.3463   30.6540 H   0  0  0  0  0  0  0  0  0  0  0  0
   36.9442   30.6058   29.8999 H   0  0  0  0  0  0  0  0  0  0  0  0
   34.8815   31.6828   30.8401 H   0  0  0  0  0  0  0  0  0  0  0  0
   33.5528   30.4169   32.4995 H   0  0  0  0  0  0  0  0  0  0  0  0
   35.9769   22.4758   31.8380 H   0  0  0  0  0  0  0  0  0  0  0  0
   35.3566   23.5517   30.5402 H   0  0  0  0  0  0  0  0  0  0  0  0
   37.0802   23.0460   30.5402 H   0  0  0  0  0  0  0  0  0  0  0  0
   39.8952   24.4610   33.7673 H   0  0  0  0  0  0  0  0  0  0  0  0
   40.5851   25.7459   34.8706 H   0  0  0  0  0  0  0  0  0  0  0  0
   38.3463   23.4655   36.4705 H   0  0  0  0  0  0  0  0  0  0  0  0
   41.4803   21.1564   38.1577 H   0  0  0  0  0  0  0  0  0  0  0  0
   42.6487   22.8206   33.3533 H   0  0  0  0  0  0  0  0  0  0  0  0
   44.4470   24.5072   32.3823 H   0  0  0  0  0  0  0  0  0  0  0  0
   43.1821   25.9937   36.1720 H   0  0  0  0  0  0  0  0  0  0  0  0
  2  1  1  0
  3  2  1  0
  4  3  2  0
  5  4  1  0
  5  7  1  0
  6  5  2  0
  7  8  1  0
  8  2  1  0
  8  9  2  0
 10  7  1  0
 10 15  1  0
 11 10  2  0
 12 11  1  0
 12 13  2  0
 13 14  1  0
 14 15  2  0
 16  4  1  0
 17  1  1  0
 17 19  1  0
 18 23  2  0
 19 20  2  0
 19 18  1  0
 20 21  1  0
 21 22  2  0
 23 22  1  0
 24 28  1  0
 24 20  1  0
 25 24  1  0
 26 25  2  0
 26 27  1  0
 27 28  2  0
  1 29  1  0
  1 30  1  0
  3 31  1  0
 11 32  1  0
 12 33  1  0
 13 34  1  0
 14 35  1  0
 16 36  1  0
 16 37  1  0
 16 38  1  0
 17 39  1  0
 17 40  1  0
 18 41  1  0
 22 42  1  0
 25 43  1  0
 26 44  1  0
 28 45  1  0
M  ISO  8  29   8  30   8  31  14  32  14  33  14  34  14  35  14  36   8
M  ISO  8  37   8  38   8  39   8  40   8  41  14  42  14  43  14  44  14
M  ISO  1  45  14
M  END
>  <minimizedAffinity>  (1) 
-5.30519676

>  <minimizedRMSD>  (1) 
2.8613255

$$$$
