
     RDKit          3D

 50 54  0  0  0  0  0  0  0  0999 V2000
   37.4400   27.4150   32.8150 N   0  0  0  0  0  0  0  0  0  0  0  0
   37.8000   27.9850   31.6410 C   0  0  0  0  0  0  0  0  0  0  0  0
   37.1690   29.1160   31.1990 C   0  0  0  0  0  0  0  0  0  0  0  0
   36.1510   29.7200   31.9150 C   0  0  0  0  0  0  0  0  0  0  0  0
   35.5330   30.7580   31.5640 O   0  0  0  0  0  0  0  0  0  0  0  0
   35.7960   29.1550   33.0760 N   0  0  0  0  0  0  0  0  0  0  0  0
   36.4470   28.0370   33.4760 C   0  0  0  0  0  0  0  0  0  0  0  0
   36.0890   27.5210   34.5800 O   0  0  0  0  0  0  0  0  0  0  0  0
   34.7610   29.6910   33.8990 C   0  0  0  0  0  0  0  0  0  0  0  0
   33.4480   29.3070   33.6890 C   0  0  0  0  0  0  0  0  0  0  0  0
   32.6530   29.9360   34.5750 N   0  0  0  0  0  0  0  0  0  0  0  0
   33.4340   30.7150   35.3490 C   0  0  0  0  0  0  0  0  0  0  0  0
   33.1820   31.5710   36.4030 C   0  0  0  0  0  0  0  0  0  0  0  0
   34.2120   32.2540   37.0170 C   0  0  0  0  0  0  0  0  0  0  0  0
   35.5090   32.0810   36.5740 C   0  0  0  0  0  0  0  0  0  0  0  0
   35.8370   31.2310   35.5120 C   0  0  0  0  0  0  0  0  0  0  0  0
   34.7530   30.5910   34.9600 C   0  0  0  0  0  0  0  0  0  0  0  0
   37.5570   29.7430   29.8990 C   0  0  0  0  0  0  0  0  0  0  0  0
   38.0290   26.1950   33.3410 C   0  0  0  0  0  0  0  0  0  0  0  0
   38.9220   26.4630   34.5240 C   0  0  0  0  0  0  0  0  0  0  0  0
   37.9520   25.1120   36.3750 C   0  0  0  0  0  0  0  0  0  0  0  0
   38.9680   25.3570   35.4660 C   0  0  0  0  0  0  0  0  0  0  0  0
   40.0630   24.4860   35.4650 C   0  0  0  0  0  0  0  0  0  0  0  0
   40.0660   23.4760   36.3310 N   0  0  0  0  0  0  0  0  0  0  0  0
   39.0760   23.2380   37.2130 C   0  0  0  0  0  0  0  0  0  0  0  0
   37.9960   24.0870   37.2240 N   0  0  0  0  0  0  0  0  0  0  0  0
   41.1400   24.6990   34.5630 N   0  0  0  0  0  0  0  0  0  0  0  0
   41.2030   24.0690   33.3840 C   0  0  0  0  0  0  0  0  0  0  0  0
   42.3350   24.4900   32.7810 C   0  0  0  0  0  0  0  0  0  0  0  0
   42.9560   25.3680   33.5880 N   0  0  0  0  0  0  0  0  0  0  0  0
   42.2090   25.5000   34.7030 C   0  0  0  0  0  0  0  0  0  0  0  0
   38.6041   27.5366   31.0391 H   0  0  0  0  0  0  0  0  0  0  0  0
   33.1074   28.5990   32.9191 H   0  0  0  0  0  0  0  0  0  0  0  0
   31.6302   29.8391   34.6482 H   0  0  0  0  0  0  0  0  0  0  0  0
   32.1497   31.7098   36.7567 H   0  0  0  0  0  0  0  0  0  0  0  0
   34.0011   32.9335   37.8559 H   0  0  0  0  0  0  0  0  0  0  0  0
   36.3165   32.6338   37.0764 H   0  0  0  0  0  0  0  0  0  0  0  0
   36.8667   31.0882   35.1523 H   0  0  0  0  0  0  0  0  0  0  0  0
   38.1269   30.6639   30.0917 H   0  0  0  0  0  0  0  0  0  0  0  0
   38.1786   29.0407   29.3242 H   0  0  0  0  0  0  0  0  0  0  0  0
   36.6511   29.9859   29.3242 H   0  0  0  0  0  0  0  0  0  0  0  0
   37.2212   25.5165   33.6525 H   0  0  0  0  0  0  0  0  0  0  0  0
   38.6433   25.7450   32.5471 H   0  0  0  0  0  0  0  0  0  0  0  0
   39.9415   26.6530   34.1571 H   0  0  0  0  0  0  0  0  0  0  0  0
   38.5078   27.3312   35.0576 H   0  0  0  0  0  0  0  0  0  0  0  0
   37.0820   25.7848   36.3962 H   0  0  0  0  0  0  0  0  0  0  0  0
   39.1309   22.3859   37.9065 H   0  0  0  0  0  0  0  0  0  0  0  0
   40.4743   23.3485   32.9842 H   0  0  0  0  0  0  0  0  0  0  0  0
   42.6911   24.1675   31.7914 H   0  0  0  0  0  0  0  0  0  0  0  0
   42.4334   26.1437   35.5663 H   0  0  0  0  0  0  0  0  0  0  0  0
  1 19  1  0
  1  7  1  0
  2  1  1  0
  3  2  2  0
  3  4  1  0
  4  6  1  0
  5  4  2  0
  6  7  1  0
  6  9  1  0
  7  8  2  0
  9 17  1  0
 10  9  2  0
 10 11  1  0
 11 12  1  0
 12 13  2  0
 13 14  1  0
 15 14  2  0
 16 15  1  0
 17 12  1  0
 17 16  2  0
 18  3  1  0
 19 20  1  0
 20 22  1  0
 21 26  2  0
 22 21  1  0
 23 22  2  0
 23 24  1  0
 24 25  2  0
 25 26  1  0
 27 31  1  0
 27 23  1  0
 28 27  1  0
 29 28  2  0
 29 30  1  0
 30 31  2  0
  2 32  1  0
 10 33  1  0
 11 34  1  0
 13 35  1  0
 14 36  1  0
 15 37  1  0
 16 38  1  0
 18 39  1  0
 18 40  1  0
 18 41  1  0
 19 42  1  0
 19 43  1  0
 20 44  1  0
 20 45  1  0
 21 46  1  0
 25 47  1  0
 28 48  1  0
 29 49  1  0
 31 50  1  0
M  ISO  8  32  14  33  14  34   9  35  14  36  14  37  14  38  14  39   8
M  ISO  8  40   8  41   8  42   8  43   8  44   8  45   8  46  14  47  14
M  ISO  3  48  14  49  14  50  14
M  END
>  <minimizedAffinity>  (1) 
-6.14994049

>  <minimizedRMSD>  (1) 
3.87100744

$$$$
