
     RDKit          3D

 36 38  0  0  0  0  0  0  0  0999 V2000
   41.6160   21.6260   36.0140 C   0  0  0  0  0  0  0  0  0  0  0  0
   42.1250   22.9170   35.8640 C   0  0  0  0  0  0  0  0  0  0  0  0
   43.5090   23.0900   35.9040 C   0  0  0  0  0  0  0  0  0  0  0  0
   44.2620   22.0000   36.0840 N   0  0  0  0  0  0  0  0  0  0  0  0
   43.7770   20.7530   36.2290 C   0  0  0  0  0  0  0  0  0  0  0  0
   42.4280   20.5760   36.1920 N   0  0  0  0  0  0  0  0  0  0  0  0
   44.0820   24.3760   35.7580 N   0  0  0  0  0  0  0  0  0  0  0  0
   44.0490   25.0210   34.5730 C   0  0  0  0  0  0  0  0  0  0  0  0
   44.6710   26.2040   34.7640 C   0  0  0  0  0  0  0  0  0  0  0  0
   45.0780   26.2810   36.0480 N   0  0  0  0  0  0  0  0  0  0  0  0
   44.7080   25.1350   36.6680 C   0  0  0  0  0  0  0  0  0  0  0  0
   41.2720   24.0980   35.6670 C   0  0  0  0  0  0  0  0  0  0  0  0
   39.8030   23.7630   35.8890 C   0  0  0  0  0  0  0  0  0  0  0  0
   38.9470   24.4550   34.9430 N   0  0  0  0  0  0  0  0  0  0  0  0
   38.8770   24.1580   33.6310 C   0  0  0  0  0  0  0  0  0  0  0  0
   38.0410   24.8550   32.7820 C   0  0  0  0  0  0  0  0  0  0  0  0
   37.9580   24.5340   31.3320 C   0  0  0  0  0  0  0  0  0  0  0  0
   37.2410   25.8900   33.2580 C   0  0  0  0  0  0  0  0  0  0  0  0
   36.4500   26.5770   32.5510 O   0  0  0  0  0  0  0  0  0  0  0  0
   37.3180   26.1790   34.5710 N   0  0  0  0  0  0  0  0  0  0  0  0
   38.1530   25.4640   35.3490 C   0  0  0  0  0  0  0  0  0  0  0  0
   38.1930   25.7690   36.5720 O   0  0  0  0  0  0  0  0  0  0  0  0
   40.5278   21.4681   35.9855 H   0  0  0  0  0  0  0  0  0  0  0  0
   44.4540   19.8982   36.3738 H   0  0  0  0  0  0  0  0  0  0  0  0
   43.6033   24.6551   33.6363 H   0  0  0  0  0  0  0  0  0  0  0  0
   44.8214   26.9787   33.9977 H   0  0  0  0  0  0  0  0  0  0  0  0
   44.8878   24.8757   37.7218 H   0  0  0  0  0  0  0  0  0  0  0  0
   41.5728   24.8801   36.3796 H   0  0  0  0  0  0  0  0  0  0  0  0
   41.3958   24.4467   34.6311 H   0  0  0  0  0  0  0  0  0  0  0  0
   39.6625   22.6785   35.7701 H   0  0  0  0  0  0  0  0  0  0  0  0
   39.5263   24.0868   36.9032 H   0  0  0  0  0  0  0  0  0  0  0  0
   39.4981   23.3443   33.2283 H   0  0  0  0  0  0  0  0  0  0  0  0
   37.6845   23.4761   31.2057 H   0  0  0  0  0  0  0  0  0  0  0  0
   37.1945   25.1691   30.8590 H   0  0  0  0  0  0  0  0  0  0  0  0
   38.9336   24.7194   30.8590 H   0  0  0  0  0  0  0  0  0  0  0  0
   36.7469   26.9355   34.9742 H   0  0  0  0  0  0  0  0  0  0  0  0
  1  6  2  0
  2  3  2  0
  2  1  1  0
  3  4  1  0
  4  5  2  0
  6  5  1  0
  7  3  1  0
  7 11  1  0
  8  9  2  0
  8  7  1  0
  9 10  1  0
 10 11  2  0
 12  2  1  0
 12 13  1  0
 14 21  1  0
 14 13  1  0
 15 14  1  0
 16 18  1  0
 16 15  2  0
 17 16  1  0
 18 20  1  0
 19 18  2  0
 20 21  1  0
 21 22  2  0
  1 23  1  0
  5 24  1  0
  8 25  1  0
  9 26  1  0
 11 27  1  0
 12 28  1  0
 12 29  1  0
 13 30  1  0
 13 31  1  0
 15 32  1  0
 17 33  1  0
 17 34  1  0
 17 35  1  0
 20 36  1  0
M  ISO  8  23  14  24  14  25  14  26  14  27  14  28   8  29   8  30   8
M  ISO  6  31   8  32  14  33   8  34   8  35   8  36   9
M  END
>  <minimizedAffinity>  (1) 
-3.93222976

>  <minimizedRMSD>  (1) 
6.12189627

$$$$
