
     RDKit          3D

 28 30  0  0  0  0  0  0  0  0999 V2000
   37.7540   22.6130   34.8200 C   0  0  0  0  0  0  0  0  0  0  0  0
   38.0560   23.4600   33.7750 C   0  0  0  0  0  0  0  0  0  0  0  0
   37.6100   23.1450   32.5230 C   0  0  0  0  0  0  0  0  0  0  0  0
   36.8780   22.0090   32.3120 N   0  0  0  0  0  0  0  0  0  0  0  0
   36.5830   21.1800   33.3370 C   0  0  0  0  0  0  0  0  0  0  0  0
   37.0280   21.4960   34.5820 N   0  0  0  0  0  0  0  0  0  0  0  0
   37.8770   23.6950   38.3270 C   0  0  0  0  0  0  0  0  0  0  0  0
   39.1570   23.3020   38.7120 C   0  0  0  0  0  0  0  0  0  0  0  0
   39.9690   22.6640   37.7530 C   0  0  0  0  0  0  0  0  0  0  0  0
   39.4380   22.4780   36.5120 N   0  0  0  0  0  0  0  0  0  0  0  0
   38.1880   22.8760   36.1770 C   0  0  0  0  0  0  0  0  0  0  0  0
   37.4170   23.4770   37.0760 N   0  0  0  0  0  0  0  0  0  0  0  0
   38.8340   24.6680   33.9950 C   0  0  0  0  0  0  0  0  0  0  0  0
   38.1200   25.8000   34.3490 C   0  0  0  0  0  0  0  0  0  0  0  0
   38.7480   27.0070   34.5820 C   0  0  0  0  0  0  0  0  0  0  0  0
   40.1300   27.1100   34.4660 C   0  0  0  0  0  0  0  0  0  0  0  0
   40.8390   25.9790   34.1130 C   0  0  0  0  0  0  0  0  0  0  0  0
   40.2050   24.7770   33.8800 C   0  0  0  0  0  0  0  0  0  0  0  0
   37.8413   23.8100   31.6779 H   0  0  0  0  0  0  0  0  0  0  0  0
   35.9939   20.2666   33.1674 H   0  0  0  0  0  0  0  0  0  0  0  0
   37.2257   24.1946   39.0592 H   0  0  0  0  0  0  0  0  0  0  0  0
   39.5226   23.4841   39.7333 H   0  0  0  0  0  0  0  0  0  0  0  0
   40.9886   22.3302   37.9961 H   0  0  0  0  0  0  0  0  0  0  0  0
   37.0262   25.7361   34.4469 H   0  0  0  0  0  0  0  0  0  0  0  0
   38.1536   27.8898   34.8602 H   0  0  0  0  0  0  0  0  0  0  0  0
   40.6436   28.0651   34.6502 H   0  0  0  0  0  0  0  0  0  0  0  0
   41.9331   26.0382   34.0156 H   0  0  0  0  0  0  0  0  0  0  0  0
   40.7988   23.8947   33.5992 H   0  0  0  0  0  0  0  0  0  0  0  0
  1 11  1  0
  2 13  1  0
  2  1  1  0
  3  2  2  0
  4  3  1  0
  4  5  2  0
  5  6  1  0
  6  1  2  0
  7  8  2  0
  9  8  1  0
 10  9  2  0
 11 10  1  0
 11 12  2  0
 12  7  1  0
 13 14  2  0
 14 15  1  0
 16 15  2  0
 17 16  1  0
 18 13  1  0
 18 17  2  0
  3 19  1  0
  5 20  1  0
  7 21  1  0
  8 22  1  0
  9 23  1  0
 14 24  1  0
 15 25  1  0
 16 26  1  0
 17 27  1  0
 18 28  1  0
M  ISO  8  19  14  20  14  21  14  22  14  23  14  24  14  25  14  26  14
M  ISO  2  27  14  28  14
M  END
>  <minimizedAffinity>  (1) 
-4.75288868

>  <minimizedRMSD>  (1) 
5.05311298

$$$$
