
     RDKit          3D

 25 27  0  0  0  0  0  0  0  0999 V2000
   38.9940   23.7200   34.4300 C   0  0  0  0  0  0  0  0  0  0  0  0
   38.1560   22.9410   33.6300 C   0  0  0  0  0  0  0  0  0  0  0  0
   38.2330   23.0690   32.2720 C   0  0  0  0  0  0  0  0  0  0  0  0
   39.1060   23.9350   31.7200 N   0  0  0  0  0  0  0  0  0  0  0  0
   39.9250   24.6980   32.5000 C   0  0  0  0  0  0  0  0  0  0  0  0
   39.8550   24.5770   33.8660 N   0  0  0  0  0  0  0  0  0  0  0  0
   39.7290   22.7530   37.8940 C   0  0  0  0  0  0  0  0  0  0  0  0
   38.7860   23.5060   38.6140 C   0  0  0  0  0  0  0  0  0  0  0  0
   37.9010   24.3460   37.8840 C   0  0  0  0  0  0  0  0  0  0  0  0
   38.0310   24.3600   36.5240 N   0  0  0  0  0  0  0  0  0  0  0  0
   38.9510   23.6210   35.8770 C   0  0  0  0  0  0  0  0  0  0  0  0
   39.7950   22.8210   36.5590 N   0  0  0  0  0  0  0  0  0  0  0  0
   37.2270   22.0160   34.2680 C   0  0  0  0  0  0  0  0  0  0  0  0
   36.3670   21.2790   33.4460 C   0  0  0  0  0  0  0  0  0  0  0  0
   35.6060   20.4930   34.2970 C   0  0  0  0  0  0  0  0  0  0  0  0
   36.0330   20.7850   35.5770 C   0  0  0  0  0  0  0  0  0  0  0  0
   36.9720   21.6710   35.5150 O   0  0  0  0  0  0  0  0  0  0  0  0
   37.5801   22.4630   31.6266 H   0  0  0  0  0  0  0  0  0  0  0  0
   40.6336   25.4023   32.0397 H   0  0  0  0  0  0  0  0  0  0  0  0
   40.4248   22.0964   38.4369 H   0  0  0  0  0  0  0  0  0  0  0  0
   38.7340   23.4473   39.7112 H   0  0  0  0  0  0  0  0  0  0  0  0
   37.1430   24.9593   38.3932 H   0  0  0  0  0  0  0  0  0  0  0  0
   36.3072   21.3160   32.3483 H   0  0  0  0  0  0  0  0  0  0  0  0
   34.8195   19.7795   34.0100 H   0  0  0  0  0  0  0  0  0  0  0  0
   35.6380   20.3362   36.5003 H   0  0  0  0  0  0  0  0  0  0  0  0
  1 11  1  0
  2 13  1  0
  2  1  1  0
  3  2  2  0
  4  3  1  0
  4  5  2  0
  5  6  1  0
  6  1  2  0
  7  8  2  0
  9  8  1  0
 10  9  2  0
 11 10  1  0
 11 12  2  0
 12  7  1  0
 13 17  1  0
 14 13  2  0
 14 15  1  0
 15 16  2  0
 17 16  1  0
  3 18  1  0
  5 19  1  0
  7 20  1  0
  8 21  1  0
  9 22  1  0
 14 23  1  0
 15 24  1  0
 16 25  1  0
M  ISO  8  18  14  19  14  20  14  21  14  22  14  23  14  24  14  25  14
M  END
>  <minimizedAffinity>  (1) 
-4.29974508

>  <minimizedRMSD>  (1) 
2.90222526

$$$$
