
     RDKit          3D

 19 20  0  0  0  0  0  0  0  0999 V2000
   37.2540   21.8590   35.0430 C   0  0  0  0  0  0  0  0  0  0  0  0
   36.1830   21.0000   35.1500 C   0  0  0  0  0  0  0  0  0  0  0  0
   35.5310   20.5670   34.0360 C   0  0  0  0  0  0  0  0  0  0  0  0
   35.9480   20.9930   32.8080 N   0  0  0  0  0  0  0  0  0  0  0  0
   36.9970   21.8350   32.6920 C   0  0  0  0  0  0  0  0  0  0  0  0
   37.6520   22.2690   33.8120 N   0  0  0  0  0  0  0  0  0  0  0  0
   39.9090   22.6530   37.4470 C   0  0  0  0  0  0  0  0  0  0  0  0
   39.2160   23.3430   38.4400 C   0  0  0  0  0  0  0  0  0  0  0  0
   37.8360   23.5240   38.2620 C   0  0  0  0  0  0  0  0  0  0  0  0
   37.2440   23.0170   37.1310 N   0  0  0  0  0  0  0  0  0  0  0  0
   37.9850   22.3510   36.1990 C   0  0  0  0  0  0  0  0  0  0  0  0
   39.3010   22.1610   36.3380 N   0  0  0  0  0  0  0  0  0  0  0  0
   35.8480   20.6350   36.4470 O   0  0  0  0  0  0  0  0  0  0  0  0
   34.6762   19.8803   34.1247 H   0  0  0  0  0  0  0  0  0  0  0  0
   37.3249   22.1719   31.6975 H   0  0  0  0  0  0  0  0  0  0  0  0
   40.9918   22.5012   37.5670 H   0  0  0  0  0  0  0  0  0  0  0  0
   39.7319   23.7314   39.3305 H   0  0  0  0  0  0  0  0  0  0  0  0
   37.2396   24.0617   39.0138 H   0  0  0  0  0  0  0  0  0  0  0  0
   35.0891   20.0199   36.6078 H   0  0  0  0  0  0  0  0  0  0  0  0
  1  2  2  0
  1 11  1  0
  2 13  1  0
  3  2  1  0
  4  3  2  0
  5  4  1  0
  5  6  2  0
  6  1  1  0
  7  8  2  0
  9  8  1  0
 10  9  2  0
 11 12  2  0
 11 10  1  0
 12  7  1  0
  3 14  1  0
  5 15  1  0
  7 16  1  0
  8 17  1  0
  9 18  1  0
 13 19  1  0
M  ISO  6  14  14  15  14  16  14  17  14  18  14  19   3
M  END
>  <minimizedAffinity>  (1) 
-4.1957407

>  <minimizedRMSD>  (1) 
0.0410044901

$$$$
