
     RDKit          3D

 35 38  0  0  0  0  0  0  0  0999 V2000
   38.9710   23.1690   34.0110 C   0  0  0  0  0  0  0  0  0  0  0  0
   39.3690   22.5840   32.8280 C   0  0  0  0  0  0  0  0  0  0  0  0
   38.5940   23.1480   31.8200 C   0  0  0  0  0  0  0  0  0  0  0  0
   37.7660   24.0330   32.3780 N   0  0  0  0  0  0  0  0  0  0  0  0
   37.9880   24.0520   33.7140 N   0  0  0  0  0  0  0  0  0  0  0  0
   41.1090   21.9820   36.7430 C   0  0  0  0  0  0  0  0  0  0  0  0
   40.3990   22.4420   37.8920 C   0  0  0  0  0  0  0  0  0  0  0  0
   39.2240   23.1360   37.6830 C   0  0  0  0  0  0  0  0  0  0  0  0
   38.7920   23.3520   36.4110 N   0  0  0  0  0  0  0  0  0  0  0  0
   39.5000   22.8960   35.3400 C   0  0  0  0  0  0  0  0  0  0  0  0
   40.6460   22.2190   35.5210 N   0  0  0  0  0  0  0  0  0  0  0  0
   38.5370   23.5840   38.9020 C   0  0  0  0  0  0  0  0  0  0  0  0
   37.8690   24.7540   38.6650 F   0  0  0  0  0  0  0  0  0  0  0  0
   39.5070   23.8690   39.8350 F   0  0  0  0  0  0  0  0  0  0  0  0
   37.6180   22.6560   39.3560 F   0  0  0  0  0  0  0  0  0  0  0  0
   36.7970   24.8370   31.6890 C   0  0  0  0  0  0  0  0  0  0  0  0
   35.6030   24.2570   31.3490 C   0  0  0  0  0  0  0  0  0  0  0  0
   34.6740   25.0550   30.6800 C   0  0  0  0  0  0  0  0  0  0  0  0
   34.9840   26.3260   30.4080 N   0  0  0  0  0  0  0  0  0  0  0  0
   36.1520   26.9070   30.7370 C   0  0  0  0  0  0  0  0  0  0  0  0
   37.0500   26.1150   31.3890 N   0  0  0  0  0  0  0  0  0  0  0  0
   36.5050   28.2910   30.4460 C   0  0  0  0  0  0  0  0  0  0  0  0
   36.3010   29.4380   31.1860 C   0  0  0  0  0  0  0  0  0  0  0  0
   36.8190   30.5040   30.4760 C   0  0  0  0  0  0  0  0  0  0  0  0
   37.3190   29.9960   29.3350 N   0  0  0  0  0  0  0  0  0  0  0  0
   37.1400   28.6680   29.2980 N   0  0  0  0  0  0  0  0  0  0  0  0
   40.1493   21.8185   32.7048 H   0  0  0  0  0  0  0  0  0  0  0  0
   38.6535   22.9063   30.7485 H   0  0  0  0  0  0  0  0  0  0  0  0
   42.0492   21.4255   36.8706 H   0  0  0  0  0  0  0  0  0  0  0  0
   40.7745   22.2505   38.9081 H   0  0  0  0  0  0  0  0  0  0  0  0
   35.3859   23.2066   31.5931 H   0  0  0  0  0  0  0  0  0  0  0  0
   33.6991   24.6430   30.3804 H   0  0  0  0  0  0  0  0  0  0  0  0
   35.8114   29.4937   32.1695 H   0  0  0  0  0  0  0  0  0  0  0  0
   36.8220   31.5602   30.7832 H   0  0  0  0  0  0  0  0  0  0  0  0
   37.7746   30.5489   28.5950 H   0  0  0  0  0  0  0  0  0  0  0  0
  1 10  1  0
  2  1  1  0
  3  4  1  0
  3  2  2  0
  4  5  1  0
  5  1  2  0
  6  7  2  0
  8  7  1  0
  8 12  1  0
  9  8  2  0
 10 11  2  0
 10  9  1  0
 11  6  1  0
 12 15  1  0
 12 14  1  0
 13 12  1  0
 16  4  1  0
 17 16  2  0
 18 17  1  0
 19 18  2  0
 19 20  1  0
 20 21  2  0
 21 16  1  0
 22 20  1  0
 22 23  1  0
 24 23  2  0
 25 24  1  0
 26 25  1  0
 26 22  2  0
  2 27  1  0
  3 28  1  0
  6 29  1  0
  7 30  1  0
 17 31  1  0
 18 32  1  0
 23 33  1  0
 24 34  1  0
 25 35  1  0
M  ISO  8  27  14  28  14  29  14  30  14  31  14  32  14  33  14  34  14
M  ISO  1  35   9
M  END
>  <minimizedAffinity>  (1) 
-5.51167393

>  <minimizedRMSD>  (1) 
0.108175218

$$$$
