
     RDKit          3D

 25 27  0  0  0  0  0  0  0  0999 V2000
   37.4930   23.1830   33.1160 C   0  0  0  0  0  0  0  0  0  0  0  0
   36.6030   22.2410   32.6530 C   0  0  0  0  0  0  0  0  0  0  0  0
   35.7770   22.5570   31.6130 C   0  0  0  0  0  0  0  0  0  0  0  0
   35.8420   23.7850   31.0510 N   0  0  0  0  0  0  0  0  0  0  0  0
   36.7180   24.7130   31.5060 C   0  0  0  0  0  0  0  0  0  0  0  0
   37.5550   24.4140   32.5500 N   0  0  0  0  0  0  0  0  0  0  0  0
   40.4180   22.1390   35.0970 C   0  0  0  0  0  0  0  0  0  0  0  0
   40.0140   22.4390   36.3940 C   0  0  0  0  0  0  0  0  0  0  0  0
   38.7250   23.0030   36.5770 C   0  0  0  0  0  0  0  0  0  0  0  0
   37.9440   23.2240   35.4710 N   0  0  0  0  0  0  0  0  0  0  0  0
   38.4040   22.9060   34.2280 C   0  0  0  0  0  0  0  0  0  0  0  0
   39.6140   22.3750   34.0510 N   0  0  0  0  0  0  0  0  0  0  0  0
   36.6280   20.9310   33.3530 C   0  0  0  0  0  0  0  0  0  0  0  0
   35.6120   20.6220   34.3930 C   0  0  0  0  0  0  0  0  0  0  0  0
   35.5820   19.8930   33.0780 C   0  0  0  0  0  0  0  0  0  0  0  0
   35.0601   21.8142   31.2331 H   0  0  0  0  0  0  0  0  0  0  0  0
   36.7578   25.7074   31.0373 H   0  0  0  0  0  0  0  0  0  0  0  0
   41.4128   21.7013   34.9273 H   0  0  0  0  0  0  0  0  0  0  0  0
   40.6742   22.2447   37.2521 H   0  0  0  0  0  0  0  0  0  0  0  0
   38.3601   23.2573   37.5831 H   0  0  0  0  0  0  0  0  0  0  0  0
   37.7273   20.9455   33.3176 H   0  0  0  0  0  0  0  0  0  0  0  0
   35.9078   20.0904   35.3094 H   0  0  0  0  0  0  0  0  0  0  0  0
   34.8860   21.2138   34.9699 H   0  0  0  0  0  0  0  0  0  0  0  0
   34.7804   20.0960   32.3526 H   0  0  0  0  0  0  0  0  0  0  0  0
   35.5906   18.8373   32.7691 H   0  0  0  0  0  0  0  0  0  0  0  0
  1 11  1  0
  2  1  1  0
  2 13  1  0
  3  2  2  0
  4  5  2  0
  4  3  1  0
  5  6  1  0
  6  1  2  0
  7  8  2  0
  8  9  1  0
 10  9  2  0
 11 10  1  0
 12 11  2  0
 12  7  1  0
 13 14  1  0
 15 13  1  0
 15 14  1  0
  3 16  1  0
  5 17  1  0
  7 18  1  0
  8 19  1  0
  9 20  1  0
 13 21  1  0
 14 22  1  0
 14 23  1  0
 15 24  1  0
 15 25  1  0
M  ISO  8  16  14  17  14  18  14  19  14  20  14  21  13  22  13  23  13
M  ISO  2  24  13  25  13
M  END
>  <minimizedAffinity>  (1) 
-3.89471102

>  <minimizedRMSD>  (1) 
2.88117933

$$$$
