
     RDKit          3D

 19 20  0  0  0  0  0  0  0  0999 V2000
   37.3720   21.9130   35.0150 C   0  0  0  0  0  0  0  0  0  0  0  0
   36.1940   21.2020   35.1340 C   0  0  0  0  0  0  0  0  0  0  0  0
   35.6280   20.6980   33.9920 C   0  0  0  0  0  0  0  0  0  0  0  0
   36.2190   20.8990   32.7860 N   0  0  0  0  0  0  0  0  0  0  0  0
   37.3790   21.6000   32.6770 C   0  0  0  0  0  0  0  0  0  0  0  0
   37.9620   22.1140   33.8110 N   0  0  0  0  0  0  0  0  0  0  0  0
   39.8130   22.6660   37.6690 C   0  0  0  0  0  0  0  0  0  0  0  0
   39.1470   23.6240   38.4310 C   0  0  0  0  0  0  0  0  0  0  0  0
   37.8560   24.0030   38.0210 C   0  0  0  0  0  0  0  0  0  0  0  0
   37.3260   23.4130   36.8980 N   0  0  0  0  0  0  0  0  0  0  0  0
   38.0300   22.4790   36.1960 C   0  0  0  0  0  0  0  0  0  0  0  0
   39.2620   22.1070   36.5730 N   0  0  0  0  0  0  0  0  0  0  0  0
   35.5140   21.0040   36.7650 S   0  0  0  0  0  0  0  0  0  0  0  0
   34.6896   20.1274   34.0527 H   0  0  0  0  0  0  0  0  0  0  0  0
   37.8456   21.7541   31.6928 H   0  0  0  0  0  0  0  0  0  0  0  0
   40.8236   22.3551   37.9724 H   0  0  0  0  0  0  0  0  0  0  0  0
   39.6146   24.0683   39.3220 H   0  0  0  0  0  0  0  0  0  0  0  0
   37.2838   24.7539   38.5856 H   0  0  0  0  0  0  0  0  0  0  0  0
   36.4769   21.2844   37.6983 H   0  0  0  0  0  0  0  0  0  0  0  0
  1  2  2  0
  1 11  1  0
  2 13  1  0
  3  2  1  0
  4  3  2  0
  5  4  1  0
  5  6  2  0
  6  1  1  0
  7  8  2  0
  9  8  1  0
 10  9  2  0
 11 12  2  0
 11 10  1  0
 12  7  1  0
  3 14  1  0
  5 15  1  0
  7 16  1  0
  8 17  1  0
  9 18  1  0
 13 19  1  0
M  ISO  6  14  14  15  14  16  14  17  14  18  14  19  11
M  END
>  <minimizedAffinity>  (1) 
-3.61675763

>  <minimizedRMSD>  (1) 
0.352152616

$$$$
