
     RDKit          3D

 24 25  0  0  0  0  0  0  0  0999 V2000
   38.3420   23.8460   34.5060 C   0  0  0  0  0  0  0  0  0  0  0  0
   37.7040   22.9030   33.7360 C   0  0  0  0  0  0  0  0  0  0  0  0
   37.5190   23.1400   32.4050 C   0  0  0  0  0  0  0  0  0  0  0  0
   37.9600   24.2930   31.8530 N   0  0  0  0  0  0  0  0  0  0  0  0
   38.5940   25.2350   32.6110 C   0  0  0  0  0  0  0  0  0  0  0  0
   38.7750   24.9880   33.9400 N   0  0  0  0  0  0  0  0  0  0  0  0
   39.8020   22.7960   37.7110 C   0  0  0  0  0  0  0  0  0  0  0  0
   38.9040   23.3350   38.6320 C   0  0  0  0  0  0  0  0  0  0  0  0
   37.8010   24.0570   38.1340 C   0  0  0  0  0  0  0  0  0  0  0  0
   37.6910   24.1750   36.7790 N   0  0  0  0  0  0  0  0  0  0  0  0
   38.5700   23.6450   35.9190 C   0  0  0  0  0  0  0  0  0  0  0  0
   39.6270   22.9530   36.3880 N   0  0  0  0  0  0  0  0  0  0  0  0
   37.1780   21.6180   34.2450 C   0  0  0  0  0  0  0  0  0  0  0  0
   36.0440   21.0480   33.4510 C   0  0  0  0  0  0  0  0  0  0  0  0
   37.0101   22.3916   31.7798 H   0  0  0  0  0  0  0  0  0  0  0  0
   38.9510   26.1725   32.1598 H   0  0  0  0  0  0  0  0  0  0  0  0
   40.6721   22.2303   38.0754 H   0  0  0  0  0  0  0  0  0  0  0  0
   39.0521   23.2007   39.7137 H   0  0  0  0  0  0  0  0  0  0  0  0
   37.0590   24.5071   38.8099 H   0  0  0  0  0  0  0  0  0  0  0  0
   37.9995   20.8865   34.2429 H   0  0  0  0  0  0  0  0  0  0  0  0
   36.7819   21.8209   35.2510 H   0  0  0  0  0  0  0  0  0  0  0  0
   35.2748   20.6614   34.1358 H   0  0  0  0  0  0  0  0  0  0  0  0
   35.6086   21.8344   32.8169 H   0  0  0  0  0  0  0  0  0  0  0  0
   36.4153   20.2294   32.8169 H   0  0  0  0  0  0  0  0  0  0  0  0
  1 11  1  0
  2 13  1  0
  2  1  2  0
  3  2  1  0
  4  3  2  0
  4  5  1  0
  5  6  2  0
  6  1  1  0
  7  8  2  0
  9  8  1  0
 10  9  2  0
 11 12  2  0
 11 10  1  0
 12  7  1  0
 14 13  1  0
  3 15  1  0
  5 16  1  0
  7 17  1  0
  8 18  1  0
  9 19  1  0
 13 20  1  0
 13 21  1  0
 14 22  1  0
 14 23  1  0
 14 24  1  0
M  ISO  8  15  14  16  14  17  14  18  14  19  14  20   8  21   8  22   8
M  ISO  2  23   8  24   8
M  END
>  <minimizedAffinity>  (1) 
-3.71764183

>  <minimizedRMSD>  (1) 
2.54019165

$$$$
