
     RDKit          3D

 40 42  0  0  0  0  0  0  0  0999 V2000
   39.1840   23.6290   33.8080 C   0  0  0  0  0  0  0  0  0  0  0  0
   39.2060   22.8780   32.6420 C   0  0  0  0  0  0  0  0  0  0  0  0
   38.7370   23.6990   31.6170 C   0  0  0  0  0  0  0  0  0  0  0  0
   38.4480   24.8870   32.1510 N   0  0  0  0  0  0  0  0  0  0  0  0
   38.7140   24.8580   33.4730 N   0  0  0  0  0  0  0  0  0  0  0  0
   40.9900   22.0020   36.5460 C   0  0  0  0  0  0  0  0  0  0  0  0
   40.2440   22.4240   37.6810 C   0  0  0  0  0  0  0  0  0  0  0  0
   39.1610   23.2430   37.4610 C   0  0  0  0  0  0  0  0  0  0  0  0
   38.8470   23.6140   36.1840 N   0  0  0  0  0  0  0  0  0  0  0  0
   39.5870   23.1870   35.1350 C   0  0  0  0  0  0  0  0  0  0  0  0
   40.6420   22.3910   35.3240 N   0  0  0  0  0  0  0  0  0  0  0  0
   38.4200   23.6530   38.6720 C   0  0  0  0  0  0  0  0  0  0  0  0
   37.8540   24.8840   38.4700 F   0  0  0  0  0  0  0  0  0  0  0  0
   39.3540   23.8200   39.6670 F   0  0  0  0  0  0  0  0  0  0  0  0
   37.4310   22.7700   39.0090 F   0  0  0  0  0  0  0  0  0  0  0  0
   37.9320   26.0320   31.4370 C   0  0  0  0  0  0  0  0  0  0  0  0
   36.5780   26.3050   31.5790 C   0  0  0  0  0  0  0  0  0  0  0  0
   36.1070   27.4240   30.8730 C   0  0  0  0  0  0  0  0  0  0  0  0
   36.9320   28.1400   30.1340 N   0  0  0  0  0  0  0  0  0  0  0  0
   38.2530   27.8710   29.9990 C   0  0  0  0  0  0  0  0  0  0  0  0
   38.7370   26.7860   30.6780 N   0  0  0  0  0  0  0  0  0  0  0  0
   39.1410   28.7120   29.1540 C   0  0  0  0  0  0  0  0  0  0  0  0
   40.5400   28.6240   29.7170 C   0  0  0  0  0  0  0  0  0  0  0  0
   38.7280   30.1660   29.1930 C   0  0  0  0  0  0  0  0  0  0  0  0
   39.1800   28.1610   27.7400 C   0  0  0  0  0  0  0  0  0  0  0  0
   39.5320   21.8320   32.5443 H   0  0  0  0  0  0  0  0  0  0  0  0
   38.6255   23.4179   30.5594 H   0  0  0  0  0  0  0  0  0  0  0  0
   41.8635   21.3472   36.6811 H   0  0  0  0  0  0  0  0  0  0  0  0
   40.5227   22.1072   38.6969 H   0  0  0  0  0  0  0  0  0  0  0  0
   35.9176   25.6855   32.2035 H   0  0  0  0  0  0  0  0  0  0  0  0
   35.0453   27.7045   30.9367 H   0  0  0  0  0  0  0  0  0  0  0  0
   40.4938   28.6269   30.8160 H   0  0  0  0  0  0  0  0  0  0  0  0
   41.0161   27.6941   29.3725 H   0  0  0  0  0  0  0  0  0  0  0  0
   41.1288   29.4869   29.3725 H   0  0  0  0  0  0  0  0  0  0  0  0
   38.6352   30.4929   30.2392 H   0  0  0  0  0  0  0  0  0  0  0  0
   39.4882   30.7769   28.6841 H   0  0  0  0  0  0  0  0  0  0  0  0
   37.7602   30.2861   28.6841 H   0  0  0  0  0  0  0  0  0  0  0  0
   39.2576   27.0643   27.7758 H   0  0  0  0  0  0  0  0  0  0  0  0
   38.2594   28.4463   27.2098 H   0  0  0  0  0  0  0  0  0  0  0  0
   40.0512   28.5731   27.2098 H   0  0  0  0  0  0  0  0  0  0  0  0
  1 10  1  0
  2  1  1  0
  3  4  1  0
  3  2  2  0
  4  5  1  0
  5  1  2  0
  6  7  2  0
  8  7  1  0
  8 12  1  0
  9  8  2  0
 10 11  2  0
 10  9  1  0
 11  6  1  0
 12 15  1  0
 12 14  1  0
 13 12  1  0
 16 17  2  0
 16  4  1  0
 18 17  1  0
 19 18  2  0
 20 19  1  0
 20 21  2  0
 21 16  1  0
 22 24  1  0
 22 23  1  0
 22 20  1  0
 25 22  1  0
  2 26  1  0
  3 27  1  0
  6 28  1  0
  7 29  1  0
 17 30  1  0
 18 31  1  0
 23 32  1  0
 23 33  1  0
 23 34  1  0
 24 35  1  0
 24 36  1  0
 24 37  1  0
 25 38  1  0
 25 39  1  0
 25 40  1  0
M  ISO  8  26  14  27  14  28  14  29  14  30  14  31  14  32   8  33   8
M  ISO  7  34   8  35   8  36   8  37   8  38   8  39   8  40   8
M  END
>  <minimizedAffinity>  (1) 
-5.46588373

>  <minimizedRMSD>  (1) 
1.78227496

$$$$
