
     RDKit          3D

 32 35  0  0  1  0  0  0  0  0999 V2000
   38.3420   23.2620   34.6140 C   0  0  0  0  0  0  0  0  0  0  0  0
   39.0420   24.0400   33.7390 C   0  0  0  0  0  0  0  0  0  0  0  0
   38.8590   23.8690   32.3930 C   0  0  0  0  0  0  0  0  0  0  0  0
   38.0040   22.9440   31.9400 N   0  0  0  0  0  0  0  0  0  0  0  0
   37.3070   22.1660   32.8110 C   0  0  0  0  0  0  0  0  0  0  0  0
   37.4740   22.3230   34.1610 N   0  0  0  0  0  0  0  0  0  0  0  0
   37.8810   24.2270   38.1290 C   0  0  0  0  0  0  0  0  0  0  0  0
   38.9130   23.5630   38.7630 C   0  0  0  0  0  0  0  0  0  0  0  0
   39.7700   22.7800   37.9700 C   0  0  0  0  0  0  0  0  0  0  0  0
   39.5210   22.7340   36.6320 N   0  0  0  0  0  0  0  0  0  0  0  0
   38.4980   23.4010   36.0570 C   0  0  0  0  0  0  0  0  0  0  0  0
   37.6930   24.1360   36.8020 N   0  0  0  0  0  0  0  0  0  0  0  0
   39.9170   25.0810   34.3070 C   0  0  1  0  0  0  0  0  0  0  0  0
   40.4540   26.1580   33.3720 C   0  0  0  0  0  0  0  0  0  0  0  0
   39.5180   26.4850   34.5220 C   0  0  1  0  0  0  0  0  0  0  0  0
   38.3130   27.1520   34.0400 C   0  0  0  0  0  0  0  0  0  0  0  0
   37.4390   27.6260   35.0270 C   0  0  0  0  0  0  0  0  0  0  0  0
   36.3460   28.2400   34.4110 C   0  0  0  0  0  0  0  0  0  0  0  0
   36.6390   28.0920   33.0590 C   0  0  0  0  0  0  0  0  0  0  0  0
   37.7680   27.4690   32.8620 O   0  0  0  0  0  0  0  0  0  0  0  0
   39.4170   24.4945   31.6807 H   0  0  0  0  0  0  0  0  0  0  0  0
   36.6068   21.4081   32.4297 H   0  0  0  0  0  0  0  0  0  0  0  0
   37.1954   24.8463   38.7261 H   0  0  0  0  0  0  0  0  0  0  0  0
   39.0592   23.6440   39.8502 H   0  0  0  0  0  0  0  0  0  0  0  0
   40.6100   22.2254   38.4136 H   0  0  0  0  0  0  0  0  0  0  0  0
   40.3258   24.3205   34.9886 H   0  0  0  0  0  0  0  0  0  0  0  0
   41.5124   26.4543   33.4159 H   0  0  0  0  0  0  0  0  0  0  0  0
   40.4591   26.3290   32.2854 H   0  0  0  0  0  0  0  0  0  0  0  0
   39.4708   27.0332   35.4745 H   0  0  0  0  0  0  0  0  0  0  0  0
   37.5893   27.5301   36.1124 H   0  0  0  0  0  0  0  0  0  0  0  0
   35.4731   28.7199   34.8776 H   0  0  0  0  0  0  0  0  0  0  0  0
   35.9922   28.4587   32.2484 H   0  0  0  0  0  0  0  0  0  0  0  0
  1 11  1  0
  2 13  1  0
  2  1  1  0
  3  2  2  0
  4  3  1  0
  4  5  2  0
  5  6  1  0
  6  1  2  0
  7  8  2  0
  9  8  1  0
 10  9  2  0
 11 10  1  0
 11 12  2  0
 12  7  1  0
 13 15  1  0
 14 13  1  0
 14 15  1  0
 16 15  1  0
 16 17  2  0
 18 17  1  0
 19 18  2  0
 20 19  1  0
 20 16  1  0
  3 21  1  0
  5 22  1  0
  7 23  1  0
  8 24  1  0
  9 25  1  0
 13 26  1  1
 14 27  1  0
 14 28  1  0
 15 29  1  1
 17 30  1  0
 18 31  1  0
 19 32  1  0
M  ISO  8  21  14  22  14  23  14  24  14  25  14  26  13  27  13  28  13
M  ISO  4  29  13  30  14  31  14  32  14
M  END
>  <minimizedAffinity>  (1) 
-4.92959452

>  <minimizedRMSD>  (1) 
5.75618029

$$$$
