
     RDKit          3D

 32 35  0  0  1  0  0  0  0  0999 V2000
   37.9660   22.5310   34.6720 C   0  0  0  0  0  0  0  0  0  0  0  0
   38.6160   23.0870   33.6070 C   0  0  0  0  0  0  0  0  0  0  0  0
   38.2920   22.6750   32.3400 C   0  0  0  0  0  0  0  0  0  0  0  0
   37.3560   21.7430   32.1590 N   0  0  0  0  0  0  0  0  0  0  0  0
   36.7090   21.1890   33.2150 C   0  0  0  0  0  0  0  0  0  0  0  0
   37.0120   21.5830   34.4910 N   0  0  0  0  0  0  0  0  0  0  0  0
   37.8560   24.0270   38.0290 C   0  0  0  0  0  0  0  0  0  0  0  0
   39.0070   23.5510   38.6190 C   0  0  0  0  0  0  0  0  0  0  0  0
   39.8250   22.7090   37.8460 C   0  0  0  0  0  0  0  0  0  0  0  0
   39.4190   22.4290   36.5790 N   0  0  0  0  0  0  0  0  0  0  0  0
   38.2810   22.9180   36.0410 C   0  0  0  0  0  0  0  0  0  0  0  0
   37.5160   23.7070   36.7670 N   0  0  0  0  0  0  0  0  0  0  0  0
   39.5870   24.1680   33.8890 C   0  0  1  0  0  0  0  0  0  0  0  0
   40.2160   24.8660   32.6930 C   0  0  0  0  0  0  0  0  0  0  0  0
   39.3210   25.6000   33.6860 C   0  0  1  0  0  0  0  0  0  0  0  0
   38.2050   26.2040   33.0260 N   0  0  0  0  0  0  0  0  0  0  0  0
   36.9140   25.8600   32.8510 N   0  0  0  0  0  0  0  0  0  0  0  0
   36.3190   26.8040   32.1070 C   0  0  0  0  0  0  0  0  0  0  0  0
   37.2540   27.7850   31.7940 C   0  0  0  0  0  0  0  0  0  0  0  0
   38.4340   27.3910   32.3800 C   0  0  0  0  0  0  0  0  0  0  0  0
   38.8051   23.1141   31.4717 H   0  0  0  0  0  0  0  0  0  0  0  0
   35.9393   20.4216   33.0458 H   0  0  0  0  0  0  0  0  0  0  0  0
   37.1949   24.6889   38.6076 H   0  0  0  0  0  0  0  0  0  0  0  0
   39.2744   23.8189   39.6518 H   0  0  0  0  0  0  0  0  0  0  0  0
   40.7589   22.2921   38.2510 H   0  0  0  0  0  0  0  0  0  0  0  0
   39.9234   23.6098   34.7751 H   0  0  0  0  0  0  0  0  0  0  0  0
   39.8594   24.6537   31.6743 H   0  0  0  0  0  0  0  0  0  0  0  0
   41.2349   24.9972   32.2997 H   0  0  0  0  0  0  0  0  0  0  0  0
   39.3307   26.4000   34.4409 H   0  0  0  0  0  0  0  0  0  0  0  0
   35.2641   26.8026   31.7953 H   0  0  0  0  0  0  0  0  0  0  0  0
   37.0838   28.6935   31.1976 H   0  0  0  0  0  0  0  0  0  0  0  0
   39.3909   27.9319   32.3378 H   0  0  0  0  0  0  0  0  0  0  0  0
  1 11  1  0
  2 13  1  0
  2  1  1  0
  3  2  2  0
  4  3  1  0
  4  5  2  0
  5  6  1  0
  6  1  2  0
  7  8  2  0
  9  8  1  0
 10  9  2  0
 11 10  1  0
 11 12  2  0
 12  7  1  0
 14 15  1  0
 14 13  1  0
 15 13  1  0
 16 15  1  0
 17 16  1  0
 18 17  2  0
 19 18  1  0
 19 20  2  0
 20 16  1  0
  3 21  1  0
  5 22  1  0
  7 23  1  0
  8 24  1  0
  9 25  1  0
 13 26  1  1
 14 27  1  0
 14 28  1  0
 15 29  1  1
 18 30  1  0
 19 31  1  0
 20 32  1  0
M  ISO  8  21  14  22  14  23  14  24  14  25  14  26  13  27  13  28  13
M  ISO  4  29  13  30  14  31  14  32  14
M  END
>  <minimizedAffinity>  (1) 
-4.49539566

>  <minimizedRMSD>  (1) 
5.06688929

$$$$
