
     RDKit          3D

 39 43  0  0  1  0  0  0  0  0999 V2000
   39.4440   23.1210   34.1440 C   0  0  1  0  0  0  0  0  0  0  0  0
   38.5970   22.9760   35.3980 C   0  0  0  0  0  0  0  0  0  0  0  0
   38.2080   23.9120   34.2670 C   0  0  1  0  0  0  0  0  0  0  0  0
   38.0360   25.2810   34.6750 C   0  0  0  0  0  0  0  0  0  0  0  0
   38.5090   25.8130   35.8470 N   0  0  0  0  0  0  0  0  0  0  0  0
   38.2710   27.1050   36.1070 C   0  0  0  0  0  0  0  0  0  0  0  0
   37.5970   27.9330   35.2940 N   0  0  0  0  0  0  0  0  0  0  0  0
   37.1200   27.4430   34.1360 C   0  0  0  0  0  0  0  0  0  0  0  0
   36.4360   28.3560   33.3540 C   0  0  0  0  0  0  0  0  0  0  0  0
   35.9250   27.9090   32.1550 C   0  0  0  0  0  0  0  0  0  0  0  0
   36.1110   26.5930   31.7870 C   0  0  0  0  0  0  0  0  0  0  0  0
   36.7980   25.7050   32.5880 C   0  0  0  0  0  0  0  0  0  0  0  0
   37.3220   26.1200   33.7960 C   0  0  0  0  0  0  0  0  0  0  0  0
   41.3810   24.2640   33.2130 C   0  0  0  0  0  0  0  0  0  0  0  0
   40.8080   23.6750   34.3040 C   0  0  0  0  0  0  0  0  0  0  0  0
   41.4890   23.6820   35.4940 C   0  0  0  0  0  0  0  0  0  0  0  0
   42.6920   24.2520   35.5890 N   0  0  0  0  0  0  0  0  0  0  0  0
   43.2620   24.8370   34.5020 C   0  0  0  0  0  0  0  0  0  0  0  0
   42.6060   24.8460   33.3000 N   0  0  0  0  0  0  0  0  0  0  0  0
   39.5120   25.3040   30.2300 C   0  0  0  0  0  0  0  0  0  0  0  0
   39.4990   24.1630   29.4540 C   0  0  0  0  0  0  0  0  0  0  0  0
   40.1440   23.0270   29.9740 C   0  0  0  0  0  0  0  0  0  0  0  0
   40.7270   23.1410   31.1980 N   0  0  0  0  0  0  0  0  0  0  0  0
   40.7120   24.2830   31.9190 C   0  0  0  0  0  0  0  0  0  0  0  0
   40.1100   25.3530   31.4390 N   0  0  0  0  0  0  0  0  0  0  0  0
   39.8209   22.4741   33.3381 H   0  0  0  0  0  0  0  0  0  0  0  0
   38.0244   22.0542   35.5781 H   0  0  0  0  0  0  0  0  0  0  0  0
   38.7660   23.0732   36.4806 H   0  0  0  0  0  0  0  0  0  0  0  0
   37.4262   24.0738   33.5102 H   0  0  0  0  0  0  0  0  0  0  0  0
   38.6546   27.5160   37.0525 H   0  0  0  0  0  0  0  0  0  0  0  0
   36.3049   29.3993   33.6770 H   0  0  0  0  0  0  0  0  0  0  0  0
   35.3732   28.5962   31.4967 H   0  0  0  0  0  0  0  0  0  0  0  0
   35.7003   26.2421   30.8288 H   0  0  0  0  0  0  0  0  0  0  0  0
   36.9289   24.6622   32.2632 H   0  0  0  0  0  0  0  0  0  0  0  0
   41.0385   23.2123   36.3808 H   0  0  0  0  0  0  0  0  0  0  0  0
   44.2538   25.3048   34.5885 H   0  0  0  0  0  0  0  0  0  0  0  0
   39.0158   26.2086   29.8485 H   0  0  0  0  0  0  0  0  0  0  0  0
   39.0054   24.1431   28.4712 H   0  0  0  0  0  0  0  0  0  0  0  0
   40.1760   22.0817   29.4124 H   0  0  0  0  0  0  0  0  0  0  0  0
  1  3  1  0
  1 15  1  0
  1  2  1  0
  3  4  1  0
  3  2  1  0
  4  5  2  0
  5  6  1  0
  7  6  2  0
  8  7  1  0
  9  8  2  0
 10  9  1  0
 11 10  2  0
 11 12  1  0
 12 13  2  0
 13  8  1  0
 13  4  1  0
 14 19  2  0
 14 15  1  0
 15 16  2  0
 16 17  1  0
 18 17  2  0
 19 18  1  0
 20 25  2  0
 21 22  2  0
 21 20  1  0
 22 23  1  0
 23 24  2  0
 24 14  1  0
 25 24  1  0
  1 26  1  6
  2 27  1  0
  2 28  1  0
  3 29  1  6
  6 30  1  0
  9 31  1  0
 10 32  1  0
 11 33  1  0
 12 34  1  0
 16 35  1  0
 18 36  1  0
 20 37  1  0
 21 38  1  0
 22 39  1  0
M  ISO  8  26  13  27  13  28  13  29  13  30  14  31  14  32  14  33  14
M  ISO  6  34  14  35  14  36  14  37  14  38  14  39  14
M  END
>  <minimizedAffinity>  (1) 
-4.49542189

>  <minimizedRMSD>  (1) 
7.55626726

$$$$
