
     RDKit          3D

 34 37  0  0  1  0  0  0  0  0999 V2000
   37.7730   24.2490   32.7090 C   0  0  0  0  0  0  0  0  0  0  0  0
   38.8940   23.8100   33.3510 C   0  0  0  0  0  0  0  0  0  0  0  0
   39.0410   22.4750   33.6060 C   0  0  0  0  0  0  0  0  0  0  0  0
   38.0890   21.6070   33.2340 N   0  0  0  0  0  0  0  0  0  0  0  0
   36.9700   22.0420   32.5960 C   0  0  0  0  0  0  0  0  0  0  0  0
   36.8060   23.3750   32.3290 N   0  0  0  0  0  0  0  0  0  0  0  0
   37.7420   27.5410   31.0770 C   0  0  0  0  0  0  0  0  0  0  0  0
   37.0820   28.3280   31.9980 C   0  0  0  0  0  0  0  0  0  0  0  0
   36.6490   27.7170   33.1900 C   0  0  0  0  0  0  0  0  0  0  0  0
   36.9120   26.3920   33.3440 N   0  0  0  0  0  0  0  0  0  0  0  0
   37.5620   25.6630   32.4120 C   0  0  0  0  0  0  0  0  0  0  0  0
   37.9710   26.2330   31.2920 N   0  0  0  0  0  0  0  0  0  0  0  0
   39.9230   24.8140   33.6760 C   0  0  1  0  0  0  0  0  0  0  0  0
   39.8870   25.4600   35.0550 C   0  0  0  0  0  0  0  0  0  0  0  0
   41.0480   24.5970   34.6000 C   0  0  1  0  0  0  0  0  0  0  0  0
   41.2520   23.4590   35.5030 C   0  0  0  0  0  0  0  0  0  0  0  0
   40.4560   23.3840   36.6530 C   0  0  0  0  0  0  0  0  0  0  0  0
   40.4960   22.3650   37.5840 C   0  0  0  0  0  0  0  0  0  0  0  0
   41.4110   21.3720   37.3030 C   0  0  0  0  0  0  0  0  0  0  0  0
   42.2170   21.4010   36.1860 C   0  0  0  0  0  0  0  0  0  0  0  0
   42.1310   22.4210   35.3170 N   0  0  0  0  0  0  0  0  0  0  0  0
   39.9439   22.1114   34.1184 H   0  0  0  0  0  0  0  0  0  0  0  0
   36.1952   21.3220   32.2938 H   0  0  0  0  0  0  0  0  0  0  0  0
   38.0914   27.9967   30.1388 H   0  0  0  0  0  0  0  0  0  0  0  0
   36.9004   29.3960   31.8075 H   0  0  0  0  0  0  0  0  0  0  0  0
   36.1190   28.2888   33.9660 H   0  0  0  0  0  0  0  0  0  0  0  0
   39.8889   25.1378   32.6253 H   0  0  0  0  0  0  0  0  0  0  0  0
   40.0118   26.5476   35.1626 H   0  0  0  0  0  0  0  0  0  0  0  0
   39.1921   25.4634   35.9077 H   0  0  0  0  0  0  0  0  0  0  0  0
   42.1242   24.6428   34.3773 H   0  0  0  0  0  0  0  0  0  0  0  0
   39.7420   24.2022   36.8285 H   0  0  0  0  0  0  0  0  0  0  0  0
   39.8518   22.3467   38.4754 H   0  0  0  0  0  0  0  0  0  0  0  0
   41.5007   20.5239   37.9977 H   0  0  0  0  0  0  0  0  0  0  0  0
   42.9333   20.5859   36.0055 H   0  0  0  0  0  0  0  0  0  0  0  0
  1  2  1  0
  2  3  2  0
  2 13  1  0
  4  3  1  0
  5  4  2  0
  6  5  1  0
  6  1  2  0
  7 12  2  0
  7  8  1  0
  8  9  2  0
  9 10  1  0
 11  1  1  0
 11 10  2  0
 12 11  1  0
 13 15  1  0
 13 14  1  0
 15 14  1  0
 15 16  1  0
 16 17  2  0
 17 18  1  0
 19 18  2  0
 20 19  1  0
 21 16  1  0
 21 20  2  0
  3 22  1  0
  5 23  1  0
  7 24  1  0
  8 25  1  0
  9 26  1  0
 13 27  1  6
 14 28  1  0
 14 29  1  0
 15 30  1  6
 17 31  1  0
 18 32  1  0
 19 33  1  0
 20 34  1  0
M  ISO  8  22  14  23  14  24  14  25  14  26  14  27  13  28  13  29  13
M  ISO  5  30  13  31  14  32  14  33  14  34  14
M  END
>  <minimizedAffinity>  (1) 
-4.29936457

>  <minimizedRMSD>  (1) 
6.76964998

$$$$
