
     RDKit          3D

 27 29  0  0  1  0  0  0  0  0999 V2000
   37.5570   23.2610   33.1350 C   0  0  0  0  0  0  0  0  0  0  0  0
   36.6860   22.3320   32.6420 C   0  0  0  0  0  0  0  0  0  0  0  0
   35.8770   22.6770   31.5870 C   0  0  0  0  0  0  0  0  0  0  0  0
   35.9450   23.9050   31.0540 N   0  0  0  0  0  0  0  0  0  0  0  0
   36.8150   24.8240   31.5540 C   0  0  0  0  0  0  0  0  0  0  0  0
   37.6280   24.5060   32.5990 N   0  0  0  0  0  0  0  0  0  0  0  0
   40.3950   22.2090   35.2200 C   0  0  0  0  0  0  0  0  0  0  0  0
   39.9580   22.4750   36.5000 C   0  0  0  0  0  0  0  0  0  0  0  0
   38.6680   23.0210   36.6380 C   0  0  0  0  0  0  0  0  0  0  0  0
   37.9580   23.2430   35.5010 N   0  0  0  0  0  0  0  0  0  0  0  0
   38.4310   22.9660   34.2660 C   0  0  0  0  0  0  0  0  0  0  0  0
   39.6390   22.4530   34.1290 N   0  0  0  0  0  0  0  0  0  0  0  0
   36.7320   20.9760   33.2400 C   0  0  1  0  0  0  0  0  0  0  0  0
   35.6350   20.6320   34.2410 C   0  0  0  0  0  0  0  0  0  0  0  0
   35.7870   19.9020   32.9150 C   0  0  1  0  0  0  0  0  0  0  0  0
   34.5900   19.9990   32.1020 C   0  0  0  0  0  0  0  0  0  0  0  0
   34.7290   18.7760   32.1520 O   0  0  0  0  0  0  0  0  0  0  0  0
   35.1693   21.9414   31.1772 H   0  0  0  0  0  0  0  0  0  0  0  0
   36.8618   25.8299   31.1113 H   0  0  0  0  0  0  0  0  0  0  0  0
   41.3990   21.7812   35.0824 H   0  0  0  0  0  0  0  0  0  0  0  0
   40.5904   22.2693   37.3762 H   0  0  0  0  0  0  0  0  0  0  0  0
   38.2509   23.2587   37.6277 H   0  0  0  0  0  0  0  0  0  0  0  0
   37.8312   21.0101   33.2149 H   0  0  0  0  0  0  0  0  0  0  0  0
   35.8825   20.1266   35.1861 H   0  0  0  0  0  0  0  0  0  0  0  0
   34.8321   21.1805   34.7553 H   0  0  0  0  0  0  0  0  0  0  0  0
   36.0058   18.9068   32.5006 H   0  0  0  0  0  0  0  0  0  0  0  0
   33.9189   20.7570   31.6719 H   0  0  0  0  0  0  0  0  0  0  0  0
  1 11  1  0
  2  1  1  0
  2 13  1  0
  3  2  2  0
  4  5  2  0
  4  3  1  0
  5  6  1  0
  6  1  2  0
  7  8  2  0
  8  9  1  0
 10  9  2  0
 11 10  1  0
 12 11  2  0
 12  7  1  0
 13 14  1  0
 15 13  1  0
 15 14  1  0
 16 17  2  0
 16 15  1  0
  3 18  1  0
  5 19  1  0
  7 20  1  0
  8 21  1  0
  9 22  1  0
 13 23  1  1
 14 24  1  0
 14 25  1  0
 15 26  1  1
 16 27  1  0
M  ISO  8  18  14  19  14  20  14  21  14  22  14  23  13  24  13  25  13
M  ISO  2  26  13  27   6
M  END
>  <minimizedAffinity>  (1) 
-4.2587409

>  <minimizedRMSD>  (1) 
0.592960238

$$$$
