
     RDKit          3D

 35 38  0  0  1  0  0  0  0  0999 V2000
   38.1980   22.6710   34.5540 C   0  0  0  0  0  0  0  0  0  0  0  0
   38.9970   23.1120   33.5550 C   0  0  0  0  0  0  0  0  0  0  0  0
   38.7610   22.6960   32.2780 C   0  0  0  0  0  0  0  0  0  0  0  0
   37.7390   21.8540   32.0240 N   0  0  0  0  0  0  0  0  0  0  0  0
   36.9390   21.4130   33.0240 C   0  0  0  0  0  0  0  0  0  0  0  0
   37.1680   21.8250   34.3070 N   0  0  0  0  0  0  0  0  0  0  0  0
   37.9490   24.2300   37.8740 C   0  0  0  0  0  0  0  0  0  0  0  0
   39.0000   23.6440   38.5580 C   0  0  0  0  0  0  0  0  0  0  0  0
   39.7950   22.7190   37.8840 C   0  0  0  0  0  0  0  0  0  0  0  0
   39.4590   22.4740   36.6010 N   0  0  0  0  0  0  0  0  0  0  0  0
   38.4240   23.0600   35.9510 C   0  0  0  0  0  0  0  0  0  0  0  0
   37.6820   23.9270   36.5850 N   0  0  0  0  0  0  0  0  0  0  0  0
   40.0390   24.1250   33.8980 C   0  0  1  0  0  0  0  0  0  0  0  0
   40.6280   24.8850   32.6730 C   0  0  0  0  0  0  0  0  0  0  0  0
   39.8540   25.5670   33.7630 C   0  0  1  0  0  0  0  0  0  0  0  0
   38.6250   26.2320   33.2140 C   0  0  0  0  0  0  0  0  0  0  0  0
   38.4980   27.0310   32.0600 C   0  0  0  0  0  0  0  0  0  0  0  0
   37.1890   27.4310   31.9070 C   0  0  0  0  0  0  0  0  0  0  0  0
   36.5310   26.8890   32.9410 N   0  0  0  0  0  0  0  0  0  0  0  0
   37.3390   26.2030   33.6920 N   0  0  0  0  0  0  0  0  0  0  0  0
   40.5550   26.5200   34.7250 C   0  0  0  0  0  0  0  0  0  0  0  0
   40.9870   27.5970   33.9470 F   0  0  0  0  0  0  0  0  0  0  0  0
   39.6140   27.0450   35.6070 F   0  0  0  0  0  0  0  0  0  0  0  0
   41.6120   25.9750   35.3520 F   0  0  0  0  0  0  0  0  0  0  0  0
   39.4032   23.0467   31.4567 H   0  0  0  0  0  0  0  0  0  0  0  0
   36.1084   20.7261   32.8045 H   0  0  0  0  0  0  0  0  0  0  0  0
   37.3140   24.9623   38.3942 H   0  0  0  0  0  0  0  0  0  0  0  0
   39.2027   23.9021   39.6079 H   0  0  0  0  0  0  0  0  0  0  0  0
   40.6458   22.2185   38.3694 H   0  0  0  0  0  0  0  0  0  0  0  0
   40.3807   23.5146   34.7469 H   0  0  0  0  0  0  0  0  0  0  0  0
   40.1886   24.7569   31.6727 H   0  0  0  0  0  0  0  0  0  0  0  0
   41.6193   25.0000   32.2104 H   0  0  0  0  0  0  0  0  0  0  0  0
   39.3225   27.2960   31.3817 H   0  0  0  0  0  0  0  0  0  0  0  0
   36.7726   28.0608   31.1070 H   0  0  0  0  0  0  0  0  0  0  0  0
   35.5222   27.0011   33.1163 H   0  0  0  0  0  0  0  0  0  0  0  0
  1 11  1  0
  2 13  1  0
  2  1  1  0
  3  2  2  0
  4  3  1  0
  4  5  2  0
  5  6  1  0
  6  1  2  0
  7  8  2  0
  9  8  1  0
 10  9  2  0
 11 12  2  0
 11 10  1  0
 12  7  1  0
 14 15  1  0
 14 13  1  0
 15 13  1  0
 15 21  1  1
 16 20  2  0
 16 15  1  0
 17 16  1  0
 18 17  2  0
 18 19  1  0
 19 20  1  0
 21 24  1  0
 21 23  1  0
 22 21  1  0
  3 25  1  0
  5 26  1  0
  7 27  1  0
  8 28  1  0
  9 29  1  0
 13 30  1  1
 14 31  1  0
 14 32  1  0
 17 33  1  0
 18 34  1  0
 19 35  1  0
M  ISO  8  25  14  26  14  27  14  28  14  29  14  30  13  31  13  32  13
M  ISO  3  33  14  34  14  35   9
M  END
>  <minimizedAffinity>  (1) 
-5.21889257

>  <minimizedRMSD>  (1) 
6.20424891

$$$$
