
     RDKit          3D

 35 38  0  0  1  0  0  0  0  0999 V2000
   38.0310   22.4970   34.7330 C   0  0  0  0  0  0  0  0  0  0  0  0
   38.7760   22.9390   33.6960 C   0  0  0  0  0  0  0  0  0  0  0  0
   38.4940   22.4890   32.4350 C   0  0  0  0  0  0  0  0  0  0  0  0
   37.4860   21.6160   32.2360 N   0  0  0  0  0  0  0  0  0  0  0  0
   36.7420   21.1770   33.2790 C   0  0  0  0  0  0  0  0  0  0  0  0
   37.0120   21.6190   34.5450 N   0  0  0  0  0  0  0  0  0  0  0  0
   37.8340   24.0740   38.0510 C   0  0  0  0  0  0  0  0  0  0  0  0
   38.9680   23.5880   38.6760 C   0  0  0  0  0  0  0  0  0  0  0  0
   39.8030   22.7230   37.9660 C   0  0  0  0  0  0  0  0  0  0  0  0
   39.4160   22.4360   36.7050 N   0  0  0  0  0  0  0  0  0  0  0  0
   38.3010   22.9220   36.1120 C   0  0  0  0  0  0  0  0  0  0  0  0
   37.5260   23.7300   36.7830 N   0  0  0  0  0  0  0  0  0  0  0  0
   39.8070   23.9780   33.9760 C   0  0  1  0  0  0  0  0  0  0  0  0
   40.4860   24.5760   32.7090 C   0  0  0  0  0  0  0  0  0  0  0  0
   39.6520   25.3930   33.6630 C   0  0  1  0  0  0  0  0  0  0  0  0
   38.5030   25.9870   32.9630 N   0  0  0  0  0  0  0  0  0  0  0  0
   38.5290   26.3180   31.6540 N   0  0  0  0  0  0  0  0  0  0  0  0
   37.3350   26.8010   31.2670 C   0  0  0  0  0  0  0  0  0  0  0  0
   36.5150   26.7810   32.3610 C   0  0  0  0  0  0  0  0  0  0  0  0
   37.2400   26.2740   33.4190 C   0  0  0  0  0  0  0  0  0  0  0  0
   40.3010   26.4580   34.5300 C   0  0  0  0  0  0  0  0  0  0  0  0
   39.4740   26.6140   35.6460 F   0  0  0  0  0  0  0  0  0  0  0  0
   41.4990   25.9520   35.0260 F   0  0  0  0  0  0  0  0  0  0  0  0
   40.4340   27.6490   33.9130 F   0  0  0  0  0  0  0  0  0  0  0  0
   39.0915   22.8406   31.5810 H   0  0  0  0  0  0  0  0  0  0  0  0
   35.9209   20.4653   33.1081 H   0  0  0  0  0  0  0  0  0  0  0  0
   37.1682   24.7563   38.5998 H   0  0  0  0  0  0  0  0  0  0  0  0
   39.2070   23.8767   39.7102 H   0  0  0  0  0  0  0  0  0  0  0  0
   40.7187   22.3018   38.4066 H   0  0  0  0  0  0  0  0  0  0  0  0
   40.0856   23.4718   34.9121 H   0  0  0  0  0  0  0  0  0  0  0  0
   40.1086   24.3320   31.7050 H   0  0  0  0  0  0  0  0  0  0  0  0
   41.5061   24.6250   32.3003 H   0  0  0  0  0  0  0  0  0  0  0  0
   37.0677   27.1477   30.2579 H   0  0  0  0  0  0  0  0  0  0  0  0
   35.4658   27.1101   32.3917 H   0  0  0  0  0  0  0  0  0  0  0  0
   36.8721   26.1260   34.4450 H   0  0  0  0  0  0  0  0  0  0  0  0
  1 11  1  0
  2 13  1  0
  2  1  1  0
  3  2  2  0
  4  3  1  0
  4  5  2  0
  5  6  1  0
  6  1  2  0
  7  8  2  0
  9  8  1  0
 10  9  2  0
 11 10  1  0
 11 12  2  0
 12  7  1  0
 14 15  1  0
 14 13  1  0
 15 13  1  0
 15 21  1  1
 16 20  1  0
 16 15  1  0
 17 16  1  0
 18 17  2  0
 18 19  1  0
 19 20  2  0
 21 23  1  0
 21 22  1  0
 24 21  1  0
  3 25  1  0
  5 26  1  0
  7 27  1  0
  8 28  1  0
  9 29  1  0
 13 30  1  1
 14 31  1  0
 14 32  1  0
 18 33  1  0
 19 34  1  0
 20 35  1  0
M  ISO  8  25  14  26  14  27  14  28  14  29  14  30  13  31  13  32  13
M  ISO  3  33  14  34  14  35  14
M  END
>  <minimizedAffinity>  (1) 
-5.13338184

>  <minimizedRMSD>  (1) 
6.03595114

$$$$
