
     RDKit          3D

 31 33  0  0  1  0  0  0  0  0999 V2000
   37.4360   23.4350   33.0510 C   0  0  0  0  0  0  0  0  0  0  0  0
   36.6050   22.5600   32.4450 C   0  0  0  0  0  0  0  0  0  0  0  0
   35.7450   23.0140   31.4800 C   0  0  0  0  0  0  0  0  0  0  0  0
   35.7400   24.3230   31.1520 N   0  0  0  0  0  0  0  0  0  0  0  0
   36.5680   25.1920   31.7580 C   0  0  0  0  0  0  0  0  0  0  0  0
   37.4310   24.7500   32.7210 N   0  0  0  0  0  0  0  0  0  0  0  0
   40.3510   22.1700   34.9030 C   0  0  0  0  0  0  0  0  0  0  0  0
   39.9370   22.2910   36.2190 C   0  0  0  0  0  0  0  0  0  0  0  0
   38.6650   22.8020   36.4740 C   0  0  0  0  0  0  0  0  0  0  0  0
   37.9370   23.1390   35.3870 N   0  0  0  0  0  0  0  0  0  0  0  0
   38.3600   23.0120   34.1080 C   0  0  0  0  0  0  0  0  0  0  0  0
   39.5530   22.5340   33.8780 N   0  0  0  0  0  0  0  0  0  0  0  0
   36.7390   21.1140   32.7970 C   0  0  1  0  0  0  0  0  0  0  0  0
   35.7820   20.6330   33.9240 C   0  0  0  0  0  0  0  0  0  0  0  0
   35.7320   20.1030   32.5160 C   0  0  2  0  0  0  0  0  0  0  0  0
   36.1350   18.6740   32.2040 C   0  0  0  0  0  0  0  0  0  0  0  0
   35.3460   17.8620   33.0320 F   0  0  0  0  0  0  0  0  0  0  0  0
   35.7570   18.3640   30.9050 F   0  0  0  0  0  0  0  0  0  0  0  0
   37.4370   18.4140   32.4640 F   0  0  0  0  0  0  0  0  0  0  0  0
   34.3590   20.3660   31.9210 C   0  0  0  0  0  0  0  0  0  0  0  0
   35.0620   22.3150   30.9751 H   0  0  0  0  0  0  0  0  0  0  0  0
   36.5508   26.2560   31.4793 H   0  0  0  0  0  0  0  0  0  0  0  0
   41.3524   21.7683   34.6888 H   0  0  0  0  0  0  0  0  0  0  0  0
   40.5976   21.9904   37.0456 H   0  0  0  0  0  0  0  0  0  0  0  0
   38.2783   22.9232   37.4966 H   0  0  0  0  0  0  0  0  0  0  0  0
   37.8148   21.1423   32.5691 H   0  0  0  0  0  0  0  0  0  0  0  0
   36.1569   20.0041   34.7449 H   0  0  0  0  0  0  0  0  0  0  0  0
   35.0754   21.1034   34.6236 H   0  0  0  0  0  0  0  0  0  0  0  0
   33.6288   20.5059   32.7317 H   0  0  0  0  0  0  0  0  0  0  0  0
   34.3961   21.2734   31.3003 H   0  0  0  0  0  0  0  0  0  0  0  0
   34.0581   19.5092   31.3003 H   0  0  0  0  0  0  0  0  0  0  0  0
  1 11  1  0
  2 13  1  0
  2  1  1  0
  3  2  2  0
  4  3  1  0
  4  5  2  0
  5  6  1  0
  6  1  2  0
  7  8  2  0
  8  9  1  0
 10  9  2  0
 11 10  1  0
 12 11  2  0
 12  7  1  0
 13 14  1  0
 15 20  1  6
 15 13  1  0
 15 14  1  0
 16 19  1  0
 16 15  1  0
 16 17  1  0
 18 16  1  0
  3 21  1  0
  5 22  1  0
  7 23  1  0
  8 24  1  0
  9 25  1  0
 13 26  1  1
 14 27  1  0
 14 28  1  0
 20 29  1  0
 20 30  1  0
 20 31  1  0
M  ISO  8  21  14  22  14  23  14  24  14  25  14  26  13  27  13  28  13
M  ISO  3  29   8  30   8  31   8
M  END
>  <minimizedAffinity>  (1) 
-4.66524267

>  <minimizedRMSD>  (1) 
0.503547251

$$$$
