
     RDKit          3D

 36 39  0  0  1  0  0  0  0  0999 V2000
   37.5540   24.1950   32.7350 C   0  0  0  0  0  0  0  0  0  0  0  0
   38.5200   23.8550   33.6150 C   0  0  0  0  0  0  0  0  0  0  0  0
   38.6070   22.5590   34.0530 C   0  0  0  0  0  0  0  0  0  0  0  0
   37.7270   21.6420   33.5980 N   0  0  0  0  0  0  0  0  0  0  0  0
   36.7590   21.9820   32.7140 C   0  0  0  0  0  0  0  0  0  0  0  0
   36.6710   23.2750   32.2770 N   0  0  0  0  0  0  0  0  0  0  0  0
   37.6260   27.2740   30.7340 C   0  0  0  0  0  0  0  0  0  0  0  0
   36.9880   28.1850   31.5570 C   0  0  0  0  0  0  0  0  0  0  0  0
   36.5350   27.7430   32.7990 C   0  0  0  0  0  0  0  0  0  0  0  0
   36.7660   26.4450   33.0860 N   0  0  0  0  0  0  0  0  0  0  0  0
   37.3930   25.5710   32.2640 C   0  0  0  0  0  0  0  0  0  0  0  0
   37.8160   25.9880   31.1020 N   0  0  0  0  0  0  0  0  0  0  0  0
   39.5210   24.8940   33.9880 C   0  0  1  0  0  0  0  0  0  0  0  0
   39.3980   25.4240   35.4450 C   0  0  0  0  0  0  0  0  0  0  0  0
   40.6100   24.6920   34.9330 C   0  0  1  0  0  0  0  0  0  0  0  0
   40.9240   23.4230   35.6640 C   0  0  0  0  0  0  0  0  0  0  0  0
   40.4580   23.1350   36.9390 C   0  0  0  0  0  0  0  0  0  0  0  0
   40.8660   21.9450   37.5150 C   0  0  0  0  0  0  0  0  0  0  0  0
   41.6940   21.0720   36.8750 N   0  0  0  0  0  0  0  0  0  0  0  0
   42.1280   21.3810   35.6400 C   0  0  0  0  0  0  0  0  0  0  0  0
   41.7590   22.5410   35.0210 N   0  0  0  0  0  0  0  0  0  0  0  0
   41.9200   25.4460   34.7740 C   0  0  0  0  0  0  0  0  0  0  0  0
   42.7230   25.0690   35.8460 F   0  0  0  0  0  0  0  0  0  0  0  0
   42.5750   24.9140   33.6530 F   0  0  0  0  0  0  0  0  0  0  0  0
   41.7900   26.7790   34.7300 F   0  0  0  0  0  0  0  0  0  0  0  0
   39.3886   22.2682   34.7704 H   0  0  0  0  0  0  0  0  0  0  0  0
   36.0493   21.2243   32.3504 H   0  0  0  0  0  0  0  0  0  0  0  0
   37.9894   27.6067   29.7505 H   0  0  0  0  0  0  0  0  0  0  0  0
   36.8424   29.2283   31.2403 H   0  0  0  0  0  0  0  0  0  0  0  0
   36.0198   28.4127   33.5033 H   0  0  0  0  0  0  0  0  0  0  0  0
   39.5232   25.2764   32.9566 H   0  0  0  0  0  0  0  0  0  0  0  0
   39.4435   26.5033   35.6526 H   0  0  0  0  0  0  0  0  0  0  0  0
   38.6895   25.3059   36.2781 H   0  0  0  0  0  0  0  0  0  0  0  0
   39.7892   23.8270   37.4718 H   0  0  0  0  0  0  0  0  0  0  0  0
   40.5095   21.6947   38.5251 H   0  0  0  0  0  0  0  0  0  0  0  0
   42.7965   20.6823   35.1158 H   0  0  0  0  0  0  0  0  0  0  0  0
  1  2  1  0
  2 13  1  0
  2  3  2  0
  4  3  1  0
  5  4  2  0
  6  5  1  0
  6  1  2  0
  7 12  2  0
  7  8  1  0
  8  9  2  0
  9 10  1  0
 11  1  1  0
 11 10  2  0
 12 11  1  0
 13 15  1  0
 13 14  1  0
 15 22  1  6
 15 14  1  0
 15 16  1  0
 16 17  2  0
 17 18  1  0
 19 18  2  0
 20 19  1  0
 21 20  2  0
 21 16  1  0
 22 23  1  0
 24 22  1  0
 25 22  1  0
  3 26  1  0
  5 27  1  0
  7 28  1  0
  8 29  1  0
  9 30  1  0
 13 31  1  6
 14 32  1  0
 14 33  1  0
 17 34  1  0
 18 35  1  0
 20 36  1  0
M  ISO  8  26  14  27  14  28  14  29  14  30  14  31  13  32  13  33  13
M  ISO  3  34  14  35  14  36  14
M  END
>  <minimizedAffinity>  (1) 
-4.71423864

>  <minimizedRMSD>  (1) 
7.43895817

$$$$
