
     RDKit          3D

 40 43  0  0  1  0  0  0  0  0999 V2000
   37.9750   23.2960   34.9520 C   0  0  0  0  0  0  0  0  0  0  0  0
   38.1970   24.6210   35.0890 C   0  0  0  0  0  0  0  0  0  0  0  0
   38.1480   25.1760   36.3460 C   0  0  0  0  0  0  0  0  0  0  0  0
   37.8800   24.3970   37.4110 N   0  0  0  0  0  0  0  0  0  0  0  0
   37.6600   23.0730   37.2600 C   0  0  0  0  0  0  0  0  0  0  0  0
   37.7060   22.5080   36.0200 N   0  0  0  0  0  0  0  0  0  0  0  0
   38.8800   21.2920   31.9920 C   0  0  0  0  0  0  0  0  0  0  0  0
   37.8260   21.5490   31.1330 C   0  0  0  0  0  0  0  0  0  0  0  0
   36.8120   22.4050   31.5620 C   0  0  0  0  0  0  0  0  0  0  0  0
   36.9500   22.9180   32.8050 N   0  0  0  0  0  0  0  0  0  0  0  0
   37.9910   22.6530   33.6300 C   0  0  0  0  0  0  0  0  0  0  0  0
   38.9350   21.8510   33.2190 N   0  0  0  0  0  0  0  0  0  0  0  0
   38.5830   25.3980   33.8760 C   0  0  1  0  0  0  0  0  0  0  0  0
   39.2840   26.7510   34.1560 C   0  0  0  0  0  0  0  0  0  0  0  0
   39.9600   25.5810   33.4430 C   0  0  1  0  0  0  0  0  0  0  0  0
   41.0700   25.1420   34.2440 N   0  0  0  0  0  0  0  0  0  0  0  0
   41.9910   26.1200   34.6770 C   0  0  0  0  0  0  0  0  0  0  0  0
   43.1240   25.2910   35.2800 C   0  0  0  0  0  0  0  0  0  0  0  0
   42.8400   23.8680   34.9360 C   0  0  0  0  0  0  0  0  0  0  0  0
   41.6780   23.9190   33.9320 C   0  0  0  0  0  0  0  0  0  0  0  0
   40.3070   25.7290   31.9800 C   0  0  0  0  0  0  0  0  0  0  0  0
   41.6980   25.8420   31.8900 F   0  0  0  0  0  0  0  0  0  0  0  0
   39.9750   24.5540   31.3240 F   0  0  0  0  0  0  0  0  0  0  0  0
   39.7490   26.8190   31.3950 F   0  0  0  0  0  0  0  0  0  0  0  0
   38.3272   26.2529   36.4811 H   0  0  0  0  0  0  0  0  0  0  0  0
   37.4432   22.4490   38.1396 H   0  0  0  0  0  0  0  0  0  0  0  0
   39.6881   20.6195   31.6686 H   0  0  0  0  0  0  0  0  0  0  0  0
   37.7888   21.0887   30.1346 H   0  0  0  0  0  0  0  0  0  0  0  0
   35.9490   22.6489   30.9251 H   0  0  0  0  0  0  0  0  0  0  0  0
   37.6992   25.0274   33.3360 H   0  0  0  0  0  0  0  0  0  0  0  0
   38.9975   27.6555   33.5993 H   0  0  0  0  0  0  0  0  0  0  0  0
   39.4907   27.3754   35.0377 H   0  0  0  0  0  0  0  0  0  0  0  0
   42.3514   26.7241   33.8313 H   0  0  0  0  0  0  0  0  0  0  0  0
   41.5557   26.8371   35.3885 H   0  0  0  0  0  0  0  0  0  0  0  0
   44.0893   25.5996   34.8523 H   0  0  0  0  0  0  0  0  0  0  0  0
   43.1824   25.4319   36.3694 H   0  0  0  0  0  0  0  0  0  0  0  0
   43.7236   23.3980   34.4795 H   0  0  0  0  0  0  0  0  0  0  0  0
   42.5878   23.2729   35.8261 H   0  0  0  0  0  0  0  0  0  0  0  0
   40.9840   23.0789   34.0823 H   0  0  0  0  0  0  0  0  0  0  0  0
   41.9978   23.8402   32.8825 H   0  0  0  0  0  0  0  0  0  0  0  0
  1  2  1  0
  1  6  2  0
  2  3  2  0
  3  4  1  0
  5  4  2  0
  6  5  1  0
  7 12  2  0
  8  9  2  0
  8  7  1  0
  9 10  1  0
 10 11  2  0
 11  1  1  0
 12 11  1  0
 13 14  1  0
 13  2  1  0
 15 21  1  6
 15 13  1  0
 15 14  1  0
 15 16  1  0
 16 17  1  0
 17 18  1  0
 19 18  1  0
 20 16  1  0
 20 19  1  0
 22 21  1  0
 23 21  1  0
 24 21  1  0
  3 25  1  0
  5 26  1  0
  7 27  1  0
  8 28  1  0
  9 29  1  0
 13 30  1  6
 14 31  1  0
 14 32  1  0
 17 33  1  0
 17 34  1  0
 18 35  1  0
 18 36  1  0
 19 37  1  0
 19 38  1  0
 20 39  1  0
 20 40  1  0
M  ISO  8  25  14  26  14  27  14  28  14  29  14  30  13  31  13  32  13
M  ISO  8  33  13  34  13  35  13  36  13  37  13  38  13  39  13  40  13
M  END
>  <minimizedAffinity>  (1) 
-4.09872341

>  <minimizedRMSD>  (1) 
7.03148937

$$$$
