
     RDKit          3D

 35 37  0  0  1  0  0  0  0  0999 V2000
   38.6270   22.7110   33.2050 C   0  0  1  0  0  0  0  0  0  0  0  0
   38.5440   21.6790   34.3590 C   0  0  0  0  0  0  0  0  0  0  0  0
   37.8250   21.5130   33.0280 C   0  0  1  0  0  0  0  0  0  0  0  0
   38.4920   24.6700   34.6430 C   0  0  0  0  0  0  0  0  0  0  0  0
   38.0640   24.0570   33.5170 C   0  0  0  0  0  0  0  0  0  0  0  0
   37.2130   24.7150   32.6720 C   0  0  0  0  0  0  0  0  0  0  0  0
   36.8110   25.9700   32.9770 N   0  0  0  0  0  0  0  0  0  0  0  0
   37.2370   26.5810   34.0990 C   0  0  0  0  0  0  0  0  0  0  0  0
   38.0890   25.9260   34.9450 N   0  0  0  0  0  0  0  0  0  0  0  0
   41.4290   23.2160   36.3030 C   0  0  0  0  0  0  0  0  0  0  0  0
   40.8970   22.7430   37.4900 C   0  0  0  0  0  0  0  0  0  0  0  0
   39.5320   22.9210   37.7210 C   0  0  0  0  0  0  0  0  0  0  0  0
   38.8390   23.5500   36.7460 N   0  0  0  0  0  0  0  0  0  0  0  0
   39.3850   24.0020   35.5920 C   0  0  0  0  0  0  0  0  0  0  0  0
   40.6630   23.8340   35.3810 N   0  0  0  0  0  0  0  0  0  0  0  0
   36.3610   21.4330   33.1550 N   0  0  0  0  0  0  0  0  0  0  0  0
   35.4550   21.4770   32.0540 C   0  0  0  0  0  0  0  0  0  0  0  0
   35.7140   22.3020   31.1370 N   0  0  0  0  0  0  0  0  0  0  0  0
   34.2870   20.6500   31.9690 N   0  0  0  0  0  0  0  0  0  0  0  0
   36.4690   22.9700   31.0190 H   0  0  0  0  0  0  0  0  0  0  0  0
   38.2690   20.3960   32.1110 C   0  0  0  0  0  0  0  0  0  0  0  0
   37.2810   19.4160   32.1360 F   0  0  0  0  0  0  0  0  0  0  0  0
   38.2410   20.9030   30.8000 F   0  0  0  0  0  0  0  0  0  0  0  0
   39.4620   19.8570   32.4300 F   0  0  0  0  0  0  0  0  0  0  0  0
   39.3909   23.1681   32.5588 H   0  0  0  0  0  0  0  0  0  0  0  0
   39.4101   21.0489   34.6096 H   0  0  0  0  0  0  0  0  0  0  0  0
   38.2624   21.6914   35.4223 H   0  0  0  0  0  0  0  0  0  0  0  0
   36.8584   24.2275   31.7519 H   0  0  0  0  0  0  0  0  0  0  0  0
   36.9014   27.6019   34.3339 H   0  0  0  0  0  0  0  0  0  0  0  0
   42.5033   23.0846   36.1068 H   0  0  0  0  0  0  0  0  0  0  0  0
   41.5337   22.2396   38.2324 H   0  0  0  0  0  0  0  0  0  0  0  0
   39.0479   22.5694   38.6440 H   0  0  0  0  0  0  0  0  0  0  0  0
   35.9645   21.3391   34.1010 H   0  0  0  0  0  0  0  0  0  0  0  0
   33.6644   20.7206   31.1515 H   0  0  0  0  0  0  0  0  0  0  0  0
   34.0705   19.9853   32.7254 H   0  0  0  0  0  0  0  0  0  0  0  0
  1  5  1  0
  1  2  1  0
  3 21  1  0
  3 16  1  1
  3  1  1  0
  3  2  1  0
  4  9  1  0
  4 14  1  0
  5  4  2  0
  6  7  2  0
  6  5  1  0
  7  8  1  0
  8  9  2  0
 10 11  2  0
 11 12  1  0
 13 12  2  0
 14 13  1  0
 15 14  2  0
 15 10  1  0
 17 16  1  0
 18 17  2  0
 19 17  1  0
 20 18  1  0
 21 22  1  0
 21 24  1  0
 23 21  1  0
  1 25  1  6
  2 26  1  0
  2 27  1  0
  6 28  1  0
  8 29  1  0
 10 30  1  0
 11 31  1  0
 12 32  1  0
 16 33  1  0
 19 34  1  0
 19 35  1  0
M  ISO  8  25  13  26  13  27  13  28  14  29  14  30  14  31  14  32  14
M  END
>  <minimizedAffinity>  (1) 
-4.44115067

>  <minimizedRMSD>  (1) 
2.54550552

$$$$
