
     RDKit          3D

 45 49  0  0  1  0  0  0  0  0999 V2000
   38.3380   23.1630   32.7970 C   0  0  1  0  0  0  0  0  0  0  0  0
   37.9510   22.2610   34.0450 C   0  0  0  0  0  0  0  0  0  0  0  0
   38.5710   21.7400   32.7680 C   0  0  1  0  0  0  0  0  0  0  0  0
   36.9810   25.1640   32.4740 C   0  0  0  0  0  0  0  0  0  0  0  0
   37.1620   23.8600   32.1920 C   0  0  0  0  0  0  0  0  0  0  0  0
   36.3370   23.2510   31.3010 C   0  0  0  0  0  0  0  0  0  0  0  0
   35.3550   23.9380   30.7070 N   0  0  0  0  0  0  0  0  0  0  0  0
   35.1680   25.2550   30.9870 C   0  0  0  0  0  0  0  0  0  0  0  0
   35.9890   25.8770   31.8800 N   0  0  0  0  0  0  0  0  0  0  0  0
   39.6450   27.0680   34.1470 C   0  0  0  0  0  0  0  0  0  0  0  0
   39.2120   27.1230   35.4470 C   0  0  0  0  0  0  0  0  0  0  0  0
   38.0130   26.5110   35.7630 C   0  0  0  0  0  0  0  0  0  0  0  0
   37.3740   25.9080   34.7420 N   0  0  0  0  0  0  0  0  0  0  0  0
   37.8230   25.8650   33.4550 C   0  0  0  0  0  0  0  0  0  0  0  0
   38.9420   26.4390   33.1710 N   0  0  0  0  0  0  0  0  0  0  0  0
   37.6370   20.7310   32.1410 C   0  0  0  0  0  0  0  0  0  0  0  0
   36.3980   20.2330   32.6390 C   0  0  0  0  0  0  0  0  0  0  0  0
   35.8740   19.3300   31.7420 C   0  0  0  0  0  0  0  0  0  0  0  0
   36.7920   19.2940   30.7290 C   0  0  0  0  0  0  0  0  0  0  0  0
   37.7630   20.0800   30.9740 O   0  0  0  0  0  0  0  0  0  0  0  0
   36.6950   18.4750   29.5230 C   0  0  0  0  0  0  0  0  0  0  0  0
   36.7600   17.1000   29.6030 C   0  0  0  0  0  0  0  0  0  0  0  0
   36.6730   16.2650   28.4870 C   0  0  0  0  0  0  0  0  0  0  0  0
   36.5120   16.8340   27.2300 C   0  0  0  0  0  0  0  0  0  0  0  0
   36.4480   18.1950   27.1620 C   0  0  0  0  0  0  0  0  0  0  0  0
   36.5360   18.9950   28.2730 C   0  0  0  0  0  0  0  0  0  0  0  0
   39.9740   21.1760   32.7520 C   0  0  0  0  0  0  0  0  0  0  0  0
   39.8460   19.7930   32.6380 F   0  0  0  0  0  0  0  0  0  0  0  0
   40.5930   21.5900   31.5630 F   0  0  0  0  0  0  0  0  0  0  0  0
   40.6860   21.4610   33.8540 F   0  0  0  0  0  0  0  0  0  0  0  0
   39.0022   23.9952   32.5208 H   0  0  0  0  0  0  0  0  0  0  0  0
   38.5356   22.3079   34.9756 H   0  0  0  0  0  0  0  0  0  0  0  0
   37.0494   22.0585   34.6418 H   0  0  0  0  0  0  0  0  0  0  0  0
   36.4775   22.1855   31.0664 H   0  0  0  0  0  0  0  0  0  0  0  0
   34.3589   25.8155   30.4959 H   0  0  0  0  0  0  0  0  0  0  0  0
   40.5977   27.5517   33.8854 H   0  0  0  0  0  0  0  0  0  0  0  0
   39.8026   27.6400   36.2176 H   0  0  0  0  0  0  0  0  0  0  0  0
   37.6062   26.5163   36.7850 H   0  0  0  0  0  0  0  0  0  0  0  0
   35.9328   20.5249   33.5921 H   0  0  0  0  0  0  0  0  0  0  0  0
   34.9327   18.7665   31.8217 H   0  0  0  0  0  0  0  0  0  0  0  0
   36.8865   16.6386   30.5935 H   0  0  0  0  0  0  0  0  0  0  0  0
   36.7311   15.1725   28.6017 H   0  0  0  0  0  0  0  0  0  0  0  0
   36.4390   16.2120   26.3257 H   0  0  0  0  0  0  0  0  0  0  0  0
   36.3209   18.6696   26.1778 H   0  0  0  0  0  0  0  0  0  0  0  0
   36.4766   20.0867   28.1517 H   0  0  0  0  0  0  0  0  0  0  0  0
  1  2  1  0
  3 27  1  1
  3  1  1  0
  3  2  1  0
  4 14  1  0
  5  4  1  0
  5  1  1  0
  6  5  2  0
  7  8  2  0
  7  6  1  0
  8  9  1  0
  9  4  2  0
 10 11  2  0
 11 12  1  0
 13 12  2  0
 14 13  1  0
 15 14  2  0
 15 10  1  0
 16 17  2  0
 16  3  1  0
 18 17  1  0
 19 20  1  0
 19 18  2  0
 20 16  1  0
 21 22  2  0
 21 19  1  0
 23 22  1  0
 24 23  2  0
 25 24  1  0
 25 26  2  0
 26 21  1  0
 27 30  1  0
 28 27  1  0
 29 27  1  0
  1 31  1  1
  2 32  1  0
  2 33  1  0
  6 34  1  0
  8 35  1  0
 10 36  1  0
 11 37  1  0
 12 38  1  0
 17 39  1  0
 18 40  1  0
 22 41  1  0
 23 42  1  0
 24 43  1  0
 25 44  1  0
 26 45  1  0
M  ISO  8  31  13  32  13  33  13  34  14  35  14  36  14  37  14  38  14
M  ISO  7  39  14  40  14  41  14  42  14  43  14  44  14  45  14
M  END
>  <minimizedAffinity>  (1) 
-5.21152735

>  <minimizedRMSD>  (1) 
0.981730521

$$$$
