
     RDKit          3D

 36 39  0  0  1  0  0  0  0  0999 V2000
   38.1600   23.2210   32.7670 C   0  0  1  0  0  0  0  0  0  0  0  0
   37.7310   22.3350   34.0160 C   0  0  0  0  0  0  0  0  0  0  0  0
   38.3110   21.7850   32.7340 C   0  0  1  0  0  0  0  0  0  0  0  0
   36.9140   25.2940   32.4680 C   0  0  0  0  0  0  0  0  0  0  0  0
   37.0250   23.9830   32.1780 C   0  0  0  0  0  0  0  0  0  0  0  0
   36.1620   23.4260   31.2850 C   0  0  0  0  0  0  0  0  0  0  0  0
   35.2140   24.1700   30.6980 N   0  0  0  0  0  0  0  0  0  0  0  0
   35.1010   25.4940   30.9890 C   0  0  0  0  0  0  0  0  0  0  0  0
   35.9600   26.0630   31.8830 N   0  0  0  0  0  0  0  0  0  0  0  0
   39.6730   27.0500   34.1450 C   0  0  0  0  0  0  0  0  0  0  0  0
   39.2550   27.1040   35.4480 C   0  0  0  0  0  0  0  0  0  0  0  0
   38.0330   26.5400   35.7660 C   0  0  0  0  0  0  0  0  0  0  0  0
   37.3590   25.9830   34.7430 N   0  0  0  0  0  0  0  0  0  0  0  0
   37.7950   25.9410   33.4500 C   0  0  0  0  0  0  0  0  0  0  0  0
   38.9370   26.4690   33.1670 N   0  0  0  0  0  0  0  0  0  0  0  0
   37.3180   20.8330   32.1100 C   0  0  0  0  0  0  0  0  0  0  0  0
   36.1270   20.2950   32.6760 C   0  0  0  0  0  0  0  0  0  0  0  0
   35.5150   19.4700   31.7590 C   0  0  0  0  0  0  0  0  0  0  0  0
   36.3370   19.5200   30.6670 C   0  0  0  0  0  0  0  0  0  0  0  0
   37.3330   20.2830   30.8840 O   0  0  0  0  0  0  0  0  0  0  0  0
   36.0920   18.8190   29.4830 O   0  0  0  0  0  0  0  0  0  0  0  0
   39.6800   21.1430   32.7080 C   0  0  0  0  0  0  0  0  0  0  0  0
   39.4750   19.7720   32.5710 F   0  0  0  0  0  0  0  0  0  0  0  0
   40.3200   21.5380   31.5230 F   0  0  0  0  0  0  0  0  0  0  0  0
   40.4080   21.3720   33.8120 F   0  0  0  0  0  0  0  0  0  0  0  0
   38.8683   24.0146   32.4869 H   0  0  0  0  0  0  0  0  0  0  0  0
   38.3239   22.3449   34.9425 H   0  0  0  0  0  0  0  0  0  0  0  0
   36.8235   22.1812   34.6184 H   0  0  0  0  0  0  0  0  0  0  0  0
   36.2432   22.3560   31.0429 H   0  0  0  0  0  0  0  0  0  0  0  0
   34.3217   26.1021   30.5064 H   0  0  0  0  0  0  0  0  0  0  0  0
   40.6438   27.4955   33.8822 H   0  0  0  0  0  0  0  0  0  0  0  0
   39.8744   27.5830   36.2206 H   0  0  0  0  0  0  0  0  0  0  0  0
   37.6363   26.5463   36.7920 H   0  0  0  0  0  0  0  0  0  0  0  0
   35.7537   20.5059   33.6890 H   0  0  0  0  0  0  0  0  0  0  0  0
   34.5806   18.9018   31.8774 H   0  0  0  0  0  0  0  0  0  0  0  0
   35.2880   18.2467   29.4039 H   0  0  0  0  0  0  0  0  0  0  0  0
  1  2  1  0
  3 22  1  1
  3  1  1  0
  3  2  1  0
  4 14  1  0
  5  4  1  0
  5  1  1  0
  6  5  2  0
  7  8  2  0
  7  6  1  0
  8  9  1  0
  9  4  2  0
 10 11  2  0
 11 12  1  0
 13 12  2  0
 14 13  1  0
 15 14  2  0
 15 10  1  0
 16 17  2  0
 16  3  1  0
 18 17  1  0
 19 20  1  0
 19 18  2  0
 20 16  1  0
 21 19  1  0
 22 25  1  0
 23 22  1  0
 24 22  1  0
  1 26  1  1
  2 27  1  0
  2 28  1  0
  6 29  1  0
  8 30  1  0
 10 31  1  0
 11 32  1  0
 12 33  1  0
 17 34  1  0
 18 35  1  0
 21 36  1  0
M  ISO  8  26  13  27  13  28  13  29  14  30  14  31  14  32  14  33  14
M  ISO  3  34  14  35  14  36   3
M  END
>  <minimizedAffinity>  (1) 
-5.02461624

>  <minimizedRMSD>  (1) 
0.365125299

$$$$
