
     RDKit          3D

 38 41  0  0  1  0  0  0  0  0999 V2000
   38.4820   23.4260   32.6750 C   0  0  1  0  0  0  0  0  0  0  0  0
   38.3420   22.9880   34.1990 C   0  0  0  0  0  0  0  0  0  0  0  0
   38.5970   22.0380   33.0520 C   0  0  1  0  0  0  0  0  0  0  0  0
   36.9930   25.3510   32.5090 C   0  0  0  0  0  0  0  0  0  0  0  0
   37.2530   24.0830   32.1430 C   0  0  0  0  0  0  0  0  0  0  0  0
   36.4450   23.4760   31.2310 C   0  0  0  0  0  0  0  0  0  0  0  0
   35.4030   24.1300   30.7040 N   0  0  0  0  0  0  0  0  0  0  0  0
   35.1400   25.4130   31.0740 C   0  0  0  0  0  0  0  0  0  0  0  0
   35.9420   26.0310   31.9840 N   0  0  0  0  0  0  0  0  0  0  0  0
   39.6660   27.1440   34.2870 C   0  0  0  0  0  0  0  0  0  0  0  0
   39.1400   27.3120   35.5420 C   0  0  0  0  0  0  0  0  0  0  0  0
   37.8730   26.8140   35.7910 C   0  0  0  0  0  0  0  0  0  0  0  0
   37.2720   26.2020   34.7540 N   0  0  0  0  0  0  0  0  0  0  0  0
   37.8130   26.0450   33.5140 C   0  0  0  0  0  0  0  0  0  0  0  0
   38.9940   26.5140   33.2940 N   0  0  0  0  0  0  0  0  0  0  0  0
   37.4670   21.0370   32.9780 C   0  0  0  0  0  0  0  0  0  0  0  0
   36.2860   20.9640   33.7730 C   0  0  0  0  0  0  0  0  0  0  0  0
   35.5210   19.8960   33.3640 C   0  0  0  0  0  0  0  0  0  0  0  0
   36.2430   19.3440   32.3420 C   0  0  0  0  0  0  0  0  0  0  0  0
   37.3200   19.9920   32.1460 O   0  0  0  0  0  0  0  0  0  0  0  0
   35.8110   18.1610   31.5870 C   0  0  0  0  0  0  0  0  0  0  0  0
   35.2500   17.2020   32.1800 O   0  0  0  0  0  0  0  0  0  0  0  0
   35.9950   18.0500   30.2160 O   0  0  0  0  0  0  0  0  0  0  0  0
   39.9080   21.2990   32.9220 C   0  0  0  0  0  0  0  0  0  0  0  0
   39.5910   19.9640   32.6730 F   0  0  0  0  0  0  0  0  0  0  0  0
   40.5480   21.7490   31.7590 F   0  0  0  0  0  0  0  0  0  0  0  0
   40.6810   21.3690   34.0200 F   0  0  0  0  0  0  0  0  0  0  0  0
   39.1182   24.0351   32.0160 H   0  0  0  0  0  0  0  0  0  0  0  0
   39.1352   23.2183   34.9255 H   0  0  0  0  0  0  0  0  0  0  0  0
   37.5984   23.0977   35.0021 H   0  0  0  0  0  0  0  0  0  0  0  0
   36.6502   22.4396   30.9247 H   0  0  0  0  0  0  0  0  0  0  0  0
   34.2829   25.9484   30.6395 H   0  0  0  0  0  0  0  0  0  0  0  0
   40.6725   27.5359   34.0786 H   0  0  0  0  0  0  0  0  0  0  0  0
   39.7092   27.8283   36.3291 H   0  0  0  0  0  0  0  0  0  0  0  0
   37.3883   26.9121   36.7735 H   0  0  0  0  0  0  0  0  0  0  0  0
   36.0262   21.6553   34.5882 H   0  0  0  0  0  0  0  0  0  0  0  0
   34.5527   19.5631   33.7660 H   0  0  0  0  0  0  0  0  0  0  0  0
   36.4322   18.7830   29.7143 H   0  0  0  0  0  0  0  0  0  0  0  0
  1  3  1  0
  1  2  1  0
  3 24  1  1
  3  2  1  0
  4 14  1  0
  5  4  1  0
  5  1  1  0
  6  5  2  0
  7  8  2  0
  7  6  1  0
  8  9  1  0
  9  4  2  0
 10 11  2  0
 11 12  1  0
 13 12  2  0
 14 13  1  0
 15 14  2  0
 15 10  1  0
 16  3  1  0
 16 17  2  0
 18 17  1  0
 19 18  2  0
 20 19  1  0
 20 16  1  0
 21 22  2  0
 21 19  1  0
 23 21  1  0
 24 27  1  0
 25 24  1  0
 26 24  1  0
  1 28  1  1
  2 29  1  0
  2 30  1  0
  6 31  1  0
  8 32  1  0
 10 33  1  0
 11 34  1  0
 12 35  1  0
 17 36  1  0
 18 37  1  0
 23 38  1  0
M  ISO  8  28  13  29  13  30  13  31  14  32  14  33  14  34  14  35  14
M  ISO  3  36  14  37  14  38   3
M  END
>  <minimizedAffinity>  (1) 
-5.02349424

>  <minimizedRMSD>  (1) 
0.966569364

$$$$
