
     RDKit          3D

 47 51  0  0  1  0  0  0  0  0999 V2000
   38.2160   23.2200   32.7610 C   0  0  1  0  0  0  0  0  0  0  0  0
   37.8150   22.3760   34.0470 C   0  0  0  0  0  0  0  0  0  0  0  0
   38.3750   21.7860   32.7750 C   0  0  1  0  0  0  0  0  0  0  0  0
   36.9240   25.2620   32.4510 C   0  0  0  0  0  0  0  0  0  0  0  0
   37.0630   23.9560   32.1570 C   0  0  0  0  0  0  0  0  0  0  0  0
   36.2220   23.3790   31.2640 C   0  0  0  0  0  0  0  0  0  0  0  0
   35.2590   24.1000   30.6760 N   0  0  0  0  0  0  0  0  0  0  0  0
   35.1110   25.4180   30.9650 C   0  0  0  0  0  0  0  0  0  0  0  0
   35.9530   26.0100   31.8630 N   0  0  0  0  0  0  0  0  0  0  0  0
   39.6520   27.0610   34.1440 C   0  0  0  0  0  0  0  0  0  0  0  0
   39.2050   27.1340   35.4400 C   0  0  0  0  0  0  0  0  0  0  0  0
   37.9780   26.5710   35.7460 C   0  0  0  0  0  0  0  0  0  0  0  0
   37.3250   25.9940   34.7190 N   0  0  0  0  0  0  0  0  0  0  0  0
   37.7890   25.9320   33.4350 C   0  0  0  0  0  0  0  0  0  0  0  0
   38.9330   26.4600   33.1620 N   0  0  0  0  0  0  0  0  0  0  0  0
   37.3840   20.8060   32.1960 C   0  0  0  0  0  0  0  0  0  0  0  0
   36.1460   20.3780   32.7250 C   0  0  0  0  0  0  0  0  0  0  0  0
   35.5510   19.4820   31.8770 C   0  0  0  0  0  0  0  0  0  0  0  0
   36.4340   19.3740   30.8470 C   0  0  0  0  0  0  0  0  0  0  0  0
   37.4520   20.1210   31.0450 O   0  0  0  0  0  0  0  0  0  0  0  0
   36.5720   18.6830   29.6120 N   0  0  0  0  0  0  0  0  0  0  0  0
   36.5290   19.0020   28.2000 C   0  0  0  0  0  0  0  0  0  0  0  0
   36.8040   17.7700   27.4270 C   0  0  0  0  0  0  0  0  0  0  0  0
   36.7030   16.6520   28.4050 C   0  0  0  0  0  0  0  0  0  0  0  0
   36.8450   17.2550   29.7790 C   0  0  0  0  0  0  0  0  0  0  0  0
   39.7510   21.1550   32.7460 C   0  0  0  0  0  0  0  0  0  0  0  0
   39.5560   19.7780   32.6120 F   0  0  0  0  0  0  0  0  0  0  0  0
   40.3870   21.5470   31.5620 F   0  0  0  0  0  0  0  0  0  0  0  0
   40.4770   21.3890   33.8510 F   0  0  0  0  0  0  0  0  0  0  0  0
   38.9138   24.0091   32.4441 H   0  0  0  0  0  0  0  0  0  0  0  0
   38.4243   22.4212   34.9617 H   0  0  0  0  0  0  0  0  0  0  0  0
   36.9195   22.2381   34.6708 H   0  0  0  0  0  0  0  0  0  0  0  0
   36.3314   22.3118   31.0209 H   0  0  0  0  0  0  0  0  0  0  0  0
   34.3181   26.0056   30.4792 H   0  0  0  0  0  0  0  0  0  0  0  0
   40.6266   27.5049   33.8927 H   0  0  0  0  0  0  0  0  0  0  0  0
   39.8074   27.6280   36.2166 H   0  0  0  0  0  0  0  0  0  0  0  0
   37.5623   26.5934   36.7642 H   0  0  0  0  0  0  0  0  0  0  0  0
   35.7206   20.7161   33.6814 H   0  0  0  0  0  0  0  0  0  0  0  0
   34.5854   18.9696   31.9997 H   0  0  0  0  0  0  0  0  0  0  0  0
   35.5332   19.3889   27.9380 H   0  0  0  0  0  0  0  0  0  0  0  0
   37.2829   19.7679   27.9655 H   0  0  0  0  0  0  0  0  0  0  0  0
   36.0616   17.6465   26.6248 H   0  0  0  0  0  0  0  0  0  0  0  0
   37.7935   17.8029   26.9476 H   0  0  0  0  0  0  0  0  0  0  0  0
   35.7269   16.1539   28.3100 H   0  0  0  0  0  0  0  0  0  0  0  0
   37.4847   15.8996   28.2236 H   0  0  0  0  0  0  0  0  0  0  0  0
   37.8645   17.1012   30.1624 H   0  0  0  0  0  0  0  0  0  0  0  0
   36.1567   16.7906   30.5005 H   0  0  0  0  0  0  0  0  0  0  0  0
  1  3  1  0
  1  2  1  0
  3 26  1  1
  3  2  1  0
  4 14  1  0
  5  4  1  0
  5  1  1  0
  6  5  2  0
  7  8  2  0
  7  6  1  0
  8  9  1  0
  9  4  2  0
 10 11  2  0
 11 12  1  0
 13 12  2  0
 14 13  1  0
 15 14  2  0
 15 10  1  0
 16 17  2  0
 16  3  1  0
 18 17  1  0
 19 20  1  0
 19 18  2  0
 20 16  1  0
 21 25  1  0
 21 19  1  0
 22 21  1  0
 23 22  1  0
 23 24  1  0
 24 25  1  0
 26 29  1  0
 27 26  1  0
 28 26  1  0
  1 30  1  1
  2 31  1  0
  2 32  1  0
  6 33  1  0
  8 34  1  0
 10 35  1  0
 11 36  1  0
 12 37  1  0
 17 38  1  0
 18 39  1  0
 22 40  1  0
 22 41  1  0
 23 42  1  0
 23 43  1  0
 24 44  1  0
 24 45  1  0
 25 46  1  0
 25 47  1  0
M  ISO  8  30  13  31  13  32  13  33  14  34  14  35  14  36  14  37  14
M  ISO  8  38  14  39  14  40  13  41  13  42  13  43  13  44  13  45  13
M  ISO  2  46  13  47  13
M  END
>  <minimizedAffinity>  (1) 
-5.12080574

>  <minimizedRMSD>  (1) 
0.67621851

$$$$
