
     RDKit          3D

 40 44  0  0  1  0  0  0  0  0999 V2000
   38.1830   23.1000   32.9310 C   0  0  1  0  0  0  0  0  0  0  0  0
   37.6800   21.9920   33.9460 C   0  0  0  0  0  0  0  0  0  0  0  0
   38.5090   21.7110   32.7170 C   0  0  1  0  0  0  0  0  0  0  0  0
   36.9620   25.1650   32.4850 C   0  0  0  0  0  0  0  0  0  0  0  0
   37.0680   23.8410   32.2730 C   0  0  0  0  0  0  0  0  0  0  0  0
   36.2190   23.2420   31.3920 C   0  0  0  0  0  0  0  0  0  0  0  0
   35.2930   23.9580   30.7460 N   0  0  0  0  0  0  0  0  0  0  0  0
   35.1850   25.2970   30.9580 C   0  0  0  0  0  0  0  0  0  0  0  0
   36.0290   25.9070   31.8380 N   0  0  0  0  0  0  0  0  0  0  0  0
   39.6880   27.0010   34.1380 C   0  0  0  0  0  0  0  0  0  0  0  0
   39.2450   27.1080   35.4300 C   0  0  0  0  0  0  0  0  0  0  0  0
   38.0170   26.5560   35.7490 C   0  0  0  0  0  0  0  0  0  0  0  0
   37.3670   25.9550   34.7360 N   0  0  0  0  0  0  0  0  0  0  0  0
   37.8270   25.8580   33.4540 C   0  0  0  0  0  0  0  0  0  0  0  0
   38.9730   26.3780   33.1720 N   0  0  0  0  0  0  0  0  0  0  0  0
   37.7410   20.7840   31.8020 C   0  0  0  0  0  0  0  0  0  0  0  0
   36.5810   20.0070   32.0880 C   0  0  0  0  0  0  0  0  0  0  0  0
   36.2050   19.3110   30.9620 C   0  0  0  0  0  0  0  0  0  0  0  0
   37.1320   19.6730   30.0240 C   0  0  0  0  0  0  0  0  0  0  0  0
   37.9790   20.4920   30.5140 O   0  0  0  0  0  0  0  0  0  0  0  0
   37.1750   19.2030   28.6380 C   0  0  0  0  0  0  0  0  0  0  0  0
   36.3130   18.4580   27.8940 N   0  0  0  0  0  0  0  0  0  0  0  0
   36.8240   18.3140   26.6930 O   0  0  0  0  0  0  0  0  0  0  0  0
   37.9840   18.9250   26.6030 C   0  0  0  0  0  0  0  0  0  0  0  0
   38.2200   19.4860   27.8060 N   0  0  0  0  0  0  0  0  0  0  0  0
   39.9320   21.2150   32.8270 C   0  0  0  0  0  0  0  0  0  0  0  0
   39.8900   19.8380   32.6160 F   0  0  0  0  0  0  0  0  0  0  0  0
   40.6580   21.7330   31.7470 F   0  0  0  0  0  0  0  0  0  0  0  0
   40.4990   21.4610   34.0200 F   0  0  0  0  0  0  0  0  0  0  0  0
   38.8253   23.9922   32.8919 H   0  0  0  0  0  0  0  0  0  0  0  0
   38.1193   21.9096   34.9511 H   0  0  0  0  0  0  0  0  0  0  0  0
   36.7162   21.6585   34.3581 H   0  0  0  0  0  0  0  0  0  0  0  0
   36.2960   22.1598   31.2105 H   0  0  0  0  0  0  0  0  0  0  0  0
   34.4228   25.8832   30.4238 H   0  0  0  0  0  0  0  0  0  0  0  0
   40.6626   27.4383   33.8754 H   0  0  0  0  0  0  0  0  0  0  0  0
   39.8496   27.6193   36.1936 H   0  0  0  0  0  0  0  0  0  0  0  0
   37.5992   26.6054   36.7653 H   0  0  0  0  0  0  0  0  0  0  0  0
   36.0657   19.9694   33.0591 H   0  0  0  0  0  0  0  0  0  0  0  0
   35.3552   18.6226   30.8437 H   0  0  0  0  0  0  0  0  0  0  0  0
   38.6358   18.9700   25.7180 H   0  0  0  0  0  0  0  0  0  0  0  0
  1  2  1  0
  3 26  1  1
  3  1  1  0
  3  2  1  0
  4 14  1  0
  5  4  1  0
  5  1  1  0
  6  5  2  0
  7  8  2  0
  7  6  1  0
  8  9  1  0
  9  4  2  0
 10 11  2  0
 11 12  1  0
 13 12  2  0
 14 13  1  0
 15 14  2  0
 15 10  1  0
 16 17  2  0
 16  3  1  0
 18 17  1  0
 19 20  1  0
 19 18  2  0
 20 16  1  0
 21 19  1  0
 22 21  2  0
 23 22  1  0
 24 23  1  0
 24 25  2  0
 25 21  1  0
 26 29  1  0
 27 26  1  0
 28 26  1  0
  1 30  1  1
  2 31  1  0
  2 32  1  0
  6 33  1  0
  8 34  1  0
 10 35  1  0
 11 36  1  0
 12 37  1  0
 17 38  1  0
 18 39  1  0
 24 40  1  0
M  ISO  8  30  13  31  13  32  13  33  14  34  14  35  14  36  14  37  14
M  ISO  3  38  14  39  14  40  14
M  END
>  <minimizedAffinity>  (1) 
-4.92431784

>  <minimizedRMSD>  (1) 
1.3566519

$$$$
