
     RDKit          3D

 42 46  0  0  1  0  0  0  0  0999 V2000
   39.5020   23.1110   32.6800 C   0  0  1  0  0  0  0  0  0  0  0  0
   40.0710   21.6760   32.3100 C   0  0  0  0  0  0  0  0  0  0  0  0
   38.8530   22.3040   31.6760 C   0  0  1  0  0  0  0  0  0  0  0  0
   38.2620   24.2300   34.4590 C   0  0  0  0  0  0  0  0  0  0  0  0
   39.0850   23.2230   34.1050 C   0  0  0  0  0  0  0  0  0  0  0  0
   39.4250   22.2900   35.0380 C   0  0  0  0  0  0  0  0  0  0  0  0
   38.9530   22.3690   36.2860 N   0  0  0  0  0  0  0  0  0  0  0  0
   38.1210   23.3840   36.6450 C   0  0  0  0  0  0  0  0  0  0  0  0
   37.7720   24.3250   35.7200 N   0  0  0  0  0  0  0  0  0  0  0  0
   36.5670   26.2910   31.9290 C   0  0  0  0  0  0  0  0  0  0  0  0
   37.3990   27.3730   31.8110 C   0  0  0  0  0  0  0  0  0  0  0  0
   38.5450   27.4100   32.5880 C   0  0  0  0  0  0  0  0  0  0  0  0
   38.7300   26.3530   33.4000 N   0  0  0  0  0  0  0  0  0  0  0  0
   37.8880   25.2840   33.5050 C   0  0  0  0  0  0  0  0  0  0  0  0
   36.8260   25.2660   32.7750 N   0  0  0  0  0  0  0  0  0  0  0  0
   37.6530   21.4210   31.9330 C   0  0  0  0  0  0  0  0  0  0  0  0
   36.3000   21.7920   32.1630 C   0  0  0  0  0  0  0  0  0  0  0  0
   35.5320   20.6630   32.3450 C   0  0  0  0  0  0  0  0  0  0  0  0
   36.4280   19.6360   32.2230 C   0  0  0  0  0  0  0  0  0  0  0  0
   37.5990   20.0820   31.9960 O   0  0  0  0  0  0  0  0  0  0  0  0
   36.0660   18.2180   32.3400 C   0  0  0  0  0  0  0  0  0  0  0  0
   36.7920   17.1080   31.9560 C   0  0  0  0  0  0  0  0  0  0  0  0
   36.1240   15.9910   32.2290 N   0  0  0  0  0  0  0  0  0  0  0  0
   34.9490   16.3830   32.7980 C   0  0  0  0  0  0  0  0  0  0  0  0
   34.9250   17.7290   32.8600 N   0  0  0  0  0  0  0  0  0  0  0  0
   38.8500   22.7140   30.2230 C   0  0  0  0  0  0  0  0  0  0  0  0
   38.4260   21.6050   29.4950 F   0  0  0  0  0  0  0  0  0  0  0  0
   37.8450   23.6750   30.0440 F   0  0  0  0  0  0  0  0  0  0  0  0
   40.0520   23.1070   29.7680 F   0  0  0  0  0  0  0  0  0  0  0  0
   39.7863   24.1734   32.6587 H   0  0  0  0  0  0  0  0  0  0  0  0
   41.0086   21.5717   31.7443 H   0  0  0  0  0  0  0  0  0  0  0  0
   40.3089   20.7439   32.8434 H   0  0  0  0  0  0  0  0  0  0  0  0
   40.0952   21.4628   34.7611 H   0  0  0  0  0  0  0  0  0  0  0  0
   37.7328   23.4457   37.6724 H   0  0  0  0  0  0  0  0  0  0  0  0
   35.6556   26.2536   31.3142 H   0  0  0  0  0  0  0  0  0  0  0  0
   37.1627   28.1924   31.1162 H   0  0  0  0  0  0  0  0  0  0  0  0
   39.2566   28.2477   32.5442 H   0  0  0  0  0  0  0  0  0  0  0  0
   35.9232   22.8250   32.1914 H   0  0  0  0  0  0  0  0  0  0  0  0
   34.4516   20.6015   32.5422 H   0  0  0  0  0  0  0  0  0  0  0  0
   37.7870   17.1429   31.4882 H   0  0  0  0  0  0  0  0  0  0  0  0
   34.1517   15.7113   33.1488 H   0  0  0  0  0  0  0  0  0  0  0  0
   34.1548   18.2944   33.2447 H   0  0  0  0  0  0  0  0  0  0  0  0
  1  5  1  0
  2  1  1  0
  3 26  1  6
  3 16  1  0
  3  2  1  0
  3  1  1  0
  4  9  2  0
  5  4  1  0
  5  6  2  0
  6  7  1  0
  7  8  2  0
  9  8  1  0
 10 15  2  0
 11 10  1  0
 11 12  2  0
 12 13  1  0
 13 14  2  0
 14  4  1  0
 15 14  1  0
 16 20  1  0
 16 17  2  0
 17 18  1  0
 19 21  1  0
 19 18  2  0
 20 19  1  0
 21 25  1  0
 22 23  1  0
 22 21  2  0
 23 24  2  0
 24 25  1  0
 27 26  1  0
 28 26  1  0
 29 26  1  0
  1 30  1  6
  2 31  1  0
  2 32  1  0
  6 33  1  0
  8 34  1  0
 10 35  1  0
 11 36  1  0
 12 37  1  0
 17 38  1  0
 18 39  1  0
 22 40  1  0
 24 41  1  0
 25 42  1  0
M  ISO  8  30  13  31  13  32  13  33  14  34  14  35  14  36  14  37  14
M  ISO  5  38  14  39  14  40  14  41  14  42   9
M  END
>  <minimizedAffinity>  (1) 
-4.95198536

>  <minimizedRMSD>  (1) 
3.58765793

$$$$
