
     RDKit          3D

 42 46  0  0  1  0  0  0  0  0999 V2000
   38.6970   24.8800   34.2100 C   0  0  1  0  0  0  0  0  0  0  0  0
   40.0810   24.1270   34.4170 C   0  0  0  0  0  0  0  0  0  0  0  0
   39.9400   25.5140   33.8390 C   0  0  1  0  0  0  0  0  0  0  0  0
   36.9120   24.8960   32.5470 C   0  0  0  0  0  0  0  0  0  0  0  0
   37.7750   24.1630   33.2730 C   0  0  0  0  0  0  0  0  0  0  0  0
   37.8480   22.8240   33.0710 C   0  0  0  0  0  0  0  0  0  0  0  0
   37.0690   22.2330   32.1580 N   0  0  0  0  0  0  0  0  0  0  0  0
   36.1920   22.9710   31.4220 C   0  0  0  0  0  0  0  0  0  0  0  0
   36.1140   24.3170   31.6180 N   0  0  0  0  0  0  0  0  0  0  0  0
   36.6260   28.5360   32.0890 C   0  0  0  0  0  0  0  0  0  0  0  0
   36.4740   28.9930   33.3730 C   0  0  0  0  0  0  0  0  0  0  0  0
   36.4720   28.0680   34.4030 C   0  0  0  0  0  0  0  0  0  0  0  0
   36.6200   26.7820   34.0330 N   0  0  0  0  0  0  0  0  0  0  0  0
   36.7690   26.3480   32.7490 C   0  0  0  0  0  0  0  0  0  0  0  0
   36.7690   27.2200   31.8000 N   0  0  0  0  0  0  0  0  0  0  0  0
   40.5080   25.5290   32.4390 C   0  0  0  0  0  0  0  0  0  0  0  0
   41.7510   25.0070   31.9770 C   0  0  0  0  0  0  0  0  0  0  0  0
   41.8660   25.2310   30.6220 C   0  0  0  0  0  0  0  0  0  0  0  0
   40.7070   25.8770   30.2920 C   0  0  0  0  0  0  0  0  0  0  0  0
   39.9670   26.0360   31.3180 O   0  0  0  0  0  0  0  0  0  0  0  0
   40.3920   26.3100   28.9650 N   0  0  0  0  0  0  0  0  0  0  0  0
   39.8970   27.4670   28.5780 N   0  0  0  0  0  0  0  0  0  0  0  0
   39.7350   27.5080   27.2450 C   0  0  0  0  0  0  0  0  0  0  0  0
   40.1640   26.2750   26.7520 C   0  0  0  0  0  0  0  0  0  0  0  0
   40.5740   25.5410   27.8680 C   0  0  0  0  0  0  0  0  0  0  0  0
   40.4470   26.7300   34.5810 C   0  0  0  0  0  0  0  0  0  0  0  0
   41.6590   26.3640   35.1630 F   0  0  0  0  0  0  0  0  0  0  0  0
   40.7740   27.7120   33.6360 F   0  0  0  0  0  0  0  0  0  0  0  0
   39.6130   27.1660   35.5390 F   0  0  0  0  0  0  0  0  0  0  0  0
   37.8448   25.2721   34.7845 H   0  0  0  0  0  0  0  0  0  0  0  0
   40.4943   23.9776   35.4254 H   0  0  0  0  0  0  0  0  0  0  0  0
   40.5289   23.1704   34.1100 H   0  0  0  0  0  0  0  0  0  0  0  0
   38.5523   22.2199   33.6617 H   0  0  0  0  0  0  0  0  0  0  0  0
   35.5504   22.4830   30.6736 H   0  0  0  0  0  0  0  0  0  0  0  0
   36.6320   29.2638   31.2642 H   0  0  0  0  0  0  0  0  0  0  0  0
   36.3567   30.0671   33.5792 H   0  0  0  0  0  0  0  0  0  0  0  0
   36.3569   28.3646   35.4560 H   0  0  0  0  0  0  0  0  0  0  0  0
   42.5016   24.5037   32.6041 H   0  0  0  0  0  0  0  0  0  0  0  0
   42.6986   24.9539   29.9587 H   0  0  0  0  0  0  0  0  0  0  0  0
   39.3409   28.3497   26.6566 H   0  0  0  0  0  0  0  0  0  0  0  0
   40.1768   25.9484   25.7017 H   0  0  0  0  0  0  0  0  0  0  0  0
   40.9748   24.5167   27.8561 H   0  0  0  0  0  0  0  0  0  0  0  0
  1  2  1  0
  3  1  1  0
  3  2  1  0
  3 26  1  1
  4 14  1  0
  4  5  1  0
  5  1  1  0
  6  5  2  0
  7  6  1  0
  8  9  1  0
  8  7  2  0
  9  4  2  0
 10 11  2  0
 11 12  1  0
 13 12  2  0
 14 13  1  0
 15 10  1  0
 15 14  2  0
 16  3  1  0
 17 16  2  0
 18 17  1  0
 19 18  2  0
 19 20  1  0
 20 16  1  0
 21 19  1  0
 22 21  1  0
 23 22  2  0
 24 23  1  0
 24 25  2  0
 25 21  1  0
 26 27  1  0
 26 29  1  0
 28 26  1  0
  1 30  1  1
  2 31  1  0
  2 32  1  0
  6 33  1  0
  8 34  1  0
 10 35  1  0
 11 36  1  0
 12 37  1  0
 17 38  1  0
 18 39  1  0
 23 40  1  0
 24 41  1  0
 25 42  1  0
M  ISO  8  30  13  31  13  32  13  33  14  34  14  35  14  36  14  37  14
M  ISO  5  38  14  39  14  40  14  41  14  42  14
M  END
>  <minimizedAffinity>  (1) 
-4.72965479

>  <minimizedRMSD>  (1) 
6.05217075

$$$$
