
     RDKit          3D

 29 31  0  0  0  0  0  0  0  0999 V2000
   37.3150   21.9450   35.0630 C   0  0  0  0  0  0  0  0  0  0  0  0
   36.2620   21.0570   35.1110 C   0  0  0  0  0  0  0  0  0  0  0  0
   35.6780   20.6570   33.9180 C   0  0  0  0  0  0  0  0  0  0  0  0
   36.1940   21.1790   32.7730 C   0  0  0  0  0  0  0  0  0  0  0  0
   37.2250   22.0510   32.6960 C   0  0  0  0  0  0  0  0  0  0  0  0
   37.7740   22.4230   33.8690 N   0  0  0  0  0  0  0  0  0  0  0  0
   37.7710   22.6010   31.5040 N   0  0  0  0  0  0  0  0  0  0  0  0
   38.6370   21.8190   30.7980 C   0  0  0  0  0  0  0  0  0  0  0  0
   39.2200   22.2800   29.6140 C   0  0  0  0  0  0  0  0  0  0  0  0
   38.8880   23.5470   29.1940 C   0  0  0  0  0  0  0  0  0  0  0  0
   39.4150   23.9800   28.1140 O   0  0  0  0  0  0  0  0  0  0  0  0
   38.0400   24.3070   29.8910 N   0  0  0  0  0  0  0  0  0  0  0  0
   37.5010   23.8270   31.0210 C   0  0  0  0  0  0  0  0  0  0  0  0
   36.7020   24.5480   31.6730 O   0  0  0  0  0  0  0  0  0  0  0  0
   39.8890   22.7000   37.5580 C   0  0  0  0  0  0  0  0  0  0  0  0
   39.1760   23.3530   38.5700 C   0  0  0  0  0  0  0  0  0  0  0  0
   37.7860   23.5240   38.3640 C   0  0  0  0  0  0  0  0  0  0  0  0
   37.2670   23.0380   37.2010 N   0  0  0  0  0  0  0  0  0  0  0  0
   37.9890   22.4190   36.2620 C   0  0  0  0  0  0  0  0  0  0  0  0
   39.3090   22.2480   36.4420 N   0  0  0  0  0  0  0  0  0  0  0  0
   35.8929   20.6740   36.0739 H   0  0  0  0  0  0  0  0  0  0  0  0
   34.8358   19.9497   33.8989 H   0  0  0  0  0  0  0  0  0  0  0  0
   35.7319   20.8641   31.8257 H   0  0  0  0  0  0  0  0  0  0  0  0
   38.8802   20.8111   31.1655 H   0  0  0  0  0  0  0  0  0  0  0  0
   39.9180   21.6530   29.0398 H   0  0  0  0  0  0  0  0  0  0  0  0
   37.8019   25.2540   29.5634 H   0  0  0  0  0  0  0  0  0  0  0  0
   40.9715   22.5527   37.6865 H   0  0  0  0  0  0  0  0  0  0  0  0
   39.6722   23.7161   39.4821 H   0  0  0  0  0  0  0  0  0  0  0  0
   37.1526   24.0269   39.1096 H   0  0  0  0  0  0  0  0  0  0  0  0
  1  2  2  0
  1 19  1  0
  3  2  1  0
  4  3  2  0
  5  4  1  0
  5  6  2  0
  6  1  1  0
  7  5  1  0
  8  7  1  0
  9  8  2  0
 10  9  1  0
 10 12  1  0
 11 10  2  0
 12 13  1  0
 13  7  1  0
 13 14  2  0
 15 16  2  0
 17 16  1  0
 18 17  2  0
 19 20  2  0
 19 18  1  0
 20 15  1  0
  2 21  1  0
  3 22  1  0
  4 23  1  0
  8 24  1  0
  9 25  1  0
 12 26  1  0
 15 27  1  0
 16 28  1  0
 17 29  1  0
M  ISO  8  21  14  22  14  23  14  24  14  25  14  26   9  27  14  28  14
M  ISO  1  29  14
M  END
>  <minimizedAffinity>  (1) 
-5.42740774

>  <minimizedRMSD>  (1) 
0.408345312

$$$$
