
     RDKit          3D

 32 34  0  0  0  0  0  0  0  0999 V2000
   37.3750   25.7370   33.8950 C   0  0  0  0  0  0  0  0  0  0  0  0
   38.5870   25.5720   34.6010 C   0  0  0  0  0  0  0  0  0  0  0  0
   39.7140   26.1880   34.0670 C   0  0  0  0  0  0  0  0  0  0  0  0
   39.6040   26.9050   32.9180 N   0  0  0  0  0  0  0  0  0  0  0  0
   38.4400   27.0400   32.2770 C   0  0  0  0  0  0  0  0  0  0  0  0
   37.3010   26.4590   32.7530 N   0  0  0  0  0  0  0  0  0  0  0  0
   38.3270   27.7950   31.0660 N   0  0  0  0  0  0  0  0  0  0  0  0
   39.3520   27.6730   30.1810 C   0  0  0  0  0  0  0  0  0  0  0  0
   39.2930   28.3810   28.9970 C   0  0  0  0  0  0  0  0  0  0  0  0
   38.1890   29.1780   28.7770 C   0  0  0  0  0  0  0  0  0  0  0  0
   38.1780   29.8850   27.5440 N   0  0  0  0  0  0  0  0  0  0  0  0
   37.1850   29.2800   29.6770 N   0  0  0  0  0  0  0  0  0  0  0  0
   37.2350   28.5830   30.8510 C   0  0  0  0  0  0  0  0  0  0  0  0
   36.3370   28.6370   31.7200 O   0  0  0  0  0  0  0  0  0  0  0  0
   38.5290   24.8050   35.7650 N   0  0  0  0  0  0  0  0  0  0  0  0
   38.0810   25.4330   36.8830 C   0  0  0  0  0  0  0  0  0  0  0  0
   38.0150   24.6930   38.0440 C   0  0  0  0  0  0  0  0  0  0  0  0
   38.4010   23.3820   38.0050 C   0  0  0  0  0  0  0  0  0  0  0  0
   38.3510   22.5900   39.1670 N   0  0  0  0  0  0  0  0  0  0  0  0
   38.8350   22.8070   36.8790 N   0  0  0  0  0  0  0  0  0  0  0  0
   38.9100   23.5130   35.7210 C   0  0  0  0  0  0  0  0  0  0  0  0
   39.3210   22.9490   34.6800 O   0  0  0  0  0  0  0  0  0  0  0  0
   36.4623   25.2636   34.2859 H   0  0  0  0  0  0  0  0  0  0  0  0
   40.6873   26.0954   34.5712 H   0  0  0  0  0  0  0  0  0  0  0  0
   40.2111   27.0232   30.4038 H   0  0  0  0  0  0  0  0  0  0  0  0
   40.1004   28.3116   28.2532 H   0  0  0  0  0  0  0  0  0  0  0  0
   37.3857   30.5002   27.3101 H   0  0  0  0  0  0  0  0  0  0  0  0
   38.9624   29.7822   26.8844 H   0  0  0  0  0  0  0  0  0  0  0  0
   37.7823   26.4915   36.8626 H   0  0  0  0  0  0  0  0  0  0  0  0
   37.6598   25.1470   38.9808 H   0  0  0  0  0  0  0  0  0  0  0  0
   38.6433   21.6030   39.1305 H   0  0  0  0  0  0  0  0  0  0  0  0
   38.0221   22.9972   40.0541 H   0  0  0  0  0  0  0  0  0  0  0  0
  1  2  2  0
  2 15  1  0
  3  2  1  0
  4  3  2  0
  5  6  2  0
  5  4  1  0
  6  1  1  0
  7  5  1  0
  8  7  1  0
  9  8  2  0
 10  9  1  0
 10 12  2  0
 11 10  1  0
 12 13  1  0
 13  7  1  0
 13 14  2  0
 15 16  1  0
 16 17  2  0
 18 17  1  0
 18 19  1  0
 20 18  2  0
 21 15  1  0
 21 20  1  0
 22 21  2  0
  1 23  1  0
  3 24  1  0
  8 25  1  0
  9 26  1  0
 11 27  1  0
 11 28  1  0
 16 29  1  0
 17 30  1  0
 19 31  1  0
 19 32  1  0
M  ISO  6  23  14  24  14  25  14  26  14  29  14  30  14
M  END
>  <minimizedAffinity>  (1) 
-5.57040358

>  <minimizedRMSD>  (1) 
8.57041264

$$$$
