
     RDKit          3D

 35 38  0  0  0  0  0  0  0  0999 V2000
   37.4890   22.2060   34.8990 C   0  0  0  0  0  0  0  0  0  0  0  0
   36.5570   21.2170   34.7810 C   0  0  0  0  0  0  0  0  0  0  0  0
   36.0160   20.9750   33.5220 C   0  0  0  0  0  0  0  0  0  0  0  0
   36.4560   21.7440   32.4960 C   0  0  0  0  0  0  0  0  0  0  0  0
   37.3680   22.7280   32.5730 C   0  0  0  0  0  0  0  0  0  0  0  0
   37.8490   22.9060   33.8120 N   0  0  0  0  0  0  0  0  0  0  0  0
   37.9570   23.5580   31.5490 C   0  0  0  0  0  0  0  0  0  0  0  0
   38.5960   22.8840   30.4930 C   0  0  0  0  0  0  0  0  0  0  0  0
   39.2210   23.4960   29.4360 C   0  0  0  0  0  0  0  0  0  0  0  0
   39.2450   24.8630   29.3670 C   0  0  0  0  0  0  0  0  0  0  0  0
   38.6390   25.5780   30.3710 C   0  0  0  0  0  0  0  0  0  0  0  0
   38.6820   26.9520   30.3400 C   0  0  0  0  0  0  0  0  0  0  0  0
   38.1200   27.7290   31.3460 C   0  0  0  0  0  0  0  0  0  0  0  0
   37.5120   27.0350   32.3870 C   0  0  0  0  0  0  0  0  0  0  0  0
   37.4870   25.6700   32.3870 C   0  0  0  0  0  0  0  0  0  0  0  0
   38.0360   24.9010   31.3970 C   0  0  0  0  0  0  0  0  0  0  0  0
   39.9620   22.6240   37.5660 C   0  0  0  0  0  0  0  0  0  0  0  0
   39.2310   23.2300   38.5960 C   0  0  0  0  0  0  0  0  0  0  0  0
   37.8780   23.4870   38.3430 C   0  0  0  0  0  0  0  0  0  0  0  0
   37.3750   23.1280   37.1200 N   0  0  0  0  0  0  0  0  0  0  0  0
   38.1220   22.5490   36.1730 C   0  0  0  0  0  0  0  0  0  0  0  0
   39.4260   22.2860   36.3750 N   0  0  0  0  0  0  0  0  0  0  0  0
   36.2424   20.6282   35.6552 H   0  0  0  0  0  0  0  0  0  0  0  0
   35.2610   20.1905   33.3655 H   0  0  0  0  0  0  0  0  0  0  0  0
   36.0247   21.5431   31.5042 H   0  0  0  0  0  0  0  0  0  0  0  0
   38.5946   21.7842   30.5162 H   0  0  0  0  0  0  0  0  0  0  0  0
   39.6991   22.8929   28.6501 H   0  0  0  0  0  0  0  0  0  0  0  0
   39.7376   25.3763   28.5280 H   0  0  0  0  0  0  0  0  0  0  0  0
   39.1761   27.4513   29.4935 H   0  0  0  0  0  0  0  0  0  0  0  0
   38.1540   28.8282   31.3205 H   0  0  0  0  0  0  0  0  0  0  0  0
   37.0482   27.5898   33.2159 H   0  0  0  0  0  0  0  0  0  0  0  0
   36.9982   25.1597   33.2300 H   0  0  0  0  0  0  0  0  0  0  0  0
   41.0279   22.4129   37.7371 H   0  0  0  0  0  0  0  0  0  0  0  0
   39.6975   23.4914   39.5573 H   0  0  0  0  0  0  0  0  0  0  0  0
   37.2391   23.9621   39.1020 H   0  0  0  0  0  0  0  0  0  0  0  0
  1 21  1  0
  2  1  2  0
  3  2  1  0
  4  5  1  0
  4  3  2  0
  5  6  2  0
  6  1  1  0
  7  5  1  0
  8  7  2  0
  9  8  1  0
 10  9  2  0
 10 11  1  0
 11 16  2  0
 12 11  1  0
 12 13  2  0
 13 14  1  0
 15 14  2  0
 16  7  1  0
 16 15  1  0
 17 18  2  0
 19 18  1  0
 20 19  2  0
 21 22  2  0
 21 20  1  0
 22 17  1  0
  2 23  1  0
  3 24  1  0
  4 25  1  0
  8 26  1  0
  9 27  1  0
 10 28  1  0
 12 29  1  0
 13 30  1  0
 14 31  1  0
 15 32  1  0
 17 33  1  0
 18 34  1  0
 19 35  1  0
M  ISO  8  23  14  24  14  25  14  26  14  27  14  28  14  29  14  30  14
M  ISO  5  31  14  32  14  33  14  34  14  35  14
M  END
>  <minimizedAffinity>  (1) 
-5.36366177

>  <minimizedRMSD>  (1) 
1.33246744

$$$$
