
     RDKit          3D

 22 23  0  0  0  0  0  0  0  0999 V2000
   37.1100   21.8210   34.9610 C   0  0  0  0  0  0  0  0  0  0  0  0
   36.1420   20.8410   35.1470 C   0  0  0  0  0  0  0  0  0  0  0  0
   35.4390   20.4200   34.0180 C   0  0  0  0  0  0  0  0  0  0  0  0
   35.7600   21.0050   32.8170 C   0  0  0  0  0  0  0  0  0  0  0  0
   36.7010   21.9560   32.6410 C   0  0  0  0  0  0  0  0  0  0  0  0
   37.3700   22.3530   33.7360 N   0  0  0  0  0  0  0  0  0  0  0  0
   39.9260   22.6170   37.1690 C   0  0  0  0  0  0  0  0  0  0  0  0
   39.3010   23.2890   38.2530 C   0  0  0  0  0  0  0  0  0  0  0  0
   37.9110   23.4450   38.1820 C   0  0  0  0  0  0  0  0  0  0  0  0
   37.2480   22.9470   37.0870 N   0  0  0  0  0  0  0  0  0  0  0  0
   37.8930   22.3210   36.0910 C   0  0  0  0  0  0  0  0  0  0  0  0
   39.2270   22.1530   36.1260 N   0  0  0  0  0  0  0  0  0  0  0  0
   37.0360   22.5790   31.3310 C   0  0  0  0  0  0  0  0  0  0  0  0
   37.6340   21.7070   30.4620 F   0  0  0  0  0  0  0  0  0  0  0  0
   35.8540   23.0580   30.8030 F   0  0  0  0  0  0  0  0  0  0  0  0
   37.8740   23.6600   31.5580 F   0  0  0  0  0  0  0  0  0  0  0  0
   35.9391   20.4160   36.1411 H   0  0  0  0  0  0  0  0  0  0  0  0
   34.6574   19.6490   34.0867 H   0  0  0  0  0  0  0  0  0  0  0  0
   35.2054   20.6714   31.9276 H   0  0  0  0  0  0  0  0  0  0  0  0
   41.0165   22.4736   37.1871 H   0  0  0  0  0  0  0  0  0  0  0  0
   39.8808   23.6687   39.1072 H   0  0  0  0  0  0  0  0  0  0  0  0
   37.3616   23.9558   38.9865 H   0  0  0  0  0  0  0  0  0  0  0  0
  1  2  2  0
  1 11  1  0
  3  2  1  0
  4  3  2  0
  5  4  1  0
  5  6  2  0
  6  1  1  0
  7  8  2  0
  9  8  1  0
 10  9  2  0
 11 12  2  0
 11 10  1  0
 12  7  1  0
 13 16  1  0
 13  5  1  0
 14 13  1  0
 15 13  1  0
  2 17  1  0
  3 18  1  0
  4 19  1  0
  7 20  1  0
  8 21  1  0
  9 22  1  0
M  ISO  6  17  14  18  14  19  14  20  14  21  14  22  14
M  END
>  <minimizedAffinity>  (1) 
-4.60381222

>  <minimizedRMSD>  (1) 
0.213498667

$$$$
