
     RDKit          3D

 26 28  0  0  0  0  0  0  0  0999 V2000
   37.3590   21.9490   35.0460 C   0  0  0  0  0  0  0  0  0  0  0  0
   36.2700   21.0920   35.1150 C   0  0  0  0  0  0  0  0  0  0  0  0
   35.7030   20.6850   33.9100 C   0  0  0  0  0  0  0  0  0  0  0  0
   36.2490   21.1500   32.7540 C   0  0  0  0  0  0  0  0  0  0  0  0
   37.3090   21.9830   32.6880 C   0  0  0  0  0  0  0  0  0  0  0  0
   37.8430   22.3660   33.8590 N   0  0  0  0  0  0  0  0  0  0  0  0
   39.9150   22.7050   37.5630 C   0  0  0  0  0  0  0  0  0  0  0  0
   39.1920   23.3570   38.5730 C   0  0  0  0  0  0  0  0  0  0  0  0
   37.8080   23.5250   38.3580 C   0  0  0  0  0  0  0  0  0  0  0  0
   37.2680   23.0450   37.1890 N   0  0  0  0  0  0  0  0  0  0  0  0
   38.0140   22.4250   36.2540 C   0  0  0  0  0  0  0  0  0  0  0  0
   39.3320   22.2570   36.4420 N   0  0  0  0  0  0  0  0  0  0  0  0
   37.8970   22.4830   31.4510 C   0  0  0  0  0  0  0  0  0  0  0  0
   37.7020   23.6860   30.8220 C   0  0  0  0  0  0  0  0  0  0  0  0
   38.4600   23.7290   29.6870 N   0  0  0  0  0  0  0  0  0  0  0  0
   39.1250   22.5430   29.6180 C   0  0  0  0  0  0  0  0  0  0  0  0
   38.7700   21.8150   30.6880 N   0  0  0  0  0  0  0  0  0  0  0  0
   35.8713   20.7485   36.0809 H   0  0  0  0  0  0  0  0  0  0  0  0
   34.8375   20.0063   33.8933 H   0  0  0  0  0  0  0  0  0  0  0  0
   35.7948   20.8243   31.8066 H   0  0  0  0  0  0  0  0  0  0  0  0
   40.9968   22.5563   37.6953 H   0  0  0  0  0  0  0  0  0  0  0  0
   39.6810   23.7200   39.4890 H   0  0  0  0  0  0  0  0  0  0  0  0
   37.1775   24.0271   39.1065 H   0  0  0  0  0  0  0  0  0  0  0  0
   37.0394   24.4896   31.1760 H   0  0  0  0  0  0  0  0  0  0  0  0
   39.8265   22.2368   28.8280 H   0  0  0  0  0  0  0  0  0  0  0  0
   39.1221   20.8693   30.8942 H   0  0  0  0  0  0  0  0  0  0  0  0
  1  2  2  0
  1 11  1  0
  3  2  1  0
  4  3  2  0
  5  4  1  0
  5  6  2  0
  6  1  1  0
  7  8  2  0
  9  8  1  0
 10  9  2  0
 11 12  2  0
 11 10  1  0
 12  7  1  0
 13  5  1  0
 14 13  2  0
 15 14  1  0
 16 15  2  0
 16 17  1  0
 17 13  1  0
  2 18  1  0
  3 19  1  0
  4 20  1  0
  7 21  1  0
  8 22  1  0
  9 23  1  0
 14 24  1  0
 16 25  1  0
 17 26  1  0
M  ISO  8  18  14  19  14  20  14  21  14  22  14  23  14  24  14  25  14
M  ISO  1  26   9
M  END
>  <minimizedAffinity>  (1) 
-4.39413118

>  <minimizedRMSD>  (1) 
0.58861053

$$$$
