
     RDKit          3D

 24 26  0  0  0  0  0  0  0  0999 V2000
   37.3300   21.9470   35.0520 C   0  0  0  0  0  0  0  0  0  0  0  0
   36.2670   21.0790   35.1110 C   0  0  0  0  0  0  0  0  0  0  0  0
   35.7020   20.6770   33.9090 C   0  0  0  0  0  0  0  0  0  0  0  0
   36.2470   21.1780   32.7510 C   0  0  0  0  0  0  0  0  0  0  0  0
   37.2910   22.0310   32.6830 C   0  0  0  0  0  0  0  0  0  0  0  0
   37.8260   22.4090   33.8660 N   0  0  0  0  0  0  0  0  0  0  0  0
   39.9100   22.7030   37.5580 C   0  0  0  0  0  0  0  0  0  0  0  0
   39.1950   23.3550   38.5700 C   0  0  0  0  0  0  0  0  0  0  0  0
   37.8090   23.5230   38.3630 C   0  0  0  0  0  0  0  0  0  0  0  0
   37.2700   23.0420   37.1970 N   0  0  0  0  0  0  0  0  0  0  0  0
   37.9920   22.4270   36.2620 C   0  0  0  0  0  0  0  0  0  0  0  0
   39.3220   22.2560   36.4420 N   0  0  0  0  0  0  0  0  0  0  0  0
   37.8480   22.5440   31.4390 C   0  0  0  0  0  0  0  0  0  0  0  0
   37.5220   23.6510   30.7640 N   0  0  0  0  0  0  0  0  0  0  0  0
   38.2670   23.7330   29.7060 O   0  0  0  0  0  0  0  0  0  0  0  0
   39.0990   22.7080   29.6330 C   0  0  0  0  0  0  0  0  0  0  0  0
   38.8310   21.9600   30.7310 N   0  0  0  0  0  0  0  0  0  0  0  0
   35.8785   20.7165   36.0741 H   0  0  0  0  0  0  0  0  0  0  0  0
   34.8491   19.9828   33.8839 H   0  0  0  0  0  0  0  0  0  0  0  0
   35.7950   20.8573   31.8008 H   0  0  0  0  0  0  0  0  0  0  0  0
   40.9923   22.5530   37.6846 H   0  0  0  0  0  0  0  0  0  0  0  0
   39.6898   23.7188   39.4826 H   0  0  0  0  0  0  0  0  0  0  0  0
   37.1804   24.0243   39.1137 H   0  0  0  0  0  0  0  0  0  0  0  0
   39.8461   22.5062   28.8513 H   0  0  0  0  0  0  0  0  0  0  0  0
  1  2  2  0
  1 11  1  0
  3  2  1  0
  4  3  2  0
  5  4  1  0
  5  6  2  0
  6  1  1  0
  7  8  2  0
  9  8  1  0
 10  9  2  0
 11 12  2  0
 11 10  1  0
 12  7  1  0
 13  5  1  0
 14 13  2  0
 15 14  1  0
 16 15  1  0
 16 17  2  0
 17 13  1  0
  2 18  1  0
  3 19  1  0
  4 20  1  0
  7 21  1  0
  8 22  1  0
  9 23  1  0
 16 24  1  0
M  ISO  7  18  14  19  14  20  14  21  14  22  14  23  14  24  14
M  END
>  <minimizedAffinity>  (1) 
-4.40878677

>  <minimizedRMSD>  (1) 
0.569271803

$$$$
