
     RDKit          3D

 27 29  0  0  0  0  0  0  0  0999 V2000
   37.2960   21.6940   35.0680 C   0  0  0  0  0  0  0  0  0  0  0  0
   36.0770   21.0470   35.1870 C   0  0  0  0  0  0  0  0  0  0  0  0
   35.5100   20.4970   34.0470 C   0  0  0  0  0  0  0  0  0  0  0  0
   36.2160   20.6400   32.8720 C   0  0  0  0  0  0  0  0  0  0  0  0
   37.4090   21.2720   32.7470 C   0  0  0  0  0  0  0  0  0  0  0  0
   37.9090   21.7820   33.8720 N   0  0  0  0  0  0  0  0  0  0  0  0
   39.8750   22.7610   37.4390 C   0  0  0  0  0  0  0  0  0  0  0  0
   39.1510   23.4430   38.4240 C   0  0  0  0  0  0  0  0  0  0  0  0
   37.7600   23.5200   38.2410 C   0  0  0  0  0  0  0  0  0  0  0  0
   37.2120   22.9320   37.1290 N   0  0  0  0  0  0  0  0  0  0  0  0
   37.9460   22.2930   36.2200 C   0  0  0  0  0  0  0  0  0  0  0  0
   39.2810   22.2090   36.3800 N   0  0  0  0  0  0  0  0  0  0  0  0
   38.0350   21.3470   31.4520 C   0  0  0  0  0  0  0  0  0  0  0  0
   38.1580   20.2590   30.6120 C   0  0  0  0  0  0  0  0  0  0  0  0
   38.7840   20.4970   29.4060 C   0  0  0  0  0  0  0  0  0  0  0  0
   39.2640   21.6910   29.0150 N   0  0  0  0  0  0  0  0  0  0  0  0
   39.1300   22.7410   29.8590 C   0  0  0  0  0  0  0  0  0  0  0  0
   38.5230   22.5330   31.0430 N   0  0  0  0  0  0  0  0  0  0  0  0
   35.5715   20.9713   36.1610 H   0  0  0  0  0  0  0  0  0  0  0  0
   34.5438   19.9722   34.0791 H   0  0  0  0  0  0  0  0  0  0  0  0
   35.7760   20.2063   31.9619 H   0  0  0  0  0  0  0  0  0  0  0  0
   40.9671   22.6778   37.5415 H   0  0  0  0  0  0  0  0  0  0  0  0
   39.6455   23.8953   39.2963 H   0  0  0  0  0  0  0  0  0  0  0  0
   37.1245   24.0401   38.9729 H   0  0  0  0  0  0  0  0  0  0  0  0
   37.7801   19.2633   30.8872 H   0  0  0  0  0  0  0  0  0  0  0  0
   38.8989   19.6493   28.7144 H   0  0  0  0  0  0  0  0  0  0  0  0
   39.5069   23.7374   29.5850 H   0  0  0  0  0  0  0  0  0  0  0  0
  1  2  2  0
  1 11  1  0
  3  2  1  0
  4  3  2  0
  5  4  1  0
  5  6  2  0
  6  1  1  0
  7  8  2  0
  9  8  1  0
 10  9  2  0
 11 12  2  0
 11 10  1  0
 12  7  1  0
 13  5  1  0
 14 13  2  0
 15 14  1  0
 16 15  2  0
 16 17  1  0
 17 18  2  0
 18 13  1  0
  2 19  1  0
  3 20  1  0
  4 21  1  0
  7 22  1  0
  8 23  1  0
  9 24  1  0
 14 25  1  0
 15 26  1  0
 17 27  1  0
M  ISO  8  19  14  20  14  21  14  22  14  23  14  24  14  25  14  26  14
M  ISO  1  27  14
M  END
>  <minimizedAffinity>  (1) 
-4.42883492

>  <minimizedRMSD>  (1) 
1.09070671

$$$$
