
     RDKit          3D

 22 23  0  0  0  0  0  0  0  0999 V2000
   37.1190   21.8520   34.8250 C   0  0  0  0  0  0  0  0  0  0  0  0
   36.1490   20.8810   34.9590 C   0  0  0  0  0  0  0  0  0  0  0  0
   35.4740   20.4820   33.8110 C   0  0  0  0  0  0  0  0  0  0  0  0
   35.8220   21.0790   32.6390 C   0  0  0  0  0  0  0  0  0  0  0  0
   36.7700   22.0300   32.5000 C   0  0  0  0  0  0  0  0  0  0  0  0
   37.4170   22.4080   33.6220 N   0  0  0  0  0  0  0  0  0  0  0  0
   39.8870   22.6110   37.1150 C   0  0  0  0  0  0  0  0  0  0  0  0
   39.2510   23.2430   38.1960 C   0  0  0  0  0  0  0  0  0  0  0  0
   37.8590   23.3960   38.1100 C   0  0  0  0  0  0  0  0  0  0  0  0
   37.2220   22.9220   36.9870 N   0  0  0  0  0  0  0  0  0  0  0  0
   37.8740   22.3270   35.9830 C   0  0  0  0  0  0  0  0  0  0  0  0
   39.2150   22.1690   36.0450 N   0  0  0  0  0  0  0  0  0  0  0  0
   37.1720   22.6920   31.2740 C   0  0  0  0  0  0  0  0  0  0  0  0
   38.0740   22.2580   30.4940 O   0  0  0  0  0  0  0  0  0  0  0  0
   36.6270   23.8790   30.7990 O   0  0  0  0  0  0  0  0  0  0  0  0
   35.9177   20.4381   35.9390 H   0  0  0  0  0  0  0  0  0  0  0  0
   34.6885   19.7129   33.8488 H   0  0  0  0  0  0  0  0  0  0  0  0
   35.2878   20.7611   31.7315 H   0  0  0  0  0  0  0  0  0  0  0  0
   40.9779   22.4741   37.1489 H   0  0  0  0  0  0  0  0  0  0  0  0
   39.8172   23.6010   39.0685 H   0  0  0  0  0  0  0  0  0  0  0  0
   37.2928   23.8816   38.9184 H   0  0  0  0  0  0  0  0  0  0  0  0
   36.9555   24.2700   29.9509 H   0  0  0  0  0  0  0  0  0  0  0  0
  1  2  2  0
  1 11  1  0
  3  2  1  0
  4  3  2  0
  5  4  1  0
  5  6  2  0
  6  1  1  0
  7  8  2  0
  9  8  1  0
 10  9  2  0
 11 12  2  0
 11 10  1  0
 12  7  1  0
 13  5  1  0
 14 13  2  0
 15 13  1  0
  2 16  1  0
  3 17  1  0
  4 18  1  0
  7 19  1  0
  8 20  1  0
  9 21  1  0
 15 22  1  0
M  ISO  7  16  14  17  14  18  14  19  14  20  14  21  14  22   3
M  END
>  <minimizedAffinity>  (1) 
-4.3547945

>  <minimizedRMSD>  (1) 
0.52264595

$$$$
