
     RDKit          3D

 26 28  0  0  0  0  0  0  0  0999 V2000
   37.4130   21.9400   34.8760 C   0  0  0  0  0  0  0  0  0  0  0  0
   36.2900   21.1240   34.9080 C   0  0  0  0  0  0  0  0  0  0  0  0
   35.7430   20.7370   33.6880 C   0  0  0  0  0  0  0  0  0  0  0  0
   36.3510   21.1890   32.5540 C   0  0  0  0  0  0  0  0  0  0  0  0
   37.4430   21.9830   32.5170 C   0  0  0  0  0  0  0  0  0  0  0  0
   37.9630   22.3490   33.7060 N   0  0  0  0  0  0  0  0  0  0  0  0
   39.9100   22.6700   37.4510 C   0  0  0  0  0  0  0  0  0  0  0  0
   39.1690   23.2910   38.4630 C   0  0  0  0  0  0  0  0  0  0  0  0
   37.7940   23.4450   38.2290 C   0  0  0  0  0  0  0  0  0  0  0  0
   37.2870   22.9830   37.0410 N   0  0  0  0  0  0  0  0  0  0  0  0
   38.0530   22.3940   36.1040 C   0  0  0  0  0  0  0  0  0  0  0  0
   39.3700   22.2350   36.3070 N   0  0  0  0  0  0  0  0  0  0  0  0
   38.0810   22.4570   31.2900 C   0  0  0  0  0  0  0  0  0  0  0  0
   37.9400   23.7270   30.7700 C   0  0  0  0  0  0  0  0  0  0  0  0
   38.7050   23.7580   29.6080 C   0  0  0  0  0  0  0  0  0  0  0  0
   39.2690   22.4850   29.4940 C   0  0  0  0  0  0  0  0  0  0  0  0
   38.8730   21.7710   30.4960 O   0  0  0  0  0  0  0  0  0  0  0  0
   35.8495   20.7959   35.8611 H   0  0  0  0  0  0  0  0  0  0  0  0
   34.8539   20.0910   33.6403 H   0  0  0  0  0  0  0  0  0  0  0  0
   35.9167   20.8819   31.5911 H   0  0  0  0  0  0  0  0  0  0  0  0
   40.9906   22.5327   37.6040 H   0  0  0  0  0  0  0  0  0  0  0  0
   39.6401   23.6403   39.3936 H   0  0  0  0  0  0  0  0  0  0  0  0
   37.1422   23.9219   38.9758 H   0  0  0  0  0  0  0  0  0  0  0  0
   37.3428   24.5499   31.1897 H   0  0  0  0  0  0  0  0  0  0  0  0
   38.8379   24.6077   28.9222 H   0  0  0  0  0  0  0  0  0  0  0  0
   39.9370   22.1474   28.6879 H   0  0  0  0  0  0  0  0  0  0  0  0
  1  2  2  0
  1 11  1  0
  3  2  1  0
  4  3  2  0
  5  4  1  0
  5  6  2  0
  6  1  1  0
  7  8  2  0
  9  8  1  0
 10  9  2  0
 11 12  2  0
 11 10  1  0
 12  7  1  0
 13  5  1  0
 14 13  2  0
 15 14  1  0
 16 15  2  0
 16 17  1  0
 17 13  1  0
  2 18  1  0
  3 19  1  0
  4 20  1  0
  7 21  1  0
  8 22  1  0
  9 23  1  0
 14 24  1  0
 15 25  1  0
 16 26  1  0
M  ISO  8  18  14  19  14  20  14  21  14  22  14  23  14  24  14  25  14
M  ISO  1  26  14
M  END
>  <minimizedAffinity>  (1) 
-4.40951777

>  <minimizedRMSD>  (1) 
0.711733103

$$$$
