
     RDKit          3D

 35 37  0  0  0  0  0  0  0  0999 V2000
   37.2150   21.8350   35.2520 C   0  0  0  0  0  0  0  0  0  0  0  0
   36.2110   20.9200   35.4750 C   0  0  0  0  0  0  0  0  0  0  0  0
   35.4740   20.4490   34.3970 C   0  0  0  0  0  0  0  0  0  0  0  0
   35.8090   20.9420   33.1650 C   0  0  0  0  0  0  0  0  0  0  0  0
   36.8040   21.8540   32.9160 C   0  0  0  0  0  0  0  0  0  0  0  0
   37.4860   22.2760   33.9970 N   0  0  0  0  0  0  0  0  0  0  0  0
   40.0620   22.6640   37.3940 C   0  0  0  0  0  0  0  0  0  0  0  0
   39.4890   23.4180   38.4110 C   0  0  0  0  0  0  0  0  0  0  0  0
   38.0790   23.6440   38.3500 C   0  0  0  0  0  0  0  0  0  0  0  0
   37.4040   23.0940   37.2880 N   0  0  0  0  0  0  0  0  0  0  0  0
   38.0250   22.3700   36.3320 C   0  0  0  0  0  0  0  0  0  0  0  0
   39.3460   22.1570   36.3870 N   0  0  0  0  0  0  0  0  0  0  0  0
   37.1130   22.3420   31.5740 C   0  0  0  0  0  0  0  0  0  0  0  0
   36.0480   23.2650   31.0240 C   0  0  0  0  0  0  0  0  0  0  0  0
   36.4850   24.6230   30.9260 N   0  0  0  0  0  0  0  0  0  0  0  0
   37.7690   25.0010   31.0130 C   0  0  0  0  0  0  0  0  0  0  0  0
   38.2090   26.3070   30.9220 C   0  0  0  0  0  0  0  0  0  0  0  0
   37.2030   27.2540   30.7260 C   0  0  0  0  0  0  0  0  0  0  0  0
   37.4770   28.4730   30.6270 O   0  0  0  0  0  0  0  0  0  0  0  0
   35.9090   26.8920   30.6360 N   0  0  0  0  0  0  0  0  0  0  0  0
   35.5560   25.5840   30.7370 C   0  0  0  0  0  0  0  0  0  0  0  0
   34.3130   25.3530   30.6400 O   0  0  0  0  0  0  0  0  0  0  0  0
   35.9955   20.5666   36.4942 H   0  0  0  0  0  0  0  0  0  0  0  0
   34.6628   19.7174   34.5263 H   0  0  0  0  0  0  0  0  0  0  0  0
   35.2326   20.5768   32.3022 H   0  0  0  0  0  0  0  0  0  0  0  0
   41.1458   22.4778   37.4193 H   0  0  0  0  0  0  0  0  0  0  0  0
   40.0975   23.8254   39.2318 H   0  0  0  0  0  0  0  0  0  0  0  0
   37.5577   24.2323   39.1195 H   0  0  0  0  0  0  0  0  0  0  0  0
   38.0668   22.8887   31.6102 H   0  0  0  0  0  0  0  0  0  0  0  0
   37.1677   21.4675   30.9090 H   0  0  0  0  0  0  0  0  0  0  0  0
   35.7638   22.9145   30.0208 H   0  0  0  0  0  0  0  0  0  0  0  0
   35.1981   23.2413   31.7220 H   0  0  0  0  0  0  0  0  0  0  0  0
   38.5241   24.2162   31.1676 H   0  0  0  0  0  0  0  0  0  0  0  0
   39.2719   26.5800   30.9982 H   0  0  0  0  0  0  0  0  0  0  0  0
   35.1844   27.6093   30.4901 H   0  0  0  0  0  0  0  0  0  0  0  0
  1  2  2  0
  1 11  1  0
  3  2  1  0
  4  3  2  0
  5  4  1  0
  5  6  2  0
  6  1  1  0
  7  8  2  0
  9  8  1  0
 10  9  2  0
 11 12  2  0
 11 10  1  0
 12  7  1  0
 13  5  1  0
 14 13  1  0
 15 16  1  0
 15 14  1  0
 17 16  2  0
 18 17  1  0
 19 18  2  0
 20 18  1  0
 20 21  1  0
 21 15  1  0
 22 21  2  0
  2 23  1  0
  3 24  1  0
  4 25  1  0
  7 26  1  0
  8 27  1  0
  9 28  1  0
 13 29  1  0
 13 30  1  0
 14 31  1  0
 14 32  1  0
 16 33  1  0
 17 34  1  0
 20 35  1  0
M  ISO  8  23  14  24  14  25  14  26  14  27  14  28  14  29   8  30   8
M  ISO  5  31   8  32   8  33  14  34  14  35   9
M  END
>  <minimizedAffinity>  (1) 
-5.53665638

>  <minimizedRMSD>  (1) 
1.66845119

$$$$
