
     RDKit          3D

 36 39  0  0  0  0  0  0  0  0999 V2000
   37.1140   21.7580   35.0150 C   0  0  0  0  0  0  0  0  0  0  0  0
   36.1030   20.8530   35.2010 C   0  0  0  0  0  0  0  0  0  0  0  0
   35.4170   20.3990   34.0900 C   0  0  0  0  0  0  0  0  0  0  0  0
   35.8030   20.8930   32.8730 C   0  0  0  0  0  0  0  0  0  0  0  0
   36.8080   21.7970   32.6610 C   0  0  0  0  0  0  0  0  0  0  0  0
   37.4490   22.2110   33.7670 N   0  0  0  0  0  0  0  0  0  0  0  0
   39.9060   22.6720   37.2090 C   0  0  0  0  0  0  0  0  0  0  0  0
   39.2840   23.3510   38.2520 C   0  0  0  0  0  0  0  0  0  0  0  0
   37.8820   23.4900   38.1880 C   0  0  0  0  0  0  0  0  0  0  0  0
   37.2380   22.9490   37.1090 N   0  0  0  0  0  0  0  0  0  0  0  0
   37.8970   22.2980   36.1220 C   0  0  0  0  0  0  0  0  0  0  0  0
   39.2260   22.1630   36.1780 N   0  0  0  0  0  0  0  0  0  0  0  0
   37.1710   22.2840   31.3330 C   0  0  0  0  0  0  0  0  0  0  0  0
   36.4460   23.5570   30.9530 C   0  0  0  0  0  0  0  0  0  0  0  0
   37.3200   24.6850   30.8650 N   0  0  0  0  0  0  0  0  0  0  0  0
   38.5890   24.7950   30.4930 C   0  0  0  0  0  0  0  0  0  0  0  0
   39.0270   26.0700   30.5630 N   0  0  0  0  0  0  0  0  0  0  0  0
   37.9950   26.8170   31.0000 C   0  0  0  0  0  0  0  0  0  0  0  0
   37.9000   28.1580   31.2460 C   0  0  0  0  0  0  0  0  0  0  0  0
   36.7070   28.6360   31.6890 N   0  0  0  0  0  0  0  0  0  0  0  0
   35.6740   27.7770   31.8690 C   0  0  0  0  0  0  0  0  0  0  0  0
   35.7600   26.4430   31.6280 N   0  0  0  0  0  0  0  0  0  0  0  0
   36.9340   25.9540   31.1880 C   0  0  0  0  0  0  0  0  0  0  0  0
   35.8435   20.4965   36.2087 H   0  0  0  0  0  0  0  0  0  0  0  0
   34.5963   19.6721   34.1800 H   0  0  0  0  0  0  0  0  0  0  0  0
   35.2578   20.5317   31.9886 H   0  0  0  0  0  0  0  0  0  0  0  0
   40.9989   22.5497   37.2343 H   0  0  0  0  0  0  0  0  0  0  0  0
   39.8622   23.7627   39.0923 H   0  0  0  0  0  0  0  0  0  0  0  0
   37.3256   24.0152   38.9783 H   0  0  0  0  0  0  0  0  0  0  0  0
   38.2536   22.4779   31.3143 H   0  0  0  0  0  0  0  0  0  0  0  0
   36.8806   21.5100   30.6073 H   0  0  0  0  0  0  0  0  0  0  0  0
   35.9635   23.4087   29.9757 H   0  0  0  0  0  0  0  0  0  0  0  0
   35.7098   23.7682   31.7426 H   0  0  0  0  0  0  0  0  0  0  0  0
   39.2102   23.9480   30.1664 H   0  0  0  0  0  0  0  0  0  0  0  0
   38.7591   28.8273   31.0909 H   0  0  0  0  0  0  0  0  0  0  0  0
   34.7164   28.1812   32.2289 H   0  0  0  0  0  0  0  0  0  0  0  0
  1  2  2  0
  1 11  1  0
  3  2  1  0
  4  3  2  0
  5  4  1  0
  5  6  2  0
  6  1  1  0
  7  8  2  0
  9  8  1  0
 10  9  2  0
 11 12  2  0
 11 10  1  0
 12  7  1  0
 13  5  1  0
 14 13  1  0
 15 14  1  0
 15 23  1  0
 16 17  2  0
 16 15  1  0
 17 18  1  0
 18 23  2  0
 18 19  1  0
 19 20  2  0
 20 21  1  0
 22 21  2  0
 23 22  1  0
  2 24  1  0
  3 25  1  0
  4 26  1  0
  7 27  1  0
  8 28  1  0
  9 29  1  0
 13 30  1  0
 13 31  1  0
 14 32  1  0
 14 33  1  0
 16 34  1  0
 19 35  1  0
 21 36  1  0
M  ISO  8  24  14  25  14  26  14  27  14  28  14  29  14  30   8  31   8
M  ISO  5  32   8  33   8  34  14  35  14  36  14
M  END
>  <minimizedAffinity>  (1) 
-5.46898794

>  <minimizedRMSD>  (1) 
1.43292773

$$$$
