
     RDKit          3D

 28 30  0  0  0  0  0  0  0  0999 V2000
   35.4450   21.8100   32.4380 C   0  0  0  0  0  0  0  0  0  0  0  0
   36.3940   22.5600   31.6910 C   0  0  0  0  0  0  0  0  0  0  0  0
   37.3810   21.8490   31.0310 C   0  0  0  0  0  0  0  0  0  0  0  0
   37.4060   20.4900   31.1220 N   0  0  0  0  0  0  0  0  0  0  0  0
   36.4960   19.8200   31.8350 C   0  0  0  0  0  0  0  0  0  0  0  0
   35.4970   20.4570   32.5090 N   0  0  0  0  0  0  0  0  0  0  0  0
   36.4520   18.4050   31.9790 N   0  0  0  0  0  0  0  0  0  0  0  0
   35.2870   17.8880   32.3850 N   0  0  0  0  0  0  0  0  0  0  0  0
   35.4240   16.5350   32.4680 C   0  0  0  0  0  0  0  0  0  0  0  0
   36.7430   16.2630   32.0880 C   0  0  0  0  0  0  0  0  0  0  0  0
   37.3860   17.4540   31.7810 C   0  0  0  0  0  0  0  0  0  0  0  0
   36.2280   23.9530   31.7000 N   0  0  0  0  0  0  0  0  0  0  0  0
   35.2610   24.4520   30.9060 C   0  0  0  0  0  0  0  0  0  0  0  0
   35.0920   25.8220   30.9110 C   0  0  0  0  0  0  0  0  0  0  0  0
   35.8970   26.5850   31.7020 C   0  0  0  0  0  0  0  0  0  0  0  0
   35.7620   27.9880   31.7390 N   0  0  0  0  0  0  0  0  0  0  0  0
   36.8450   26.0400   32.4740 N   0  0  0  0  0  0  0  0  0  0  0  0
   37.0300   24.6960   32.4880 C   0  0  0  0  0  0  0  0  0  0  0  0
   37.9290   24.2080   33.2220 O   0  0  0  0  0  0  0  0  0  0  0  0
   34.6455   22.3427   32.9738 H   0  0  0  0  0  0  0  0  0  0  0  0
   38.1406   22.3779   30.4366 H   0  0  0  0  0  0  0  0  0  0  0  0
   34.6568   15.8073   32.7709 H   0  0  0  0  0  0  0  0  0  0  0  0
   37.1984   15.2629   32.0402 H   0  0  0  0  0  0  0  0  0  0  0  0
   38.4260   17.5911   31.4499 H   0  0  0  0  0  0  0  0  0  0  0  0
   34.6346   23.7976   30.2821 H   0  0  0  0  0  0  0  0  0  0  0  0
   34.3184   26.2909   30.2852 H   0  0  0  0  0  0  0  0  0  0  0  0
   36.3795   28.5490   32.3430 H   0  0  0  0  0  0  0  0  0  0  0  0
   35.0459   28.4519   31.1620 H   0  0  0  0  0  0  0  0  0  0  0  0
  1  6  2  0
  2 12  1  0
  2  1  1  0
  3  4  1  0
  3  2  2  0
  4  5  2  0
  5  7  1  0
  5  6  1  0
  7  8  1  0
  8  9  2  0
 10  9  1  0
 11  7  1  0
 11 10  2  0
 12 18  1  0
 13 14  2  0
 13 12  1  0
 14 15  1  0
 15 16  1  0
 15 17  2  0
 17 18  1  0
 18 19  2  0
  1 20  1  0
  3 21  1  0
  9 22  1  0
 10 23  1  0
 11 24  1  0
 13 25  1  0
 14 26  1  0
 16 27  1  0
 16 28  1  0
M  ISO  7  20  14  21  14  22  14  23  14  24  14  25  14  26  14
M  END
>  <minimizedAffinity>  (1) 
-4.65759087

>  <minimizedRMSD>  (1) 
7.68664742

$$$$
