
     RDKit          3D

 38 40  0  0  0  0  0  0  0  0999 V2000
   37.1390   21.8900   34.8160 C   0  0  0  0  0  0  0  0  0  0  0  0
   36.2770   20.8210   34.8960 C   0  0  0  0  0  0  0  0  0  0  0  0
   35.5320   20.4850   33.7800 C   0  0  0  0  0  0  0  0  0  0  0  0
   35.7030   21.2380   32.6660 C   0  0  0  0  0  0  0  0  0  0  0  0
   36.5430   22.3000   32.5500 C   0  0  0  0  0  0  0  0  0  0  0  0
   37.2560   22.6070   33.6500 N   0  0  0  0  0  0  0  0  0  0  0  0
   40.0010   22.4770   37.0090 C   0  0  0  0  0  0  0  0  0  0  0  0
   39.4390   23.1370   38.1170 C   0  0  0  0  0  0  0  0  0  0  0  0
   38.0530   23.3690   38.0690 C   0  0  0  0  0  0  0  0  0  0  0  0
   37.3660   22.9380   36.9610 N   0  0  0  0  0  0  0  0  0  0  0  0
   37.9560   22.3120   35.9340 C   0  0  0  0  0  0  0  0  0  0  0  0
   39.2850   22.0780   35.9550 N   0  0  0  0  0  0  0  0  0  0  0  0
   36.7130   23.1090   31.3220 C   0  0  0  0  0  0  0  0  0  0  0  0
   35.8520   24.3340   31.3180 C   0  0  0  0  0  0  0  0  0  0  0  0
   36.6970   25.5090   31.1730 N   0  0  0  0  0  0  0  0  0  0  0  0
   35.8610   26.6820   30.8990 C   0  0  0  0  0  0  0  0  0  0  0  0
   35.9240   27.7250   31.9740 C   0  0  0  0  0  0  0  0  0  0  0  0
   37.2310   28.1650   32.2110 O   0  0  0  0  0  0  0  0  0  0  0  0
   38.1400   27.1090   32.1930 C   0  0  0  0  0  0  0  0  0  0  0  0
   37.3770   25.8240   32.4190 C   0  0  0  0  0  0  0  0  0  0  0  0
   36.1821   20.2451   35.8284 H   0  0  0  0  0  0  0  0  0  0  0  0
   34.8283   19.6397   33.7960 H   0  0  0  0  0  0  0  0  0  0  0  0
   35.1110   20.9661   31.7797 H   0  0  0  0  0  0  0  0  0  0  0  0
   41.0832   22.2800   37.0111 H   0  0  0  0  0  0  0  0  0  0  0  0
   40.0507   23.4544   38.9744 H   0  0  0  0  0  0  0  0  0  0  0  0
   37.5349   23.8801   38.8938 H   0  0  0  0  0  0  0  0  0  0  0  0
   37.7660   23.4178   31.2461 H   0  0  0  0  0  0  0  0  0  0  0  0
   36.4113   22.4859   30.4671 H   0  0  0  0  0  0  0  0  0  0  0  0
   35.1437   24.2837   30.4779 H   0  0  0  0  0  0  0  0  0  0  0  0
   35.2905   24.3955   32.2619 H   0  0  0  0  0  0  0  0  0  0  0  0
   36.1956   27.1351   29.9541 H   0  0  0  0  0  0  0  0  0  0  0  0
   34.8193   26.3323   30.8479 H   0  0  0  0  0  0  0  0  0  0  0  0
   35.3110   28.5856   31.6682 H   0  0  0  0  0  0  0  0  0  0  0  0
   35.5472   27.2734   32.9036 H   0  0  0  0  0  0  0  0  0  0  0  0
   38.6494   27.0730   31.2187 H   0  0  0  0  0  0  0  0  0  0  0  0
   38.8958   27.2452   32.9806 H   0  0  0  0  0  0  0  0  0  0  0  0
   36.6426   25.9578   33.2269 H   0  0  0  0  0  0  0  0  0  0  0  0
   38.0565   25.0102   32.7121 H   0  0  0  0  0  0  0  0  0  0  0  0
  1  2  2  0
  1 11  1  0
  3  2  1  0
  4  3  2  0
  5  4  1  0
  5  6  2  0
  6  1  1  0
  7  8  2  0
  9  8  1  0
 10  9  2  0
 11 12  2  0
 11 10  1  0
 12  7  1  0
 13  5  1  0
 14 13  1  0
 15 14  1  0
 15 20  1  0
 16 15  1  0
 16 17  1  0
 17 18  1  0
 19 18  1  0
 19 20  1  0
  2 21  1  0
  3 22  1  0
  4 23  1  0
  7 24  1  0
  8 25  1  0
  9 26  1  0
 13 27  1  0
 13 28  1  0
 14 29  1  0
 14 30  1  0
 16 31  1  0
 16 32  1  0
 17 33  1  0
 17 34  1  0
 19 35  1  0
 19 36  1  0
 20 37  1  0
 20 38  1  0
M  ISO  8  21  14  22  14  23  14  24  14  25  14  26  14  27   8  28   8
M  ISO  8  29   8  30   8  31  13  32  13  33  13  34  13  35  13  36  13
M  ISO  2  37  13  38  13
M  END
>  <minimizedAffinity>  (1) 
-5.00172424

>  <minimizedRMSD>  (1) 
1.67181337

$$$$
