
     RDKit          3D

 24 25  0  0  0  0  0  0  0  0999 V2000
   36.3130   22.2810   31.6930 N   0  0  0  0  0  0  0  0  0  0  0  0
   35.2350   21.6870   32.2720 C   0  0  0  0  0  0  0  0  0  0  0  0
   35.0300   20.3490   32.0050 C   0  0  0  0  0  0  0  0  0  0  0  0
   35.9090   19.7130   31.1870 C   0  0  0  0  0  0  0  0  0  0  0  0
   35.7450   18.3470   30.8810 N   0  0  0  0  0  0  0  0  0  0  0  0
   36.9550   20.3420   30.6400 N   0  0  0  0  0  0  0  0  0  0  0  0
   37.1740   21.6590   30.8910 C   0  0  0  0  0  0  0  0  0  0  0  0
   38.1690   22.2320   30.3640 O   0  0  0  0  0  0  0  0  0  0  0  0
   35.6740   24.5510   31.2730 C   0  0  0  0  0  0  0  0  0  0  0  0
   36.4950   23.6400   31.9830 C   0  0  0  0  0  0  0  0  0  0  0  0
   37.3930   24.1760   32.8900 C   0  0  0  0  0  0  0  0  0  0  0  0
   37.4480   25.5200   33.0580 N   0  0  0  0  0  0  0  0  0  0  0  0
   36.6490   26.3650   32.3620 C   0  0  0  0  0  0  0  0  0  0  0  0
   35.7590   25.8880   31.4670 N   0  0  0  0  0  0  0  0  0  0  0  0
   36.7490   27.8380   32.5830 C   0  0  0  0  0  0  0  0  0  0  0  0
   37.6550   28.4210   31.7410 F   0  0  0  0  0  0  0  0  0  0  0  0
   35.5190   28.4550   32.3090 F   0  0  0  0  0  0  0  0  0  0  0  0
   37.0150   28.1110   33.8980 F   0  0  0  0  0  0  0  0  0  0  0  0
   34.5541   22.2507   32.9267 H   0  0  0  0  0  0  0  0  0  0  0  0
   34.1766   19.8108   32.4432 H   0  0  0  0  0  0  0  0  0  0  0  0
   36.4169   17.8741   30.2598 H   0  0  0  0  0  0  0  0  0  0  0  0
   34.9533   17.8216   31.2785 H   0  0  0  0  0  0  0  0  0  0  0  0
   34.9479   24.1611   30.5444 H   0  0  0  0  0  0  0  0  0  0  0  0
   38.0563   23.5169   33.4694 H   0  0  0  0  0  0  0  0  0  0  0  0
  1 10  1  0
  1  2  1  0
  3  2  2  0
  4  3  1  0
  5  4  1  0
  6  7  1  0
  6  4  2  0
  7  1  1  0
  8  7  2  0
  9 14  2  0
  9 10  1  0
 10 11  2  0
 11 12  1  0
 13 15  1  0
 13 12  2  0
 14 13  1  0
 15 18  1  0
 16 15  1  0
 17 15  1  0
  2 19  1  0
  3 20  1  0
  5 21  1  0
  5 22  1  0
  9 23  1  0
 11 24  1  0
M  ISO  4  19  14  20  14  23  14  24  14
M  END
>  <minimizedAffinity>  (1) 
-4.61657524

>  <minimizedRMSD>  (1) 
5.90717363

$$$$
