
     RDKit          3D

 48 51  0  0  1  0  0  0  0  0999 V2000
   36.0160   25.4600   31.0920 C   0  0  0  0  0  0  0  0  0  0  0  0
   36.8570   26.6840   31.4340 C   0  0  1  0  0  0  0  0  0  0  0  0
   36.5280   27.7850   30.4900 C   0  0  0  0  0  0  0  0  0  0  0  0
   36.6540   29.0230   31.3350 C   0  0  0  0  0  0  0  0  0  0  0  0
   36.0150   28.5810   32.6390 C   0  0  0  0  0  0  0  0  0  0  0  0
   36.4770   27.1390   32.8060 C   0  0  2  0  0  0  0  0  0  0  0  0
   37.6000   27.0360   33.7760 C   0  0  0  0  0  0  0  0  0  0  0  0
   38.8500   26.6780   33.2590 C   0  0  0  0  0  0  0  0  0  0  0  0
   40.0040   26.5390   34.0400 C   0  0  0  0  0  0  0  0  0  0  0  0
   39.8690   26.7760   35.3860 C   0  0  0  0  0  0  0  0  0  0  0  0
   38.6520   27.1310   35.9340 C   0  0  0  0  0  0  0  0  0  0  0  0
   37.5610   27.2520   35.1280 C   0  0  0  0  0  0  0  0  0  0  0  0
   36.8540   24.2460   30.8230 C   0  0  0  0  0  0  0  0  0  0  0  0
   37.3650   22.3470   33.9700 C   0  0  0  0  0  0  0  0  0  0  0  0
   36.4820   21.3090   33.8910 C   0  0  0  0  0  0  0  0  0  0  0  0
   35.6780   21.2140   32.7650 C   0  0  0  0  0  0  0  0  0  0  0  0
   35.8190   22.1540   31.8150 C   0  0  0  0  0  0  0  0  0  0  0  0
   36.6950   23.2130   31.8560 C   0  0  0  0  0  0  0  0  0  0  0  0
   37.4340   23.2430   32.9640 N   0  0  0  0  0  0  0  0  0  0  0  0
   40.2240   22.2250   36.2370 C   0  0  0  0  0  0  0  0  0  0  0  0
   39.8340   22.9620   37.3370 C   0  0  0  0  0  0  0  0  0  0  0  0
   38.5410   23.5090   37.2700 C   0  0  0  0  0  0  0  0  0  0  0  0
   37.7970   23.2690   36.1480 N   0  0  0  0  0  0  0  0  0  0  0  0
   38.2500   22.5340   35.1090 C   0  0  0  0  0  0  0  0  0  0  0  0
   39.4760   22.0040   35.1480 N   0  0  0  0  0  0  0  0  0  0  0  0
   35.3449   25.2456   31.9368 H   0  0  0  0  0  0  0  0  0  0  0  0
   35.4516   25.6870   30.1755 H   0  0  0  0  0  0  0  0  0  0  0  0
   37.9261   26.4326   31.3728 H   0  0  0  0  0  0  0  0  0  0  0  0
   35.5046   27.6769   30.1015 H   0  0  0  0  0  0  0  0  0  0  0  0
   37.1831   27.8013   29.6065 H   0  0  0  0  0  0  0  0  0  0  0  0
   37.7080   29.3019   31.4807 H   0  0  0  0  0  0  0  0  0  0  0  0
   36.1850   29.9132   30.8905 H   0  0  0  0  0  0  0  0  0  0  0  0
   36.3646   29.2030   33.4762 H   0  0  0  0  0  0  0  0  0  0  0  0
   34.9191   28.6756   32.6267 H   0  0  0  0  0  0  0  0  0  0  0  0
   35.6876   26.4983   33.2259 H   0  0  0  0  0  0  0  0  0  0  0  0
   38.9308   26.4953   32.1773 H   0  0  0  0  0  0  0  0  0  0  0  0
   40.9701   26.2543   33.5976 H   0  0  0  0  0  0  0  0  0  0  0  0
   40.7478   26.6812   36.0408 H   0  0  0  0  0  0  0  0  0  0  0  0
   38.5645   27.3149   37.0150 H   0  0  0  0  0  0  0  0  0  0  0  0
   36.6019   27.5370   35.5849 H   0  0  0  0  0  0  0  0  0  0  0  0
   36.5594   23.8220   29.8517 H   0  0  0  0  0  0  0  0  0  0  0  0
   37.9081   24.5603   30.8237 H   0  0  0  0  0  0  0  0  0  0  0  0
   36.4100   20.5669   34.6998 H   0  0  0  0  0  0  0  0  0  0  0  0
   34.9498   20.3972   32.6533 H   0  0  0  0  0  0  0  0  0  0  0  0
   35.1768   22.0687   30.9260 H   0  0  0  0  0  0  0  0  0  0  0  0
   41.2312   21.7831   36.2562 H   0  0  0  0  0  0  0  0  0  0  0  0
   40.4905   23.1111   38.2069 H   0  0  0  0  0  0  0  0  0  0  0  0
   38.1389   24.1131   38.0967 H   0  0  0  0  0  0  0  0  0  0  0  0
  1  2  1  0
  2  6  1  0
  3  4  1  0
  3  2  1  0
  4  5  1  0
  5  6  1  0
  6  7  1  0
  7 12  1  0
  8  7  2  0
  8  9  1  0
  9 10  2  0
 10 11  1  0
 12 11  2  0
 13  1  1  0
 13 18  1  0
 14 24  1  0
 15 14  2  0
 16 15  1  0
 17 18  1  0
 17 16  2  0
 18 19  2  0
 19 14  1  0
 20 21  2  0
 22 21  1  0
 23 22  2  0
 24 25  2  0
 24 23  1  0
 25 20  1  0
  1 26  1  0
  1 27  1  0
  2 28  1  1
  3 29  1  0
  3 30  1  0
  4 31  1  0
  4 32  1  0
  5 33  1  0
  5 34  1  0
  6 35  1  1
  8 36  1  0
  9 37  1  0
 10 38  1  0
 11 39  1  0
 12 40  1  0
 13 41  1  0
 13 42  1  0
 15 43  1  0
 16 44  1  0
 17 45  1  0
 20 46  1  0
 21 47  1  0
 22 48  1  0
M  ISO  8  26   8  27   8  28  13  29  13  30  13  31  13  32  13  33  13
M  ISO  8  34  13  35  13  36  14  37  14  38  14  39  14  40  14  41   8
M  ISO  7  42   8  43  14  44  14  45  14  46  14  47  14  48  14
M  END
>  <minimizedAffinity>  (1) 
-6.20993328

>  <minimizedRMSD>  (1) 
2.41448832

$$$$
