
     RDKit          3D

 53 56  0  0  1  0  0  0  0  0999 V2000
   35.9760   24.5610   31.2890 C   0  0  0  0  0  0  0  0  0  0  0  0
   36.9340   25.6970   31.5400 C   0  0  1  0  0  0  0  0  0  0  0  0
   36.4530   26.9370   30.8440 C   0  0  0  0  0  0  0  0  0  0  0  0
   37.0090   28.0180   31.7740 C   0  0  0  0  0  0  0  0  0  0  0  0
   36.5200   27.4370   33.0750 C   0  0  0  0  0  0  0  0  0  0  0  0
   37.0320   25.9720   32.9830 C   0  0  2  0  0  0  0  0  0  0  0  0
   38.3640   26.1300   33.4940 N   0  0  0  0  0  0  0  0  0  0  0  0
   38.7030   27.1820   34.3370 C   0  0  0  0  0  0  0  0  0  0  0  0
   39.9840   26.8250   35.0670 C   0  0  0  0  0  0  0  0  0  0  0  0
   41.0850   26.9710   34.0370 C   0  0  0  0  0  0  0  0  0  0  0  0
   40.5220   26.9790   32.6270 C   0  0  0  0  0  0  0  0  0  0  0  0
   39.3640   25.9820   32.4840 C   0  0  0  0  0  0  0  0  0  0  0  0
   36.6260   23.2320   31.1530 C   0  0  0  0  0  0  0  0  0  0  0  0
   37.1140   21.8880   34.5940 C   0  0  0  0  0  0  0  0  0  0  0  0
   36.2400   20.8380   34.6620 C   0  0  0  0  0  0  0  0  0  0  0  0
   35.4580   20.5490   33.5470 C   0  0  0  0  0  0  0  0  0  0  0  0
   35.6080   21.3290   32.4520 C   0  0  0  0  0  0  0  0  0  0  0  0
   36.4730   22.3870   32.3530 C   0  0  0  0  0  0  0  0  0  0  0  0
   37.1890   22.6060   33.4540 N   0  0  0  0  0  0  0  0  0  0  0  0
   39.9930   22.4050   36.7650 C   0  0  0  0  0  0  0  0  0  0  0  0
   39.4830   23.0390   37.8820 C   0  0  0  0  0  0  0  0  0  0  0  0
   38.0970   23.2850   37.8580 C   0  0  0  0  0  0  0  0  0  0  0  0
   37.3750   22.8880   36.7570 N   0  0  0  0  0  0  0  0  0  0  0  0
   37.9660   22.2680   35.6990 C   0  0  0  0  0  0  0  0  0  0  0  0
   39.2770   22.0200   35.6930 N   0  0  0  0  0  0  0  0  0  0  0  0
   35.2690   24.5143   32.1304 H   0  0  0  0  0  0  0  0  0  0  0  0
   35.4835   24.7707   30.3280 H   0  0  0  0  0  0  0  0  0  0  0  0
   37.9220   25.4093   31.1513 H   0  0  0  0  0  0  0  0  0  0  0  0
   36.8709   27.0206   29.8299 H   0  0  0  0  0  0  0  0  0  0  0  0
   35.3646   26.9818   30.6911 H   0  0  0  0  0  0  0  0  0  0  0  0
   38.1063   28.0820   31.7312 H   0  0  0  0  0  0  0  0  0  0  0  0
   36.6996   29.0510   31.5570 H   0  0  0  0  0  0  0  0  0  0  0  0
   36.9584   27.9608   33.9372 H   0  0  0  0  0  0  0  0  0  0  0  0
   35.4326   27.5201   33.2186 H   0  0  0  0  0  0  0  0  0  0  0  0
   36.5286   25.1530   33.5175 H   0  0  0  0  0  0  0  0  0  0  0  0
   38.8565   28.0963   33.7450 H   0  0  0  0  0  0  0  0  0  0  0  0
   37.8944   27.3578   35.0618 H   0  0  0  0  0  0  0  0  0  0  0  0
   40.1514   27.5117   35.9098 H   0  0  0  0  0  0  0  0  0  0  0  0
   39.9473   25.8089   35.4868 H   0  0  0  0  0  0  0  0  0  0  0  0
   41.6196   27.9158   34.2150 H   0  0  0  0  0  0  0  0  0  0  0  0
   41.7678   26.1140   34.1340 H   0  0  0  0  0  0  0  0  0  0  0  0
   40.1559   27.9895   32.3929 H   0  0  0  0  0  0  0  0  0  0  0  0
   41.3219   26.6845   31.9318 H   0  0  0  0  0  0  0  0  0  0  0  0
   38.8930   26.1323   31.5014 H   0  0  0  0  0  0  0  0  0  0  0  0
   39.7877   24.9724   32.5899 H   0  0  0  0  0  0  0  0  0  0  0  0
   36.1763   22.7084   30.2965 H   0  0  0  0  0  0  0  0  0  0  0  0
   37.7026   23.4066   31.0101 H   0  0  0  0  0  0  0  0  0  0  0  0
   36.1568   20.2348   35.5781 H   0  0  0  0  0  0  0  0  0  0  0  0
   34.7419   19.7141   33.5561 H   0  0  0  0  0  0  0  0  0  0  0  0
   34.9880   21.0960   31.5737 H   0  0  0  0  0  0  0  0  0  0  0  0
   41.0733   22.1981   36.7512 H   0  0  0  0  0  0  0  0  0  0  0  0
   40.1169   23.3316   38.7321 H   0  0  0  0  0  0  0  0  0  0  0  0
   37.6014   23.7849   38.7033 H   0  0  0  0  0  0  0  0  0  0  0  0
  1  2  1  0
  2  6  1  0
  3  2  1  0
  3  4  1  0
  4  5  1  0
  6  5  1  0
  6  7  1  0
  7  8  1  0
  8  9  1  0
 10  9  1  0
 11 10  1  0
 12 11  1  0
 12  7  1  0
 13  1  1  0
 13 18  1  0
 14 15  2  0
 14 24  1  0
 16 15  1  0
 17 16  2  0
 18 17  1  0
 18 19  2  0
 19 14  1  0
 20 21  2  0
 22 21  1  0
 23 22  2  0
 24 23  1  0
 25 24  2  0
 25 20  1  0
  1 26  1  0
  1 27  1  0
  2 28  1  6
  3 29  1  0
  3 30  1  0
  4 31  1  0
  4 32  1  0
  5 33  1  0
  5 34  1  0
  6 35  1  1
  8 36  1  0
  8 37  1  0
  9 38  1  0
  9 39  1  0
 10 40  1  0
 10 41  1  0
 11 42  1  0
 11 43  1  0
 12 44  1  0
 12 45  1  0
 13 46  1  0
 13 47  1  0
 15 48  1  0
 16 49  1  0
 17 50  1  0
 20 51  1  0
 21 52  1  0
 22 53  1  0
M  ISO  8  26   8  27   8  28  13  29  13  30  13  31  13  32  13  33  13
M  ISO  8  34  13  35  13  36  13  37  13  38  13  39  13  40  13  41  13
M  ISO  8  42  13  43  13  44  13  45  13  46   8  47   8  48  14  49  14
M  ISO  4  50  14  51  14  52  14  53  14
M  END
>  <minimizedAffinity>  (1) 
-6.01173973

>  <minimizedRMSD>  (1) 
1.64857876

$$$$
