
     RDKit          3D

 44 46  0  0  1  0  0  0  0  0999 V2000
   36.7860   23.5060   31.2490 C   0  0  0  0  0  0  0  0  0  0  0  0
   37.2400   22.0020   34.6170 C   0  0  0  0  0  0  0  0  0  0  0  0
   36.3610   20.9560   34.6330 C   0  0  0  0  0  0  0  0  0  0  0  0
   35.5890   20.7200   33.5150 C   0  0  0  0  0  0  0  0  0  0  0  0
   35.7430   21.5460   32.4490 C   0  0  0  0  0  0  0  0  0  0  0  0
   36.6130   22.6050   32.3970 C   0  0  0  0  0  0  0  0  0  0  0  0
   37.3250   22.7720   33.5130 N   0  0  0  0  0  0  0  0  0  0  0  0
   40.1160   22.3450   36.8350 C   0  0  0  0  0  0  0  0  0  0  0  0
   39.6280   22.9980   37.9490 C   0  0  0  0  0  0  0  0  0  0  0  0
   38.2620   23.3190   37.9060 C   0  0  0  0  0  0  0  0  0  0  0  0
   37.5360   22.9680   36.7910 N   0  0  0  0  0  0  0  0  0  0  0  0
   38.0940   22.3310   35.7460 C   0  0  0  0  0  0  0  0  0  0  0  0
   39.3910   22.0120   35.7580 N   0  0  0  0  0  0  0  0  0  0  0  0
   36.0250   24.7870   31.3970 C   0  0  0  0  0  0  0  0  0  0  0  0
   36.9450   25.9890   31.5450 C   0  0  1  0  0  0  0  0  0  0  0  0
   36.3400   27.1770   30.8720 C   0  0  0  0  0  0  0  0  0  0  0  0
   36.8360   28.3230   31.7400 C   0  0  0  0  0  0  0  0  0  0  0  0
   36.5550   27.7610   33.1130 C   0  0  0  0  0  0  0  0  0  0  0  0
   37.0790   26.3190   32.9930 C   0  0  2  0  0  0  0  0  0  0  0  0
   38.5350   26.4140   33.4310 C   0  0  0  0  0  0  0  0  0  0  0  0
   38.5970   27.0330   34.7970 C   0  0  0  0  0  0  0  0  0  0  0  0
   36.4350   22.9914   30.3423 H   0  0  0  0  0  0  0  0  0  0  0  0
   37.8542   23.7608   31.1859 H   0  0  0  0  0  0  0  0  0  0  0  0
   36.2708   20.3139   35.5215 H   0  0  0  0  0  0  0  0  0  0  0  0
   34.8703   19.8877   33.4879 H   0  0  0  0  0  0  0  0  0  0  0  0
   35.1240   21.3516   31.5607 H   0  0  0  0  0  0  0  0  0  0  0  0
   41.1829   22.0771   36.8309 H   0  0  0  0  0  0  0  0  0  0  0  0
   40.2648   23.2492   38.8100 H   0  0  0  0  0  0  0  0  0  0  0  0
   37.7816   23.8407   38.7469 H   0  0  0  0  0  0  0  0  0  0  0  0
   35.3960   24.9301   30.5060 H   0  0  0  0  0  0  0  0  0  0  0  0
   35.4159   24.7140   32.3101 H   0  0  0  0  0  0  0  0  0  0  0  0
   37.9203   25.7490   31.0965 H   0  0  0  0  0  0  0  0  0  0  0  0
   36.6996   27.2756   29.8371 H   0  0  0  0  0  0  0  0  0  0  0  0
   35.2443   27.1276   30.7885 H   0  0  0  0  0  0  0  0  0  0  0  0
   37.9090   28.5129   31.5895 H   0  0  0  0  0  0  0  0  0  0  0  0
   36.3637   29.2949   31.5343 H   0  0  0  0  0  0  0  0  0  0  0  0
   37.0983   28.3185   33.8901 H   0  0  0  0  0  0  0  0  0  0  0  0
   35.4960   27.8211   33.4044 H   0  0  0  0  0  0  0  0  0  0  0  0
   36.5617   25.5529   33.5892 H   0  0  0  0  0  0  0  0  0  0  0  0
   38.9768   25.4071   33.4624 H   0  0  0  0  0  0  0  0  0  0  0  0
   39.0973   27.0339   32.7171 H   0  0  0  0  0  0  0  0  0  0  0  0
   38.5181   26.2451   35.5605 H   0  0  0  0  0  0  0  0  0  0  0  0
   39.5529   27.5643   34.9158 H   0  0  0  0  0  0  0  0  0  0  0  0
   37.7655   27.7433   34.9158 H   0  0  0  0  0  0  0  0  0  0  0  0
  1 14  1  0
  1  6  1  0
  2  3  2  0
  2 12  1  0
  4  3  1  0
  5  4  2  0
  6  5  1  0
  6  7  2  0
  7  2  1  0
  8  9  2  0
 10  9  1  0
 11 10  2  0
 12 13  2  0
 12 11  1  0
 13  8  1  0
 14 15  1  0
 15 19  1  0
 16 15  1  0
 16 17  1  0
 17 18  1  0
 19 18  1  0
 19 20  1  0
 20 21  1  0
  1 22  1  0
  1 23  1  0
  3 24  1  0
  4 25  1  0
  5 26  1  0
  8 27  1  0
  9 28  1  0
 10 29  1  0
 14 30  1  0
 14 31  1  0
 15 32  1  6
 16 33  1  0
 16 34  1  0
 17 35  1  0
 17 36  1  0
 18 37  1  0
 18 38  1  0
 19 39  1  1
 20 40  1  0
 20 41  1  0
 21 42  1  0
 21 43  1  0
 21 44  1  0
M  ISO  8  22   8  23   8  24  14  25  14  26  14  27  14  28  14  29  14
M  ISO  8  30   8  31   8  32  13  33  13  34  13  35  13  36  13  37  13
M  ISO  7  38  13  39  13  40   8  41   8  42   8  43   8  44   8
M  END
>  <minimizedAffinity>  (1) 
-5.17371082

>  <minimizedRMSD>  (1) 
0.924322009

$$$$
