
     RDKit          3D

 27 29  0  0  0  0  0  0  0  0999 V2000
   36.8590   21.4640   32.5480 C   0  0  0  0  0  0  0  0  0  0  0  0
   36.6210   22.5550   31.7480 C   0  0  0  0  0  0  0  0  0  0  0  0
   37.0090   23.7820   32.1740 C   0  0  0  0  0  0  0  0  0  0  0  0
   37.6210   23.8630   33.3850 C   0  0  0  0  0  0  0  0  0  0  0  0
   37.6500   22.1120   33.9570 S   0  0  0  0  0  0  0  0  0  0  0  0
   36.5200   20.0600   32.2680 C   0  0  0  0  0  0  0  0  0  0  0  0
   35.5200   19.4100   33.0230 C   0  0  0  0  0  0  0  0  0  0  0  0
   35.2840   18.0570   32.6640 C   0  0  0  0  0  0  0  0  0  0  0  0
   36.0050   17.5090   31.6650 N   0  0  0  0  0  0  0  0  0  0  0  0
   36.9430   18.1750   30.9820 C   0  0  0  0  0  0  0  0  0  0  0  0
   37.2160   19.4730   31.2770 N   0  0  0  0  0  0  0  0  0  0  0  0
   38.1490   25.0040   34.1190 C   0  0  0  0  0  0  0  0  0  0  0  0
   37.8270   25.1510   35.4300 C   0  0  0  0  0  0  0  0  0  0  0  0
   38.3510   26.2540   36.0940 C   0  0  0  0  0  0  0  0  0  0  0  0
   39.1670   27.1840   35.4880 C   0  0  0  0  0  0  0  0  0  0  0  0
   39.4520   26.9700   34.1520 C   0  0  0  0  0  0  0  0  0  0  0  0
   38.9640   25.8970   33.4330 C   0  0  0  0  0  0  0  0  0  0  0  0
   36.1224   22.4346   30.7749 H   0  0  0  0  0  0  0  0  0  0  0  0
   36.8349   24.6793   31.5620 H   0  0  0  0  0  0  0  0  0  0  0  0
   34.9656   19.9137   33.8285 H   0  0  0  0  0  0  0  0  0  0  0  0
   34.5236   17.4640   33.1933 H   0  0  0  0  0  0  0  0  0  0  0  0
   37.4963   17.6690   30.1771 H   0  0  0  0  0  0  0  0  0  0  0  0
   37.1784   24.4272   35.9452 H   0  0  0  0  0  0  0  0  0  0  0  0
   38.1017   26.3912   37.1565 H   0  0  0  0  0  0  0  0  0  0  0  0
   39.5693   28.0485   36.0364 H   0  0  0  0  0  0  0  0  0  0  0  0
   40.1012   27.6921   33.6351 H   0  0  0  0  0  0  0  0  0  0  0  0
   39.2081   25.7558   32.3698 H   0  0  0  0  0  0  0  0  0  0  0  0
  1  5  1  0
  2  3  1  0
  2  1  2  0
  3  4  2  0
  4  5  1  0
  4 12  1  0
  6  1  1  0
  6  7  2  0
  8  7  1  0
  9  8  2  0
 10 11  2  0
 10  9  1  0
 11  6  1  0
 12 13  2  0
 13 14  1  0
 15 14  2  0
 16 15  1  0
 17 12  1  0
 17 16  2  0
  2 18  1  0
  3 19  1  0
  7 20  1  0
  8 21  1  0
 10 22  1  0
 13 23  1  0
 14 24  1  0
 15 25  1  0
 16 26  1  0
 17 27  1  0
M  ISO  8  18  14  19  14  20  14  21  14  22  14  23  14  24  14  25  14
M  ISO  2  26  14  27  14
M  END
>  <minimizedAffinity>  (1) 
-4.41317844

>  <minimizedRMSD>  (1) 
4.43963337

$$$$
