
     RDKit          3D

 20 21  0  0  0  0  0  0  0  0999 V2000
   37.3680   21.9940   34.5360 C   0  0  0  0  0  0  0  0  0  0  0  0
   38.4110   22.8880   34.5100 C   0  0  0  0  0  0  0  0  0  0  0  0
   38.8140   23.4430   35.6780 C   0  0  0  0  0  0  0  0  0  0  0  0
   38.1740   23.0930   36.8150 C   0  0  0  0  0  0  0  0  0  0  0  0
   36.8870   21.8780   36.2210 S   0  0  0  0  0  0  0  0  0  0  0  0
   36.7680   21.2760   33.4040 C   0  0  0  0  0  0  0  0  0  0  0  0
   35.6200   20.4990   33.5620 C   0  0  0  0  0  0  0  0  0  0  0  0
   35.1200   19.8520   32.4270 C   0  0  0  0  0  0  0  0  0  0  0  0
   35.7840   20.0250   31.2520 N   0  0  0  0  0  0  0  0  0  0  0  0
   36.8950   20.7880   31.1350 C   0  0  0  0  0  0  0  0  0  0  0  0
   37.3730   21.4100   32.2340 N   0  0  0  0  0  0  0  0  0  0  0  0
   38.3620   23.5060   38.2250 C   0  0  0  0  0  0  0  0  0  0  0  0
   38.0840   24.8650   38.3620 F   0  0  0  0  0  0  0  0  0  0  0  0
   39.6440   23.2010   38.5490 F   0  0  0  0  0  0  0  0  0  0  0  0
   37.4500   22.7750   38.9860 F   0  0  0  0  0  0  0  0  0  0  0  0
   38.9071   23.1469   33.5630 H   0  0  0  0  0  0  0  0  0  0  0  0
   39.6449   24.1635   35.7002 H   0  0  0  0  0  0  0  0  0  0  0  0
   35.1275   20.3991   34.5405 H   0  0  0  0  0  0  0  0  0  0  0  0
   34.2189   19.2235   32.4826 H   0  0  0  0  0  0  0  0  0  0  0  0
   37.3990   20.8995   30.1637 H   0  0  0  0  0  0  0  0  0  0  0  0
  1  5  1  0
  2  1  2  0
  2  3  1  0
  3  4  2  0
  4 12  1  0
  5  4  1  0
  6  7  2  0
  6  1  1  0
  8  7  1  0
  9  8  2  0
 10  9  1  0
 10 11  2  0
 11  6  1  0
 12 13  1  0
 12 14  1  0
 12 15  1  0
  2 16  1  0
  3 17  1  0
  7 18  1  0
  8 19  1  0
 10 20  1  0
M  ISO  5  16  14  17  14  18  14  19  14  20  14
M  END
>  <minimizedAffinity>  (1) 
-4.3771143

>  <minimizedRMSD>  (1) 
1.35916126

$$$$
