
     RDKit          3D

 24 25  0  0  0  0  0  0  0  0999 V2000
   37.1150   21.7020   33.9960 C   0  0  0  0  0  0  0  0  0  0  0  0
   37.9190   22.8110   33.8820 C   0  0  0  0  0  0  0  0  0  0  0  0
   38.2500   23.5020   35.0010 C   0  0  0  0  0  0  0  0  0  0  0  0
   37.7710   23.0690   36.1890 C   0  0  0  0  0  0  0  0  0  0  0  0
   36.7800   21.5780   35.7120 S   0  0  0  0  0  0  0  0  0  0  0  0
   36.6470   20.8200   32.9250 C   0  0  0  0  0  0  0  0  0  0  0  0
   35.5990   19.9140   33.1640 C   0  0  0  0  0  0  0  0  0  0  0  0
   35.2120   19.1000   32.0780 C   0  0  0  0  0  0  0  0  0  0  0  0
   35.8780   19.2540   30.8930 N   0  0  0  0  0  0  0  0  0  0  0  0
   36.8770   20.1400   30.7220 C   0  0  0  0  0  0  0  0  0  0  0  0
   37.2540   20.9220   31.7530 N   0  0  0  0  0  0  0  0  0  0  0  0
   37.8620   23.4700   37.5360 N   0  0  0  0  0  0  0  0  0  0  0  0
   38.9950   23.1690   38.3410 C   0  0  0  0  0  0  0  0  0  0  0  0
   39.8410   22.3040   37.9460 N   0  0  0  0  0  0  0  0  0  0  0  0
   39.1110   23.8750   39.5700 N   0  0  0  0  0  0  0  0  0  0  0  0
   40.6740   22.0750   38.5260 H   0  0  0  0  0  0  0  0  0  0  0  0
   38.2886   23.1334   32.8974 H   0  0  0  0  0  0  0  0  0  0  0  0
   38.8925   24.3930   34.9436 H   0  0  0  0  0  0  0  0  0  0  0  0
   35.1068   19.8433   34.1452 H   0  0  0  0  0  0  0  0  0  0  0  0
   34.4003   18.3648   32.1811 H   0  0  0  0  0  0  0  0  0  0  0  0
   37.3817   20.2251   29.7483 H   0  0  0  0  0  0  0  0  0  0  0  0
   37.0821   23.9988   37.9519 H   0  0  0  0  0  0  0  0  0  0  0  0
   39.9118   23.6968   40.1927 H   0  0  0  0  0  0  0  0  0  0  0  0
   38.3942   24.5646   39.8374 H   0  0  0  0  0  0  0  0  0  0  0  0
  1  5  1  0
  2  1  2  0
  2  3  1  0
  3  4  2  0
  4 12  1  0
  5  4  1  0
  6  7  2  0
  6  1  1  0
  8  7  1  0
  9  8  2  0
 10  9  1  0
 10 11  2  0
 11  6  1  0
 12 13  1  0
 13 15  1  0
 14 13  2  0
 14 16  1  0
  2 17  1  0
  3 18  1  0
  7 19  1  0
  8 20  1  0
 10 21  1  0
 12 22  1  0
 15 23  1  0
 15 24  1  0
M  ISO  5  17  14  18  14  19  14  20  14  21  14
M  END
>  <minimizedAffinity>  (1) 
-4.1973114

>  <minimizedRMSD>  (1) 
1.93529272

$$$$
