
     RDKit          3D

 22 24  0  0  0  0  0  0  0  0999 V2000
   37.8290   21.3790   33.5300 C   0  0  0  0  0  0  0  0  0  0  0  0
   39.0910   21.9090   33.6600 C   0  0  0  0  0  0  0  0  0  0  0  0
   39.4170   22.5510   34.8080 C   0  0  0  0  0  0  0  0  0  0  0  0
   38.4830   22.6420   35.7830 C   0  0  0  0  0  0  0  0  0  0  0  0
   37.0300   21.7640   35.0430 S   0  0  0  0  0  0  0  0  0  0  0  0
   37.2640   20.6510   32.3890 C   0  0  0  0  0  0  0  0  0  0  0  0
   36.0680   19.9440   32.5170 C   0  0  0  0  0  0  0  0  0  0  0  0
   35.6130   19.2750   31.3510 C   0  0  0  0  0  0  0  0  0  0  0  0
   36.3520   19.3650   30.2250 N   0  0  0  0  0  0  0  0  0  0  0  0
   37.5010   20.0610   30.1540 C   0  0  0  0  0  0  0  0  0  0  0  0
   37.9720   20.7170   31.2470 N   0  0  0  0  0  0  0  0  0  0  0  0
   38.5060   23.2470   37.1000 C   0  0  0  0  0  0  0  0  0  0  0  0
   39.3850   22.9870   38.0790 N   0  0  0  0  0  0  0  0  0  0  0  0
   39.0500   23.7380   39.0840 O   0  0  0  0  0  0  0  0  0  0  0  0
   37.9900   24.4710   38.7850 C   0  0  0  0  0  0  0  0  0  0  0  0
   37.6340   24.1680   37.5270 N   0  0  0  0  0  0  0  0  0  0  0  0
   39.8240   21.8134   32.8454 H   0  0  0  0  0  0  0  0  0  0  0  0
   40.4173   22.9879   34.9441 H   0  0  0  0  0  0  0  0  0  0  0  0
   35.5111   19.9073   33.4649 H   0  0  0  0  0  0  0  0  0  0  0  0
   34.6781   18.6955   31.3645 H   0  0  0  0  0  0  0  0  0  0  0  0
   38.0612   20.0993   29.2081 H   0  0  0  0  0  0  0  0  0  0  0  0
   37.4920   25.1956   39.4460 H   0  0  0  0  0  0  0  0  0  0  0  0
  1  2  2  0
  1  5  1  0
  2  3  1  0
  3  4  2  0
  4 12  1  0
  5  4  1  0
  6  7  2  0
  6  1  1  0
  8  7  1  0
  9  8  2  0
 10  9  1  0
 10 11  2  0
 11  6  1  0
 12 16  1  0
 12 13  2  0
 13 14  1  0
 15 14  1  0
 16 15  2  0
  2 17  1  0
  3 18  1  0
  7 19  1  0
  8 20  1  0
 10 21  1  0
 15 22  1  0
M  ISO  6  17  14  18  14  19  14  20  14  21  14  22  14
M  END
>  <minimizedAffinity>  (1) 
-3.88494539

>  <minimizedRMSD>  (1) 
1.96711123

$$$$
