
     RDKit          3D

 24 26  0  0  0  0  0  0  0  0999 V2000
   38.0490   21.3940   33.3480 C   0  0  0  0  0  0  0  0  0  0  0  0
   39.3160   21.9050   33.4670 C   0  0  0  0  0  0  0  0  0  0  0  0
   39.6730   22.5240   34.6170 C   0  0  0  0  0  0  0  0  0  0  0  0
   38.7550   22.6080   35.5990 C   0  0  0  0  0  0  0  0  0  0  0  0
   37.2820   21.7680   34.8830 S   0  0  0  0  0  0  0  0  0  0  0  0
   37.4460   20.6910   32.2080 C   0  0  0  0  0  0  0  0  0  0  0  0
   36.2190   20.0340   32.3150 C   0  0  0  0  0  0  0  0  0  0  0  0
   35.7320   19.3920   31.1620 C   0  0  0  0  0  0  0  0  0  0  0  0
   36.4960   19.4600   30.0290 N   0  0  0  0  0  0  0  0  0  0  0  0
   37.6670   20.1000   29.9700 C   0  0  0  0  0  0  0  0  0  0  0  0
   38.1680   20.7340   31.0740 N   0  0  0  0  0  0  0  0  0  0  0  0
   38.7060   23.1660   36.9530 C   0  0  0  0  0  0  0  0  0  0  0  0
   39.5650   22.9460   37.9780 C   0  0  0  0  0  0  0  0  0  0  0  0
   39.0140   23.7340   38.9970 C   0  0  0  0  0  0  0  0  0  0  0  0
   37.8650   24.3740   38.5230 C   0  0  0  0  0  0  0  0  0  0  0  0
   37.7430   23.9800   37.2770 O   0  0  0  0  0  0  0  0  0  0  0  0
   40.0335   21.8131   32.6383 H   0  0  0  0  0  0  0  0  0  0  0  0
   40.6811   22.9451   34.7453 H   0  0  0  0  0  0  0  0  0  0  0  0
   35.6570   20.0190   33.2605 H   0  0  0  0  0  0  0  0  0  0  0  0
   34.7721   18.8549   31.1709 H   0  0  0  0  0  0  0  0  0  0  0  0
   38.2327   20.1174   29.0268 H   0  0  0  0  0  0  0  0  0  0  0  0
   40.4635   22.3120   38.0033 H   0  0  0  0  0  0  0  0  0  0  0  0
   39.4225   23.8338   40.0134 H   0  0  0  0  0  0  0  0  0  0  0  0
   37.2055   25.0598   39.0751 H   0  0  0  0  0  0  0  0  0  0  0  0
  1  2  2  0
  1  5  1  0
  2  3  1  0
  3  4  2  0
  4 12  1  0
  5  4  1  0
  6  7  2  0
  6  1  1  0
  8  7  1  0
  9  8  2  0
 10  9  1  0
 10 11  2  0
 11  6  1  0
 12 16  1  0
 12 13  2  0
 13 14  1  0
 15 14  2  0
 16 15  1  0
  2 17  1  0
  3 18  1  0
  7 19  1  0
  8 20  1  0
 10 21  1  0
 13 22  1  0
 14 23  1  0
 15 24  1  0
M  ISO  8  17  14  18  14  19  14  20  14  21  14  22  14  23  14  24  14
M  END
>  <minimizedAffinity>  (1) 
-3.92238474

>  <minimizedRMSD>  (1) 
2.01314569

$$$$
