
     RDKit          3D

 24 26  0  0  0  0  0  0  0  0999 V2000
   38.1210   21.3660   33.3360 C   0  0  0  0  0  0  0  0  0  0  0  0
   39.4180   21.7430   33.5900 C   0  0  0  0  0  0  0  0  0  0  0  0
   39.7110   22.3560   34.7610 C   0  0  0  0  0  0  0  0  0  0  0  0
   38.7020   22.5660   35.6280 C   0  0  0  0  0  0  0  0  0  0  0  0
   37.2390   21.8610   34.7530 S   0  0  0  0  0  0  0  0  0  0  0  0
   37.5990   20.6930   32.1380 C   0  0  0  0  0  0  0  0  0  0  0  0
   36.3680   20.0020   32.1960 C   0  0  0  0  0  0  0  0  0  0  0  0
   35.9700   19.3900   30.9830 C   0  0  0  0  0  0  0  0  0  0  0  0
   36.7670   19.5040   29.8920 N   0  0  0  0  0  0  0  0  0  0  0  0
   37.9230   20.1740   29.9030 C   0  0  0  0  0  0  0  0  0  0  0  0
   38.3640   20.7850   31.0340 N   0  0  0  0  0  0  0  0  0  0  0  0
   38.5760   23.1740   36.9660 C   0  0  0  0  0  0  0  0  0  0  0  0
   37.7970   24.2210   37.3240 C   0  0  0  0  0  0  0  0  0  0  0  0
   38.0330   24.3910   38.6380 N   0  0  0  0  0  0  0  0  0  0  0  0
   38.9280   23.4600   39.0170 C   0  0  0  0  0  0  0  0  0  0  0  0
   39.2990   22.6630   37.9720 N   0  0  0  0  0  0  0  0  0  0  0  0
   40.2088   21.5489   32.8504 H   0  0  0  0  0  0  0  0  0  0  0  0
   40.7381   22.6718   34.9963 H   0  0  0  0  0  0  0  0  0  0  0  0
   35.7646   19.9439   33.1139 H   0  0  0  0  0  0  0  0  0  0  0  0
   35.0256   18.8288   30.9263 H   0  0  0  0  0  0  0  0  0  0  0  0
   38.5256   20.2318   28.9846 H   0  0  0  0  0  0  0  0  0  0  0  0
   37.1202   24.8044   36.6825 H   0  0  0  0  0  0  0  0  0  0  0  0
   39.3131   23.3542   40.0419 H   0  0  0  0  0  0  0  0  0  0  0  0
   39.9617   21.8746   37.9601 H   0  0  0  0  0  0  0  0  0  0  0  0
  1  2  2  0
  1  5  1  0
  2  3  1  0
  3  4  2  0
  4 12  1  0
  5  4  1  0
  6  7  2  0
  6  1  1  0
  8  7  1  0
  9 10  1  0
  9  8  2  0
 10 11  2  0
 11  6  1  0
 12 13  2  0
 12 16  1  0
 13 14  1  0
 14 15  2  0
 16 15  1  0
  2 17  1  0
  3 18  1  0
  7 19  1  0
  8 20  1  0
 10 21  1  0
 13 22  1  0
 15 23  1  0
 16 24  1  0
M  ISO  8  17  14  18  14  19  14  20  14  21  14  22  14  23  14  24   9
M  END
>  <minimizedAffinity>  (1) 
-3.99084425

>  <minimizedRMSD>  (1) 
2.15556908

$$$$
