
     RDKit          3D

 29 31  0  0  0  0  0  0  0  0999 V2000
   37.0380   22.5600   32.8100 C   0  0  0  0  0  0  0  0  0  0  0  0
   37.8750   22.8210   33.8690 C   0  0  0  0  0  0  0  0  0  0  0  0
   38.1710   24.1090   34.1630 C   0  0  0  0  0  0  0  0  0  0  0  0
   37.6240   25.0710   33.3920 C   0  0  0  0  0  0  0  0  0  0  0  0
   36.6060   24.1280   32.1480 S   0  0  0  0  0  0  0  0  0  0  0  0
   36.5920   21.2490   32.3180 C   0  0  0  0  0  0  0  0  0  0  0  0
   35.2560   20.8540   32.3920 C   0  0  0  0  0  0  0  0  0  0  0  0
   34.9450   19.5720   31.8890 C   0  0  0  0  0  0  0  0  0  0  0  0
   35.9460   18.8180   31.3730 N   0  0  0  0  0  0  0  0  0  0  0  0
   37.2280   19.2470   31.3230 C   0  0  0  0  0  0  0  0  0  0  0  0
   37.5630   20.4740   31.7990 N   0  0  0  0  0  0  0  0  0  0  0  0
   37.7300   26.4840   33.4360 N   0  0  0  0  0  0  0  0  0  0  0  0
   37.4620   27.4870   34.4840 C   0  0  0  0  0  0  0  0  0  0  0  0
   36.3910   28.2990   33.7390 C   0  0  0  0  0  0  0  0  0  0  0  0
   36.8470   28.2200   32.2750 C   0  0  0  0  0  0  0  0  0  0  0  0
   38.1630   27.4370   32.3970 C   0  0  0  0  0  0  0  0  0  0  0  0
   38.2962   21.9988   34.4662 H   0  0  0  0  0  0  0  0  0  0  0  0
   38.8352   24.3624   35.0024 H   0  0  0  0  0  0  0  0  0  0  0  0
   34.4833   21.5089   32.8210 H   0  0  0  0  0  0  0  0  0  0  0  0
   33.9126   19.1933   31.9153 H   0  0  0  0  0  0  0  0  0  0  0  0
   38.0048   18.5972   30.8936 H   0  0  0  0  0  0  0  0  0  0  0  0
   37.0721   27.0313   35.4061 H   0  0  0  0  0  0  0  0  0  0  0  0
   38.3339   28.0542   34.8418 H   0  0  0  0  0  0  0  0  0  0  0  0
   35.3952   27.8496   33.8669 H   0  0  0  0  0  0  0  0  0  0  0  0
   36.2984   29.3314   34.1071 H   0  0  0  0  0  0  0  0  0  0  0  0
   37.0148   29.2220   31.8533 H   0  0  0  0  0  0  0  0  0  0  0  0
   36.1113   27.7525   31.6041 H   0  0  0  0  0  0  0  0  0  0  0  0
   38.4391   26.9348   31.4581 H   0  0  0  0  0  0  0  0  0  0  0  0
   39.0613   28.0294   32.6252 H   0  0  0  0  0  0  0  0  0  0  0  0
  1  2  2  0
  2  3  1  0
  4 12  1  0
  4  3  2  0
  5  1  1  0
  5  4  1  0
  6  7  2  0
  6  1  1  0
  8  7  1  0
  9  8  2  0
 10  9  1  0
 10 11  2  0
 11  6  1  0
 12 13  1  0
 14 13  1  0
 15 16  1  0
 15 14  1  0
 16 12  1  0
  2 17  1  0
  3 18  1  0
  7 19  1  0
  8 20  1  0
 10 21  1  0
 13 22  1  0
 13 23  1  0
 14 24  1  0
 14 25  1  0
 15 26  1  0
 15 27  1  0
 16 28  1  0
 16 29  1  0
M  ISO  8  17  14  18  14  19  14  20  14  21  14  22  13  23  13  24  13
M  ISO  5  25  13  26  13  27  13  28  13  29  13
M  END
>  <minimizedAffinity>  (1) 
-3.69363379

>  <minimizedRMSD>  (1) 
4.87091351

$$$$
