
     RDKit          3D

 28 30  0  0  0  0  0  0  0  0999 V2000
   38.4690   21.1880   31.7550 C   0  0  0  0  0  0  0  0  0  0  0  0
   39.6700   21.8000   32.0270 C   0  0  0  0  0  0  0  0  0  0  0  0
   39.8170   22.4460   33.2140 C   0  0  0  0  0  0  0  0  0  0  0  0
   38.7710   22.4520   34.0710 C   0  0  0  0  0  0  0  0  0  0  0  0
   37.4790   21.4890   33.1640 S   0  0  0  0  0  0  0  0  0  0  0  0
   38.6170   23.0280   35.3590 N   0  0  0  0  0  0  0  0  0  0  0  0
   39.0020   22.3630   36.4660 C   0  0  0  0  0  0  0  0  0  0  0  0
   38.8350   22.9590   37.7000 C   0  0  0  0  0  0  0  0  0  0  0  0
   38.2720   24.2300   37.7500 C   0  0  0  0  0  0  0  0  0  0  0  0
   38.0340   24.9730   38.9370 N   0  0  0  0  0  0  0  0  0  0  0  0
   37.9080   24.8440   36.6260 N   0  0  0  0  0  0  0  0  0  0  0  0
   38.0680   24.2650   35.4030 C   0  0  0  0  0  0  0  0  0  0  0  0
   37.7180   24.8590   34.3390 O   0  0  0  0  0  0  0  0  0  0  0  0
   38.0960   20.4380   30.5450 C   0  0  0  0  0  0  0  0  0  0  0  0
   36.8700   19.7770   30.4660 C   0  0  0  0  0  0  0  0  0  0  0  0
   36.6120   19.0850   29.2610 C   0  0  0  0  0  0  0  0  0  0  0  0
   37.5530   19.1110   28.2880 N   0  0  0  0  0  0  0  0  0  0  0  0
   38.7260   19.7680   28.4160 C   0  0  0  0  0  0  0  0  0  0  0  0
   38.9830   20.4310   29.5600 N   0  0  0  0  0  0  0  0  0  0  0  0
   40.4944   21.7675   31.2994 H   0  0  0  0  0  0  0  0  0  0  0  0
   40.7606   22.9499   33.4703 H   0  0  0  0  0  0  0  0  0  0  0  0
   39.4435   21.3586   36.3874 H   0  0  0  0  0  0  0  0  0  0  0  0
   39.1398   22.4413   38.6215 H   0  0  0  0  0  0  0  0  0  0  0  0
   37.6114   25.9107   38.8816 H   0  0  0  0  0  0  0  0  0  0  0  0
   38.2840   24.5741   39.8531 H   0  0  0  0  0  0  0  0  0  0  0  0
   36.1459   19.7935   31.2939 H   0  0  0  0  0  0  0  0  0  0  0  0
   35.6686   18.5380   29.1170 H   0  0  0  0  0  0  0  0  0  0  0  0
   39.4610   19.7618   27.5977 H   0  0  0  0  0  0  0  0  0  0  0  0
  1  2  2  0
  1  5  1  0
  2  3  1  0
  3  4  2  0
  4  6  1  0
  5  4  1  0
  6 12  1  0
  6  7  1  0
  7  8  2  0
  8  9  1  0
  9 10  1  0
 11  9  2  0
 12 11  1  0
 13 12  2  0
 14  1  1  0
 15 14  2  0
 16 15  1  0
 17 18  1  0
 17 16  2  0
 18 19  2  0
 19 14  1  0
  2 20  1  0
  3 21  1  0
  7 22  1  0
  8 23  1  0
 10 24  1  0
 10 25  1  0
 15 26  1  0
 16 27  1  0
 18 28  1  0
M  ISO  7  20  14  21  14  22  14  23  14  26  14  27  14  28  14
M  END
>  <minimizedAffinity>  (1) 
-3.83303475

>  <minimizedRMSD>  (1) 
3.67697787

$$$$
