
     RDKit          3D

 18 19  0  0  0  0  0  0  0  0999 V2000
   36.7610   21.5610   33.2800 C   0  0  0  0  0  0  0  0  0  0  0  0
   35.8290   20.5250   33.5300 C   0  0  0  0  0  0  0  0  0  0  0  0
   34.8870   20.2790   32.4940 C   0  0  0  0  0  0  0  0  0  0  0  0
   34.9530   21.0480   31.3620 N   0  0  0  0  0  0  0  0  0  0  0  0
   35.8650   22.0170   31.1910 C   0  0  0  0  0  0  0  0  0  0  0  0
   36.7640   22.2640   32.1600 N   0  0  0  0  0  0  0  0  0  0  0  0
   37.7840   21.8950   34.2770 C   0  0  0  0  0  0  0  0  0  0  0  0
   39.1370   22.0100   34.0630 C   0  0  0  0  0  0  0  0  0  0  0  0
   39.9130   22.3250   35.1440 C   0  0  0  0  0  0  0  0  0  0  0  0
   39.3300   22.5080   36.3490 C   0  0  0  0  0  0  0  0  0  0  0  0
   37.5400   22.2200   35.9730 S   0  0  0  0  0  0  0  0  0  0  0  0
   40.0010   22.9160   37.9330 S   0  0  0  0  0  0  0  0  0  0  0  0
   35.8334   19.9473   34.4661 H   0  0  0  0  0  0  0  0  0  0  0  0
   34.1254   19.4922   32.5985 H   0  0  0  0  0  0  0  0  0  0  0  0
   35.8773   22.6067   30.2625 H   0  0  0  0  0  0  0  0  0  0  0  0
   39.5760   21.8555   33.0663 H   0  0  0  0  0  0  0  0  0  0  0  0
   41.0025   22.4285   35.0334 H   0  0  0  0  0  0  0  0  0  0  0  0
   39.1855   22.4202   38.9159 H   0  0  0  0  0  0  0  0  0  0  0  0
  1  2  2  0
  1  7  1  0
  3  2  1  0
  4  3  2  0
  5  4  1  0
  5  6  2  0
  6  1  1  0
  7 11  1  0
  8  7  2  0
  8  9  1  0
  9 10  2  0
 10 12  1  0
 11 10  1  0
  2 13  1  0
  3 14  1  0
  5 15  1  0
  8 16  1  0
  9 17  1  0
 12 18  1  0
M  ISO  6  13  14  14  14  15  14  16  14  17  14  18  11
M  END
>  <minimizedAffinity>  (1) 
-3.09052372

>  <minimizedRMSD>  (1) 
0.640322387

$$$$
