
     RDKit          3D

 18 19  0  0  0  0  0  0  0  0999 V2000
   37.1160   21.9890   33.8270 C   0  0  0  0  0  0  0  0  0  0  0  0
   36.1490   20.9830   33.8850 C   0  0  0  0  0  0  0  0  0  0  0  0
   35.3350   20.8330   32.7470 C   0  0  0  0  0  0  0  0  0  0  0  0
   35.5490   21.6700   31.6860 N   0  0  0  0  0  0  0  0  0  0  0  0
   36.4890   22.6200   31.6740 C   0  0  0  0  0  0  0  0  0  0  0  0
   37.2830   22.7840   32.7550 N   0  0  0  0  0  0  0  0  0  0  0  0
   38.0220   22.2340   34.9560 C   0  0  0  0  0  0  0  0  0  0  0  0
   39.3930   22.1400   34.9690 C   0  0  0  0  0  0  0  0  0  0  0  0
   40.0580   22.4060   36.1200 C   0  0  0  0  0  0  0  0  0  0  0  0
   39.3340   22.7530   37.2070 C   0  0  0  0  0  0  0  0  0  0  0  0
   37.5870   22.7070   36.5870 S   0  0  0  0  0  0  0  0  0  0  0  0
   39.7080   23.0780   38.5030 O   0  0  0  0  0  0  0  0  0  0  0  0
   36.0302   20.3430   34.7717 H   0  0  0  0  0  0  0  0  0  0  0  0
   34.5488   20.0645   32.7114 H   0  0  0  0  0  0  0  0  0  0  0  0
   36.6153   23.2635   30.7908 H   0  0  0  0  0  0  0  0  0  0  0  0
   39.9421   21.8535   34.0599 H   0  0  0  0  0  0  0  0  0  0  0  0
   41.1551   22.3413   36.1677 H   0  0  0  0  0  0  0  0  0  0  0  0
   39.0179   23.3096   39.1740 H   0  0  0  0  0  0  0  0  0  0  0  0
  1  2  2  0
  1  7  1  0
  3  2  1  0
  4  3  2  0
  5  4  1  0
  5  6  2  0
  6  1  1  0
  7  8  2  0
  7 11  1  0
  8  9  1  0
  9 10  2  0
 10 12  1  0
 11 10  1  0
  2 13  1  0
  3 14  1  0
  5 15  1  0
  8 16  1  0
  9 17  1  0
 12 18  1  0
M  ISO  6  13  14  14  14  15  14  16  14  17  14  18   3
M  END
>  <minimizedAffinity>  (1) 
-3.47961926

>  <minimizedRMSD>  (1) 
0.294535905

$$$$
