
     RDKit          3D

 34 36  0  0  0  0  0  0  0  0999 V2000
   38.6160   22.4060   34.4530 C   0  0  0  0  0  0  0  0  0  0  0  0
   38.3650   22.2240   33.0640 C   0  0  0  0  0  0  0  0  0  0  0  0
   39.3130   22.7300   32.1860 C   0  0  0  0  0  0  0  0  0  0  0  0
   40.4170   23.3630   32.6490 N   0  0  0  0  0  0  0  0  0  0  0  0
   40.6220   23.5170   33.9810 C   0  0  0  0  0  0  0  0  0  0  0  0
   39.7330   23.0460   34.8750 N   0  0  0  0  0  0  0  0  0  0  0  0
   41.7630   24.1740   34.5270 N   0  0  0  0  0  0  0  0  0  0  0  0
   42.2010   25.1470   33.7250 C   0  0  0  0  0  0  0  0  0  0  0  0
   43.3120   25.9150   34.0760 C   0  0  0  0  0  0  0  0  0  0  0  0
   43.8560   27.0150   33.2340 C   0  0  0  0  0  0  0  0  0  0  0  0
   43.9170   25.6090   35.2850 C   0  0  0  0  0  0  0  0  0  0  0  0
   44.9410   26.2420   35.7150 O   0  0  0  0  0  0  0  0  0  0  0  0
   43.4540   24.6220   36.0740 N   0  0  0  0  0  0  0  0  0  0  0  0
   42.3670   23.8940   35.6970 C   0  0  0  0  0  0  0  0  0  0  0  0
   41.8220   22.9520   36.3170 O   0  0  0  0  0  0  0  0  0  0  0  0
   37.1870   21.5530   32.7270 N   0  0  0  0  0  0  0  0  0  0  0  0
   37.2040   20.1980   32.9020 C   0  0  0  0  0  0  0  0  0  0  0  0
   36.0470   19.5210   32.5740 C   0  0  0  0  0  0  0  0  0  0  0  0
   34.9760   20.2110   32.1050 C   0  0  0  0  0  0  0  0  0  0  0  0
   33.7810   19.5700   31.7590 N   0  0  0  0  0  0  0  0  0  0  0  0
   35.0180   21.5580   31.9510 N   0  0  0  0  0  0  0  0  0  0  0  0
   36.1430   22.2340   32.2690 C   0  0  0  0  0  0  0  0  0  0  0  0
   36.1520   23.4880   32.1150 O   0  0  0  0  0  0  0  0  0  0  0  0
   37.8959   22.0232   35.1912 H   0  0  0  0  0  0  0  0  0  0  0  0
   39.1661   22.6157   31.1019 H   0  0  0  0  0  0  0  0  0  0  0  0
   41.6803   25.3457   32.7767 H   0  0  0  0  0  0  0  0  0  0  0  0
   44.2501   27.8120   33.8817 H   0  0  0  0  0  0  0  0  0  0  0  0
   44.6651   26.6249   32.5990 H   0  0  0  0  0  0  0  0  0  0  0  0
   43.0549   27.4212   32.5990 H   0  0  0  0  0  0  0  0  0  0  0  0
   43.9241   24.4164   36.9671 H   0  0  0  0  0  0  0  0  0  0  0  0
   38.0928   19.6745   33.2841 H   0  0  0  0  0  0  0  0  0  0  0  0
   35.9929   18.4287   32.6919 H   0  0  0  0  0  0  0  0  0  0  0  0
   32.9851   20.1201   31.4058 H   0  0  0  0  0  0  0  0  0  0  0  0
   33.6974   18.5481   31.8576 H   0  0  0  0  0  0  0  0  0  0  0  0
  1  6  2  0
  2  1  1  0
  3  4  1  0
  3  2  2  0
  4  5  2  0
  5  7  1  0
  5  6  1  0
  7 14  1  0
  8  9  2  0
  8  7  1  0
  9 11  1  0
 10  9  1  0
 11 12  2  0
 11 13  1  0
 14 13  1  0
 14 15  2  0
 16 17  1  0
 16  2  1  0
 18 17  2  0
 19 18  1  0
 20 19  1  0
 21 19  2  0
 21 22  1  0
 22 16  1  0
 23 22  2  0
  1 24  1  0
  3 25  1  0
  8 26  1  0
 10 27  1  0
 10 28  1  0
 10 29  1  0
 13 30  1  0
 17 31  1  0
 18 32  1  0
 20 33  1  0
 20 34  1  0
M  ISO  8  24  14  25  14  26  14  27   8  28   8  29   8  30   9  31  14
M  ISO  1  32  14
M  END
>  <minimizedAffinity>  (1) 
-4.31556225

>  <minimizedRMSD>  (1) 
4.72072363

$$$$
