
     RDKit          3D

 20 21  0  0  0  0  0  0  0  0999 V2000
   37.3400   21.9750   34.3670 C   0  0  0  0  0  0  0  0  0  0  0  0
   38.3180   22.9440   34.2840 C   0  0  0  0  0  0  0  0  0  0  0  0
   38.7200   23.5010   35.4720 C   0  0  0  0  0  0  0  0  0  0  0  0
   38.1670   23.0990   36.6360 C   0  0  0  0  0  0  0  0  0  0  0  0
   36.9540   21.8120   36.0720 S   0  0  0  0  0  0  0  0  0  0  0  0
   36.7470   21.2260   33.2520 C   0  0  0  0  0  0  0  0  0  0  0  0
   35.5830   20.4500   33.4580 C   0  0  0  0  0  0  0  0  0  0  0  0
   35.0890   19.7610   32.3290 C   0  0  0  0  0  0  0  0  0  0  0  0
   35.7560   19.8920   31.1500 N   0  0  0  0  0  0  0  0  0  0  0  0
   36.8660   20.6500   31.0130 C   0  0  0  0  0  0  0  0  0  0  0  0
   37.3570   21.3190   32.0820 N   0  0  0  0  0  0  0  0  0  0  0  0
   38.3990   23.5080   37.9940 C   0  0  0  0  0  0  0  0  0  0  0  0
   37.9800   24.6530   38.3790 O   0  0  0  0  0  0  0  0  0  0  0  0
   39.0740   22.6290   38.8290 O   0  0  0  0  0  0  0  0  0  0  0  0
   38.7508   23.2526   33.3210 H   0  0  0  0  0  0  0  0  0  0  0  0
   39.4972   24.2794   35.4758 H   0  0  0  0  0  0  0  0  0  0  0  0
   35.0914   20.3869   34.4400 H   0  0  0  0  0  0  0  0  0  0  0  0
   34.1879   19.1342   32.4005 H   0  0  0  0  0  0  0  0  0  0  0  0
   37.3683   20.7230   30.0371 H   0  0  0  0  0  0  0  0  0  0  0  0
   39.2511   22.8781   39.7706 H   0  0  0  0  0  0  0  0  0  0  0  0
  1  5  1  0
  2  1  2  0
  2  3  1  0
  3  4  2  0
  4 12  1  0
  5  4  1  0
  6  7  2  0
  6  1  1  0
  8  7  1  0
  9  8  2  0
 10  9  1  0
 10 11  2  0
 11  6  1  0
 12 13  2  0
 12 14  1  0
  2 15  1  0
  3 16  1  0
  7 17  1  0
  8 18  1  0
 10 19  1  0
 14 20  1  0
M  ISO  6  15  14  16  14  17  14  18  14  19  14  20   3
M  END
>  <minimizedAffinity>  (1) 
-4.14833641

>  <minimizedRMSD>  (1) 
1.36432326

$$$$
