
     RDKit          3D

 34 37  0  0  0  0  0  0  0  0999 V2000
   38.3400   21.5870   31.2830 C   0  0  0  0  0  0  0  0  0  0  0  0
   39.1990   22.6400   31.1200 C   0  0  0  0  0  0  0  0  0  0  0  0
   39.3960   23.4720   32.1940 C   0  0  0  0  0  0  0  0  0  0  0  0
   38.7460   23.2180   33.3400 C   0  0  0  0  0  0  0  0  0  0  0  0
   37.7540   21.6930   32.9470 S   0  0  0  0  0  0  0  0  0  0  0  0
   37.9650   20.5730   30.3010 C   0  0  0  0  0  0  0  0  0  0  0  0
   36.7970   19.8110   30.4560 C   0  0  0  0  0  0  0  0  0  0  0  0
   36.5300   18.8600   29.4460 C   0  0  0  0  0  0  0  0  0  0  0  0
   37.4070   18.7490   28.4100 N   0  0  0  0  0  0  0  0  0  0  0  0
   38.5110   19.5030   28.3090 C   0  0  0  0  0  0  0  0  0  0  0  0
   38.7660   20.4120   29.2750 N   0  0  0  0  0  0  0  0  0  0  0  0
   38.7620   23.9080   34.6140 C   0  0  0  0  0  0  0  0  0  0  0  0
   38.2130   23.3760   35.6230 O   0  0  0  0  0  0  0  0  0  0  0  0
   39.4000   25.1520   34.6480 O   0  0  0  0  0  0  0  0  0  0  0  0
   38.6100   26.2710   34.8740 C   0  0  0  0  0  0  0  0  0  0  0  0
   38.5920   27.0440   36.0380 C   0  0  0  0  0  0  0  0  0  0  0  0
   37.6970   28.0440   35.8800 N   0  0  0  0  0  0  0  0  0  0  0  0
   37.1270   27.9530   34.6500 C   0  0  0  0  0  0  0  0  0  0  0  0
   36.1690   28.6970   33.9760 C   0  0  0  0  0  0  0  0  0  0  0  0
   35.7800   28.3420   32.6840 C   0  0  0  0  0  0  0  0  0  0  0  0
   36.3470   27.2410   32.0600 C   0  0  0  0  0  0  0  0  0  0  0  0
   37.3020   26.5090   32.7490 C   0  0  0  0  0  0  0  0  0  0  0  0
   37.6930   26.8540   34.0300 C   0  0  0  0  0  0  0  0  0  0  0  0
   39.7129   22.8133   30.1630 H   0  0  0  0  0  0  0  0  0  0  0  0
   40.0759   24.3332   32.1163 H   0  0  0  0  0  0  0  0  0  0  0  0
   36.1259   19.9467   31.3169 H   0  0  0  0  0  0  0  0  0  0  0  0
   35.6341   18.2236   29.4952 H   0  0  0  0  0  0  0  0  0  0  0  0
   39.1956   19.3837   27.4563 H   0  0  0  0  0  0  0  0  0  0  0  0
   39.2048   26.8677   36.9343 H   0  0  0  0  0  0  0  0  0  0  0  0
   37.4803   28.7643   36.5836 H   0  0  0  0  0  0  0  0  0  0  0  0
   35.7136   29.5718   34.4632 H   0  0  0  0  0  0  0  0  0  0  0  0
   35.0200   28.9383   32.1579 H   0  0  0  0  0  0  0  0  0  0  0  0
   36.0459   26.9548   31.0414 H   0  0  0  0  0  0  0  0  0  0  0  0
   37.7594   25.6333   32.2654 H   0  0  0  0  0  0  0  0  0  0  0  0
  1  5  1  0
  2  1  2  0
  2  3  1  0
  3  4  2  0
  4 12  1  0
  5  4  1  0
  6  7  2  0
  6  1  1  0
  8  7  1  0
  9  8  2  0
 10  9  1  0
 10 11  2  0
 11  6  1  0
 12 14  1  0
 12 13  2  0
 14 15  1  0
 15 16  2  0
 17 16  1  0
 18 17  1  0
 19 18  2  0
 20 19  1  0
 21 20  2  0
 21 22  1  0
 22 23  2  0
 23 18  1  0
 23 15  1  0
  2 24  1  0
  3 25  1  0
  7 26  1  0
  8 27  1  0
 10 28  1  0
 16 29  1  0
 17 30  1  0
 19 31  1  0
 20 32  1  0
 21 33  1  0
 22 34  1  0
M  ISO  8  24  14  25  14  26  14  27  14  28  14  29  14  30   9  31  14
M  ISO  3  32  14  33  14  34  14
M  END
>  <minimizedAffinity>  (1) 
-4.36295366

>  <minimizedRMSD>  (1) 
6.18031836

$$$$
