
     RDKit          3D

 26 27  0  0  0  0  0  0  0  0999 V2000
   36.1740   22.7750   31.9360 C   0  0  0  0  0  0  0  0  0  0  0  0
   35.3890   23.7210   31.3300 C   0  0  0  0  0  0  0  0  0  0  0  0
   35.7800   25.0180   31.4990 C   0  0  0  0  0  0  0  0  0  0  0  0
   36.8710   25.3140   32.2240 C   0  0  0  0  0  0  0  0  0  0  0  0
   37.4710   23.6470   32.7580 S   0  0  0  0  0  0  0  0  0  0  0  0
   36.0070   21.3070   31.9210 C   0  0  0  0  0  0  0  0  0  0  0  0
   35.5520   20.6180   33.0560 C   0  0  0  0  0  0  0  0  0  0  0  0
   35.4380   19.2180   32.9280 C   0  0  0  0  0  0  0  0  0  0  0  0
   35.7700   18.6520   31.7460 N   0  0  0  0  0  0  0  0  0  0  0  0
   36.2030   19.3670   30.6860 C   0  0  0  0  0  0  0  0  0  0  0  0
   36.3140   20.7000   30.7990 N   0  0  0  0  0  0  0  0  0  0  0  0
   37.4780   26.5900   32.5460 C   0  0  0  0  0  0  0  0  0  0  0  0
   37.3480   27.5620   31.7140 O   0  0  0  0  0  0  0  0  0  0  0  0
   38.1640   26.6920   33.7320 O   0  0  0  0  0  0  0  0  0  0  0  0
   37.4490   26.7050   34.9580 C   0  0  0  0  0  0  0  0  0  0  0  0
   37.9830   25.7520   35.9790 C   0  0  0  0  0  0  0  0  0  0  0  0
   34.4984   23.4516   30.7433 H   0  0  0  0  0  0  0  0  0  0  0  0
   35.1962   25.8279   31.0372 H   0  0  0  0  0  0  0  0  0  0  0  0
   35.2990   21.1395   33.9909 H   0  0  0  0  0  0  0  0  0  0  0  0
   35.0876   18.6019   33.7692 H   0  0  0  0  0  0  0  0  0  0  0  0
   36.4614   18.8641   29.7424 H   0  0  0  0  0  0  0  0  0  0  0  0
   37.4949   27.7217   35.3753 H   0  0  0  0  0  0  0  0  0  0  0  0
   36.4201   26.3883   34.7318 H   0  0  0  0  0  0  0  0  0  0  0  0
   37.7678   26.1361   36.9870 H   0  0  0  0  0  0  0  0  0  0  0  0
   37.5035   24.7704   35.8505 H   0  0  0  0  0  0  0  0  0  0  0  0
   39.0706   25.6485   35.8505 H   0  0  0  0  0  0  0  0  0  0  0  0
  1  5  1  0
  2  3  1  0
  2  1  2  0
  3  4  2  0
  4 12  1  0
  4  5  1  0
  6  1  1  0
  6  7  2  0
  8  7  1  0
  9  8  2  0
 10 11  2  0
 10  9  1  0
 11  6  1  0
 12 14  1  0
 13 12  2  0
 14 15  1  0
 15 16  1  0
  2 17  1  0
  3 18  1  0
  7 19  1  0
  8 20  1  0
 10 21  1  0
 15 22  1  0
 15 23  1  0
 16 24  1  0
 16 25  1  0
 16 26  1  0
M  ISO  8  17  14  18  14  19  14  20  14  21  14  22   8  23   8  24   8
M  ISO  2  25   8  26   8
M  END
>  <minimizedAffinity>  (1) 
-3.86260509

>  <minimizedRMSD>  (1) 
4.51164579

$$$$
