
     RDKit          3D

 28 30  0  0  0  0  0  0  0  0999 V2000
   36.7020   20.9700   33.9640 C   0  0  0  0  0  0  0  0  0  0  0  0
   37.6850   20.9050   32.9640 C   0  0  0  0  0  0  0  0  0  0  0  0
   38.8840   21.5600   33.1890 C   0  0  0  0  0  0  0  0  0  0  0  0
   39.0540   22.2300   34.3610 N   0  0  0  0  0  0  0  0  0  0  0  0
   38.1000   22.2740   35.2950 C   0  0  0  0  0  0  0  0  0  0  0  0
   36.9000   21.6430   35.1150 N   0  0  0  0  0  0  0  0  0  0  0  0
   37.3480   20.1680   31.8070 N   0  0  0  0  0  0  0  0  0  0  0  0
   37.8480   18.9080   31.7270 C   0  0  0  0  0  0  0  0  0  0  0  0
   37.5350   18.1720   30.6120 C   0  0  0  0  0  0  0  0  0  0  0  0
   36.7350   18.7550   29.6500 C   0  0  0  0  0  0  0  0  0  0  0  0
   36.3790   18.0500   28.4830 N   0  0  0  0  0  0  0  0  0  0  0  0
   36.2600   20.0180   29.7790 N   0  0  0  0  0  0  0  0  0  0  0  0
   36.5650   20.7480   30.8760 C   0  0  0  0  0  0  0  0  0  0  0  0
   36.1130   21.9030   30.9620 O   0  0  0  0  0  0  0  0  0  0  0  0
   38.2140   22.9730   36.5700 C   0  0  0  0  0  0  0  0  0  0  0  0
   37.4700   23.8220   37.2400 C   0  0  0  0  0  0  0  0  0  0  0  0
   37.8700   24.3120   38.4510 C   0  0  0  0  0  0  0  0  0  0  0  0
   39.1190   23.8500   38.9240 C   0  0  0  0  0  0  0  0  0  0  0  0
   39.6570   22.6960   37.5410 S   0  0  0  0  0  0  0  0  0  0  0  0
   35.7423   20.4569   33.8037 H   0  0  0  0  0  0  0  0  0  0  0  0
   39.6841   21.5391   32.4344 H   0  0  0  0  0  0  0  0  0  0  0  0
   38.4801   18.4930   32.5259 H   0  0  0  0  0  0  0  0  0  0  0  0
   37.9112   17.1458   30.4882 H   0  0  0  0  0  0  0  0  0  0  0  0
   36.7158   17.0872   28.3401 H   0  0  0  0  0  0  0  0  0  0  0  0
   35.7820   18.4975   27.7729 H   0  0  0  0  0  0  0  0  0  0  0  0
   36.5066   24.1449   36.8186 H   0  0  0  0  0  0  0  0  0  0  0  0
   37.2567   25.0234   39.0235 H   0  0  0  0  0  0  0  0  0  0  0  0
   39.6411   24.1007   39.8592 H   0  0  0  0  0  0  0  0  0  0  0  0
  1  6  2  0
  2  3  2  0
  2  1  1  0
  3  4  1  0
  4  5  2  0
  5 15  1  0
  6  5  1  0
  7  2  1  0
  8  7  1  0
  9  8  2  0
 10 12  2  0
 10  9  1  0
 11 10  1  0
 12 13  1  0
 13 14  2  0
 13  7  1  0
 15 16  2  0
 15 19  1  0
 16 17  1  0
 17 18  2  0
 19 18  1  0
  1 20  1  0
  3 21  1  0
  8 22  1  0
  9 23  1  0
 11 24  1  0
 11 25  1  0
 16 26  1  0
 17 27  1  0
 18 28  1  0
M  ISO  7  20  14  21  14  22  14  23  14  26  14  27  14  28  14
M  END
>  <minimizedAffinity>  (1) 
-4.23515797

>  <minimizedRMSD>  (1) 
3.82726502

$$$$
