
     RDKit          3D

 24 25  0  0  0  0  0  0  0  0999 V2000
   37.1820   21.9090   33.3580 C   0  0  0  0  0  0  0  0  0  0  0  0
   37.4840   23.1440   32.8520 C   0  0  0  0  0  0  0  0  0  0  0  0
   37.9870   24.0820   33.7240 C   0  0  0  0  0  0  0  0  0  0  0  0
   38.1540   23.7420   35.0130 C   0  0  0  0  0  0  0  0  0  0  0  0
   37.5780   21.9760   35.0750 S   0  0  0  0  0  0  0  0  0  0  0  0
   36.6410   20.7580   32.6350 C   0  0  0  0  0  0  0  0  0  0  0  0
   35.6780   19.9200   33.2430 C   0  0  0  0  0  0  0  0  0  0  0  0
   35.2140   18.8350   32.4720 C   0  0  0  0  0  0  0  0  0  0  0  0
   35.7200   18.6770   31.2150 N   0  0  0  0  0  0  0  0  0  0  0  0
   36.6350   19.5110   30.6940 C   0  0  0  0  0  0  0  0  0  0  0  0
   37.0880   20.5490   31.4170 N   0  0  0  0  0  0  0  0  0  0  0  0
   38.6570   24.5030   36.1380 C   0  0  0  0  0  0  0  0  0  0  0  0
   38.7570   25.7610   36.0470 O   0  0  0  0  0  0  0  0  0  0  0  0
   39.0090   23.7870   37.2860 O   0  0  0  0  0  0  0  0  0  0  0  0
   38.1510   23.8160   38.3780 C   0  0  0  0  0  0  0  0  0  0  0  0
   37.4690   22.6040   38.6930 N   0  0  0  0  0  0  0  0  0  0  0  0
   38.0420   24.9130   39.0070 O   0  0  0  0  0  0  0  0  0  0  0  0
   37.3304   23.3781   31.7882 H   0  0  0  0  0  0  0  0  0  0  0  0
   38.2475   25.0912   33.3724 H   0  0  0  0  0  0  0  0  0  0  0  0
   35.3105   20.1049   34.2632 H   0  0  0  0  0  0  0  0  0  0  0  0
   34.4653   18.1357   32.8725 H   0  0  0  0  0  0  0  0  0  0  0  0
   37.0137   19.3441   29.6748 H   0  0  0  0  0  0  0  0  0  0  0  0
   36.8210   22.5706   39.4929 H   0  0  0  0  0  0  0  0  0  0  0  0
   37.6243   21.7619   38.1206 H   0  0  0  0  0  0  0  0  0  0  0  0
  1  5  1  0
  2  1  2  0
  2  3  1  0
  3  4  2  0
  4  5  1  0
  4 12  1  0
  6  7  2  0
  6  1  1  0
  8  7  1  0
  9  8  2  0
 10  9  1  0
 10 11  2  0
 11  6  1  0
 12 14  1  0
 13 12  2  0
 14 15  1  0
 15 16  1  0
 15 17  2  0
  2 18  1  0
  3 19  1  0
  7 20  1  0
  8 21  1  0
 10 22  1  0
 16 23  1  0
 16 24  1  0
M  ISO  5  18  14  19  14  20  14  21  14  22  14
M  END
>  <minimizedAffinity>  (1) 
-4.29101181

>  <minimizedRMSD>  (1) 
1.77537692

$$$$
