
     RDKit          3D

 27 29  0  0  0  0  0  0  0  0999 V2000
   37.3670   19.9550   30.6240 C   0  0  0  0  0  0  0  0  0  0  0  0
   38.1550   21.0330   30.3270 C   0  0  0  0  0  0  0  0  0  0  0  0
   38.2840   21.9670   31.3180 C   0  0  0  0  0  0  0  0  0  0  0  0
   37.6630   21.8040   32.4960 C   0  0  0  0  0  0  0  0  0  0  0  0
   36.7800   20.1870   32.2690 S   0  0  0  0  0  0  0  0  0  0  0  0
   37.0490   18.8000   29.7610 C   0  0  0  0  0  0  0  0  0  0  0  0
   37.0720   17.4870   30.2540 C   0  0  0  0  0  0  0  0  0  0  0  0
   36.7510   16.4660   29.3410 C   0  0  0  0  0  0  0  0  0  0  0  0
   36.4450   16.8160   28.0640 N   0  0  0  0  0  0  0  0  0  0  0  0
   36.4350   18.0900   27.6370 C   0  0  0  0  0  0  0  0  0  0  0  0
   36.7430   19.0650   28.5120 N   0  0  0  0  0  0  0  0  0  0  0  0
   37.6350   22.6260   33.6880 C   0  0  0  0  0  0  0  0  0  0  0  0
   37.8710   23.8860   33.5660 O   0  0  0  0  0  0  0  0  0  0  0  0
   37.3550   22.0080   34.8850 O   0  0  0  0  0  0  0  0  0  0  0  0
   37.9840   22.4490   36.0220 C   0  0  0  0  0  0  0  0  0  0  0  0
   37.5230   23.0920   37.1030 C   0  0  0  0  0  0  0  0  0  0  0  0
   38.3610   23.4350   38.1320 C   0  0  0  0  0  0  0  0  0  0  0  0
   39.7140   23.0590   37.9520 C   0  0  0  0  0  0  0  0  0  0  0  0
   39.7530   22.2240   36.3150 S   0  0  0  0  0  0  0  0  0  0  0  0
   38.6536   21.1419   29.3525 H   0  0  0  0  0  0  0  0  0  0  0  0
   38.9028   22.8603   31.1474 H   0  0  0  0  0  0  0  0  0  0  0  0
   37.3279   17.2669   31.3009 H   0  0  0  0  0  0  0  0  0  0  0  0
   36.7478   15.4111   29.6528 H   0  0  0  0  0  0  0  0  0  0  0  0
   36.1805   18.3309   26.5943 H   0  0  0  0  0  0  0  0  0  0  0  0
   36.4552   23.3487   37.1658 H   0  0  0  0  0  0  0  0  0  0  0  0
   38.0086   23.9629   39.0304 H   0  0  0  0  0  0  0  0  0  0  0  0
   40.5556   23.2290   38.6396 H   0  0  0  0  0  0  0  0  0  0  0  0
  1  5  1  0
  2  1  2  0
  2  3  1  0
  3  4  2  0
  4 12  1  0
  5  4  1  0
  6  7  2  0
  6  1  1  0
  8  7  1  0
  9  8  2  0
 10  9  1  0
 10 11  2  0
 11  6  1  0
 12 14  1  0
 13 12  2  0
 14 15  1  0
 15 19  1  0
 15 16  2  0
 16 17  1  0
 18 17  2  0
 19 18  1  0
  2 20  1  0
  3 21  1  0
  7 22  1  0
  8 23  1  0
 10 24  1  0
 16 25  1  0
 17 26  1  0
 18 27  1  0
M  ISO  8  20  14  21  14  22  14  23  14  24  14  25  14  26  14  27  14
M  END
>  <minimizedAffinity>  (1) 
-3.83216238

>  <minimizedRMSD>  (1) 
4.44354963

$$$$
