
     RDKit          3D

 27 29  0  0  0  0  0  0  0  0999 V2000
   37.1010   22.0190   32.9290 C   0  0  0  0  0  0  0  0  0  0  0  0
   37.0660   23.2670   32.3680 C   0  0  0  0  0  0  0  0  0  0  0  0
   37.6440   24.2910   33.0730 C   0  0  0  0  0  0  0  0  0  0  0  0
   38.2110   24.0300   34.2620 C   0  0  0  0  0  0  0  0  0  0  0  0
   37.9390   22.2010   34.4620 S   0  0  0  0  0  0  0  0  0  0  0  0
   36.5490   20.7770   32.3700 C   0  0  0  0  0  0  0  0  0  0  0  0
   35.7530   19.9280   33.1690 C   0  0  0  0  0  0  0  0  0  0  0  0
   35.2690   18.7600   32.5510 C   0  0  0  0  0  0  0  0  0  0  0  0
   35.5960   18.5390   31.2560 N   0  0  0  0  0  0  0  0  0  0  0  0
   36.3640   19.3910   30.5380 C   0  0  0  0  0  0  0  0  0  0  0  0
   36.8320   20.5080   31.1160 N   0  0  0  0  0  0  0  0  0  0  0  0
   38.8880   24.8990   35.2040 C   0  0  0  0  0  0  0  0  0  0  0  0
   39.3100   26.0290   34.8190 O   0  0  0  0  0  0  0  0  0  0  0  0
   39.0340   24.4210   36.5050 O   0  0  0  0  0  0  0  0  0  0  0  0
   37.8300   24.3880   37.2790 C   0  0  0  0  0  0  0  0  0  0  0  0
   37.6760   23.2800   38.2490 C   0  0  0  0  0  0  0  0  0  0  0  0
   38.1080   24.6150   38.7870 C   0  0  0  0  0  0  0  0  0  0  0  0
   36.5929   23.4415   31.3904 H   0  0  0  0  0  0  0  0  0  0  0  0
   37.6433   25.3143   32.6694 H   0  0  0  0  0  0  0  0  0  0  0  0
   35.5235   20.1665   34.2180 H   0  0  0  0  0  0  0  0  0  0  0  0
   34.6420   18.0460   33.1051 H   0  0  0  0  0  0  0  0  0  0  0  0
   36.6031   19.1694   29.4874 H   0  0  0  0  0  0  0  0  0  0  0  0
   37.1735   24.8027   36.4999 H   0  0  0  0  0  0  0  0  0  0  0  0
   36.6708   22.8999   38.4836 H   0  0  0  0  0  0  0  0  0  0  0  0
   38.0878   22.2621   38.3151 H   0  0  0  0  0  0  0  0  0  0  0  0
   39.1372   24.7625   39.1460 H   0  0  0  0  0  0  0  0  0  0  0  0
   37.7469   25.3087   39.5606 H   0  0  0  0  0  0  0  0  0  0  0  0
  1  5  1  0
  2  1  2  0
  2  3  1  0
  3  4  2  0
  4  5  1  0
  4 12  1  0
  6  1  1  0
  6  7  2  0
  8  7  1  0
  9  8  2  0
 10 11  2  0
 10  9  1  0
 11  6  1  0
 12 14  1  0
 13 12  2  0
 14 15  1  0
 15 16  1  0
 15 17  1  0
 16 17  1  0
  2 18  1  0
  3 19  1  0
  7 20  1  0
  8 21  1  0
 10 22  1  0
 15 23  1  0
 16 24  1  0
 16 25  1  0
 17 26  1  0
 17 27  1  0
M  ISO  8  18  14  19  14  20  14  21  14  22  14  23  13  24  13  25  13
M  ISO  2  26  13  27  13
M  END
>  <minimizedAffinity>  (1) 
-3.91566706

>  <minimizedRMSD>  (1) 
2.40585518

$$$$
