
     RDKit          3D

 33 35  0  0  0  0  0  0  0  0999 V2000
   37.9280   18.3440   30.1350 C   0  0  0  0  0  0  0  0  0  0  0  0
   37.6980   19.6290   29.7260 C   0  0  0  0  0  0  0  0  0  0  0  0
   36.8360   20.3820   30.4810 C   0  0  0  0  0  0  0  0  0  0  0  0
   36.2680   19.8310   31.5670 C   0  0  0  0  0  0  0  0  0  0  0  0
   36.9650   18.1170   31.5800 S   0  0  0  0  0  0  0  0  0  0  0  0
   38.8000   17.3490   29.4920 C   0  0  0  0  0  0  0  0  0  0  0  0
   38.7530   15.9980   29.8810 C   0  0  0  0  0  0  0  0  0  0  0  0
   39.6190   15.1140   29.2130 C   0  0  0  0  0  0  0  0  0  0  0  0
   40.4270   15.6220   28.2550 N   0  0  0  0  0  0  0  0  0  0  0  0
   40.4360   16.9260   27.9180 C   0  0  0  0  0  0  0  0  0  0  0  0
   39.6110   17.7750   28.5530 N   0  0  0  0  0  0  0  0  0  0  0  0
   35.3400   20.3780   32.5370 C   0  0  0  0  0  0  0  0  0  0  0  0
   34.5050   21.2590   32.1750 O   0  0  0  0  0  0  0  0  0  0  0  0
   35.4260   19.8890   33.8420 O   0  0  0  0  0  0  0  0  0  0  0  0
   37.4720   22.5380   36.2730 C   0  0  0  0  0  0  0  0  0  0  0  0
   36.4170   21.8450   36.8390 C   0  0  0  0  0  0  0  0  0  0  0  0
   35.6790   20.9400   36.1000 C   0  0  0  0  0  0  0  0  0  0  0  0
   36.0250   20.7480   34.7770 C   0  0  0  0  0  0  0  0  0  0  0  0
   37.0920   21.4510   34.2100 C   0  0  0  0  0  0  0  0  0  0  0  0
   37.8320   22.3560   34.9480 C   0  0  0  0  0  0  0  0  0  0  0  0
   38.3810   23.6790   37.2540 S   0  0  0  0  0  0  0  0  0  0  0  0
   38.0700   25.0700   36.7370 O   0  0  0  0  0  0  0  0  0  0  0  0
   38.0900   23.5490   38.7060 O   0  0  0  0  0  0  0  0  0  0  0  0
   38.1841   20.0408   28.8293 H   0  0  0  0  0  0  0  0  0  0  0  0
   36.6126   21.4222   30.2017 H   0  0  0  0  0  0  0  0  0  0  0  0
   38.0710   15.6494   30.6705 H   0  0  0  0  0  0  0  0  0  0  0  0
   39.6385   14.0427   29.4620 H   0  0  0  0  0  0  0  0  0  0  0  0
   41.1118   17.2920   27.1310 H   0  0  0  0  0  0  0  0  0  0  0  0
   36.1613   22.0172   37.8949 H   0  0  0  0  0  0  0  0  0  0  0  0
   34.8411   20.3891   36.5521 H   0  0  0  0  0  0  0  0  0  0  0  0
   37.3483   21.2804   33.1540 H   0  0  0  0  0  0  0  0  0  0  0  0
   38.6718   22.9086   34.5015 H   0  0  0  0  0  0  0  0  0  0  0  0
   39.7205   23.4150   37.1406 H   0  0  0  0  0  0  0  0  0  0  0  0
  1  5  1  0
  2  1  2  0
  2  3  1  0
  3  4  2  0
  4  5  1  0
  4 12  1  0
  6  7  2  0
  6  1  1  0
  8  7  1  0
  9  8  2  0
 10  9  1  0
 10 11  2  0
 11  6  1  0
 12 14  1  0
 13 12  2  0
 14 18  1  0
 15 16  2  0
 15 21  1  0
 17 16  1  0
 18 17  2  0
 19 18  1  0
 19 20  2  0
 20 15  1  0
 21 23  2  0
 22 21  2  0
  2 24  1  0
  3 25  1  0
  7 26  1  0
  8 27  1  0
 10 28  1  0
 16 29  1  0
 17 30  1  0
 19 31  1  0
 20 32  1  0
 21 33  1  0
M  ISO  8  24  14  25  14  26  14  27  14  28  14  29  14  30  14  31  14
M  ISO  2  32  14  33  11
M  END
>  <minimizedAffinity>  (1) 
-3.74708343

>  <minimizedRMSD>  (1) 
6.63904095

$$$$
