
     RDKit          3D

 28 30  0  0  0  0  0  0  0  0999 V2000
   36.6150   19.4820   30.5080 C   0  0  0  0  0  0  0  0  0  0  0  0
   36.0030   20.7030   30.5750 C   0  0  0  0  0  0  0  0  0  0  0  0
   36.0780   21.3810   31.7610 C   0  0  0  0  0  0  0  0  0  0  0  0
   36.7430   20.8210   32.7890 C   0  0  0  0  0  0  0  0  0  0  0  0
   37.3280   19.2100   32.0850 S   0  0  0  0  0  0  0  0  0  0  0  0
   36.6640   18.5750   29.3470 C   0  0  0  0  0  0  0  0  0  0  0  0
   36.9260   17.2010   29.5360 C   0  0  0  0  0  0  0  0  0  0  0  0
   36.9620   16.3990   28.3860 C   0  0  0  0  0  0  0  0  0  0  0  0
   36.7430   17.0000   27.1900 N   0  0  0  0  0  0  0  0  0  0  0  0
   36.4950   18.3330   27.0640 C   0  0  0  0  0  0  0  0  0  0  0  0
   36.4590   19.1030   28.1620 N   0  0  0  0  0  0  0  0  0  0  0  0
   36.9820   21.3090   34.1320 C   0  0  0  0  0  0  0  0  0  0  0  0
   36.0920   21.1790   35.0190 O   0  0  0  0  0  0  0  0  0  0  0  0
   38.2170   21.9130   34.3730 O   0  0  0  0  0  0  0  0  0  0  0  0
   38.2000   23.0080   35.2360 C   0  0  0  0  0  0  0  0  0  0  0  0
   38.4530   22.8060   36.5700 C   0  0  0  0  0  0  0  0  0  0  0  0
   38.4260   23.9160   37.3810 C   0  0  0  0  0  0  0  0  0  0  0  0
   38.1650   25.1590   36.9140 N   0  0  0  0  0  0  0  0  0  0  0  0
   37.9220   25.3300   35.6090 C   0  0  0  0  0  0  0  0  0  0  0  0
   37.9430   24.2530   34.7920 N   0  0  0  0  0  0  0  0  0  0  0  0
   35.4710   21.1238   29.7090 H   0  0  0  0  0  0  0  0  0  0  0  0
   35.6031   22.3669   31.8727 H   0  0  0  0  0  0  0  0  0  0  0  0
   37.0940   16.7792   30.5379 H   0  0  0  0  0  0  0  0  0  0  0  0
   37.1611   15.3192   28.4518 H   0  0  0  0  0  0  0  0  0  0  0  0
   36.3257   18.7745   26.0708 H   0  0  0  0  0  0  0  0  0  0  0  0
   38.6670   21.8043   36.9709 H   0  0  0  0  0  0  0  0  0  0  0  0
   38.6251   23.7882   38.4553 H   0  0  0  0  0  0  0  0  0  0  0  0
   37.7085   26.3315   35.2073 H   0  0  0  0  0  0  0  0  0  0  0  0
  1  2  2  0
  1  5  1  0
  2  3  1  0
  3  4  2  0
  4 12  1  0
  5  4  1  0
  6  7  2  0
  6  1  1  0
  8  7  1  0
  9  8  2  0
 10  9  1  0
 10 11  2  0
 11  6  1  0
 12 14  1  0
 12 13  2  0
 14 15  1  0
 15 16  2  0
 16 17  1  0
 18 17  2  0
 19 18  1  0
 20 15  1  0
 20 19  2  0
  2 21  1  0
  3 22  1  0
  7 23  1  0
  8 24  1  0
 10 25  1  0
 16 26  1  0
 17 27  1  0
 19 28  1  0
M  ISO  8  21  14  22  14  23  14  24  14  25  14  26  14  27  14  28  14
M  END
>  <minimizedAffinity>  (1) 
-3.66887212

>  <minimizedRMSD>  (1) 
5.18308115

$$$$
