
     RDKit          3D

 27 28  0  0  0  0  0  0  0  0999 V2000
   37.1490   21.2720   32.9180 N   0  0  0  0  0  0  0  0  0  0  0  0
   35.8290   21.1830   32.5780 C   0  0  0  0  0  0  0  0  0  0  0  0
   35.4930   20.3030   31.5690 C   0  0  0  0  0  0  0  0  0  0  0  0
   36.4810   19.5840   30.9750 C   0  0  0  0  0  0  0  0  0  0  0  0
   36.1870   18.6790   29.9460 N   0  0  0  0  0  0  0  0  0  0  0  0
   37.7610   19.7140   31.3530 N   0  0  0  0  0  0  0  0  0  0  0  0
   38.1130   20.5670   32.3350 C   0  0  0  0  0  0  0  0  0  0  0  0
   39.3240   20.6660   32.6670 O   0  0  0  0  0  0  0  0  0  0  0  0
   37.2630   21.7230   35.2660 C   0  0  0  0  0  0  0  0  0  0  0  0
   37.4530   22.1780   33.9500 C   0  0  0  0  0  0  0  0  0  0  0  0
   37.9230   23.4820   33.7720 C   0  0  0  0  0  0  0  0  0  0  0  0
   38.1730   24.2440   34.8590 N   0  0  0  0  0  0  0  0  0  0  0  0
   37.9850   23.7900   36.1110 C   0  0  0  0  0  0  0  0  0  0  0  0
   37.5330   22.5400   36.3200 N   0  0  0  0  0  0  0  0  0  0  0  0
   38.3040   24.7410   37.2090 C   0  0  0  0  0  0  0  0  0  0  0  0
   38.0540   24.0340   38.5140 C   0  0  0  0  0  0  0  0  0  0  0  0
   35.0647   21.7881   33.0876 H   0  0  0  0  0  0  0  0  0  0  0  0
   34.4461   20.1862   31.2521 H   0  0  0  0  0  0  0  0  0  0  0  0
   35.2140   18.5550   29.6316 H   0  0  0  0  0  0  0  0  0  0  0  0
   36.9439   18.1379   29.5042 H   0  0  0  0  0  0  0  0  0  0  0  0
   36.8945   20.7021   35.4447 H   0  0  0  0  0  0  0  0  0  0  0  0
   38.0871   23.8824   32.7607 H   0  0  0  0  0  0  0  0  0  0  0  0
   39.3586   25.0472   37.1448 H   0  0  0  0  0  0  0  0  0  0  0  0
   37.6773   25.6418   37.1327 H   0  0  0  0  0  0  0  0  0  0  0  0
   38.2929   24.7095   39.3486 H   0  0  0  0  0  0  0  0  0  0  0  0
   36.9964   23.7373   38.5736 H   0  0  0  0  0  0  0  0  0  0  0  0
   38.6900   23.1385   38.5736 H   0  0  0  0  0  0  0  0  0  0  0  0
  1 10  1  0
  2  1  1  0
  3  2  2  0
  4  6  2  0
  4  3  1  0
  5  4  1  0
  6  7  1  0
  7  8  2  0
  7  1  1  0
  9 14  2  0
 10  9  1  0
 11 10  2  0
 11 12  1  0
 12 13  2  0
 13 14  1  0
 13 15  1  0
 15 16  1  0
  2 17  1  0
  3 18  1  0
  5 19  1  0
  5 20  1  0
  9 21  1  0
 11 22  1  0
 15 23  1  0
 15 24  1  0
 16 25  1  0
 16 26  1  0
 16 27  1  0
M  ISO  8  17  14  18  14  21  14  22  14  23   8  24   8  25   8  26   8
M  ISO  1  27   8
M  END
>  <minimizedAffinity>  (1) 
-4.12652826

>  <minimizedRMSD>  (1) 
2.73359632

$$$$
