
     RDKit          3D

 22 23  0  0  0  0  0  0  0  0999 V2000
   37.2230   21.9030   34.7020 N   0  0  0  0  0  0  0  0  0  0  0  0
   36.2800   20.9470   34.8280 C   0  0  0  0  0  0  0  0  0  0  0  0
   35.6510   20.4950   33.6990 C   0  0  0  0  0  0  0  0  0  0  0  0
   36.0260   21.0460   32.4970 C   0  0  0  0  0  0  0  0  0  0  0  0
   35.4380   20.6450   31.2780 N   0  0  0  0  0  0  0  0  0  0  0  0
   36.9770   22.0020   32.4040 N   0  0  0  0  0  0  0  0  0  0  0  0
   37.5890   22.4400   33.5320 C   0  0  0  0  0  0  0  0  0  0  0  0
   38.4720   23.3320   33.4270 O   0  0  0  0  0  0  0  0  0  0  0  0
   37.0080   22.9410   36.8460 C   0  0  0  0  0  0  0  0  0  0  0  0
   37.8430   22.3390   35.8870 C   0  0  0  0  0  0  0  0  0  0  0  0
   39.1990   22.2260   36.1880 C   0  0  0  0  0  0  0  0  0  0  0  0
   39.6390   22.7010   37.3850 N   0  0  0  0  0  0  0  0  0  0  0  0
   38.8170   23.2700   38.2770 C   0  0  0  0  0  0  0  0  0  0  0  0
   37.4950   23.3960   38.0190 N   0  0  0  0  0  0  0  0  0  0  0  0
   39.5020   23.6740   39.4200 O   0  0  0  0  0  0  0  0  0  0  0  0
   36.0218   20.5392   35.8165 H   0  0  0  0  0  0  0  0  0  0  0  0
   34.8734   19.7187   33.7520 H   0  0  0  0  0  0  0  0  0  0  0  0
   35.7408   21.0771   30.3934 H   0  0  0  0  0  0  0  0  0  0  0  0
   34.7061   19.9203   31.2731 H   0  0  0  0  0  0  0  0  0  0  0  0
   35.9333   23.0431   36.6346 H   0  0  0  0  0  0  0  0  0  0  0  0
   39.8973   21.7637   35.4748 H   0  0  0  0  0  0  0  0  0  0  0  0
   39.0130   24.1108   40.1617 H   0  0  0  0  0  0  0  0  0  0  0  0
  1  2  1  0
  1 10  1  0
  3  2  2  0
  4  3  1  0
  5  4  1  0
  6  4  2  0
  6  7  1  0
  7  1  1  0
  8  7  2  0
  9 14  2  0
 10 11  2  0
 10  9  1  0
 11 12  1  0
 12 13  2  0
 13 15  1  0
 14 13  1  0
  2 16  1  0
  3 17  1  0
  5 18  1  0
  5 19  1  0
  9 20  1  0
 11 21  1  0
 15 22  1  0
M  ISO  5  16  14  17  14  20  14  21  14  22   3
M  END
>  <minimizedAffinity>  (1) 
-4.10950327

>  <minimizedRMSD>  (1) 
0.46133849

$$$$
