
     RDKit          3D

 36 39  0  0  0  0  0  0  0  0999 V2000
   36.2570   19.4470   30.5760 C   0  0  0  0  0  0  0  0  0  0  0  0
   36.4070   18.9650   29.4290 O   0  0  0  0  0  0  0  0  0  0  0  0
   36.7970   23.3890   31.4700 C   0  0  0  0  0  0  0  0  0  0  0  0
   37.9270   22.7660   31.0410 C   0  0  0  0  0  0  0  0  0  0  0  0
   37.8340   21.4350   30.7160 C   0  0  0  0  0  0  0  0  0  0  0  0
   36.6500   20.8280   30.8400 C   0  0  0  0  0  0  0  0  0  0  0  0
   35.5400   22.1720   31.4520 S   0  0  0  0  0  0  0  0  0  0  0  0
   36.6370   24.8020   31.8730 C   0  0  0  0  0  0  0  0  0  0  0  0
   35.8240   25.6710   31.1160 C   0  0  0  0  0  0  0  0  0  0  0  0
   35.7520   27.0030   31.6040 C   0  0  0  0  0  0  0  0  0  0  0  0
   36.4510   27.3250   32.7280 N   0  0  0  0  0  0  0  0  0  0  0  0
   37.2050   26.4440   33.3960 C   0  0  0  0  0  0  0  0  0  0  0  0
   37.2910   25.1800   32.9570 N   0  0  0  0  0  0  0  0  0  0  0  0
   35.7200   18.7340   31.6620 O   0  0  0  0  0  0  0  0  0  0  0  0
   36.3700   17.4880   31.8910 C   0  0  0  0  0  0  0  0  0  0  0  0
   35.7050   16.2990   32.0210 C   0  0  0  0  0  0  0  0  0  0  0  0
   37.0990   15.1290   32.2900 S   0  0  0  0  0  0  0  0  0  0  0  0
   38.3600   16.5440   32.1670 C   0  0  0  0  0  0  0  0  0  0  0  0
   37.6950   17.5160   31.9790 N   0  0  0  0  0  0  0  0  0  0  0  0
   39.8550   16.4780   32.2800 N   0  0  0  0  0  0  0  0  0  0  0  0
   40.2510   15.6810   33.2690 C   0  0  0  0  0  0  0  0  0  0  0  0
   41.6170   15.5680   33.4360 C   0  0  0  0  0  0  0  0  0  0  0  0
   42.4890   16.2490   32.6150 C   0  0  0  0  0  0  0  0  0  0  0  0
   43.7220   16.1120   32.8110 O   0  0  0  0  0  0  0  0  0  0  0  0
   41.9580   17.0220   31.6550 N   0  0  0  0  0  0  0  0  0  0  0  0
   40.6390   17.1660   31.4510 C   0  0  0  0  0  0  0  0  0  0  0  0
   40.1280   17.8750   30.5700 O   0  0  0  0  0  0  0  0  0  0  0  0
   38.8804   23.3082   30.9574 H   0  0  0  0  0  0  0  0  0  0  0  0
   38.7152   20.8804   30.3612 H   0  0  0  0  0  0  0  0  0  0  0  0
   35.2858   25.3418   30.2149 H   0  0  0  0  0  0  0  0  0  0  0  0
   35.1443   27.7589   31.0850 H   0  0  0  0  0  0  0  0  0  0  0  0
   37.7506   26.7547   34.2992 H   0  0  0  0  0  0  0  0  0  0  0  0
   34.6247   16.0967   31.9765 H   0  0  0  0  0  0  0  0  0  0  0  0
   39.5363   15.1466   33.9121 H   0  0  0  0  0  0  0  0  0  0  0  0
   42.0144   14.9255   34.2355 H   0  0  0  0  0  0  0  0  0  0  0  0
   42.6018   17.5362   31.0370 H   0  0  0  0  0  0  0  0  0  0  0  0
  1  6  1  0
  1 14  1  0
  2  1  2  0
  3  8  1  0
  4  3  2  0
  5  6  2  0
  5  4  1  0
  6  7  1  0
  7  3  1  0
  8 13  2  0
  9 10  2  0
  9  8  1  0
 10 11  1  0
 11 12  2  0
 13 12  1  0
 14 15  1  0
 15 19  1  0
 15 16  2  0
 16 17  1  0
 18 20  1  0
 18 17  1  0
 19 18  2  0
 20 21  1  0
 21 22  2  0
 23 24  2  0
 23 22  1  0
 25 23  1  0
 26 25  1  0
 26 20  1  0
 27 26  2  0
  4 28  1  0
  5 29  1  0
  9 30  1  0
 10 31  1  0
 12 32  1  0
 16 33  1  0
 21 34  1  0
 22 35  1  0
 25 36  1  0
M  ISO  8  28  14  29  14  30  14  31  14  32  14  33  14  34  14  35  14
M  ISO  1  36   9
M  END
>  <minimizedAffinity>  (1) 
-4.16817808

>  <minimizedRMSD>  (1) 
0.621503294

$$$$
