
     RDKit          3D

 40 43  0  0  0  0  0  0  0  0999 V2000
   36.7590   23.5800   31.9660 C   0  0  0  0  0  0  0  0  0  0  0  0
   37.8020   22.7670   32.2860 C   0  0  0  0  0  0  0  0  0  0  0  0
   37.6660   21.4330   32.0060 C   0  0  0  0  0  0  0  0  0  0  0  0
   36.5340   21.0020   31.4430 C   0  0  0  0  0  0  0  0  0  0  0  0
   35.5160   22.5460   31.2550 S   0  0  0  0  0  0  0  0  0  0  0  0
   36.6410   25.0420   32.1560 C   0  0  0  0  0  0  0  0  0  0  0  0
   35.8740   25.8310   31.2750 C   0  0  0  0  0  0  0  0  0  0  0  0
   35.8460   27.2120   31.5680 C   0  0  0  0  0  0  0  0  0  0  0  0
   36.5400   27.6690   32.6460 N   0  0  0  0  0  0  0  0  0  0  0  0
   37.2600   26.8600   33.4540 C   0  0  0  0  0  0  0  0  0  0  0  0
   37.2970   25.5410   33.1890 N   0  0  0  0  0  0  0  0  0  0  0  0
   36.1170   19.6620   31.0410 C   0  0  0  0  0  0  0  0  0  0  0  0
   36.3060   19.2790   29.8620 O   0  0  0  0  0  0  0  0  0  0  0  0
   35.5170   18.8740   32.0280 O   0  0  0  0  0  0  0  0  0  0  0  0
   36.0670   17.5670   32.1300 C   0  0  0  0  0  0  0  0  0  0  0  0
   35.3430   16.4260   32.2850 C   0  0  0  0  0  0  0  0  0  0  0  0
   36.6320   15.1360   32.3430 S   0  0  0  0  0  0  0  0  0  0  0  0
   38.0000   16.4500   32.1350 C   0  0  0  0  0  0  0  0  0  0  0  0
   37.3910   17.4770   32.0650 N   0  0  0  0  0  0  0  0  0  0  0  0
   39.3890   16.1060   32.0920 N   0  0  0  0  0  0  0  0  0  0  0  0
   39.9360   14.7680   32.1970 C   0  0  0  0  0  0  0  0  0  0  0  0
   40.8890   14.6890   33.3650 C   0  0  0  0  0  0  0  0  0  0  0  0
   41.3010   15.9520   33.8710 N   0  0  0  0  0  0  0  0  0  0  0  0
   41.5160   16.9740   32.8910 C   0  0  0  0  0  0  0  0  0  0  0  0
   40.3680   17.1640   31.9310 C   0  0  0  0  0  0  0  0  0  0  0  0
   38.7166   23.1645   32.7503 H   0  0  0  0  0  0  0  0  0  0  0  0
   38.4766   20.7275   32.2412 H   0  0  0  0  0  0  0  0  0  0  0  0
   35.3345   25.4006   30.4184 H   0  0  0  0  0  0  0  0  0  0  0  0
   35.2732   27.9065   30.9359 H   0  0  0  0  0  0  0  0  0  0  0  0
   37.8070   27.2728   34.3144 H   0  0  0  0  0  0  0  0  0  0  0  0
   34.2515   16.3098   32.3574 H   0  0  0  0  0  0  0  0  0  0  0  0
   39.1161   14.0502   32.3469 H   0  0  0  0  0  0  0  0  0  0  0  0
   40.4792   14.5267   31.2714 H   0  0  0  0  0  0  0  0  0  0  0  0
   40.3931   14.1376   34.1774 H   0  0  0  0  0  0  0  0  0  0  0  0
   41.7958   14.1860   32.9979 H   0  0  0  0  0  0  0  0  0  0  0  0
   40.5745   16.2847   34.5209 H   0  0  0  0  0  0  0  0  0  0  0  0
   41.6867   17.9251   33.4167 H   0  0  0  0  0  0  0  0  0  0  0  0
   42.3808   16.6572   32.2896 H   0  0  0  0  0  0  0  0  0  0  0  0
   40.7519   17.1478   30.9003 H   0  0  0  0  0  0  0  0  0  0  0  0
   39.8852   18.1297   32.1414 H   0  0  0  0  0  0  0  0  0  0  0  0
  1  6  1  0
  1  2  2  0
  3  2  1  0
  4  3  2  0
  5  4  1  0
  5  1  1  0
  6 11  2  0
  7  8  2  0
  7  6  1  0
  8  9  1  0
  9 10  2  0
 11 10  1  0
 12  4  1  0
 12 14  1  0
 13 12  2  0
 14 15  1  0
 15 16  2  0
 16 17  1  0
 18 17  1  0
 19 15  1  0
 19 18  2  0
 20 18  1  0
 20 21  1  0
 21 22  1  0
 22 23  1  0
 24 23  1  0
 25 20  1  0
 25 24  1  0
  2 26  1  0
  3 27  1  0
  7 28  1  0
  8 29  1  0
 10 30  1  0
 16 31  1  0
 21 32  1  0
 21 33  1  0
 22 34  1  0
 22 35  1  0
 23 36  1  0
 24 37  1  0
 24 38  1  0
 25 39  1  0
 25 40  1  0
M  ISO  8  26  14  27  14  28  14  29  14  30  14  31  14  32  13  33  13
M  ISO  7  34  13  35  13  36   5  37  13  38  13  39  13  40  13
M  END
>  <minimizedAffinity>  (1) 
-4.08666945

>  <minimizedRMSD>  (1) 
0.214415401

$$$$
