
     RDKit          3D

 29 31  0  0  0  0  0  0  0  0999 V2000
   37.0610   21.1510   33.0690 C   0  0  0  0  0  0  0  0  0  0  0  0
   38.1970   20.8410   32.2770 C   0  0  0  0  0  0  0  0  0  0  0  0
   39.4600   21.1140   32.8030 C   0  0  0  0  0  0  0  0  0  0  0  0
   39.5280   21.6620   34.0500 N   0  0  0  0  0  0  0  0  0  0  0  0
   38.4410   21.9440   34.7760 C   0  0  0  0  0  0  0  0  0  0  0  0
   37.1880   21.6950   34.3030 N   0  0  0  0  0  0  0  0  0  0  0  0
   37.9280   20.2770   31.0080 N   0  0  0  0  0  0  0  0  0  0  0  0
   36.9990   19.3040   30.9660 C   0  0  0  0  0  0  0  0  0  0  0  0
   36.7230   18.7420   29.7410 C   0  0  0  0  0  0  0  0  0  0  0  0
   37.4010   19.2010   28.6540 C   0  0  0  0  0  0  0  0  0  0  0  0
   37.1530   18.6570   27.3780 N   0  0  0  0  0  0  0  0  0  0  0  0
   38.3200   20.1750   28.7480 N   0  0  0  0  0  0  0  0  0  0  0  0
   38.6040   20.7360   29.9370 C   0  0  0  0  0  0  0  0  0  0  0  0
   39.4720   21.6510   30.0010 O   0  0  0  0  0  0  0  0  0  0  0  0
   38.6120   22.5310   36.1020 C   0  0  0  0  0  0  0  0  0  0  0  0
   39.8130   22.3860   36.7810 C   0  0  0  0  0  0  0  0  0  0  0  0
   39.8600   22.9880   38.0410 C   0  0  0  0  0  0  0  0  0  0  0  0
   38.8130   23.6600   38.5520 N   0  0  0  0  0  0  0  0  0  0  0  0
   37.6560   23.7700   37.8370 C   0  0  0  0  0  0  0  0  0  0  0  0
   37.5760   23.2070   36.6330 N   0  0  0  0  0  0  0  0  0  0  0  0
   36.0559   20.9451   32.6723 H   0  0  0  0  0  0  0  0  0  0  0  0
   40.3727   20.8941   32.2297 H   0  0  0  0  0  0  0  0  0  0  0  0
   36.4800   18.9707   31.8768 H   0  0  0  0  0  0  0  0  0  0  0  0
   35.9739   17.9425   29.6427 H   0  0  0  0  0  0  0  0  0  0  0  0
   36.4552   17.9079   27.2642 H   0  0  0  0  0  0  0  0  0  0  0  0
   37.6695   19.0084   26.5591 H   0  0  0  0  0  0  0  0  0  0  0  0
   40.6669   21.8366   36.3579 H   0  0  0  0  0  0  0  0  0  0  0  0
   40.7831   22.9098   38.6342 H   0  0  0  0  0  0  0  0  0  0  0  0
   36.7974   24.3187   38.2514 H   0  0  0  0  0  0  0  0  0  0  0  0
  1  6  2  0
  2  3  2  0
  2  1  1  0
  3  4  1  0
  4  5  2  0
  5 15  1  0
  6  5  1  0
  7  2  1  0
  8  7  1  0
  9  8  2  0
 10 12  2  0
 10  9  1  0
 11 10  1  0
 12 13  1  0
 13 14  2  0
 13  7  1  0
 15 20  1  0
 15 16  2  0
 16 17  1  0
 17 18  2  0
 19 18  1  0
 20 19  2  0
  1 21  1  0
  3 22  1  0
  8 23  1  0
  9 24  1  0
 11 25  1  0
 11 26  1  0
 16 27  1  0
 17 28  1  0
 19 29  1  0
M  ISO  7  21  14  22  14  23  14  24  14  27  14  28  14  29  14
M  END
>  <minimizedAffinity>  (1) 
-4.07360601

>  <minimizedRMSD>  (1) 
4.33960533

$$$$
