
     RDKit          3D

 34 37  0  0  0  0  0  0  0  0999 V2000
   36.7920   23.3820   31.4780 C   0  0  0  0  0  0  0  0  0  0  0  0
   37.9120   22.7590   31.0140 C   0  0  0  0  0  0  0  0  0  0  0  0
   37.8160   21.4320   30.6990 C   0  0  0  0  0  0  0  0  0  0  0  0
   36.6430   20.8160   30.8620 C   0  0  0  0  0  0  0  0  0  0  0  0
   35.5340   22.1550   31.5060 S   0  0  0  0  0  0  0  0  0  0  0  0
   36.6340   24.7950   31.8780 C   0  0  0  0  0  0  0  0  0  0  0  0
   35.8230   25.6660   31.1200 C   0  0  0  0  0  0  0  0  0  0  0  0
   35.7550   26.9940   31.5980 C   0  0  0  0  0  0  0  0  0  0  0  0
   36.4580   27.3250   32.7250 N   0  0  0  0  0  0  0  0  0  0  0  0
   37.2080   26.4450   33.3920 C   0  0  0  0  0  0  0  0  0  0  0  0
   37.2920   25.1690   32.9590 N   0  0  0  0  0  0  0  0  0  0  0  0
   36.2520   19.4310   30.6160 C   0  0  0  0  0  0  0  0  0  0  0  0
   36.3960   18.9290   29.4760 O   0  0  0  0  0  0  0  0  0  0  0  0
   35.7200   18.7310   31.7140 O   0  0  0  0  0  0  0  0  0  0  0  0
   36.3580   17.4940   31.9580 C   0  0  0  0  0  0  0  0  0  0  0  0
   35.6940   16.3260   32.1930 C   0  0  0  0  0  0  0  0  0  0  0  0
   37.0950   15.1440   32.4210 S   0  0  0  0  0  0  0  0  0  0  0  0
   38.3480   16.5390   32.1410 C   0  0  0  0  0  0  0  0  0  0  0  0
   37.6870   17.5020   31.9520 N   0  0  0  0  0  0  0  0  0  0  0  0
   39.7870   16.1220   32.2180 C   0  0  0  0  0  0  0  0  0  0  0  0
   40.3950   15.6610   33.3540 C   0  0  0  0  0  0  0  0  0  0  0  0
   41.7240   15.3350   33.1990 C   0  0  0  0  0  0  0  0  0  0  0  0
   42.3900   15.4560   32.0220 N   0  0  0  0  0  0  0  0  0  0  0  0
   41.7500   15.9130   30.9310 C   0  0  0  0  0  0  0  0  0  0  0  0
   40.4500   16.2350   31.0720 N   0  0  0  0  0  0  0  0  0  0  0  0
   38.8599   23.3047   30.8971 H   0  0  0  0  0  0  0  0  0  0  0  0
   38.6893   20.8821   30.3183 H   0  0  0  0  0  0  0  0  0  0  0  0
   35.2823   25.3349   30.2211 H   0  0  0  0  0  0  0  0  0  0  0  0
   35.1486   27.7477   31.0743 H   0  0  0  0  0  0  0  0  0  0  0  0
   37.7564   26.7588   34.2925 H   0  0  0  0  0  0  0  0  0  0  0  0
   34.6111   16.1378   32.2355 H   0  0  0  0  0  0  0  0  0  0  0  0
   39.8654   15.5591   34.3127 H   0  0  0  0  0  0  0  0  0  0  0  0
   42.2741   14.9573   34.0735 H   0  0  0  0  0  0  0  0  0  0  0  0
   42.2660   16.0192   29.9654 H   0  0  0  0  0  0  0  0  0  0  0  0
  1  5  1  0
  1  6  1  0
  2  1  2  0
  3  4  2  0
  3  2  1  0
  4  5  1  0
  6 11  2  0
  7  8  2  0
  7  6  1  0
  8  9  1  0
  9 10  2  0
 11 10  1  0
 12  4  1  0
 12 14  1  0
 13 12  2  0
 14 15  1  0
 15 16  2  0
 16 17  1  0
 18 20  1  0
 18 17  1  0
 19 15  1  0
 19 18  2  0
 20 21  2  0
 22 21  1  0
 23 22  2  0
 24 25  2  0
 24 23  1  0
 25 20  1  0
  2 26  1  0
  3 27  1  0
  7 28  1  0
  8 29  1  0
 10 30  1  0
 16 31  1  0
 21 32  1  0
 22 33  1  0
 24 34  1  0
M  ISO  8  26  14  27  14  28  14  29  14  30  14  31  14  32  14  33  14
M  ISO  1  34  14
M  END
>  <minimizedAffinity>  (1) 
-3.96708775

>  <minimizedRMSD>  (1) 
0.640106201

$$$$
