
     RDKit          3D

 29 31  0  0  0  0  0  0  0  0999 V2000
   36.7770   23.6770   31.5920 C   0  0  0  0  0  0  0  0  0  0  0  0
   37.8860   23.0690   31.0780 C   0  0  0  0  0  0  0  0  0  0  0  0
   37.7900   21.7450   30.7560 C   0  0  0  0  0  0  0  0  0  0  0  0
   36.6320   21.1130   30.9580 C   0  0  0  0  0  0  0  0  0  0  0  0
   35.5360   22.4340   31.6580 S   0  0  0  0  0  0  0  0  0  0  0  0
   36.6240   25.0850   32.0080 C   0  0  0  0  0  0  0  0  0  0  0  0
   35.8500   25.9740   31.2340 C   0  0  0  0  0  0  0  0  0  0  0  0
   35.7760   27.3000   31.7230 C   0  0  0  0  0  0  0  0  0  0  0  0
   36.4440   27.6030   32.8750 N   0  0  0  0  0  0  0  0  0  0  0  0
   37.1660   26.7020   33.5660 C   0  0  0  0  0  0  0  0  0  0  0  0
   37.2480   25.4370   33.1170 N   0  0  0  0  0  0  0  0  0  0  0  0
   36.2510   19.7250   30.7160 C   0  0  0  0  0  0  0  0  0  0  0  0
   36.3810   19.2310   29.5720 O   0  0  0  0  0  0  0  0  0  0  0  0
   35.7480   19.0160   31.8220 O   0  0  0  0  0  0  0  0  0  0  0  0
   36.3320   17.7350   31.9850 C   0  0  0  0  0  0  0  0  0  0  0  0
   35.6110   16.5900   32.1980 C   0  0  0  0  0  0  0  0  0  0  0  0
   36.9620   15.3350   32.3170 S   0  0  0  0  0  0  0  0  0  0  0  0
   38.2780   16.6740   32.0430 C   0  0  0  0  0  0  0  0  0  0  0  0
   37.6560   17.6750   31.9230 N   0  0  0  0  0  0  0  0  0  0  0  0
   39.6620   16.1660   32.0450 C   0  0  0  0  0  0  0  0  0  0  0  0
   40.3540   16.0360   31.0040 O   0  0  0  0  0  0  0  0  0  0  0  0
   40.0990   15.8550   33.3230 O   0  0  0  0  0  0  0  0  0  0  0  0
   38.8231   23.6253   30.9285 H   0  0  0  0  0  0  0  0  0  0  0  0
   38.6537   21.2081   30.3367 H   0  0  0  0  0  0  0  0  0  0  0  0
   35.3385   25.6583   30.3128 H   0  0  0  0  0  0  0  0  0  0  0  0
   35.1955   28.0667   31.1890 H   0  0  0  0  0  0  0  0  0  0  0  0
   37.6846   26.9975   34.4900 H   0  0  0  0  0  0  0  0  0  0  0  0
   34.5223   16.4543   32.2769 H   0  0  0  0  0  0  0  0  0  0  0  0
   41.0139   15.5030   33.4613 H   0  0  0  0  0  0  0  0  0  0  0  0
  1  5  1  0
  1  6  1  0
  2  1  2  0
  3  4  2  0
  3  2  1  0
  4  5  1  0
  6 11  2  0
  7  8  2  0
  7  6  1  0
  8  9  1  0
  9 10  2  0
 11 10  1  0
 12  4  1  0
 12 14  1  0
 13 12  2  0
 14 15  1  0
 15 16  2  0
 16 17  1  0
 18 20  1  0
 18 17  1  0
 19 15  1  0
 19 18  2  0
 20 22  1  0
 21 20  2  0
  2 23  1  0
  3 24  1  0
  7 25  1  0
  8 26  1  0
 10 27  1  0
 16 28  1  0
 22 29  1  0
M  ISO  7  23  14  24  14  25  14  26  14  27  14  28  14  29   3
M  END
>  <minimizedAffinity>  (1) 
-3.8797214

>  <minimizedRMSD>  (1) 
0.47833091

$$$$
