
     RDKit          3D

 32 34  0  0  0  0  0  0  0  0999 V2000
   36.7960   23.3860   31.4680 C   0  0  0  0  0  0  0  0  0  0  0  0
   37.9130   22.7650   31.0040 C   0  0  0  0  0  0  0  0  0  0  0  0
   37.8120   21.4360   30.6970 C   0  0  0  0  0  0  0  0  0  0  0  0
   36.6390   20.8190   30.8660 C   0  0  0  0  0  0  0  0  0  0  0  0
   35.5320   22.1590   31.5080 S   0  0  0  0  0  0  0  0  0  0  0  0
   36.6310   24.8020   31.8670 C   0  0  0  0  0  0  0  0  0  0  0  0
   35.8190   25.6740   31.1140 C   0  0  0  0  0  0  0  0  0  0  0  0
   35.7490   27.0000   31.5970 C   0  0  0  0  0  0  0  0  0  0  0  0
   36.4520   27.3290   32.7270 N   0  0  0  0  0  0  0  0  0  0  0  0
   37.2050   26.4460   33.3920 C   0  0  0  0  0  0  0  0  0  0  0  0
   37.2890   25.1740   32.9500 N   0  0  0  0  0  0  0  0  0  0  0  0
   36.2480   19.4330   30.6250 C   0  0  0  0  0  0  0  0  0  0  0  0
   36.3940   18.9300   29.4860 O   0  0  0  0  0  0  0  0  0  0  0  0
   35.7200   18.7370   31.7260 O   0  0  0  0  0  0  0  0  0  0  0  0
   36.3630   17.4910   31.9650 C   0  0  0  0  0  0  0  0  0  0  0  0
   35.6910   16.3200   32.1940 C   0  0  0  0  0  0  0  0  0  0  0  0
   37.0930   15.1390   32.4180 S   0  0  0  0  0  0  0  0  0  0  0  0
   38.3540   16.5280   32.1450 C   0  0  0  0  0  0  0  0  0  0  0  0
   37.6910   17.4940   31.9600 N   0  0  0  0  0  0  0  0  0  0  0  0
   39.8070   16.1500   32.2130 C   0  0  0  0  0  0  0  0  0  0  0  0
   39.9940   15.1910   33.3520 C   0  0  0  0  0  0  0  0  0  0  0  0
   38.8605   23.3099   30.8804 H   0  0  0  0  0  0  0  0  0  0  0  0
   38.6836   20.8833   30.3166 H   0  0  0  0  0  0  0  0  0  0  0  0
   35.2782   25.3455   30.2142 H   0  0  0  0  0  0  0  0  0  0  0  0
   35.1415   27.7545   31.0758 H   0  0  0  0  0  0  0  0  0  0  0  0
   37.7528   26.7552   34.2944 H   0  0  0  0  0  0  0  0  0  0  0  0
   34.6077   16.1331   32.2338 H   0  0  0  0  0  0  0  0  0  0  0  0
   40.1108   15.6712   31.2705 H   0  0  0  0  0  0  0  0  0  0  0  0
   40.4241   17.0471   32.3690 H   0  0  0  0  0  0  0  0  0  0  0  0
   39.8890   15.7293   34.3055 H   0  0  0  0  0  0  0  0  0  0  0  0
   39.2335   14.3985   33.2927 H   0  0  0  0  0  0  0  0  0  0  0  0
   40.9966   14.7423   33.2927 H   0  0  0  0  0  0  0  0  0  0  0  0
  1  5  1  0
  1  6  1  0
  2  1  2  0
  3  4  2  0
  3  2  1  0
  4  5  1  0
  6 11  2  0
  7  8  2  0
  7  6  1  0
  8  9  1  0
  9 10  2  0
 11 10  1  0
 12  4  1  0
 12 14  1  0
 13 12  2  0
 14 15  1  0
 15 16  2  0
 16 17  1  0
 18 20  1  0
 18 17  1  0
 19 15  1  0
 19 18  2  0
 20 21  1  0
  2 22  1  0
  3 23  1  0
  7 24  1  0
  8 25  1  0
 10 26  1  0
 16 27  1  0
 20 28  1  0
 20 29  1  0
 21 30  1  0
 21 31  1  0
 21 32  1  0
M  ISO  8  22  14  23  14  24  14  25  14  26  14  27  14  28   8  29   8
M  ISO  3  30   8  31   8  32   8
M  END
>  <minimizedAffinity>  (1) 
-3.90816879

>  <minimizedRMSD>  (1) 
0.721506119

$$$$
