
     RDKit          3D

 27 29  0  0  0  0  0  0  0  0999 V2000
   36.7340   23.6040   31.9710 C   0  0  0  0  0  0  0  0  0  0  0  0
   37.7680   22.7790   32.2980 C   0  0  0  0  0  0  0  0  0  0  0  0
   37.6410   21.4510   32.0040 C   0  0  0  0  0  0  0  0  0  0  0  0
   36.5200   21.0240   31.4170 C   0  0  0  0  0  0  0  0  0  0  0  0
   35.5020   22.5740   31.2260 S   0  0  0  0  0  0  0  0  0  0  0  0
   36.6410   25.0630   32.1790 C   0  0  0  0  0  0  0  0  0  0  0  0
   35.8700   25.8520   31.2800 C   0  0  0  0  0  0  0  0  0  0  0  0
   35.8530   27.2380   31.5660 C   0  0  0  0  0  0  0  0  0  0  0  0
   36.5600   27.6930   32.6520 N   0  0  0  0  0  0  0  0  0  0  0  0
   37.2600   26.8810   33.4460 C   0  0  0  0  0  0  0  0  0  0  0  0
   37.2870   25.5580   33.1890 N   0  0  0  0  0  0  0  0  0  0  0  0
   36.1110   19.6880   30.9980 C   0  0  0  0  0  0  0  0  0  0  0  0
   36.2990   19.3170   29.8170 O   0  0  0  0  0  0  0  0  0  0  0  0
   35.5130   18.8870   31.9890 O   0  0  0  0  0  0  0  0  0  0  0  0
   36.1070   17.6000   32.1040 C   0  0  0  0  0  0  0  0  0  0  0  0
   35.4070   16.4460   32.2710 C   0  0  0  0  0  0  0  0  0  0  0  0
   36.7330   15.1930   32.3440 S   0  0  0  0  0  0  0  0  0  0  0  0
   38.0580   16.5400   32.1240 C   0  0  0  0  0  0  0  0  0  0  0  0
   37.4310   17.5470   32.0410 N   0  0  0  0  0  0  0  0  0  0  0  0
   39.4990   16.3450   32.0710 O   0  0  0  0  0  0  0  0  0  0  0  0
   38.6750   23.1694   32.7827 H   0  0  0  0  0  0  0  0  0  0  0  0
   38.4488   20.7449   32.2468 H   0  0  0  0  0  0  0  0  0  0  0  0
   35.3281   25.4174   30.4271 H   0  0  0  0  0  0  0  0  0  0  0  0
   35.2859   27.9356   30.9323 H   0  0  0  0  0  0  0  0  0  0  0  0
   37.8121   27.2888   34.3056 H   0  0  0  0  0  0  0  0  0  0  0  0
   34.3187   16.3037   32.3436 H   0  0  0  0  0  0  0  0  0  0  0  0
   40.0998   17.1229   31.9525 H   0  0  0  0  0  0  0  0  0  0  0  0
  1  6  1  0
  1  2  2  0
  3  2  1  0
  4  3  2  0
  5  4  1  0
  5  1  1  0
  6 11  2  0
  7  8  2  0
  7  6  1  0
  8  9  1  0
  9 10  2  0
 11 10  1  0
 12  4  1  0
 12 14  1  0
 13 12  2  0
 14 15  1  0
 15 16  2  0
 16 17  1  0
 18 17  1  0
 19 15  1  0
 19 18  2  0
 20 18  1  0
  2 21  1  0
  3 22  1  0
  7 23  1  0
  8 24  1  0
 10 25  1  0
 16 26  1  0
 20 27  1  0
M  ISO  7  21  14  22  14  23  14  24  14  25  14  26  14  27   3
M  END
>  <minimizedAffinity>  (1) 
-3.81609941

>  <minimizedRMSD>  (1) 
0.0949268118

$$$$
