
     RDKit          3D

 35 38  0  0  0  0  0  0  0  0999 V2000
   38.6200   22.2460   34.2720 C   0  0  0  0  0  0  0  0  0  0  0  0
   38.4090   21.8770   32.9340 C   0  0  0  0  0  0  0  0  0  0  0  0
   39.4430   22.1320   32.0520 C   0  0  0  0  0  0  0  0  0  0  0  0
   40.5780   22.7060   32.5000 N   0  0  0  0  0  0  0  0  0  0  0  0
   40.7680   23.0510   33.7590 C   0  0  0  0  0  0  0  0  0  0  0  0
   39.7920   22.8240   34.6520 N   0  0  0  0  0  0  0  0  0  0  0  0
   37.1720   21.2990   32.6250 N   0  0  0  0  0  0  0  0  0  0  0  0
   37.0810   19.9640   32.7650 C   0  0  0  0  0  0  0  0  0  0  0  0
   35.8780   19.3720   32.4760 C   0  0  0  0  0  0  0  0  0  0  0  0
   34.8420   20.1690   32.0630 C   0  0  0  0  0  0  0  0  0  0  0  0
   33.5820   19.6150   31.7520 N   0  0  0  0  0  0  0  0  0  0  0  0
   34.9800   21.5010   31.9360 N   0  0  0  0  0  0  0  0  0  0  0  0
   36.1620   22.0950   32.2180 C   0  0  0  0  0  0  0  0  0  0  0  0
   36.2600   23.3490   32.0900 O   0  0  0  0  0  0  0  0  0  0  0  0
   41.9170   23.6840   34.4460 C   0  0  0  0  0  0  0  0  0  0  0  0
   42.0330   24.9990   34.6920 N   0  0  0  0  0  0  0  0  0  0  0  0
   43.0870   25.5250   35.3150 C   0  0  0  0  0  0  0  0  0  0  0  0
   44.1320   24.8100   35.7590 N   0  0  0  0  0  0  0  0  0  0  0  0
   44.0860   23.4860   35.5480 C   0  0  0  0  0  0  0  0  0  0  0  0
   45.1570   22.7690   36.0050 C   0  0  0  0  0  0  0  0  0  0  0  0
   45.1910   21.4060   35.8300 C   0  0  0  0  0  0  0  0  0  0  0  0
   44.1130   20.8100   35.1850 C   0  0  0  0  0  0  0  0  0  0  0  0
   43.0690   21.5960   34.7520 C   0  0  0  0  0  0  0  0  0  0  0  0
   42.9910   22.9570   34.9030 C   0  0  0  0  0  0  0  0  0  0  0  0
   37.8323   22.0666   35.0186 H   0  0  0  0  0  0  0  0  0  0  0  0
   39.3401   21.8677   30.9892 H   0  0  0  0  0  0  0  0  0  0  0  0
   37.9423   19.3674   33.0999 H   0  0  0  0  0  0  0  0  0  0  0  0
   35.7477   18.2841   32.5733 H   0  0  0  0  0  0  0  0  0  0  0  0
   32.8128   20.2263   31.4429 H   0  0  0  0  0  0  0  0  0  0  0  0
   33.4315   18.5994   31.8341 H   0  0  0  0  0  0  0  0  0  0  0  0
   43.1012   26.6132   35.4753 H   0  0  0  0  0  0  0  0  0  0  0  0
   45.9886   23.2813   36.5110 H   0  0  0  0  0  0  0  0  0  0  0  0
   46.0417   20.8074   36.1879 H   0  0  0  0  0  0  0  0  0  0  0  0
   44.0946   19.7222   35.0225 H   0  0  0  0  0  0  0  0  0  0  0  0
   42.2320   21.0933   34.2454 H   0  0  0  0  0  0  0  0  0  0  0  0
  1  6  2  0
  2  1  1  0
  3  4  1  0
  3  2  2  0
  4  5  2  0
  5 15  1  0
  5  6  1  0
  7  8  1  0
  7  2  1  0
  9  8  2  0
 10  9  1  0
 11 10  1  0
 12 10  2  0
 12 13  1  0
 13  7  1  0
 14 13  2  0
 15 16  2  0
 15 24  1  0
 16 17  1  0
 17 18  2  0
 19 18  1  0
 19 20  2  0
 21 20  1  0
 22 21  2  0
 23 24  2  0
 23 22  1  0
 24 19  1  0
  1 25  1  0
  3 26  1  0
  8 27  1  0
  9 28  1  0
 11 29  1  0
 11 30  1  0
 17 31  1  0
 20 32  1  0
 21 33  1  0
 22 34  1  0
 23 35  1  0
M  ISO  8  25  14  26  14  27  14  28  14  31  14  32  14  33  14  34  14
M  ISO  1  35  14
M  END
>  <minimizedAffinity>  (1) 
-3.99140096

>  <minimizedRMSD>  (1) 
4.68080187

$$$$
