
     RDKit          3D

 36 39  0  0  0  0  0  0  0  0999 V2000
   36.2510   19.4460   30.6110 C   0  0  0  0  0  0  0  0  0  0  0  0
   36.4170   18.9440   29.4660 O   0  0  0  0  0  0  0  0  0  0  0  0
   36.7960   23.3970   31.4330 C   0  0  0  0  0  0  0  0  0  0  0  0
   37.9100   22.7900   30.9600 C   0  0  0  0  0  0  0  0  0  0  0  0
   37.8140   21.4520   30.6560 C   0  0  0  0  0  0  0  0  0  0  0  0
   36.6490   20.8410   30.8420 C   0  0  0  0  0  0  0  0  0  0  0  0
   35.5210   22.1690   31.4970 S   0  0  0  0  0  0  0  0  0  0  0  0
   36.6280   24.8190   31.8350 C   0  0  0  0  0  0  0  0  0  0  0  0
   35.8310   25.6890   31.0840 C   0  0  0  0  0  0  0  0  0  0  0  0
   35.7610   27.0120   31.5810 C   0  0  0  0  0  0  0  0  0  0  0  0
   36.4500   27.3370   32.7150 N   0  0  0  0  0  0  0  0  0  0  0  0
   37.1980   26.4480   33.3880 C   0  0  0  0  0  0  0  0  0  0  0  0
   37.2690   25.1930   32.9230 N   0  0  0  0  0  0  0  0  0  0  0  0
   35.7040   18.7550   31.6920 O   0  0  0  0  0  0  0  0  0  0  0  0
   36.3090   17.5050   31.9360 C   0  0  0  0  0  0  0  0  0  0  0  0
   35.6190   16.3460   32.1430 C   0  0  0  0  0  0  0  0  0  0  0  0
   36.9840   15.1410   32.3890 S   0  0  0  0  0  0  0  0  0  0  0  0
   38.2850   16.5110   32.1510 C   0  0  0  0  0  0  0  0  0  0  0  0
   37.6250   17.4860   31.9590 N   0  0  0  0  0  0  0  0  0  0  0  0
   39.6850   16.0970   32.2490 C   0  0  0  0  0  0  0  0  0  0  0  0
   40.4430   15.7630   33.3480 C   0  0  0  0  0  0  0  0  0  0  0  0
   41.7030   15.4500   32.8490 C   0  0  0  0  0  0  0  0  0  0  0  0
   41.5830   15.6280   31.4560 C   0  0  0  0  0  0  0  0  0  0  0  0
   40.3730   16.0110   31.1450 O   0  0  0  0  0  0  0  0  0  0  0  0
   42.6720   15.4120   30.4910 C   0  0  0  0  0  0  0  0  0  0  0  0
   43.4640   16.3260   30.1410 O   0  0  0  0  0  0  0  0  0  0  0  0
   42.8610   14.1580   29.9240 O   0  0  0  0  0  0  0  0  0  0  0  0
   38.8512   23.3430   30.8247 H   0  0  0  0  0  0  0  0  0  0  0  0
   38.6826   20.9000   30.2675 H   0  0  0  0  0  0  0  0  0  0  0  0
   35.2990   25.3691   30.1759 H   0  0  0  0  0  0  0  0  0  0  0  0
   35.1584   27.7705   31.0599 H   0  0  0  0  0  0  0  0  0  0  0  0
   37.7395   26.7426   34.2990 H   0  0  0  0  0  0  0  0  0  0  0  0
   34.5321   16.1776   32.1585 H   0  0  0  0  0  0  0  0  0  0  0  0
   40.1204   15.7470   34.3995 H   0  0  0  0  0  0  0  0  0  0  0  0
   42.5925   15.1347   33.4141 H   0  0  0  0  0  0  0  0  0  0  0  0
   43.5942   14.0138   29.2746 H   0  0  0  0  0  0  0  0  0  0  0  0
  1  6  1  0
  1 14  1  0
  2  1  2  0
  3  7  1  0
  3  8  1  0
  4  3  2  0
  5  6  2  0
  5  4  1  0
  6  7  1  0
  8 13  2  0
  9 10  2  0
  9  8  1  0
 10 11  1  0
 11 12  2  0
 13 12  1  0
 14 15  1  0
 15 19  1  0
 15 16  2  0
 16 17  1  0
 18 20  1  0
 18 17  1  0
 19 18  2  0
 20 21  2  0
 22 21  1  0
 23 22  2  0
 24 23  1  0
 24 20  1  0
 25 23  1  0
 26 25  2  0
 27 25  1  0
  4 28  1  0
  5 29  1  0
  9 30  1  0
 10 31  1  0
 12 32  1  0
 16 33  1  0
 21 34  1  0
 22 35  1  0
 27 36  1  0
M  ISO  8  28  14  29  14  30  14  31  14  32  14  33  14  34  14  35  14
M  ISO  1  36   3
M  END
>  <minimizedAffinity>  (1) 
-3.82288122

>  <minimizedRMSD>  (1) 
0.223901808

$$$$
