
     RDKit          3D

 35 37  0  0  1  0  0  0  0  0999 V2000
   40.3450   22.1300   37.0140 C   0  0  0  0  0  0  0  0  0  0  0  0
   39.6070   23.3030   36.7880 C   0  0  0  0  0  0  0  0  0  0  0  0
   39.9190   24.0720   35.6640 C   0  0  0  0  0  0  0  0  0  0  0  0
   40.9270   23.6160   34.8690 N   0  0  0  0  0  0  0  0  0  0  0  0
   41.6220   22.4900   35.1020 C   0  0  0  0  0  0  0  0  0  0  0  0
   41.3250   21.7530   36.1770 N   0  0  0  0  0  0  0  0  0  0  0  0
   39.2620   25.2640   35.3240 N   0  0  0  0  0  0  0  0  0  0  0  0
   39.7310   26.6140   35.2000 C   0  0  2  0  0  0  0  0  0  0  0  0
   38.5600   27.3380   35.8610 C   0  0  0  0  0  0  0  0  0  0  0  0
   37.4110   26.7490   35.0610 C   0  0  0  0  0  0  0  0  0  0  0  0
   37.8270   25.2920   35.0170 C   0  0  0  0  0  0  0  0  0  0  0  0
   40.0010   27.0870   33.8260 C   0  0  0  0  0  0  0  0  0  0  0  0
   38.7030   27.1710   33.0550 C   0  0  0  0  0  0  0  0  0  0  0  0
   39.0840   26.9930   31.5990 C   0  0  0  0  0  0  0  0  0  0  0  0
   40.1480   25.9200   31.7000 C   0  0  0  0  0  0  0  0  0  0  0  0
   40.8500   26.1310   33.0460 C   0  0  0  0  0  0  0  0  0  0  0  0
   40.1162   21.5088   37.8925 H   0  0  0  0  0  0  0  0  0  0  0  0
   38.8054   23.6080   37.4768 H   0  0  0  0  0  0  0  0  0  0  0  0
   42.4247   22.1787   34.4173 H   0  0  0  0  0  0  0  0  0  0  0  0
   40.7233   26.7741   35.6470 H   0  0  0  0  0  0  0  0  0  0  0  0
   38.4803   27.0961   36.9311 H   0  0  0  0  0  0  0  0  0  0  0  0
   38.6230   28.4361   35.8475 H   0  0  0  0  0  0  0  0  0  0  0  0
   36.4477   26.8814   35.5752 H   0  0  0  0  0  0  0  0  0  0  0  0
   37.2526   27.2115   34.0756 H   0  0  0  0  0  0  0  0  0  0  0  0
   37.2660   24.7129   35.7653 H   0  0  0  0  0  0  0  0  0  0  0  0
   37.6199   24.8466   34.0328 H   0  0  0  0  0  0  0  0  0  0  0  0
   40.5101   28.0561   33.9345 H   0  0  0  0  0  0  0  0  0  0  0  0
   38.0151   26.3735   33.3725 H   0  0  0  0  0  0  0  0  0  0  0  0
   38.1872   28.1271   33.2277 H   0  0  0  0  0  0  0  0  0  0  0  0
   39.4887   27.9225   31.1721 H   0  0  0  0  0  0  0  0  0  0  0  0
   38.2417   26.7318   30.9415 H   0  0  0  0  0  0  0  0  0  0  0  0
   39.6864   24.9222   31.6641 H   0  0  0  0  0  0  0  0  0  0  0  0
   40.8604   25.9854   30.8644 H   0  0  0  0  0  0  0  0  0  0  0  0
   40.9364   25.1749   33.5830 H   0  0  0  0  0  0  0  0  0  0  0  0
   41.8666   26.5269   32.9055 H   0  0  0  0  0  0  0  0  0  0  0  0
  2  1  2  0
  3  2  1  0
  4  5  1  0
  4  3  2  0
  5  6  2  0
  6  1  1  0
  7  3  1  0
  8  7  1  0
  8  9  1  0
 10  9  1  0
 11 10  1  0
 11  7  1  0
 12  8  1  0
 13 12  1  0
 14 15  1  0
 14 13  1  0
 15 16  1  0
 16 12  1  0
  1 17  1  0
  2 18  1  0
  5 19  1  0
  8 20  1  1
  9 21  1  0
  9 22  1  0
 10 23  1  0
 10 24  1  0
 11 25  1  0
 11 26  1  0
 12 27  1  0
 13 28  1  0
 13 29  1  0
 14 30  1  0
 14 31  1  0
 15 32  1  0
 15 33  1  0
 16 34  1  0
 16 35  1  0
M  ISO  8  17  14  18  14  19  14  20  13  21  13  22  13  23  13  24  13
M  ISO  8  25  13  26  13  27  13  28  13  29  13  30  13  31  13  32  13
M  ISO  3  33  13  34  13  35  13
M  END
>  <minimizedAffinity>  (1) 
-4.31652308

>  <minimizedRMSD>  (1) 
0.162757799

$$$$
