
     RDKit          3D

 23 24  0  0  0  0  0  0  0  0999 V2000
   37.2710   21.9770   34.5310 N   0  0  0  0  0  0  0  0  0  0  0  0
   36.3550   20.9700   34.6420 C   0  0  0  0  0  0  0  0  0  0  0  0
   35.7160   20.5670   33.4950 C   0  0  0  0  0  0  0  0  0  0  0  0
   36.0310   21.1910   32.3260 C   0  0  0  0  0  0  0  0  0  0  0  0
   35.4020   20.8120   31.1260 N   0  0  0  0  0  0  0  0  0  0  0  0
   36.9430   22.1820   32.2680 N   0  0  0  0  0  0  0  0  0  0  0  0
   37.5820   22.5900   33.3950 C   0  0  0  0  0  0  0  0  0  0  0  0
   38.4280   23.5140   33.3150 O   0  0  0  0  0  0  0  0  0  0  0  0
   37.0720   22.9610   36.7070 C   0  0  0  0  0  0  0  0  0  0  0  0
   37.9010   22.3590   35.7230 C   0  0  0  0  0  0  0  0  0  0  0  0
   39.2440   22.2060   36.0350 C   0  0  0  0  0  0  0  0  0  0  0  0
   39.6990   22.6310   37.2420 N   0  0  0  0  0  0  0  0  0  0  0  0
   38.8830   23.2010   38.1550 C   0  0  0  0  0  0  0  0  0  0  0  0
   37.5680   23.3720   37.8980 N   0  0  0  0  0  0  0  0  0  0  0  0
   39.3700   23.6440   39.4190 N   0  0  0  0  0  0  0  0  0  0  0  0
   36.1375   20.5000   35.6124 H   0  0  0  0  0  0  0  0  0  0  0  0
   34.9685   19.7604   33.5198 H   0  0  0  0  0  0  0  0  0  0  0  0
   35.6443   21.2875   30.2450 H   0  0  0  0  0  0  0  0  0  0  0  0
   34.6992   20.0590   31.1284 H   0  0  0  0  0  0  0  0  0  0  0  0
   36.0009   23.0966   36.4963 H   0  0  0  0  0  0  0  0  0  0  0  0
   39.9333   21.7452   35.3122 H   0  0  0  0  0  0  0  0  0  0  0  0
   38.7255   24.0754   40.0968 H   0  0  0  0  0  0  0  0  0  0  0  0
   40.3665   23.5327   39.6547 H   0  0  0  0  0  0  0  0  0  0  0  0
  1  2  1  0
  1 10  1  0
  3  2  2  0
  4  3  1  0
  5  4  1  0
  6  4  2  0
  6  7  1  0
  7  1  1  0
  8  7  2  0
  9 14  2  0
 10 11  2  0
 10  9  1  0
 11 12  1  0
 12 13  2  0
 13 15  1  0
 14 13  1  0
  2 16  1  0
  3 17  1  0
  5 18  1  0
  5 19  1  0
  9 20  1  0
 11 21  1  0
 15 22  1  0
 15 23  1  0
M  ISO  4  16  14  17  14  20  14  21  14
M  END
>  <minimizedAffinity>  (1) 
-3.96282911

>  <minimizedRMSD>  (1) 
0.545829773

$$$$
