
     RDKit          3D

 40 44  0  0  0  0  0  0  0  0999 V2000
   35.6890   18.7240   31.7480 O   0  0  0  0  0  0  0  0  0  0  0  0
   36.2880   17.4620   31.9820 C   0  0  0  0  0  0  0  0  0  0  0  0
   35.5900   16.3120   32.1900 C   0  0  0  0  0  0  0  0  0  0  0  0
   36.9440   15.0840   32.4210 S   0  0  0  0  0  0  0  0  0  0  0  0
   38.2550   16.4390   32.1760 C   0  0  0  0  0  0  0  0  0  0  0  0
   37.6090   17.4180   31.9940 N   0  0  0  0  0  0  0  0  0  0  0  0
   39.6570   16.0040   32.2610 C   0  0  0  0  0  0  0  0  0  0  0  0
   40.4240   15.6730   33.3560 C   0  0  0  0  0  0  0  0  0  0  0  0
   41.6800   15.3380   32.8240 C   0  0  0  0  0  0  0  0  0  0  0  0
   41.5320   15.5050   31.4420 C   0  0  0  0  0  0  0  0  0  0  0  0
   40.3250   15.8990   31.1480 O   0  0  0  0  0  0  0  0  0  0  0  0
   42.6130   15.2600   30.4930 C   0  0  0  0  0  0  0  0  0  0  0  0
   43.9210   15.6830   30.6090 C   0  0  0  0  0  0  0  0  0  0  0  0
   44.6560   15.2840   29.5540 N   0  0  0  0  0  0  0  0  0  0  0  0
   43.7700   14.5980   28.7740 C   0  0  0  0  0  0  0  0  0  0  0  0
   42.5260   14.5770   29.3370 N   0  0  0  0  0  0  0  0  0  0  0  0
   36.2300   19.4080   30.6480 C   0  0  0  0  0  0  0  0  0  0  0  0
   36.3860   18.8970   29.5260 O   0  0  0  0  0  0  0  0  0  0  0  0
   36.7750   23.3540   31.4870 C   0  0  0  0  0  0  0  0  0  0  0  0
   37.8970   22.7400   30.9910 C   0  0  0  0  0  0  0  0  0  0  0  0
   37.7840   21.4180   30.6870 C   0  0  0  0  0  0  0  0  0  0  0  0
   36.6220   20.8060   30.8830 C   0  0  0  0  0  0  0  0  0  0  0  0
   35.5210   22.1330   31.5560 S   0  0  0  0  0  0  0  0  0  0  0  0
   36.6330   24.7790   31.8910 C   0  0  0  0  0  0  0  0  0  0  0  0
   35.8320   25.6520   31.1360 C   0  0  0  0  0  0  0  0  0  0  0  0
   35.7610   26.9820   31.5950 C   0  0  0  0  0  0  0  0  0  0  0  0
   36.4630   27.3070   32.7170 N   0  0  0  0  0  0  0  0  0  0  0  0
   37.2100   26.4300   33.3930 C   0  0  0  0  0  0  0  0  0  0  0  0
   37.2780   25.1630   32.9540 N   0  0  0  0  0  0  0  0  0  0  0  0
   34.5013   16.1564   32.2139 H   0  0  0  0  0  0  0  0  0  0  0  0
   40.1202   15.6714   34.4132 H   0  0  0  0  0  0  0  0  0  0  0  0
   42.5787   15.0164   33.3708 H   0  0  0  0  0  0  0  0  0  0  0  0
   44.3123   16.2697   31.4532 H   0  0  0  0  0  0  0  0  0  0  0  0
   44.0254   14.1232   27.8152 H   0  0  0  0  0  0  0  0  0  0  0  0
   41.6842   14.1257   28.9514 H   0  0  0  0  0  0  0  0  0  0  0  0
   38.8398   23.2880   30.8463 H   0  0  0  0  0  0  0  0  0  0  0  0
   38.6444   20.8637   30.2841 H   0  0  0  0  0  0  0  0  0  0  0  0
   35.2916   25.3165   30.2385 H   0  0  0  0  0  0  0  0  0  0  0  0
   35.1583   27.7341   31.0648 H   0  0  0  0  0  0  0  0  0  0  0  0
   37.7599   26.7404   34.2937 H   0  0  0  0  0  0  0  0  0  0  0  0
  1  2  1  0
  2  6  1  0
  2  3  2  0
  3  4  1  0
  5  7  1  0
  5  4  1  0
  6  5  2  0
  7  8  2  0
  9  8  1  0
 10  9  2  0
 11 10  1  0
 11  7  1  0
 12 13  2  0
 12 10  1  0
 14 13  1  0
 15 16  1  0
 15 14  2  0
 16 12  1  0
 17 22  1  0
 17  1  1  0
 18 17  2  0
 19 23  1  0
 19 24  1  0
 20 19  2  0
 21 22  2  0
 21 20  1  0
 22 23  1  0
 24 29  2  0
 25 26  2  0
 25 24  1  0
 26 27  1  0
 27 28  2  0
 29 28  1  0
  3 30  1  0
  8 31  1  0
  9 32  1  0
 13 33  1  0
 15 34  1  0
 16 35  1  0
 20 36  1  0
 21 37  1  0
 25 38  1  0
 26 39  1  0
 28 40  1  0
M  ISO  8  30  14  31  14  32  14  33  14  34  14  35   9  36  14  37  14
M  ISO  3  38  14  39  14  40  14
M  END
>  <minimizedAffinity>  (1) 
-3.81657386

>  <minimizedRMSD>  (1) 
0.266107976

$$$$
