
     RDKit          3D

 29 30  0  0  1  0  0  0  0  0999 V2000
   40.0390   22.2430   37.0480 C   0  0  0  0  0  0  0  0  0  0  0  0
   39.3000   23.3720   36.6740 C   0  0  0  0  0  0  0  0  0  0  0  0
   39.8430   24.2240   35.7140 C   0  0  0  0  0  0  0  0  0  0  0  0
   41.0810   23.9130   35.1770 N   0  0  0  0  0  0  0  0  0  0  0  0
   41.7630   22.8030   35.5720 C   0  0  0  0  0  0  0  0  0  0  0  0
   41.2350   21.9830   36.5020 N   0  0  0  0  0  0  0  0  0  0  0  0
   39.2090   25.3900   35.2480 N   0  0  0  0  0  0  0  0  0  0  0  0
   39.5990   26.7860   35.2880 C   0  0  2  0  0  0  0  0  0  0  0  0
   38.2470   27.3990   35.6330 C   0  0  0  0  0  0  0  0  0  0  0  0
   37.3980   26.7640   34.5290 C   0  0  0  0  0  0  0  0  0  0  0  0
   37.9110   25.3470   34.5760 C   0  0  0  0  0  0  0  0  0  0  0  0
   40.1350   27.2500   34.0500 N   0  0  0  0  0  0  0  0  0  0  0  0
   41.5490   27.2430   33.8940 C   0  0  0  0  0  0  0  0  0  0  0  0
   42.3940   26.7450   34.7130 N   0  0  0  0  0  0  0  0  0  0  0  0
   42.0540   27.8620   32.6920 N   0  0  0  0  0  0  0  0  0  0  0  0
   43.4130   26.7440   34.5930 H   0  0  0  0  0  0  0  0  0  0  0  0
   39.6302   21.5566   37.8041 H   0  0  0  0  0  0  0  0  0  0  0  0
   38.3187   23.5806   37.1251 H   0  0  0  0  0  0  0  0  0  0  0  0
   42.7451   22.5754   35.1320 H   0  0  0  0  0  0  0  0  0  0  0  0
   40.4131   27.0315   35.9859 H   0  0  0  0  0  0  0  0  0  0  0  0
   37.9054   27.1032   36.6359 H   0  0  0  0  0  0  0  0  0  0  0  0
   38.2249   28.4982   35.6694 H   0  0  0  0  0  0  0  0  0  0  0  0
   37.5851   27.2324   33.5514 H   0  0  0  0  0  0  0  0  0  0  0  0
   36.3115   26.8652   34.6680 H   0  0  0  0  0  0  0  0  0  0  0  0
   37.2135   24.7102   35.1399 H   0  0  0  0  0  0  0  0  0  0  0  0
   38.0043   24.9271   33.5636 H   0  0  0  0  0  0  0  0  0  0  0  0
   39.5182   27.5794   33.2937 H   0  0  0  0  0  0  0  0  0  0  0  0
   43.0683   27.8921   32.5153 H   0  0  0  0  0  0  0  0  0  0  0  0
   41.4001   28.2736   32.0109 H   0  0  0  0  0  0  0  0  0  0  0  0
  2  1  2  0
  3  2  1  0
  4  5  1  0
  4  3  2  0
  5  6  2  0
  6  1  1  0
  7  8  1  0
  7  3  1  0
  8  9  1  0
 10 11  1  0
 10  9  1  0
 11  7  1  0
 12  8  1  0
 13 12  1  0
 13 14  2  0
 15 13  1  0
 16 14  1  0
  1 17  1  0
  2 18  1  0
  5 19  1  0
  8 20  1  1
  9 21  1  0
  9 22  1  0
 10 23  1  0
 10 24  1  0
 11 25  1  0
 11 26  1  0
 12 27  1  0
 15 28  1  0
 15 29  1  0
M  ISO  8  17  14  18  14  19  14  20  13  21  13  22  13  23  13  24  13
M  ISO  2  25  13  26  13
M  END
>  <minimizedAffinity>  (1) 
-4.34145784

>  <minimizedRMSD>  (1) 
1.02570367

$$$$
