
     RDKit          3D

 25 26  0  0  1  0  0  0  0  0999 V2000
   39.5320   22.7300   37.6090 C   0  0  0  0  0  0  0  0  0  0  0  0
   38.7910   23.3780   36.6010 C   0  0  0  0  0  0  0  0  0  0  0  0
   39.5350   23.8710   35.5070 C   0  0  0  0  0  0  0  0  0  0  0  0
   40.9000   23.6990   35.4840 N   0  0  0  0  0  0  0  0  0  0  0  0
   41.5450   23.0620   36.4940 C   0  0  0  0  0  0  0  0  0  0  0  0
   40.8620   22.5840   37.5460 N   0  0  0  0  0  0  0  0  0  0  0  0
   38.9240   24.5450   34.4270 N   0  0  0  0  0  0  0  0  0  0  0  0
   39.1360   25.8940   33.9100 C   0  0  1  0  0  0  0  0  0  0  0  0
   37.6840   26.2860   33.6680 C   0  0  0  0  0  0  0  0  0  0  0  0
   37.2880   25.0860   32.7890 C   0  0  0  0  0  0  0  0  0  0  0  0
   37.9030   23.9490   33.5930 C   0  0  0  0  0  0  0  0  0  0  0  0
   39.7510   26.7750   34.9300 C   0  0  0  0  0  0  0  0  0  0  0  0
   39.0600   27.4120   35.7640 O   0  0  0  0  0  0  0  0  0  0  0  0
   41.1350   26.8620   34.9150 O   0  0  0  0  0  0  0  0  0  0  0  0
   38.9972   22.3281   38.4822 H   0  0  0  0  0  0  0  0  0  0  0  0
   37.6988   23.4929   36.6626 H   0  0  0  0  0  0  0  0  0  0  0  0
   42.6369   22.9363   36.4501 H   0  0  0  0  0  0  0  0  0  0  0  0
   39.8074   25.9646   33.0416 H   0  0  0  0  0  0  0  0  0  0  0  0
   37.1024   26.3304   34.6006 H   0  0  0  0  0  0  0  0  0  0  0  0
   37.5168   27.2822   33.2325 H   0  0  0  0  0  0  0  0  0  0  0  0
   37.7256   25.1564   31.7823 H   0  0  0  0  0  0  0  0  0  0  0  0
   36.2086   24.9875   32.6015 H   0  0  0  0  0  0  0  0  0  0  0  0
   37.1364   23.4658   34.2166 H   0  0  0  0  0  0  0  0  0  0  0  0
   38.3267   23.1774   32.9333 H   0  0  0  0  0  0  0  0  0  0  0  0
   41.6021   27.4355   35.5731 H   0  0  0  0  0  0  0  0  0  0  0  0
  2  1  2  0
  3  2  1  0
  4  3  2  0
  4  5  1  0
  5  6  2  0
  6  1  1  0
  7  3  1  0
  8  7  1  0
  8 12  1  0
  9  8  1  0
 10 11  1  0
 10  9  1  0
 11  7  1  0
 12 13  2  0
 14 12  1  0
  1 15  1  0
  2 16  1  0
  5 17  1  0
  8 18  1  6
  9 19  1  0
  9 20  1  0
 10 21  1  0
 10 22  1  0
 11 23  1  0
 11 24  1  0
 14 25  1  0
M  ISO  8  15  14  16  14  17  14  18  13  19  13  20  13  21  13  22  13
M  ISO  3  23  13  24  13  25   3
M  END
>  <minimizedAffinity>  (1) 
-3.92728019

>  <minimizedRMSD>  (1) 
1.67400551

$$$$
