
     RDKit          3D

 34 36  0  0  1  0  0  0  0  0999 V2000
   38.0240   24.4130   37.5130 C   0  0  0  0  0  0  0  0  0  0  0  0
   38.0170   25.2780   36.4140 C   0  0  0  0  0  0  0  0  0  0  0  0
   38.3140   24.7330   35.1660 C   0  0  0  0  0  0  0  0  0  0  0  0
   38.5970   23.3820   35.0800 N   0  0  0  0  0  0  0  0  0  0  0  0
   38.5950   22.5780   36.1680 C   0  0  0  0  0  0  0  0  0  0  0  0
   38.3060   23.1040   37.3850 N   0  0  0  0  0  0  0  0  0  0  0  0
   38.3450   25.4800   33.9590 N   0  0  0  0  0  0  0  0  0  0  0  0
   39.3920   25.7180   32.9960 C   0  0  1  0  0  0  0  0  0  0  0  0
   39.1720   27.1890   32.7600 C   0  0  0  0  0  0  0  0  0  0  0  0
   37.6730   27.1490   32.4100 C   0  0  0  0  0  0  0  0  0  0  0  0
   37.1590   26.1970   33.4800 C   0  0  0  0  0  0  0  0  0  0  0  0
   40.6820   25.3130   33.3860 N   0  0  0  0  0  0  0  0  0  0  0  0
   40.8870   23.9280   33.6200 C   0  0  0  0  0  0  0  0  0  0  0  0
   41.9950   23.8220   34.6750 C   0  0  0  0  0  0  0  0  0  0  0  0
   42.3150   25.2800   35.0320 C   0  0  0  0  0  0  0  0  0  0  0  0
   40.9950   25.9240   34.6650 C   0  0  0  0  0  0  0  0  0  0  0  0
   37.7923   24.8146   38.5105 H   0  0  0  0  0  0  0  0  0  0  0  0
   37.7860   26.3472   36.5301 H   0  0  0  0  0  0  0  0  0  0  0  0
   38.8256   21.5072   36.0670 H   0  0  0  0  0  0  0  0  0  0  0  0
   39.3401   25.1097   32.0810 H   0  0  0  0  0  0  0  0  0  0  0  0
   39.3701   27.7866   33.6620 H   0  0  0  0  0  0  0  0  0  0  0  0
   39.8242   27.6520   32.0049 H   0  0  0  0  0  0  0  0  0  0  0  0
   37.2101   28.1432   32.4957 H   0  0  0  0  0  0  0  0  0  0  0  0
   37.4532   26.8378   31.3781 H   0  0  0  0  0  0  0  0  0  0  0  0
   36.6893   26.7576   34.3016 H   0  0  0  0  0  0  0  0  0  0  0  0
   36.3948   25.5106   33.0866 H   0  0  0  0  0  0  0  0  0  0  0  0
   39.9617   23.4650   33.9934 H   0  0  0  0  0  0  0  0  0  0  0  0
   41.1696   23.4064   32.6937 H   0  0  0  0  0  0  0  0  0  0  0  0
   41.6404   23.2725   35.5595 H   0  0  0  0  0  0  0  0  0  0  0  0
   42.8758   23.2749   34.3077 H   0  0  0  0  0  0  0  0  0  0  0  0
   42.5464   25.3993   36.1008 H   0  0  0  0  0  0  0  0  0  0  0  0
   43.1973   25.7020   34.5285 H   0  0  0  0  0  0  0  0  0  0  0  0
   41.1000   27.0146   34.5677 H   0  0  0  0  0  0  0  0  0  0  0  0
   40.2118   25.7728   35.4225 H   0  0  0  0  0  0  0  0  0  0  0  0
  2  1  2  0
  3  2  1  0
  4  3  2  0
  4  5  1  0
  5  6  2  0
  6  1  1  0
  7  3  1  0
  8 12  1  0
  8  7  1  0
  9  8  1  0
 10  9  1  0
 10 11  1  0
 11  7  1  0
 12 13  1  0
 12 16  1  0
 13 14  1  0
 14 15  1  0
 16 15  1  0
  1 17  1  0
  2 18  1  0
  5 19  1  0
  8 20  1  6
  9 21  1  0
  9 22  1  0
 10 23  1  0
 10 24  1  0
 11 25  1  0
 11 26  1  0
 13 27  1  0
 13 28  1  0
 14 29  1  0
 14 30  1  0
 15 31  1  0
 15 32  1  0
 16 33  1  0
 16 34  1  0
M  ISO  8  17  14  18  14  19  14  20  13  21  13  22  13  23  13  24  13
M  ISO  8  25  13  26  13  27  13  28  13  29  13  30  13  31  13  32  13
M  ISO  2  33  13  34  13
M  END
>  <minimizedAffinity>  (1) 
-3.91148567

>  <minimizedRMSD>  (1) 
2.71301174

$$$$
