
     RDKit          3D

 25 26  0  0  1  0  0  0  0  0999 V2000
   38.8300   22.3280   36.0590 C   0  0  0  0  0  0  0  0  0  0  0  0
   38.1590   23.2380   35.2400 C   0  0  0  0  0  0  0  0  0  0  0  0
   38.9200   24.3030   34.7240 C   0  0  0  0  0  0  0  0  0  0  0  0
   40.2630   24.4120   35.0350 N   0  0  0  0  0  0  0  0  0  0  0  0
   40.8460   23.4810   35.8440 C   0  0  0  0  0  0  0  0  0  0  0  0
   40.1390   22.4460   36.3540 N   0  0  0  0  0  0  0  0  0  0  0  0
   38.3830   25.3060   33.8780 N   0  0  0  0  0  0  0  0  0  0  0  0
   38.2750   26.7390   34.0260 C   0  0  1  0  0  0  0  0  0  0  0  0
   36.8570   26.9300   33.4980 C   0  0  0  0  0  0  0  0  0  0  0  0
   36.9890   26.2090   32.1710 C   0  0  0  0  0  0  0  0  0  0  0  0
   37.7930   24.9900   32.5830 C   0  0  0  0  0  0  0  0  0  0  0  0
   38.3020   27.1830   35.4690 C   0  0  0  0  0  0  0  0  0  0  0  0
   39.6390   27.2520   35.8220 F   0  0  0  0  0  0  0  0  0  0  0  0
   37.6770   28.3710   35.6780 F   0  0  0  0  0  0  0  0  0  0  0  0
   37.7160   26.1390   36.1950 F   0  0  0  0  0  0  0  0  0  0  0  0
   38.2677   21.4815   36.4799 H   0  0  0  0  0  0  0  0  0  0  0  0
   37.0890   23.1279   35.0097 H   0  0  0  0  0  0  0  0  0  0  0  0
   41.9148   23.5737   36.0872 H   0  0  0  0  0  0  0  0  0  0  0  0
   39.0871   27.2945   33.5342 H   0  0  0  0  0  0  0  0  0  0  0  0
   36.1084   26.4566   34.1502 H   0  0  0  0  0  0  0  0  0  0  0  0
   36.5166   27.9740   33.4334 H   0  0  0  0  0  0  0  0  0  0  0  0
   37.5295   26.8186   31.4320 H   0  0  0  0  0  0  0  0  0  0  0  0
   36.0306   25.9767   31.6837 H   0  0  0  0  0  0  0  0  0  0  0  0
   37.1362   24.1117   32.6681 H   0  0  0  0  0  0  0  0  0  0  0  0
   38.5673   24.7522   31.8388 H   0  0  0  0  0  0  0  0  0  0  0  0
  1  6  2  0
  2  1  1  0
  3  4  1  0
  3  2  2  0
  4  5  2  0
  5  6  1  0
  7  8  1  0
  7  3  1  0
  8 12  1  0
  9  8  1  0
 10 11  1  0
 10  9  1  0
 11  7  1  0
 12 14  1  0
 12 13  1  0
 12 15  1  0
  1 16  1  0
  2 17  1  0
  5 18  1  0
  8 19  1  6
  9 20  1  0
  9 21  1  0
 10 22  1  0
 10 23  1  0
 11 24  1  0
 11 25  1  0
M  ISO  8  16  14  17  14  18  14  19  13  20  13  21  13  22  13  23  13
M  ISO  2  24  13  25  13
M  END
>  <minimizedAffinity>  (1) 
-4.10571623

>  <minimizedRMSD>  (1) 
2.2962811

$$$$
