
     RDKit          3D

 23 24  0  0  0  0  0  0  0  0999 V2000
   37.1490   21.3650   32.9020 N   0  0  0  0  0  0  0  0  0  0  0  0
   35.8600   21.3290   32.5020 C   0  0  0  0  0  0  0  0  0  0  0  0
   35.5530   20.4980   31.4430 C   0  0  0  0  0  0  0  0  0  0  0  0
   36.5540   19.7710   30.8680 C   0  0  0  0  0  0  0  0  0  0  0  0
   36.2600   18.9220   29.7910 N   0  0  0  0  0  0  0  0  0  0  0  0
   37.8180   19.8410   31.3020 N   0  0  0  0  0  0  0  0  0  0  0  0
   38.1390   20.6470   32.3360 C   0  0  0  0  0  0  0  0  0  0  0  0
   39.3390   20.6920   32.7240 O   0  0  0  0  0  0  0  0  0  0  0  0
   37.2010   21.7070   35.2670 C   0  0  0  0  0  0  0  0  0  0  0  0
   37.4490   22.2130   33.9800 C   0  0  0  0  0  0  0  0  0  0  0  0
   37.9690   23.5020   33.8860 C   0  0  0  0  0  0  0  0  0  0  0  0
   38.2070   24.1980   35.0330 N   0  0  0  0  0  0  0  0  0  0  0  0
   37.9580   23.6830   36.2400 C   0  0  0  0  0  0  0  0  0  0  0  0
   37.4550   22.4400   36.3750 N   0  0  0  0  0  0  0  0  0  0  0  0
   38.2350   24.4810   37.4300 C   0  0  0  0  0  0  0  0  0  0  0  0
   37.7970   24.1000   38.5490 O   0  0  0  0  0  0  0  0  0  0  0  0
   35.0879   21.9354   32.9982 H   0  0  0  0  0  0  0  0  0  0  0  0
   34.5209   20.4235   31.0700 H   0  0  0  0  0  0  0  0  0  0  0  0
   35.2944   18.8515   29.4395 H   0  0  0  0  0  0  0  0  0  0  0  0
   37.0097   18.3690   29.3516 H   0  0  0  0  0  0  0  0  0  0  0  0
   36.7911   20.6921   35.3760 H   0  0  0  0  0  0  0  0  0  0  0  0
   38.1834   23.9495   32.9043 H   0  0  0  0  0  0  0  0  0  0  0  0
   38.8217   25.4081   37.3511 H   0  0  0  0  0  0  0  0  0  0  0  0
  1 10  1  0
  2  1  1  0
  3  2  2  0
  4  6  2  0
  4  3  1  0
  5  4  1  0
  6  7  1  0
  7  8  2  0
  7  1  1  0
  9 14  2  0
 10  9  1  0
 11 10  2  0
 11 12  1  0
 12 13  2  0
 13 14  1  0
 13 15  1  0
 15 16  2  0
  2 17  1  0
  3 18  1  0
  5 19  1  0
  5 20  1  0
  9 21  1  0
 11 22  1  0
 15 23  1  0
M  ISO  5  17  14  18  14  21  14  22  14  23   6
M  END
>  <minimizedAffinity>  (1) 
-3.91758966

>  <minimizedRMSD>  (1) 
2.71339989

$$$$
