
     RDKit          3D

 33 34  0  0  0  0  0  0  0  0999 V2000
   37.5220   20.1220   31.6620 N   0  0  0  0  0  0  0  0  0  0  0  0
   36.9950   18.8930   31.9340 C   0  0  0  0  0  0  0  0  0  0  0  0
   36.6080   18.1260   30.8570 C   0  0  0  0  0  0  0  0  0  0  0  0
   36.7750   18.6430   29.6050 C   0  0  0  0  0  0  0  0  0  0  0  0
   36.3920   17.8920   28.4710 N   0  0  0  0  0  0  0  0  0  0  0  0
   37.3020   19.8650   29.4000 N   0  0  0  0  0  0  0  0  0  0  0  0
   37.6850   20.6230   30.4430 C   0  0  0  0  0  0  0  0  0  0  0  0
   38.1750   21.7620   30.2240 O   0  0  0  0  0  0  0  0  0  0  0  0
   36.8740   21.2550   33.6790 C   0  0  0  0  0  0  0  0  0  0  0  0
   37.9070   20.8760   32.7940 C   0  0  0  0  0  0  0  0  0  0  0  0
   39.2010   21.2740   33.1060 C   0  0  0  0  0  0  0  0  0  0  0  0
   39.4300   21.9970   34.2250 N   0  0  0  0  0  0  0  0  0  0  0  0
   38.4240   22.3480   35.0580 C   0  0  0  0  0  0  0  0  0  0  0  0
   37.1420   21.9780   34.7880 N   0  0  0  0  0  0  0  0  0  0  0  0
   38.7270   23.1430   36.2770 C   0  0  0  0  0  0  0  0  0  0  0  0
   39.9390   22.5630   36.9760 C   0  0  0  0  0  0  0  0  0  0  0  0
   37.5310   23.2130   37.1920 C   0  0  0  0  0  0  0  0  0  0  0  0
   39.0810   24.5860   35.8950 C   0  0  0  0  0  0  0  0  0  0  0  0
   36.8842   18.5310   32.9668 H   0  0  0  0  0  0  0  0  0  0  0  0
   36.1764   17.1247   31.0021 H   0  0  0  0  0  0  0  0  0  0  0  0
   36.5188   18.2839   27.5269 H   0  0  0  0  0  0  0  0  0  0  0  0
   35.9860   16.9527   28.5885 H   0  0  0  0  0  0  0  0  0  0  0  0
   35.8374   20.9575   33.4624 H   0  0  0  0  0  0  0  0  0  0  0  0
   40.0366   21.0016   32.4445 H   0  0  0  0  0  0  0  0  0  0  0  0
   39.8007   22.6292   38.0653 H   0  0  0  0  0  0  0  0  0  0  0  0
   40.0606   21.5091   36.6852 H   0  0  0  0  0  0  0  0  0  0  0  0
   40.8360   23.1294   36.6852 H   0  0  0  0  0  0  0  0  0  0  0  0
   37.8685   23.1932   38.2388 H   0  0  0  0  0  0  0  0  0  0  0  0
   36.9784   24.1450   37.0025 H   0  0  0  0  0  0  0  0  0  0  0  0
   36.8734   22.3518   37.0025 H   0  0  0  0  0  0  0  0  0  0  0  0
   39.2271   25.1817   36.8081 H   0  0  0  0  0  0  0  0  0  0  0  0
   40.0071   24.5915   35.3015 H   0  0  0  0  0  0  0  0  0  0  0  0
   38.2626   25.0195   35.3015 H   0  0  0  0  0  0  0  0  0  0  0  0
  1  2  1  0
  1 10  1  0
  3  2  2  0
  4  3  1  0
  5  4  1  0
  6  4  2  0
  6  7  1  0
  7  1  1  0
  8  7  2  0
  9 14  2  0
 10 11  2  0
 10  9  1  0
 11 12  1  0
 12 13  2  0
 13 15  1  0
 14 13  1  0
 15 16  1  0
 15 17  1  0
 18 15  1  0
  2 19  1  0
  3 20  1  0
  5 21  1  0
  5 22  1  0
  9 23  1  0
 11 24  1  0
 16 25  1  0
 16 26  1  0
 16 27  1  0
 17 28  1  0
 17 29  1  0
 17 30  1  0
 18 31  1  0
 18 32  1  0
 18 33  1  0
M  ISO  8  19  14  20  14  23  14  24  14  25   8  26   8  27   8  28   8
M  ISO  5  29   8  30   8  31   8  32   8  33   8
M  END
>  <minimizedAffinity>  (1) 
-3.89865994

>  <minimizedRMSD>  (1) 
3.86730933

$$$$
