
     RDKit          3D

 34 37  0  0  0  0  0  0  0  0999 V2000
   38.0560   24.5530   34.0260 C   0  0  0  0  0  0  0  0  0  0  0  0
   38.4730   23.2560   34.4430 C   0  0  0  0  0  0  0  0  0  0  0  0
   39.7150   22.8120   34.0220 C   0  0  0  0  0  0  0  0  0  0  0  0
   40.4720   23.6280   33.2400 N   0  0  0  0  0  0  0  0  0  0  0  0
   40.0530   24.8590   32.8590 C   0  0  0  0  0  0  0  0  0  0  0  0
   38.8510   25.3240   33.2470 N   0  0  0  0  0  0  0  0  0  0  0  0
   40.8770   25.6840   32.0370 N   0  0  0  0  0  0  0  0  0  0  0  0
   41.1260   26.9960   32.2330 C   0  0  0  0  0  0  0  0  0  0  0  0
   41.9440   27.4760   31.2770 N   0  0  0  0  0  0  0  0  0  0  0  0
   42.2240   26.4340   30.4480 C   0  0  0  0  0  0  0  0  0  0  0  0
   42.9840   26.2750   29.3070 C   0  0  0  0  0  0  0  0  0  0  0  0
   43.0970   25.1020   28.6570 N   0  0  0  0  0  0  0  0  0  0  0  0
   42.4290   24.0380   29.1580 C   0  0  0  0  0  0  0  0  0  0  0  0
   41.6680   24.1520   30.2810 N   0  0  0  0  0  0  0  0  0  0  0  0
   41.5570   25.3320   30.9300 C   0  0  0  0  0  0  0  0  0  0  0  0
   37.5700   22.5540   35.2460 N   0  0  0  0  0  0  0  0  0  0  0  0
   37.5260   22.9170   36.5630 C   0  0  0  0  0  0  0  0  0  0  0  0
   36.6440   22.2450   37.3840 C   0  0  0  0  0  0  0  0  0  0  0  0
   35.8720   21.2680   36.8410 C   0  0  0  0  0  0  0  0  0  0  0  0
   34.9520   20.5430   37.6180 N   0  0  0  0  0  0  0  0  0  0  0  0
   35.9560   20.9540   35.5450 N   0  0  0  0  0  0  0  0  0  0  0  0
   36.8170   21.5990   34.7150 C   0  0  0  0  0  0  0  0  0  0  0  0
   36.8650   21.2770   33.5150 O   0  0  0  0  0  0  0  0  0  0  0  0
   43.6700   27.4220   28.8160 N   0  0  0  0  0  0  0  0  0  0  0  0
   37.0734   24.9337   34.3417 H   0  0  0  0  0  0  0  0  0  0  0  0
   40.0829   21.8175   34.3146 H   0  0  0  0  0  0  0  0  0  0  0  0
   40.7162   27.5924   33.0615 H   0  0  0  0  0  0  0  0  0  0  0  0
   42.5018   23.0651   28.6500 H   0  0  0  0  0  0  0  0  0  0  0  0
   38.1713   23.7171   36.9547 H   0  0  0  0  0  0  0  0  0  0  0  0
   36.5678   22.4944   38.4526 H   0  0  0  0  0  0  0  0  0  0  0  0
   34.3779   19.8068   37.1829 H   0  0  0  0  0  0  0  0  0  0  0  0
   34.8520   20.7479   38.6224 H   0  0  0  0  0  0  0  0  0  0  0  0
   44.2494   27.3515   27.9673 H   0  0  0  0  0  0  0  0  0  0  0  0
   43.5869   28.3223   29.3095 H   0  0  0  0  0  0  0  0  0  0  0  0
  1  2  2  0
  2 16  1  0
  3  2  1  0
  4  3  2  0
  5  4  1  0
  5  6  2  0
  6  1  1  0
  7  8  1  0
  7  5  1  0
  9  8  2  0
 10 15  2  0
 10  9  1  0
 11 10  1  0
 12 13  1  0
 12 11  2  0
 13 14  2  0
 14 15  1  0
 15  7  1  0
 16 17  1  0
 17 18  2  0
 19 18  1  0
 19 20  1  0
 21 19  2  0
 22 16  1  0
 22 21  1  0
 23 22  2  0
 24 11  1  0
  1 25  1  0
  3 26  1  0
  8 27  1  0
 13 28  1  0
 17 29  1  0
 18 30  1  0
 20 31  1  0
 20 32  1  0
 24 33  1  0
 24 34  1  0
M  ISO  6  25  14  26  14  27  14  28  14  29  14  30  14
M  END
>  <minimizedAffinity>  (1) 
-3.87432051

>  <minimizedRMSD>  (1) 
7.35246325

$$$$
