
     RDKit          3D

 40 42  0  0  1  0  0  0  0  0999 V2000
   40.2220   18.8710   30.9480 C   0  0  0  0  0  0  0  0  0  0  0  0
   38.9300   19.0750   31.4800 C   0  0  0  0  0  0  0  0  0  0  0  0
   38.0580   19.8790   30.7640 C   0  0  0  0  0  0  0  0  0  0  0  0
   38.5050   20.4290   29.5810 N   0  0  0  0  0  0  0  0  0  0  0  0
   39.7560   20.2110   29.0980 C   0  0  0  0  0  0  0  0  0  0  0  0
   40.5980   19.4350   29.7890 N   0  0  0  0  0  0  0  0  0  0  0  0
   36.7520   20.1760   31.1560 N   0  0  0  0  0  0  0  0  0  0  0  0
   36.0480   21.3940   31.4440 C   0  0  1  0  0  0  0  0  0  0  0  0
   35.3020   20.9730   32.7080 C   0  0  0  0  0  0  0  0  0  0  0  0
   34.5850   19.7550   32.0930 C   0  0  0  0  0  0  0  0  0  0  0  0
   35.7450   19.1200   31.3640 C   0  0  0  0  0  0  0  0  0  0  0  0
   36.9000   22.5900   31.6590 C   0  0  1  0  0  0  0  0  0  0  0  0
   36.1320   23.7770   31.0510 C   0  0  0  0  0  0  0  0  0  0  0  0
   37.0410   24.9780   31.0610 C   0  0  0  0  0  0  0  0  0  0  0  0
   37.2380   25.3360   32.5300 C   0  0  0  0  0  0  0  0  0  0  0  0
   37.8620   24.2070   33.2750 C   0  0  0  0  0  0  0  0  0  0  0  0
   37.1920   22.8780   33.0950 C   0  0  2  0  0  0  0  0  0  0  0  0
   38.2000   21.8990   33.5190 N   0  0  0  0  0  0  0  0  0  0  0  0
   40.9354   18.2367   31.4946 H   0  0  0  0  0  0  0  0  0  0  0  0
   38.6263   18.6115   32.4302 H   0  0  0  0  0  0  0  0  0  0  0  0
   40.0729   20.6678   28.1488 H   0  0  0  0  0  0  0  0  0  0  0  0
   35.4236   21.7389   30.6066 H   0  0  0  0  0  0  0  0  0  0  0  0
   35.9817   20.6942   33.5267 H   0  0  0  0  0  0  0  0  0  0  0  0
   34.6669   21.7335   33.1859 H   0  0  0  0  0  0  0  0  0  0  0  0
   34.1726   19.0892   32.8655 H   0  0  0  0  0  0  0  0  0  0  0  0
   33.7138   19.9941   31.4654 H   0  0  0  0  0  0  0  0  0  0  0  0
   35.4098   18.7212   30.3952 H   0  0  0  0  0  0  0  0  0  0  0  0
   36.1648   18.2855   31.9449 H   0  0  0  0  0  0  0  0  0  0  0  0
   37.8787   22.4135   31.1888 H   0  0  0  0  0  0  0  0  0  0  0  0
   35.2329   23.9851   31.6496 H   0  0  0  0  0  0  0  0  0  0  0  0
   35.8218   23.5428   30.0220 H   0  0  0  0  0  0  0  0  0  0  0  0
   38.0060   24.7322   30.5937 H   0  0  0  0  0  0  0  0  0  0  0  0
   36.6111   25.8165   30.4935 H   0  0  0  0  0  0  0  0  0  0  0  0
   37.8909   26.2184   32.6009 H   0  0  0  0  0  0  0  0  0  0  0  0
   36.2543   25.5482   32.9742 H   0  0  0  0  0  0  0  0  0  0  0  0
   38.9047   24.1113   32.9378 H   0  0  0  0  0  0  0  0  0  0  0  0
   37.7675   24.4553   34.3424 H   0  0  0  0  0  0  0  0  0  0  0  0
   36.2445   22.8511   33.6531 H   0  0  0  0  0  0  0  0  0  0  0  0
   38.2346   21.8654   34.5479 H   0  0  0  0  0  0  0  0  0  0  0  0
   37.9505   20.9690   33.1533 H   0  0  0  0  0  0  0  0  0  0  0  0
  1  2  2  0
  3  7  1  0
  3  2  1  0
  4  3  2  0
  5  4  1  0
  5  6  2  0
  6  1  1  0
  7 11  1  0
  7  8  1  0
  8 12  1  0
  8  9  1  0
 10  9  1  0
 11 10  1  0
 12 17  1  0
 13 14  1  0
 13 12  1  0
 14 15  1  0
 15 16  1  0
 17 16  1  0
 17 18  1  0
  1 19  1  0
  2 20  1  0
  5 21  1  0
  8 22  1  6
  9 23  1  0
  9 24  1  0
 10 25  1  0
 10 26  1  0
 11 27  1  0
 11 28  1  0
 12 29  1  6
 13 30  1  0
 13 31  1  0
 14 32  1  0
 14 33  1  0
 15 34  1  0
 15 35  1  0
 16 36  1  0
 16 37  1  0
 17 38  1  1
 18 39  1  0
 18 40  1  0
M  ISO  8  19  14  20  14  21  14  22  13  23  13  24  13  25  13  26  13
M  ISO  8  27  13  28  13  29  13  30  13  31  13  32  13  33  13  34  13
M  ISO  6  35  13  36  13  37  13  38  13  39   5  40   5
M  END
>  <minimizedAffinity>  (1) 
-3.79757905

>  <minimizedRMSD>  (1) 
2.07993937

$$$$
