
     RDKit          3D

 41 43  0  0  1  0  0  0  0  0999 V2000
   35.9410   24.4180   31.0420 C   0  0  0  0  0  0  0  0  0  0  0  0
   35.6210   23.0760   31.2850 C   0  0  0  0  0  0  0  0  0  0  0  0
   36.5700   22.3040   31.9240 C   0  0  0  0  0  0  0  0  0  0  0  0
   37.7690   22.8870   32.2870 N   0  0  0  0  0  0  0  0  0  0  0  0
   38.0290   24.1960   32.0280 C   0  0  0  0  0  0  0  0  0  0  0  0
   37.1160   24.9500   31.4090 N   0  0  0  0  0  0  0  0  0  0  0  0
   36.4160   20.9440   32.2460 N   0  0  0  0  0  0  0  0  0  0  0  0
   37.1460   19.7420   31.8940 C   0  0  1  0  0  0  0  0  0  0  0  0
   35.9420   18.8460   31.5960 C   0  0  0  0  0  0  0  0  0  0  0  0
   35.3120   18.9710   33.0160 C   0  0  0  0  0  0  0  0  0  0  0  0
   35.3260   20.4760   33.1190 C   0  0  0  0  0  0  0  0  0  0  0  0
   38.0560   19.8620   30.7440 C   0  0  1  0  0  0  0  0  0  0  0  0
   39.4570   20.1080   31.3460 C   0  0  0  0  0  0  0  0  0  0  0  0
   40.4110   20.4490   30.2650 C   0  0  0  0  0  0  0  0  0  0  0  0
   40.5500   19.1910   29.4070 C   0  0  0  0  0  0  0  0  0  0  0  0
   39.2450   18.7640   28.8740 C   0  0  0  0  0  0  0  0  0  0  0  0
   38.1310   18.6620   29.8920 C   0  0  2  0  0  0  0  0  0  0  0  0
   36.9450   18.3520   29.0750 C   0  0  0  0  0  0  0  0  0  0  0  0
   36.2910   19.0770   28.2680 O   0  0  0  0  0  0  0  0  0  0  0  0
   36.4050   17.0790   29.1560 O   0  0  0  0  0  0  0  0  0  0  0  0
   35.2039   25.0566   30.5332 H   0  0  0  0  0  0  0  0  0  0  0  0
   34.6522   22.6544   30.9788 H   0  0  0  0  0  0  0  0  0  0  0  0
   38.9919   24.6348   32.3283 H   0  0  0  0  0  0  0  0  0  0  0  0
   37.8523   19.4003   32.6650 H   0  0  0  0  0  0  0  0  0  0  0  0
   35.2943   19.2497   30.8039 H   0  0  0  0  0  0  0  0  0  0  0  0
   36.1442   17.8331   31.2177 H   0  0  0  0  0  0  0  0  0  0  0  0
   34.2926   18.5598   33.0574 H   0  0  0  0  0  0  0  0  0  0  0  0
   35.8258   18.4268   33.8221 H   0  0  0  0  0  0  0  0  0  0  0  0
   35.5124   20.7842   34.1584 H   0  0  0  0  0  0  0  0  0  0  0  0
   34.3599   20.9049   32.8144 H   0  0  0  0  0  0  0  0  0  0  0  0
   37.6844   20.6684   30.0947 H   0  0  0  0  0  0  0  0  0  0  0  0
   39.4057   20.9395   32.0644 H   0  0  0  0  0  0  0  0  0  0  0  0
   39.7983   19.1972   31.8597 H   0  0  0  0  0  0  0  0  0  0  0  0
   40.0212   21.2816   29.6609 H   0  0  0  0  0  0  0  0  0  0  0  0
   41.3823   20.7659   30.6725 H   0  0  0  0  0  0  0  0  0  0  0  0
   41.2289   19.4022   28.5676 H   0  0  0  0  0  0  0  0  0  0  0  0
   40.9513   18.3826   30.0359 H   0  0  0  0  0  0  0  0  0  0  0  0
   38.9380   19.4896   28.1063 H   0  0  0  0  0  0  0  0  0  0  0  0
   39.3946   17.7460   28.4850 H   0  0  0  0  0  0  0  0  0  0  0  0
   38.2705   17.8778   30.6507 H   0  0  0  0  0  0  0  0  0  0  0  0
   35.6081   16.8442   28.6176 H   0  0  0  0  0  0  0  0  0  0  0  0
  1  2  2  0
  1  6  1  0
  2  3  1  0
  3  7  1  0
  3  4  2  0
  5  4  1  0
  6  5  2  0
  7 11  1  0
  8  7  1  0
  9  8  1  0
  9 10  1  0
 10 11  1  0
 12 13  1  0
 12  8  1  0
 14 13  1  0
 15 14  1  0
 16 15  1  0
 16 17  1  0
 17 12  1  0
 18 20  1  0
 18 17  1  0
 19 18  2  0
  1 21  1  0
  2 22  1  0
  5 23  1  0
  8 24  1  1
  9 25  1  0
  9 26  1  0
 10 27  1  0
 10 28  1  0
 11 29  1  0
 11 30  1  0
 12 31  1  6
 13 32  1  0
 13 33  1  0
 14 34  1  0
 14 35  1  0
 15 36  1  0
 15 37  1  0
 16 38  1  0
 16 39  1  0
 17 40  1  1
 20 41  1  0
M  ISO  8  21  14  22  14  23  14  24  13  25  13  26  13  27  13  28  13
M  ISO  8  29  13  30  13  31  13  32  13  33  13  34  13  35  13  36  13
M  ISO  5  37  13  38  13  39  13  40  13  41   3
M  END
>  <minimizedAffinity>  (1) 
-3.99949884

>  <minimizedRMSD>  (1) 
5.45812607

$$$$
