
     RDKit          3D

 47 50  0  0  1  0  0  0  0  0999 V2000
   39.0680   26.6410   32.5780 C   0  0  1  0  0  0  0  0  0  0  0  0
   40.3330   27.2900   32.0350 C   0  0  0  0  0  0  0  0  0  0  0  0
   41.5180   26.6200   32.6570 C   0  0  0  0  0  0  0  0  0  0  0  0
   41.4890   27.0120   34.1400 C   0  0  0  0  0  0  0  0  0  0  0  0
   40.2280   26.5410   34.7810 C   0  0  0  0  0  0  0  0  0  0  0  0
   38.9450   26.9170   34.0380 C   0  0  2  0  0  0  0  0  0  0  0  0
   36.2780   22.5300   31.6910 C   0  0  0  0  0  0  0  0  0  0  0  0
   36.1110   23.9030   31.8770 C   0  0  0  0  0  0  0  0  0  0  0  0
   37.0070   24.7510   31.2440 C   0  0  0  0  0  0  0  0  0  0  0  0
   37.9970   24.1830   30.4780 N   0  0  0  0  0  0  0  0  0  0  0  0
   38.1350   22.8540   30.3160 C   0  0  0  0  0  0  0  0  0  0  0  0
   37.2630   22.0300   30.9320 N   0  0  0  0  0  0  0  0  0  0  0  0
   36.9840   26.1440   31.3190 N   0  0  0  0  0  0  0  0  0  0  0  0
   37.9350   27.1290   31.7720 C   0  0  1  0  0  0  0  0  0  0  0  0
   36.9990   28.0370   32.5620 C   0  0  0  0  0  0  0  0  0  0  0  0
   35.9950   28.3110   31.4230 C   0  0  0  0  0  0  0  0  0  0  0  0
   35.8220   26.9290   30.8860 C   0  0  0  0  0  0  0  0  0  0  0  0
   37.9490   26.1690   34.6070 O   0  0  0  0  0  0  0  0  0  0  0  0
   38.0450   24.9250   35.2000 C   0  0  0  0  0  0  0  0  0  0  0  0
   38.4090   23.7400   34.5950 C   0  0  0  0  0  0  0  0  0  0  0  0
   38.4720   22.5520   35.2880 C   0  0  0  0  0  0  0  0  0  0  0  0
   38.1620   22.5670   36.6060 N   0  0  0  0  0  0  0  0  0  0  0  0
   37.8080   23.7090   37.2080 C   0  0  0  0  0  0  0  0  0  0  0  0
   37.7450   24.8790   36.5310 N   0  0  0  0  0  0  0  0  0  0  0  0
   39.0915   25.5448   32.4902 H   0  0  0  0  0  0  0  0  0  0  0  0
   40.3710   27.1706   30.9422 H   0  0  0  0  0  0  0  0  0  0  0  0
   40.3383   28.3632   32.2765 H   0  0  0  0  0  0  0  0  0  0  0  0
   41.4417   25.5281   32.5478 H   0  0  0  0  0  0  0  0  0  0  0  0
   42.4572   26.9289   32.1748 H   0  0  0  0  0  0  0  0  0  0  0  0
   42.3481   26.5542   34.6521 H   0  0  0  0  0  0  0  0  0  0  0  0
   41.5399   28.1080   34.2189 H   0  0  0  0  0  0  0  0  0  0  0  0
   40.2712   25.4443   34.8536 H   0  0  0  0  0  0  0  0  0  0  0  0
   40.1748   27.0420   35.7589 H   0  0  0  0  0  0  0  0  0  0  0  0
   38.7315   27.9927   34.1238 H   0  0  0  0  0  0  0  0  0  0  0  0
   35.5796   21.8367   32.1825 H   0  0  0  0  0  0  0  0  0  0  0  0
   35.2977   24.2983   32.5033 H   0  0  0  0  0  0  0  0  0  0  0  0
   38.9446   22.4472   29.6923 H   0  0  0  0  0  0  0  0  0  0  0  0
   38.4917   27.5909   30.9433 H   0  0  0  0  0  0  0  0  0  0  0  0
   36.5355   27.5221   33.4164 H   0  0  0  0  0  0  0  0  0  0  0  0
   37.4544   28.9176   33.0387 H   0  0  0  0  0  0  0  0  0  0  0  0
   35.0484   28.7215   31.8042 H   0  0  0  0  0  0  0  0  0  0  0  0
   36.3270   29.0552   30.6841 H   0  0  0  0  0  0  0  0  0  0  0  0
   35.7737   26.9553   29.7874 H   0  0  0  0  0  0  0  0  0  0  0  0
   34.8888   26.4807   31.2576 H   0  0  0  0  0  0  0  0  0  0  0  0
   38.6572   23.7443   33.5234 H   0  0  0  0  0  0  0  0  0  0  0  0
   38.7655   21.6183   34.7859 H   0  0  0  0  0  0  0  0  0  0  0  0
   37.5621   23.6960   38.2801 H   0  0  0  0  0  0  0  0  0  0  0  0
  1  6  1  0
  2  1  1  0
  2  3  1  0
  3  4  1  0
  4  5  1  0
  6 18  1  0
  6  5  1  0
  7  8  2  0
  9 13  1  0
  9  8  1  0
 10  9  2  0
 11 10  1  0
 11 12  2  0
 12  7  1  0
 13 14  1  0
 14 15  1  0
 14  1  1  0
 16 15  1  0
 17 13  1  0
 17 16  1  0
 18 19  1  0
 19 24  1  0
 20 19  2  0
 20 21  1  0
 21 22  2  0
 22 23  1  0
 24 23  2  0
  1 25  1  1
  2 26  1  0
  2 27  1  0
  3 28  1  0
  3 29  1  0
  4 30  1  0
  4 31  1  0
  5 32  1  0
  5 33  1  0
  6 34  1  6
  7 35  1  0
  8 36  1  0
 11 37  1  0
 14 38  1  6
 15 39  1  0
 15 40  1  0
 16 41  1  0
 16 42  1  0
 17 43  1  0
 17 44  1  0
 20 45  1  0
 21 46  1  0
 23 47  1  0
M  ISO  8  25  13  26  13  27  13  28  13  29  13  30  13  31  13  32  13
M  ISO  8  33  13  34  13  35  14  36  14  37  14  38  13  39  13  40  13
M  ISO  7  41  13  42  13  43  13  44  13  45  14  46  14  47  14
M  END
>  <minimizedAffinity>  (1) 
-5.42019653

>  <minimizedRMSD>  (1) 
5.27515173

$$$$
