
     RDKit          3D

 46 49  0  0  1  0  0  0  0  0999 V2000
   38.4480   23.1050   35.1820 C   0  0  1  0  0  0  0  0  0  0  0  0
   38.8150   22.9260   36.6520 C   0  0  0  0  0  0  0  0  0  0  0  0
   37.7860   23.6150   37.4900 C   0  0  0  0  0  0  0  0  0  0  0  0
   37.9880   25.1120   37.2330 C   0  0  0  0  0  0  0  0  0  0  0  0
   37.7730   25.4160   35.7940 C   0  0  0  0  0  0  0  0  0  0  0  0
   38.5400   24.5420   34.8040 C   0  0  2  0  0  0  0  0  0  0  0  0
   35.6130   21.6430   31.2810 C   0  0  0  0  0  0  0  0  0  0  0  0
   36.9500   21.9060   31.5720 C   0  0  0  0  0  0  0  0  0  0  0  0
   37.4490   21.4370   32.7700 C   0  0  0  0  0  0  0  0  0  0  0  0
   36.5860   20.7450   33.5830 N   0  0  0  0  0  0  0  0  0  0  0  0
   35.2960   20.5060   33.2730 C   0  0  0  0  0  0  0  0  0  0  0  0
   34.8210   20.9640   32.1130 N   0  0  0  0  0  0  0  0  0  0  0  0
   38.7630   21.6050   33.2290 N   0  0  0  0  0  0  0  0  0  0  0  0
   39.3370   22.2210   34.4080 C   0  0  1  0  0  0  0  0  0  0  0  0
   40.4690   22.9900   33.7150 C   0  0  0  0  0  0  0  0  0  0  0  0
   41.1300   21.7430   33.0630 C   0  0  0  0  0  0  0  0  0  0  0  0
   39.9160   21.1110   32.4760 C   0  0  0  0  0  0  0  0  0  0  0  0
   38.0400   24.7890   33.5870 O   0  0  0  0  0  0  0  0  0  0  0  0
   37.4220   25.5040   32.7600 C   0  0  0  0  0  0  0  0  0  0  0  0
   36.2220   25.3360   31.9160 C   0  0  0  0  0  0  0  0  0  0  0  0
   35.8740   26.3870   31.1340 C   0  0  0  0  0  0  0  0  0  0  0  0
   36.6320   27.5970   31.1280 C   0  0  0  0  0  0  0  0  0  0  0  0
   37.9900   27.2580   32.3410 S   0  0  0  0  0  0  0  0  0  0  0  0
   37.4069   22.8200   34.9702 H   0  0  0  0  0  0  0  0  0  0  0  0
   38.8376   21.8546   36.9001 H   0  0  0  0  0  0  0  0  0  0  0  0
   39.8075   23.3587   36.8460 H   0  0  0  0  0  0  0  0  0  0  0  0
   36.7743   23.3058   37.1886 H   0  0  0  0  0  0  0  0  0  0  0  0
   37.8921   23.3649   38.5559 H   0  0  0  0  0  0  0  0  0  0  0  0
   37.2696   25.6852   37.8374 H   0  0  0  0  0  0  0  0  0  0  0  0
   39.0156   25.3898   37.5104 H   0  0  0  0  0  0  0  0  0  0  0  0
   36.6996   25.3019   35.5825 H   0  0  0  0  0  0  0  0  0  0  0  0
   38.1545   26.4371   35.6461 H   0  0  0  0  0  0  0  0  0  0  0  0
   39.6138   24.7807   34.8119 H   0  0  0  0  0  0  0  0  0  0  0  0
   35.1953   22.0083   30.3312 H   0  0  0  0  0  0  0  0  0  0  0  0
   37.5854   22.4677   30.8714 H   0  0  0  0  0  0  0  0  0  0  0  0
   34.6480   19.9448   33.9623 H   0  0  0  0  0  0  0  0  0  0  0  0
   39.6147   21.5032   35.1939 H   0  0  0  0  0  0  0  0  0  0  0  0
   40.1002   23.7134   32.9729 H   0  0  0  0  0  0  0  0  0  0  0  0
   41.1067   23.6255   34.3470 H   0  0  0  0  0  0  0  0  0  0  0  0
   41.8631   22.0215   32.2917 H   0  0  0  0  0  0  0  0  0  0  0  0
   41.7101   21.1053   33.7463 H   0  0  0  0  0  0  0  0  0  0  0  0
   39.8213   21.3897   31.4161 H   0  0  0  0  0  0  0  0  0  0  0  0
   39.9798   20.0144   32.5350 H   0  0  0  0  0  0  0  0  0  0  0  0
   35.6389   24.4033   31.9216 H   0  0  0  0  0  0  0  0  0  0  0  0
   34.9868   26.3058   30.4888 H   0  0  0  0  0  0  0  0  0  0  0  0
   36.4525   28.5112   30.5432 H   0  0  0  0  0  0  0  0  0  0  0  0
  1  2  1  0
  2  3  1  0
  4  3  1  0
  5  4  1  0
  6  1  1  0
  6  5  1  0
  7  8  2  0
  7 12  1  0
  8  9  1  0
  9 13  1  0
  9 10  2  0
 11 10  1  0
 12 11  2  0
 13 14  1  0
 14  1  1  0
 15 14  1  0
 16 15  1  0
 17 16  1  0
 17 13  1  0
 18  6  1  0
 19 18  1  0
 20 19  2  0
 21 20  1  0
 22 21  2  0
 22 23  1  0
 23 19  1  0
  1 24  1  1
  2 25  1  0
  2 26  1  0
  3 27  1  0
  3 28  1  0
  4 29  1  0
  4 30  1  0
  5 31  1  0
  5 32  1  0
  6 33  1  6
  7 34  1  0
  8 35  1  0
 11 36  1  0
 14 37  1  1
 15 38  1  0
 15 39  1  0
 16 40  1  0
 16 41  1  0
 17 42  1  0
 17 43  1  0
 20 44  1  0
 21 45  1  0
 22 46  1  0
M  ISO  8  24  13  25  13  26  13  27  13  28  13  29  13  30  13  31  13
M  ISO  8  32  13  33  13  34  14  35  14  36  14  37  13  38  13  39  13
M  ISO  7  40  13  41  13  42  13  43  13  44  14  45  14  46  14
M  END
>  <minimizedAffinity>  (1) 
-5.01310778

>  <minimizedRMSD>  (1) 
5.5666256

$$$$
