
     RDKit          3D

 55 58  0  0  1  0  0  0  0  0999 V2000
   38.8200   23.1860   31.3210 C   0  0  1  0  0  0  0  0  0  0  0  0
   39.7780   23.7010   30.2570 C   0  0  0  0  0  0  0  0  0  0  0  0
   41.0180   22.8620   30.2950 C   0  0  0  0  0  0  0  0  0  0  0  0
   41.7040   23.2240   31.6010 C   0  0  0  0  0  0  0  0  0  0  0  0
   40.8240   22.8730   32.7710 C   0  0  0  0  0  0  0  0  0  0  0  0
   39.3900   23.3930   32.6730 C   0  0  2  0  0  0  0  0  0  0  0  0
   35.4010   19.8850   32.9950 C   0  0  0  0  0  0  0  0  0  0  0  0
   35.5770   21.2620   32.8880 C   0  0  0  0  0  0  0  0  0  0  0  0
   36.1020   21.7610   31.7160 C   0  0  0  0  0  0  0  0  0  0  0  0
   36.4160   20.8560   30.7300 N   0  0  0  0  0  0  0  0  0  0  0  0
   36.2360   19.5290   30.8560 C   0  0  0  0  0  0  0  0  0  0  0  0
   35.7260   19.0500   31.9980 N   0  0  0  0  0  0  0  0  0  0  0  0
   36.3390   23.1080   31.4440 N   0  0  0  0  0  0  0  0  0  0  0  0
   37.5260   23.8540   31.0980 C   0  0  1  0  0  0  0  0  0  0  0  0
   37.3170   25.0720   31.9690 C   0  0  0  0  0  0  0  0  0  0  0  0
   35.9170   25.4520   31.4590 C   0  0  0  0  0  0  0  0  0  0  0  0
   35.2680   24.1120   31.4740 C   0  0  0  0  0  0  0  0  0  0  0  0
   38.6760   22.8250   33.6630 O   0  0  0  0  0  0  0  0  0  0  0  0
   38.1340   23.4670   34.6950 C   0  0  0  0  0  0  0  0  0  0  0  0
   37.6540   22.5690   35.7970 C   0  0  0  0  0  0  0  0  0  0  0  0
   37.8310   23.1780   37.1710 C   0  0  0  0  0  0  0  0  0  0  0  0
   39.2920   23.1140   37.5980 C   0  0  0  0  0  0  0  0  0  0  0  0
   40.0790   23.1980   36.2830 C   0  0  0  0  0  0  0  0  0  0  0  0
   39.3290   24.1920   35.4030 C   0  0  0  0  0  0  0  0  0  0  0  0
   38.6615   22.0999   31.2490 H   0  0  0  0  0  0  0  0  0  0  0  0
   40.0329   24.7511   30.4629 H   0  0  0  0  0  0  0  0  0  0  0  0
   39.3095   23.6401   29.2636 H   0  0  0  0  0  0  0  0  0  0  0  0
   40.7608   21.7926   30.2779 H   0  0  0  0  0  0  0  0  0  0  0  0
   41.6659   23.0464   29.4254 H   0  0  0  0  0  0  0  0  0  0  0  0
   42.6501   22.6684   31.6796 H   0  0  0  0  0  0  0  0  0  0  0  0
   41.8991   24.3065   31.6134 H   0  0  0  0  0  0  0  0  0  0  0  0
   40.7856   21.7768   32.8536 H   0  0  0  0  0  0  0  0  0  0  0  0
   41.2703   23.3591   33.6511 H   0  0  0  0  0  0  0  0  0  0  0  0
   39.3620   24.4841   32.8097 H   0  0  0  0  0  0  0  0  0  0  0  0
   34.9833   19.4704   33.9243 H   0  0  0  0  0  0  0  0  0  0  0  0
   35.3045   21.9328   33.7161 H   0  0  0  0  0  0  0  0  0  0  0  0
   36.5033   18.8482   30.0344 H   0  0  0  0  0  0  0  0  0  0  0  0
   37.6175   24.0377   30.0173 H   0  0  0  0  0  0  0  0  0  0  0  0
   37.3184   24.8246   33.0408 H   0  0  0  0  0  0  0  0  0  0  0  0
   38.0871   25.8546   31.9025 H   0  0  0  0  0  0  0  0  0  0  0  0
   35.9527   25.8777   30.4453 H   0  0  0  0  0  0  0  0  0  0  0  0
   35.4016   26.2247   32.0483 H   0  0  0  0  0  0  0  0  0  0  0  0
   34.6200   23.9977   30.5925 H   0  0  0  0  0  0  0  0  0  0  0  0
   34.6455   23.9907   32.3728 H   0  0  0  0  0  0  0  0  0  0  0  0
   37.3054   24.0696   34.2945 H   0  0  0  0  0  0  0  0  0  0  0  0
   36.5853   22.3610   35.6401 H   0  0  0  0  0  0  0  0  0  0  0  0
   38.2587   21.6508   35.7621 H   0  0  0  0  0  0  0  0  0  0  0  0
   37.5068   24.2288   37.1458 H   0  0  0  0  0  0  0  0  0  0  0  0
   37.2240   22.6114   37.8925 H   0  0  0  0  0  0  0  0  0  0  0  0
   39.5424   23.9592   38.2560 H   0  0  0  0  0  0  0  0  0  0  0  0
   39.5226   22.2011   38.1667 H   0  0  0  0  0  0  0  0  0  0  0  0
   41.1026   23.5531   36.4729 H   0  0  0  0  0  0  0  0  0  0  0  0
   40.1583   22.2134   35.7990 H   0  0  0  0  0  0  0  0  0  0  0  0
   40.0133   24.5978   34.6433 H   0  0  0  0  0  0  0  0  0  0  0  0
   38.9424   25.0127   36.0252 H   0  0  0  0  0  0  0  0  0  0  0  0
  1  6  1  0
  2  3  1  0
  2  1  1  0
  3  4  1  0
  4  5  1  0
  6  5  1  0
  6 18  1  0
  8  7  2  0
  9  8  1  0
 10 11  1  0
 10  9  2  0
 11 12  2  0
 12  7  1  0
 13 17  1  0
 13  9  1  0
 14  1  1  0
 14 13  1  0
 14 15  1  0
 16 17  1  0
 16 15  1  0
 18 19  1  0
 19 24  1  0
 19 20  1  0
 20 21  1  0
 21 22  1  0
 23 22  1  0
 24 23  1  0
  1 25  1  6
  2 26  1  0
  2 27  1  0
  3 28  1  0
  3 29  1  0
  4 30  1  0
  4 31  1  0
  5 32  1  0
  5 33  1  0
  6 34  1  1
  7 35  1  0
  8 36  1  0
 11 37  1  0
 14 38  1  6
 15 39  1  0
 15 40  1  0
 16 41  1  0
 16 42  1  0
 17 43  1  0
 17 44  1  0
 19 45  1  0
 20 46  1  0
 20 47  1  0
 21 48  1  0
 21 49  1  0
 22 50  1  0
 22 51  1  0
 23 52  1  0
 23 53  1  0
 24 54  1  0
 24 55  1  0
M  ISO  8  25  13  26  13  27  13  28  13  29  13  30  13  31  13  32  13
M  ISO  8  33  13  34  13  35  14  36  14  37  14  38  13  39  13  40  13
M  ISO  8  41  13  42  13  43  13  44  13  45  13  46  13  47  13  48  13
M  ISO  7  49  13  50  13  51  13  52  13  53  13  54  13  55  13
M  END
>  <minimizedAffinity>  (1) 
-5.01295805

>  <minimizedRMSD>  (1) 
4.14359283

$$$$
