
     RDKit          3D

 47 50  0  0  1  0  0  0  0  0999 V2000
   38.1910   26.8840   33.6850 C   0  0  1  0  0  0  0  0  0  0  0  0
   37.9910   27.6320   34.9960 C   0  0  0  0  0  0  0  0  0  0  0  0
   38.7710   26.9350   36.0650 C   0  0  0  0  0  0  0  0  0  0  0  0
   38.0780   25.5850   36.2830 C   0  0  0  0  0  0  0  0  0  0  0  0
   38.0610   24.7890   35.0260 C   0  0  0  0  0  0  0  0  0  0  0  0
   37.5790   25.5310   33.7820 C   0  0  2  0  0  0  0  0  0  0  0  0
   40.8050   25.5570   29.5800 C   0  0  0  0  0  0  0  0  0  0  0  0
   39.5290   26.0040   29.9210 C   0  0  0  0  0  0  0  0  0  0  0  0
   39.4350   27.0280   30.8520 C   0  0  0  0  0  0  0  0  0  0  0  0
   40.6030   27.5300   31.3710 N   0  0  0  0  0  0  0  0  0  0  0  0
   41.8240   27.0810   31.0250 C   0  0  0  0  0  0  0  0  0  0  0  0
   41.9120   26.0850   30.1200 N   0  0  0  0  0  0  0  0  0  0  0  0
   38.2400   27.5920   31.3030 N   0  0  0  0  0  0  0  0  0  0  0  0
   37.6380   27.7220   32.6080 C   0  0  1  0  0  0  0  0  0  0  0  0
   36.1980   27.3580   32.2570 C   0  0  0  0  0  0  0  0  0  0  0  0
   36.0080   28.4110   31.1430 C   0  0  0  0  0  0  0  0  0  0  0  0
   37.2840   28.2280   30.3910 C   0  0  0  0  0  0  0  0  0  0  0  0
   37.9280   24.7470   32.7140 O   0  0  0  0  0  0  0  0  0  0  0  0
   37.2740   23.6780   32.1480 C   0  0  0  0  0  0  0  0  0  0  0  0
   35.9850   23.5930   31.6640 C   0  0  0  0  0  0  0  0  0  0  0  0
   35.5490   22.3900   31.1340 C   0  0  0  0  0  0  0  0  0  0  0  0
   36.3700   21.3270   31.0930 N   0  0  0  0  0  0  0  0  0  0  0  0
   37.6420   21.4080   31.5720 C   0  0  0  0  0  0  0  0  0  0  0  0
   38.0890   22.5850   32.0970 N   0  0  0  0  0  0  0  0  0  0  0  0
   39.2534   26.7090   33.4596 H   0  0  0  0  0  0  0  0  0  0  0  0
   38.3487   28.6669   34.8908 H   0  0  0  0  0  0  0  0  0  0  0  0
   36.9233   27.6500   35.2601 H   0  0  0  0  0  0  0  0  0  0  0  0
   39.8112   26.7826   35.7412 H   0  0  0  0  0  0  0  0  0  0  0  0
   38.8009   27.5264   36.9920 H   0  0  0  0  0  0  0  0  0  0  0  0
   38.6196   25.0230   37.0581 H   0  0  0  0  0  0  0  0  0  0  0  0
   37.0400   25.7689   36.5971 H   0  0  0  0  0  0  0  0  0  0  0  0
   39.0854   24.4370   34.8344 H   0  0  0  0  0  0  0  0  0  0  0  0
   37.3362   23.9786   35.1928 H   0  0  0  0  0  0  0  0  0  0  0  0
   36.4920   25.6961   33.8150 H   0  0  0  0  0  0  0  0  0  0  0  0
   40.9061   24.7453   28.8445 H   0  0  0  0  0  0  0  0  0  0  0  0
   38.6298   25.5608   29.4683 H   0  0  0  0  0  0  0  0  0  0  0  0
   42.7302   27.5170   31.4707 H   0  0  0  0  0  0  0  0  0  0  0  0
   37.8046   28.7140   33.0532 H   0  0  0  0  0  0  0  0  0  0  0  0
   36.1028   26.3277   31.8837 H   0  0  0  0  0  0  0  0  0  0  0  0
   35.4697   27.3743   33.0812 H   0  0  0  0  0  0  0  0  0  0  0  0
   35.1305   28.1896   30.5177 H   0  0  0  0  0  0  0  0  0  0  0  0
   35.8244   29.4349   31.5006 H   0  0  0  0  0  0  0  0  0  0  0  0
   37.1154   27.5854   29.5143 H   0  0  0  0  0  0  0  0  0  0  0  0
   37.6689   29.1953   30.0357 H   0  0  0  0  0  0  0  0  0  0  0  0
   35.3154   24.4651   31.6984 H   0  0  0  0  0  0  0  0  0  0  0  0
   34.5240   22.3042   30.7441 H   0  0  0  0  0  0  0  0  0  0  0  0
   38.3044   20.5306   31.5359 H   0  0  0  0  0  0  0  0  0  0  0  0
  1  6  1  0
  1  2  1  0
  2  3  1  0
  3  4  1  0
  5  4  1  0
  6  5  1  0
  7  8  2  0
  7 12  1  0
  8  9  1  0
  9 13  1  0
  9 10  2  0
 11 10  1  0
 12 11  2  0
 13 14  1  0
 14  1  1  0
 15 14  1  0
 16 15  1  0
 17 16  1  0
 17 13  1  0
 18  6  1  0
 19 18  1  0
 20 19  2  0
 21 20  1  0
 22 21  2  0
 22 23  1  0
 23 24  2  0
 24 19  1  0
  1 25  1  6
  2 26  1  0
  2 27  1  0
  3 28  1  0
  3 29  1  0
  4 30  1  0
  4 31  1  0
  5 32  1  0
  5 33  1  0
  6 34  1  1
  7 35  1  0
  8 36  1  0
 11 37  1  0
 14 38  1  1
 15 39  1  0
 15 40  1  0
 16 41  1  0
 16 42  1  0
 17 43  1  0
 17 44  1  0
 20 45  1  0
 21 46  1  0
 23 47  1  0
M  ISO  8  25  13  26  13  27  13  28  13  29  13  30  13  31  13  32  13
M  ISO  8  33  13  34  13  35  14  36  14  37  14  38  13  39  13  40  13
M  ISO  7  41  13  42  13  43  13  44  13  45  14  46  14  47  14
M  END
>  <minimizedAffinity>  (1) 
-4.88900852

>  <minimizedRMSD>  (1) 
6.34822702

$$$$
