
     RDKit          3D

 43 45  0  0  1  0  0  0  0  0999 V2000
   37.8780   21.3470   33.6340 C   0  0  1  0  0  0  0  0  0  0  0  0
   38.8970   22.2390   32.9480 C   0  0  0  0  0  0  0  0  0  0  0  0
   40.1200   22.3140   33.8050 C   0  0  0  0  0  0  0  0  0  0  0  0
   39.7110   23.1080   35.0480 C   0  0  0  0  0  0  0  0  0  0  0  0
   38.6110   22.4010   35.7760 C   0  0  0  0  0  0  0  0  0  0  0  0
   37.4240   21.9850   34.8930 C   0  0  2  0  0  0  0  0  0  0  0  0
   39.1000   16.9100   31.5710 C   0  0  0  0  0  0  0  0  0  0  0  0
   37.9630   17.6450   31.9040 C   0  0  0  0  0  0  0  0  0  0  0  0
   37.9660   18.9970   31.6190 C   0  0  0  0  0  0  0  0  0  0  0  0
   39.0870   19.5260   31.0270 N   0  0  0  0  0  0  0  0  0  0  0  0
   40.1760   18.7980   30.7130 C   0  0  0  0  0  0  0  0  0  0  0  0
   40.1720   17.4840   30.9910 N   0  0  0  0  0  0  0  0  0  0  0  0
   36.9110   19.8750   31.8820 N   0  0  0  0  0  0  0  0  0  0  0  0
   36.7970   21.0780   32.6700 C   0  0  1  0  0  0  0  0  0  0  0  0
   35.4550   20.8170   33.3430 C   0  0  0  0  0  0  0  0  0  0  0  0
   34.6440   20.5780   32.0500 C   0  0  0  0  0  0  0  0  0  0  0  0
   35.5740   19.6790   31.3150 C   0  0  0  0  0  0  0  0  0  0  0  0
   36.6750   21.1420   35.6650 O   0  0  0  0  0  0  0  0  0  0  0  0
   35.9400   21.3890   36.8050 C   0  0  0  0  0  0  0  0  0  0  0  0
   34.7710   20.6900   37.2020 N   0  0  0  0  0  0  0  0  0  0  0  0
   36.3010   22.3140   37.6060 O   0  0  0  0  0  0  0  0  0  0  0  0
   38.3056   20.3784   33.9321 H   0  0  0  0  0  0  0  0  0  0  0  0
   39.1578   21.8166   31.9664 H   0  0  0  0  0  0  0  0  0  0  0  0
   38.4777   23.2456   32.8031 H   0  0  0  0  0  0  0  0  0  0  0  0
   40.4519   21.3041   34.0878 H   0  0  0  0  0  0  0  0  0  0  0  0
   40.9563   22.7938   33.2755 H   0  0  0  0  0  0  0  0  0  0  0  0
   40.5797   23.2115   35.7148 H   0  0  0  0  0  0  0  0  0  0  0  0
   39.3545   24.1012   34.7374 H   0  0  0  0  0  0  0  0  0  0  0  0
   39.0311   21.4942   36.2357 H   0  0  0  0  0  0  0  0  0  0  0  0
   38.2159   23.1150   36.5136 H   0  0  0  0  0  0  0  0  0  0  0  0
   36.8310   22.8528   34.5685 H   0  0  0  0  0  0  0  0  0  0  0  0
   39.1224   15.8318   31.7878 H   0  0  0  0  0  0  0  0  0  0  0  0
   37.0936   17.1651   32.3772 H   0  0  0  0  0  0  0  0  0  0  0  0
   41.0496   19.2695   30.2392 H   0  0  0  0  0  0  0  0  0  0  0  0
   36.8723   21.9904   32.0602 H   0  0  0  0  0  0  0  0  0  0  0  0
   35.4763   19.9326   33.9967 H   0  0  0  0  0  0  0  0  0  0  0  0
   35.0829   21.5983   34.0220 H   0  0  0  0  0  0  0  0  0  0  0  0
   33.6822   20.0864   32.2579 H   0  0  0  0  0  0  0  0  0  0  0  0
   34.3628   21.4926   31.5073 H   0  0  0  0  0  0  0  0  0  0  0  0
   35.5778   19.9351   30.2452 H   0  0  0  0  0  0  0  0  0  0  0  0
   35.2597   18.6295   31.4140 H   0  0  0  0  0  0  0  0  0  0  0  0
   34.2882   20.9477   38.0746 H   0  0  0  0  0  0  0  0  0  0  0  0
   34.4051   19.9248   36.6176 H   0  0  0  0  0  0  0  0  0  0  0  0
  1  6  1  0
  2  1  1  0
  2  3  1  0
  3  4  1  0
  4  5  1  0
  6 18  1  0
  6  5  1  0
  7  8  2  0
  9 13  1  0
  9  8  1  0
 10  9  2  0
 11 12  2  0
 11 10  1  0
 12  7  1  0
 13 14  1  0
 14 15  1  0
 14  1  1  0
 16 15  1  0
 17 13  1  0
 17 16  1  0
 18 19  1  0
 19 20  1  0
 19 21  2  0
  1 22  1  1
  2 23  1  0
  2 24  1  0
  3 25  1  0
  3 26  1  0
  4 27  1  0
  4 28  1  0
  5 29  1  0
  5 30  1  0
  6 31  1  6
  7 32  1  0
  8 33  1  0
 11 34  1  0
 14 35  1  6
 15 36  1  0
 15 37  1  0
 16 38  1  0
 16 39  1  0
 17 40  1  0
 17 41  1  0
 20 42  1  0
 20 43  1  0
M  ISO  8  22  13  23  13  24  13  25  13  26  13  27  13  28  13  29  13
M  ISO  8  30  13  31  13  32  14  33  14  34  14  35  13  36  13  37  13
M  ISO  4  38  13  39  13  40  13  41  13
M  END
>  <minimizedAffinity>  (1) 
-4.05907869

>  <minimizedRMSD>  (1) 
1.18009079

$$$$
