
     RDKit          3D

 42 44  0  0  1  0  0  0  0  0999 V2000
   40.2600   19.2470   31.2210 C   0  0  0  0  0  0  0  0  0  0  0  0
   38.9520   19.4240   31.6740 C   0  0  0  0  0  0  0  0  0  0  0  0
   38.1050   20.2030   30.9020 C   0  0  0  0  0  0  0  0  0  0  0  0
   38.6130   20.7460   29.7480 N   0  0  0  0  0  0  0  0  0  0  0  0
   39.8820   20.5570   29.3340 C   0  0  0  0  0  0  0  0  0  0  0  0
   40.6990   19.8040   30.0780 N   0  0  0  0  0  0  0  0  0  0  0  0
   36.7730   20.4800   31.2040 N   0  0  0  0  0  0  0  0  0  0  0  0
   36.0410   21.7030   31.4270 C   0  0  1  0  0  0  0  0  0  0  0  0
   35.2130   21.2870   32.6360 C   0  0  0  0  0  0  0  0  0  0  0  0
   34.5720   20.0340   32.0010 C   0  0  0  0  0  0  0  0  0  0  0  0
   35.7700   19.4210   31.3600 C   0  0  0  0  0  0  0  0  0  0  0  0
   36.8320   22.9220   31.6660 C   0  0  1  0  0  0  0  0  0  0  0  0
   36.0610   24.0930   31.0810 C   0  0  0  0  0  0  0  0  0  0  0  0
   36.9470   25.2960   31.0730 C   0  0  0  0  0  0  0  0  0  0  0  0
   37.1460   25.6750   32.5460 C   0  0  0  0  0  0  0  0  0  0  0  0
   37.8010   24.5520   33.2870 C   0  0  0  0  0  0  0  0  0  0  0  0
   37.1340   23.1830   33.0960 C   0  0  2  0  0  0  0  0  0  0  0  0
   38.0040   22.2740   33.6160 O   0  0  0  0  0  0  0  0  0  0  0  0
   38.4900   22.0560   34.8690 C   0  0  0  0  0  0  0  0  0  0  0  0
   39.7570   22.1000   35.0290 O   0  0  0  0  0  0  0  0  0  0  0  0
   37.7230   21.7900   35.9970 O   0  0  0  0  0  0  0  0  0  0  0  0
   40.9526   18.6338   31.8163 H   0  0  0  0  0  0  0  0  0  0  0  0
   38.6058   18.9618   32.6102 H   0  0  0  0  0  0  0  0  0  0  0  0
   40.2394   21.0146   28.3997 H   0  0  0  0  0  0  0  0  0  0  0  0
   35.4841   22.0288   30.5361 H   0  0  0  0  0  0  0  0  0  0  0  0
   35.8359   21.0445   33.5096 H   0  0  0  0  0  0  0  0  0  0  0  0
   34.5232   22.0405   33.0439 H   0  0  0  0  0  0  0  0  0  0  0  0
   34.1328   19.3713   32.7613 H   0  0  0  0  0  0  0  0  0  0  0  0
   33.7366   20.2401   31.3157 H   0  0  0  0  0  0  0  0  0  0  0  0
   35.5010   19.0097   30.3759 H   0  0  0  0  0  0  0  0  0  0  0  0
   36.1640   18.6002   31.9772 H   0  0  0  0  0  0  0  0  0  0  0  0
   37.8103   22.7838   31.1824 H   0  0  0  0  0  0  0  0  0  0  0  0
   35.7511   23.8551   30.0527 H   0  0  0  0  0  0  0  0  0  0  0  0
   35.1655   24.2920   31.6881 H   0  0  0  0  0  0  0  0  0  0  0  0
   37.9132   25.0575   30.6045 H   0  0  0  0  0  0  0  0  0  0  0  0
   36.5043   26.1223   30.4975 H   0  0  0  0  0  0  0  0  0  0  0  0
   37.7821   26.5703   32.6076 H   0  0  0  0  0  0  0  0  0  0  0  0
   36.1645   25.8784   32.9990 H   0  0  0  0  0  0  0  0  0  0  0  0
   38.8432   24.4764   32.9433 H   0  0  0  0  0  0  0  0  0  0  0  0
   37.7148   24.7933   34.3567 H   0  0  0  0  0  0  0  0  0  0  0  0
   36.1612   23.1288   33.6066 H   0  0  0  0  0  0  0  0  0  0  0  0
   38.1631   21.6437   36.8716 H   0  0  0  0  0  0  0  0  0  0  0  0
  1  2  2  0
  3  7  1  0
  3  2  1  0
  4  3  2  0
  5  4  1  0
  5  6  2  0
  6  1  1  0
  7 11  1  0
  7  8  1  0
  8 12  1  0
  8  9  1  0
 10  9  1  0
 11 10  1  0
 12 17  1  0
 13 12  1  0
 14 13  1  0
 14 15  1  0
 15 16  1  0
 17 16  1  0
 17 18  1  0
 18 19  1  0
 19 20  2  0
 19 21  1  0
  1 22  1  0
  2 23  1  0
  5 24  1  0
  8 25  1  6
  9 26  1  0
  9 27  1  0
 10 28  1  0
 10 29  1  0
 11 30  1  0
 11 31  1  0
 12 32  1  6
 13 33  1  0
 13 34  1  0
 14 35  1  0
 14 36  1  0
 15 37  1  0
 15 38  1  0
 16 39  1  0
 16 40  1  0
 17 41  1  1
 21 42  1  0
M  ISO  8  22  14  23  14  24  14  25  13  26  13  27  13  28  13  29  13
M  ISO  8  30  13  31  13  32  13  33  13  34  13  35  13  36  13  37  13
M  ISO  5  38  13  39  13  40  13  41  13  42   3
M  END
>  <minimizedAffinity>  (1) 
-4.26218224

>  <minimizedRMSD>  (1) 
2.85030985

$$$$
