
     RDKit          3D

 51 53  0  0  1  0  0  0  0  0999 V2000
   36.8630   22.9130   32.5080 C   0  0  0  0  0  0  0  0  0  0  0  0
   37.7000   23.8660   33.0830 C   0  0  0  0  0  0  0  0  0  0  0  0
   39.0540   23.7780   32.8290 C   0  0  0  0  0  0  0  0  0  0  0  0
   39.4810   22.7490   32.0220 N   0  0  0  0  0  0  0  0  0  0  0  0
   38.6570   21.8370   31.4740 C   0  0  0  0  0  0  0  0  0  0  0  0
   37.3360   21.9320   31.7290 N   0  0  0  0  0  0  0  0  0  0  0  0
   40.0230   24.6530   33.3210 N   0  0  0  0  0  0  0  0  0  0  0  0
   41.1950   24.4630   34.1380 C   0  0  1  0  0  0  0  0  0  0  0  0
   41.0520   25.6610   35.0550 C   0  0  0  0  0  0  0  0  0  0  0  0
   40.9540   26.7450   33.9730 C   0  0  0  0  0  0  0  0  0  0  0  0
   39.9930   26.0920   33.0410 C   0  0  0  0  0  0  0  0  0  0  0  0
   41.3130   23.1840   34.8570 C   0  0  1  0  0  0  0  0  0  0  0  0
   42.7860   22.8400   34.9200 C   0  0  0  0  0  0  0  0  0  0  0  0
   42.9330   21.4330   35.4140 C   0  0  0  0  0  0  0  0  0  0  0  0
   42.5200   21.5050   36.8910 C   0  0  0  0  0  0  0  0  0  0  0  0
   41.0670   21.8900   36.9790 C   0  0  0  0  0  0  0  0  0  0  0  0
   40.7150   23.1890   36.2170 C   0  0  2  0  0  0  0  0  0  0  0  0
   39.4210   23.3510   36.2510 O   0  0  0  0  0  0  0  0  0  0  0  0
   38.4620   23.6000   37.0480 C   0  0  0  0  0  0  0  0  0  0  0  0
   38.5460   23.7090   38.5280 C   0  0  0  0  0  0  0  0  0  0  0  0
   37.1810   22.7410   36.8010 C   0  0  0  0  0  0  0  0  0  0  0  0
   37.9360   24.9950   36.5910 C   0  0  0  0  0  0  0  0  0  0  0  0
   35.7812   22.9678   32.6995 H   0  0  0  0  0  0  0  0  0  0  0  0
   37.2942   24.6652   33.7207 H   0  0  0  0  0  0  0  0  0  0  0  0
   39.0511   21.0339   30.8339 H   0  0  0  0  0  0  0  0  0  0  0  0
   42.1216   24.4031   33.5482 H   0  0  0  0  0  0  0  0  0  0  0  0
   40.1443   25.6064   35.6739 H   0  0  0  0  0  0  0  0  0  0  0  0
   41.8473   25.7950   35.8030 H   0  0  0  0  0  0  0  0  0  0  0  0
   40.5562   27.6885   34.3749 H   0  0  0  0  0  0  0  0  0  0  0  0
   41.9133   27.0369   33.5207 H   0  0  0  0  0  0  0  0  0  0  0  0
   40.2928   26.2791   31.9993 H   0  0  0  0  0  0  0  0  0  0  0  0
   38.9792   26.4950   33.1818 H   0  0  0  0  0  0  0  0  0  0  0  0
   40.7368   22.4259   34.3063 H   0  0  0  0  0  0  0  0  0  0  0  0
   43.2293   22.9279   33.9171 H   0  0  0  0  0  0  0  0  0  0  0  0
   43.3022   23.5313   35.6023 H   0  0  0  0  0  0  0  0  0  0  0  0
   42.2714   20.7532   34.8570 H   0  0  0  0  0  0  0  0  0  0  0  0
   43.9538   21.0452   35.2812 H   0  0  0  0  0  0  0  0  0  0  0  0
   42.6700   20.5231   37.3635 H   0  0  0  0  0  0  0  0  0  0  0  0
   43.1339   22.2552   37.4109 H   0  0  0  0  0  0  0  0  0  0  0  0
   40.4655   21.0695   36.5608 H   0  0  0  0  0  0  0  0  0  0  0  0
   40.8496   22.0745   38.0414 H   0  0  0  0  0  0  0  0  0  0  0  0
   41.1585   24.0704   36.7032 H   0  0  0  0  0  0  0  0  0  0  0  0
   37.9364   22.9180   38.9891 H   0  0  0  0  0  0  0  0  0  0  0  0
   39.5933   23.5966   38.8451 H   0  0  0  0  0  0  0  0  0  0  0  0
   38.1705   24.6931   38.8451 H   0  0  0  0  0  0  0  0  0  0  0  0
   36.7441   22.4480   37.7671 H   0  0  0  0  0  0  0  0  0  0  0  0
   36.4482   23.3310   36.2310 H   0  0  0  0  0  0  0  0  0  0  0  0
   37.4486   21.8391   36.2310 H   0  0  0  0  0  0  0  0  0  0  0  0
   37.7051   25.6074   37.4751 H   0  0  0  0  0  0  0  0  0  0  0  0
   38.7063   25.4977   35.9878 H   0  0  0  0  0  0  0  0  0  0  0  0
   37.0255   24.8639   35.9878 H   0  0  0  0  0  0  0  0  0  0  0  0
  1  2  2  0
  3  2  1  0
  3  7  1  0
  4  3  2  0
  5  6  2  0
  5  4  1  0
  6  1  1  0
  7  8  1  0
  8 12  1  0
  8  9  1  0
 10  9  1  0
 11  7  1  0
 11 10  1  0
 12 13  1  0
 12 17  1  0
 13 14  1  0
 14 15  1  0
 15 16  1  0
 17 18  1  0
 17 16  1  0
 18 19  1  0
 19 20  1  0
 21 19  1  0
 22 19  1  0
  1 23  1  0
  2 24  1  0
  5 25  1  0
  8 26  1  6
  9 27  1  0
  9 28  1  0
 10 29  1  0
 10 30  1  0
 11 31  1  0
 11 32  1  0
 12 33  1  6
 13 34  1  0
 13 35  1  0
 14 36  1  0
 14 37  1  0
 15 38  1  0
 15 39  1  0
 16 40  1  0
 16 41  1  0
 17 42  1  1
 20 43  1  0
 20 44  1  0
 20 45  1  0
 21 46  1  0
 21 47  1  0
 21 48  1  0
 22 49  1  0
 22 50  1  0
 22 51  1  0
M  ISO  8  23  14  24  14  25  14  26  13  27  13  28  13  29  13  30  13
M  ISO  8  31  13  32  13  33  13  34  13  35  13  36  13  37  13  38  13
M  ISO  8  39  13  40  13  41  13  42  13  43   8  44   8  45   8  46   8
M  ISO  5  47   8  48   8  49   8  50   8  51   8
M  END
>  <minimizedAffinity>  (1) 
-4.54658604

>  <minimizedRMSD>  (1) 
4.70765591

$$$$
