
     RDKit          3D

 32 35  0  0  0  0  0  0  0  0999 V2000
   41.1740   22.5650   36.0780 C   0  0  0  0  0  0  0  0  0  0  0  0
   41.8900   21.4220   36.4340 C   0  0  0  0  0  0  0  0  0  0  0  0
   43.2820   21.4870   36.5110 C   0  0  0  0  0  0  0  0  0  0  0  0
   43.8590   22.7040   36.2230 N   0  0  0  0  0  0  0  0  0  0  0  0
   43.1340   23.7840   35.8830 C   0  0  0  0  0  0  0  0  0  0  0  0
   41.8040   23.7130   35.8130 N   0  0  0  0  0  0  0  0  0  0  0  0
   43.8430   24.9890   35.6070 N   0  0  0  0  0  0  0  0  0  0  0  0
   43.4090   25.5530   34.4450 C   0  0  0  0  0  0  0  0  0  0  0  0
   43.9900   26.7480   34.0070 C   0  0  0  0  0  0  0  0  0  0  0  0
   44.9890   27.3240   34.7650 C   0  0  0  0  0  0  0  0  0  0  0  0
   45.6100   28.5400   34.3580 N   0  0  0  0  0  0  0  0  0  0  0  0
   45.3750   26.7170   35.9030 N   0  0  0  0  0  0  0  0  0  0  0  0
   44.8190   25.5680   36.3300 C   0  0  0  0  0  0  0  0  0  0  0  0
   45.1010   24.9300   37.3610 O   0  0  0  0  0  0  0  0  0  0  0  0
   39.7480   22.5140   35.9960 N   0  0  0  0  0  0  0  0  0  0  0  0
   38.8070   22.8510   36.8750 C   0  0  0  0  0  0  0  0  0  0  0  0
   37.5860   22.6180   36.3270 N   0  0  0  0  0  0  0  0  0  0  0  0
   37.7970   22.1280   35.0820 C   0  0  0  0  0  0  0  0  0  0  0  0
   36.8820   21.7400   34.1320 C   0  0  0  0  0  0  0  0  0  0  0  0
   37.4000   21.2880   32.9730 N   0  0  0  0  0  0  0  0  0  0  0  0
   38.7160   21.2170   32.7520 C   0  0  0  0  0  0  0  0  0  0  0  0
   39.6310   21.5900   33.6650 N   0  0  0  0  0  0  0  0  0  0  0  0
   39.1720   22.0550   34.8540 C   0  0  0  0  0  0  0  0  0  0  0  0
   41.3638   20.4808   36.6514 H   0  0  0  0  0  0  0  0  0  0  0  0
   43.8873   20.6111   36.7875 H   0  0  0  0  0  0  0  0  0  0  0  0
   42.6112   25.0744   33.8582 H   0  0  0  0  0  0  0  0  0  0  0  0
   43.6554   27.2214   33.0722 H   0  0  0  0  0  0  0  0  0  0  0  0
   46.3542   28.9566   34.9355 H   0  0  0  0  0  0  0  0  0  0  0  0
   45.3147   29.0025   33.4863 H   0  0  0  0  0  0  0  0  0  0  0  0
   38.9887   23.2533   37.8826 H   0  0  0  0  0  0  0  0  0  0  0  0
   35.7974   21.7950   34.3067 H   0  0  0  0  0  0  0  0  0  0  0  0
   39.0665   20.8369   31.7811 H   0  0  0  0  0  0  0  0  0  0  0  0
  1  2  2  0
  2  3  1  0
  4  3  2  0
  5  4  1  0
  6  5  2  0
  6  1  1  0
  7  5  1  0
  7 13  1  0
  8  7  1  0
  9  8  2  0
  9 10  1  0
 10 12  2  0
 11 10  1  0
 12 13  1  0
 13 14  2  0
 15  1  1  0
 15 16  1  0
 17 16  2  0
 18 17  1  0
 19 18  2  0
 20 19  1  0
 21 20  2  0
 21 22  1  0
 22 23  2  0
 23 18  1  0
 23 15  1  0
  2 24  1  0
  3 25  1  0
  8 26  1  0
  9 27  1  0
 11 28  1  0
 11 29  1  0
 16 30  1  0
 19 31  1  0
 21 32  1  0
M  ISO  7  24  14  25  14  26  14  27  14  30  14  31  14  32  14
M  END
>  <minimizedAffinity>  (1) 
-5.06901979

>  <minimizedRMSD>  (1) 
1.73173416

$$$$
