
     RDKit          3D

 37 40  0  0  0  0  0  0  0  0999 V2000
   39.8030   23.4600   35.2480 C   0  0  0  0  0  0  0  0  0  0  0  0
   39.4980   22.6200   36.3280 C   0  0  0  0  0  0  0  0  0  0  0  0
   40.5120   22.2920   37.2410 C   0  0  0  0  0  0  0  0  0  0  0  0
   41.7550   22.8300   37.0030 N   0  0  0  0  0  0  0  0  0  0  0  0
   42.0190   23.6360   35.9550 C   0  0  0  0  0  0  0  0  0  0  0  0
   41.0330   23.9340   35.0960 N   0  0  0  0  0  0  0  0  0  0  0  0
   38.7900   23.8020   34.3140 N   0  0  0  0  0  0  0  0  0  0  0  0
   38.1540   24.9500   34.0930 C   0  0  0  0  0  0  0  0  0  0  0  0
   37.2600   24.7680   33.0810 N   0  0  0  0  0  0  0  0  0  0  0  0
   37.3600   23.4950   32.6910 C   0  0  0  0  0  0  0  0  0  0  0  0
   36.6740   22.8170   31.7060 C   0  0  0  0  0  0  0  0  0  0  0  0
   36.9900   21.5210   31.5340 N   0  0  0  0  0  0  0  0  0  0  0  0
   37.9260   20.9050   32.2790 C   0  0  0  0  0  0  0  0  0  0  0  0
   38.6120   21.5390   33.2480 N   0  0  0  0  0  0  0  0  0  0  0  0
   38.3300   22.8390   33.4560 C   0  0  0  0  0  0  0  0  0  0  0  0
   43.3990   24.1820   35.7650 C   0  0  0  0  0  0  0  0  0  0  0  0
   43.4190   25.4980   35.0460 C   0  0  0  0  0  0  0  0  0  0  0  0
   44.8370   25.8150   34.6810 C   0  0  0  0  0  0  0  0  0  0  0  0
   45.8410   25.6300   35.7590 C   0  0  0  0  0  0  0  0  0  0  0  0
   45.5960   24.4920   36.6910 C   0  0  0  0  0  0  0  0  0  0  0  0
   44.1180   24.3740   37.0830 C   0  0  0  0  0  0  0  0  0  0  0  0
   38.4799   22.2242   36.4578 H   0  0  0  0  0  0  0  0  0  0  0  0
   40.3220   21.6371   38.1041 H   0  0  0  0  0  0  0  0  0  0  0  0
   38.3223   25.8908   34.6376 H   0  0  0  0  0  0  0  0  0  0  0  0
   35.9068   23.3110   31.0917 H   0  0  0  0  0  0  0  0  0  0  0  0
   38.1387   19.8426   32.0888 H   0  0  0  0  0  0  0  0  0  0  0  0
   43.9120   23.4261   35.1522 H   0  0  0  0  0  0  0  0  0  0  0  0
   42.8063   25.4330   34.1347 H   0  0  0  0  0  0  0  0  0  0  0  0
   43.0089   26.2883   35.6920 H   0  0  0  0  0  0  0  0  0  0  0  0
   45.1218   25.1655   33.8401 H   0  0  0  0  0  0  0  0  0  0  0  0
   44.8502   26.8889   34.4431 H   0  0  0  0  0  0  0  0  0  0  0  0
   46.8201   25.4711   35.2836 H   0  0  0  0  0  0  0  0  0  0  0  0
   45.7835   26.5379   36.3774 H   0  0  0  0  0  0  0  0  0  0  0  0
   45.9083   23.5583   36.2003 H   0  0  0  0  0  0  0  0  0  0  0  0
   46.1756   24.6748   37.6079 H   0  0  0  0  0  0  0  0  0  0  0  0
   43.7733   25.2897   37.5857 H   0  0  0  0  0  0  0  0  0  0  0  0
   43.9333   23.5499   37.7879 H   0  0  0  0  0  0  0  0  0  0  0  0
  1  2  2  0
  2  3  1  0
  4  3  2  0
  5  4  1  0
  6  1  1  0
  6  5  2  0
  7  1  1  0
  8  7  1  0
  9  8  2  0
 10  9  1  0
 10 15  2  0
 11 10  1  0
 12 11  2  0
 12 13  1  0
 13 14  2  0
 14 15  1  0
 15  7  1  0
 16  5  1  0
 16 21  1  0
 17 16  1  0
 18 17  1  0
 18 19  1  0
 19 20  1  0
 20 21  1  0
  2 22  1  0
  3 23  1  0
  8 24  1  0
 11 25  1  0
 13 26  1  0
 16 27  1  0
 17 28  1  0
 17 29  1  0
 18 30  1  0
 18 31  1  0
 19 32  1  0
 19 33  1  0
 20 34  1  0
 20 35  1  0
 21 36  1  0
 21 37  1  0
M  ISO  8  22  14  23  14  24  14  25  14  26  14  27  13  28  13  29  13
M  ISO  8  30  13  31  13  32  13  33  13  34  13  35  13  36  13  37  13
M  END
>  <minimizedAffinity>  (1) 
-4.50296879

>  <minimizedRMSD>  (1) 
2.92625332

$$$$
