
     RDKit          3D

 28 31  0  0  0  0  0  0  0  0999 V2000
   40.7430   23.5840   35.9170 C   0  0  0  0  0  0  0  0  0  0  0  0
   41.7470   22.9530   36.6580 C   0  0  0  0  0  0  0  0  0  0  0  0
   43.0550   23.4580   36.5520 C   0  0  0  0  0  0  0  0  0  0  0  0
   43.2550   24.5300   35.7320 N   0  0  0  0  0  0  0  0  0  0  0  0
   42.2580   25.1060   35.0360 C   0  0  0  0  0  0  0  0  0  0  0  0
   41.0190   24.6220   35.1410 N   0  0  0  0  0  0  0  0  0  0  0  0
   39.4000   23.0960   36.0010 N   0  0  0  0  0  0  0  0  0  0  0  0
   38.4970   23.1770   36.9800 C   0  0  0  0  0  0  0  0  0  0  0  0
   37.3620   22.5560   36.5760 N   0  0  0  0  0  0  0  0  0  0  0  0
   37.5780   22.0890   35.3290 C   0  0  0  0  0  0  0  0  0  0  0  0
   36.7430   21.3920   34.4880 C   0  0  0  0  0  0  0  0  0  0  0  0
   37.2350   21.0570   33.2960 N   0  0  0  0  0  0  0  0  0  0  0  0
   38.4880   21.3800   32.9240 C   0  0  0  0  0  0  0  0  0  0  0  0
   39.3240   22.0580   33.7190 N   0  0  0  0  0  0  0  0  0  0  0  0
   38.8730   22.4240   34.9450 C   0  0  0  0  0  0  0  0  0  0  0  0
   42.5200   26.2520   34.1710 C   0  0  0  0  0  0  0  0  0  0  0  0
   41.4720   26.7560   33.4100 C   0  0  0  0  0  0  0  0  0  0  0  0
   41.9940   27.8350   32.6850 C   0  0  0  0  0  0  0  0  0  0  0  0
   43.3060   27.9430   33.0260 N   0  0  0  0  0  0  0  0  0  0  0  0
   43.6220   27.0060   33.9080 N   0  0  0  0  0  0  0  0  0  0  0  0
   41.5211   22.0905   37.3022 H   0  0  0  0  0  0  0  0  0  0  0  0
   43.8874   23.0049   37.1103 H   0  0  0  0  0  0  0  0  0  0  0  0
   38.6486   23.6665   37.9534 H   0  0  0  0  0  0  0  0  0  0  0  0
   35.7183   21.1239   34.7849 H   0  0  0  0  0  0  0  0  0  0  0  0
   38.8384   21.0744   31.9271 H   0  0  0  0  0  0  0  0  0  0  0  0
   40.4379   26.3819   33.3824 H   0  0  0  0  0  0  0  0  0  0  0  0
   41.4470   28.4731   31.9753 H   0  0  0  0  0  0  0  0  0  0  0  0
   43.9575   28.6486   32.6538 H   0  0  0  0  0  0  0  0  0  0  0  0
  1  7  1  0
  1  2  2  0
  3  2  1  0
  4  3  2  0
  5  6  2  0
  5  4  1  0
  6  1  1  0
  7  8  1  0
  9  8  2  0
 10  9  1  0
 11 10  2  0
 12 11  1  0
 13 12  2  0
 13 14  1  0
 14 15  2  0
 15 10  1  0
 15  7  1  0
 16  5  1  0
 17 16  1  0
 18 19  1  0
 18 17  2  0
 19 20  1  0
 20 16  2  0
  2 21  1  0
  3 22  1  0
  8 23  1  0
 11 24  1  0
 13 25  1  0
 17 26  1  0
 18 27  1  0
 19 28  1  0
M  ISO  8  21  14  22  14  23  14  24  14  25  14  26  14  27  14  28   9
M  END
>  <minimizedAffinity>  (1) 
-4.32666826

>  <minimizedRMSD>  (1) 
0.723933339

$$$$
