
     RDKit          3D

 28 31  0  0  0  0  0  0  0  0999 V2000
   40.6130   23.4600   35.9600 C   0  0  0  0  0  0  0  0  0  0  0  0
   41.6130   22.8580   36.7320 C   0  0  0  0  0  0  0  0  0  0  0  0
   42.9280   23.3150   36.6030 C   0  0  0  0  0  0  0  0  0  0  0  0
   43.1460   24.3320   35.7210 N   0  0  0  0  0  0  0  0  0  0  0  0
   42.1560   24.8880   34.9950 C   0  0  0  0  0  0  0  0  0  0  0  0
   40.8930   24.4520   35.1160 N   0  0  0  0  0  0  0  0  0  0  0  0
   39.2630   23.0090   36.0750 N   0  0  0  0  0  0  0  0  0  0  0  0
   38.3810   23.1170   37.0700 C   0  0  0  0  0  0  0  0  0  0  0  0
   37.2190   22.5270   36.7090 N   0  0  0  0  0  0  0  0  0  0  0  0
   37.4020   22.0490   35.4630 C   0  0  0  0  0  0  0  0  0  0  0  0
   36.5260   21.3630   34.6410 C   0  0  0  0  0  0  0  0  0  0  0  0
   36.9890   21.0090   33.4400 N   0  0  0  0  0  0  0  0  0  0  0  0
   38.2330   21.2970   33.0410 C   0  0  0  0  0  0  0  0  0  0  0  0
   39.1100   21.9610   33.8120 N   0  0  0  0  0  0  0  0  0  0  0  0
   38.6830   22.3420   35.0420 C   0  0  0  0  0  0  0  0  0  0  0  0
   42.4250   25.9830   34.0520 C   0  0  0  0  0  0  0  0  0  0  0  0
   41.5950   26.9010   33.5180 C   0  0  0  0  0  0  0  0  0  0  0  0
   42.0560   27.8350   32.6580 C   0  0  0  0  0  0  0  0  0  0  0  0
   43.4700   27.7600   32.3770 C   0  0  0  0  0  0  0  0  0  0  0  0
   44.0390   26.2830   33.4230 S   0  0  0  0  0  0  0  0  0  0  0  0
   41.3691   22.0410   37.4270 H   0  0  0  0  0  0  0  0  0  0  0  0
   43.7496   22.8741   37.1866 H   0  0  0  0  0  0  0  0  0  0  0  0
   38.5698   23.6099   38.0351 H   0  0  0  0  0  0  0  0  0  0  0  0
   35.5014   21.1218   34.9603 H   0  0  0  0  0  0  0  0  0  0  0  0
   38.5515   20.9762   32.0382 H   0  0  0  0  0  0  0  0  0  0  0  0
   40.5282   26.8894   33.7861 H   0  0  0  0  0  0  0  0  0  0  0  0
   41.4029   28.5958   32.2056 H   0  0  0  0  0  0  0  0  0  0  0  0
   44.0712   28.4027   31.7171 H   0  0  0  0  0  0  0  0  0  0  0  0
  1  7  1  0
  1  2  2  0
  3  2  1  0
  4  3  2  0
  5  6  2  0
  5  4  1  0
  6  1  1  0
  7  8  1  0
  9  8  2  0
 10  9  1  0
 11 10  2  0
 12 11  1  0
 13 12  2  0
 13 14  1  0
 14 15  2  0
 15 10  1  0
 15  7  1  0
 16  5  1  0
 17 16  2  0
 18 17  1  0
 19 18  2  0
 19 20  1  0
 20 16  1  0
  2 21  1  0
  3 22  1  0
  8 23  1  0
 11 24  1  0
 13 25  1  0
 17 26  1  0
 18 27  1  0
 19 28  1  0
M  ISO  8  21  14  22  14  23  14  24  14  25  14  26  14  27  14  28  14
M  END
>  <minimizedAffinity>  (1) 
-4.03815079

>  <minimizedRMSD>  (1) 
0.835963547

$$$$
