
     RDKit          3D

 23 25  0  0  0  0  0  0  0  0999 V2000
   39.8580   23.3020   35.9060 N   0  0  0  0  0  0  0  0  0  0  0  0
   38.9240   23.4410   36.8580 C   0  0  0  0  0  0  0  0  0  0  0  0
   37.7790   22.8360   36.4360 N   0  0  0  0  0  0  0  0  0  0  0  0
   38.0320   22.3310   35.2210 C   0  0  0  0  0  0  0  0  0  0  0  0
   37.2010   21.6270   34.3710 C   0  0  0  0  0  0  0  0  0  0  0  0
   37.7270   21.2430   33.2090 N   0  0  0  0  0  0  0  0  0  0  0  0
   38.9910   21.5190   32.8720 C   0  0  0  0  0  0  0  0  0  0  0  0
   39.8360   22.1980   33.6610 N   0  0  0  0  0  0  0  0  0  0  0  0
   39.3420   22.6090   34.8550 C   0  0  0  0  0  0  0  0  0  0  0  0
   41.2040   23.7480   35.8630 C   0  0  0  0  0  0  0  0  0  0  0  0
   42.2120   22.9980   36.4750 C   0  0  0  0  0  0  0  0  0  0  0  0
   43.5340   23.4640   36.4150 C   0  0  0  0  0  0  0  0  0  0  0  0
   43.7490   24.6430   35.7500 N   0  0  0  0  0  0  0  0  0  0  0  0
   42.7550   25.3360   35.1740 C   0  0  0  0  0  0  0  0  0  0  0  0
   41.4990   24.8810   35.2380 N   0  0  0  0  0  0  0  0  0  0  0  0
   42.9780   26.5610   34.4840 N   0  0  0  0  0  0  0  0  0  0  0  0
   39.0599   23.9576   37.8196 H   0  0  0  0  0  0  0  0  0  0  0  0
   36.1597   21.3957   34.6397 H   0  0  0  0  0  0  0  0  0  0  0  0
   39.3573   21.1704   31.8951 H   0  0  0  0  0  0  0  0  0  0  0  0
   41.9730   22.0585   36.9948 H   0  0  0  0  0  0  0  0  0  0  0  0
   44.3609   22.9080   36.8808 H   0  0  0  0  0  0  0  0  0  0  0  0
   43.9308   26.9455   34.4121 H   0  0  0  0  0  0  0  0  0  0  0  0
   42.1865   27.0628   34.0566 H   0  0  0  0  0  0  0  0  0  0  0  0
  1  2  1  0
  3  2  2  0
  4  3  1  0
  5  4  2  0
  6  5  1  0
  7  6  2  0
  7  8  1  0
  8  9  2  0
  9  4  1  0
  9  1  1  0
 10  1  1  0
 10 11  2  0
 12 11  1  0
 13 12  2  0
 14 15  2  0
 14 13  1  0
 15 10  1  0
 16 14  1  0
  2 17  1  0
  5 18  1  0
  7 19  1  0
 11 20  1  0
 12 21  1  0
 16 22  1  0
 16 23  1  0
M  ISO  5  17  14  18  14  19  14  20  14  21  14
M  END
>  <minimizedAffinity>  (1) 
-3.7744751

>  <minimizedRMSD>  (1) 
0.126424983

$$$$
