
     RDKit          3D

 24 26  0  0  0  0  0  0  0  0999 V2000
   39.8490   23.2630   35.9740 N   0  0  0  0  0  0  0  0  0  0  0  0
   38.9430   23.4470   36.9520 C   0  0  0  0  0  0  0  0  0  0  0  0
   37.7690   22.8700   36.5680 N   0  0  0  0  0  0  0  0  0  0  0  0
   37.9710   22.3410   35.3570 C   0  0  0  0  0  0  0  0  0  0  0  0
   37.0910   21.6480   34.5370 C   0  0  0  0  0  0  0  0  0  0  0  0
   37.5720   21.2330   33.3710 N   0  0  0  0  0  0  0  0  0  0  0  0
   38.8480   21.4630   32.9840 C   0  0  0  0  0  0  0  0  0  0  0  0
   39.7200   22.1340   33.7620 N   0  0  0  0  0  0  0  0  0  0  0  0
   39.2820   22.5760   34.9550 C   0  0  0  0  0  0  0  0  0  0  0  0
   41.2110   23.6720   35.8910 C   0  0  0  0  0  0  0  0  0  0  0  0
   42.1910   22.9470   36.6050 C   0  0  0  0  0  0  0  0  0  0  0  0
   43.5180   23.3860   36.4930 C   0  0  0  0  0  0  0  0  0  0  0  0
   43.7680   24.4720   35.7080 N   0  0  0  0  0  0  0  0  0  0  0  0
   42.7950   25.1310   35.0460 C   0  0  0  0  0  0  0  0  0  0  0  0
   41.5210   24.7220   35.1440 N   0  0  0  0  0  0  0  0  0  0  0  0
   43.2450   26.2960   34.2350 C   0  0  0  0  0  0  0  0  0  0  0  0
   39.1199   23.9741   37.9012 H   0  0  0  0  0  0  0  0  0  0  0  0
   36.0508   21.4531   34.8371 H   0  0  0  0  0  0  0  0  0  0  0  0
   39.1837   21.0910   32.0047 H   0  0  0  0  0  0  0  0  0  0  0  0
   41.9247   22.0761   37.2219 H   0  0  0  0  0  0  0  0  0  0  0  0
   44.3324   22.8698   37.0224 H   0  0  0  0  0  0  0  0  0  0  0  0
   43.5593   27.1097   34.9051 H   0  0  0  0  0  0  0  0  0  0  0  0
   44.0919   25.9958   33.6004 H   0  0  0  0  0  0  0  0  0  0  0  0
   42.4162   26.6430   33.6004 H   0  0  0  0  0  0  0  0  0  0  0  0
  1  2  1  0
  3  2  2  0
  4  3  1  0
  5  4  2  0
  6  5  1  0
  7  6  2  0
  7  8  1  0
  8  9  2  0
  9  4  1  0
  9  1  1  0
 10  1  1  0
 10 11  2  0
 12 11  1  0
 13 12  2  0
 14 15  2  0
 14 13  1  0
 15 10  1  0
 16 14  1  0
  2 17  1  0
  5 18  1  0
  7 19  1  0
 11 20  1  0
 12 21  1  0
 16 22  1  0
 16 23  1  0
 16 24  1  0
M  ISO  8  17  14  18  14  19  14  20  14  21  14  22   8  23   8  24   8
M  END
>  <minimizedAffinity>  (1) 
-3.6068933

>  <minimizedRMSD>  (1) 
0.104494326

$$$$
