
     RDKit          3D

 40 43  0  0  0  0  0  0  0  0999 V2000
   38.5700   24.5110   36.1500 C   0  0  0  0  0  0  0  0  0  0  0  0
   37.8850   24.2660   37.3580 C   0  0  0  0  0  0  0  0  0  0  0  0
   38.5030   23.3780   38.2550 C   0  0  0  0  0  0  0  0  0  0  0  0
   39.6940   22.8320   37.8980 N   0  0  0  0  0  0  0  0  0  0  0  0
   40.3050   23.1070   36.7210 C   0  0  0  0  0  0  0  0  0  0  0  0
   39.7410   23.9530   35.8380 N   0  0  0  0  0  0  0  0  0  0  0  0
   37.9800   25.4120   35.1980 N   0  0  0  0  0  0  0  0  0  0  0  0
   37.6870   26.7260   35.2990 C   0  0  0  0  0  0  0  0  0  0  0  0
   37.1400   27.1390   34.1350 N   0  0  0  0  0  0  0  0  0  0  0  0
   37.0960   26.0550   33.3050 C   0  0  0  0  0  0  0  0  0  0  0  0
   36.6320   25.9570   32.0230 C   0  0  0  0  0  0  0  0  0  0  0  0
   36.7200   24.7490   31.4580 N   0  0  0  0  0  0  0  0  0  0  0  0
   37.2270   23.6850   32.0900 C   0  0  0  0  0  0  0  0  0  0  0  0
   37.6890   23.7720   33.3580 N   0  0  0  0  0  0  0  0  0  0  0  0
   37.6280   24.9570   33.9750 C   0  0  0  0  0  0  0  0  0  0  0  0
   41.6170   22.4570   36.4070 C   0  0  0  0  0  0  0  0  0  0  0  0
   41.5460   21.8460   35.0370 C   0  0  0  0  0  0  0  0  0  0  0  0
   41.8240   21.2980   37.3940 C   0  0  0  0  0  0  0  0  0  0  0  0
   42.7700   23.3930   36.6040 C   0  0  0  0  0  0  0  0  0  0  0  0
   44.0940   22.9350   36.1420 C   0  0  0  0  0  0  0  0  0  0  0  0
   44.9140   23.5230   35.0910 C   0  0  0  0  0  0  0  0  0  0  0  0
   45.2680   23.8740   36.5020 C   0  0  0  0  0  0  0  0  0  0  0  0
   36.9205   24.7434   37.5856 H   0  0  0  0  0  0  0  0  0  0  0  0
   38.0349   23.1320   39.2196 H   0  0  0  0  0  0  0  0  0  0  0  0
   37.8644   27.3561   36.1830 H   0  0  0  0  0  0  0  0  0  0  0  0
   36.2111   26.8211   31.4881 H   0  0  0  0  0  0  0  0  0  0  0  0
   37.2691   22.7181   31.5671 H   0  0  0  0  0  0  0  0  0  0  0  0
   41.4195   20.7570   35.1273 H   0  0  0  0  0  0  0  0  0  0  0  0
   40.6911   22.2704   34.4901 H   0  0  0  0  0  0  0  0  0  0  0  0
   42.4754   22.0630   34.4901 H   0  0  0  0  0  0  0  0  0  0  0  0
   41.7563   21.6773   38.4243 H   0  0  0  0  0  0  0  0  0  0  0  0
   41.0478   20.5355   37.2322 H   0  0  0  0  0  0  0  0  0  0  0  0
   42.8161   20.8514   37.2322 H   0  0  0  0  0  0  0  0  0  0  0  0
   42.5359   24.3245   36.0678 H   0  0  0  0  0  0  0  0  0  0  0  0
   42.8693   23.4965   37.6946 H   0  0  0  0  0  0  0  0  0  0  0  0
   43.7600   21.8960   36.2798 H   0  0  0  0  0  0  0  0  0  0  0  0
   45.5892   22.8797   34.5076 H   0  0  0  0  0  0  0  0  0  0  0  0
   44.6867   24.1188   34.1947 H   0  0  0  0  0  0  0  0  0  0  0  0
   45.0746   24.8848   36.8904 H   0  0  0  0  0  0  0  0  0  0  0  0
   46.1670   23.8150   37.1331 H   0  0  0  0  0  0  0  0  0  0  0  0
  1  2  2  0
  2  3  1  0
  4  3  2  0
  5  4  1  0
  6  1  1  0
  6  5  2  0
  7  8  1  0
  7  1  1  0
  9  8  2  0
 10 15  2  0
 10  9  1  0
 11 10  1  0
 12 11  2  0
 12 13  1  0
 13 14  2  0
 14 15  1  0
 15  7  1  0
 16 19  1  0
 16  5  1  0
 16 18  1  0
 17 16  1  0
 20 22  1  0
 20 19  1  0
 21 20  1  0
 21 22  1  0
  2 23  1  0
  3 24  1  0
  8 25  1  0
 11 26  1  0
 13 27  1  0
 17 28  1  0
 17 29  1  0
 17 30  1  0
 18 31  1  0
 18 32  1  0
 18 33  1  0
 19 34  1  0
 19 35  1  0
 20 36  1  0
 21 37  1  0
 21 38  1  0
 22 39  1  0
 22 40  1  0
M  ISO  8  23  14  24  14  25  14  26  14  27  14  28   8  29   8  30   8
M  ISO  8  31   8  32   8  33   8  34   8  35   8  36  13  37  13  38  13
M  ISO  2  39  13  40  13
M  END
>  <minimizedAffinity>  (1) 
-5.20069504

>  <minimizedRMSD>  (1) 
4.51131248

$$$$
