
     RDKit          3D

 45 48  0  0  0  0  0  0  0  0999 V2000
   42.5840   25.9130   34.6840 C   0  0  0  0  0  0  0  0  0  0  0  0
   43.0380   26.7850   33.6610 C   0  0  0  0  0  0  0  0  0  0  0  0
   42.0560   27.5420   33.0080 C   0  0  0  0  0  0  0  0  0  0  0  0
   40.7590   27.3900   33.3900 N   0  0  0  0  0  0  0  0  0  0  0  0
   40.3820   26.5510   34.3640 C   0  0  0  0  0  0  0  0  0  0  0  0
   41.2990   25.8020   35.0220 N   0  0  0  0  0  0  0  0  0  0  0  0
   43.5540   25.1160   35.3830 N   0  0  0  0  0  0  0  0  0  0  0  0
   44.4010   25.4250   36.3730 C   0  0  0  0  0  0  0  0  0  0  0  0
   45.1170   24.3270   36.6960 N   0  0  0  0  0  0  0  0  0  0  0  0
   44.7010   23.3260   35.8870 C   0  0  0  0  0  0  0  0  0  0  0  0
   45.1160   22.0230   35.8210 C   0  0  0  0  0  0  0  0  0  0  0  0
   44.5150   21.2520   34.9100 N   0  0  0  0  0  0  0  0  0  0  0  0
   43.5520   21.7180   34.0930 C   0  0  0  0  0  0  0  0  0  0  0  0
   43.1360   23.0010   34.1510 N   0  0  0  0  0  0  0  0  0  0  0  0
   43.7090   23.8160   35.0500 C   0  0  0  0  0  0  0  0  0  0  0  0
   38.9350   26.4320   34.7350 C   0  0  0  0  0  0  0  0  0  0  0  0
   38.0830   26.9450   33.5830 C   0  0  0  0  0  0  0  0  0  0  0  0
   38.6550   27.3470   35.9120 C   0  0  0  0  0  0  0  0  0  0  0  0
   38.5720   25.0320   35.1160 C   0  0  0  0  0  0  0  0  0  0  0  0
   38.7880   24.6350   36.4520 N   0  0  0  0  0  0  0  0  0  0  0  0
   37.4790   24.1210   36.9250 C   0  0  0  0  0  0  0  0  0  0  0  0
   37.8630   23.6860   38.3350 C   0  0  0  0  0  0  0  0  0  0  0  0
   39.1520   22.9350   38.0510 C   0  0  0  0  0  0  0  0  0  0  0  0
   39.5650   23.4280   36.6500 C   0  0  0  0  0  0  0  0  0  0  0  0
   44.1025   26.8626   33.3950 H   0  0  0  0  0  0  0  0  0  0  0  0
   42.3275   28.2430   32.2050 H   0  0  0  0  0  0  0  0  0  0  0  0
   44.4977   26.4132   36.8463 H   0  0  0  0  0  0  0  0  0  0  0  0
   45.9025   21.6315   36.4829 H   0  0  0  0  0  0  0  0  0  0  0  0
   43.0932   21.0373   33.3608 H   0  0  0  0  0  0  0  0  0  0  0  0
   37.2052   27.4735   33.9832 H   0  0  0  0  0  0  0  0  0  0  0  0
   38.6773   27.6356   32.9666 H   0  0  0  0  0  0  0  0  0  0  0  0
   37.7507   26.0967   32.9666 H   0  0  0  0  0  0  0  0  0  0  0  0
   38.8228   26.7987   36.8507 H   0  0  0  0  0  0  0  0  0  0  0  0
   39.3284   28.2157   35.8694 H   0  0  0  0  0  0  0  0  0  0  0  0
   37.6107   27.6901   35.8694 H   0  0  0  0  0  0  0  0  0  0  0  0
   37.5003   24.9024   34.9049 H   0  0  0  0  0  0  0  0  0  0  0  0
   39.2529   24.4002   34.5268 H   0  0  0  0  0  0  0  0  0  0  0  0
   36.7103   24.9078   36.9350 H   0  0  0  0  0  0  0  0  0  0  0  0
   37.0364   23.3317   36.2997 H   0  0  0  0  0  0  0  0  0  0  0  0
   38.0331   24.5499   38.9944 H   0  0  0  0  0  0  0  0  0  0  0  0
   37.0951   23.0974   38.8584 H   0  0  0  0  0  0  0  0  0  0  0  0
   39.9221   23.1829   38.7963 H   0  0  0  0  0  0  0  0  0  0  0  0
   39.0268   21.8431   38.0975 H   0  0  0  0  0  0  0  0  0  0  0  0
   39.3200   22.6769   35.8846 H   0  0  0  0  0  0  0  0  0  0  0  0
   40.6474   23.6069   36.5695 H   0  0  0  0  0  0  0  0  0  0  0  0
  1  6  1  0
  1  7  1  0
  2  1  2  0
  3  4  2  0
  3  2  1  0
  4  5  1  0
  5 16  1  0
  5  6  2  0
  7  8  1  0
  8  9  2  0
 10  9  1  0
 11 10  2  0
 12 11  1  0
 13 14  1  0
 13 12  2  0
 14 15  2  0
 15  7  1  0
 15 10  1  0
 16 19  1  0
 16 18  1  0
 17 16  1  0
 19 20  1  0
 20 24  1  0
 20 21  1  0
 21 22  1  0
 23 22  1  0
 24 23  1  0
  2 25  1  0
  3 26  1  0
  8 27  1  0
 11 28  1  0
 13 29  1  0
 17 30  1  0
 17 31  1  0
 17 32  1  0
 18 33  1  0
 18 34  1  0
 18 35  1  0
 19 36  1  0
 19 37  1  0
 21 38  1  0
 21 39  1  0
 22 40  1  0
 22 41  1  0
 23 42  1  0
 23 43  1  0
 24 44  1  0
 24 45  1  0
M  ISO  8  25  14  26  14  27  14  28  14  29  14  30   8  31   8  32   8
M  ISO  8  33   8  34   8  35   8  36   8  37   8  38  13  39  13  40  13
M  ISO  5  41  13  42  13  43  13  44  13  45  13
M  END
>  <minimizedAffinity>  (1) 
-4.98847866

>  <minimizedRMSD>  (1) 
6.37446165

$$$$
