
     RDKit          3D

 33 35  0  0  0  0  0  0  0  0999 V2000
   37.9800   25.5330   32.2380 C   0  0  0  0  0  0  0  0  0  0  0  0
   39.0210   26.4190   31.9170 C   0  0  0  0  0  0  0  0  0  0  0  0
   39.5650   27.1290   32.9740 C   0  0  0  0  0  0  0  0  0  0  0  0
   39.0750   26.9350   34.2320 N   0  0  0  0  0  0  0  0  0  0  0  0
   38.0910   26.0890   34.4930 C   0  0  0  0  0  0  0  0  0  0  0  0
   37.5140   25.3600   33.4910 N   0  0  0  0  0  0  0  0  0  0  0  0
   39.4060   26.4980   30.5810 N   0  0  0  0  0  0  0  0  0  0  0  0
   40.3280   25.5640   30.1770 C   0  0  0  0  0  0  0  0  0  0  0  0
   40.7200   25.6220   28.8550 C   0  0  0  0  0  0  0  0  0  0  0  0
   40.1840   26.5790   28.0440 C   0  0  0  0  0  0  0  0  0  0  0  0
   40.5980   26.6060   26.7120 N   0  0  0  0  0  0  0  0  0  0  0  0
   39.2950   27.4550   28.4980 N   0  0  0  0  0  0  0  0  0  0  0  0
   38.8850   27.4310   29.7870 C   0  0  0  0  0  0  0  0  0  0  0  0
   38.0490   28.2700   30.1790 O   0  0  0  0  0  0  0  0  0  0  0  0
   37.5780   25.8990   35.8820 C   0  0  0  0  0  0  0  0  0  0  0  0
   38.3300   24.7920   36.5430 C   0  0  0  0  0  0  0  0  0  0  0  0
   38.0490   24.3030   37.8000 C   0  0  0  0  0  0  0  0  0  0  0  0
   38.8030   23.2750   38.3260 C   0  0  0  0  0  0  0  0  0  0  0  0
   39.8560   22.7140   37.6000 C   0  0  0  0  0  0  0  0  0  0  0  0
   40.0600   23.2640   36.3620 C   0  0  0  0  0  0  0  0  0  0  0  0
   39.3500   24.2680   35.8070 N   0  0  0  0  0  0  0  0  0  0  0  0
   37.5214   24.9504   31.4255 H   0  0  0  0  0  0  0  0  0  0  0  0
   40.3842   27.8424   32.8009 H   0  0  0  0  0  0  0  0  0  0  0  0
   40.7321   24.8107   30.8693 H   0  0  0  0  0  0  0  0  0  0  0  0
   41.4554   24.9055   28.4602 H   0  0  0  0  0  0  0  0  0  0  0  0
   41.2882   25.9206   26.3732 H   0  0  0  0  0  0  0  0  0  0  0  0
   40.2135   27.3113   26.0674 H   0  0  0  0  0  0  0  0  0  0  0  0
   37.7156   26.8284   36.4540 H   0  0  0  0  0  0  0  0  0  0  0  0
   36.5082   25.6454   35.8463 H   0  0  0  0  0  0  0  0  0  0  0  0
   37.2224   24.7330   38.3847 H   0  0  0  0  0  0  0  0  0  0  0  0
   38.5719   22.8918   39.3309 H   0  0  0  0  0  0  0  0  0  0  0  0
   40.4743   21.8932   37.9923 H   0  0  0  0  0  0  0  0  0  0  0  0
   40.8823   22.8466   35.7624 H   0  0  0  0  0  0  0  0  0  0  0  0
  1  6  2  0
  2  1  1  0
  2  3  2  0
  3  4  1  0
  4  5  2  0
  5 15  1  0
  6  5  1  0
  7  2  1  0
  8  7  1  0
  9  8  2  0
 10 12  2  0
 10  9  1  0
 11 10  1  0
 12 13  1  0
 13 14  2  0
 13  7  1  0
 15 16  1  0
 16 17  2  0
 17 18  1  0
 19 18  2  0
 20 19  1  0
 21 20  2  0
 21 16  1  0
  1 22  1  0
  3 23  1  0
  8 24  1  0
  9 25  1  0
 11 26  1  0
 11 27  1  0
 15 28  1  0
 15 29  1  0
 17 30  1  0
 18 31  1  0
 19 32  1  0
 20 33  1  0
M  ISO  8  22  14  23  14  24  14  25  14  28   8  29   8  30  14  31  14
M  ISO  2  32  14  33  14
M  END
>  <minimizedAffinity>  (1) 
-4.42928505

>  <minimizedRMSD>  (1) 
6.12544584

$$$$
