
     RDKit          3D

 41 44  0  0  0  0  0  0  0  0999 V2000
   39.4810   24.2880   35.6060 C   0  0  0  0  0  0  0  0  0  0  0  0
   39.0340   23.4150   36.6220 C   0  0  0  0  0  0  0  0  0  0  0  0
   40.0200   22.6470   37.2680 C   0  0  0  0  0  0  0  0  0  0  0  0
   41.3090   22.7940   36.8750 N   0  0  0  0  0  0  0  0  0  0  0  0
   41.6810   23.6440   35.8950 C   0  0  0  0  0  0  0  0  0  0  0  0
   40.7760   24.4010   35.2480 N   0  0  0  0  0  0  0  0  0  0  0  0
   38.5070   25.0900   34.9230 N   0  0  0  0  0  0  0  0  0  0  0  0
   37.8810   26.2110   35.2910 C   0  0  0  0  0  0  0  0  0  0  0  0
   37.0450   26.5960   34.3020 N   0  0  0  0  0  0  0  0  0  0  0  0
   37.1650   25.6870   33.3110 C   0  0  0  0  0  0  0  0  0  0  0  0
   36.5270   25.6250   32.0840 C   0  0  0  0  0  0  0  0  0  0  0  0
   36.8600   24.5800   31.2920 N   0  0  0  0  0  0  0  0  0  0  0  0
   37.7500   23.6580   31.6640 C   0  0  0  0  0  0  0  0  0  0  0  0
   38.3800   23.7040   32.8560 N   0  0  0  0  0  0  0  0  0  0  0  0
   38.0900   24.7220   33.6890 C   0  0  0  0  0  0  0  0  0  0  0  0
   43.1180   23.7500   35.5200 C   0  0  0  0  0  0  0  0  0  0  0  0
   43.9530   23.9620   36.7710 C   0  0  0  0  0  0  0  0  0  0  0  0
   43.3240   24.9820   34.6530 C   0  0  0  0  0  0  0  0  0  0  0  0
   43.6000   22.5530   34.7290 C   0  0  0  0  0  0  0  0  0  0  0  0
   42.6590   22.2160   33.6340 C   0  0  0  0  0  0  0  0  0  0  0  0
   41.7660   21.1470   33.7490 C   0  0  0  0  0  0  0  0  0  0  0  0
   40.8890   20.8470   32.7040 C   0  0  0  0  0  0  0  0  0  0  0  0
   40.9250   21.6110   31.5840 N   0  0  0  0  0  0  0  0  0  0  0  0
   41.8130   22.6420   31.5200 C   0  0  0  0  0  0  0  0  0  0  0  0
   42.6660   22.9520   32.5070 N   0  0  0  0  0  0  0  0  0  0  0  0
   37.9708   23.3394   36.8940 H   0  0  0  0  0  0  0  0  0  0  0  0
   39.7518   21.9452   38.0714 H   0  0  0  0  0  0  0  0  0  0  0  0
   38.0234   26.7368   36.2467 H   0  0  0  0  0  0  0  0  0  0  0  0
   35.7921   26.3814   31.7712 H   0  0  0  0  0  0  0  0  0  0  0  0
   37.9779   22.8316   30.9747 H   0  0  0  0  0  0  0  0  0  0  0  0
   43.3267   23.8030   37.6612 H   0  0  0  0  0  0  0  0  0  0  0  0
   44.7895   23.2477   36.7789 H   0  0  0  0  0  0  0  0  0  0  0  0
   44.3475   24.9888   36.7789 H   0  0  0  0  0  0  0  0  0  0  0  0
   43.4712   25.8623   35.2959 H   0  0  0  0  0  0  0  0  0  0  0  0
   44.2108   24.8393   34.0179 H   0  0  0  0  0  0  0  0  0  0  0  0
   42.4391   25.1356   34.0179 H   0  0  0  0  0  0  0  0  0  0  0  0
   44.5852   22.7823   34.2968 H   0  0  0  0  0  0  0  0  0  0  0  0
   43.6642   21.6907   35.4090 H   0  0  0  0  0  0  0  0  0  0  0  0
   41.7538   20.5396   34.6660 H   0  0  0  0  0  0  0  0  0  0  0  0
   40.1830   20.0076   32.7878 H   0  0  0  0  0  0  0  0  0  0  0  0
   41.8313   23.2550   30.6068 H   0  0  0  0  0  0  0  0  0  0  0  0
  1  2  2  0
  2  3  1  0
  4  3  2  0
  5  4  1  0
  6  1  1  0
  6  5  2  0
  7  8  1  0
  7  1  1  0
  9  8  2  0
 10 15  2  0
 10  9  1  0
 11 10  1  0
 12 13  1  0
 12 11  2  0
 13 14  2  0
 14 15  1  0
 15  7  1  0
 16  5  1  0
 16 17  1  0
 18 16  1  0
 19 16  1  0
 20 21  2  0
 20 19  1  0
 22 21  1  0
 23 22  2  0
 24 23  1  0
 24 25  2  0
 25 20  1  0
  2 26  1  0
  3 27  1  0
  8 28  1  0
 11 29  1  0
 13 30  1  0
 17 31  1  0
 17 32  1  0
 17 33  1  0
 18 34  1  0
 18 35  1  0
 18 36  1  0
 19 37  1  0
 19 38  1  0
 21 39  1  0
 22 40  1  0
 24 41  1  0
M  ISO  8  26  14  27  14  28  14  29  14  30  14  31   8  32   8  33   8
M  ISO  8  34   8  35   8  36   8  37   8  38   8  39  14  40  14  41  14
M  END
>  <minimizedAffinity>  (1) 
-4.16335058

>  <minimizedRMSD>  (1) 
4.84043121

$$$$
