
     RDKit          3D

 40 43  0  0  0  0  0  0  0  0999 V2000
   41.0450   23.6720   35.9400 C   0  0  0  0  0  0  0  0  0  0  0  0
   42.0570   23.0250   36.6970 C   0  0  0  0  0  0  0  0  0  0  0  0
   43.3760   23.4620   36.4860 C   0  0  0  0  0  0  0  0  0  0  0  0
   43.5930   24.4580   35.5890 N   0  0  0  0  0  0  0  0  0  0  0  0
   42.6050   25.0360   34.8990 C   0  0  0  0  0  0  0  0  0  0  0  0
   41.3230   24.6480   35.0680 N   0  0  0  0  0  0  0  0  0  0  0  0
   39.6860   23.2640   36.1170 N   0  0  0  0  0  0  0  0  0  0  0  0
   38.8500   23.4540   37.1540 C   0  0  0  0  0  0  0  0  0  0  0  0
   37.6620   22.8810   36.8550 N   0  0  0  0  0  0  0  0  0  0  0  0
   37.7830   22.3330   35.6130 C   0  0  0  0  0  0  0  0  0  0  0  0
   36.8490   21.6460   34.8810 C   0  0  0  0  0  0  0  0  0  0  0  0
   37.2660   21.2210   33.6710 N   0  0  0  0  0  0  0  0  0  0  0  0
   38.5110   21.4530   33.2090 C   0  0  0  0  0  0  0  0  0  0  0  0
   39.4130   22.1270   33.9390 N   0  0  0  0  0  0  0  0  0  0  0  0
   39.0560   22.5710   35.1410 C   0  0  0  0  0  0  0  0  0  0  0  0
   42.9030   26.1190   33.9310 C   0  0  0  0  0  0  0  0  0  0  0  0
   41.7700   27.1040   33.8560 C   0  0  0  0  0  0  0  0  0  0  0  0
   43.0390   25.5090   32.5290 C   0  0  0  0  0  0  0  0  0  0  0  0
   44.2250   26.8140   34.2230 C   0  0  0  0  0  0  0  0  0  0  0  0
   44.7350   27.2240   32.9060 N   0  0  0  0  0  0  0  0  0  0  0  0
   45.6990   26.5870   32.2300 N   0  0  0  0  0  0  0  0  0  0  0  0
   45.9480   27.1990   31.0610 C   0  0  0  0  0  0  0  0  0  0  0  0
   45.1040   28.2860   30.9740 C   0  0  0  0  0  0  0  0  0  0  0  0
   44.3680   28.2650   32.1410 C   0  0  0  0  0  0  0  0  0  0  0  0
   41.8209   22.2230   37.4118 H   0  0  0  0  0  0  0  0  0  0  0  0
   44.2137   23.0074   37.0352 H   0  0  0  0  0  0  0  0  0  0  0  0
   39.0917   23.9851   38.0865 H   0  0  0  0  0  0  0  0  0  0  0  0
   35.8320   21.4551   35.2542 H   0  0  0  0  0  0  0  0  0  0  0  0
   38.7934   21.0820   32.2127 H   0  0  0  0  0  0  0  0  0  0  0  0
   41.4546   27.3782   34.8735 H   0  0  0  0  0  0  0  0  0  0  0  0
   42.1024   28.0051   33.3198 H   0  0  0  0  0  0  0  0  0  0  0  0
   40.9239   26.6495   33.3198 H   0  0  0  0  0  0  0  0  0  0  0  0
   43.2776   24.4388   32.6164 H   0  0  0  0  0  0  0  0  0  0  0  0
   42.0918   25.6301   31.9830 H   0  0  0  0  0  0  0  0  0  0  0  0
   43.8450   26.0210   31.9830 H   0  0  0  0  0  0  0  0  0  0  0  0
   44.0671   27.6914   34.8673 H   0  0  0  0  0  0  0  0  0  0  0  0
   44.9298   26.1576   34.7543 H   0  0  0  0  0  0  0  0  0  0  0  0
   46.6898   26.8897   30.3099 H   0  0  0  0  0  0  0  0  0  0  0  0
   45.0328   29.0131   30.1516 H   0  0  0  0  0  0  0  0  0  0  0  0
   43.5911   28.9969   32.4069 H   0  0  0  0  0  0  0  0  0  0  0  0
  1  7  1  0
  1  2  2  0
  3  2  1  0
  4  3  2  0
  5  6  2  0
  5  4  1  0
  6  1  1  0
  7  8  1  0
  9  8  2  0
 10  9  1  0
 11 10  2  0
 12 11  1  0
 13 12  2  0
 13 14  1  0
 14 15  2  0
 15 10  1  0
 15  7  1  0
 16 19  1  0
 16  5  1  0
 17 16  1  0
 18 16  1  0
 20 19  1  0
 21 20  1  0
 22 21  2  0
 23 22  1  0
 23 24  2  0
 24 20  1  0
  2 25  1  0
  3 26  1  0
  8 27  1  0
 11 28  1  0
 13 29  1  0
 17 30  1  0
 17 31  1  0
 17 32  1  0
 18 33  1  0
 18 34  1  0
 18 35  1  0
 19 36  1  0
 19 37  1  0
 22 38  1  0
 23 39  1  0
 24 40  1  0
M  ISO  8  25  14  26  14  27  14  28  14  29  14  30   8  31   8  32   8
M  ISO  8  33   8  34   8  35   8  36   8  37   8  38  14  39  14  40  14
M  END
>  <minimizedAffinity>  (1) 
-3.97459364

>  <minimizedRMSD>  (1) 
0.754816473

$$$$
