
     RDKit          3D

 49 52  0  0  0  0  0  0  0  0999 V2000
   37.2800   21.6080   33.2670 C   0  0  0  0  0  0  0  0  0  0  0  0
   39.5970   23.4580   35.4380 C   0  0  0  0  0  0  0  0  0  0  0  0
   38.9450   23.4590   36.6960 C   0  0  0  0  0  0  0  0  0  0  0  0
   37.7040   22.8090   36.7580 C   0  0  0  0  0  0  0  0  0  0  0  0
   37.2080   22.2280   35.6270 N   0  0  0  0  0  0  0  0  0  0  0  0
   37.8760   22.2590   34.4520 C   0  0  0  0  0  0  0  0  0  0  0  0
   39.0590   22.8670   34.3550 N   0  0  0  0  0  0  0  0  0  0  0  0
   40.8620   24.1040   35.3210 N   0  0  0  0  0  0  0  0  0  0  0  0
   42.0700   23.7500   35.7970 C   0  0  0  0  0  0  0  0  0  0  0  0
   42.9690   24.6870   35.4250 N   0  0  0  0  0  0  0  0  0  0  0  0
   42.2980   25.6270   34.7130 C   0  0  0  0  0  0  0  0  0  0  0  0
   42.7630   26.7800   34.1170 C   0  0  0  0  0  0  0  0  0  0  0  0
   41.8520   27.5210   33.4730 N   0  0  0  0  0  0  0  0  0  0  0  0
   40.5660   27.1730   33.4050 C   0  0  0  0  0  0  0  0  0  0  0  0
   40.0850   26.0480   33.9810 N   0  0  0  0  0  0  0  0  0  0  0  0
   40.9620   25.2640   34.6420 C   0  0  0  0  0  0  0  0  0  0  0  0
   36.5960   22.6470   32.4060 C   0  0  0  0  0  0  0  0  0  0  0  0
   36.1890   20.6370   33.7300 C   0  0  0  0  0  0  0  0  0  0  0  0
   38.2600   20.7680   32.4810 C   0  0  0  0  0  0  0  0  0  0  0  0
   37.5800   19.6830   31.7140 C   0  0  0  0  0  0  0  0  0  0  0  0
   37.0880   19.8840   30.4200 C   0  0  0  0  0  0  0  0  0  0  0  0
   36.5230   18.7030   29.9870 C   0  0  0  0  0  0  0  0  0  0  0  0
   36.6790   17.8460   30.9910 N   0  0  0  0  0  0  0  0  0  0  0  0
   37.2970   18.4050   32.0100 N   0  0  0  0  0  0  0  0  0  0  0  0
   36.2350   16.4450   31.0060 C   0  0  0  0  0  0  0  0  0  0  0  0
   35.4450   16.1400   32.2570 C   0  0  0  0  0  0  0  0  0  0  0  0
   37.4070   15.5020   30.9700 C   0  0  0  0  0  0  0  0  0  0  0  0
   39.3890   23.9442   37.5777 H   0  0  0  0  0  0  0  0  0  0  0  0
   37.1402   22.7681   37.7016 H   0  0  0  0  0  0  0  0  0  0  0  0
   42.2885   22.8492   36.3893 H   0  0  0  0  0  0  0  0  0  0  0  0
   43.8216   27.0745   34.1675 H   0  0  0  0  0  0  0  0  0  0  0  0
   39.8697   27.8266   32.8591 H   0  0  0  0  0  0  0  0  0  0  0  0
   36.1057   23.3918   33.0501 H   0  0  0  0  0  0  0  0  0  0  0  0
   37.3427   23.1462   31.7709 H   0  0  0  0  0  0  0  0  0  0  0  0
   35.8423   22.1585   31.7709 H   0  0  0  0  0  0  0  0  0  0  0  0
   36.1620   20.6130   34.8294 H   0  0  0  0  0  0  0  0  0  0  0  0
   35.2137   20.9714   33.3465 H   0  0  0  0  0  0  0  0  0  0  0  0
   36.4080   19.6295   33.3465 H   0  0  0  0  0  0  0  0  0  0  0  0
   38.7980   21.4179   31.7751 H   0  0  0  0  0  0  0  0  0  0  0  0
   38.9511   20.2963   33.1951 H   0  0  0  0  0  0  0  0  0  0  0  0
   37.1424   20.8215   29.8472 H   0  0  0  0  0  0  0  0  0  0  0  0
   36.0442   18.5107   29.0155 H   0  0  0  0  0  0  0  0  0  0  0  0
   35.6076   16.3049   30.1134 H   0  0  0  0  0  0  0  0  0  0  0  0
   36.0544   16.3753   33.1420 H   0  0  0  0  0  0  0  0  0  0  0  0
   34.5292   16.7492   32.2700 H   0  0  0  0  0  0  0  0  0  0  0  0
   35.1761   15.0734   32.2700 H   0  0  0  0  0  0  0  0  0  0  0  0
   37.7119   15.2567   31.9980 H   0  0  0  0  0  0  0  0  0  0  0  0
   37.1199   14.5802   30.4428 H   0  0  0  0  0  0  0  0  0  0  0  0
   38.2460   15.9797   30.4428 H   0  0  0  0  0  0  0  0  0  0  0  0
  1 18  1  0
  1  6  1  0
  2  3  2  0
  3  4  1  0
  5  4  2  0
  6  5  1  0
  7  6  2  0
  7  2  1  0
  8  2  1  0
  8  9  1  0
 10  9  2  0
 11 10  1  0
 12 11  2  0
 13 12  1  0
 14 13  2  0
 14 15  1  0
 15 16  2  0
 16 11  1  0
 16  8  1  0
 17  1  1  0
 19  1  1  0
 20 24  2  0
 20 19  1  0
 21 20  1  0
 22 21  2  0
 22 23  1  0
 23 25  1  0
 23 24  1  0
 25 26  1  0
 27 25  1  0
  3 28  1  0
  4 29  1  0
  9 30  1  0
 12 31  1  0
 14 32  1  0
 17 33  1  0
 17 34  1  0
 17 35  1  0
 18 36  1  0
 18 37  1  0
 18 38  1  0
 19 39  1  0
 19 40  1  0
 21 41  1  0
 22 42  1  0
 25 43  1  0
 26 44  1  0
 26 45  1  0
 26 46  1  0
 27 47  1  0
 27 48  1  0
 27 49  1  0
M  ISO  8  28  14  29  14  30  14  31  14  32  14  33   8  34   8  35   8
M  ISO  8  36   8  37   8  38   8  39   8  40   8  41  14  42  14  43   8
M  ISO  6  44   8  45   8  46   8  47   8  48   8  49   8
M  END
>  <minimizedAffinity>  (1) 
-4.63278961

>  <minimizedRMSD>  (1) 
0.756031752

$$$$
