
     RDKit          3D

 52 56  0  0  1  0  0  0  0  0999 V2000
   37.2290   21.6490   33.3120 C   0  0  0  0  0  0  0  0  0  0  0  0
   39.6090   23.4640   35.4650 C   0  0  0  0  0  0  0  0  0  0  0  0
   38.9770   23.4740   36.7320 C   0  0  0  0  0  0  0  0  0  0  0  0
   37.7210   22.8370   36.7980 C   0  0  0  0  0  0  0  0  0  0  0  0
   37.2090   22.2690   35.6700 N   0  0  0  0  0  0  0  0  0  0  0  0
   37.8550   22.2900   34.4880 C   0  0  0  0  0  0  0  0  0  0  0  0
   39.0560   22.8860   34.3790 N   0  0  0  0  0  0  0  0  0  0  0  0
   40.8830   24.0920   35.3320 N   0  0  0  0  0  0  0  0  0  0  0  0
   42.0910   23.7410   35.7720 C   0  0  0  0  0  0  0  0  0  0  0  0
   42.9910   24.6720   35.3870 N   0  0  0  0  0  0  0  0  0  0  0  0
   42.3110   25.6200   34.6930 C   0  0  0  0  0  0  0  0  0  0  0  0
   42.7880   26.7670   34.0990 C   0  0  0  0  0  0  0  0  0  0  0  0
   41.8620   27.5150   33.4760 N   0  0  0  0  0  0  0  0  0  0  0  0
   40.5780   27.1870   33.4270 C   0  0  0  0  0  0  0  0  0  0  0  0
   40.0960   26.0660   34.0050 N   0  0  0  0  0  0  0  0  0  0  0  0
   40.9720   25.2660   34.6490 C   0  0  0  0  0  0  0  0  0  0  0  0
   36.6120   22.7090   32.4340 C   0  0  0  0  0  0  0  0  0  0  0  0
   36.0690   20.7660   33.7730 C   0  0  0  0  0  0  0  0  0  0  0  0
   38.1680   20.7420   32.5510 C   0  0  0  0  0  0  0  0  0  0  0  0
   37.4510   19.6560   31.8510 C   0  0  0  0  0  0  0  0  0  0  0  0
   37.0950   19.7680   30.4970 C   0  0  0  0  0  0  0  0  0  0  0  0
   36.4430   18.6070   30.1250 C   0  0  0  0  0  0  0  0  0  0  0  0
   36.4190   17.8460   31.2200 N   0  0  0  0  0  0  0  0  0  0  0  0
   37.0100   18.4560   32.2390 N   0  0  0  0  0  0  0  0  0  0  0  0
   35.8330   15.7400   30.1810 N   0  0  0  0  0  0  0  0  0  0  0  0
   37.0780   15.0030   30.1030 C   0  0  0  0  0  0  0  0  0  0  0  0
   37.6780   14.9740   31.4800 C   0  0  0  0  0  0  0  0  0  0  0  0
   36.6480   15.6670   32.3460 C   0  0  0  0  0  0  0  0  0  0  0  0
   35.8510   16.5140   31.3890 C   0  0  1  0  0  0  0  0  0  0  0  0
   39.4375   23.9494   37.6106 H   0  0  0  0  0  0  0  0  0  0  0  0
   37.1630   22.7991   37.7452 H   0  0  0  0  0  0  0  0  0  0  0  0
   42.3190   22.8370   36.3558 H   0  0  0  0  0  0  0  0  0  0  0  0
   43.8504   27.0504   34.1321 H   0  0  0  0  0  0  0  0  0  0  0  0
   39.8807   27.8520   32.8965 H   0  0  0  0  0  0  0  0  0  0  0  0
   36.1583   23.4884   33.0639 H   0  0  0  0  0  0  0  0  0  0  0  0
   37.3901   23.1576   31.7989 H   0  0  0  0  0  0  0  0  0  0  0  0
   35.8376   22.2540   31.7989 H   0  0  0  0  0  0  0  0  0  0  0  0
   36.0396   20.7436   34.8724 H   0  0  0  0  0  0  0  0  0  0  0  0
   35.1224   21.1742   33.3891 H   0  0  0  0  0  0  0  0  0  0  0  0
   36.2104   19.7449   33.3891 H   0  0  0  0  0  0  0  0  0  0  0  0
   38.7150   21.3414   31.8083 H   0  0  0  0  0  0  0  0  0  0  0  0
   38.8536   20.2805   33.2770 H   0  0  0  0  0  0  0  0  0  0  0  0
   37.2995   20.6302   29.8453 H   0  0  0  0  0  0  0  0  0  0  0  0
   36.0310   18.3625   29.1348 H   0  0  0  0  0  0  0  0  0  0  0  0
   35.0390   15.0841   30.1979 H   0  0  0  0  0  0  0  0  0  0  0  0
   36.8850   13.9769   29.7566 H   0  0  0  0  0  0  0  0  0  0  0  0
   37.7666   15.4836   29.3925 H   0  0  0  0  0  0  0  0  0  0  0  0
   37.8368   13.9384   31.8151 H   0  0  0  0  0  0  0  0  0  0  0  0
   38.6626   15.4627   31.5219 H   0  0  0  0  0  0  0  0  0  0  0  0
   36.0004   14.9300   32.8435 H   0  0  0  0  0  0  0  0  0  0  0  0
   37.1107   16.2651   33.1449 H   0  0  0  0  0  0  0  0  0  0  0  0
   34.8339   16.7252   31.7509 H   0  0  0  0  0  0  0  0  0  0  0  0
  1 18  1  0
  1  6  1  0
  2  3  2  0
  3  4  1  0
  5  4  2  0
  6  5  1  0
  7  6  2  0
  7  2  1  0
  8  2  1  0
  8  9  1  0
 10  9  2  0
 11 10  1  0
 12 11  2  0
 13 12  1  0
 14 13  2  0
 14 15  1  0
 15 16  2  0
 16 11  1  0
 16  8  1  0
 17  1  1  0
 19  1  1  0
 20 24  2  0
 20 19  1  0
 21 20  1  0
 22 21  2  0
 22 23  1  0
 23 24  1  0
 25 29  1  0
 26 25  1  0
 26 27  1  0
 27 28  1  0
 29 23  1  0
 29 28  1  0
  3 30  1  0
  4 31  1  0
  9 32  1  0
 12 33  1  0
 14 34  1  0
 17 35  1  0
 17 36  1  0
 17 37  1  0
 18 38  1  0
 18 39  1  0
 18 40  1  0
 19 41  1  0
 19 42  1  0
 21 43  1  0
 22 44  1  0
 25 45  1  0
 26 46  1  0
 26 47  1  0
 27 48  1  0
 27 49  1  0
 28 50  1  0
 28 51  1  0
 29 52  1  1
M  ISO  8  30  14  31  14  32  14  33  14  34  14  35   8  36   8  37   8
M  ISO  8  38   8  39   8  40   8  41   8  42   8  43  14  44  14  45   5
M  ISO  7  46  13  47  13  48  13  49  13  50  13  51  13  52  13
M  END
>  <minimizedAffinity>  (1) 
-4.88934994

>  <minimizedRMSD>  (1) 
0.822098434

$$$$
