
     RDKit          3D

 47 51  0  0  0  0  0  0  0  0999 V2000
   37.2890   21.6060   33.2780 C   0  0  0  0  0  0  0  0  0  0  0  0
   39.5980   23.4580   35.4610 C   0  0  0  0  0  0  0  0  0  0  0  0
   38.9540   23.4750   36.7060 C   0  0  0  0  0  0  0  0  0  0  0  0
   37.7020   22.8300   36.7690 C   0  0  0  0  0  0  0  0  0  0  0  0
   37.2090   22.2410   35.6310 N   0  0  0  0  0  0  0  0  0  0  0  0
   37.8830   22.2600   34.4590 C   0  0  0  0  0  0  0  0  0  0  0  0
   39.0730   22.8650   34.3670 N   0  0  0  0  0  0  0  0  0  0  0  0
   40.8670   24.0960   35.3390 N   0  0  0  0  0  0  0  0  0  0  0  0
   42.0730   23.7460   35.8050 C   0  0  0  0  0  0  0  0  0  0  0  0
   42.9840   24.6850   35.4260 N   0  0  0  0  0  0  0  0  0  0  0  0
   42.3100   25.6110   34.7240 C   0  0  0  0  0  0  0  0  0  0  0  0
   42.7770   26.7680   34.1210 C   0  0  0  0  0  0  0  0  0  0  0  0
   41.8690   27.5150   33.4780 N   0  0  0  0  0  0  0  0  0  0  0  0
   40.5760   27.1780   33.4120 C   0  0  0  0  0  0  0  0  0  0  0  0
   40.1090   26.0440   34.0010 N   0  0  0  0  0  0  0  0  0  0  0  0
   40.9840   25.2620   34.6580 C   0  0  0  0  0  0  0  0  0  0  0  0
   36.6140   22.6390   32.4150 C   0  0  0  0  0  0  0  0  0  0  0  0
   36.1680   20.6620   33.7390 C   0  0  0  0  0  0  0  0  0  0  0  0
   38.2530   20.7470   32.5140 C   0  0  0  0  0  0  0  0  0  0  0  0
   37.5650   19.6750   31.7350 C   0  0  0  0  0  0  0  0  0  0  0  0
   37.1590   19.8730   30.4120 C   0  0  0  0  0  0  0  0  0  0  0  0
   36.5570   18.7180   29.9520 C   0  0  0  0  0  0  0  0  0  0  0  0
   36.6150   17.8700   30.9960 N   0  0  0  0  0  0  0  0  0  0  0  0
   37.2020   18.4260   32.0330 N   0  0  0  0  0  0  0  0  0  0  0  0
   35.6610   14.4590   30.4020 N   0  0  0  0  0  0  0  0  0  0  0  0
   36.2320   15.5990   30.0500 N   0  0  0  0  0  0  0  0  0  0  0  0
   36.1170   16.5210   31.0260 C   0  0  0  0  0  0  0  0  0  0  0  0
   35.4230   15.9390   32.0860 C   0  0  0  0  0  0  0  0  0  0  0  0
   35.1730   14.6720   31.6370 C   0  0  0  0  0  0  0  0  0  0  0  0
   39.4004   23.9641   37.5844 H   0  0  0  0  0  0  0  0  0  0  0  0
   37.1324   22.7993   37.7096 H   0  0  0  0  0  0  0  0  0  0  0  0
   42.2923   22.8458   36.3979 H   0  0  0  0  0  0  0  0  0  0  0  0
   43.8371   27.0580   34.1677 H   0  0  0  0  0  0  0  0  0  0  0  0
   39.8760   27.8312   32.8704 H   0  0  0  0  0  0  0  0  0  0  0  0
   36.1245   23.3881   33.0547 H   0  0  0  0  0  0  0  0  0  0  0  0
   37.3641   23.1330   31.7799 H   0  0  0  0  0  0  0  0  0  0  0  0
   35.8603   22.1505   31.7799 H   0  0  0  0  0  0  0  0  0  0  0  0
   36.1385   20.6372   34.8383 H   0  0  0  0  0  0  0  0  0  0  0  0
   35.2029   21.0235   33.3544 H   0  0  0  0  0  0  0  0  0  0  0  0
   36.3600   19.6495   33.3544 H   0  0  0  0  0  0  0  0  0  0  0  0
   38.8176   21.3835   31.8168 H   0  0  0  0  0  0  0  0  0  0  0  0
   38.9177   20.2590   33.2421 H   0  0  0  0  0  0  0  0  0  0  0  0
   37.2965   20.7975   29.8321 H   0  0  0  0  0  0  0  0  0  0  0  0
   36.1270   18.5328   28.9566 H   0  0  0  0  0  0  0  0  0  0  0  0
   35.6025   13.5926   29.8481 H   0  0  0  0  0  0  0  0  0  0  0  0
   35.1442   16.3899   33.0498 H   0  0  0  0  0  0  0  0  0  0  0  0
   34.6331   13.9118   32.2206 H   0  0  0  0  0  0  0  0  0  0  0  0
  1 18  1  0
  1  6  1  0
  2  3  2  0
  3  4  1  0
  5  4  2  0
  6  5  1  0
  7  6  2  0
  7  2  1  0
  8  2  1  0
  8  9  1  0
 10  9  2  0
 11 10  1  0
 12 11  2  0
 13 12  1  0
 14 13  2  0
 14 15  1  0
 15 16  2  0
 16 11  1  0
 16  8  1  0
 17  1  1  0
 19  1  1  0
 20 24  2  0
 20 19  1  0
 21 20  1  0
 22 21  2  0
 22 23  1  0
 23 27  1  0
 23 24  1  0
 25 29  1  0
 26 25  1  0
 26 27  2  0
 27 28  1  0
 29 28  2  0
  3 30  1  0
  4 31  1  0
  9 32  1  0
 12 33  1  0
 14 34  1  0
 17 35  1  0
 17 36  1  0
 17 37  1  0
 18 38  1  0
 18 39  1  0
 18 40  1  0
 19 41  1  0
 19 42  1  0
 21 43  1  0
 22 44  1  0
 25 45  1  0
 28 46  1  0
 29 47  1  0
M  ISO  8  30  14  31  14  32  14  33  14  34  14  35   8  36   8  37   8
M  ISO  8  38   8  39   8  40   8  41   8  42   8  43  14  44  14  45   9
M  ISO  2  46  14  47  14
M  END
>  <minimizedAffinity>  (1) 
-5.08913231

>  <minimizedRMSD>  (1) 
0.892338634

$$$$
