
     RDKit          3D

 28 31  0  0  0  0  0  0  0  0999 V2000
   39.9010   22.5850   37.1600 C   0  0  0  0  0  0  0  0  0  0  0  0
   39.2830   23.2580   38.2300 C   0  0  0  0  0  0  0  0  0  0  0  0
   37.8810   23.4580   38.1570 C   0  0  0  0  0  0  0  0  0  0  0  0
   37.2160   22.9920   37.0670 N   0  0  0  0  0  0  0  0  0  0  0  0
   37.8520   22.3460   36.0530 C   0  0  0  0  0  0  0  0  0  0  0  0
   39.1710   22.1500   36.1070 N   0  0  0  0  0  0  0  0  0  0  0  0
   37.1650   21.8570   34.9120 N   0  0  0  0  0  0  0  0  0  0  0  0
   36.1520   21.0170   34.9790 N   0  0  0  0  0  0  0  0  0  0  0  0
   35.7300   20.7560   33.7090 C   0  0  0  0  0  0  0  0  0  0  0  0
   36.5400   21.4850   32.8350 C   0  0  0  0  0  0  0  0  0  0  0  0
   37.4400   22.1740   33.6330 C   0  0  0  0  0  0  0  0  0  0  0  0
   38.4330   23.0300   33.1090 N   0  0  0  0  0  0  0  0  0  0  0  0
   39.7140   22.8940   32.6980 C   0  0  0  0  0  0  0  0  0  0  0  0
   40.2020   24.0760   32.2780 N   0  0  0  0  0  0  0  0  0  0  0  0
   39.2080   24.9940   32.4250 C   0  0  0  0  0  0  0  0  0  0  0  0
   39.2890   26.3220   32.1140 C   0  0  0  0  0  0  0  0  0  0  0  0
   38.1660   27.0460   32.3460 N   0  0  0  0  0  0  0  0  0  0  0  0
   37.0520   26.4450   32.8580 C   0  0  0  0  0  0  0  0  0  0  0  0
   37.0280   25.1310   33.1460 N   0  0  0  0  0  0  0  0  0  0  0  0
   38.1210   24.3460   32.9360 C   0  0  0  0  0  0  0  0  0  0  0  0
   40.9870   22.4110   37.1797 H   0  0  0  0  0  0  0  0  0  0  0  0
   39.8660   23.6158   39.0915 H   0  0  0  0  0  0  0  0  0  0  0  0
   37.3440   23.9783   38.9639 H   0  0  0  0  0  0  0  0  0  0  0  0
   34.9012   20.0913   33.4240 H   0  0  0  0  0  0  0  0  0  0  0  0
   36.4766   21.5077   31.7371 H   0  0  0  0  0  0  0  0  0  0  0  0
   40.2782   21.9497   32.7058 H   0  0  0  0  0  0  0  0  0  0  0  0
   40.2039   26.7737   31.7029 H   0  0  0  0  0  0  0  0  0  0  0  0
   36.1516   27.0503   33.0396 H   0  0  0  0  0  0  0  0  0  0  0  0
  1  2  2  0
  3  2  1  0
  4  3  2  0
  5  6  2  0
  5  4  1  0
  6  1  1  0
  7  8  1  0
  7  5  1  0
  9  8  2  0
 10 11  2  0
 10  9  1  0
 11  7  1  0
 12 11  1  0
 13 12  1  0
 14 15  1  0
 14 13  2  0
 15 20  2  0
 16 17  2  0
 16 15  1  0
 17 18  1  0
 18 19  2  0
 20 12  1  0
 20 19  1  0
  1 21  1  0
  2 22  1  0
  3 23  1  0
  9 24  1  0
 10 25  1  0
 13 26  1  0
 16 27  1  0
 18 28  1  0
M  ISO  8  21  14  22  14  23  14  24  14  25  14  26  14  27  14  28  14
M  END
>  <minimizedAffinity>  (1) 
-4.93702364

>  <minimizedRMSD>  (1) 
0.433627665

$$$$
