
     RDKit          3D

 28 30  0  0  0  0  0  0  0  0999 V2000
   39.9000   22.8640   37.6280 C   0  0  0  0  0  0  0  0  0  0  0  0
   39.0310   23.2490   38.6590 C   0  0  0  0  0  0  0  0  0  0  0  0
   37.6630   23.3420   38.3390 C   0  0  0  0  0  0  0  0  0  0  0  0
   37.2810   23.0560   37.0700 N   0  0  0  0  0  0  0  0  0  0  0  0
   38.1460   22.6890   36.1040 C   0  0  0  0  0  0  0  0  0  0  0  0
   39.4490   22.5920   36.3780 N   0  0  0  0  0  0  0  0  0  0  0  0
   37.7500   22.3910   34.7780 N   0  0  0  0  0  0  0  0  0  0  0  0
   36.8420   21.4640   34.4920 N   0  0  0  0  0  0  0  0  0  0  0  0
   36.6850   21.4200   33.1420 C   0  0  0  0  0  0  0  0  0  0  0  0
   37.5490   22.3740   32.5900 C   0  0  0  0  0  0  0  0  0  0  0  0
   38.2100   22.9720   33.6540 C   0  0  0  0  0  0  0  0  0  0  0  0
   39.1820   24.0040   33.5230 N   0  0  0  0  0  0  0  0  0  0  0  0
   40.5120   23.9240   33.3280 C   0  0  0  0  0  0  0  0  0  0  0  0
   41.2460   25.0870   33.2320 C   0  0  0  0  0  0  0  0  0  0  0  0
   40.6470   26.3170   33.3340 C   0  0  0  0  0  0  0  0  0  0  0  0
   41.4420   27.5010   33.2300 N   0  0  0  0  0  0  0  0  0  0  0  0
   39.3060   26.3920   33.5300 N   0  0  0  0  0  0  0  0  0  0  0  0
   38.6130   25.2420   33.6200 C   0  0  0  0  0  0  0  0  0  0  0  0
   37.3670   25.4640   33.8050 O   0  0  0  0  0  0  0  0  0  0  0  0
   40.9764   22.7803   37.8386 H   0  0  0  0  0  0  0  0  0  0  0  0
   39.4011   23.4683   39.6714 H   0  0  0  0  0  0  0  0  0  0  0  0
   36.9242   23.6387   39.0981 H   0  0  0  0  0  0  0  0  0  0  0  0
   36.0051   20.7576   32.5862 H   0  0  0  0  0  0  0  0  0  0  0  0
   37.6785   22.6043   31.5222 H   0  0  0  0  0  0  0  0  0  0  0  0
   41.0058   22.9445   33.2465 H   0  0  0  0  0  0  0  0  0  0  0  0
   42.3325   25.0276   33.0706 H   0  0  0  0  0  0  0  0  0  0  0  0
   40.9984   28.4275   33.3057 H   0  0  0  0  0  0  0  0  0  0  0  0
   42.4583   27.4274   33.0794 H   0  0  0  0  0  0  0  0  0  0  0  0
  1  2  2  0
  3  2  1  0
  4  3  2  0
  5  6  2  0
  5  4  1  0
  6  1  1  0
  7  5  1  0
  8  7  1  0
  9  8  2  0
 10  9  1  0
 10 11  2  0
 11  7  1  0
 12 18  1  0
 12 11  1  0
 13 12  1  0
 14 13  2  0
 14 15  1  0
 15 17  2  0
 16 15  1  0
 17 18  1  0
 18 19  2  0
  1 20  1  0
  2 21  1  0
  3 22  1  0
  9 23  1  0
 10 24  1  0
 13 25  1  0
 14 26  1  0
 16 27  1  0
 16 28  1  0
M  ISO  7  20  14  21  14  22  14  23  14  24  14  25  14  26  14
M  END
>  <minimizedAffinity>  (1) 
-4.54415417

>  <minimizedRMSD>  (1) 
1.97841752

$$$$
