
     RDKit          3D

 24 25  0  0  0  0  0  0  0  0999 V2000
   39.8560   22.5890   37.0870 C   0  0  0  0  0  0  0  0  0  0  0  0
   39.2950   23.2990   38.1530 C   0  0  0  0  0  0  0  0  0  0  0  0
   37.9070   23.4830   38.1310 C   0  0  0  0  0  0  0  0  0  0  0  0
   37.1900   22.9670   37.0890 N   0  0  0  0  0  0  0  0  0  0  0  0
   37.7790   22.2900   36.0880 C   0  0  0  0  0  0  0  0  0  0  0  0
   39.1170   22.0880   36.0650 N   0  0  0  0  0  0  0  0  0  0  0  0
   37.0510   21.7440   34.9910 N   0  0  0  0  0  0  0  0  0  0  0  0
   36.0430   20.9030   35.1390 N   0  0  0  0  0  0  0  0  0  0  0  0
   35.5770   20.5800   33.9040 C   0  0  0  0  0  0  0  0  0  0  0  0
   36.3430   21.2600   32.9670 C   0  0  0  0  0  0  0  0  0  0  0  0
   37.2810   22.0000   33.6720 C   0  0  0  0  0  0  0  0  0  0  0  0
   38.2760   22.8520   33.1300 N   0  0  0  0  0  0  0  0  0  0  0  0
   38.0540   24.2400   32.9170 C   0  0  0  0  0  0  0  0  0  0  0  0
   36.8530   24.5780   32.5220 N   0  0  0  0  0  0  0  0  0  0  0  0
   39.1520   25.1480   33.1470 N   0  0  0  0  0  0  0  0  0  0  0  0
   36.5590   25.5540   32.3320 H   0  0  0  0  0  0  0  0  0  0  0  0
   40.9443   22.4295   37.0763 H   0  0  0  0  0  0  0  0  0  0  0  0
   39.9152   23.6946   38.9709 H   0  0  0  0  0  0  0  0  0  0  0  0
   37.4027   24.0335   38.9388 H   0  0  0  0  0  0  0  0  0  0  0  0
   34.7406   19.8999   33.6854 H   0  0  0  0  0  0  0  0  0  0  0  0
   36.2281   21.2197   31.8738 H   0  0  0  0  0  0  0  0  0  0  0  0
   39.1919   22.4514   32.8818 H   0  0  0  0  0  0  0  0  0  0  0  0
   39.0230   26.1595   33.0015 H   0  0  0  0  0  0  0  0  0  0  0  0
   40.0646   24.7845   33.4566 H   0  0  0  0  0  0  0  0  0  0  0  0
  1  2  2  0
  3  2  1  0
  4  3  2  0
  5  4  1  0
  6  5  2  0
  6  1  1  0
  7  8  1  0
  7  5  1  0
  9  8  2  0
 10 11  2  0
 10  9  1  0
 11  7  1  0
 12 11  1  0
 13 12  1  0
 13 15  1  0
 14 13  2  0
 16 14  1  0
  1 17  1  0
  2 18  1  0
  3 19  1  0
  9 20  1  0
 10 21  1  0
 12 22  1  0
 15 23  1  0
 15 24  1  0
M  ISO  5  17  14  18  14  19  14  20  14  21  14
M  END
>  <minimizedAffinity>  (1) 
-4.24238205

>  <minimizedRMSD>  (1) 
0.607187629

$$$$
