
     RDKit          3D

 31 33  0  0  0  0  0  0  0  0999 V2000
   39.9030   22.5520   36.1150 C   0  0  0  0  0  0  0  0  0  0  0  0
   39.4800   23.1030   37.3290 C   0  0  0  0  0  0  0  0  0  0  0  0
   38.0980   23.1600   37.5400 C   0  0  0  0  0  0  0  0  0  0  0  0
   37.2550   22.6870   36.5720 N   0  0  0  0  0  0  0  0  0  0  0  0
   37.7160   22.1680   35.4250 C   0  0  0  0  0  0  0  0  0  0  0  0
   39.0440   22.0900   35.1720 N   0  0  0  0  0  0  0  0  0  0  0  0
   36.8650   21.6660   34.3970 N   0  0  0  0  0  0  0  0  0  0  0  0
   35.9680   20.7020   34.6260 N   0  0  0  0  0  0  0  0  0  0  0  0
   35.3330   20.4650   33.4370 C   0  0  0  0  0  0  0  0  0  0  0  0
   35.8630   21.3100   32.4740 C   0  0  0  0  0  0  0  0  0  0  0  0
   36.8370   22.0660   33.1050 C   0  0  0  0  0  0  0  0  0  0  0  0
   37.6670   23.0810   32.5280 N   0  0  0  0  0  0  0  0  0  0  0  0
   37.4130   24.5050   32.7770 C   0  0  0  0  0  0  0  0  0  0  0  0
   37.1840   25.2810   31.5230 C   0  0  0  0  0  0  0  0  0  0  0  0
   37.6100   24.4770   30.3940 N   0  0  0  0  0  0  0  0  0  0  0  0
   38.9260   23.9260   30.6240 C   0  0  0  0  0  0  0  0  0  0  0  0
   38.8160   22.8300   31.6610 C   0  0  0  0  0  0  0  0  0  0  0  0
   40.9830   22.4904   35.9154 H   0  0  0  0  0  0  0  0  0  0  0  0
   40.1959   23.4720   38.0782 H   0  0  0  0  0  0  0  0  0  0  0  0
   37.6942   23.5801   38.4730 H   0  0  0  0  0  0  0  0  0  0  0  0
   34.5345   19.7265   33.2726 H   0  0  0  0  0  0  0  0  0  0  0  0
   35.5678   21.3685   31.4160 H   0  0  0  0  0  0  0  0  0  0  0  0
   36.5211   24.5964   33.4144 H   0  0  0  0  0  0  0  0  0  0  0  0
   38.3078   24.9202   33.2639 H   0  0  0  0  0  0  0  0  0  0  0  0
   36.1145   25.5191   31.4252 H   0  0  0  0  0  0  0  0  0  0  0  0
   37.7579   26.2189   31.5528 H   0  0  0  0  0  0  0  0  0  0  0  0
   37.6335   25.0662   29.5495 H   0  0  0  0  0  0  0  0  0  0  0  0
   39.3228   23.5102   29.6861 H   0  0  0  0  0  0  0  0  0  0  0  0
   39.6061   24.7137   30.9805 H   0  0  0  0  0  0  0  0  0  0  0  0
   38.6874   21.8613   31.1560 H   0  0  0  0  0  0  0  0  0  0  0  0
   39.7324   22.8128   32.2692 H   0  0  0  0  0  0  0  0  0  0  0  0
  1  2  2  0
  2  3  1  0
  4  3  2  0
  5  4  1  0
  6  5  2  0
  6  1  1  0
  7  8  1  0
  7  5  1  0
  9  8  2  0
 10 11  2  0
 10  9  1  0
 11  7  1  0
 12 13  1  0
 12 11  1  0
 14 13  1  0
 15 16  1  0
 15 14  1  0
 16 17  1  0
 17 12  1  0
  1 18  1  0
  2 19  1  0
  3 20  1  0
  9 21  1  0
 10 22  1  0
 13 23  1  0
 13 24  1  0
 14 25  1  0
 14 26  1  0
 15 27  1  0
 16 28  1  0
 16 29  1  0
 17 30  1  0
 17 31  1  0
M  ISO  8  18  14  19  14  20  14  21  14  22  14  23  13  24  13  25  13
M  ISO  6  26  13  27   5  28  13  29  13  30  13  31  13
M  END
>  <minimizedAffinity>  (1) 
-4.40088892

>  <minimizedRMSD>  (1) 
1.77051628

$$$$
