
     RDKit          3D

 24 26  0  0  0  0  0  0  0  0999 V2000
   39.8930   22.6120   37.1840 C   0  0  0  0  0  0  0  0  0  0  0  0
   39.3390   23.3400   38.2420 C   0  0  0  0  0  0  0  0  0  0  0  0
   37.9390   23.5280   38.2320 C   0  0  0  0  0  0  0  0  0  0  0  0
   37.2080   22.9960   37.2050 N   0  0  0  0  0  0  0  0  0  0  0  0
   37.7950   22.2950   36.1990 C   0  0  0  0  0  0  0  0  0  0  0  0
   39.1350   22.1010   36.1840 N   0  0  0  0  0  0  0  0  0  0  0  0
   37.0560   21.7350   35.1250 N   0  0  0  0  0  0  0  0  0  0  0  0
   36.0470   20.8930   35.3070 N   0  0  0  0  0  0  0  0  0  0  0  0
   35.5610   20.5500   34.0820 C   0  0  0  0  0  0  0  0  0  0  0  0
   36.3140   21.2200   33.1280 C   0  0  0  0  0  0  0  0  0  0  0  0
   37.2660   21.9730   33.8190 C   0  0  0  0  0  0  0  0  0  0  0  0
   38.2380   22.8060   33.1960 N   0  0  0  0  0  0  0  0  0  0  0  0
   38.1040   24.1580   33.0610 C   0  0  0  0  0  0  0  0  0  0  0  0
   39.1870   24.6840   32.4280 C   0  0  0  0  0  0  0  0  0  0  0  0
   40.0150   23.6400   32.1650 N   0  0  0  0  0  0  0  0  0  0  0  0
   39.4250   22.5070   32.6360 C   0  0  0  0  0  0  0  0  0  0  0  0
   40.9806   22.4488   37.1631 H   0  0  0  0  0  0  0  0  0  0  0  0
   39.9667   23.7487   39.0475 H   0  0  0  0  0  0  0  0  0  0  0  0
   37.4448   24.0926   39.0364 H   0  0  0  0  0  0  0  0  0  0  0  0
   34.7229   19.8655   33.8843 H   0  0  0  0  0  0  0  0  0  0  0  0
   36.1857   21.1680   32.0368 H   0  0  0  0  0  0  0  0  0  0  0  0
   37.2407   24.7406   33.4148 H   0  0  0  0  0  0  0  0  0  0  0  0
   39.3578   25.7418   32.1792 H   0  0  0  0  0  0  0  0  0  0  0  0
   39.8548   21.4967   32.5689 H   0  0  0  0  0  0  0  0  0  0  0  0
  1  2  2  0
  3  2  1  0
  4  3  2  0
  5  4  1  0
  6  5  2  0
  6  1  1  0
  7  8  1  0
  7  5  1  0
  9  8  2  0
 10 11  2  0
 10  9  1  0
 11  7  1  0
 12 11  1  0
 13 12  1  0
 14 13  2  0
 15 14  1  0
 15 16  2  0
 16 12  1  0
  1 17  1  0
  2 18  1  0
  3 19  1  0
  9 20  1  0
 10 21  1  0
 13 22  1  0
 14 23  1  0
 16 24  1  0
M  ISO  8  17  14  18  14  19  14  20  14  21  14  22  14  23  14  24  14
M  END
>  <minimizedAffinity>  (1) 
-4.19932795

>  <minimizedRMSD>  (1) 
0.108125925

$$$$
