
     RDKit          3D

 23 25  0  0  0  0  0  0  0  0999 V2000
   39.8600   22.6020   37.1800 C   0  0  0  0  0  0  0  0  0  0  0  0
   39.2800   23.2980   38.2480 C   0  0  0  0  0  0  0  0  0  0  0  0
   37.8940   23.4800   38.2170 C   0  0  0  0  0  0  0  0  0  0  0  0
   37.1970   22.9780   37.1680 N   0  0  0  0  0  0  0  0  0  0  0  0
   37.7850   22.3150   36.1590 C   0  0  0  0  0  0  0  0  0  0  0  0
   39.1200   22.1140   36.1430 N   0  0  0  0  0  0  0  0  0  0  0  0
   37.0610   21.7790   35.0440 N   0  0  0  0  0  0  0  0  0  0  0  0
   36.0680   20.9050   35.1960 N   0  0  0  0  0  0  0  0  0  0  0  0
   35.6010   20.6000   33.9600 C   0  0  0  0  0  0  0  0  0  0  0  0
   36.3460   21.3210   33.0370 C   0  0  0  0  0  0  0  0  0  0  0  0
   37.2830   22.0760   33.7500 C   0  0  0  0  0  0  0  0  0  0  0  0
   38.2950   22.9980   33.2140 C   0  0  0  0  0  0  0  0  0  0  0  0
   39.4560   22.4810   32.5620 C   0  0  0  0  0  0  0  0  0  0  0  0
   40.3750   23.9900   32.0910 S   0  0  0  0  0  0  0  0  0  0  0  0
   39.0230   25.0830   32.8600 C   0  0  0  0  0  0  0  0  0  0  0  0
   38.2860   24.3140   33.2490 N   0  0  0  0  0  0  0  0  0  0  0  0
   40.9485   22.4435   37.1772 H   0  0  0  0  0  0  0  0  0  0  0  0
   39.8899   23.6856   39.0773 H   0  0  0  0  0  0  0  0  0  0  0  0
   37.3800   24.0190   39.0265 H   0  0  0  0  0  0  0  0  0  0  0  0
   34.7793   19.9058   33.7301 H   0  0  0  0  0  0  0  0  0  0  0  0
   36.2221   21.3021   31.9442 H   0  0  0  0  0  0  0  0  0  0  0  0
   39.7305   21.4304   32.3860 H   0  0  0  0  0  0  0  0  0  0  0  0
   38.9694   26.1804   32.9138 H   0  0  0  0  0  0  0  0  0  0  0  0
  1  2  2  0
  3  2  1  0
  4  3  2  0
  5  4  1  0
  6  5  2  0
  6  1  1  0
  7  8  1  0
  7  5  1  0
  9  8  2  0
 10 11  2  0
 10  9  1  0
 11  7  1  0
 12 16  1  0
 12 11  1  0
 13 12  2  0
 14 13  1  0
 14 15  1  0
 15 16  2  0
  1 17  1  0
  2 18  1  0
  3 19  1  0
  9 20  1  0
 10 21  1  0
 13 22  1  0
 15 23  1  0
M  ISO  7  17  14  18  14  19  14  20  14  21  14  22  14  23  14
M  END
>  <minimizedAffinity>  (1) 
-4.19996881

>  <minimizedRMSD>  (1) 
0.115501352

$$$$
