
     RDKit          3D

 22 24  0  0  0  0  0  0  0  0999 V2000
   39.9000   22.6210   37.1830 C   0  0  0  0  0  0  0  0  0  0  0  0
   39.3360   23.3560   38.2580 C   0  0  0  0  0  0  0  0  0  0  0  0
   37.9420   23.5330   38.2490 C   0  0  0  0  0  0  0  0  0  0  0  0
   37.2230   23.0020   37.2320 N   0  0  0  0  0  0  0  0  0  0  0  0
   37.7810   22.3120   36.2290 C   0  0  0  0  0  0  0  0  0  0  0  0
   39.1200   22.1170   36.1970 N   0  0  0  0  0  0  0  0  0  0  0  0
   37.0480   21.7420   35.1490 N   0  0  0  0  0  0  0  0  0  0  0  0
   36.0380   20.8930   35.3600 N   0  0  0  0  0  0  0  0  0  0  0  0
   35.5610   20.5400   34.1270 C   0  0  0  0  0  0  0  0  0  0  0  0
   36.3080   21.1960   33.1590 C   0  0  0  0  0  0  0  0  0  0  0  0
   37.2500   21.9570   33.8380 C   0  0  0  0  0  0  0  0  0  0  0  0
   38.2500   22.8120   33.2140 C   0  0  0  0  0  0  0  0  0  0  0  0
   39.4470   22.5130   32.6730 N   0  0  0  0  0  0  0  0  0  0  0  0
   40.0130   23.6160   32.2220 O   0  0  0  0  0  0  0  0  0  0  0  0
   39.2000   24.6420   32.4590 C   0  0  0  0  0  0  0  0  0  0  0  0
   38.0940   24.1500   33.0780 N   0  0  0  0  0  0  0  0  0  0  0  0
   40.9874   22.4581   37.1500 H   0  0  0  0  0  0  0  0  0  0  0  0
   39.9623   23.7688   39.0626 H   0  0  0  0  0  0  0  0  0  0  0  0
   37.4437   24.0931   39.0540 H   0  0  0  0  0  0  0  0  0  0  0  0
   34.7250   19.8513   33.9352 H   0  0  0  0  0  0  0  0  0  0  0  0
   36.1792   21.1268   32.0688 H   0  0  0  0  0  0  0  0  0  0  0  0
   39.3880   25.6948   32.2015 H   0  0  0  0  0  0  0  0  0  0  0  0
  1  2  2  0
  3  2  1  0
  4  3  2  0
  5  4  1  0
  6  5  2  0
  6  1  1  0
  7  8  1  0
  7  5  1  0
  9  8  2  0
 10 11  2  0
 10  9  1  0
 11  7  1  0
 12 11  1  0
 13 12  2  0
 14 15  1  0
 14 13  1  0
 15 16  2  0
 16 12  1  0
  1 17  1  0
  2 18  1  0
  3 19  1  0
  9 20  1  0
 10 21  1  0
 15 22  1  0
M  ISO  6  17  14  18  14  19  14  20  14  21  14  22  14
M  END
>  <minimizedAffinity>  (1) 
-4.19432306

>  <minimizedRMSD>  (1) 
0.613678157

$$$$
