
     RDKit          3D

 18 19  0  0  0  0  0  0  0  0999 V2000
   39.8810   22.5870   37.1680 C   0  0  0  0  0  0  0  0  0  0  0  0
   39.3020   23.3000   38.2370 C   0  0  0  0  0  0  0  0  0  0  0  0
   37.8950   23.4920   38.1990 C   0  0  0  0  0  0  0  0  0  0  0  0
   37.2100   22.9800   37.1470 N   0  0  0  0  0  0  0  0  0  0  0  0
   37.7930   22.3050   36.1460 C   0  0  0  0  0  0  0  0  0  0  0  0
   39.1180   22.1160   36.1660 N   0  0  0  0  0  0  0  0  0  0  0  0
   37.0780   21.7660   35.0400 N   0  0  0  0  0  0  0  0  0  0  0  0
   36.0570   20.9200   35.2040 N   0  0  0  0  0  0  0  0  0  0  0  0
   35.5960   20.5960   33.9610 C   0  0  0  0  0  0  0  0  0  0  0  0
   36.3750   21.2770   33.0300 C   0  0  0  0  0  0  0  0  0  0  0  0
   37.3210   22.0220   33.7420 C   0  0  0  0  0  0  0  0  0  0  0  0
   38.5610   23.0710   33.0280 S   0  0  0  0  0  0  0  0  0  0  0  0
   40.9672   22.4142   37.1532 H   0  0  0  0  0  0  0  0  0  0  0  0
   39.9127   23.6906   39.0643 H   0  0  0  0  0  0  0  0  0  0  0  0
   37.3765   24.0400   38.9996 H   0  0  0  0  0  0  0  0  0  0  0  0
   34.7593   19.9185   33.7355 H   0  0  0  0  0  0  0  0  0  0  0  0
   36.2667   21.2368   31.9361 H   0  0  0  0  0  0  0  0  0  0  0  0
   39.2770   23.6767   34.0267 H   0  0  0  0  0  0  0  0  0  0  0  0
  1  2  2  0
  3  2  1  0
  4  3  2  0
  5  6  2  0
  5  4  1  0
  6  1  1  0
  7  8  1  0
  7  5  1  0
  9  8  2  0
 10 11  2  0
 10  9  1  0
 11  7  1  0
 12 11  1  0
  1 13  1  0
  2 14  1  0
  3 15  1  0
  9 16  1  0
 10 17  1  0
 12 18  1  0
M  ISO  6  13  14  14  14  15  14  16  14  17  14  18  11
M  END
>  <minimizedAffinity>  (1) 
-3.92223525

>  <minimizedRMSD>  (1) 
0.033467982

$$$$
