
     RDKit          3D

 37 41  0  0  0  0  0  0  0  0999 V2000
   38.3540   22.5900   33.4890 N   0  0  0  0  0  0  0  0  0  0  0  0
   39.6350   22.3020   33.1730 C   0  0  0  0  0  0  0  0  0  0  0  0
   40.2300   23.3210   32.5510 N   0  0  0  0  0  0  0  0  0  0  0  0
   39.2840   24.2830   32.4750 C   0  0  0  0  0  0  0  0  0  0  0  0
   38.1500   23.8250   33.0480 N   0  0  0  0  0  0  0  0  0  0  0  0
   39.3980   25.5890   31.8980 N   0  0  0  0  0  0  0  0  0  0  0  0
   40.4040   26.4770   31.7900 C   0  0  0  0  0  0  0  0  0  0  0  0
   39.9970   27.5720   31.1500 N   0  0  0  0  0  0  0  0  0  0  0  0
   38.6930   27.3990   30.8300 C   0  0  0  0  0  0  0  0  0  0  0  0
   37.8020   28.2200   30.1700 C   0  0  0  0  0  0  0  0  0  0  0  0
   38.1370   29.3630   29.7360 O   0  0  0  0  0  0  0  0  0  0  0  0
   36.5280   27.8530   29.9490 N   0  0  0  0  0  0  0  0  0  0  0  0
   36.2250   26.6170   30.4360 C   0  0  0  0  0  0  0  0  0  0  0  0
   34.8900   26.0970   30.2690 N   0  0  0  0  0  0  0  0  0  0  0  0
   37.0490   25.7750   31.0850 N   0  0  0  0  0  0  0  0  0  0  0  0
   38.3120   26.1570   31.2960 C   0  0  0  0  0  0  0  0  0  0  0  0
   39.8840   22.7580   37.5210 C   0  0  0  0  0  0  0  0  0  0  0  0
   39.3070   23.5830   38.4790 C   0  0  0  0  0  0  0  0  0  0  0  0
   37.9170   23.7950   38.4130 C   0  0  0  0  0  0  0  0  0  0  0  0
   37.2150   23.1800   37.4180 N   0  0  0  0  0  0  0  0  0  0  0  0
   37.8040   22.3810   36.5000 C   0  0  0  0  0  0  0  0  0  0  0  0
   39.1430   22.1650   36.5460 N   0  0  0  0  0  0  0  0  0  0  0  0
   37.0980   21.7300   35.4550 N   0  0  0  0  0  0  0  0  0  0  0  0
   36.0790   20.9240   35.6840 N   0  0  0  0  0  0  0  0  0  0  0  0
   35.6070   20.4520   34.5230 C   0  0  0  0  0  0  0  0  0  0  0  0
   36.4090   21.0190   33.5080 C   0  0  0  0  0  0  0  0  0  0  0  0
   37.3460   21.8270   34.1450 C   0  0  0  0  0  0  0  0  0  0  0  0
   40.1272   21.3449   33.4005 H   0  0  0  0  0  0  0  0  0  0  0  0
   41.4217   26.3200   32.1769 H   0  0  0  0  0  0  0  0  0  0  0  0
   35.8460   28.4490   29.4585 H   0  0  0  0  0  0  0  0  0  0  0  0
   34.6515   25.1637   30.6337 H   0  0  0  0  0  0  0  0  0  0  0  0
   34.1752   26.6589   29.7850 H   0  0  0  0  0  0  0  0  0  0  0  0
   40.9690   22.5796   37.5518 H   0  0  0  0  0  0  0  0  0  0  0  0
   39.9168   24.0550   39.2634 H   0  0  0  0  0  0  0  0  0  0  0  0
   37.4096   24.4403   39.1452 H   0  0  0  0  0  0  0  0  0  0  0  0
   34.7626   19.7603   34.3869 H   0  0  0  0  0  0  0  0  0  0  0  0
   36.3119   20.8540   32.4248 H   0  0  0  0  0  0  0  0  0  0  0  0
  1 27  1  0
  2  1  1  0
  3  2  2  0
  4  3  1  0
  4  5  2  0
  5  1  1  0
  6  4  1  0
  7  6  1  0
  8  7  2  0
  9  8  1  0
  9 16  2  0
 10  9  1  0
 11 10  2  0
 12 10  1  0
 12 13  1  0
 13 15  2  0
 14 13  1  0
 15 16  1  0
 16  6  1  0
 17 18  2  0
 19 18  1  0
 20 19  2  0
 21 22  2  0
 21 20  1  0
 22 17  1  0
 23 24  1  0
 23 21  1  0
 25 24  2  0
 26 27  2  0
 26 25  1  0
 27 23  1  0
  2 28  1  0
  7 29  1  0
 12 30  1  0
 14 31  1  0
 14 32  1  0
 17 33  1  0
 18 34  1  0
 19 35  1  0
 25 36  1  0
 26 37  1  0
M  ISO  8  28  14  29  14  30   9  33  14  34  14  35  14  36  14  37  14
M  END
>  <minimizedAffinity>  (1) 
-6.19951153

>  <minimizedRMSD>  (1) 
1.07858777

$$$$
