
     RDKit          3D

 37 41  0  0  0  0  0  0  0  0999 V2000
   37.8440   23.6070   33.0650 N   0  0  0  0  0  0  0  0  0  0  0  0
   39.1450   23.8940   32.9950 C   0  0  0  0  0  0  0  0  0  0  0  0
   39.3350   25.1160   32.5130 N   0  0  0  0  0  0  0  0  0  0  0  0
   38.1210   25.6340   32.2630 C   0  0  0  0  0  0  0  0  0  0  0  0
   37.2640   24.6820   32.6140 N   0  0  0  0  0  0  0  0  0  0  0  0
   39.7370   23.0260   36.9000 C   0  0  0  0  0  0  0  0  0  0  0  0
   39.0840   23.3620   38.0920 C   0  0  0  0  0  0  0  0  0  0  0  0
   37.7030   23.1990   38.1360 C   0  0  0  0  0  0  0  0  0  0  0  0
   37.0430   22.7270   37.0390 N   0  0  0  0  0  0  0  0  0  0  0  0
   37.7260   22.4140   35.9010 C   0  0  0  0  0  0  0  0  0  0  0  0
   39.0580   22.5570   35.8190 N   0  0  0  0  0  0  0  0  0  0  0  0
   37.0780   21.9210   34.7420 N   0  0  0  0  0  0  0  0  0  0  0  0
   36.3140   20.8440   34.7540 N   0  0  0  0  0  0  0  0  0  0  0  0
   35.8300   20.6160   33.5050 C   0  0  0  0  0  0  0  0  0  0  0  0
   36.3460   21.6370   32.6970 C   0  0  0  0  0  0  0  0  0  0  0  0
   37.1310   22.4480   33.5040 C   0  0  0  0  0  0  0  0  0  0  0  0
   37.5360   26.8830   31.7430 C   0  0  0  0  0  0  0  0  0  0  0  0
   37.5140   27.2530   30.4430 N   0  0  0  0  0  0  0  0  0  0  0  0
   36.9880   28.3730   29.9840 C   0  0  0  0  0  0  0  0  0  0  0  0
   36.4120   29.2670   30.8070 N   0  0  0  0  0  0  0  0  0  0  0  0
   36.3760   29.0010   32.1430 C   0  0  0  0  0  0  0  0  0  0  0  0
   35.7870   29.9140   32.9820 C   0  0  0  0  0  0  0  0  0  0  0  0
   35.7310   29.6840   34.3280 C   0  0  0  0  0  0  0  0  0  0  0  0
   36.2800   28.5150   34.8010 C   0  0  0  0  0  0  0  0  0  0  0  0
   36.8580   27.6340   33.9160 C   0  0  0  0  0  0  0  0  0  0  0  0
   36.9400   27.8170   32.5550 C   0  0  0  0  0  0  0  0  0  0  0  0
   39.9519   23.2098   33.2963 H   0  0  0  0  0  0  0  0  0  0  0  0
   40.8287   23.1446   36.8361 H   0  0  0  0  0  0  0  0  0  0  0  0
   39.6419   23.7407   38.9611 H   0  0  0  0  0  0  0  0  0  0  0  0
   37.1459   23.4494   39.0508 H   0  0  0  0  0  0  0  0  0  0  0  0
   35.1673   19.7958   33.1919 H   0  0  0  0  0  0  0  0  0  0  0  0
   36.1627   21.7712   31.6207 H   0  0  0  0  0  0  0  0  0  0  0  0
   37.0215   28.5798   28.9041 H   0  0  0  0  0  0  0  0  0  0  0  0
   35.3568   30.8378   32.5678 H   0  0  0  0  0  0  0  0  0  0  0  0
   35.2628   30.4091   35.0099 H   0  0  0  0  0  0  0  0  0  0  0  0
   36.2572   28.2865   35.8768 H   0  0  0  0  0  0  0  0  0  0  0  0
   37.2886   26.7101   34.3296 H   0  0  0  0  0  0  0  0  0  0  0  0
  1 16  1  0
  2  1  1  0
  3  2  2  0
  4  3  1  0
  4  5  2  0
  5  1  1  0
  6  7  2  0
  7  8  1  0
  9  8  2  0
 10  9  1  0
 11 10  2  0
 11  6  1  0
 12 13  1  0
 12 10  1  0
 14 13  2  0
 15 16  2  0
 15 14  1  0
 16 12  1  0
 17  4  1  0
 17 26  1  0
 18 17  2  0
 19 18  1  0
 19 20  2  0
 20 21  1  0
 21 26  2  0
 21 22  1  0
 22 23  2  0
 23 24  1  0
 25 24  2  0
 26 25  1  0
  2 27  1  0
  6 28  1  0
  7 29  1  0
  8 30  1  0
 14 31  1  0
 15 32  1  0
 19 33  1  0
 22 34  1  0
 23 35  1  0
 24 36  1  0
 25 37  1  0
M  ISO  8  27  14  28  14  29  14  30  14  31  14  32  14  33  14  34  14
M  ISO  3  35  14  36  14  37  14
M  END
>  <minimizedAffinity>  (1) 
-6.19118929

>  <minimizedRMSD>  (1) 
1.41080153

$$$$
