
     RDKit          3D

 36 39  0  0  0  0  0  0  0  0999 V2000
   39.7190   22.7180   36.9270 C   0  0  0  0  0  0  0  0  0  0  0  0
   39.1380   23.2990   38.0570 C   0  0  0  0  0  0  0  0  0  0  0  0
   37.7350   23.3180   38.1260 C   0  0  0  0  0  0  0  0  0  0  0  0
   37.0280   22.7760   37.1030 N   0  0  0  0  0  0  0  0  0  0  0  0
   37.6260   22.2180   36.0200 C   0  0  0  0  0  0  0  0  0  0  0  0
   38.9680   22.1900   35.9310 N   0  0  0  0  0  0  0  0  0  0  0  0
   36.9040   21.6460   34.9370 N   0  0  0  0  0  0  0  0  0  0  0  0
   36.0200   20.6770   35.1070 N   0  0  0  0  0  0  0  0  0  0  0  0
   35.4950   20.3320   33.9130 C   0  0  0  0  0  0  0  0  0  0  0  0
   36.1160   21.1580   32.9660 C   0  0  0  0  0  0  0  0  0  0  0  0
   36.9990   21.9780   33.6350 C   0  0  0  0  0  0  0  0  0  0  0  0
   37.8320   22.9650   33.0500 N   0  0  0  0  0  0  0  0  0  0  0  0
   39.1030   22.8990   32.5820 C   0  0  0  0  0  0  0  0  0  0  0  0
   39.5160   24.0820   32.1040 N   0  0  0  0  0  0  0  0  0  0  0  0
   38.4610   24.9060   32.2860 C   0  0  0  0  0  0  0  0  0  0  0  0
   37.4640   24.2230   32.8520 N   0  0  0  0  0  0  0  0  0  0  0  0
   38.4270   26.2810   31.9270 N   0  0  0  0  0  0  0  0  0  0  0  0
   38.2000   27.3150   32.9190 C   0  0  0  0  0  0  0  0  0  0  0  0
   37.0140   28.1170   32.3750 C   0  0  0  0  0  0  0  0  0  0  0  0
   37.4830   28.7570   31.2250 O   0  0  0  0  0  0  0  0  0  0  0  0
   37.6790   27.8520   30.2080 C   0  0  0  0  0  0  0  0  0  0  0  0
   38.6120   26.7260   30.5810 C   0  0  0  0  0  0  0  0  0  0  0  0
   40.8155   22.6886   36.8440 H   0  0  0  0  0  0  0  0  0  0  0  0
   39.7553   23.7251   38.8616 H   0  0  0  0  0  0  0  0  0  0  0  0
   37.2209   23.7627   38.9908 H   0  0  0  0  0  0  0  0  0  0  0  0
   34.7349   19.5602   33.7218 H   0  0  0  0  0  0  0  0  0  0  0  0
   35.9314   21.1527   31.8816 H   0  0  0  0  0  0  0  0  0  0  0  0
   39.7191   21.9878   32.5931 H   0  0  0  0  0  0  0  0  0  0  0  0
   37.9535   26.8702   33.8944 H   0  0  0  0  0  0  0  0  0  0  0  0
   39.0895   27.9419   33.0798 H   0  0  0  0  0  0  0  0  0  0  0  0
   36.1792   27.4453   32.1262 H   0  0  0  0  0  0  0  0  0  0  0  0
   36.6393   28.8387   33.1158 H   0  0  0  0  0  0  0  0  0  0  0  0
   38.1028   28.3846   29.3439 H   0  0  0  0  0  0  0  0  0  0  0  0
   36.7014   27.4023   29.9798 H   0  0  0  0  0  0  0  0  0  0  0  0
   38.4314   25.8795   29.9022 H   0  0  0  0  0  0  0  0  0  0  0  0
   39.6414   27.1039   30.4938 H   0  0  0  0  0  0  0  0  0  0  0  0
  1  2  2  0
  2  3  1  0
  4  3  2  0
  5  4  1  0
  6  5  2  0
  6  1  1  0
  7  8  1  0
  7  5  1  0
  9  8  2  0
 10 11  2  0
 10  9  1  0
 11  7  1  0
 12 11  1  0
 13 12  1  0
 14 15  1  0
 14 13  2  0
 15 16  2  0
 16 12  1  0
 17 15  1  0
 17 18  1  0
 19 18  1  0
 20 19  1  0
 21 22  1  0
 21 20  1  0
 22 17  1  0
  1 23  1  0
  2 24  1  0
  3 25  1  0
  9 26  1  0
 10 27  1  0
 13 28  1  0
 18 29  1  0
 18 30  1  0
 19 31  1  0
 19 32  1  0
 21 33  1  0
 21 34  1  0
 22 35  1  0
 22 36  1  0
M  ISO  8  23  14  24  14  25  14  26  14  27  14  28  14  29  13  30  13
M  ISO  6  31  13  32  13  33  13  34  13  35  13  36  13
M  END
>  <minimizedAffinity>  (1) 
-5.33278275

>  <minimizedRMSD>  (1) 
0.696574688

$$$$
