
     RDKit          3D

 35 38  0  0  0  0  0  0  0  0999 V2000
   39.7150   22.7600   36.9560 C   0  0  0  0  0  0  0  0  0  0  0  0
   39.1190   23.3060   38.0920 C   0  0  0  0  0  0  0  0  0  0  0  0
   37.7260   23.3000   38.1650 C   0  0  0  0  0  0  0  0  0  0  0  0
   37.0230   22.7620   37.1280 N   0  0  0  0  0  0  0  0  0  0  0  0
   37.6250   22.2410   36.0420 C   0  0  0  0  0  0  0  0  0  0  0  0
   38.9810   22.2330   35.9420 N   0  0  0  0  0  0  0  0  0  0  0  0
   36.9190   21.6790   34.9540 N   0  0  0  0  0  0  0  0  0  0  0  0
   36.0460   20.6940   35.1030 N   0  0  0  0  0  0  0  0  0  0  0  0
   35.5290   20.3590   33.9080 C   0  0  0  0  0  0  0  0  0  0  0  0
   36.1380   21.2110   32.9610 C   0  0  0  0  0  0  0  0  0  0  0  0
   37.0080   22.0310   33.6560 C   0  0  0  0  0  0  0  0  0  0  0  0
   37.8330   23.0470   33.0800 N   0  0  0  0  0  0  0  0  0  0  0  0
   39.0790   22.9980   32.5840 C   0  0  0  0  0  0  0  0  0  0  0  0
   39.4660   24.1990   32.1430 N   0  0  0  0  0  0  0  0  0  0  0  0
   38.4210   25.0260   32.3760 C   0  0  0  0  0  0  0  0  0  0  0  0
   37.4530   24.3030   32.9400 N   0  0  0  0  0  0  0  0  0  0  0  0
   38.3670   26.4150   32.0710 N   0  0  0  0  0  0  0  0  0  0  0  0
   37.2300   27.2990   32.3270 C   0  0  0  0  0  0  0  0  0  0  0  0
   37.4410   28.5020   31.4440 C   0  0  0  0  0  0  0  0  0  0  0  0
   38.5980   28.1080   30.5390 C   0  0  0  0  0  0  0  0  0  0  0  0
   39.4100   27.2160   31.4570 C   0  0  0  0  0  0  0  0  0  0  0  0
   40.8123   22.7559   36.8787 H   0  0  0  0  0  0  0  0  0  0  0  0
   39.7280   23.7282   38.9050 H   0  0  0  0  0  0  0  0  0  0  0  0
   37.2066   23.7197   39.0391 H   0  0  0  0  0  0  0  0  0  0  0  0
   34.7812   19.5775   33.7081 H   0  0  0  0  0  0  0  0  0  0  0  0
   35.9551   21.2207   31.8763 H   0  0  0  0  0  0  0  0  0  0  0  0
   39.6992   22.0904   32.5455 H   0  0  0  0  0  0  0  0  0  0  0  0
   36.2868   26.7950   32.0694 H   0  0  0  0  0  0  0  0  0  0  0  0
   37.1662   27.5809   33.3883 H   0  0  0  0  0  0  0  0  0  0  0  0
   36.5383   28.7136   30.8521 H   0  0  0  0  0  0  0  0  0  0  0  0
   37.6518   29.4143   32.0213 H   0  0  0  0  0  0  0  0  0  0  0  0
   38.2462   27.5589   29.6532 H   0  0  0  0  0  0  0  0  0  0  0  0
   39.1594   28.9617   30.1316 H   0  0  0  0  0  0  0  0  0  0  0  0
   40.1163   26.5915   30.8903 H   0  0  0  0  0  0  0  0  0  0  0  0
   40.0397   27.7623   32.1746 H   0  0  0  0  0  0  0  0  0  0  0  0
  1  2  2  0
  2  3  1  0
  4  3  2  0
  5  4  1  0
  6  5  2  0
  6  1  1  0
  7  8  1  0
  7  5  1  0
  9  8  2  0
 10 11  2  0
 10  9  1  0
 11  7  1  0
 12 11  1  0
 13 12  1  0
 14 15  1  0
 14 13  2  0
 15 16  2  0
 16 12  1  0
 17 18  1  0
 17 15  1  0
 19 18  1  0
 20 19  1  0
 20 21  1  0
 21 17  1  0
  1 22  1  0
  2 23  1  0
  3 24  1  0
  9 25  1  0
 10 26  1  0
 13 27  1  0
 18 28  1  0
 18 29  1  0
 19 30  1  0
 19 31  1  0
 20 32  1  0
 20 33  1  0
 21 34  1  0
 21 35  1  0
M  ISO  8  22  14  23  14  24  14  25  14  26  14  27  14  28  13  29  13
M  ISO  6  30  13  31  13  32  13  33  13  34  13  35  13
M  END
>  <minimizedAffinity>  (1) 
-5.21928549

>  <minimizedRMSD>  (1) 
0.6331141

$$$$
