
     RDKit          3D

 30 32  0  0  0  0  0  0  0  0999 V2000
   37.4230   22.4740   32.4670 C   0  0  0  0  0  0  0  0  0  0  0  0
   38.2540   21.3690   32.1910 C   0  0  0  0  0  0  0  0  0  0  0  0
   39.5000   21.3310   32.8010 C   0  0  0  0  0  0  0  0  0  0  0  0
   39.8680   22.3480   33.6330 N   0  0  0  0  0  0  0  0  0  0  0  0
   39.0650   23.3760   33.8730 C   0  0  0  0  0  0  0  0  0  0  0  0
   37.8230   23.4620   33.2950 N   0  0  0  0  0  0  0  0  0  0  0  0
   37.7610   20.3980   31.3280 N   0  0  0  0  0  0  0  0  0  0  0  0
   36.9570   19.4420   31.9000 C   0  0  0  0  0  0  0  0  0  0  0  0
   36.4330   18.4520   31.1120 C   0  0  0  0  0  0  0  0  0  0  0  0
   36.7470   18.4780   29.7760 C   0  0  0  0  0  0  0  0  0  0  0  0
   36.2490   17.4980   28.9030 N   0  0  0  0  0  0  0  0  0  0  0  0
   37.5340   19.4290   29.2600 N   0  0  0  0  0  0  0  0  0  0  0  0
   38.0520   20.4060   30.0410 C   0  0  0  0  0  0  0  0  0  0  0  0
   38.7880   21.2870   29.5280 O   0  0  0  0  0  0  0  0  0  0  0  0
   39.4720   24.4900   34.7910 C   0  0  0  0  0  0  0  0  0  0  0  0
   39.1270   24.0520   36.1920 C   0  0  0  0  0  0  0  0  0  0  0  0
   37.9010   24.5150   36.8120 C   0  0  0  0  0  0  0  0  0  0  0  0
   38.0320   23.6860   38.4220 S   0  0  0  0  0  0  0  0  0  0  0  0
   39.6390   22.8830   38.0320 C   0  0  0  0  0  0  0  0  0  0  0  0
   39.9760   23.2360   36.8300 N   0  0  0  0  0  0  0  0  0  0  0  0
   36.4295   22.5320   31.9985 H   0  0  0  0  0  0  0  0  0  0  0  0
   40.1839   20.4896   32.6157 H   0  0  0  0  0  0  0  0  0  0  0  0
   36.7369   19.4714   32.9774 H   0  0  0  0  0  0  0  0  0  0  0  0
   35.7866   17.6677   31.5327 H   0  0  0  0  0  0  0  0  0  0  0  0
   36.4918   17.5282   27.9025 H   0  0  0  0  0  0  0  0  0  0  0  0
   35.6408   16.7487   29.2630 H   0  0  0  0  0  0  0  0  0  0  0  0
   40.5535   24.6729   34.7075 H   0  0  0  0  0  0  0  0  0  0  0  0
   38.9518   25.4238   34.5313 H   0  0  0  0  0  0  0  0  0  0  0  0
   37.1163   25.1784   36.4195 H   0  0  0  0  0  0  0  0  0  0  0  0
   40.2122   22.2217   38.6984 H   0  0  0  0  0  0  0  0  0  0  0  0
  1  6  2  0
  2  1  1  0
  2  3  2  0
  3  4  1  0
  4  5  2  0
  5 15  1  0
  6  5  1  0
  7  8  1  0
  7  2  1  0
  9  8  2  0
 10  9  1  0
 11 10  1  0
 12 10  2  0
 12 13  1  0
 13  7  1  0
 14 13  2  0
 15 16  1  0
 16 17  2  0
 16 20  1  0
 17 18  1  0
 19 18  1  0
 20 19  2  0
  1 21  1  0
  3 22  1  0
  8 23  1  0
  9 24  1  0
 11 25  1  0
 11 26  1  0
 15 27  1  0
 15 28  1  0
 17 29  1  0
 19 30  1  0
M  ISO  8  21  14  22  14  23  14  24  14  27   8  28   8  29  14  30  14
M  END
>  <minimizedAffinity>  (1) 
-3.99108958

>  <minimizedRMSD>  (1) 
3.91300678

$$$$
