
     RDKit          3D

 36 39  0  0  0  0  0  0  0  0999 V2000
   39.7300   22.7500   36.9940 C   0  0  0  0  0  0  0  0  0  0  0  0
   39.1210   23.2790   38.1400 C   0  0  0  0  0  0  0  0  0  0  0  0
   37.7280   23.2820   38.1920 C   0  0  0  0  0  0  0  0  0  0  0  0
   37.0370   22.7770   37.1360 N   0  0  0  0  0  0  0  0  0  0  0  0
   37.6430   22.2700   36.0370 C   0  0  0  0  0  0  0  0  0  0  0  0
   39.0010   22.2560   35.9630 N   0  0  0  0  0  0  0  0  0  0  0  0
   36.9510   21.7380   34.9230 N   0  0  0  0  0  0  0  0  0  0  0  0
   36.0760   20.7640   35.0330 N   0  0  0  0  0  0  0  0  0  0  0  0
   35.5720   20.4560   33.8170 C   0  0  0  0  0  0  0  0  0  0  0  0
   36.2050   21.3260   32.9130 C   0  0  0  0  0  0  0  0  0  0  0  0
   37.0700   22.1240   33.6350 C   0  0  0  0  0  0  0  0  0  0  0  0
   37.9080   23.1440   33.1020 N   0  0  0  0  0  0  0  0  0  0  0  0
   39.1040   23.0900   32.4710 C   0  0  0  0  0  0  0  0  0  0  0  0
   39.5470   24.2970   32.1320 N   0  0  0  0  0  0  0  0  0  0  0  0
   38.5740   25.1510   32.5750 C   0  0  0  0  0  0  0  0  0  0  0  0
   37.6070   24.4360   33.1500 N   0  0  0  0  0  0  0  0  0  0  0  0
   38.5440   26.6340   32.4620 C   0  0  0  0  0  0  0  0  0  0  0  0
   38.5720   27.1000   31.0160 C   0  0  0  0  0  0  0  0  0  0  0  0
   37.6970   28.3110   30.9450 C   0  0  0  0  0  0  0  0  0  0  0  0
   36.9140   28.4020   32.2160 C   0  0  0  0  0  0  0  0  0  0  0  0
   37.3410   27.2610   33.0900 C   0  0  0  0  0  0  0  0  0  0  0  0
   40.8280   22.7352   36.9292 H   0  0  0  0  0  0  0  0  0  0  0  0
   39.7219   23.6783   38.9704 H   0  0  0  0  0  0  0  0  0  0  0  0
   37.1994   23.6844   39.0687 H   0  0  0  0  0  0  0  0  0  0  0  0
   34.8227   19.6852   33.5838 H   0  0  0  0  0  0  0  0  0  0  0  0
   36.0409   21.3643   31.8260 H   0  0  0  0  0  0  0  0  0  0  0  0
   39.6466   22.1561   32.2628 H   0  0  0  0  0  0  0  0  0  0  0  0
   39.4486   26.9538   32.9999 H   0  0  0  0  0  0  0  0  0  0  0  0
   39.5998   27.3554   30.7185 H   0  0  0  0  0  0  0  0  0  0  0  0
   38.2170   26.3114   30.3362 H   0  0  0  0  0  0  0  0  0  0  0  0
   38.3175   29.2114   30.8255 H   0  0  0  0  0  0  0  0  0  0  0  0
   37.0150   28.2350   30.0853 H   0  0  0  0  0  0  0  0  0  0  0  0
   37.1224   29.3583   32.7180 H   0  0  0  0  0  0  0  0  0  0  0  0
   35.8345   28.3506   32.0110 H   0  0  0  0  0  0  0  0  0  0  0  0
   36.5294   26.5223   33.1651 H   0  0  0  0  0  0  0  0  0  0  0  0
   37.5771   27.6187   34.1031 H   0  0  0  0  0  0  0  0  0  0  0  0
  1  2  2  0
  2  3  1  0
  4  3  2  0
  5  4  1  0
  6  5  2  0
  6  1  1  0
  7  8  1  0
  7  5  1  0
  9  8  2  0
 10 11  2  0
 10  9  1  0
 11  7  1  0
 12 16  1  0
 12 11  1  0
 13 12  1  0
 14 13  2  0
 14 15  1  0
 15 16  2  0
 17 15  1  0
 17 21  1  0
 18 17  1  0
 19 18  1  0
 19 20  1  0
 20 21  1  0
  1 22  1  0
  2 23  1  0
  3 24  1  0
  9 25  1  0
 10 26  1  0
 13 27  1  0
 17 28  1  0
 18 29  1  0
 18 30  1  0
 19 31  1  0
 19 32  1  0
 20 33  1  0
 20 34  1  0
 21 35  1  0
 21 36  1  0
M  ISO  8  22  14  23  14  24  14  25  14  26  14  27  14  28  13  29  13
M  ISO  7  30  13  31  13  32  13  33  13  34  13  35  13  36  13
M  END
>  <minimizedAffinity>  (1) 
-5.23196268

>  <minimizedRMSD>  (1) 
1.0520941

$$$$
