
     RDKit          3D

 29 32  0  0  0  0  0  0  0  0999 V2000
   39.7190   22.6840   36.8020 C   0  0  0  0  0  0  0  0  0  0  0  0
   39.1390   23.2730   37.9420 C   0  0  0  0  0  0  0  0  0  0  0  0
   37.7520   23.2960   38.0180 C   0  0  0  0  0  0  0  0  0  0  0  0
   37.0290   22.7530   36.9980 N   0  0  0  0  0  0  0  0  0  0  0  0
   37.6150   22.1920   35.9120 C   0  0  0  0  0  0  0  0  0  0  0  0
   38.9600   22.1560   35.8130 N   0  0  0  0  0  0  0  0  0  0  0  0
   36.8810   21.6230   34.8410 N   0  0  0  0  0  0  0  0  0  0  0  0
   35.9870   20.6700   35.0110 N   0  0  0  0  0  0  0  0  0  0  0  0
   35.4540   20.3290   33.8280 C   0  0  0  0  0  0  0  0  0  0  0  0
   36.0790   21.1450   32.8530 C   0  0  0  0  0  0  0  0  0  0  0  0
   36.9810   21.9560   33.5360 C   0  0  0  0  0  0  0  0  0  0  0  0
   37.8260   22.9350   32.9320 N   0  0  0  0  0  0  0  0  0  0  0  0
   39.1220   22.9240   32.6020 C   0  0  0  0  0  0  0  0  0  0  0  0
   39.4960   24.0750   32.0530 N   0  0  0  0  0  0  0  0  0  0  0  0
   38.3780   24.8450   32.0390 C   0  0  0  0  0  0  0  0  0  0  0  0
   37.3880   24.1280   32.5750 N   0  0  0  0  0  0  0  0  0  0  0  0
   38.2760   26.1770   31.5400 N   0  0  0  0  0  0  0  0  0  0  0  0
   37.7900   27.2750   32.1490 C   0  0  0  0  0  0  0  0  0  0  0  0
   37.8690   28.3560   31.3320 N   0  0  0  0  0  0  0  0  0  0  0  0
   38.4240   27.8950   30.1880 C   0  0  0  0  0  0  0  0  0  0  0  0
   38.6620   26.5790   30.3290 N   0  0  0  0  0  0  0  0  0  0  0  0
   40.8149   22.6521   36.7129 H   0  0  0  0  0  0  0  0  0  0  0  0
   39.7612   23.6992   38.7428 H   0  0  0  0  0  0  0  0  0  0  0  0
   37.2463   23.7444   38.8858 H   0  0  0  0  0  0  0  0  0  0  0  0
   34.6826   19.5653   33.6499 H   0  0  0  0  0  0  0  0  0  0  0  0
   35.8889   21.1389   31.7696 H   0  0  0  0  0  0  0  0  0  0  0  0
   39.7945   22.0689   32.7647 H   0  0  0  0  0  0  0  0  0  0  0  0
   37.3836   27.2935   33.1710 H   0  0  0  0  0  0  0  0  0  0  0  0
   38.6437   28.4955   29.2929 H   0  0  0  0  0  0  0  0  0  0  0  0
  1  2  2  0
  2  3  1  0
  4  3  2  0
  5  4  1  0
  6  5  2  0
  6  1  1  0
  7  8  1  0
  7  5  1  0
  9  8  2  0
 10 11  2  0
 10  9  1  0
 11  7  1  0
 12 11  1  0
 13 12  1  0
 14 13  2  0
 15 14  1  0
 15 16  2  0
 16 12  1  0
 17 15  1  0
 17 18  1  0
 19 18  2  0
 20 21  2  0
 20 19  1  0
 21 17  1  0
  1 22  1  0
  2 23  1  0
  3 24  1  0
  9 25  1  0
 10 26  1  0
 13 27  1  0
 18 28  1  0
 20 29  1  0
M  ISO  8  22  14  23  14  24  14  25  14  26  14  27  14  28  14  29  14
M  END
>  <minimizedAffinity>  (1) 
-5.05262852

>  <minimizedRMSD>  (1) 
0.854506493

$$$$
