
     RDKit          3D

 45 49  0  0  0  0  0  0  0  0999 V2000
   37.5250   22.9890   32.8310 N   0  0  0  0  0  0  0  0  0  0  0  0
   38.8120   23.0660   32.3950 C   0  0  0  0  0  0  0  0  0  0  0  0
   39.0760   24.2670   31.8800 N   0  0  0  0  0  0  0  0  0  0  0  0
   37.9160   24.9650   31.9980 C   0  0  0  0  0  0  0  0  0  0  0  0
   37.0110   24.1840   32.5660 N   0  0  0  0  0  0  0  0  0  0  0  0
   37.7510   26.3410   31.5560 C   0  0  0  0  0  0  0  0  0  0  0  0
   37.0300   27.2370   32.3000 C   0  0  0  0  0  0  0  0  0  0  0  0
   36.8270   28.5560   31.9510 C   0  0  0  0  0  0  0  0  0  0  0  0
   37.3950   28.9940   30.7650 C   0  0  0  0  0  0  0  0  0  0  0  0
   38.1200   28.0770   30.0280 C   0  0  0  0  0  0  0  0  0  0  0  0
   38.2980   26.7750   30.4110 N   0  0  0  0  0  0  0  0  0  0  0  0
   38.7460   28.4240   28.7930 N   0  0  0  0  0  0  0  0  0  0  0  0
   39.7570   27.6490   28.3010 C   0  0  0  0  0  0  0  0  0  0  0  0
   40.3790   27.9620   27.1100 C   0  0  0  0  0  0  0  0  0  0  0  0
   41.4760   27.1450   26.5490 C   0  0  0  0  0  0  0  0  0  0  0  0
   39.9130   29.0910   26.4690 C   0  0  0  0  0  0  0  0  0  0  0  0
   40.4190   29.4710   25.3590 O   0  0  0  0  0  0  0  0  0  0  0  0
   38.9200   29.8770   26.9260 N   0  0  0  0  0  0  0  0  0  0  0  0
   38.3470   29.5260   28.0920 C   0  0  0  0  0  0  0  0  0  0  0  0
   37.3980   30.1870   28.6290 O   0  0  0  0  0  0  0  0  0  0  0  0
   39.6670   22.7990   36.5740 C   0  0  0  0  0  0  0  0  0  0  0  0
   39.1070   23.3070   37.7540 C   0  0  0  0  0  0  0  0  0  0  0  0
   37.7160   23.2170   37.9130 C   0  0  0  0  0  0  0  0  0  0  0  0
   36.9710   22.6390   36.9130 N   0  0  0  0  0  0  0  0  0  0  0  0
   37.5540   22.1610   35.7890 C   0  0  0  0  0  0  0  0  0  0  0  0
   38.8850   22.2390   35.6210 N   0  0  0  0  0  0  0  0  0  0  0  0
   36.8080   21.5580   34.7360 N   0  0  0  0  0  0  0  0  0  0  0  0
   36.0100   20.5310   34.9230 N   0  0  0  0  0  0  0  0  0  0  0  0
   35.4460   20.1810   33.7630 C   0  0  0  0  0  0  0  0  0  0  0  0
   35.9440   21.0700   32.8010 C   0  0  0  0  0  0  0  0  0  0  0  0
   36.8020   21.9300   33.4410 C   0  0  0  0  0  0  0  0  0  0  0  0
   39.5400   22.2439   32.4592 H   0  0  0  0  0  0  0  0  0  0  0  0
   36.5825   26.8805   33.2395 H   0  0  0  0  0  0  0  0  0  0  0  0
   36.2384   29.2326   32.5880 H   0  0  0  0  0  0  0  0  0  0  0  0
   37.2733   30.0325   30.4233 H   0  0  0  0  0  0  0  0  0  0  0  0
   40.0807   26.7608   28.8634 H   0  0  0  0  0  0  0  0  0  0  0  0
   42.0637   26.7073   27.3694 H   0  0  0  0  0  0  0  0  0  0  0  0
   41.0538   26.3396   25.9301 H   0  0  0  0  0  0  0  0  0  0  0  0
   42.1267   27.7802   25.9301 H   0  0  0  0  0  0  0  0  0  0  0  0
   38.6122   30.7109   26.4057 H   0  0  0  0  0  0  0  0  0  0  0  0
   40.7547   22.8559   36.4202 H   0  0  0  0  0  0  0  0  0  0  0  0
   39.7384   23.7621   38.5313 H   0  0  0  0  0  0  0  0  0  0  0  0
   37.2303   23.6021   38.8217 H   0  0  0  0  0  0  0  0  0  0  0  0
   34.7335   19.3596   33.5967 H   0  0  0  0  0  0  0  0  0  0  0  0
   35.6936   21.0775   31.7299 H   0  0  0  0  0  0  0  0  0  0  0  0
  1 31  1  0
  2  1  1  0
  3  4  1  0
  3  2  2  0
  4  5  2  0
  5  1  1  0
  6  4  1  0
  6  7  2  0
  8  7  1  0
  9  8  2  0
 10 11  2  0
 10  9  1  0
 11  6  1  0
 12 10  1  0
 13 12  1  0
 14 13  2  0
 15 14  1  0
 16 18  1  0
 16 14  1  0
 17 16  2  0
 18 19  1  0
 19 20  2  0
 19 12  1  0
 21 22  2  0
 22 23  1  0
 24 23  2  0
 25 24  1  0
 26 25  2  0
 26 21  1  0
 27 28  1  0
 27 25  1  0
 29 28  2  0
 30 31  2  0
 30 29  1  0
 31 27  1  0
  2 32  1  0
  7 33  1  0
  8 34  1  0
  9 35  1  0
 13 36  1  0
 15 37  1  0
 15 38  1  0
 15 39  1  0
 18 40  1  0
 21 41  1  0
 22 42  1  0
 23 43  1  0
 29 44  1  0
 30 45  1  0
M  ISO  8  32  14  33  14  34  14  35  14  36  14  37   8  38   8  39   8
M  ISO  6  40   9  41  14  42  14  43  14  44  14  45  14
M  END
>  <minimizedAffinity>  (1) 
-6.42067242

>  <minimizedRMSD>  (1) 
0.583392322

$$$$
