
     RDKit          3D

 49 52  0  0  1  0  0  0  0  0999 V2000
   36.1710   29.4770   32.4390 C   0  0  0  0  0  0  0  0  0  0  0  0
   36.9130   28.5320   31.7880 C   0  0  0  0  0  0  0  0  0  0  0  0
   37.2860   27.3970   32.5060 C   0  0  0  0  0  0  0  0  0  0  0  0
   36.9150   27.2410   33.8190 C   0  0  0  0  0  0  0  0  0  0  0  0
   36.1680   28.1890   34.4840 C   0  0  0  0  0  0  0  0  0  0  0  0
   35.8030   29.3070   33.7720 C   0  0  0  0  0  0  0  0  0  0  0  0
   37.4160   25.9630   34.3900 C   0  0  0  0  0  0  0  0  0  0  0  0
   38.8130   26.0250   34.8980 C   0  0  2  0  0  0  0  0  0  0  0  0
   40.7530   23.1760   36.1210 C   0  0  0  0  0  0  0  0  0  0  0  0
   39.9470   22.6480   37.1720 C   0  0  0  0  0  0  0  0  0  0  0  0
   38.7370   23.2850   37.4440 C   0  0  0  0  0  0  0  0  0  0  0  0
   38.4160   24.3750   36.6760 N   0  0  0  0  0  0  0  0  0  0  0  0
   39.1870   24.8500   35.6970 C   0  0  0  0  0  0  0  0  0  0  0  0
   40.3550   24.2460   35.4250 N   0  0  0  0  0  0  0  0  0  0  0  0
   38.9130   27.2640   35.8030 C   0  0  0  0  0  0  0  0  0  0  0  0
   35.6860   30.9110   31.5510 S   0  0  0  0  0  0  0  0  0  0  0  0
   36.2340   30.7680   30.1310 O   0  0  0  0  0  0  0  0  0  0  0  0
   36.2680   32.1450   32.1640 O   0  0  0  0  0  0  0  0  0  0  0  0
   33.9490   31.0390   31.5050 C   0  0  0  0  0  0  0  0  0  0  0  0
   32.9480   30.4720   32.1840 N   0  0  0  0  0  0  0  0  0  0  0  0
   31.8050   30.9310   31.7500 O   0  0  0  0  0  0  0  0  0  0  0  0
   32.0190   31.8060   30.7810 C   0  0  0  0  0  0  0  0  0  0  0  0
   33.3400   31.8760   30.6260 N   0  0  0  0  0  0  0  0  0  0  0  0
   30.7090   32.2140   30.4130 N   0  0  0  0  0  0  0  0  0  0  0  0
   29.3530   31.9940   30.9420 C   0  0  0  0  0  0  0  0  0  0  0  0
   28.6970   31.3490   29.7130 C   0  0  0  0  0  0  0  0  0  0  0  0
   29.4220   32.0340   28.5450 C   0  0  0  0  0  0  0  0  0  0  0  0
   30.3350   33.0460   29.2550 C   0  0  0  0  0  0  0  0  0  0  0  0
   37.2053   28.6623   30.7356 H   0  0  0  0  0  0  0  0  0  0  0  0
   37.8852   26.6163   32.0146 H   0  0  0  0  0  0  0  0  0  0  0  0
   35.8770   28.0572   35.5366 H   0  0  0  0  0  0  0  0  0  0  0  0
   35.2055   30.0867   34.2671 H   0  0  0  0  0  0  0  0  0  0  0  0
   36.7585   25.6773   35.2243 H   0  0  0  0  0  0  0  0  0  0  0  0
   37.4111   25.2288   33.5709 H   0  0  0  0  0  0  0  0  0  0  0  0
   39.4908   26.0639   34.0325 H   0  0  0  0  0  0  0  0  0  0  0  0
   41.7136   22.6974   35.8799 H   0  0  0  0  0  0  0  0  0  0  0  0
   40.2688   21.7682   37.7485 H   0  0  0  0  0  0  0  0  0  0  0  0
   38.0680   22.9284   38.2410 H   0  0  0  0  0  0  0  0  0  0  0  0
   38.8877   26.9510   36.8572 H   0  0  0  0  0  0  0  0  0  0  0  0
   39.8566   27.7914   35.5996 H   0  0  0  0  0  0  0  0  0  0  0  0
   38.0662   27.9359   35.5996 H   0  0  0  0  0  0  0  0  0  0  0  0
   29.3564   31.3155   31.8078 H   0  0  0  0  0  0  0  0  0  0  0  0
   28.8485   32.8952   31.3206 H   0  0  0  0  0  0  0  0  0  0  0  0
   28.8626   30.2616   29.6997 H   0  0  0  0  0  0  0  0  0  0  0  0
   27.6048   31.4763   29.6838 H   0  0  0  0  0  0  0  0  0  0  0  0
   28.7087   32.5429   27.8800 H   0  0  0  0  0  0  0  0  0  0  0  0
   29.9705   31.3306   27.9012 H   0  0  0  0  0  0  0  0  0  0  0  0
   31.2060   33.3218   28.6423 H   0  0  0  0  0  0  0  0  0  0  0  0
   29.8824   34.0208   29.4891 H   0  0  0  0  0  0  0  0  0  0  0  0
  1  6  1  0
  2  1  2  0
  2  3  1  0
  3  4  2  0
  4  7  1  0
  4  5  1  0
  6  5  2  0
  7  8  1  0
  8 13  1  0
  8 15  1  0
  9 10  2  0
 10 11  1  0
 12 11  2  0
 13 12  1  0
 14 13  2  0
 14  9  1  0
 16 18  2  0
 16  1  1  0
 17 16  2  0
 19 16  1  0
 19 20  2  0
 21 20  1  0
 22 21  1  0
 23 22  2  0
 23 19  1  0
 24 22  1  0
 24 25  1  0
 26 25  1  0
 27 28  1  0
 27 26  1  0
 28 24  1  0
  2 29  1  0
  3 30  1  0
  5 31  1  0
  6 32  1  0
  7 33  1  0
  7 34  1  0
  8 35  1  6
  9 36  1  0
 10 37  1  0
 11 38  1  0
 15 39  1  0
 15 40  1  0
 15 41  1  0
 25 42  1  0
 25 43  1  0
 26 44  1  0
 26 45  1  0
 27 46  1  0
 27 47  1  0
 28 48  1  0
 28 49  1  0
M  ISO  8  29  14  30  14  31  14  32  14  33   8  34   8  35   8  36  14
M  ISO  8  37  14  38  14  39   8  40   8  41   8  42  13  43  13  44  13
M  ISO  5  45  13  46  13  47  13  48  13  49  13
M  END
>  <minimizedAffinity>  (1) 
-5.71120119

>  <minimizedRMSD>  (1) 
0.659419477

$$$$
