
     RDKit          3D

 44 48  0  0  0  0  0  0  0  0999 V2000
   37.5270   23.0260   32.8140 N   0  0  0  0  0  0  0  0  0  0  0  0
   38.8050   23.1210   32.3700 C   0  0  0  0  0  0  0  0  0  0  0  0
   39.0580   24.3310   31.8640 N   0  0  0  0  0  0  0  0  0  0  0  0
   37.9050   25.0150   31.9950 C   0  0  0  0  0  0  0  0  0  0  0  0
   36.9980   24.2190   32.5660 N   0  0  0  0  0  0  0  0  0  0  0  0
   39.6770   22.8260   36.5520 C   0  0  0  0  0  0  0  0  0  0  0  0
   39.1090   23.3140   37.7330 C   0  0  0  0  0  0  0  0  0  0  0  0
   37.7290   23.2110   37.8940 C   0  0  0  0  0  0  0  0  0  0  0  0
   37.0030   22.6430   36.8980 N   0  0  0  0  0  0  0  0  0  0  0  0
   37.5680   22.1770   35.7630 C   0  0  0  0  0  0  0  0  0  0  0  0
   38.9090   22.2640   35.5800 N   0  0  0  0  0  0  0  0  0  0  0  0
   36.8280   21.5800   34.7110 N   0  0  0  0  0  0  0  0  0  0  0  0
   36.0360   20.5410   34.9010 N   0  0  0  0  0  0  0  0  0  0  0  0
   35.4650   20.1900   33.7390 C   0  0  0  0  0  0  0  0  0  0  0  0
   35.9540   21.0890   32.7760 C   0  0  0  0  0  0  0  0  0  0  0  0
   36.8100   21.9520   33.4210 C   0  0  0  0  0  0  0  0  0  0  0  0
   37.7210   26.3890   31.5720 C   0  0  0  0  0  0  0  0  0  0  0  0
   37.1020   27.3170   32.3830 C   0  0  0  0  0  0  0  0  0  0  0  0
   36.8900   28.6340   32.0580 C   0  0  0  0  0  0  0  0  0  0  0  0
   37.3440   29.0530   30.8040 C   0  0  0  0  0  0  0  0  0  0  0  0
   37.9540   28.1160   30.0160 C   0  0  0  0  0  0  0  0  0  0  0  0
   38.1460   26.8240   30.3710 N   0  0  0  0  0  0  0  0  0  0  0  0
   38.4290   28.5040   28.7310 N   0  0  0  0  0  0  0  0  0  0  0  0
   38.1220   29.6980   27.9620 C   0  0  0  0  0  0  0  0  0  0  0  0
   39.5470   30.1560   27.6250 C   0  0  0  0  0  0  0  0  0  0  0  0
   40.3730   28.8790   27.5760 C   0  0  0  0  0  0  0  0  0  0  0  0
   39.3480   27.8080   27.8470 C   0  0  0  0  0  0  0  0  0  0  0  0
   39.5404   22.3045   32.4203 H   0  0  0  0  0  0  0  0  0  0  0  0
   40.7649   22.8979   36.4063 H   0  0  0  0  0  0  0  0  0  0  0  0
   39.7358   23.7676   38.5149 H   0  0  0  0  0  0  0  0  0  0  0  0
   37.2395   23.5813   38.8068 H   0  0  0  0  0  0  0  0  0  0  0  0
   34.7568   19.3648   33.5734 H   0  0  0  0  0  0  0  0  0  0  0  0
   35.6998   21.1007   31.7058 H   0  0  0  0  0  0  0  0  0  0  0  0
   36.7505   26.9751   33.3677 H   0  0  0  0  0  0  0  0  0  0  0  0
   36.3876   29.3255   32.7504 H   0  0  0  0  0  0  0  0  0  0  0  0
   37.2162   30.0918   30.4654 H   0  0  0  0  0  0  0  0  0  0  0  0
   37.5411   29.4653   27.0573 H   0  0  0  0  0  0  0  0  0  0  0  0
   37.5016   30.4429   28.4819 H   0  0  0  0  0  0  0  0  0  0  0  0
   39.5681   30.6671   26.6512 H   0  0  0  0  0  0  0  0  0  0  0  0
   39.9362   30.8703   28.3655 H   0  0  0  0  0  0  0  0  0  0  0  0
   40.8354   28.7438   26.5871 H   0  0  0  0  0  0  0  0  0  0  0  0
   41.2087   28.8731   28.2913 H   0  0  0  0  0  0  0  0  0  0  0  0
   38.8488   27.4860   26.9212 H   0  0  0  0  0  0  0  0  0  0  0  0
   39.7665   26.8839   28.2724 H   0  0  0  0  0  0  0  0  0  0  0  0
  1 16  1  0
  2  1  1  0
  3  4  1  0
  3  2  2  0
  4  5  2  0
  5  1  1  0
  6  7  2  0
  7  8  1  0
  9  8  2  0
 10  9  1  0
 11 10  2  0
 11  6  1  0
 12 13  1  0
 12 10  1  0
 14 13  2  0
 15 16  2  0
 15 14  1  0
 16 12  1  0
 17  4  1  0
 17 18  2  0
 19 18  1  0
 20 19  2  0
 21 22  2  0
 21 20  1  0
 22 17  1  0
 23 21  1  0
 24 23  1  0
 25 24  1  0
 26 25  1  0
 26 27  1  0
 27 23  1  0
  2 28  1  0
  6 29  1  0
  7 30  1  0
  8 31  1  0
 14 32  1  0
 15 33  1  0
 18 34  1  0
 19 35  1  0
 20 36  1  0
 24 37  1  0
 24 38  1  0
 25 39  1  0
 25 40  1  0
 26 41  1  0
 26 42  1  0
 27 43  1  0
 27 44  1  0
M  ISO  8  28  14  29  14  30  14  31  14  32  14  33  14  34  14  35  14
M  ISO  8  36  14  37  13  38  13  39  13  40  13  41  13  42  13  43  13
M  ISO  1  44  13
M  END
>  <minimizedAffinity>  (1) 
-5.81655359

>  <minimizedRMSD>  (1) 
0.60578841

$$$$
