
     RDKit          3D

 45 49  0  0  0  0  0  0  0  0999 V2000
   37.5470   22.9940   32.8300 N   0  0  0  0  0  0  0  0  0  0  0  0
   38.8230   23.0480   32.3570 C   0  0  0  0  0  0  0  0  0  0  0  0
   39.1050   24.2510   31.8580 N   0  0  0  0  0  0  0  0  0  0  0  0
   37.9860   24.9730   32.0160 C   0  0  0  0  0  0  0  0  0  0  0  0
   37.0610   24.2030   32.6010 N   0  0  0  0  0  0  0  0  0  0  0  0
   39.6790   22.7900   36.5720 C   0  0  0  0  0  0  0  0  0  0  0  0
   39.1060   23.3030   37.7530 C   0  0  0  0  0  0  0  0  0  0  0  0
   37.7290   23.2200   37.8990 C   0  0  0  0  0  0  0  0  0  0  0  0
   36.9860   22.6500   36.9000 N   0  0  0  0  0  0  0  0  0  0  0  0
   37.5670   22.1660   35.7750 C   0  0  0  0  0  0  0  0  0  0  0  0
   38.8980   22.2320   35.6070 N   0  0  0  0  0  0  0  0  0  0  0  0
   36.8240   21.5720   34.7250 N   0  0  0  0  0  0  0  0  0  0  0  0
   36.0190   20.5430   34.9160 N   0  0  0  0  0  0  0  0  0  0  0  0
   35.4500   20.1910   33.7540 C   0  0  0  0  0  0  0  0  0  0  0  0
   35.9500   21.0760   32.7830 C   0  0  0  0  0  0  0  0  0  0  0  0
   36.8180   21.9370   33.4400 C   0  0  0  0  0  0  0  0  0  0  0  0
   37.8180   26.3650   31.6130 C   0  0  0  0  0  0  0  0  0  0  0  0
   37.0480   27.2450   32.3230 C   0  0  0  0  0  0  0  0  0  0  0  0
   36.8550   28.5620   31.9910 C   0  0  0  0  0  0  0  0  0  0  0  0
   37.4970   29.0280   30.8430 C   0  0  0  0  0  0  0  0  0  0  0  0
   38.2670   28.1360   30.1410 C   0  0  0  0  0  0  0  0  0  0  0  0
   38.4290   26.8380   30.5070 N   0  0  0  0  0  0  0  0  0  0  0  0
   38.9600   28.6120   28.9130 C   0  0  0  0  0  0  0  0  0  0  0  0
   40.1540   29.4770   29.1980 C   0  0  0  0  0  0  0  0  0  0  0  0
   40.2830   30.4230   27.9990 C   0  0  0  0  0  0  0  0  0  0  0  0
   38.9360   30.4310   27.3200 C   0  0  0  0  0  0  0  0  0  0  0  0
   38.0230   29.5540   28.1460 C   0  0  0  0  0  0  0  0  0  0  0  0
   39.5305   22.2061   32.3835 H   0  0  0  0  0  0  0  0  0  0  0  0
   40.7684   22.8411   36.4287 H   0  0  0  0  0  0  0  0  0  0  0  0
   39.7322   23.7558   38.5359 H   0  0  0  0  0  0  0  0  0  0  0  0
   37.2404   23.6070   38.8054 H   0  0  0  0  0  0  0  0  0  0  0  0
   34.7338   19.3719   33.5925 H   0  0  0  0  0  0  0  0  0  0  0  0
   35.7017   21.0845   31.7114 H   0  0  0  0  0  0  0  0  0  0  0  0
   36.5466   26.8688   33.2269 H   0  0  0  0  0  0  0  0  0  0  0  0
   36.2221   29.2216   32.6028 H   0  0  0  0  0  0  0  0  0  0  0  0
   37.3896   30.0719   30.5133 H   0  0  0  0  0  0  0  0  0  0  0  0
   39.2548   27.7000   28.3733 H   0  0  0  0  0  0  0  0  0  0  0  0
   39.9985   30.0511   30.1233 H   0  0  0  0  0  0  0  0  0  0  0  0
   41.0644   28.8756   29.3378 H   0  0  0  0  0  0  0  0  0  0  0  0
   40.5442   31.4359   28.3393 H   0  0  0  0  0  0  0  0  0  0  0  0
   41.0755   30.0920   27.3117 H   0  0  0  0  0  0  0  0  0  0  0  0
   38.5396   31.4562   27.2780 H   0  0  0  0  0  0  0  0  0  0  0  0
   39.0129   30.0579   26.2881 H   0  0  0  0  0  0  0  0  0  0  0  0
   37.4309   30.1631   28.8449 H   0  0  0  0  0  0  0  0  0  0  0  0
   37.3052   29.0024   27.5211 H   0  0  0  0  0  0  0  0  0  0  0  0
  1 16  1  0
  2  1  1  0
  3  4  1  0
  3  2  2  0
  4  5  2  0
  5  1  1  0
  6  7  2  0
  7  8  1  0
  9  8  2  0
 10  9  1  0
 11 10  2  0
 11  6  1  0
 12 13  1  0
 12 10  1  0
 14 13  2  0
 15 16  2  0
 15 14  1  0
 16 12  1  0
 17  4  1  0
 17 18  2  0
 19 18  1  0
 20 19  2  0
 21 22  2  0
 21 20  1  0
 22 17  1  0
 23 24  1  0
 23 21  1  0
 25 24  1  0
 26 25  1  0
 26 27  1  0
 27 23  1  0
  2 28  1  0
  6 29  1  0
  7 30  1  0
  8 31  1  0
 14 32  1  0
 15 33  1  0
 18 34  1  0
 19 35  1  0
 20 36  1  0
 23 37  1  0
 24 38  1  0
 24 39  1  0
 25 40  1  0
 25 41  1  0
 26 42  1  0
 26 43  1  0
 27 44  1  0
 27 45  1  0
M  ISO  8  28  14  29  14  30  14  31  14  32  14  33  14  34  14  35  14
M  ISO  8  36  14  37  13  38  13  39  13  40  13  41  13  42  13  43  13
M  ISO  2  44  13  45  13
M  END
>  <minimizedAffinity>  (1) 
-5.55749989

>  <minimizedRMSD>  (1) 
0.483302027

$$$$
