
     RDKit          3D

 44 47  0  0  0  0  0  0  0  0999 V2000
   37.6120   22.9830   32.8060 N   0  0  0  0  0  0  0  0  0  0  0  0
   38.8900   23.0240   32.3800 C   0  0  0  0  0  0  0  0  0  0  0  0
   39.2000   24.2140   31.8600 N   0  0  0  0  0  0  0  0  0  0  0  0
   38.0580   24.9440   31.9690 C   0  0  0  0  0  0  0  0  0  0  0  0
   37.1120   24.1930   32.5390 N   0  0  0  0  0  0  0  0  0  0  0  0
   39.7000   22.7680   36.5800 C   0  0  0  0  0  0  0  0  0  0  0  0
   39.1290   23.2960   37.7540 C   0  0  0  0  0  0  0  0  0  0  0  0
   37.7480   23.2390   37.8860 C   0  0  0  0  0  0  0  0  0  0  0  0
   37.0110   22.6840   36.8910 N   0  0  0  0  0  0  0  0  0  0  0  0
   37.5710   22.1810   35.7700 C   0  0  0  0  0  0  0  0  0  0  0  0
   38.9200   22.2230   35.6150 N   0  0  0  0  0  0  0  0  0  0  0  0
   36.8330   21.5910   34.7040 N   0  0  0  0  0  0  0  0  0  0  0  0
   36.0120   20.5800   34.9070 N   0  0  0  0  0  0  0  0  0  0  0  0
   35.4510   20.2230   33.7410 C   0  0  0  0  0  0  0  0  0  0  0  0
   35.9860   21.0960   32.7680 C   0  0  0  0  0  0  0  0  0  0  0  0
   36.8550   21.9450   33.4170 C   0  0  0  0  0  0  0  0  0  0  0  0
   37.9330   26.3210   31.5230 C   0  0  0  0  0  0  0  0  0  0  0  0
   37.1670   27.2350   32.2180 C   0  0  0  0  0  0  0  0  0  0  0  0
   37.0070   28.5430   31.8530 C   0  0  0  0  0  0  0  0  0  0  0  0
   37.6580   28.9810   30.7080 C   0  0  0  0  0  0  0  0  0  0  0  0
   38.4170   28.0610   30.0240 C   0  0  0  0  0  0  0  0  0  0  0  0
   38.5470   26.7700   30.4250 N   0  0  0  0  0  0  0  0  0  0  0  0
   39.1140   28.5410   28.7930 C   0  0  0  0  0  0  0  0  0  0  0  0
   39.5080   27.4360   27.8650 C   0  0  0  0  0  0  0  0  0  0  0  0
   40.3260   29.3370   29.2250 C   0  0  0  0  0  0  0  0  0  0  0  0
   38.1550   29.4760   28.0860 C   0  0  0  0  0  0  0  0  0  0  0  0
   39.5919   22.1801   32.4519 H   0  0  0  0  0  0  0  0  0  0  0  0
   40.7912   22.7983   36.4447 H   0  0  0  0  0  0  0  0  0  0  0  0
   39.7568   23.7393   38.5410 H   0  0  0  0  0  0  0  0  0  0  0  0
   37.2576   23.6387   38.7858 H   0  0  0  0  0  0  0  0  0  0  0  0
   34.7228   19.4150   33.5767 H   0  0  0  0  0  0  0  0  0  0  0  0
   35.7524   21.0976   31.6931 H   0  0  0  0  0  0  0  0  0  0  0  0
   36.6511   26.8882   33.1255 H   0  0  0  0  0  0  0  0  0  0  0  0
   36.3826   29.2261   32.4476 H   0  0  0  0  0  0  0  0  0  0  0  0
   37.5703   30.0215   30.3620 H   0  0  0  0  0  0  0  0  0  0  0  0
   39.8207   26.5591   28.4509 H   0  0  0  0  0  0  0  0  0  0  0  0
   38.6506   27.1665   27.2308 H   0  0  0  0  0  0  0  0  0  0  0  0
   40.3425   27.7698   27.2308 H   0  0  0  0  0  0  0  0  0  0  0  0
   40.3722   29.3673   30.3236 H   0  0  0  0  0  0  0  0  0  0  0  0
   41.2365   28.8605   28.8327 H   0  0  0  0  0  0  0  0  0  0  0  0
   40.2504   30.3619   28.8327 H   0  0  0  0  0  0  0  0  0  0  0  0
   37.5762   30.0403   28.8320 H   0  0  0  0  0  0  0  0  0  0  0  0
   38.7231   30.1765   27.4563 H   0  0  0  0  0  0  0  0  0  0  0  0
   37.4692   28.8903   27.4563 H   0  0  0  0  0  0  0  0  0  0  0  0
  1 16  1  0
  2  1  1  0
  3  4  1  0
  3  2  2  0
  4  5  2  0
  5  1  1  0
  6  7  2  0
  7  8  1  0
  9  8  2  0
 10  9  1  0
 11 10  2  0
 11  6  1  0
 12 13  1  0
 12 10  1  0
 14 13  2  0
 15 16  2  0
 15 14  1  0
 16 12  1  0
 17  4  1  0
 17 18  2  0
 19 18  1  0
 20 19  2  0
 21 22  2  0
 21 20  1  0
 22 17  1  0
 23 25  1  0
 23 21  1  0
 24 23  1  0
 26 23  1  0
  2 27  1  0
  6 28  1  0
  7 29  1  0
  8 30  1  0
 14 31  1  0
 15 32  1  0
 18 33  1  0
 19 34  1  0
 20 35  1  0
 24 36  1  0
 24 37  1  0
 24 38  1  0
 25 39  1  0
 25 40  1  0
 25 41  1  0
 26 42  1  0
 26 43  1  0
 26 44  1  0
M  ISO  8  27  14  28  14  29  14  30  14  31  14  32  14  33  14  34  14
M  ISO  8  35  14  36   8  37   8  38   8  39   8  40   8  41   8  42   8
M  ISO  2  43   8  44   8
M  END
>  <minimizedAffinity>  (1) 
-5.51370573

>  <minimizedRMSD>  (1) 
0.284707546

$$$$
