
     RDKit          3D

 41 44  0  0  0  0  0  0  0  0999 V2000
   37.5310   23.0000   32.8220 N   0  0  0  0  0  0  0  0  0  0  0  0
   38.8160   23.0730   32.3780 C   0  0  0  0  0  0  0  0  0  0  0  0
   39.0860   24.2870   31.8680 N   0  0  0  0  0  0  0  0  0  0  0  0
   37.9410   24.9770   31.9990 C   0  0  0  0  0  0  0  0  0  0  0  0
   37.0200   24.2030   32.5690 N   0  0  0  0  0  0  0  0  0  0  0  0
   39.6750   22.8000   36.5670 C   0  0  0  0  0  0  0  0  0  0  0  0
   39.1110   23.3080   37.7460 C   0  0  0  0  0  0  0  0  0  0  0  0
   37.7340   23.2200   37.8970 C   0  0  0  0  0  0  0  0  0  0  0  0
   36.9900   22.6470   36.8970 N   0  0  0  0  0  0  0  0  0  0  0  0
   37.5610   22.1670   35.7740 C   0  0  0  0  0  0  0  0  0  0  0  0
   38.8960   22.2370   35.5960 N   0  0  0  0  0  0  0  0  0  0  0  0
   36.8160   21.5690   34.7210 N   0  0  0  0  0  0  0  0  0  0  0  0
   36.0170   20.5390   34.9060 N   0  0  0  0  0  0  0  0  0  0  0  0
   35.4480   20.1860   33.7460 C   0  0  0  0  0  0  0  0  0  0  0  0
   35.9500   21.0800   32.7880 C   0  0  0  0  0  0  0  0  0  0  0  0
   36.8070   21.9380   33.4270 C   0  0  0  0  0  0  0  0  0  0  0  0
   37.7670   26.3560   31.5750 C   0  0  0  0  0  0  0  0  0  0  0  0
   37.0920   27.2710   32.3400 C   0  0  0  0  0  0  0  0  0  0  0  0
   36.8870   28.5860   32.0080 C   0  0  0  0  0  0  0  0  0  0  0  0
   37.4060   29.0240   30.7990 C   0  0  0  0  0  0  0  0  0  0  0  0
   38.0880   28.0990   30.0300 C   0  0  0  0  0  0  0  0  0  0  0  0
   38.2690   26.7950   30.4000 N   0  0  0  0  0  0  0  0  0  0  0  0
   38.6680   28.5240   28.7150 C   0  0  0  0  0  0  0  0  0  0  0  0
   37.8720   29.7370   28.2870 C   0  0  0  0  0  0  0  0  0  0  0  0
   40.1170   28.8740   28.7900 C   0  0  0  0  0  0  0  0  0  0  0  0
   39.5393   22.2459   32.4299 H   0  0  0  0  0  0  0  0  0  0  0  0
   40.7639   22.8558   36.4213 H   0  0  0  0  0  0  0  0  0  0  0  0
   39.7397   23.7617   38.5263 H   0  0  0  0  0  0  0  0  0  0  0  0
   37.2465   23.6041   38.8052 H   0  0  0  0  0  0  0  0  0  0  0  0
   34.7349   19.3653   33.5789 H   0  0  0  0  0  0  0  0  0  0  0  0
   35.7006   21.0904   31.7167 H   0  0  0  0  0  0  0  0  0  0  0  0
   36.6809   26.9223   33.2989 H   0  0  0  0  0  0  0  0  0  0  0  0
   36.3337   29.2651   32.6734 H   0  0  0  0  0  0  0  0  0  0  0  0
   37.2803   30.0646   30.4654 H   0  0  0  0  0  0  0  0  0  0  0  0
   38.6042   27.6899   28.0007 H   0  0  0  0  0  0  0  0  0  0  0  0
   37.5181   30.2764   29.1780 H   0  0  0  0  0  0  0  0  0  0  0  0
   38.5104   30.4011   27.6859 H   0  0  0  0  0  0  0  0  0  0  0  0
   37.0086   29.4156   27.6859 H   0  0  0  0  0  0  0  0  0  0  0  0
   40.4223   28.9477   29.8442 H   0  0  0  0  0  0  0  0  0  0  0  0
   40.7092   28.0931   28.2905 H   0  0  0  0  0  0  0  0  0  0  0  0
   40.2874   29.8391   28.2905 H   0  0  0  0  0  0  0  0  0  0  0  0
  1 16  1  0
  2  1  1  0
  3  4  1  0
  3  2  2  0
  4  5  2  0
  5  1  1  0
  6  7  2  0
  7  8  1  0
  9  8  2  0
 10  9  1  0
 11 10  2  0
 11  6  1  0
 12 13  1  0
 12 10  1  0
 14 13  2  0
 15 16  2  0
 15 14  1  0
 16 12  1  0
 17  4  1  0
 17 18  2  0
 19 18  1  0
 20 19  2  0
 21 22  2  0
 21 20  1  0
 22 17  1  0
 23 25  1  0
 23 21  1  0
 24 23  1  0
  2 26  1  0
  6 27  1  0
  7 28  1  0
  8 29  1  0
 14 30  1  0
 15 31  1  0
 18 32  1  0
 19 33  1  0
 20 34  1  0
 23 35  1  0
 24 36  1  0
 24 37  1  0
 24 38  1  0
 25 39  1  0
 25 40  1  0
 25 41  1  0
M  ISO  8  26  14  27  14  28  14  29  14  30  14  31  14  32  14  33  14
M  ISO  8  34  14  35   8  36   8  37   8  38   8  39   8  40   8  41   8
M  END
>  <minimizedAffinity>  (1) 
-5.33628178

>  <minimizedRMSD>  (1) 
0.481680989

$$$$
