
     RDKit          3D

 45 49  0  0  0  0  0  0  0  0999 V2000
   37.5010   23.0880   32.8160 N   0  0  0  0  0  0  0  0  0  0  0  0
   38.7620   23.2100   32.3750 C   0  0  0  0  0  0  0  0  0  0  0  0
   38.9930   24.4370   31.8800 N   0  0  0  0  0  0  0  0  0  0  0  0
   37.8010   25.0960   32.0290 C   0  0  0  0  0  0  0  0  0  0  0  0
   36.9240   24.2850   32.5860 N   0  0  0  0  0  0  0  0  0  0  0  0
   39.6750   22.8850   36.5470 C   0  0  0  0  0  0  0  0  0  0  0  0
   39.1140   23.3450   37.7360 C   0  0  0  0  0  0  0  0  0  0  0  0
   37.7300   23.2100   37.9040 C   0  0  0  0  0  0  0  0  0  0  0  0
   36.9960   22.6340   36.8960 N   0  0  0  0  0  0  0  0  0  0  0  0
   37.5810   22.2000   35.7570 C   0  0  0  0  0  0  0  0  0  0  0  0
   38.9170   22.3100   35.5510 N   0  0  0  0  0  0  0  0  0  0  0  0
   36.8340   21.6000   34.7010 N   0  0  0  0  0  0  0  0  0  0  0  0
   36.0580   20.5470   34.8710 N   0  0  0  0  0  0  0  0  0  0  0  0
   35.4900   20.2140   33.7030 C   0  0  0  0  0  0  0  0  0  0  0  0
   35.9600   21.1360   32.7550 C   0  0  0  0  0  0  0  0  0  0  0  0
   36.8040   21.9940   33.4130 C   0  0  0  0  0  0  0  0  0  0  0  0
   37.5900   26.4770   31.6200 C   0  0  0  0  0  0  0  0  0  0  0  0
   37.0020   27.3870   32.4410 C   0  0  0  0  0  0  0  0  0  0  0  0
   36.7660   28.7020   32.1350 C   0  0  0  0  0  0  0  0  0  0  0  0
   37.1620   29.1400   30.8840 C   0  0  0  0  0  0  0  0  0  0  0  0
   37.7570   28.2170   30.0550 C   0  0  0  0  0  0  0  0  0  0  0  0
   37.9620   26.9210   30.4210 N   0  0  0  0  0  0  0  0  0  0  0  0
   38.1870   28.6190   28.6950 C   0  0  0  0  0  0  0  0  0  0  0  0
   39.6060   28.6060   28.4940 N   0  0  0  0  0  0  0  0  0  0  0  0
   40.2930   29.6070   29.1010 C   0  0  0  0  0  0  0  0  0  0  0  0
   41.6620   29.6910   28.9760 C   0  0  0  0  0  0  0  0  0  0  0  0
   42.3660   28.7530   28.2270 C   0  0  0  0  0  0  0  0  0  0  0  0
   43.6160   28.8030   28.0940 O   0  0  0  0  0  0  0  0  0  0  0  0
   41.6170   27.7860   27.6520 N   0  0  0  0  0  0  0  0  0  0  0  0
   40.2760   27.6930   27.7670 C   0  0  0  0  0  0  0  0  0  0  0  0
   39.6170   26.7750   27.2150 O   0  0  0  0  0  0  0  0  0  0  0  0
   39.5122   22.4065   32.4139 H   0  0  0  0  0  0  0  0  0  0  0  0
   40.7604   22.9843   36.3983 H   0  0  0  0  0  0  0  0  0  0  0  0
   39.7385   23.8002   38.5188 H   0  0  0  0  0  0  0  0  0  0  0  0
   37.2404   23.5585   38.8253 H   0  0  0  0  0  0  0  0  0  0  0  0
   34.7930   19.3822   33.5232 H   0  0  0  0  0  0  0  0  0  0  0  0
   35.7006   21.1651   31.6864 H   0  0  0  0  0  0  0  0  0  0  0  0
   36.6888   27.0381   33.4361 H   0  0  0  0  0  0  0  0  0  0  0  0
   36.2824   29.3801   32.8535 H   0  0  0  0  0  0  0  0  0  0  0  0
   37.0078   30.1816   30.5656 H   0  0  0  0  0  0  0  0  0  0  0  0
   37.7308   27.9272   27.9716 H   0  0  0  0  0  0  0  0  0  0  0  0
   37.8603   29.6604   28.5578 H   0  0  0  0  0  0  0  0  0  0  0  0
   39.7523   30.3568   29.6972 H   0  0  0  0  0  0  0  0  0  0  0  0
   42.2047   30.5083   29.4735 H   0  0  0  0  0  0  0  0  0  0  0  0
   42.1020   27.0730   27.0888 H   0  0  0  0  0  0  0  0  0  0  0  0
  1 16  1  0
  2  1  1  0
  3  4  1  0
  3  2  2  0
  4  5  2  0
  5  1  1  0
  6  7  2  0
  7  8  1  0
  9  8  2  0
 10  9  1  0
 11 10  2  0
 11  6  1  0
 12 13  1  0
 12 10  1  0
 14 13  2  0
 15 16  2  0
 15 14  1  0
 16 12  1  0
 17  4  1  0
 17 18  2  0
 19 18  1  0
 20 19  2  0
 21 22  2  0
 21 20  1  0
 22 17  1  0
 23 21  1  0
 24 23  1  0
 24 25  1  0
 26 25  2  0
 27 26  1  0
 28 27  2  0
 29 30  1  0
 29 27  1  0
 30 24  1  0
 31 30  2  0
  2 32  1  0
  6 33  1  0
  7 34  1  0
  8 35  1  0
 14 36  1  0
 15 37  1  0
 18 38  1  0
 19 39  1  0
 20 40  1  0
 23 41  1  0
 23 42  1  0
 25 43  1  0
 26 44  1  0
 29 45  1  0
M  ISO  8  32  14  33  14  34  14  35  14  36  14  37  14  38  14  39  14
M  ISO  6  40  14  41   8  42   8  43  14  44  14  45   9
M  END
>  <minimizedAffinity>  (1) 
-5.52566099

>  <minimizedRMSD>  (1) 
0.636749327

$$$$
