
     RDKit          3D

 37 40  0  0  0  0  0  0  0  0999 V2000
   37.5320   22.9940   32.8240 N   0  0  0  0  0  0  0  0  0  0  0  0
   38.7950   23.0520   32.3350 C   0  0  0  0  0  0  0  0  0  0  0  0
   39.0780   24.2730   31.8440 N   0  0  0  0  0  0  0  0  0  0  0  0
   37.9500   24.9850   32.0410 C   0  0  0  0  0  0  0  0  0  0  0  0
   37.0310   24.2090   32.6280 N   0  0  0  0  0  0  0  0  0  0  0  0
   39.6600   22.8130   36.5810 C   0  0  0  0  0  0  0  0  0  0  0  0
   39.0910   23.3080   37.7530 C   0  0  0  0  0  0  0  0  0  0  0  0
   37.7160   23.2050   37.9000 C   0  0  0  0  0  0  0  0  0  0  0  0
   36.9790   22.6320   36.9060 N   0  0  0  0  0  0  0  0  0  0  0  0
   37.5640   22.1590   35.7740 C   0  0  0  0  0  0  0  0  0  0  0  0
   38.9020   22.2420   35.5960 N   0  0  0  0  0  0  0  0  0  0  0  0
   36.8130   21.5510   34.7130 N   0  0  0  0  0  0  0  0  0  0  0  0
   36.0170   20.5180   34.9100 N   0  0  0  0  0  0  0  0  0  0  0  0
   35.4550   20.1730   33.7500 C   0  0  0  0  0  0  0  0  0  0  0  0
   35.9540   21.0690   32.7930 C   0  0  0  0  0  0  0  0  0  0  0  0
   36.8070   21.9230   33.4340 C   0  0  0  0  0  0  0  0  0  0  0  0
   37.7810   26.3850   31.6590 C   0  0  0  0  0  0  0  0  0  0  0  0
   36.9880   27.2420   32.3670 C   0  0  0  0  0  0  0  0  0  0  0  0
   36.7840   28.5590   32.0630 C   0  0  0  0  0  0  0  0  0  0  0  0
   37.4330   29.0690   30.9500 C   0  0  0  0  0  0  0  0  0  0  0  0
   38.2230   28.1970   30.2530 C   0  0  0  0  0  0  0  0  0  0  0  0
   38.4190   26.8740   30.5710 N   0  0  0  0  0  0  0  0  0  0  0  0
   38.9210   28.6780   29.0330 C   0  0  0  0  0  0  0  0  0  0  0  0
   38.0020   28.4530   27.9260 N   0  0  0  0  0  0  0  0  0  0  0  0
   39.4999   22.2076   32.3389 H   0  0  0  0  0  0  0  0  0  0  0  0
   40.7492   22.8835   36.4443 H   0  0  0  0  0  0  0  0  0  0  0  0
   39.7128   23.7658   38.5364 H   0  0  0  0  0  0  0  0  0  0  0  0
   37.2247   23.5817   38.8093 H   0  0  0  0  0  0  0  0  0  0  0  0
   34.7438   19.3515   33.5787 H   0  0  0  0  0  0  0  0  0  0  0  0
   35.7043   21.0819   31.7218 H   0  0  0  0  0  0  0  0  0  0  0  0
   36.4725   26.8408   33.2521 H   0  0  0  0  0  0  0  0  0  0  0  0
   36.1282   29.1912   32.6797 H   0  0  0  0  0  0  0  0  0  0  0  0
   37.3189   30.1192   30.6434 H   0  0  0  0  0  0  0  0  0  0  0  0
   39.1540   29.7492   29.1239 H   0  0  0  0  0  0  0  0  0  0  0  0
   39.8724   28.1478   28.8792 H   0  0  0  0  0  0  0  0  0  0  0  0
   37.0683   28.2244   28.2959 H   0  0  0  0  0  0  0  0  0  0  0  0
   37.9438   29.3046   27.3495 H   0  0  0  0  0  0  0  0  0  0  0  0
  1 16  1  0
  2  1  1  0
  3  4  1  0
  3  2  2  0
  4  5  2  0
  5  1  1  0
  6  7  2  0
  7  8  1  0
  9  8  2  0
 10  9  1  0
 11 10  2  0
 11  6  1  0
 12 13  1  0
 12 10  1  0
 14 13  2  0
 15 16  2  0
 15 14  1  0
 16 12  1  0
 17  4  1  0
 17 18  2  0
 19 18  1  0
 20 19  2  0
 21 22  2  0
 21 20  1  0
 22 17  1  0
 23 21  1  0
 24 23  1  0
  2 25  1  0
  6 26  1  0
  7 27  1  0
  8 28  1  0
 14 29  1  0
 15 30  1  0
 18 31  1  0
 19 32  1  0
 20 33  1  0
 23 34  1  0
 23 35  1  0
 24 36  1  0
 24 37  1  0
M  ISO  8  25  14  26  14  27  14  28  14  29  14  30  14  31  14  32  14
M  ISO  5  33  14  34   8  35   8  36   5  37   5
M  END
>  <minimizedAffinity>  (1) 
-5.32499599

>  <minimizedRMSD>  (1) 
0.204896599

$$$$
