
     RDKit          3D

 41 45  0  0  0  0  0  0  0  0999 V2000
   37.3280   23.1360   32.6220 N   0  0  0  0  0  0  0  0  0  0  0  0
   38.5570   23.2960   32.0960 C   0  0  0  0  0  0  0  0  0  0  0  0
   38.7410   24.5550   31.6600 N   0  0  0  0  0  0  0  0  0  0  0  0
   37.5590   25.1890   31.9390 C   0  0  0  0  0  0  0  0  0  0  0  0
   36.7300   24.3340   32.5110 N   0  0  0  0  0  0  0  0  0  0  0  0
   39.6030   22.8900   36.2950 C   0  0  0  0  0  0  0  0  0  0  0  0
   39.0510   23.2900   37.5140 C   0  0  0  0  0  0  0  0  0  0  0  0
   37.6850   23.0960   37.7020 C   0  0  0  0  0  0  0  0  0  0  0  0
   36.9420   22.5240   36.6920 N   0  0  0  0  0  0  0  0  0  0  0  0
   37.5080   22.1510   35.5320 C   0  0  0  0  0  0  0  0  0  0  0  0
   38.8470   22.3250   35.3080 N   0  0  0  0  0  0  0  0  0  0  0  0
   36.7720   21.5610   34.4740 N   0  0  0  0  0  0  0  0  0  0  0  0
   36.0450   20.4730   34.6170 N   0  0  0  0  0  0  0  0  0  0  0  0
   35.4690   20.1500   33.4590 C   0  0  0  0  0  0  0  0  0  0  0  0
   35.8790   21.1250   32.5350 C   0  0  0  0  0  0  0  0  0  0  0  0
   36.6960   21.9980   33.1990 C   0  0  0  0  0  0  0  0  0  0  0  0
   37.3120   26.5860   31.6340 C   0  0  0  0  0  0  0  0  0  0  0  0
   36.8050   27.4440   32.5660 C   0  0  0  0  0  0  0  0  0  0  0  0
   36.5460   28.7710   32.3710 C   0  0  0  0  0  0  0  0  0  0  0  0
   36.8220   29.2930   31.1190 C   0  0  0  0  0  0  0  0  0  0  0  0
   37.3330   28.4230   30.1780 C   0  0  0  0  0  0  0  0  0  0  0  0
   37.5700   27.1060   30.4350 N   0  0  0  0  0  0  0  0  0  0  0  0
   37.6350   28.9130   28.8120 C   0  0  0  0  0  0  0  0  0  0  0  0
   39.0170   28.7110   28.4240 N   0  0  0  0  0  0  0  0  0  0  0  0
   40.1250   29.3050   28.9040 C   0  0  0  0  0  0  0  0  0  0  0  0
   41.2130   28.8240   28.2590 N   0  0  0  0  0  0  0  0  0  0  0  0
   40.7540   27.9140   27.3660 C   0  0  0  0  0  0  0  0  0  0  0  0
   39.4140   27.8590   27.4800 N   0  0  0  0  0  0  0  0  0  0  0  0
   39.3131   22.4997   32.0312 H   0  0  0  0  0  0  0  0  0  0  0  0
   40.6801   23.0345   36.1247 H   0  0  0  0  0  0  0  0  0  0  0  0
   39.6743   23.7430   38.2990 H   0  0  0  0  0  0  0  0  0  0  0  0
   37.2048   23.3956   38.6452 H   0  0  0  0  0  0  0  0  0  0  0  0
   34.8066   19.2932   33.2662 H   0  0  0  0  0  0  0  0  0  0  0  0
   35.5954   21.1769   31.4734 H   0  0  0  0  0  0  0  0  0  0  0  0
   36.5856   27.0309   33.5616 H   0  0  0  0  0  0  0  0  0  0  0  0
   36.1352   29.3987   33.1755 H   0  0  0  0  0  0  0  0  0  0  0  0
   36.6422   30.3527   30.8851 H   0  0  0  0  0  0  0  0  0  0  0  0
   36.9902   28.3787   28.0987 H   0  0  0  0  0  0  0  0  0  0  0  0
   37.4495   29.9972   28.8059 H   0  0  0  0  0  0  0  0  0  0  0  0
   40.1434   30.0651   29.6989 H   0  0  0  0  0  0  0  0  0  0  0  0
   41.3685   27.3239   26.6702 H   0  0  0  0  0  0  0  0  0  0  0  0
  1 16  1  0
  2  1  1  0
  3  4  1  0
  3  2  2  0
  4  5  2  0
  5  1  1  0
  6  7  2  0
  7  8  1  0
  9  8  2  0
 10  9  1  0
 11 10  2  0
 11  6  1  0
 12 13  1  0
 12 10  1  0
 14 13  2  0
 15 16  2  0
 15 14  1  0
 16 12  1  0
 17  4  1  0
 17 18  2  0
 19 18  1  0
 20 19  2  0
 21 22  2  0
 21 20  1  0
 22 17  1  0
 23 21  1  0
 24 23  1  0
 24 25  1  0
 26 25  2  0
 27 28  2  0
 27 26  1  0
 28 24  1  0
  2 29  1  0
  6 30  1  0
  7 31  1  0
  8 32  1  0
 14 33  1  0
 15 34  1  0
 18 35  1  0
 19 36  1  0
 20 37  1  0
 23 38  1  0
 23 39  1  0
 25 40  1  0
 27 41  1  0
M  ISO  8  29  14  30  14  31  14  32  14  33  14  34  14  35  14  36  14
M  ISO  5  37  14  38   8  39   8  40  14  41  14
M  END
>  <minimizedAffinity>  (1) 
-5.24690628

>  <minimizedRMSD>  (1) 
0.770953715

$$$$
