
     RDKit          3D

 37 40  0  0  1  0  0  0  0  0999 V2000
   38.9240   22.7120   35.7520 N   0  0  0  0  0  0  0  0  0  0  0  0
   39.7080   22.7820   36.9570 C   0  0  0  0  0  0  0  0  0  0  0  0
   41.1220   22.3890   36.5000 C   0  0  0  0  0  0  0  0  0  0  0  0
   41.6410   23.4650   35.8020 O   0  0  0  0  0  0  0  0  0  0  0  0
   40.6920   24.2340   35.1730 C   0  0  0  0  0  0  0  0  0  0  0  0
   39.5320   23.4410   34.6440 C   0  0  2  0  0  0  0  0  0  0  0  0
   38.5810   24.3320   33.9400 C   0  0  0  0  0  0  0  0  0  0  0  0
   38.0560   23.8980   32.7560 N   0  0  0  0  0  0  0  0  0  0  0  0
   37.1780   24.6430   32.0620 C   0  0  0  0  0  0  0  0  0  0  0  0
   36.7520   25.8560   32.4710 N   0  0  0  0  0  0  0  0  0  0  0  0
   37.2350   26.3350   33.6320 C   0  0  0  0  0  0  0  0  0  0  0  0
   36.8710   27.5650   34.1570 C   0  0  0  0  0  0  0  0  0  0  0  0
   37.3600   28.0630   35.3490 C   0  0  0  0  0  0  0  0  0  0  0  0
   38.2720   27.2690   36.0510 C   0  0  0  0  0  0  0  0  0  0  0  0
   38.6280   26.0460   35.5230 C   0  0  0  0  0  0  0  0  0  0  0  0
   38.1260   25.5730   34.3300 C   0  0  0  0  0  0  0  0  0  0  0  0
   37.7210   22.0420   35.5810 C   0  0  0  0  0  0  0  0  0  0  0  0
   36.7690   21.8950   36.5920 C   0  0  0  0  0  0  0  0  0  0  0  0
   35.5950   21.2100   36.3180 C   0  0  0  0  0  0  0  0  0  0  0  0
   35.4200   20.7010   35.0460 N   0  0  0  0  0  0  0  0  0  0  0  0
   36.3580   20.8600   34.0900 C   0  0  0  0  0  0  0  0  0  0  0  0
   37.4890   21.5230   34.3670 N   0  0  0  0  0  0  0  0  0  0  0  0
   39.6994   23.8010   37.3711 H   0  0  0  0  0  0  0  0  0  0  0  0
   39.3221   22.1285   37.7533 H   0  0  0  0  0  0  0  0  0  0  0  0
   41.7523   22.1674   37.3738 H   0  0  0  0  0  0  0  0  0  0  0  0
   41.0915   21.4907   35.8659 H   0  0  0  0  0  0  0  0  0  0  0  0
   40.3094   24.9725   35.8929 H   0  0  0  0  0  0  0  0  0  0  0  0
   41.1807   24.7077   34.3088 H   0  0  0  0  0  0  0  0  0  0  0  0
   39.8668   22.7038   33.8994 H   0  0  0  0  0  0  0  0  0  0  0  0
   36.7878   24.2439   31.1141 H   0  0  0  0  0  0  0  0  0  0  0  0
   36.1529   28.1786   33.5932 H   0  0  0  0  0  0  0  0  0  0  0  0
   37.0445   29.0452   35.7308 H   0  0  0  0  0  0  0  0  0  0  0  0
   38.6970   27.6131   37.0054 H   0  0  0  0  0  0  0  0  0  0  0  0
   39.3433   25.4212   36.0778 H   0  0  0  0  0  0  0  0  0  0  0  0
   36.9480   22.3168   37.5920 H   0  0  0  0  0  0  0  0  0  0  0  0
   34.8248   21.0757   37.0918 H   0  0  0  0  0  0  0  0  0  0  0  0
   36.1947   20.4459   33.0841 H   0  0  0  0  0  0  0  0  0  0  0  0
  1  2  1  0
  3  2  1  0
  4  3  1  0
  5  4  1  0
  6  5  1  0
  6  1  1  0
  7 16  1  0
  7  6  1  0
  8  7  2  0
  9 10  2  0
  9  8  1  0
 10 11  1  0
 11 12  1  0
 11 16  2  0
 12 13  2  0
 13 14  1  0
 15 14  2  0
 16 15  1  0
 17  1  1  0
 17 18  2  0
 19 18  1  0
 20 19  2  0
 21 22  2  0
 21 20  1  0
 22 17  1  0
  2 23  1  0
  2 24  1  0
  3 25  1  0
  3 26  1  0
  5 27  1  0
  5 28  1  0
  6 29  1  6
  9 30  1  0
 12 31  1  0
 13 32  1  0
 14 33  1  0
 15 34  1  0
 18 35  1  0
 19 36  1  0
 21 37  1  0
M  ISO  8  23  13  24  13  25  13  26  13  27  13  28  13  29  13  30  14
M  ISO  7  31  14  32  14  33  14  34  14  35  14  36  14  37  14
M  END
>  <minimizedAffinity>  (1) 
-5.33772039

>  <minimizedRMSD>  (1) 
2.46895146

$$$$
