
     RDKit          3D

 38 40  0  0  1  0  0  0  0  0999 V2000
   39.0570   22.5570   35.4440 N   0  0  0  0  0  0  0  0  0  0  0  0
   40.1700   22.0180   36.1830 C   0  0  0  0  0  0  0  0  0  0  0  0
   41.3740   22.2450   35.2650 C   0  0  0  0  0  0  0  0  0  0  0  0
   41.6600   23.6100   35.3560 O   0  0  0  0  0  0  0  0  0  0  0  0
   40.5730   24.4200   35.5970 C   0  0  0  0  0  0  0  0  0  0  0  0
   39.3260   23.9020   34.9380 C   0  0  2  0  0  0  0  0  0  0  0  0
   37.8340   21.9430   35.1900 C   0  0  0  0  0  0  0  0  0  0  0  0
   36.9160   21.6390   36.2040 C   0  0  0  0  0  0  0  0  0  0  0  0
   35.7180   21.0270   35.8830 C   0  0  0  0  0  0  0  0  0  0  0  0
   35.4840   20.7450   34.5650 N   0  0  0  0  0  0  0  0  0  0  0  0
   36.3920   21.0500   33.6030 C   0  0  0  0  0  0  0  0  0  0  0  0
   37.5650   21.6480   33.9070 N   0  0  0  0  0  0  0  0  0  0  0  0
   38.2330   24.7820   34.9470 N   0  0  0  0  0  0  0  0  0  0  0  0
   37.9680   25.4860   36.1510 C   0  0  0  0  0  0  0  0  0  0  0  0
   38.4050   26.9510   36.0320 C   0  0  0  0  0  0  0  0  0  0  0  0
   37.4960   27.5760   34.9920 C   0  0  0  0  0  0  0  0  0  0  0  0
   37.0700   26.5920   33.9320 C   0  0  0  0  0  0  0  0  0  0  0  0
   38.1920   25.5910   33.7600 C   0  0  0  0  0  0  0  0  0  0  0  0
   40.3002   22.5509   37.1365 H   0  0  0  0  0  0  0  0  0  0  0  0
   40.0308   20.9580   36.4418 H   0  0  0  0  0  0  0  0  0  0  0  0
   41.1244   21.9726   34.2289 H   0  0  0  0  0  0  0  0  0  0  0  0
   42.2347   21.6269   35.5600 H   0  0  0  0  0  0  0  0  0  0  0  0
   40.4044   24.4739   36.6827 H   0  0  0  0  0  0  0  0  0  0  0  0
   40.7907   25.4133   35.1775 H   0  0  0  0  0  0  0  0  0  0  0  0
   39.5079   23.8310   33.8555 H   0  0  0  0  0  0  0  0  0  0  0  0
   37.1471   21.8860   37.2507 H   0  0  0  0  0  0  0  0  0  0  0  0
   34.9801   20.7761   36.6593 H   0  0  0  0  0  0  0  0  0  0  0  0
   36.1682   20.8052   32.5542 H   0  0  0  0  0  0  0  0  0  0  0  0
   36.8890   25.4474   36.3614 H   0  0  0  0  0  0  0  0  0  0  0  0
   38.5342   25.0141   36.9675 H   0  0  0  0  0  0  0  0  0  0  0  0
   38.2894   27.4639   36.9982 H   0  0  0  0  0  0  0  0  0  0  0  0
   39.4632   27.0332   35.7433 H   0  0  0  0  0  0  0  0  0  0  0  0
   36.5979   27.9633   35.4954 H   0  0  0  0  0  0  0  0  0  0  0  0
   38.0592   28.3798   34.4952 H   0  0  0  0  0  0  0  0  0  0  0  0
   36.1514   26.0754   34.2471 H   0  0  0  0  0  0  0  0  0  0  0  0
   36.8655   27.1101   32.9835 H   0  0  0  0  0  0  0  0  0  0  0  0
   38.0000   24.9586   32.8807 H   0  0  0  0  0  0  0  0  0  0  0  0
   39.1519   26.1063   33.6083 H   0  0  0  0  0  0  0  0  0  0  0  0
  1  2  1  0
  3  4  1  0
  3  2  1  0
  4  5  1  0
  6 13  1  0
  6  1  1  0
  6  5  1  0
  7  1  1  0
  7  8  2  0
  9  8  1  0
 10  9  2  0
 11 12  2  0
 11 10  1  0
 12  7  1  0
 13 14  1  0
 15 14  1  0
 16 15  1  0
 17 16  1  0
 18 17  1  0
 18 13  1  0
  2 19  1  0
  2 20  1  0
  3 21  1  0
  3 22  1  0
  5 23  1  0
  5 24  1  0
  6 25  1  6
  8 26  1  0
  9 27  1  0
 11 28  1  0
 14 29  1  0
 14 30  1  0
 15 31  1  0
 15 32  1  0
 16 33  1  0
 16 34  1  0
 17 35  1  0
 17 36  1  0
 18 37  1  0
 18 38  1  0
M  ISO  8  19  13  20  13  21  13  22  13  23  13  24  13  25  13  26  14
M  ISO  8  27  14  28  14  29  13  30  13  31  13  32  13  33  13  34  13
M  ISO  4  35  13  36  13  37  13  38  13
M  END
>  <minimizedAffinity>  (1) 
-4.47988176

>  <minimizedRMSD>  (1) 
2.78868151

$$$$
