
     RDKit          3D

 36 39  0  0  1  0  0  0  0  0999 V2000
   37.9950   22.6540   34.2390 N   0  0  0  0  0  0  0  0  0  0  0  0
   38.6130   22.0680   35.3990 C   0  0  0  0  0  0  0  0  0  0  0  0
   39.8540   22.9270   35.6340 C   0  0  0  0  0  0  0  0  0  0  0  0
   39.4420   24.1500   36.1330 O   0  0  0  0  0  0  0  0  0  0  0  0
   38.1730   24.5250   35.7440 C   0  0  0  0  0  0  0  0  0  0  0  0
   37.8070   24.0970   34.3450 C   0  0  1  0  0  0  0  0  0  0  0  0
   37.5880   21.9670   33.0890 C   0  0  0  0  0  0  0  0  0  0  0  0
   38.3220   20.9290   32.5030 C   0  0  0  0  0  0  0  0  0  0  0  0
   37.8030   20.3290   31.3570 C   0  0  0  0  0  0  0  0  0  0  0  0
   36.6110   20.7790   30.8620 N   0  0  0  0  0  0  0  0  0  0  0  0
   35.9280   21.7840   31.4500 C   0  0  0  0  0  0  0  0  0  0  0  0
   36.4100   22.3760   32.5550 N   0  0  0  0  0  0  0  0  0  0  0  0
   38.5610   24.8010   33.3570 N   0  0  0  0  0  0  0  0  0  0  0  0
   39.7430   24.5860   32.7610 C   0  0  0  0  0  0  0  0  0  0  0  0
   40.0160   25.5730   31.8730 N   0  0  0  0  0  0  0  0  0  0  0  0
   38.9730   26.4280   31.9160 C   0  0  0  0  0  0  0  0  0  0  0  0
   38.7910   27.5900   31.1910 C   0  0  0  0  0  0  0  0  0  0  0  0
   37.6480   28.2640   31.4290 N   0  0  0  0  0  0  0  0  0  0  0  0
   36.7260   27.8290   32.3300 C   0  0  0  0  0  0  0  0  0  0  0  0
   36.9410   26.6930   33.0160 N   0  0  0  0  0  0  0  0  0  0  0  0
   38.0410   25.9580   32.8500 C   0  0  0  0  0  0  0  0  0  0  0  0
   39.7630   28.0380   30.2480 N   0  0  0  0  0  0  0  0  0  0  0  0
   37.9374   22.1126   36.2659 H   0  0  0  0  0  0  0  0  0  0  0  0
   38.8564   21.0048   35.2560 H   0  0  0  0  0  0  0  0  0  0  0  0
   40.5176   22.4330   36.3589 H   0  0  0  0  0  0  0  0  0  0  0  0
   40.4053   23.0658   34.6923 H   0  0  0  0  0  0  0  0  0  0  0  0
   37.4509   24.0770   36.4425 H   0  0  0  0  0  0  0  0  0  0  0  0
   38.1491   25.6247   35.7561 H   0  0  0  0  0  0  0  0  0  0  0  0
   36.7528   24.3459   34.1536 H   0  0  0  0  0  0  0  0  0  0  0  0
   39.2784   20.5973   32.9335 H   0  0  0  0  0  0  0  0  0  0  0  0
   38.3424   19.5090   30.8604 H   0  0  0  0  0  0  0  0  0  0  0  0
   34.9719   22.1197   31.0220 H   0  0  0  0  0  0  0  0  0  0  0  0
   40.4000   23.7275   32.9646 H   0  0  0  0  0  0  0  0  0  0  0  0
   35.8049   28.4066   32.4971 H   0  0  0  0  0  0  0  0  0  0  0  0
   40.6234   27.4924   30.0966 H   0  0  0  0  0  0  0  0  0  0  0  0
   39.6045   28.9071   29.7185 H   0  0  0  0  0  0  0  0  0  0  0  0
  1  6  1  0
  1  2  1  0
  2  3  1  0
  3  4  1  0
  5  4  1  0
  6  5  1  0
  7  1  1  0
  8  7  2  0
  9  8  1  0
 10  9  2  0
 10 11  1  0
 11 12  2  0
 12  7  1  0
 13  6  1  0
 14 13  1  0
 15 16  1  0
 15 14  2  0
 16 21  2  0
 17 18  2  0
 17 16  1  0
 18 19  1  0
 19 20  2  0
 21 20  1  0
 21 13  1  0
 22 17  1  0
  2 23  1  0
  2 24  1  0
  3 25  1  0
  3 26  1  0
  5 27  1  0
  5 28  1  0
  6 29  1  6
  8 30  1  0
  9 31  1  0
 11 32  1  0
 14 33  1  0
 19 34  1  0
 22 35  1  0
 22 36  1  0
M  ISO  8  23  13  24  13  25  13  26  13  27  13  28  13  29  13  30  14
M  ISO  4  31  14  32  14  33  14  34  14
M  END
>  <minimizedAffinity>  (1) 
-4.21240759

>  <minimizedRMSD>  (1) 
5.76266575

$$$$
