
     RDKit          3D

 30 32  0  0  1  0  0  0  0  0999 V2000
   40.6740   25.4660   34.3110 N   0  0  0  0  0  0  0  0  0  0  0  0
   41.8970   26.1260   33.9350 C   0  0  0  0  0  0  0  0  0  0  0  0
   42.9190   25.6600   34.9360 C   0  0  0  0  0  0  0  0  0  0  0  0
   43.2170   24.3390   34.6990 O   0  0  0  0  0  0  0  0  0  0  0  0
   42.2150   23.6260   34.0930 C   0  0  0  0  0  0  0  0  0  0  0  0
   40.8170   24.0230   34.4720 C   0  0  1  0  0  0  0  0  0  0  0  0
   39.4320   26.1010   34.5100 C   0  0  0  0  0  0  0  0  0  0  0  0
   39.1920   27.0570   35.5070 C   0  0  0  0  0  0  0  0  0  0  0  0
   37.9160   27.5940   35.5710 C   0  0  0  0  0  0  0  0  0  0  0  0
   36.9620   27.1860   34.6840 N   0  0  0  0  0  0  0  0  0  0  0  0
   37.2280   26.2520   33.7220 C   0  0  0  0  0  0  0  0  0  0  0  0
   38.4650   25.7130   33.6400 N   0  0  0  0  0  0  0  0  0  0  0  0
   40.3680   23.5260   35.7810 C   0  0  0  0  0  0  0  0  0  0  0  0
   41.1640   22.8170   36.6910 C   0  0  0  0  0  0  0  0  0  0  0  0
   40.4220   22.5150   37.7990 C   0  0  0  0  0  0  0  0  0  0  0  0
   39.1720   23.0630   37.5150 C   0  0  0  0  0  0  0  0  0  0  0  0
   39.1700   23.6420   36.3430 O   0  0  0  0  0  0  0  0  0  0  0  0
   42.1945   25.8364   32.9163 H   0  0  0  0  0  0  0  0  0  0  0  0
   41.7906   27.2208   33.9345 H   0  0  0  0  0  0  0  0  0  0  0  0
   43.8319   26.2659   34.8385 H   0  0  0  0  0  0  0  0  0  0  0  0
   42.5155   25.7702   35.9534 H   0  0  0  0  0  0  0  0  0  0  0  0
   42.3484   22.5657   34.3537 H   0  0  0  0  0  0  0  0  0  0  0  0
   42.3059   23.8335   33.0166 H   0  0  0  0  0  0  0  0  0  0  0  0
   40.1265   23.5168   33.7814 H   0  0  0  0  0  0  0  0  0  0  0  0
   39.9815   27.3671   36.2074 H   0  0  0  0  0  0  0  0  0  0  0  0
   37.6725   28.3472   36.3348 H   0  0  0  0  0  0  0  0  0  0  0  0
   36.4408   25.9411   33.0194 H   0  0  0  0  0  0  0  0  0  0  0  0
   42.2191   22.5463   36.5380 H   0  0  0  0  0  0  0  0  0  0  0  0
   40.7367   21.9691   38.7006 H   0  0  0  0  0  0  0  0  0  0  0  0
   38.3030   23.0146   38.1876 H   0  0  0  0  0  0  0  0  0  0  0  0
  1  6  1  0
  1  7  1  0
  2  1  1  0
  2  3  1  0
  4  3  1  0
  5  6  1  0
  5  4  1  0
  6 13  1  0
  7  8  2  0
  8  9  1  0
 10  9  2  0
 11 10  1  0
 12 11  2  0
 12  7  1  0
 13 17  1  0
 13 14  2  0
 14 15  1  0
 16 15  2  0
 17 16  1  0
  2 18  1  0
  2 19  1  0
  3 20  1  0
  3 21  1  0
  5 22  1  0
  5 23  1  0
  6 24  1  6
  8 25  1  0
  9 26  1  0
 11 27  1  0
 14 28  1  0
 15 29  1  0
 16 30  1  0
M  ISO  8  18  13  19  13  20  13  21  13  22  13  23  13  24  13  25  14
M  ISO  5  26  14  27  14  28  14  29  14  30  14
M  END
>  <minimizedAffinity>  (1) 
-4.19479895

>  <minimizedRMSD>  (1) 
4.71285725

$$$$
