
     RDKit          3D

 33 35  0  0  1  0  0  0  0  0999 V2000
   39.1670   22.5050   35.4760 N   0  0  0  0  0  0  0  0  0  0  0  0
   40.0470   22.0950   36.5640 C   0  0  0  0  0  0  0  0  0  0  0  0
   41.4010   21.9070   35.8680 C   0  0  0  0  0  0  0  0  0  0  0  0
   41.9000   23.1660   35.5700 O   0  0  0  0  0  0  0  0  0  0  0  0
   40.9380   24.1330   35.4090 C   0  0  0  0  0  0  0  0  0  0  0  0
   39.6990   23.6080   34.7110 C   0  0  2  0  0  0  0  0  0  0  0  0
   37.9330   21.9280   35.1610 C   0  0  0  0  0  0  0  0  0  0  0  0
   36.9220   21.6880   36.1050 C   0  0  0  0  0  0  0  0  0  0  0  0
   35.7500   21.1070   35.6440 C   0  0  0  0  0  0  0  0  0  0  0  0
   35.6250   20.7970   34.3190 N   0  0  0  0  0  0  0  0  0  0  0  0
   36.6250   21.0450   33.4350 C   0  0  0  0  0  0  0  0  0  0  0  0
   37.7700   21.6080   33.8680 N   0  0  0  0  0  0  0  0  0  0  0  0
   38.7370   24.6970   34.4570 C   0  0  0  0  0  0  0  0  0  0  0  0
   38.2500   24.9770   33.1970 C   0  0  0  0  0  0  0  0  0  0  0  0
   37.3500   25.9900   32.9330 C   0  0  0  0  0  0  0  0  0  0  0  0
   36.8990   26.7810   33.9690 C   0  0  0  0  0  0  0  0  0  0  0  0
   37.3610   26.5360   35.2510 C   0  0  0  0  0  0  0  0  0  0  0  0
   38.2660   25.5060   35.4770 C   0  0  0  0  0  0  0  0  0  0  0  0
   40.1063   22.8741   37.3382 H   0  0  0  0  0  0  0  0  0  0  0  0
   39.6990   21.1893   37.0822 H   0  0  0  0  0  0  0  0  0  0  0  0
   42.0956   21.3773   36.5365 H   0  0  0  0  0  0  0  0  0  0  0  0
   41.2833   21.3120   34.9503 H   0  0  0  0  0  0  0  0  0  0  0  0
   40.6502   24.5129   36.4004 H   0  0  0  0  0  0  0  0  0  0  0  0
   41.3648   24.9279   34.7798 H   0  0  0  0  0  0  0  0  0  0  0  0
   39.9469   23.2169   33.7132 H   0  0  0  0  0  0  0  0  0  0  0  0
   37.0538   21.9496   37.1653 H   0  0  0  0  0  0  0  0  0  0  0  0
   34.9255   20.8969   36.3412 H   0  0  0  0  0  0  0  0  0  0  0  0
   36.5014   20.7881   32.3726 H   0  0  0  0  0  0  0  0  0  0  0  0
   38.5980   24.3590   32.3562 H   0  0  0  0  0  0  0  0  0  0  0  0
   36.9960   26.1646   31.9063 H   0  0  0  0  0  0  0  0  0  0  0  0
   36.1830   27.5943   33.7796 H   0  0  0  0  0  0  0  0  0  0  0  0
   37.0120   27.1561   36.0898 H   0  0  0  0  0  0  0  0  0  0  0  0
   38.6208   25.3271   36.5027 H   0  0  0  0  0  0  0  0  0  0  0  0
  1  2  1  0
  3  2  1  0
  4  3  1  0
  5  4  1  0
  6  5  1  0
  6  1  1  0
  7  1  1  0
  7  8  2  0
  9  8  1  0
 10  9  2  0
 11 12  2  0
 11 10  1  0
 12  7  1  0
 13  6  1  0
 13 18  1  0
 14 13  2  0
 15 14  1  0
 15 16  2  0
 16 17  1  0
 17 18  2  0
  2 19  1  0
  2 20  1  0
  3 21  1  0
  3 22  1  0
  5 23  1  0
  5 24  1  0
  6 25  1  6
  8 26  1  0
  9 27  1  0
 11 28  1  0
 14 29  1  0
 15 30  1  0
 16 31  1  0
 17 32  1  0
 18 33  1  0
M  ISO  8  19  13  20  13  21  13  22  13  23  13  24  13  25  13  26  14
M  ISO  7  27  14  28  14  29  14  30  14  31  14  32  14  33  14
M  END
>  <minimizedAffinity>  (1) 
-4.09630108

>  <minimizedRMSD>  (1) 
2.53387475

$$$$
