
     RDKit          3D

 35 36  0  0  1  0  0  0  0  0999 V2000
   38.5070   23.2210   36.0760 N   0  0  0  0  0  0  0  0  0  0  0  0
   37.7830   24.1480   37.0200 C   0  0  0  0  0  0  0  0  0  0  0  0
   37.5360   23.2940   38.2160 C   0  0  0  0  0  0  0  0  0  0  0  0
   38.7310   23.0720   38.8710 O   0  0  0  0  0  0  0  0  0  0  0  0
   39.8600   23.2280   38.0630 C   0  0  0  0  0  0  0  0  0  0  0  0
   39.6130   22.6000   36.6950 C   0  0  2  0  0  0  0  0  0  0  0  0
   38.0660   23.0420   34.7730 C   0  0  0  0  0  0  0  0  0  0  0  0
   37.4370   21.9150   34.2460 C   0  0  0  0  0  0  0  0  0  0  0  0
   37.0870   21.9550   32.8960 C   0  0  0  0  0  0  0  0  0  0  0  0
   37.3690   23.0730   32.1590 N   0  0  0  0  0  0  0  0  0  0  0  0
   37.9860   24.1570   32.7100 C   0  0  0  0  0  0  0  0  0  0  0  0
   38.3130   24.1000   34.0070 N   0  0  0  0  0  0  0  0  0  0  0  0
   40.9060   22.2590   36.1020 C   0  0  0  0  0  0  0  0  0  0  0  0
   41.8310   23.5300   36.0570 C   0  0  0  0  0  0  0  0  0  0  0  0
   40.9350   21.7030   34.7310 C   0  0  0  0  0  0  0  0  0  0  0  0
   41.7310   21.4090   37.1110 C   0  0  0  0  0  0  0  0  0  0  0  0
   38.4084   25.0155   37.2775 H   0  0  0  0  0  0  0  0  0  0  0  0
   36.8602   24.5652   36.5907 H   0  0  0  0  0  0  0  0  0  0  0  0
   36.8346   23.8035   38.8931 H   0  0  0  0  0  0  0  0  0  0  0  0
   37.1039   22.3329   37.9005 H   0  0  0  0  0  0  0  0  0  0  0  0
   40.0737   24.2998   37.9386 H   0  0  0  0  0  0  0  0  0  0  0  0
   40.7170   22.7297   38.5397 H   0  0  0  0  0  0  0  0  0  0  0  0
   39.1850   21.5904   36.6087 H   0  0  0  0  0  0  0  0  0  0  0  0
   37.2258   21.0324   34.8676 H   0  0  0  0  0  0  0  0  0  0  0  0
   36.5879   21.0940   32.4274 H   0  0  0  0  0  0  0  0  0  0  0  0
   38.2081   25.0503   32.1077 H   0  0  0  0  0  0  0  0  0  0  0  0
   42.0641   23.8503   37.0832 H   0  0  0  0  0  0  0  0  0  0  0  0
   42.7641   23.2858   35.5282 H   0  0  0  0  0  0  0  0  0  0  0  0
   41.3118   24.3429   35.5282 H   0  0  0  0  0  0  0  0  0  0  0  0
   40.9922   20.6057   34.7815 H   0  0  0  0  0  0  0  0  0  0  0  0
   40.0202   21.9982   34.1962 H   0  0  0  0  0  0  0  0  0  0  0  0
   41.8141   22.0918   34.1962 H   0  0  0  0  0  0  0  0  0  0  0  0
   41.4570   21.6913   38.1383 H   0  0  0  0  0  0  0  0  0  0  0  0
   41.5151   20.3419   36.9540 H   0  0  0  0  0  0  0  0  0  0  0  0
   42.8041   21.5930   36.9540 H   0  0  0  0  0  0  0  0  0  0  0  0
  1  6  1  0
  1  2  1  0
  2  3  1  0
  3  4  1  0
  5  4  1  0
  6  5  1  0
  7  1  1  0
  8  7  2  0
  9  8  1  0
 10 11  1  0
 10  9  2  0
 11 12  2  0
 12  7  1  0
 13  6  1  0
 13 16  1  0
 14 13  1  0
 15 13  1  0
  2 17  1  0
  2 18  1  0
  3 19  1  0
  3 20  1  0
  5 21  1  0
  5 22  1  0
  6 23  1  1
  8 24  1  0
  9 25  1  0
 11 26  1  0
 14 27  1  0
 14 28  1  0
 14 29  1  0
 15 30  1  0
 15 31  1  0
 15 32  1  0
 16 33  1  0
 16 34  1  0
 16 35  1  0
M  ISO  8  17  13  18  13  19  13  20  13  21  13  22  13  23  13  24  14
M  ISO  8  25  14  26  14  27   8  28   8  29   8  30   8  31   8  32   8
M  ISO  3  33   8  34   8  35   8
M  END
>  <minimizedAffinity>  (1) 
-3.82588315

>  <minimizedRMSD>  (1) 
2.77008772

$$$$
