
     RDKit          3D

 30 31  0  0  1  0  0  0  0  0999 V2000
   39.6780   23.6860   36.2310 N   0  0  0  0  0  0  0  0  0  0  0  0
   39.5680   22.6090   37.1760 C   0  0  0  0  0  0  0  0  0  0  0  0
   39.1140   23.2520   38.4700 C   0  0  0  0  0  0  0  0  0  0  0  0
   37.7990   23.6350   38.3330 O   0  0  0  0  0  0  0  0  0  0  0  0
   37.4240   23.9380   37.0520 C   0  0  0  0  0  0  0  0  0  0  0  0
   38.4720   24.4740   36.1490 C   0  0  1  0  0  0  0  0  0  0  0  0
   40.8120   23.9800   35.4520 C   0  0  0  0  0  0  0  0  0  0  0  0
   42.1310   23.7040   35.8460 C   0  0  0  0  0  0  0  0  0  0  0  0
   43.1400   24.0590   34.9540 C   0  0  0  0  0  0  0  0  0  0  0  0
   42.8170   24.6460   33.7600 N   0  0  0  0  0  0  0  0  0  0  0  0
   41.5280   24.8920   33.4220 C   0  0  0  0  0  0  0  0  0  0  0  0
   40.5320   24.5650   34.2530 N   0  0  0  0  0  0  0  0  0  0  0  0
   38.6930   25.8960   36.2230 N   0  0  0  0  0  0  0  0  0  0  0  0
   37.8590   26.6820   35.3590 C   0  0  0  0  0  0  0  0  0  0  0  0
   37.2200   26.2830   34.3290 N   0  0  0  0  0  0  0  0  0  0  0  0
   37.6920   28.0850   35.6480 N   0  0  0  0  0  0  0  0  0  0  0  0
   37.1930   25.3270   33.9390 H   0  0  0  0  0  0  0  0  0  0  0  0
   38.8282   21.8706   36.8332 H   0  0  0  0  0  0  0  0  0  0  0  0
   40.5213   22.0739   37.2983 H   0  0  0  0  0  0  0  0  0  0  0  0
   39.2055   22.5298   39.2946 H   0  0  0  0  0  0  0  0  0  0  0  0
   39.7393   24.1291   38.6931 H   0  0  0  0  0  0  0  0  0  0  0  0
   37.0323   23.0173   36.5950 H   0  0  0  0  0  0  0  0  0  0  0  0
   36.6934   24.7538   37.1552 H   0  0  0  0  0  0  0  0  0  0  0  0
   38.0705   24.3612   35.1311 H   0  0  0  0  0  0  0  0  0  0  0  0
   42.3567   23.2302   36.8127 H   0  0  0  0  0  0  0  0  0  0  0  0
   44.1932   23.8684   35.2080 H   0  0  0  0  0  0  0  0  0  0  0  0
   41.2986   25.3648   32.4557 H   0  0  0  0  0  0  0  0  0  0  0  0
   39.3956   26.3161   36.8480 H   0  0  0  0  0  0  0  0  0  0  0  0
   37.0981   28.6686   35.0416 H   0  0  0  0  0  0  0  0  0  0  0  0
   38.1666   28.5034   36.4608 H   0  0  0  0  0  0  0  0  0  0  0  0
  1  2  1  0
  2  3  1  0
  4  3  1  0
  5  4  1  0
  6 13  1  0
  6  1  1  0
  6  5  1  0
  7  8  2  0
  7  1  1  0
  9  8  1  0
 10  9  2  0
 11 10  1  0
 11 12  2  0
 12  7  1  0
 14 16  1  0
 14 13  1  0
 15 14  2  0
 17 15  1  0
  2 18  1  0
  2 19  1  0
  3 20  1  0
  3 21  1  0
  5 22  1  0
  5 23  1  0
  6 24  1  6
  8 25  1  0
  9 26  1  0
 11 27  1  0
 13 28  1  0
 16 29  1  0
 16 30  1  0
M  ISO  8  18  13  19  13  20  13  21  13  22  13  23  13  24  13  25  14
M  ISO  2  26  14  27  14
M  END
>  <minimizedAffinity>  (1) 
-3.85549307

>  <minimizedRMSD>  (1) 
5.65435266

$$$$
