
     RDKit          3D

 29 31  0  0  1  0  0  0  0  0999 V2000
   38.9510   22.6280   35.4960 N   0  0  0  0  0  0  0  0  0  0  0  0
   39.6080   22.5530   36.7830 C   0  0  0  0  0  0  0  0  0  0  0  0
   41.0690   22.2540   36.4310 C   0  0  0  0  0  0  0  0  0  0  0  0
   41.6190   23.4170   35.9090 O   0  0  0  0  0  0  0  0  0  0  0  0
   40.7130   24.2580   35.3140 C   0  0  0  0  0  0  0  0  0  0  0  0
   39.6410   23.5020   34.5590 C   0  0  2  0  0  0  0  0  0  0  0  0
   37.7880   21.9600   35.1300 C   0  0  0  0  0  0  0  0  0  0  0  0
   36.7520   21.6510   36.0280 C   0  0  0  0  0  0  0  0  0  0  0  0
   35.6390   20.9790   35.5350 C   0  0  0  0  0  0  0  0  0  0  0  0
   35.5980   20.6480   34.2090 N   0  0  0  0  0  0  0  0  0  0  0  0
   36.6110   20.9600   33.3710 C   0  0  0  0  0  0  0  0  0  0  0  0
   37.6930   21.6100   33.8370 N   0  0  0  0  0  0  0  0  0  0  0  0
   38.7270   24.4350   33.8540 C   0  0  0  0  0  0  0  0  0  0  0  0
   37.9420   25.4070   34.5870 C   0  0  0  0  0  0  0  0  0  0  0  0
   37.0410   26.2400   33.2100 S   0  0  0  0  0  0  0  0  0  0  0  0
   37.8310   25.1930   31.9380 C   0  0  0  0  0  0  0  0  0  0  0  0
   38.5920   24.4170   32.5310 N   0  0  0  0  0  0  0  0  0  0  0  0
   39.5225   23.5076   37.3228 H   0  0  0  0  0  0  0  0  0  0  0  0
   39.1653   21.7923   37.4428 H   0  0  0  0  0  0  0  0  0  0  0  0
   41.6186   21.9513   37.3345 H   0  0  0  0  0  0  0  0  0  0  0  0
   41.1315   21.4341   35.7004 H   0  0  0  0  0  0  0  0  0  0  0  0
   40.2335   24.8698   36.0923 H   0  0  0  0  0  0  0  0  0  0  0  0
   41.2573   24.8838   34.5914 H   0  0  0  0  0  0  0  0  0  0  0  0
   40.0912   22.8798   33.7715 H   0  0  0  0  0  0  0  0  0  0  0  0
   36.8196   21.9324   37.0892 H   0  0  0  0  0  0  0  0  0  0  0  0
   34.8040   20.7176   36.2017 H   0  0  0  0  0  0  0  0  0  0  0  0
   36.5511   20.6827   32.3082 H   0  0  0  0  0  0  0  0  0  0  0  0
   37.8958   25.5966   35.6696 H   0  0  0  0  0  0  0  0  0  0  0  0
   37.6626   25.2426   30.8521 H   0  0  0  0  0  0  0  0  0  0  0  0
  1  2  1  0
  3  2  1  0
  4  3  1  0
  5  4  1  0
  6  5  1  0
  6  1  1  0
  7  1  1  0
  7  8  2  0
  9  8  1  0
 10  9  2  0
 11 12  2  0
 11 10  1  0
 12  7  1  0
 13  6  1  0
 13 14  2  0
 15 14  1  0
 16 17  2  0
 16 15  1  0
 17 13  1  0
  2 18  1  0
  2 19  1  0
  3 20  1  0
  3 21  1  0
  5 22  1  0
  5 23  1  0
  6 24  1  6
  8 25  1  0
  9 26  1  0
 11 27  1  0
 14 28  1  0
 16 29  1  0
M  ISO  8  18  13  19  13  20  13  21  13  22  13  23  13  24  13  25  14
M  ISO  4  26  14  27  14  28  14  29  14
M  END
>  <minimizedAffinity>  (1) 
-3.75335717

>  <minimizedRMSD>  (1) 
1.79888153

$$$$
