
     RDKit          3D

 24 25  0  0  1  0  0  0  0  0999 V2000
   38.8250   22.5850   35.7700 N   0  0  0  0  0  0  0  0  0  0  0  0
   39.0730   23.0100   37.1390 C   0  0  0  0  0  0  0  0  0  0  0  0
   40.4410   22.4180   37.4610 C   0  0  0  0  0  0  0  0  0  0  0  0
   41.3960   23.1530   36.7840 O   0  0  0  0  0  0  0  0  0  0  0  0
   40.9530   23.7090   35.6050 C   0  0  0  0  0  0  0  0  0  0  0  0
   39.9210   22.9160   34.8730 C   0  0  1  0  0  0  0  0  0  0  0  0
   37.6810   21.9280   35.2980 C   0  0  0  0  0  0  0  0  0  0  0  0
   36.6550   21.4720   36.1520 C   0  0  0  0  0  0  0  0  0  0  0  0
   35.5780   20.8380   35.5570 C   0  0  0  0  0  0  0  0  0  0  0  0
   35.5510   20.6820   34.2000 N   0  0  0  0  0  0  0  0  0  0  0  0
   36.5660   21.1400   33.4120 C   0  0  0  0  0  0  0  0  0  0  0  0
   37.6170   21.7560   33.9640 N   0  0  0  0  0  0  0  0  0  0  0  0
   40.4840   21.7670   34.3140 O   0  0  0  0  0  0  0  0  0  0  0  0
   39.0940   24.1074   37.2110 H   0  0  0  0  0  0  0  0  0  0  0  0
   38.2903   22.6769   37.8364 H   0  0  0  0  0  0  0  0  0  0  0  0
   40.6260   22.4735   38.5439 H   0  0  0  0  0  0  0  0  0  0  0  0
   40.4823   21.3629   37.1527 H   0  0  0  0  0  0  0  0  0  0  0  0
   40.5237   24.6953   35.8348 H   0  0  0  0  0  0  0  0  0  0  0  0
   41.8294   23.7531   34.9416 H   0  0  0  0  0  0  0  0  0  0  0  0
   39.5226   23.5233   34.0469 H   0  0  0  0  0  0  0  0  0  0  0  0
   36.7084   21.6138   37.2415 H   0  0  0  0  0  0  0  0  0  0  0  0
   34.7483   20.4618   36.1734 H   0  0  0  0  0  0  0  0  0  0  0  0
   36.5200   21.0025   32.3216 H   0  0  0  0  0  0  0  0  0  0  0  0
   40.7815   21.1599   35.0372 H   0  0  0  0  0  0  0  0  0  0  0  0
  1  2  1  0
  2  3  1  0
  4  3  1  0
  5  4  1  0
  6  5  1  0
  6  1  1  0
  7  1  1  0
  7  8  2  0
  9  8  1  0
 10  9  2  0
 11 12  2  0
 11 10  1  0
 12  7  1  0
 13  6  1  0
  2 14  1  0
  2 15  1  0
  3 16  1  0
  3 17  1  0
  5 18  1  0
  5 19  1  0
  6 20  1  6
  8 21  1  0
  9 22  1  0
 11 23  1  0
 13 24  1  0
M  ISO  8  14  13  15  13  16  13  17  13  18  13  19  13  20  13  21  14
M  ISO  3  22  14  23  14  24   3
M  END
>  <minimizedAffinity>  (1) 
-3.42703509

>  <minimizedRMSD>  (1) 
0.312231183

$$$$
