
     RDKit          3D

 26 27  0  0  1  0  0  0  0  0999 V2000
   38.8240   22.7320   35.4220 N   0  0  0  0  0  0  0  0  0  0  0  0
   39.7760   22.4820   36.4730 C   0  0  0  0  0  0  0  0  0  0  0  0
   41.1290   22.4570   35.7680 C   0  0  0  0  0  0  0  0  0  0  0  0
   41.4520   23.7650   35.4600 O   0  0  0  0  0  0  0  0  0  0  0  0
   40.3700   24.5820   35.2450 C   0  0  0  0  0  0  0  0  0  0  0  0
   39.1790   23.8980   34.6160 C   0  0  2  0  0  0  0  0  0  0  0  0
   37.6780   21.9980   35.1420 C   0  0  0  0  0  0  0  0  0  0  0  0
   36.7430   21.6170   36.1140 C   0  0  0  0  0  0  0  0  0  0  0  0
   35.6330   20.8870   35.7240 C   0  0  0  0  0  0  0  0  0  0  0  0
   35.4940   20.5690   34.4040 N   0  0  0  0  0  0  0  0  0  0  0  0
   36.4120   20.9470   33.4810 C   0  0  0  0  0  0  0  0  0  0  0  0
   37.5070   21.6610   33.8340 N   0  0  0  0  0  0  0  0  0  0  0  0
   38.0790   24.9290   34.5550 C   0  0  0  0  0  0  0  0  0  0  0  0
   39.7444   23.2845   37.2247 H   0  0  0  0  0  0  0  0  0  0  0  0
   39.5680   21.5450   37.0104 H   0  0  0  0  0  0  0  0  0  0  0  0
   41.8926   22.0264   36.4325 H   0  0  0  0  0  0  0  0  0  0  0  0
   41.0846   21.8405   34.8581 H   0  0  0  0  0  0  0  0  0  0  0  0
   40.0551   24.9961   36.2142 H   0  0  0  0  0  0  0  0  0  0  0  0
   40.6987   25.3525   34.5320 H   0  0  0  0  0  0  0  0  0  0  0  0
   39.3801   23.5276   33.5999 H   0  0  0  0  0  0  0  0  0  0  0  0
   36.8885   21.8932   37.1688 H   0  0  0  0  0  0  0  0  0  0  0  0
   34.8804   20.5706   36.4612 H   0  0  0  0  0  0  0  0  0  0  0  0
   36.2648   20.6689   32.4270 H   0  0  0  0  0  0  0  0  0  0  0  0
   37.7811   25.2082   35.5764 H   0  0  0  0  0  0  0  0  0  0  0  0
   38.4412   25.8205   34.0221 H   0  0  0  0  0  0  0  0  0  0  0  0
   37.2128   24.5099   34.0221 H   0  0  0  0  0  0  0  0  0  0  0  0
  1  2  1  0
  3  2  1  0
  4  3  1  0
  5  4  1  0
  6  5  1  0
  6  1  1  0
  7  1  1  0
  7  8  2  0
  9  8  1  0
 10  9  2  0
 11 12  2  0
 11 10  1  0
 12  7  1  0
 13  6  1  0
  2 14  1  0
  2 15  1  0
  3 16  1  0
  3 17  1  0
  5 18  1  0
  5 19  1  0
  6 20  1  6
  8 21  1  0
  9 22  1  0
 11 23  1  0
 13 24  1  0
 13 25  1  0
 13 26  1  0
M  ISO  8  14  13  15  13  16  13  17  13  18  13  19  13  20  13  21  14
M  ISO  5  22  14  23  14  24   8  25   8  26   8
M  END
>  <minimizedAffinity>  (1) 
-3.19882321

>  <minimizedRMSD>  (1) 
1.31397331

$$$$
