
     RDKit          3D

 46 50  0  0  1  0  0  0  0  0999 V2000
   40.1250   24.2310   34.6520 N   0  0  0  0  0  0  0  0  0  0  0  0
   41.4740   24.5040   35.1220 C   0  0  0  0  0  0  0  0  0  0  0  0
   42.3420   23.7330   34.1030 C   0  0  0  0  0  0  0  0  0  0  0  0
   42.3210   24.4310   32.9190 O   0  0  0  0  0  0  0  0  0  0  0  0
   41.1760   25.1570   32.7130 C   0  0  0  0  0  0  0  0  0  0  0  0
   39.9300   24.4920   33.2260 C   0  0  2  0  0  0  0  0  0  0  0  0
   38.7340   25.2890   32.9260 C   0  0  0  0  0  0  0  0  0  0  0  0
   38.5240   26.5330   33.4990 C   0  0  0  0  0  0  0  0  0  0  0  0
   37.4200   27.3200   33.2320 C   0  0  0  0  0  0  0  0  0  0  0  0
   36.4660   26.8440   32.3450 C   0  0  0  0  0  0  0  0  0  0  0  0
   36.6250   25.6090   31.7460 C   0  0  0  0  0  0  0  0  0  0  0  0
   37.7540   24.8600   32.0490 C   0  0  0  0  0  0  0  0  0  0  0  0
   37.8180   23.6130   31.3680 N   0  0  0  0  0  0  0  0  0  0  0  0
   38.6040   23.1140   30.3950 C   0  0  0  0  0  0  0  0  0  0  0  0
   38.2370   21.8530   30.1000 N   0  0  0  0  0  0  0  0  0  0  0  0
   37.1960   21.5200   30.8920 C   0  0  0  0  0  0  0  0  0  0  0  0
   36.5180   20.3180   30.9090 C   0  0  0  0  0  0  0  0  0  0  0  0
   35.4970   20.2480   31.8100 N   0  0  0  0  0  0  0  0  0  0  0  0
   35.2230   21.3240   32.6030 C   0  0  0  0  0  0  0  0  0  0  0  0
   35.9180   22.4670   32.5400 N   0  0  0  0  0  0  0  0  0  0  0  0
   36.9350   22.6210   31.6830 C   0  0  0  0  0  0  0  0  0  0  0  0
   36.8780   19.2490   30.0420 N   0  0  0  0  0  0  0  0  0  0  0  0
   39.0690   23.7530   35.4450 C   0  0  0  0  0  0  0  0  0  0  0  0
   38.5590   24.4300   36.5530 C   0  0  0  0  0  0  0  0  0  0  0  0
   37.5130   23.8230   37.2360 C   0  0  0  0  0  0  0  0  0  0  0  0
   37.0270   22.6140   36.8120 N   0  0  0  0  0  0  0  0  0  0  0  0
   37.5450   21.9920   35.7380 C   0  0  0  0  0  0  0  0  0  0  0  0
   38.5580   22.5670   35.0660 N   0  0  0  0  0  0  0  0  0  0  0  0
   41.6937   25.5816   35.0973 H   0  0  0  0  0  0  0  0  0  0  0  0
   41.6461   24.2002   36.1651 H   0  0  0  0  0  0  0  0  0  0  0  0
   43.3748   23.6563   34.4737 H   0  0  0  0  0  0  0  0  0  0  0  0
   41.9495   22.7160   33.9561 H   0  0  0  0  0  0  0  0  0  0  0  0
   41.2850   26.1264   33.2213 H   0  0  0  0  0  0  0  0  0  0  0  0
   41.0563   25.2605   31.6244 H   0  0  0  0  0  0  0  0  0  0  0  0
   39.7543   23.5333   32.7161 H   0  0  0  0  0  0  0  0  0  0  0  0
   39.2767   26.9147   34.2045 H   0  0  0  0  0  0  0  0  0  0  0  0
   37.3005   28.3023   33.7124 H   0  0  0  0  0  0  0  0  0  0  0  0
   35.5784   27.4526   32.1172 H   0  0  0  0  0  0  0  0  0  0  0  0
   35.8711   25.2264   31.0422 H   0  0  0  0  0  0  0  0  0  0  0  0
   39.4278   23.6588   29.9107 H   0  0  0  0  0  0  0  0  0  0  0  0
   34.3962   21.2495   33.3247 H   0  0  0  0  0  0  0  0  0  0  0  0
   36.3560   18.3617   30.0742 H   0  0  0  0  0  0  0  0  0  0  0  0
   37.6606   19.3624   29.3821 H   0  0  0  0  0  0  0  0  0  0  0  0
   38.9669   25.4007   36.8714 H   0  0  0  0  0  0  0  0  0  0  0  0
   37.0745   24.3131   38.1178 H   0  0  0  0  0  0  0  0  0  0  0  0
   37.1435   21.0212   35.4120 H   0  0  0  0  0  0  0  0  0  0  0  0
  1  2  1  0
  1 23  1  0
  3  2  1  0
  4  3  1  0
  5  4  1  0
  5  6  1  0
  6  1  1  0
  7  6  1  0
  7  8  2  0
  9  8  1  0
 10  9  2  0
 11 12  2  0
 11 10  1  0
 12  7  1  0
 13 21  1  0
 13 12  1  0
 14 13  1  0
 15 14  2  0
 15 16  1  0
 16 17  2  0
 16 21  1  0
 17 18  1  0
 18 19  2  0
 20 19  1  0
 21 20  2  0
 22 17  1  0
 23 24  2  0
 24 25  1  0
 26 25  2  0
 27 26  1  0
 28 23  1  0
 28 27  2  0
  2 29  1  0
  2 30  1  0
  3 31  1  0
  3 32  1  0
  5 33  1  0
  5 34  1  0
  6 35  1  6
  8 36  1  0
  9 37  1  0
 10 38  1  0
 11 39  1  0
 14 40  1  0
 19 41  1  0
 22 42  1  0
 22 43  1  0
 24 44  1  0
 25 45  1  0
 27 46  1  0
M  ISO  8  29  13  30  13  31  13  32  13  33  13  34  13  35  13  36  14
M  ISO  8  37  14  38  14  39  14  40  14  41  14  44  14  45  14  46  14
M  END
>  <minimizedAffinity>  (1) 
-5.27753735

>  <minimizedRMSD>  (1) 
2.45771003

$$$$
