
     RDKit          3D

 46 49  0  0  1  0  0  0  0  0999 V2000
   39.4890   22.5440   35.2280 N   0  0  0  0  0  0  0  0  0  0  0  0
   40.5090   21.9860   36.0970 C   0  0  0  0  0  0  0  0  0  0  0  0
   41.7380   21.9120   35.1780 C   0  0  0  0  0  0  0  0  0  0  0  0
   42.2080   23.1860   34.9700 O   0  0  0  0  0  0  0  0  0  0  0  0
   41.2490   24.1580   35.0590 C   0  0  0  0  0  0  0  0  0  0  0  0
   39.9100   23.7540   34.5120 C   0  0  2  0  0  0  0  0  0  0  0  0
   38.9430   24.8550   34.5830 C   0  0  0  0  0  0  0  0  0  0  0  0
   38.5210   25.3740   35.8000 C   0  0  0  0  0  0  0  0  0  0  0  0
   37.6230   26.4190   35.9000 C   0  0  0  0  0  0  0  0  0  0  0  0
   37.1120   26.9810   34.7500 C   0  0  0  0  0  0  0  0  0  0  0  0
   37.5020   26.4980   33.5090 C   0  0  0  0  0  0  0  0  0  0  0  0
   38.4120   25.4410   33.4500 C   0  0  0  0  0  0  0  0  0  0  0  0
   38.7190   25.0770   32.1140 N   0  0  0  0  0  0  0  0  0  0  0  0
   39.8650   25.2980   31.4440 C   0  0  0  0  0  0  0  0  0  0  0  0
   40.0400   24.8920   30.1370 C   0  0  0  0  0  0  0  0  0  0  0  0
   41.3710   25.2040   29.5100 C   0  0  0  0  0  0  0  0  0  0  0  0
   39.0420   24.2360   29.4490 C   0  0  0  0  0  0  0  0  0  0  0  0
   39.2690   23.8940   28.2600 O   0  0  0  0  0  0  0  0  0  0  0  0
   37.9050   24.0190   30.1190 N   0  0  0  0  0  0  0  0  0  0  0  0
   37.7720   24.4240   31.3790 C   0  0  0  0  0  0  0  0  0  0  0  0
   36.6730   24.1840   31.9350 O   0  0  0  0  0  0  0  0  0  0  0  0
   38.2040   22.0120   35.0390 C   0  0  0  0  0  0  0  0  0  0  0  0
   37.2640   21.8660   36.0580 C   0  0  0  0  0  0  0  0  0  0  0  0
   36.0350   21.3180   35.7120 C   0  0  0  0  0  0  0  0  0  0  0  0
   35.7950   20.9510   34.4160 N   0  0  0  0  0  0  0  0  0  0  0  0
   36.7260   21.1070   33.4590 C   0  0  0  0  0  0  0  0  0  0  0  0
   37.9180   21.6350   33.7800 N   0  0  0  0  0  0  0  0  0  0  0  0
   40.6979   22.6432   36.9587 H   0  0  0  0  0  0  0  0  0  0  0  0
   40.2288   21.0134   36.5278 H   0  0  0  0  0  0  0  0  0  0  0  0
   42.5199   21.3017   35.6536 H   0  0  0  0  0  0  0  0  0  0  0  0
   41.4616   21.4523   34.2176 H   0  0  0  0  0  0  0  0  0  0  0  0
   41.1230   24.4221   36.1194 H   0  0  0  0  0  0  0  0  0  0  0  0
   41.5981   25.0032   34.4477 H   0  0  0  0  0  0  0  0  0  0  0  0
   39.9748   23.5216   33.4388 H   0  0  0  0  0  0  0  0  0  0  0  0
   38.9196   24.9333   36.7257 H   0  0  0  0  0  0  0  0  0  0  0  0
   37.3191   26.7984   36.8868 H   0  0  0  0  0  0  0  0  0  0  0  0
   36.3949   27.8125   34.8159 H   0  0  0  0  0  0  0  0  0  0  0  0
   37.1003   26.9412   32.5859 H   0  0  0  0  0  0  0  0  0  0  0  0
   40.6884   25.8189   31.9546 H   0  0  0  0  0  0  0  0  0  0  0  0
   42.1164   25.3787   30.2998 H   0  0  0  0  0  0  0  0  0  0  0  0
   41.6900   24.3563   28.8858 H   0  0  0  0  0  0  0  0  0  0  0  0
   41.2800   26.1052   28.8858 H   0  0  0  0  0  0  0  0  0  0  0  0
   37.1244   23.5333   29.6546 H   0  0  0  0  0  0  0  0  0  0  0  0
   37.4857   22.1714   37.0912 H   0  0  0  0  0  0  0  0  0  0  0  0
   35.2574   21.1796   36.4776 H   0  0  0  0  0  0  0  0  0  0  0  0
   36.5133   20.8050   32.4229 H   0  0  0  0  0  0  0  0  0  0  0  0
  1  2  1  0
  3  2  1  0
  4  5  1  0
  4  3  1  0
  6  7  1  0
  6  5  1  0
  6  1  1  0
  7  8  2  0
  8  9  1  0
 10  9  2  0
 11 10  1  0
 12 11  2  0
 12  7  1  0
 13 12  1  0
 14 13  1  0
 15 14  2  0
 16 15  1  0
 17 19  1  0
 17 15  1  0
 18 17  2  0
 19 20  1  0
 20 21  2  0
 20 13  1  0
 22  1  1  0
 22 23  2  0
 24 23  1  0
 25 24  2  0
 26 27  2  0
 26 25  1  0
 27 22  1  0
  2 28  1  0
  2 29  1  0
  3 30  1  0
  3 31  1  0
  5 32  1  0
  5 33  1  0
  6 34  1  6
  8 35  1  0
  9 36  1  0
 10 37  1  0
 11 38  1  0
 14 39  1  0
 16 40  1  0
 16 41  1  0
 16 42  1  0
 19 43  1  0
 23 44  1  0
 24 45  1  0
 26 46  1  0
M  ISO  8  28  13  29  13  30  13  31  13  32  13  33  13  34  13  35  14
M  ISO  8  36  14  37  14  38  14  39  14  40   8  41   8  42   8  43   9
M  ISO  3  44  14  45  14  46  14
M  END
>  <minimizedAffinity>  (1) 
-4.99060011

>  <minimizedRMSD>  (1) 
0.891918182

$$$$
