
     RDKit          3D

 40 43  0  0  1  0  0  0  0  0999 V2000
   39.5520   22.6050   35.0960 N   0  0  0  0  0  0  0  0  0  0  0  0
   40.6580   22.0220   35.8380 C   0  0  0  0  0  0  0  0  0  0  0  0
   41.7860   21.9920   34.7860 C   0  0  0  0  0  0  0  0  0  0  0  0
   42.2270   23.2820   34.5980 O   0  0  0  0  0  0  0  0  0  0  0  0
   41.2780   24.2410   34.8260 C   0  0  0  0  0  0  0  0  0  0  0  0
   39.8920   23.8440   34.4010 C   0  0  2  0  0  0  0  0  0  0  0  0
   38.9290   24.9340   34.6070 C   0  0  0  0  0  0  0  0  0  0  0  0
   38.8650   25.6210   35.8120 C   0  0  0  0  0  0  0  0  0  0  0  0
   37.9820   26.6620   36.0300 C   0  0  0  0  0  0  0  0  0  0  0  0
   37.1240   27.0380   35.0160 C   0  0  0  0  0  0  0  0  0  0  0  0
   37.1480   26.3870   33.7990 C   0  0  0  0  0  0  0  0  0  0  0  0
   38.0550   25.3400   33.6120 C   0  0  0  0  0  0  0  0  0  0  0  0
   38.0150   24.7330   32.3280 N   0  0  0  0  0  0  0  0  0  0  0  0
   38.8380   24.3330   31.3460 C   0  0  0  0  0  0  0  0  0  0  0  0
   38.1160   23.7870   30.3090 C   0  0  0  0  0  0  0  0  0  0  0  0
   36.8220   23.8660   30.6870 N   0  0  0  0  0  0  0  0  0  0  0  0
   36.7510   24.4360   31.9050 C   0  0  0  0  0  0  0  0  0  0  0  0
   38.2550   22.0700   35.0130 C   0  0  0  0  0  0  0  0  0  0  0  0
   37.3820   21.9690   36.0970 C   0  0  0  0  0  0  0  0  0  0  0  0
   36.1330   21.4150   35.8600 C   0  0  0  0  0  0  0  0  0  0  0  0
   35.8050   20.9960   34.6000 N   0  0  0  0  0  0  0  0  0  0  0  0
   36.6730   21.1080   33.5760 C   0  0  0  0  0  0  0  0  0  0  0  0
   37.8820   21.6420   33.8020 N   0  0  0  0  0  0  0  0  0  0  0  0
   40.9337   22.6489   36.6988 H   0  0  0  0  0  0  0  0  0  0  0  0
   40.4285   21.0339   36.2635 H   0  0  0  0  0  0  0  0  0  0  0  0
   42.6141   21.3630   35.1445 H   0  0  0  0  0  0  0  0  0  0  0  0
   41.4142   21.5736   33.8391 H   0  0  0  0  0  0  0  0  0  0  0  0
   41.2597   24.4599   35.9038 H   0  0  0  0  0  0  0  0  0  0  0  0
   41.5579   25.1155   34.2203 H   0  0  0  0  0  0  0  0  0  0  0  0
   39.8513   23.6538   33.3183 H   0  0  0  0  0  0  0  0  0  0  0  0
   39.5439   25.3251   36.6254 H   0  0  0  0  0  0  0  0  0  0  0  0
   37.9633   27.1837   36.9983 H   0  0  0  0  0  0  0  0  0  0  0  0
   36.4153   27.8633   35.1792 H   0  0  0  0  0  0  0  0  0  0  0  0
   36.4652   26.6870   32.9904 H   0  0  0  0  0  0  0  0  0  0  0  0
   39.9337   24.4280   31.3670 H   0  0  0  0  0  0  0  0  0  0  0  0
   38.5104   23.3731   29.3693 H   0  0  0  0  0  0  0  0  0  0  0  0
   35.8259   24.6306   32.4674 H   0  0  0  0  0  0  0  0  0  0  0  0
   37.6731   22.3151   37.0997 H   0  0  0  0  0  0  0  0  0  0  0  0
   35.4091   21.3130   36.6819 H   0  0  0  0  0  0  0  0  0  0  0  0
   36.3939   20.7661   32.5684 H   0  0  0  0  0  0  0  0  0  0  0  0
  1  2  1  0
  3  2  1  0
  4  3  1  0
  4  5  1  0
  6  7  1  0
  6  5  1  0
  6  1  1  0
  7  8  2  0
  8  9  1  0
 10  9  2  0
 11 10  1  0
 12 11  2  0
 12  7  1  0
 13 12  1  0
 14 13  1  0
 15 16  1  0
 15 14  2  0
 16 17  2  0
 17 13  1  0
 18  1  1  0
 18 19  2  0
 20 19  1  0
 21 20  2  0
 22 23  2  0
 22 21  1  0
 23 18  1  0
  2 24  1  0
  2 25  1  0
  3 26  1  0
  3 27  1  0
  5 28  1  0
  5 29  1  0
  6 30  1  6
  8 31  1  0
  9 32  1  0
 10 33  1  0
 11 34  1  0
 14 35  1  0
 15 36  1  0
 17 37  1  0
 19 38  1  0
 20 39  1  0
 22 40  1  0
M  ISO  8  24  13  25  13  26  13  27  13  28  13  29  13  30  13  31  14
M  ISO  8  32  14  33  14  34  14  35  14  36  14  37  14  38  14  39  14
M  ISO  1  40  14
M  END
>  <minimizedAffinity>  (1) 
-4.54253197

>  <minimizedRMSD>  (1) 
0.938170373

$$$$
