
     RDKit          3D

 40 43  0  0  1  0  0  0  0  0999 V2000
   39.2590   22.5290   35.3330 N   0  0  0  0  0  0  0  0  0  0  0  0
   40.1900   22.0830   36.3530 C   0  0  0  0  0  0  0  0  0  0  0  0
   41.5100   21.9430   35.5660 C   0  0  0  0  0  0  0  0  0  0  0  0
   41.9830   23.2200   35.3150 O   0  0  0  0  0  0  0  0  0  0  0  0
   41.0020   24.1780   35.2460 C   0  0  0  0  0  0  0  0  0  0  0  0
   39.7450   23.6800   34.5620 C   0  0  2  0  0  0  0  0  0  0  0  0
   38.7620   24.7550   34.4040 C   0  0  0  0  0  0  0  0  0  0  0  0
   38.2620   25.4420   35.5080 C   0  0  0  0  0  0  0  0  0  0  0  0
   37.3490   26.4650   35.4460 C   0  0  0  0  0  0  0  0  0  0  0  0
   36.8840   26.8520   34.2220 C   0  0  0  0  0  0  0  0  0  0  0  0
   37.3370   26.2150   33.1080 C   0  0  0  0  0  0  0  0  0  0  0  0
   38.2770   25.1640   33.1770 C   0  0  0  0  0  0  0  0  0  0  0  0
   38.6880   24.5550   31.8990 C   0  0  0  0  0  0  0  0  0  0  0  0
   37.7950   23.9430   31.0400 C   0  0  0  0  0  0  0  0  0  0  0  0
   38.4150   23.4580   29.9260 C   0  0  0  0  0  0  0  0  0  0  0  0
   39.7130   23.8060   30.1610 C   0  0  0  0  0  0  0  0  0  0  0  0
   39.8040   24.4170   31.2790 O   0  0  0  0  0  0  0  0  0  0  0  0
   38.0120   21.9530   35.0530 C   0  0  0  0  0  0  0  0  0  0  0  0
   37.0290   21.7410   36.0190 C   0  0  0  0  0  0  0  0  0  0  0  0
   35.8430   21.1600   35.5800 C   0  0  0  0  0  0  0  0  0  0  0  0
   35.6830   20.8240   34.2590 N   0  0  0  0  0  0  0  0  0  0  0  0
   36.6650   21.0480   33.3530 C   0  0  0  0  0  0  0  0  0  0  0  0
   37.8090   21.6060   33.7620 N   0  0  0  0  0  0  0  0  0  0  0  0
   40.2843   22.8274   37.1574 H   0  0  0  0  0  0  0  0  0  0  0  0
   39.8786   21.1544   36.8536 H   0  0  0  0  0  0  0  0  0  0  0  0
   42.2444   21.3809   36.1616 H   0  0  0  0  0  0  0  0  0  0  0  0
   41.3435   21.3997   34.6241 H   0  0  0  0  0  0  0  0  0  0  0  0
   40.7452   24.4929   36.2682 H   0  0  0  0  0  0  0  0  0  0  0  0
   41.3957   25.0141   34.6494 H   0  0  0  0  0  0  0  0  0  0  0  0
   39.9492   23.3502   33.5327 H   0  0  0  0  0  0  0  0  0  0  0  0
   38.6255   25.1427   36.5021 H   0  0  0  0  0  0  0  0  0  0  0  0
   36.9994   26.9624   36.3627 H   0  0  0  0  0  0  0  0  0  0  0  0
   36.1521   27.6688   34.1374 H   0  0  0  0  0  0  0  0  0  0  0  0
   36.9592   26.5286   32.1237 H   0  0  0  0  0  0  0  0  0  0  0  0
   36.7152   23.8574   31.2314 H   0  0  0  0  0  0  0  0  0  0  0  0
   37.9826   22.9266   29.0654 H   0  0  0  0  0  0  0  0  0  0  0  0
   40.5561   23.5922   29.4876 H   0  0  0  0  0  0  0  0  0  0  0  0
   37.1828   22.0183   37.0723 H   0  0  0  0  0  0  0  0  0  0  0  0
   35.0296   20.9691   36.2955 H   0  0  0  0  0  0  0  0  0  0  0  0
   36.5232   20.7749   32.2969 H   0  0  0  0  0  0  0  0  0  0  0  0
  1  2  1  0
  3  2  1  0
  4  3  1  0
  5  4  1  0
  6  5  1  0
  6  1  1  0
  7  6  1  0
  7  8  2  0
  9  8  1  0
 10  9  2  0
 11 12  2  0
 11 10  1  0
 12  7  1  0
 13 12  1  0
 14 13  2  0
 15 16  2  0
 15 14  1  0
 16 17  1  0
 17 13  1  0
 18  1  1  0
 18 19  2  0
 20 19  1  0
 21 20  2  0
 22 23  2  0
 22 21  1  0
 23 18  1  0
  2 24  1  0
  2 25  1  0
  3 26  1  0
  3 27  1  0
  5 28  1  0
  5 29  1  0
  6 30  1  6
  8 31  1  0
  9 32  1  0
 10 33  1  0
 11 34  1  0
 14 35  1  0
 15 36  1  0
 16 37  1  0
 19 38  1  0
 20 39  1  0
 22 40  1  0
M  ISO  8  24  13  25  13  26  13  27  13  28  13  29  13  30  13  31  14
M  ISO  8  32  14  33  14  34  14  35  14  36  14  37  14  38  14  39  14
M  ISO  1  40  14
M  END
>  <minimizedAffinity>  (1) 
-4.45682192

>  <minimizedRMSD>  (1) 
0.325532585

$$$$
