
     RDKit          3D

 40 43  0  0  1  0  0  0  0  0999 V2000
   39.1560   22.5270   35.4610 N   0  0  0  0  0  0  0  0  0  0  0  0
   40.0310   22.1390   36.5510 C   0  0  0  0  0  0  0  0  0  0  0  0
   41.3890   21.9500   35.8360 C   0  0  0  0  0  0  0  0  0  0  0  0
   41.8810   23.2010   35.5340 O   0  0  0  0  0  0  0  0  0  0  0  0
   40.9210   24.1480   35.3270 C   0  0  0  0  0  0  0  0  0  0  0  0
   39.6850   23.6310   34.6400 C   0  0  2  0  0  0  0  0  0  0  0  0
   38.7220   24.7090   34.3990 C   0  0  0  0  0  0  0  0  0  0  0  0
   38.2390   25.5050   35.4290 C   0  0  0  0  0  0  0  0  0  0  0  0
   37.3290   26.5290   35.2430 C   0  0  0  0  0  0  0  0  0  0  0  0
   36.8670   26.7900   33.9810 C   0  0  0  0  0  0  0  0  0  0  0  0
   37.3140   26.0290   32.9160 C   0  0  0  0  0  0  0  0  0  0  0  0
   38.2430   24.9910   33.1330 C   0  0  0  0  0  0  0  0  0  0  0  0
   38.6270   24.3460   31.8580 C   0  0  0  0  0  0  0  0  0  0  0  0
   37.5810   23.8890   30.8790 C   0  0  0  0  0  0  0  0  0  0  0  0
   38.4310   25.0920   30.5680 C   0  0  0  0  0  0  0  0  0  0  0  0
   37.9220   21.9430   35.1510 C   0  0  0  0  0  0  0  0  0  0  0  0
   36.9190   21.7120   36.0900 C   0  0  0  0  0  0  0  0  0  0  0  0
   35.7490   21.1190   35.6260 C   0  0  0  0  0  0  0  0  0  0  0  0
   35.6250   20.7910   34.3050 N   0  0  0  0  0  0  0  0  0  0  0  0
   36.6150   21.0280   33.4260 C   0  0  0  0  0  0  0  0  0  0  0  0
   37.7480   21.5990   33.8610 N   0  0  0  0  0  0  0  0  0  0  0  0
   40.0898   22.9288   37.3144 H   0  0  0  0  0  0  0  0  0  0  0  0
   39.6901   21.2431   37.0905 H   0  0  0  0  0  0  0  0  0  0  0  0
   42.0906   21.4213   36.4980 H   0  0  0  0  0  0  0  0  0  0  0  0
   41.2625   21.3543   34.9200 H   0  0  0  0  0  0  0  0  0  0  0  0
   40.6265   24.5605   36.3033 H   0  0  0  0  0  0  0  0  0  0  0  0
   41.3608   24.9049   34.6609 H   0  0  0  0  0  0  0  0  0  0  0  0
   39.9154   23.2412   33.6375 H   0  0  0  0  0  0  0  0  0  0  0  0
   38.6004   25.3101   36.4495 H   0  0  0  0  0  0  0  0  0  0  0  0
   36.9805   27.1265   36.0983 H   0  0  0  0  0  0  0  0  0  0  0  0
   36.1433   27.6015   33.8146 H   0  0  0  0  0  0  0  0  0  0  0  0
   36.9448   26.2336   31.9002 H   0  0  0  0  0  0  0  0  0  0  0  0
   39.4729   23.8563   32.3626 H   0  0  0  0  0  0  0  0  0  0  0  0
   37.7242   22.9541   30.3173 H   0  0  0  0  0  0  0  0  0  0  0  0
   36.5000   23.6922   30.9305 H   0  0  0  0  0  0  0  0  0  0  0  0
   39.1953   25.0363   29.7788 H   0  0  0  0  0  0  0  0  0  0  0  0
   38.2283   26.1389   30.2978 H   0  0  0  0  0  0  0  0  0  0  0  0
   37.0461   21.9854   37.1479 H   0  0  0  0  0  0  0  0  0  0  0  0
   34.9230   20.9140   36.3230 H   0  0  0  0  0  0  0  0  0  0  0  0
   36.4973   20.7576   32.3663 H   0  0  0  0  0  0  0  0  0  0  0  0
  1  2  1  0
  3  2  1  0
  4  3  1  0
  5  4  1  0
  6  5  1  0
  6  1  1  0
  7  6  1  0
  7  8  2  0
  9  8  1  0
 10  9  2  0
 11 12  2  0
 11 10  1  0
 12  7  1  0
 13 12  1  0
 14 13  1  0
 15 14  1  0
 15 13  1  0
 16  1  1  0
 16 17  2  0
 18 17  1  0
 19 18  2  0
 20 21  2  0
 20 19  1  0
 21 16  1  0
  2 22  1  0
  2 23  1  0
  3 24  1  0
  3 25  1  0
  5 26  1  0
  5 27  1  0
  6 28  1  6
  8 29  1  0
  9 30  1  0
 10 31  1  0
 11 32  1  0
 13 33  1  0
 14 34  1  0
 14 35  1  0
 15 36  1  0
 15 37  1  0
 17 38  1  0
 18 39  1  0
 20 40  1  0
M  ISO  8  22  13  23  13  24  13  25  13  26  13  27  13  28  13  29  14
M  ISO  8  30  14  31  14  32  14  33  13  34  13  35  13  36  13  37  13
M  ISO  3  38  14  39  14  40  14
M  END
>  <minimizedAffinity>  (1) 
-4.4341774

>  <minimizedRMSD>  (1) 
0.217768103

$$$$
