
     RDKit          3D

 34 36  0  0  1  0  0  0  0  0999 V2000
   39.1310   22.5360   35.5020 N   0  0  0  0  0  0  0  0  0  0  0  0
   39.9820   22.1350   36.6120 C   0  0  0  0  0  0  0  0  0  0  0  0
   41.3600   21.9710   35.9350 C   0  0  0  0  0  0  0  0  0  0  0  0
   41.8450   23.2390   35.6780 O   0  0  0  0  0  0  0  0  0  0  0  0
   40.8780   24.1800   35.4570 C   0  0  0  0  0  0  0  0  0  0  0  0
   39.6680   23.6590   34.7400 C   0  0  2  0  0  0  0  0  0  0  0  0
   38.6930   24.7280   34.4650 C   0  0  0  0  0  0  0  0  0  0  0  0
   38.2610   25.5710   35.4810 C   0  0  0  0  0  0  0  0  0  0  0  0
   37.3590   26.5960   35.2620 C   0  0  0  0  0  0  0  0  0  0  0  0
   36.8650   26.7920   33.9770 C   0  0  0  0  0  0  0  0  0  0  0  0
   37.2690   25.9740   32.9340 C   0  0  0  0  0  0  0  0  0  0  0  0
   38.1820   24.9480   33.1920 C   0  0  0  0  0  0  0  0  0  0  0  0
   38.5890   24.1280   32.1550 O   0  0  0  0  0  0  0  0  0  0  0  0
   37.9090   21.9410   35.1440 C   0  0  0  0  0  0  0  0  0  0  0  0
   36.8770   21.6740   36.0450 C   0  0  0  0  0  0  0  0  0  0  0  0
   35.7290   21.0800   35.5380 C   0  0  0  0  0  0  0  0  0  0  0  0
   35.6550   20.7870   34.2110 N   0  0  0  0  0  0  0  0  0  0  0  0
   36.6660   21.0570   33.3640 C   0  0  0  0  0  0  0  0  0  0  0  0
   37.7820   21.6310   33.8420 N   0  0  0  0  0  0  0  0  0  0  0  0
   40.0116   22.9114   37.3907 H   0  0  0  0  0  0  0  0  0  0  0  0
   39.6345   21.2259   37.1246 H   0  0  0  0  0  0  0  0  0  0  0  0
   42.0472   21.4338   36.6053 H   0  0  0  0  0  0  0  0  0  0  0  0
   41.2700   21.3923   35.0039 H   0  0  0  0  0  0  0  0  0  0  0  0
   40.5571   24.5804   36.4300 H   0  0  0  0  0  0  0  0  0  0  0  0
   41.3250   24.9473   34.8079 H   0  0  0  0  0  0  0  0  0  0  0  0
   39.9419   23.2863   33.7420 H   0  0  0  0  0  0  0  0  0  0  0  0
   38.6511   25.4174   36.4980 H   0  0  0  0  0  0  0  0  0  0  0  0
   37.0378   27.2451   36.0900 H   0  0  0  0  0  0  0  0  0  0  0  0
   36.1472   27.6035   33.7868 H   0  0  0  0  0  0  0  0  0  0  0  0
   36.8769   26.1299   31.9182 H   0  0  0  0  0  0  0  0  0  0  0  0
   39.2354   23.3979   32.3258 H   0  0  0  0  0  0  0  0  0  0  0  0
   36.9693   21.9238   37.1123 H   0  0  0  0  0  0  0  0  0  0  0  0
   34.8851   20.8478   36.2043 H   0  0  0  0  0  0  0  0  0  0  0  0
   36.5792   20.8109   32.2954 H   0  0  0  0  0  0  0  0  0  0  0  0
  1  2  1  0
  3  2  1  0
  4  3  1  0
  5  4  1  0
  6  5  1  0
  6  1  1  0
  7  6  1  0
  7  8  2  0
  9  8  1  0
 10  9  2  0
 11 12  2  0
 11 10  1  0
 12  7  1  0
 13 12  1  0
 14  1  1  0
 14 15  2  0
 16 15  1  0
 17 16  2  0
 18 19  2  0
 18 17  1  0
 19 14  1  0
  2 20  1  0
  2 21  1  0
  3 22  1  0
  3 23  1  0
  5 24  1  0
  5 25  1  0
  6 26  1  6
  8 27  1  0
  9 28  1  0
 10 29  1  0
 11 30  1  0
 13 31  1  0
 15 32  1  0
 16 33  1  0
 18 34  1  0
M  ISO  8  20  13  21  13  22  13  23  13  24  13  25  13  26  13  27  14
M  ISO  7  28  14  29  14  30  14  31   3  32  14  33  14  34  14
M  END
>  <minimizedAffinity>  (1) 
-4.25993824

>  <minimizedRMSD>  (1) 
0.0554822423

$$$$
