
     RDKit          3D

 36 38  0  0  0  0  0  0  0  0999 V2000
   38.8210   23.3170   36.4590 C   0  0  0  0  0  0  0  0  0  0  0  0
   40.2290   22.8330   36.5750 C   0  0  0  0  0  0  0  0  0  0  0  0
   41.1690   23.6510   35.9370 C   0  0  0  0  0  0  0  0  0  0  0  0
   42.5220   23.2850   35.9840 C   0  0  0  0  0  0  0  0  0  0  0  0
   42.8400   22.1450   36.6540 N   0  0  0  0  0  0  0  0  0  0  0  0
   41.9010   21.3610   37.2700 C   0  0  0  0  0  0  0  0  0  0  0  0
   40.6260   21.7310   37.2110 N   0  0  0  0  0  0  0  0  0  0  0  0
   38.7540   24.7020   35.9010 C   0  0  0  0  0  0  0  0  0  0  0  0
   38.1710   23.3690   37.8530 C   0  0  0  0  0  0  0  0  0  0  0  0
   38.0430   22.3680   35.6260 C   0  0  0  0  0  0  0  0  0  0  0  0
   37.9770   22.6480   34.1960 C   0  0  0  0  0  0  0  0  0  0  0  0
   38.6650   23.5150   33.4350 N   0  0  0  0  0  0  0  0  0  0  0  0
   38.4690   23.6410   32.1110 C   0  0  0  0  0  0  0  0  0  0  0  0
   37.5630   22.9020   31.4430 N   0  0  0  0  0  0  0  0  0  0  0  0
   36.8460   22.0170   32.1570 C   0  0  0  0  0  0  0  0  0  0  0  0
   35.9300   21.2870   31.4170 C   0  0  0  0  0  0  0  0  0  0  0  0
   35.1530   20.3570   32.0760 C   0  0  0  0  0  0  0  0  0  0  0  0
   35.3090   20.1830   33.4340 C   0  0  0  0  0  0  0  0  0  0  0  0
   36.2380   20.9410   34.1150 C   0  0  0  0  0  0  0  0  0  0  0  0
   37.0450   21.8870   33.5160 C   0  0  0  0  0  0  0  0  0  0  0  0
   40.8526   24.5628   35.4093 H   0  0  0  0  0  0  0  0  0  0  0  0
   43.2963   23.8965   35.4976 H   0  0  0  0  0  0  0  0  0  0  0  0
   42.1959   20.4446   37.8022 H   0  0  0  0  0  0  0  0  0  0  0  0
   38.7189   25.4285   36.7262 H   0  0  0  0  0  0  0  0  0  0  0  0
   39.6440   24.8918   35.2831 H   0  0  0  0  0  0  0  0  0  0  0  0
   37.8498   24.8050   35.2831 H   0  0  0  0  0  0  0  0  0  0  0  0
   38.9525   23.3065   38.6245 H   0  0  0  0  0  0  0  0  0  0  0  0
   37.6196   24.3141   37.9654 H   0  0  0  0  0  0  0  0  0  0  0  0
   37.4763   22.5236   37.9654 H   0  0  0  0  0  0  0  0  0  0  0  0
   38.4923   21.3716   35.7494 H   0  0  0  0  0  0  0  0  0  0  0  0
   37.0065   22.4545   35.9839 H   0  0  0  0  0  0  0  0  0  0  0  0
   39.0703   24.3741   31.5533 H   0  0  0  0  0  0  0  0  0  0  0  0
   35.8252   21.4447   30.3334 H   0  0  0  0  0  0  0  0  0  0  0  0
   34.4146   19.7590   31.5218 H   0  0  0  0  0  0  0  0  0  0  0  0
   34.6964   19.4441   33.9714 H   0  0  0  0  0  0  0  0  0  0  0  0
   36.3420   20.7825   35.1986 H   0  0  0  0  0  0  0  0  0  0  0  0
  1  2  1  0
  1  9  1  0
  2  7  2  0
  3  4  2  0
  3  2  1  0
  4  5  1  0
  5  6  2  0
  7  6  1  0
  8  1  1  0
 10  1  1  0
 11 10  1  0
 12 11  2  0
 13 12  1  0
 14 13  2  0
 14 15  1  0
 15 20  2  0
 16 17  2  0
 16 15  1  0
 17 18  1  0
 18 19  2  0
 20 19  1  0
 20 11  1  0
  3 21  1  0
  4 22  1  0
  6 23  1  0
  8 24  1  0
  8 25  1  0
  8 26  1  0
  9 27  1  0
  9 28  1  0
  9 29  1  0
 10 30  1  0
 10 31  1  0
 13 32  1  0
 16 33  1  0
 17 34  1  0
 18 35  1  0
 19 36  1  0
M  ISO  8  21  14  22  14  23  14  24   8  25   8  26   8  27   8  28   8
M  ISO  8  29   8  30   8  31   8  32  14  33  14  34  14  35  14  36  14
M  END
>  <minimizedAffinity>  (1) 
-5.02026653

>  <minimizedRMSD>  (1) 
1.89401352

$$$$
