
     RDKit          3D

 22 22  0  0  0  0  0  0  0  0999 V2000
   39.5650   23.2290   36.9040 C   0  0  0  0  0  0  0  0  0  0  0  0
   40.1970   23.7430   35.7520 C   0  0  0  0  0  0  0  0  0  0  0  0
   41.4730   23.2380   35.4260 C   0  0  0  0  0  0  0  0  0  0  0  0
   42.0140   22.2860   36.2480 N   0  0  0  0  0  0  0  0  0  0  0  0
   41.3640   21.8220   37.3470 C   0  0  0  0  0  0  0  0  0  0  0  0
   40.1520   22.2930   37.6680 N   0  0  0  0  0  0  0  0  0  0  0  0
   38.2130   23.8270   37.1650 C   0  0  0  0  0  0  0  0  0  0  0  0
   38.0030   25.0760   36.3630 C   0  0  0  0  0  0  0  0  0  0  0  0
   38.0840   24.2140   38.6370 C   0  0  0  0  0  0  0  0  0  0  0  0
   37.1670   22.8080   36.8450 C   0  0  0  0  0  0  0  0  0  0  0  0
   39.7120   24.5101   35.1304 H   0  0  0  0  0  0  0  0  0  0  0  0
   42.0162   23.5975   34.5396 H   0  0  0  0  0  0  0  0  0  0  0  0
   41.8363   21.0543   37.9775 H   0  0  0  0  0  0  0  0  0  0  0  0
   37.8596   25.9286   37.0430 H   0  0  0  0  0  0  0  0  0  0  0  0
   38.8833   25.2568   35.7287 H   0  0  0  0  0  0  0  0  0  0  0  0
   37.1119   24.9590   35.7287 H   0  0  0  0  0  0  0  0  0  0  0  0
   38.3691   23.3588   39.2673 H   0  0  0  0  0  0  0  0  0  0  0  0
   38.7471   25.0650   38.8519 H   0  0  0  0  0  0  0  0  0  0  0  0
   37.0430   24.4969   38.8519 H   0  0  0  0  0  0  0  0  0  0  0  0
   36.7514   22.4032   37.7796 H   0  0  0  0  0  0  0  0  0  0  0  0
   36.3632   23.2789   36.2600 H   0  0  0  0  0  0  0  0  0  0  0  0
   37.6167   21.9922   36.2600 H   0  0  0  0  0  0  0  0  0  0  0  0
  1  7  1  0
  1  6  2  0
  2  1  1  0
  3  2  2  0
  3  4  1  0
  4  5  2  0
  5  6  1  0
  7  9  1  0
  8  7  1  0
 10  7  1  0
  2 11  1  0
  3 12  1  0
  5 13  1  0
  8 14  1  0
  8 15  1  0
  8 16  1  0
  9 17  1  0
  9 18  1  0
  9 19  1  0
 10 20  1  0
 10 21  1  0
 10 22  1  0
M  ISO  8  11  14  12  14  13  14  14   8  15   8  16   8  17   8  18   8
M  ISO  4  19   8  20   8  21   8  22   8
M  END
>  <minimizedAffinity>  (1) 
-3.25329876

>  <minimizedRMSD>  (1) 
3.81813288

$$$$
