
     RDKit          3D

 29 30  0  0  0  0  0  0  0  0999 V2000
   38.1300   23.6600   37.1970 C   0  0  0  0  0  0  0  0  0  0  0  0
   39.5230   23.2100   36.9000 C   0  0  0  0  0  0  0  0  0  0  0  0
   40.1220   23.8960   35.8250 C   0  0  0  0  0  0  0  0  0  0  0  0
   41.4440   23.5230   35.4850 C   0  0  0  0  0  0  0  0  0  0  0  0
   42.0460   22.5260   36.2210 N   0  0  0  0  0  0  0  0  0  0  0  0
   41.4190   21.9060   37.2420 C   0  0  0  0  0  0  0  0  0  0  0  0
   40.1720   22.2540   37.5660 N   0  0  0  0  0  0  0  0  0  0  0  0
   37.6240   24.6030   36.1350 C   0  0  0  0  0  0  0  0  0  0  0  0
   38.0840   24.4130   38.5160 C   0  0  0  0  0  0  0  0  0  0  0  0
   37.2290   22.4760   37.3130 C   0  0  0  0  0  0  0  0  0  0  0  0
   36.8640   21.8820   36.0100 C   0  0  0  0  0  0  0  0  0  0  0  0
   35.7770   21.0460   35.8500 C   0  0  0  0  0  0  0  0  0  0  0  0
   35.7690   20.7060   34.5130 C   0  0  0  0  0  0  0  0  0  0  0  0
   36.8420   21.3410   33.9230 C   0  0  0  0  0  0  0  0  0  0  0  0
   37.4810   22.0410   34.8540 O   0  0  0  0  0  0  0  0  0  0  0  0
   39.5870   24.6847   35.2757 H   0  0  0  0  0  0  0  0  0  0  0  0
   41.9756   24.0148   34.6570 H   0  0  0  0  0  0  0  0  0  0  0  0
   41.9346   21.1151   37.8064 H   0  0  0  0  0  0  0  0  0  0  0  0
   37.1555   25.4760   36.6129 H   0  0  0  0  0  0  0  0  0  0  0  0
   38.4651   24.9351   35.5087 H   0  0  0  0  0  0  0  0  0  0  0  0
   36.8822   24.0858   35.5087 H   0  0  0  0  0  0  0  0  0  0  0  0
   38.1278   23.6961   39.3492 H   0  0  0  0  0  0  0  0  0  0  0  0
   38.9419   25.0988   38.5768 H   0  0  0  0  0  0  0  0  0  0  0  0
   37.1490   24.9892   38.5768 H   0  0  0  0  0  0  0  0  0  0  0  0
   37.7382   21.7088   37.9148 H   0  0  0  0  0  0  0  0  0  0  0  0
   36.2968   22.8240   37.7820 H   0  0  0  0  0  0  0  0  0  0  0  0
   35.0674   20.7200   36.6247 H   0  0  0  0  0  0  0  0  0  0  0  0
   35.0422   20.0505   34.0109 H   0  0  0  0  0  0  0  0  0  0  0  0
   37.1214   21.2784   32.8609 H   0  0  0  0  0  0  0  0  0  0  0  0
  1 10  1  0
  1  9  1  0
  2  1  1  0
  2  7  1  0
  3  2  2  0
  4  3  1  0
  4  5  2  0
  5  6  1  0
  6  7  2  0
  8  1  1  0
 11 10  1  0
 12 11  2  0
 13 12  1  0
 14 13  2  0
 14 15  1  0
 15 11  1  0
  3 16  1  0
  4 17  1  0
  6 18  1  0
  8 19  1  0
  8 20  1  0
  8 21  1  0
  9 22  1  0
  9 23  1  0
  9 24  1  0
 10 25  1  0
 10 26  1  0
 12 27  1  0
 13 28  1  0
 14 29  1  0
M  ISO  8  16  14  17  14  18  14  19   8  20   8  21   8  22   8  23   8
M  ISO  6  24   8  25   8  26   8  27  14  28  14  29  14
M  END
>  <minimizedAffinity>  (1) 
-3.96556067

>  <minimizedRMSD>  (1) 
0.726848423

$$$$
