
     RDKit          3D

 33 35  0  0  0  0  0  0  0  0999 V2000
   38.6230   23.2610   36.6630 C   0  0  0  0  0  0  0  0  0  0  0  0
   38.9890   24.5660   36.0250 C   0  0  0  0  0  0  0  0  0  0  0  0
   38.2140   25.6550   36.4340 C   0  0  0  0  0  0  0  0  0  0  0  0
   38.4980   26.9210   35.8740 C   0  0  0  0  0  0  0  0  0  0  0  0
   39.5200   26.9960   34.9650 N   0  0  0  0  0  0  0  0  0  0  0  0
   40.2500   25.9170   34.5930 C   0  0  0  0  0  0  0  0  0  0  0  0
   39.9790   24.7250   35.1220 N   0  0  0  0  0  0  0  0  0  0  0  0
   37.1930   23.2680   37.1060 C   0  0  0  0  0  0  0  0  0  0  0  0
   39.4660   23.0200   37.9050 C   0  0  0  0  0  0  0  0  0  0  0  0
   38.8840   22.1610   35.6770 C   0  0  0  0  0  0  0  0  0  0  0  0
   37.7140   21.8360   34.9100 N   0  0  0  0  0  0  0  0  0  0  0  0
   36.7300   21.0310   35.3890 C   0  0  0  0  0  0  0  0  0  0  0  0
   35.7390   20.8770   34.4830 N   0  0  0  0  0  0  0  0  0  0  0  0
   36.0750   21.5850   33.4000 C   0  0  0  0  0  0  0  0  0  0  0  0
   35.4880   21.8220   32.1680 C   0  0  0  0  0  0  0  0  0  0  0  0
   36.0990   22.6080   31.2610 N   0  0  0  0  0  0  0  0  0  0  0  0
   37.3020   23.1580   31.5940 C   0  0  0  0  0  0  0  0  0  0  0  0
   37.9210   22.9650   32.7750 N   0  0  0  0  0  0  0  0  0  0  0  0
   37.2910   22.1690   33.6770 C   0  0  0  0  0  0  0  0  0  0  0  0
   37.4065   25.5302   37.1704 H   0  0  0  0  0  0  0  0  0  0  0  0
   37.9200   27.8129   36.1575 H   0  0  0  0  0  0  0  0  0  0  0  0
   41.0617   26.0247   33.8585 H   0  0  0  0  0  0  0  0  0  0  0  0
   37.1496   23.2682   38.2051 H   0  0  0  0  0  0  0  0  0  0  0  0
   36.6937   24.1686   36.7192 H   0  0  0  0  0  0  0  0  0  0  0  0
   36.6849   22.3723   36.7192 H   0  0  0  0  0  0  0  0  0  0  0  0
   38.8547   23.1948   38.8026 H   0  0  0  0  0  0  0  0  0  0  0  0
   39.8297   21.9819   37.9055 H   0  0  0  0  0  0  0  0  0  0  0  0
   40.3235   23.7090   37.9055 H   0  0  0  0  0  0  0  0  0  0  0  0
   39.6810   22.4818   34.9900 H   0  0  0  0  0  0  0  0  0  0  0  0
   39.1807   21.2638   36.2401 H   0  0  0  0  0  0  0  0  0  0  0  0
   36.7387   20.5649   36.3853 H   0  0  0  0  0  0  0  0  0  0  0  0
   34.5163   21.3652   31.9288 H   0  0  0  0  0  0  0  0  0  0  0  0
   37.7982   23.7998   30.8512 H   0  0  0  0  0  0  0  0  0  0  0  0
  1  8  1  0
  1  9  1  0
  2  3  2  0
  2  1  1  0
  4  3  1  0
  5  4  2  0
  6  5  1  0
  6  7  2  0
  7  2  1  0
 10  1  1  0
 11 12  1  0
 11 10  1  0
 13 12  2  0
 14 19  2  0
 14 13  1  0
 15 14  1  0
 16 17  1  0
 16 15  2  0
 17 18  2  0
 18 19  1  0
 19 11  1  0
  3 20  1  0
  4 21  1  0
  6 22  1  0
  8 23  1  0
  8 24  1  0
  8 25  1  0
  9 26  1  0
  9 27  1  0
  9 28  1  0
 10 29  1  0
 10 30  1  0
 12 31  1  0
 15 32  1  0
 17 33  1  0
M  ISO  8  20  14  21  14  22  14  23   8  24   8  25   8  26   8  27   8
M  ISO  6  28   8  29   8  30   8  31  14  32  14  33  14
M  END
>  <minimizedAffinity>  (1) 
-4.41742611

>  <minimizedRMSD>  (1) 
2.92965746

$$$$
