
     RDKit          3D

 31 32  0  0  0  0  0  0  0  0999 V2000
   38.6310   26.3340   35.1230 C   0  0  0  0  0  0  0  0  0  0  0  0
   39.0410   25.0240   35.7040 C   0  0  0  0  0  0  0  0  0  0  0  0
   38.1000   24.4940   36.6280 C   0  0  0  0  0  0  0  0  0  0  0  0
   38.3930   23.2650   37.2320 C   0  0  0  0  0  0  0  0  0  0  0  0
   39.5780   22.6460   36.8900 N   0  0  0  0  0  0  0  0  0  0  0  0
   40.4380   23.1930   36.0050 C   0  0  0  0  0  0  0  0  0  0  0  0
   40.1730   24.3720   35.4160 N   0  0  0  0  0  0  0  0  0  0  0  0
   39.7050   26.9270   34.2550 C   0  0  0  0  0  0  0  0  0  0  0  0
   38.3170   27.3290   36.2270 C   0  0  0  0  0  0  0  0  0  0  0  0
   37.3900   26.1160   34.3010 C   0  0  0  0  0  0  0  0  0  0  0  0
   36.9370   27.3810   33.6530 C   0  0  0  0  0  0  0  0  0  0  0  0
   37.2150   27.7920   32.3670 C   0  0  0  0  0  0  0  0  0  0  0  0
   36.7090   28.9940   31.9450 C   0  0  0  0  0  0  0  0  0  0  0  0
   35.9440   29.8000   32.7430 C   0  0  0  0  0  0  0  0  0  0  0  0
   35.7070   29.3240   34.0260 C   0  0  0  0  0  0  0  0  0  0  0  0
   36.1820   28.1550   34.4740 N   0  0  0  0  0  0  0  0  0  0  0  0
   37.1699   25.0328   36.8616 H   0  0  0  0  0  0  0  0  0  0  0  0
   37.7014   22.8081   37.9552 H   0  0  0  0  0  0  0  0  0  0  0  0
   41.3717   22.6649   35.7616 H   0  0  0  0  0  0  0  0  0  0  0  0
   40.4914   27.3612   34.8898 H   0  0  0  0  0  0  0  0  0  0  0  0
   40.1390   26.1407   33.6199 H   0  0  0  0  0  0  0  0  0  0  0  0
   39.2707   27.7132   33.6199 H   0  0  0  0  0  0  0  0  0  0  0  0
   38.4680   26.8504   37.2058 H   0  0  0  0  0  0  0  0  0  0  0  0
   38.9843   28.1989   36.1373 H   0  0  0  0  0  0  0  0  0  0  0  0
   37.2713   27.6583   36.1373 H   0  0  0  0  0  0  0  0  0  0  0  0
   37.6040   25.3709   33.5206 H   0  0  0  0  0  0  0  0  0  0  0  0
   36.5901   25.7634   34.9687 H   0  0  0  0  0  0  0  0  0  0  0  0
   37.8273   27.1712   31.6964 H   0  0  0  0  0  0  0  0  0  0  0  0
   36.9278   29.3253   30.9191 H   0  0  0  0  0  0  0  0  0  0  0  0
   35.5429   30.7620   32.3915 H   0  0  0  0  0  0  0  0  0  0  0  0
   35.0993   29.9374   34.7075 H   0  0  0  0  0  0  0  0  0  0  0  0
  1  2  1  0
  1  9  1  0
  2  3  2  0
  3  4  1  0
  5  4  2  0
  6  5  1  0
  7  2  1  0
  7  6  2  0
  8  1  1  0
 10  1  1  0
 11 10  1  0
 11 16  1  0
 12 11  2  0
 13 12  1  0
 13 14  2  0
 14 15  1  0
 15 16  2  0
  3 17  1  0
  4 18  1  0
  6 19  1  0
  8 20  1  0
  8 21  1  0
  8 22  1  0
  9 23  1  0
  9 24  1  0
  9 25  1  0
 10 26  1  0
 10 27  1  0
 12 28  1  0
 13 29  1  0
 14 30  1  0
 15 31  1  0
M  ISO  8  17  14  18  14  19  14  20   8  21   8  22   8  23   8  24   8
M  ISO  7  25   8  26   8  27   8  28  14  29  14  30  14  31  14
M  END
>  <minimizedAffinity>  (1) 
-4.4355197

>  <minimizedRMSD>  (1) 
4.88873386

$$$$
