
     RDKit          3D

 53 56  0  0  1  0  0  0  0  0999 V2000
   36.2600   29.4290   32.3680 C   0  0  0  0  0  0  0  0  0  0  0  0
   37.0140   28.4400   31.7860 C   0  0  0  0  0  0  0  0  0  0  0  0
   37.3300   27.3300   32.5660 C   0  0  0  0  0  0  0  0  0  0  0  0
   36.9020   27.2380   33.8650 C   0  0  0  0  0  0  0  0  0  0  0  0
   36.1500   28.2220   34.4470 C   0  0  0  0  0  0  0  0  0  0  0  0
   35.8240   29.3290   33.6980 C   0  0  0  0  0  0  0  0  0  0  0  0
   37.3490   25.9790   34.5140 C   0  0  0  0  0  0  0  0  0  0  0  0
   38.7700   25.9960   34.9470 C   0  0  2  0  0  0  0  0  0  0  0  0
   40.7100   23.1350   36.1550 C   0  0  0  0  0  0  0  0  0  0  0  0
   39.9140   22.6210   37.2200 C   0  0  0  0  0  0  0  0  0  0  0  0
   38.6990   23.2760   37.5150 C   0  0  0  0  0  0  0  0  0  0  0  0
   38.3780   24.3640   36.7450 N   0  0  0  0  0  0  0  0  0  0  0  0
   39.1630   24.8190   35.7410 C   0  0  0  0  0  0  0  0  0  0  0  0
   40.3250   24.2160   35.4390 N   0  0  0  0  0  0  0  0  0  0  0  0
   38.9910   27.2470   35.8190 C   0  0  0  0  0  0  0  0  0  0  0  0
   35.8380   30.8450   31.4230 S   0  0  0  0  0  0  0  0  0  0  0  0
   36.2900   30.5690   29.9900 O   0  0  0  0  0  0  0  0  0  0  0  0
   36.5270   32.0580   31.9110 O   0  0  0  0  0  0  0  0  0  0  0  0
   34.1140   31.1000   31.4360 C   0  0  0  0  0  0  0  0  0  0  0  0
   33.0680   30.4490   31.9760 N   0  0  0  0  0  0  0  0  0  0  0  0
   31.9510   31.0590   31.6910 O   0  0  0  0  0  0  0  0  0  0  0  0
   32.2220   32.1220   30.9590 C   0  0  0  0  0  0  0  0  0  0  0  0
   33.5310   32.1400   30.8090 N   0  0  0  0  0  0  0  0  0  0  0  0
   31.2740   33.1200   30.3990 C   0  0  0  0  0  0  0  0  0  0  0  0
   31.3180   33.1660   28.8920 C   0  0  0  0  0  0  0  0  0  0  0  0
   30.7430   31.9230   28.2640 C   0  0  0  0  0  0  0  0  0  0  0  0
   29.3220   31.7760   28.7050 C   0  0  0  0  0  0  0  0  0  0  0  0
   29.1390   31.7930   30.1890 C   0  0  0  0  0  0  0  0  0  0  0  0
   29.8690   32.8830   30.8990 C   0  0  0  0  0  0  0  0  0  0  0  0
   37.3555   28.5212   30.7435 H   0  0  0  0  0  0  0  0  0  0  0  0
   37.9310   26.5164   32.1338 H   0  0  0  0  0  0  0  0  0  0  0  0
   35.8137   28.1300   35.4903 H   0  0  0  0  0  0  0  0  0  0  0  0
   35.2217   30.1355   34.1416 H   0  0  0  0  0  0  0  0  0  0  0  0
   36.7195   25.8031   35.3988 H   0  0  0  0  0  0  0  0  0  0  0  0
   37.2540   25.1814   33.7624 H   0  0  0  0  0  0  0  0  0  0  0  0
   39.3833   25.9943   34.0338 H   0  0  0  0  0  0  0  0  0  0  0  0
   41.6612   22.6401   35.9093 H   0  0  0  0  0  0  0  0  0  0  0  0
   40.2369   21.7404   37.7946 H   0  0  0  0  0  0  0  0  0  0  0  0
   38.0403   22.9296   38.3250 H   0  0  0  0  0  0  0  0  0  0  0  0
   38.9415   26.9667   36.8815 H   0  0  0  0  0  0  0  0  0  0  0  0
   39.9791   27.6774   35.5990 H   0  0  0  0  0  0  0  0  0  0  0  0
   38.2102   27.9899   35.5990 H   0  0  0  0  0  0  0  0  0  0  0  0
   31.5997   34.1070   30.7591 H   0  0  0  0  0  0  0  0  0  0  0  0
   30.7396   34.0360   28.5478 H   0  0  0  0  0  0  0  0  0  0  0  0
   32.3728   33.2387   28.5886 H   0  0  0  0  0  0  0  0  0  0  0  0
   31.3226   31.0446   28.5841 H   0  0  0  0  0  0  0  0  0  0  0  0
   30.7888   32.0016   27.1678 H   0  0  0  0  0  0  0  0  0  0  0  0
   28.7394   32.6043   28.2755 H   0  0  0  0  0  0  0  0  0  0  0  0
   28.9811   30.7907   28.3544 H   0  0  0  0  0  0  0  0  0  0  0  0
   28.0654   31.9071   30.3997 H   0  0  0  0  0  0  0  0  0  0  0  0
   29.5577   30.8469   30.5625 H   0  0  0  0  0  0  0  0  0  0  0  0
   29.9228   32.6228   31.9664 H   0  0  0  0  0  0  0  0  0  0  0  0
   29.3081   33.8106   30.7121 H   0  0  0  0  0  0  0  0  0  0  0  0
  1  6  1  0
  2  1  2  0
  2  3  1  0
  3  4  2  0
  4  5  1  0
  4  7  1  0
  6  5  2  0
  7  8  1  0
  8 13  1  0
  8 15  1  0
  9 10  2  0
 10 11  1  0
 12 11  2  0
 13 12  1  0
 14 13  2  0
 14  9  1  0
 16 19  1  0
 16 18  2  0
 16  1  1  0
 17 16  2  0
 19 20  2  0
 21 20  1  0
 22 21  1  0
 23 22  2  0
 23 19  1  0
 24 29  1  0
 24 22  1  0
 25 24  1  0
 26 27  1  0
 26 25  1  0
 27 28  1  0
 28 29  1  0
  2 30  1  0
  3 31  1  0
  5 32  1  0
  6 33  1  0
  7 34  1  0
  7 35  1  0
  8 36  1  6
  9 37  1  0
 10 38  1  0
 11 39  1  0
 15 40  1  0
 15 41  1  0
 15 42  1  0
 24 43  1  0
 25 44  1  0
 25 45  1  0
 26 46  1  0
 26 47  1  0
 27 48  1  0
 27 49  1  0
 28 50  1  0
 28 51  1  0
 29 52  1  0
 29 53  1  0
M  ISO  8  30  14  31  14  32  14  33  14  34   8  35   8  36   8  37  14
M  ISO  8  38  14  39  14  40   8  41   8  42   8  43  13  44  13  45  13
M  ISO  8  46  13  47  13  48  13  49  13  50  13  51  13  52  13  53  13
M  END
>  <minimizedAffinity>  (1) 
-5.59857035

>  <minimizedRMSD>  (1) 
0.614503741

$$$$
