
     RDKit          3D

 46 49  0  0  0  0  0  0  0  0999 V2000
   37.5200   21.7180   34.9410 C   0  0  0  0  0  0  0  0  0  0  0  0
   36.5780   21.0260   35.7410 C   0  0  0  0  0  0  0  0  0  0  0  0
   35.5150   20.6040   35.0230 N   0  0  0  0  0  0  0  0  0  0  0  0
   35.6920   20.9830   33.7400 C   0  0  0  0  0  0  0  0  0  0  0  0
   34.9690   20.8440   32.5950 C   0  0  0  0  0  0  0  0  0  0  0  0
   35.3690   21.3320   31.3550 C   0  0  0  0  0  0  0  0  0  0  0  0
   36.6020   21.9860   31.3830 C   0  0  0  0  0  0  0  0  0  0  0  0
   37.3440   22.1330   32.5310 C   0  0  0  0  0  0  0  0  0  0  0  0
   36.9130   21.6490   33.7210 C   0  0  0  0  0  0  0  0  0  0  0  0
   38.5890   22.7130   32.0840 C   0  0  0  0  0  0  0  0  0  0  0  0
   39.7370   21.9050   31.9420 C   0  0  0  0  0  0  0  0  0  0  0  0
   41.0220   22.3090   31.6470 C   0  0  0  0  0  0  0  0  0  0  0  0
   41.1570   23.6700   31.4760 C   0  0  0  0  0  0  0  0  0  0  0  0
   40.1450   24.5740   31.5790 C   0  0  0  0  0  0  0  0  0  0  0  0
   38.9310   24.0450   31.8750 C   0  0  0  0  0  0  0  0  0  0  0  0
   38.7300   22.3240   35.4630 C   0  0  0  0  0  0  0  0  0  0  0  0
   38.5590   23.3720   36.5240 C   0  0  0  0  0  0  0  0  0  0  0  0
   39.0400   24.6810   35.9610 C   0  0  0  0  0  0  0  0  0  0  0  0
   38.2110   25.7710   36.2290 C   0  0  0  0  0  0  0  0  0  0  0  0
   38.5620   27.0330   35.7410 C   0  0  0  0  0  0  0  0  0  0  0  0
   39.7160   27.1260   35.0190 N   0  0  0  0  0  0  0  0  0  0  0  0
   40.4890   26.0530   34.7830 C   0  0  0  0  0  0  0  0  0  0  0  0
   40.1530   24.8570   35.2460 N   0  0  0  0  0  0  0  0  0  0  0  0
   37.2000   23.4770   37.0690 C   0  0  0  0  0  0  0  0  0  0  0  0
   39.4610   22.9840   37.7210 C   0  0  0  0  0  0  0  0  0  0  0  0
   36.6982   20.8527   36.8206 H   0  0  0  0  0  0  0  0  0  0  0  0
   34.7072   20.0821   35.3916 H   0  0  0  0  0  0  0  0  0  0  0  0
   34.0078   20.3123   32.6539 H   0  0  0  0  0  0  0  0  0  0  0  0
   34.7706   21.2137   30.4396 H   0  0  0  0  0  0  0  0  0  0  0  0
   36.9975   22.4023   30.4447 H   0  0  0  0  0  0  0  0  0  0  0  0
   39.5893   20.8242   32.0835 H   0  0  0  0  0  0  0  0  0  0  0  0
   41.8644   21.6075   31.5562 H   0  0  0  0  0  0  0  0  0  0  0  0
   42.1596   24.0550   31.2380 H   0  0  0  0  0  0  0  0  0  0  0  0
   40.2996   25.6533   31.4332 H   0  0  0  0  0  0  0  0  0  0  0  0
   38.1057   24.7671   31.9614 H   0  0  0  0  0  0  0  0  0  0  0  0
   39.3490   21.5194   35.8867 H   0  0  0  0  0  0  0  0  0  0  0  0
   39.1799   22.8505   34.6084 H   0  0  0  0  0  0  0  0  0  0  0  0
   37.2914   25.6386   36.8178 H   0  0  0  0  0  0  0  0  0  0  0  0
   37.9333   27.9154   35.9313 H   0  0  0  0  0  0  0  0  0  0  0  0
   41.4132   26.1682   34.1977 H   0  0  0  0  0  0  0  0  0  0  0  0
   37.2444   23.4736   38.1681 H   0  0  0  0  0  0  0  0  0  0  0  0
   36.7378   24.4135   36.7236 H   0  0  0  0  0  0  0  0  0  0  0  0
   36.5994   22.6226   36.7236 H   0  0  0  0  0  0  0  0  0  0  0  0
   38.9380   23.2090   38.6622 H   0  0  0  0  0  0  0  0  0  0  0  0
   39.6880   21.9086   37.6756 H   0  0  0  0  0  0  0  0  0  0  0  0
   40.3978   23.5587   37.6756 H   0  0  0  0  0  0  0  0  0  0  0  0
  1 16  1  0
  1  2  2  0
  3  2  1  0
  4  3  1  0
  5  4  2  0
  6  7  2  0
  6  5  1  0
  7  8  1  0
  8  9  2  0
  9  4  1  0
  9  1  1  0
 10  8  1  0
 11 10  2  0
 12 11  1  0
 13 14  1  0
 13 12  2  0
 14 15  2  0
 15 10  1  0
 16 17  1  0
 17 24  1  0
 17 25  1  0
 18 19  2  0
 18 17  1  0
 20 19  1  0
 21 20  2  0
 22 21  1  0
 22 23  2  0
 23 18  1  0
  2 26  1  0
  3 27  1  0
  5 28  1  0
  6 29  1  0
  7 30  1  0
 11 31  1  0
 12 32  1  0
 13 33  1  0
 14 34  1  0
 15 35  1  0
 16 36  1  0
 16 37  1  0
 19 38  1  0
 20 39  1  0
 22 40  1  0
 24 41  1  0
 24 42  1  0
 24 43  1  0
 25 44  1  0
 25 45  1  0
 25 46  1  0
M  ISO  8  26  14  27   9  28  14  29  14  30  14  31  14  32  14  33  14
M  ISO  8  34  14  35  14  36   8  37   8  38  14  39  14  40  14  41   8
M  ISO  5  42   8  43   8  44   8  45   8  46   8
M  END
>  <minimizedAffinity>  (1) 
-5.47521019

>  <minimizedRMSD>  (1) 
0.462185919

$$$$
