
     RDKit          3D

 51 54  0  0  1  0  0  0  0  0999 V2000
   38.6880   23.3360   36.0070 C   0  0  1  0  0  0  0  0  0  0  0  0
   38.9200   24.7890   35.6980 C   0  0  0  0  0  0  0  0  0  0  0  0
   38.0780   25.6760   36.4060 C   0  0  0  0  0  0  0  0  0  0  0  0
   38.2360   27.0260   36.1430 C   0  0  0  0  0  0  0  0  0  0  0  0
   39.1700   27.4440   35.2410 N   0  0  0  0  0  0  0  0  0  0  0  0
   39.9460   26.5740   34.5940 C   0  0  0  0  0  0  0  0  0  0  0  0
   39.8000   25.2920   34.8370 N   0  0  0  0  0  0  0  0  0  0  0  0
   37.5690   23.1070   36.8650 C   0  0  0  0  0  0  0  0  0  0  0  0
   38.5710   22.5800   34.6730 C   0  0  0  0  0  0  0  0  0  0  0  0
   37.4230   21.8060   34.4570 C   0  0  0  0  0  0  0  0  0  0  0  0
   36.6960   21.2260   35.5440 C   0  0  0  0  0  0  0  0  0  0  0  0
   35.6200   20.5560   35.1330 N   0  0  0  0  0  0  0  0  0  0  0  0
   35.5540   20.6300   33.7850 C   0  0  0  0  0  0  0  0  0  0  0  0
   34.7030   20.1250   32.8410 C   0  0  0  0  0  0  0  0  0  0  0  0
   34.8910   20.3310   31.4910 C   0  0  0  0  0  0  0  0  0  0  0  0
   35.9910   21.0810   31.1490 C   0  0  0  0  0  0  0  0  0  0  0  0
   36.8180   21.5730   32.0790 C   0  0  0  0  0  0  0  0  0  0  0  0
   36.6400   21.3770   33.4150 C   0  0  0  0  0  0  0  0  0  0  0  0
   37.9320   22.3060   31.4160 C   0  0  0  0  0  0  0  0  0  0  0  0
   38.3090   23.4730   31.9040 F   0  0  0  0  0  0  0  0  0  0  0  0
   38.1090   21.9090   30.1300 F   0  0  0  0  0  0  0  0  0  0  0  0
   39.1960   21.6710   31.7950 F   0  0  0  0  0  0  0  0  0  0  0  0
   39.9610   22.8320   36.6830 C   0  0  0  0  0  0  0  0  0  0  0  0
   40.7620   21.8920   36.0030 N   0  0  0  0  0  0  0  0  0  0  0  0
   41.7860   22.5220   35.1690 C   0  0  0  0  0  0  0  0  0  0  0  0
   42.9080   22.9570   36.0750 C   0  0  0  0  0  0  0  0  0  0  0  0
   42.9800   21.7540   36.9740 C   0  0  0  0  0  0  0  0  0  0  0  0
   41.5710   21.2220   37.0550 C   0  0  0  0  0  0  0  0  0  0  0  0
   37.3341   25.3119   37.1300 H   0  0  0  0  0  0  0  0  0  0  0  0
   37.6067   27.7635   36.6628 H   0  0  0  0  0  0  0  0  0  0  0  0
   40.6956   26.9242   33.8691 H   0  0  0  0  0  0  0  0  0  0  0  0
   37.8920   23.1731   37.9144 H   0  0  0  0  0  0  0  0  0  0  0  0
   36.7966   23.8657   36.6706 H   0  0  0  0  0  0  0  0  0  0  0  0
   37.1567   22.1059   36.6706 H   0  0  0  0  0  0  0  0  0  0  0  0
   38.6185   23.3276   33.8675 H   0  0  0  0  0  0  0  0  0  0  0  0
   39.3949   21.8515   34.6953 H   0  0  0  0  0  0  0  0  0  0  0  0
   36.9916   21.3222   36.5992 H   0  0  0  0  0  0  0  0  0  0  0  0
   34.9502   20.0637   35.7412 H   0  0  0  0  0  0  0  0  0  0  0  0
   33.8368   19.5328   33.1711 H   0  0  0  0  0  0  0  0  0  0  0  0
   34.2044   19.9213   30.7355 H   0  0  0  0  0  0  0  0  0  0  0  0
   36.1961   21.2813   30.0870 H   0  0  0  0  0  0  0  0  0  0  0  0
   40.5917   23.7110   36.8820 H   0  0  0  0  0  0  0  0  0  0  0  0
   39.5964   22.2842   37.5645 H   0  0  0  0  0  0  0  0  0  0  0  0
   42.1609   21.8015   34.4272 H   0  0  0  0  0  0  0  0  0  0  0  0
   41.3679   23.3852   34.6305 H   0  0  0  0  0  0  0  0  0  0  0  0
   43.8458   23.1126   35.5215 H   0  0  0  0  0  0  0  0  0  0  0  0
   42.7504   23.9170   36.5884 H   0  0  0  0  0  0  0  0  0  0  0  0
   43.6527   20.9955   36.5471 H   0  0  0  0  0  0  0  0  0  0  0  0
   43.3749   22.0120   37.9677 H   0  0  0  0  0  0  0  0  0  0  0  0
   41.1469   21.4396   38.0464 H   0  0  0  0  0  0  0  0  0  0  0  0
   41.5661   20.1326   36.9028 H   0  0  0  0  0  0  0  0  0  0  0  0
  1  9  1  6
  1 23  1  0
  1  8  1  0
  2  1  1  0
  2  3  2  0
  4  3  1  0
  5  4  2  0
  6  7  2  0
  6  5  1  0
  7  2  1  0
 10  9  1  0
 10 11  2  0
 12 11  1  0
 13 12  1  0
 14 13  2  0
 15 14  1  0
 16 15  2  0
 16 17  1  0
 17 18  2  0
 18 13  1  0
 18 10  1  0
 19 22  1  0
 19 20  1  0
 19 17  1  0
 21 19  1  0
 24 23  1  0
 24 28  1  0
 25 24  1  0
 25 26  1  0
 26 27  1  0
 27 28  1  0
  3 29  1  0
  4 30  1  0
  6 31  1  0
  8 32  1  0
  8 33  1  0
  8 34  1  0
  9 35  1  0
  9 36  1  0
 11 37  1  0
 12 38  1  0
 14 39  1  0
 15 40  1  0
 16 41  1  0
 23 42  1  0
 23 43  1  0
 25 44  1  0
 25 45  1  0
 26 46  1  0
 26 47  1  0
 27 48  1  0
 27 49  1  0
 28 50  1  0
 28 51  1  0
M  ISO  8  29  14  30  14  31  14  32   8  33   8  34   8  35   8  36   8
M  ISO  8  37  14  38   9  39  14  40  14  41  14  42   8  43   8  44  13
M  ISO  7  45  13  46  13  47  13  48  13  49  13  50  13  51  13
M  END
>  <minimizedAffinity>  (1) 
-5.49265099

>  <minimizedRMSD>  (1) 
1.45519626

$$$$
