
     RDKit          3D

 46 49  0  0  1  0  0  0  0  0999 V2000
   38.7510   22.3360   35.1080 C   0  0  0  0  0  0  0  0  0  0  0  0
   37.5490   21.7530   34.6690 C   0  0  0  0  0  0  0  0  0  0  0  0
   36.6600   21.0850   35.5710 C   0  0  0  0  0  0  0  0  0  0  0  0
   35.5690   20.6210   34.9530 N   0  0  0  0  0  0  0  0  0  0  0  0
   35.6500   20.9310   33.6460 C   0  0  0  0  0  0  0  0  0  0  0  0
   34.8420   20.7090   32.5640 C   0  0  0  0  0  0  0  0  0  0  0  0
   35.1900   21.1470   31.2970 C   0  0  0  0  0  0  0  0  0  0  0  0
   36.3690   21.8030   31.1820 C   0  0  0  0  0  0  0  0  0  0  0  0
   37.1600   22.0210   32.2430 C   0  0  0  0  0  0  0  0  0  0  0  0
   36.8370   21.6020   33.5040 C   0  0  0  0  0  0  0  0  0  0  0  0
   38.3920   22.7430   31.8280 C   0  0  0  0  0  0  0  0  0  0  0  0
   38.8360   23.7450   32.5650 F   0  0  0  0  0  0  0  0  0  0  0  0
   38.6500   22.5910   30.5060 F   0  0  0  0  0  0  0  0  0  0  0  0
   39.5480   21.9070   32.1560 F   0  0  0  0  0  0  0  0  0  0  0  0
   38.6450   23.2460   36.3470 C   0  0  1  0  0  0  0  0  0  0  0  0
   38.9800   24.6470   35.9080 C   0  0  0  0  0  0  0  0  0  0  0  0
   38.0870   25.6180   36.3480 C   0  0  0  0  0  0  0  0  0  0  0  0
   38.3280   26.9470   35.9930 C   0  0  0  0  0  0  0  0  0  0  0  0
   39.4320   27.2230   35.2290 N   0  0  0  0  0  0  0  0  0  0  0  0
   40.2640   26.2640   34.8240 C   0  0  0  0  0  0  0  0  0  0  0  0
   40.0150   25.0290   35.1720 N   0  0  0  0  0  0  0  0  0  0  0  0
   37.4080   23.1470   37.0690 C   0  0  0  0  0  0  0  0  0  0  0  0
   39.7830   22.8080   37.2980 C   0  0  0  0  0  0  0  0  0  0  0  0
   40.8000   21.9250   36.6800 C   0  0  0  0  0  0  0  0  0  0  0  0
   41.7590   21.2990   37.6880 C   0  0  0  0  0  0  0  0  0  0  0  0
   42.2470   22.2790   36.6980 C   0  0  0  0  0  0  0  0  0  0  0  0
   39.4526   21.5229   35.3461 H   0  0  0  0  0  0  0  0  0  0  0  0
   39.0822   22.9888   34.2869 H   0  0  0  0  0  0  0  0  0  0  0  0
   36.8524   20.9672   36.6476 H   0  0  0  0  0  0  0  0  0  0  0  0
   34.7952   20.1111   35.4025 H   0  0  0  0  0  0  0  0  0  0  0  0
   33.8935   20.1698   32.7039 H   0  0  0  0  0  0  0  0  0  0  0  0
   34.5405   20.9706   30.4269 H   0  0  0  0  0  0  0  0  0  0  0  0
   36.6861   22.1663   30.1933 H   0  0  0  0  0  0  0  0  0  0  0  0
   37.2139   25.3464   36.9595 H   0  0  0  0  0  0  0  0  0  0  0  0
   37.6503   27.7504   36.3177 H   0  0  0  0  0  0  0  0  0  0  0  0
   41.1430   26.5070   34.2089 H   0  0  0  0  0  0  0  0  0  0  0  0
   37.6120   23.1633   38.1498 H   0  0  0  0  0  0  0  0  0  0  0  0
   36.7605   23.9962   36.8052 H   0  0  0  0  0  0  0  0  0  0  0  0
   36.9038   22.2056   36.8052 H   0  0  0  0  0  0  0  0  0  0  0  0
   40.2911   23.7124   37.6639 H   0  0  0  0  0  0  0  0  0  0  0  0
   39.3098   22.2233   38.1006 H   0  0  0  0  0  0  0  0  0  0  0  0
   40.1227   21.6113   35.8720 H   0  0  0  0  0  0  0  0  0  0  0  0
   41.6976   21.5734   38.7515 H   0  0  0  0  0  0  0  0  0  0  0  0
   42.0335   20.2721   37.9709 H   0  0  0  0  0  0  0  0  0  0  0  0
   42.8995   21.9456   35.8776 H   0  0  0  0  0  0  0  0  0  0  0  0
   42.8037   23.2253   36.7665 H   0  0  0  0  0  0  0  0  0  0  0  0
  2  1  1  0
  2  3  2  0
  4  3  1  0
  5  4  1  0
  6  5  2  0
  7  6  1  0
  8  7  2  0
  8  9  1  0
  9 10  2  0
 10  5  1  0
 10  2  1  0
 11 14  1  0
 11  9  1  0
 11 12  1  0
 13 11  1  0
 15  1  1  6
 15 22  1  0
 15 23  1  0
 16 15  1  0
 16 17  2  0
 18 17  1  0
 19 18  2  0
 20 21  2  0
 20 19  1  0
 21 16  1  0
 24 26  1  0
 24 23  1  0
 24 25  1  0
 26 25  1  0
  1 27  1  0
  1 28  1  0
  3 29  1  0
  4 30  1  0
  6 31  1  0
  7 32  1  0
  8 33  1  0
 17 34  1  0
 18 35  1  0
 20 36  1  0
 22 37  1  0
 22 38  1  0
 22 39  1  0
 23 40  1  0
 23 41  1  0
 24 42  1  0
 25 43  1  0
 25 44  1  0
 26 45  1  0
 26 46  1  0
M  ISO  8  27   8  28   8  29  14  30   9  31  14  32  14  33  14  34  14
M  ISO  8  35  14  36  14  37   8  38   8  39   8  40   8  41   8  42  13
M  ISO  4  43  13  44  13  45  13  46  13
M  END
>  <minimizedAffinity>  (1) 
-5.78264427

>  <minimizedRMSD>  (1) 
0.849539161

$$$$
