
     RDKit          3D

 47 50  0  0  1  0  0  0  0  0999 V2000
   39.8920   23.0280   35.1750 C   0  0  0  0  0  0  0  0  0  0  0  0
   39.4980   24.4480   34.7500 C   0  0  1  0  0  0  0  0  0  0  0  0
   39.7040   24.6680   33.3310 C   0  0  0  0  0  0  0  0  0  0  0  0
   38.4420   25.3610   32.7800 C   0  0  0  0  0  0  0  0  0  0  0  0
   38.2050   26.5750   33.6350 C   0  0  0  0  0  0  0  0  0  0  0  0
   37.9200   26.2640   35.0720 C   0  0  0  0  0  0  0  0  0  0  0  0
   38.0800   24.7510   35.2430 C   0  0  2  0  0  0  0  0  0  0  0  0
   37.9410   24.3340   36.6610 C   0  0  0  0  0  0  0  0  0  0  0  0
   37.4110   23.1550   37.1790 C   0  0  0  0  0  0  0  0  0  0  0  0
   37.4820   23.1930   38.5310 N   0  0  0  0  0  0  0  0  0  0  0  0
   38.0350   24.3470   38.8980 C   0  0  0  0  0  0  0  0  0  0  0  0
   38.3070   25.0250   37.7800 N   0  0  0  0  0  0  0  0  0  0  0  0
   37.6060   21.1640   32.9320 C   0  0  0  0  0  0  0  0  0  0  0  0
   38.4870   20.4820   32.1040 C   0  0  0  0  0  0  0  0  0  0  0  0
   39.8310   20.6760   32.3350 C   0  0  0  0  0  0  0  0  0  0  0  0
   40.2130   21.5030   33.3350 N   0  0  0  0  0  0  0  0  0  0  0  0
   39.3590   22.1490   34.1160 C   0  0  0  0  0  0  0  0  0  0  0  0
   38.0210   21.9820   33.9190 N   0  0  0  0  0  0  0  0  0  0  0  0
   37.9230   19.6630   31.1130 N   0  0  0  0  0  0  0  0  0  0  0  0
   37.3290   18.5270   31.5500 C   0  0  0  0  0  0  0  0  0  0  0  0
   36.7660   17.6960   30.6170 C   0  0  0  0  0  0  0  0  0  0  0  0
   36.8400   18.0740   29.2820 C   0  0  0  0  0  0  0  0  0  0  0  0
   36.2780   17.2460   28.3060 N   0  0  0  0  0  0  0  0  0  0  0  0
   37.4400   19.2100   28.9160 N   0  0  0  0  0  0  0  0  0  0  0  0
   37.9960   20.0300   29.8360 C   0  0  0  0  0  0  0  0  0  0  0  0
   38.5500   21.0840   29.4480 O   0  0  0  0  0  0  0  0  0  0  0  0
   40.9860   22.9340   35.2409 H   0  0  0  0  0  0  0  0  0  0  0  0
   39.4926   22.7683   36.1665 H   0  0  0  0  0  0  0  0  0  0  0  0
   40.1657   25.1783   35.2304 H   0  0  0  0  0  0  0  0  0  0  0  0
   40.5834   25.3101   33.1745 H   0  0  0  0  0  0  0  0  0  0  0  0
   39.8786   23.7135   32.8129 H   0  0  0  0  0  0  0  0  0  0  0  0
   38.6005   25.6600   31.7333 H   0  0  0  0  0  0  0  0  0  0  0  0
   37.5758   24.6836   32.8074 H   0  0  0  0  0  0  0  0  0  0  0  0
   39.1023   27.2097   33.5902 H   0  0  0  0  0  0  0  0  0  0  0  0
   37.3107   27.0753   33.2351 H   0  0  0  0  0  0  0  0  0  0  0  0
   38.6314   26.7949   35.7217 H   0  0  0  0  0  0  0  0  0  0  0  0
   36.9051   26.5852   35.3493 H   0  0  0  0  0  0  0  0  0  0  0  0
   37.3029   24.2070   34.6861 H   0  0  0  0  0  0  0  0  0  0  0  0
   37.0003   22.3253   36.5850 H   0  0  0  0  0  0  0  0  0  0  0  0
   38.2310   24.6795   39.9281 H   0  0  0  0  0  0  0  0  0  0  0  0
   38.7415   25.9587   37.7639 H   0  0  0  0  0  0  0  0  0  0  0  0
   36.5252   21.0313   32.7760 H   0  0  0  0  0  0  0  0  0  0  0  0
   40.5829   20.1657   31.7151 H   0  0  0  0  0  0  0  0  0  0  0  0
   37.2994   18.2789   32.6213 H   0  0  0  0  0  0  0  0  0  0  0  0
   36.2714   16.7599   30.9154 H   0  0  0  0  0  0  0  0  0  0  0  0
   36.3260   17.5147   27.3128 H   0  0  0  0  0  0  0  0  0  0  0  0
   35.8158   16.3672   28.5800 H   0  0  0  0  0  0  0  0  0  0  0  0
  2  1  1  0
  2  7  1  0
  3  2  1  0
  4  3  1  0
  4  5  1  0
  5  6  1  0
  6  7  1  0
  7  8  1  0
  8  9  2  0
  8 12  1  0
  9 10  1  0
 10 11  2  0
 12 11  1  0
 13 18  2  0
 14 15  2  0
 14 13  1  0
 15 16  1  0
 16 17  2  0
 17  1  1  0
 18 17  1  0
 19 20  1  0
 19 14  1  0
 21 20  2  0
 22 21  1  0
 23 22  1  0
 24 22  2  0
 24 25  1  0
 25 19  1  0
 26 25  2  0
  1 27  1  0
  1 28  1  0
  2 29  1  1
  3 30  1  0
  3 31  1  0
  4 32  1  0
  4 33  1  0
  5 34  1  0
  5 35  1  0
  6 36  1  0
  6 37  1  0
  7 38  1  6
  9 39  1  0
 11 40  1  0
 12 41  1  0
 13 42  1  0
 15 43  1  0
 20 44  1  0
 21 45  1  0
 23 46  1  0
 23 47  1  0
M  ISO  8  27   8  28   8  29  13  30  13  31  13  32  13  33  13  34  13
M  ISO  8  35  13  36  13  37  13  38  13  39  14  40  14  41   9  42  14
M  ISO  3  43  14  44  14  45  14
M  END
>  <minimizedAffinity>  (1) 
-4.67871714

>  <minimizedRMSD>  (1) 
1.37895775

$$$$
