
     RDKit          3D

 54 57  0  0  1  0  0  0  0  0999 V2000
   38.5460   23.3760   36.6050 C   0  0  1  0  0  0  0  0  0  0  0  0
   38.9580   24.6770   36.0390 C   0  0  0  0  0  0  0  0  0  0  0  0
   38.1120   25.7510   36.3500 C   0  0  0  0  0  0  0  0  0  0  0  0
   38.4560   26.9820   35.8350 C   0  0  0  0  0  0  0  0  0  0  0  0
   39.5670   27.1250   35.0640 N   0  0  0  0  0  0  0  0  0  0  0  0
   40.3600   26.0770   34.7830 C   0  0  0  0  0  0  0  0  0  0  0  0
   40.0160   24.9030   35.2850 N   0  0  0  0  0  0  0  0  0  0  0  0
   37.2460   23.3800   37.2190 C   0  0  0  0  0  0  0  0  0  0  0  0
   38.6860   22.2710   35.5280 C   0  0  0  0  0  0  0  0  0  0  0  0
   37.5240   21.7220   35.0080 C   0  0  0  0  0  0  0  0  0  0  0  0
   36.5690   21.0970   35.8760 C   0  0  0  0  0  0  0  0  0  0  0  0
   35.5290   20.6330   35.2100 N   0  0  0  0  0  0  0  0  0  0  0  0
   35.6830   20.8870   33.9070 C   0  0  0  0  0  0  0  0  0  0  0  0
   34.9250   20.6210   32.7940 C   0  0  0  0  0  0  0  0  0  0  0  0
   35.3590   21.0050   31.5380 C   0  0  0  0  0  0  0  0  0  0  0  0
   36.5580   21.6520   31.4520 C   0  0  0  0  0  0  0  0  0  0  0  0
   37.2890   21.9070   32.5490 C   0  0  0  0  0  0  0  0  0  0  0  0
   36.8910   21.5430   33.8050 C   0  0  0  0  0  0  0  0  0  0  0  0
   38.5460   22.5810   32.1940 C   0  0  0  0  0  0  0  0  0  0  0  0
   38.9140   23.6490   32.8410 F   0  0  0  0  0  0  0  0  0  0  0  0
   38.9310   22.2800   30.9160 F   0  0  0  0  0  0  0  0  0  0  0  0
   39.6620   21.7610   32.6830 F   0  0  0  0  0  0  0  0  0  0  0  0
   39.5400   23.0060   37.7170 C   0  0  0  0  0  0  0  0  0  0  0  0
   40.2540   21.8330   37.5770 N   0  0  0  0  0  0  0  0  0  0  0  0
   41.3230   21.5590   36.7520 C   0  0  0  0  0  0  0  0  0  0  0  0
   42.3350   20.6400   37.4960 C   0  0  0  0  0  0  0  0  0  0  0  0
   43.5020   20.6620   36.5360 C   0  0  0  0  0  0  0  0  0  0  0  0
   43.6130   22.1510   36.2470 C   0  0  0  0  0  0  0  0  0  0  0  0
   42.3080   22.7820   36.6870 C   0  0  0  0  0  0  0  0  0  0  0  0
   37.2167   25.6174   36.9750 H   0  0  0  0  0  0  0  0  0  0  0  0
   37.8257   27.8576   36.0497 H   0  0  0  0  0  0  0  0  0  0  0  0
   41.2595   26.1913   34.1602 H   0  0  0  0  0  0  0  0  0  0  0  0
   37.3574   23.3797   38.3133 H   0  0  0  0  0  0  0  0  0  0  0  0
   36.6958   24.2798   36.9067 H   0  0  0  0  0  0  0  0  0  0  0  0
   36.6902   22.4836   36.9067 H   0  0  0  0  0  0  0  0  0  0  0  0
   39.2495   22.7022   34.6874 H   0  0  0  0  0  0  0  0  0  0  0  0
   39.1759   21.4363   36.0507 H   0  0  0  0  0  0  0  0  0  0  0  0
   36.6891   21.0143   36.9663 H   0  0  0  0  0  0  0  0  0  0  0  0
   34.7223   20.1493   35.6298 H   0  0  0  0  0  0  0  0  0  0  0  0
   33.9635   20.0976   32.9019 H   0  0  0  0  0  0  0  0  0  0  0  0
   34.7590   20.7963   30.6399 H   0  0  0  0  0  0  0  0  0  0  0  0
   36.9315   21.9698   30.4674 H   0  0  0  0  0  0  0  0  0  0  0  0
   40.2685   23.8267   37.7924 H   0  0  0  0  0  0  0  0  0  0  0  0
   38.9135   22.8448   38.6067 H   0  0  0  0  0  0  0  0  0  0  0  0
   40.6047   21.6328   38.5245 H   0  0  0  0  0  0  0  0  0  0  0  0
   40.8688   21.2086   35.8134 H   0  0  0  0  0  0  0  0  0  0  0  0
   42.6109   21.0537   38.4772 H   0  0  0  0  0  0  0  0  0  0  0  0
   41.9527   19.6338   37.7229 H   0  0  0  0  0  0  0  0  0  0  0  0
   44.4177   20.2722   37.0045 H   0  0  0  0  0  0  0  0  0  0  0  0
   43.3652   20.0358   35.6420 H   0  0  0  0  0  0  0  0  0  0  0  0
   44.4521   22.5845   36.8110 H   0  0  0  0  0  0  0  0  0  0  0  0
   43.7978   22.3323   35.1779 H   0  0  0  0  0  0  0  0  0  0  0  0
   42.4124   23.2575   37.6734 H   0  0  0  0  0  0  0  0  0  0  0  0
   41.9637   23.5782   36.0106 H   0  0  0  0  0  0  0  0  0  0  0  0
  1  9  1  6
  1  8  1  0
  1 23  1  0
  2  3  2  0
  2  1  1  0
  4  3  1  0
  5  4  2  0
  6  5  1  0
  6  7  2  0
  7  2  1  0
 10  9  1  0
 10 11  2  0
 12 11  1  0
 13 12  1  0
 14 13  2  0
 15 14  1  0
 16 15  2  0
 16 17  1  0
 17 18  2  0
 18 13  1  0
 18 10  1  0
 19 17  1  0
 19 22  1  0
 19 20  1  0
 21 19  1  0
 24 23  1  0
 25 26  1  0
 25 24  1  0
 27 26  1  0
 28 27  1  0
 28 29  1  0
 29 25  1  0
  3 30  1  0
  4 31  1  0
  6 32  1  0
  8 33  1  0
  8 34  1  0
  8 35  1  0
  9 36  1  0
  9 37  1  0
 11 38  1  0
 12 39  1  0
 14 40  1  0
 15 41  1  0
 16 42  1  0
 23 43  1  0
 23 44  1  0
 24 45  1  0
 25 46  1  0
 26 47  1  0
 26 48  1  0
 27 49  1  0
 27 50  1  0
 28 51  1  0
 28 52  1  0
 29 53  1  0
 29 54  1  0
M  ISO  8  30  14  31  14  32  14  33   8  34   8  35   8  36   8  37   8
M  ISO  8  38  14  39   9  40  14  41  14  42  14  43   8  44   8  45   5
M  ISO  8  46  13  47  13  48  13  49  13  50  13  51  13  52  13  53  13
M  ISO  1  54  13
M  END
>  <minimizedAffinity>  (1) 
-6.33552551

>  <minimizedRMSD>  (1) 
0.613550067

$$$$
