
     RDKit          3D

 56 59  0  0  1  0  0  0  0  0999 V2000
   38.5880   23.2750   36.4180 C   0  0  1  0  0  0  0  0  0  0  0  0
   38.9410   24.6440   35.9500 C   0  0  0  0  0  0  0  0  0  0  0  0
   38.0630   25.6560   36.3950 C   0  0  0  0  0  0  0  0  0  0  0  0
   38.3350   26.9410   35.9860 C   0  0  0  0  0  0  0  0  0  0  0  0
   39.4090   27.1930   35.1890 N   0  0  0  0  0  0  0  0  0  0  0  0
   40.2230   26.2050   34.7850 C   0  0  0  0  0  0  0  0  0  0  0  0
   39.9490   24.9760   35.1870 N   0  0  0  0  0  0  0  0  0  0  0  0
   37.3220   23.1850   37.0960 C   0  0  0  0  0  0  0  0  0  0  0  0
   38.7130   22.2790   35.2410 C   0  0  0  0  0  0  0  0  0  0  0  0
   37.5480   21.7410   34.7360 C   0  0  0  0  0  0  0  0  0  0  0  0
   36.6160   21.0700   35.6060 C   0  0  0  0  0  0  0  0  0  0  0  0
   35.5600   20.6200   34.9690 N   0  0  0  0  0  0  0  0  0  0  0  0
   35.6580   20.9190   33.6720 C   0  0  0  0  0  0  0  0  0  0  0  0
   34.8640   20.6900   32.5720 C   0  0  0  0  0  0  0  0  0  0  0  0
   35.2530   21.1300   31.3070 C   0  0  0  0  0  0  0  0  0  0  0  0
   36.4290   21.7830   31.2160 C   0  0  0  0  0  0  0  0  0  0  0  0
   37.2000   22.0020   32.2970 C   0  0  0  0  0  0  0  0  0  0  0  0
   36.8590   21.5910   33.5520 C   0  0  0  0  0  0  0  0  0  0  0  0
   38.4470   22.7120   31.9230 C   0  0  0  0  0  0  0  0  0  0  0  0
   38.8580   23.7320   32.6380 F   0  0  0  0  0  0  0  0  0  0  0  0
   38.7590   22.5190   30.6070 F   0  0  0  0  0  0  0  0  0  0  0  0
   39.5910   21.8650   32.2870 F   0  0  0  0  0  0  0  0  0  0  0  0
   39.6390   22.8640   37.4590 C   0  0  0  0  0  0  0  0  0  0  0  0
   40.2850   21.6240   37.2090 N   0  0  0  0  0  0  0  0  0  0  0  0
   44.1680   22.0290   35.8670 N   0  0  0  0  0  0  0  0  0  0  0  0
   43.7770   20.7280   36.2890 C   0  0  0  0  0  0  0  0  0  0  0  0
   42.3650   20.5010   36.6360 C   0  0  0  0  0  0  0  0  0  0  0  0
   41.7330   21.6590   37.3830 C   0  0  0  0  0  0  0  0  0  0  0  0
   42.2000   22.9550   36.7840 C   0  0  0  0  0  0  0  0  0  0  0  0
   42.9820   22.7730   35.4960 C   0  0  0  0  0  0  0  0  0  0  0  0
   37.2011   25.4275   37.0391 H   0  0  0  0  0  0  0  0  0  0  0  0
   37.6824   27.7674   36.3041 H   0  0  0  0  0  0  0  0  0  0  0  0
   41.0900   26.4115   34.1403 H   0  0  0  0  0  0  0  0  0  0  0  0
   37.4868   23.1967   38.1835 H   0  0  0  0  0  0  0  0  0  0  0  0
   36.6920   24.0406   36.8114 H   0  0  0  0  0  0  0  0  0  0  0  0
   36.8194   22.2489   36.8114 H   0  0  0  0  0  0  0  0  0  0  0  0
   39.2177   22.8045   34.4169 H   0  0  0  0  0  0  0  0  0  0  0  0
   39.2608   21.4207   35.6571 H   0  0  0  0  0  0  0  0  0  0  0  0
   36.7725   20.9479   36.6879 H   0  0  0  0  0  0  0  0  0  0  0  0
   34.7756   20.1135   35.4038 H   0  0  0  0  0  0  0  0  0  0  0  0
   33.9112   20.1536   32.6916 H   0  0  0  0  0  0  0  0  0  0  0  0
   34.6265   20.9517   30.4206 H   0  0  0  0  0  0  0  0  0  0  0  0
   36.7666   22.1457   30.2339 H   0  0  0  0  0  0  0  0  0  0  0  0
   40.4094   23.6484   37.4928 H   0  0  0  0  0  0  0  0  0  0  0  0
   39.0966   22.7398   38.4079 H   0  0  0  0  0  0  0  0  0  0  0  0
   40.0828   21.3442   36.2386 H   0  0  0  0  0  0  0  0  0  0  0  0
   44.6533   22.5117   36.6366 H   0  0  0  0  0  0  0  0  0  0  0  0
   44.0278   20.0326   35.4745 H   0  0  0  0  0  0  0  0  0  0  0  0
   44.3164   20.5767   37.2357 H   0  0  0  0  0  0  0  0  0  0  0  0
   41.8001   20.3361   35.7067 H   0  0  0  0  0  0  0  0  0  0  0  0
   42.3320   19.6279   37.3042 H   0  0  0  0  0  0  0  0  0  0  0  0
   42.0111   21.5803   38.4444 H   0  0  0  0  0  0  0  0  0  0  0  0
   41.3194   23.5795   36.5727 H   0  0  0  0  0  0  0  0  0  0  0  0
   42.8765   23.4259   37.5124 H   0  0  0  0  0  0  0  0  0  0  0  0
   43.2576   23.7499   35.0720 H   0  0  0  0  0  0  0  0  0  0  0  0
   42.3923   22.2471   34.7307 H   0  0  0  0  0  0  0  0  0  0  0  0
  1  9  1  6
  1  8  1  0
  1 23  1  0
  2  3  2  0
  2  1  1  0
  4  3  1  0
  5  4  2  0
  6  7  2  0
  6  5  1  0
  7  2  1  0
 10  9  1  0
 10 11  2  0
 12 11  1  0
 13 12  1  0
 14 13  2  0
 15 14  1  0
 16 15  2  0
 16 17  1  0
 17 18  2  0
 18 13  1  0
 18 10  1  0
 19 22  1  0
 19 17  1  0
 19 20  1  0
 21 19  1  0
 24 28  1  0
 24 23  1  0
 25 26  1  0
 26 27  1  0
 27 28  1  0
 29 28  1  0
 30 25  1  0
 30 29  1  0
  3 31  1  0
  4 32  1  0
  6 33  1  0
  8 34  1  0
  8 35  1  0
  8 36  1  0
  9 37  1  0
  9 38  1  0
 11 39  1  0
 12 40  1  0
 14 41  1  0
 15 42  1  0
 16 43  1  0
 23 44  1  0
 23 45  1  0
 24 46  1  0
 25 47  1  0
 26 48  1  0
 26 49  1  0
 27 50  1  0
 27 51  1  0
 28 52  1  0
 29 53  1  0
 29 54  1  0
 30 55  1  0
 30 56  1  0
M  ISO  8  31  14  32  14  33  14  34   8  35   8  36   8  37   8  38   8
M  ISO  8  39  14  40   9  41  14  42  14  43  14  44   8  45   8  46   5
M  ISO  8  47   5  48  13  49  13  50  13  51  13  52  13  53  13  54  13
M  ISO  2  55  13  56  13
M  END
>  <minimizedAffinity>  (1) 
-6.14071941

>  <minimizedRMSD>  (1) 
1.41143143

$$$$
