
     RDKit          3D

 53 56  0  0  1  0  0  0  0  0999 V2000
   38.5700   23.2700   36.4210 C   0  0  1  0  0  0  0  0  0  0  0  0
   39.0860   24.5860   35.9080 C   0  0  0  0  0  0  0  0  0  0  0  0
   38.2420   25.6810   36.1510 C   0  0  0  0  0  0  0  0  0  0  0  0
   38.6680   26.9080   35.6950 C   0  0  0  0  0  0  0  0  0  0  0  0
   39.8470   27.0390   35.0460 N   0  0  0  0  0  0  0  0  0  0  0  0
   40.6360   25.9780   34.8260 C   0  0  0  0  0  0  0  0  0  0  0  0
   40.2290   24.8030   35.2600 N   0  0  0  0  0  0  0  0  0  0  0  0
   37.2820   23.3290   36.9990 C   0  0  0  0  0  0  0  0  0  0  0  0
   38.7140   22.2180   35.2910 C   0  0  0  0  0  0  0  0  0  0  0  0
   37.5450   21.7030   34.7710 C   0  0  0  0  0  0  0  0  0  0  0  0
   36.5960   21.0320   35.6250 C   0  0  0  0  0  0  0  0  0  0  0  0
   35.5380   20.6130   34.9610 N   0  0  0  0  0  0  0  0  0  0  0  0
   35.6560   20.9330   33.6730 C   0  0  0  0  0  0  0  0  0  0  0  0
   34.8670   20.7320   32.5670 C   0  0  0  0  0  0  0  0  0  0  0  0
   35.2710   21.1830   31.3200 C   0  0  0  0  0  0  0  0  0  0  0  0
   36.4730   21.8240   31.2420 C   0  0  0  0  0  0  0  0  0  0  0  0
   37.2360   22.0140   32.3340 C   0  0  0  0  0  0  0  0  0  0  0  0
   36.8690   21.5860   33.5790 C   0  0  0  0  0  0  0  0  0  0  0  0
   38.4870   22.6990   31.9790 C   0  0  0  0  0  0  0  0  0  0  0  0
   38.9040   23.7120   32.6990 F   0  0  0  0  0  0  0  0  0  0  0  0
   38.8200   22.5080   30.6680 F   0  0  0  0  0  0  0  0  0  0  0  0
   39.6080   21.8350   32.3600 F   0  0  0  0  0  0  0  0  0  0  0  0
   39.5680   22.8600   37.5230 C   0  0  0  0  0  0  0  0  0  0  0  0
   40.2720   21.6530   37.2850 N   0  0  0  0  0  0  0  0  0  0  0  0
   42.1430   20.4290   37.9820 N   0  0  0  0  0  0  0  0  0  0  0  0
   42.7690   19.8790   36.7840 C   0  0  0  0  0  0  0  0  0  0  0  0
   43.5590   21.0660   36.2790 C   0  0  0  0  0  0  0  0  0  0  0  0
   42.5570   22.1890   36.4700 C   0  0  0  0  0  0  0  0  0  0  0  0
   41.6970   21.7550   37.6020 C   0  0  1  0  0  0  0  0  0  0  0  0
   37.2852   25.5641   36.6809 H   0  0  0  0  0  0  0  0  0  0  0  0
   38.0397   27.7955   35.8611 H   0  0  0  0  0  0  0  0  0  0  0  0
   41.5953   26.0855   34.2985 H   0  0  0  0  0  0  0  0  0  0  0  0
   37.3716   23.3249   38.0953 H   0  0  0  0  0  0  0  0  0  0  0  0
   36.7770   24.2512   36.6758 H   0  0  0  0  0  0  0  0  0  0  0  0
   36.6948   22.4568   36.6758 H   0  0  0  0  0  0  0  0  0  0  0  0
   39.2667   22.6896   34.4651 H   0  0  0  0  0  0  0  0  0  0  0  0
   39.2248   21.3622   35.7564 H   0  0  0  0  0  0  0  0  0  0  0  0
   36.7390   20.8868   36.7060 H   0  0  0  0  0  0  0  0  0  0  0  0
   34.7389   20.1127   35.3757 H   0  0  0  0  0  0  0  0  0  0  0  0
   33.9054   20.2082   32.6717 H   0  0  0  0  0  0  0  0  0  0  0  0
   34.6465   21.0300   30.4275 H   0  0  0  0  0  0  0  0  0  0  0  0
   36.8252   22.1927   30.2673 H   0  0  0  0  0  0  0  0  0  0  0  0
   40.3063   23.6683   37.6305 H   0  0  0  0  0  0  0  0  0  0  0  0
   38.9673   22.6879   38.4283 H   0  0  0  0  0  0  0  0  0  0  0  0
   39.8579   20.9105   37.8665 H   0  0  0  0  0  0  0  0  0  0  0  0
   41.3433   19.8478   38.2711 H   0  0  0  0  0  0  0  0  0  0  0  0
   43.4283   19.0331   37.0283 H   0  0  0  0  0  0  0  0  0  0  0  0
   42.0544   19.4740   36.0523 H   0  0  0  0  0  0  0  0  0  0  0  0
   43.8339   20.9466   35.2206 H   0  0  0  0  0  0  0  0  0  0  0  0
   44.5175   21.2233   36.7952 H   0  0  0  0  0  0  0  0  0  0  0  0
   43.0730   23.1288   36.7158 H   0  0  0  0  0  0  0  0  0  0  0  0
   41.9719   22.3778   35.5578 H   0  0  0  0  0  0  0  0  0  0  0  0
   41.7933   22.5167   38.3897 H   0  0  0  0  0  0  0  0  0  0  0  0
  1  9  1  6
  1  8  1  0
  1 23  1  0
  2  3  2  0
  2  1  1  0
  4  3  1  0
  5  4  2  0
  6  5  1  0
  6  7  2  0
  7  2  1  0
 10  9  1  0
 10 11  2  0
 12 11  1  0
 13 12  1  0
 14 13  2  0
 15 14  1  0
 16 15  2  0
 16 17  1  0
 17 18  2  0
 18 13  1  0
 18 10  1  0
 19 17  1  0
 19 22  1  0
 19 20  1  0
 21 19  1  0
 24 23  1  0
 26 25  1  0
 27 28  1  0
 27 26  1  0
 28 29  1  0
 29 24  1  0
 29 25  1  0
  3 30  1  0
  4 31  1  0
  6 32  1  0
  8 33  1  0
  8 34  1  0
  8 35  1  0
  9 36  1  0
  9 37  1  0
 11 38  1  0
 12 39  1  0
 14 40  1  0
 15 41  1  0
 16 42  1  0
 23 43  1  0
 23 44  1  0
 24 45  1  0
 25 46  1  0
 26 47  1  0
 26 48  1  0
 27 49  1  0
 27 50  1  0
 28 51  1  0
 28 52  1  0
 29 53  1  1
M  ISO  8  30  14  31  14  32  14  33   8  34   8  35   8  36   8  37   8
M  ISO  8  38  14  39   9  40  14  41  14  42  14  43   8  44   8  45   5
M  ISO  8  46   5  47  13  48  13  49  13  50  13  51  13  52  13  53  13
M  END
>  <minimizedAffinity>  (1) 
-6.3525219

>  <minimizedRMSD>  (1) 
0.623859465

$$$$
