
     RDKit          3D

 50 52  0  0  1  0  0  0  0  0999 V2000
   38.5870   23.2670   36.4300 C   0  0  1  0  0  0  0  0  0  0  0  0
   38.9510   24.6200   35.9650 C   0  0  0  0  0  0  0  0  0  0  0  0
   38.0750   25.6380   36.3780 C   0  0  0  0  0  0  0  0  0  0  0  0
   38.3690   26.9170   35.9620 C   0  0  0  0  0  0  0  0  0  0  0  0
   39.4630   27.1620   35.1870 N   0  0  0  0  0  0  0  0  0  0  0  0
   40.2800   26.1680   34.8100 C   0  0  0  0  0  0  0  0  0  0  0  0
   39.9810   24.9480   35.2190 N   0  0  0  0  0  0  0  0  0  0  0  0
   37.3180   23.1800   37.1040 C   0  0  0  0  0  0  0  0  0  0  0  0
   38.6960   22.2620   35.2500 C   0  0  0  0  0  0  0  0  0  0  0  0
   37.5270   21.7290   34.7490 C   0  0  0  0  0  0  0  0  0  0  0  0
   36.6050   21.0570   35.6230 C   0  0  0  0  0  0  0  0  0  0  0  0
   35.5440   20.6130   34.9800 N   0  0  0  0  0  0  0  0  0  0  0  0
   35.6510   20.9290   33.6740 C   0  0  0  0  0  0  0  0  0  0  0  0
   34.8600   20.7070   32.5780 C   0  0  0  0  0  0  0  0  0  0  0  0
   35.2420   21.1460   31.3280 C   0  0  0  0  0  0  0  0  0  0  0  0
   36.4210   21.7990   31.2310 C   0  0  0  0  0  0  0  0  0  0  0  0
   37.1960   22.0140   32.3120 C   0  0  0  0  0  0  0  0  0  0  0  0
   36.8400   21.5900   33.5700 C   0  0  0  0  0  0  0  0  0  0  0  0
   38.4360   22.7110   31.9390 C   0  0  0  0  0  0  0  0  0  0  0  0
   38.8560   23.7160   32.6540 F   0  0  0  0  0  0  0  0  0  0  0  0
   38.7420   22.5250   30.6230 F   0  0  0  0  0  0  0  0  0  0  0  0
   39.5700   21.8450   32.2880 F   0  0  0  0  0  0  0  0  0  0  0  0
   39.6380   22.8280   37.4620 C   0  0  0  0  0  0  0  0  0  0  0  0
   40.3490   21.6700   37.1930 N   0  0  0  0  0  0  0  0  0  0  0  0
   41.6030   21.5750   36.6190 C   0  0  0  0  0  0  0  0  0  0  0  0
   42.4130   20.6010   37.5210 C   0  0  0  0  0  0  0  0  0  0  0  0
   42.4080   22.8850   36.7300 C   0  0  0  0  0  0  0  0  0  0  0  0
   37.1962   25.4233   37.0038 H   0  0  0  0  0  0  0  0  0  0  0  0
   37.7142   27.7498   36.2582 H   0  0  0  0  0  0  0  0  0  0  0  0
   41.1643   26.3608   34.1848 H   0  0  0  0  0  0  0  0  0  0  0  0
   37.4792   23.1911   38.1921 H   0  0  0  0  0  0  0  0  0  0  0  0
   36.6911   24.0373   36.8175 H   0  0  0  0  0  0  0  0  0  0  0  0
   36.8140   22.2452   36.8175 H   0  0  0  0  0  0  0  0  0  0  0  0
   39.2008   22.7815   34.4222 H   0  0  0  0  0  0  0  0  0  0  0  0
   39.2359   21.4002   35.6693 H   0  0  0  0  0  0  0  0  0  0  0  0
   36.7663   20.9282   36.7035 H   0  0  0  0  0  0  0  0  0  0  0  0
   34.7570   20.1046   35.4079 H   0  0  0  0  0  0  0  0  0  0  0  0
   33.9068   20.1710   32.6967 H   0  0  0  0  0  0  0  0  0  0  0  0
   34.6113   20.9714   30.4438 H   0  0  0  0  0  0  0  0  0  0  0  0
   36.7553   22.1629   30.2482 H   0  0  0  0  0  0  0  0  0  0  0  0
   40.3658   23.6469   37.5609 H   0  0  0  0  0  0  0  0  0  0  0  0
   39.0623   22.6005   38.3713 H   0  0  0  0  0  0  0  0  0  0  0  0
   40.4380   21.1965   38.1034 H   0  0  0  0  0  0  0  0  0  0  0  0
   41.4689   21.2867   35.5660 H   0  0  0  0  0  0  0  0  0  0  0  0
   42.2194   20.8339   38.5785 H   0  0  0  0  0  0  0  0  0  0  0  0
   42.1057   19.5658   37.3113 H   0  0  0  0  0  0  0  0  0  0  0  0
   43.4869   20.7144   37.3113 H   0  0  0  0  0  0  0  0  0  0  0  0
   42.5604   23.1330   37.7908 H   0  0  0  0  0  0  0  0  0  0  0  0
   43.3842   22.7582   36.2392 H   0  0  0  0  0  0  0  0  0  0  0  0
   41.8538   23.6986   36.2392 H   0  0  0  0  0  0  0  0  0  0  0  0
  1  9  1  6
  1  8  1  0
  1 23  1  0
  2  3  2  0
  2  1  1  0
  4  3  1  0
  5  4  2  0
  6  5  1  0
  6  7  2  0
  7  2  1  0
 10  9  1  0
 10 11  2  0
 12 11  1  0
 13 12  1  0
 14 13  2  0
 15 14  1  0
 16 15  2  0
 16 17  1  0
 17 18  2  0
 18 13  1  0
 18 10  1  0
 19 22  1  0
 19 17  1  0
 19 20  1  0
 21 19  1  0
 24 23  1  0
 25 27  1  0
 25 24  1  0
 25 26  1  0
  3 28  1  0
  4 29  1  0
  6 30  1  0
  8 31  1  0
  8 32  1  0
  8 33  1  0
  9 34  1  0
  9 35  1  0
 11 36  1  0
 12 37  1  0
 14 38  1  0
 15 39  1  0
 16 40  1  0
 23 41  1  0
 23 42  1  0
 24 43  1  0
 25 44  1  0
 26 45  1  0
 26 46  1  0
 26 47  1  0
 27 48  1  0
 27 49  1  0
 27 50  1  0
M  ISO  8  28  14  29  14  30  14  31   8  32   8  33   8  34   8  35   8
M  ISO  8  36  14  37   9  38  14  39  14  40  14  41   8  42   8  43   5
M  ISO  7  44   8  45   8  46   8  47   8  48   8  49   8  50   8
M  END
>  <minimizedAffinity>  (1) 
-5.92342615

>  <minimizedRMSD>  (1) 
0.359310955

$$$$
