
     RDKit          3D

 19 20  0  0  0  0  0  0  0  0999 V2000
   39.3710   22.7180   37.5570 C   0  0  0  0  0  0  0  0  0  0  0  0
   40.7300   22.3120   37.4590 C   0  0  0  0  0  0  0  0  0  0  0  0
   41.2020   21.9900   36.1880 C   0  0  0  0  0  0  0  0  0  0  0  0
   40.3490   22.0810   35.1270 N   0  0  0  0  0  0  0  0  0  0  0  0
   39.0770   22.4700   35.2760 C   0  0  0  0  0  0  0  0  0  0  0  0
   38.5780   22.7910   36.4910 N   0  0  0  0  0  0  0  0  0  0  0  0
   38.3310   22.5070   34.0650 N   0  0  0  0  0  0  0  0  0  0  0  0
   37.8780   23.6880   33.6020 C   0  0  0  0  0  0  0  0  0  0  0  0
   37.1840   23.4650   32.4120 C   0  0  0  0  0  0  0  0  0  0  0  0
   37.2360   22.1400   32.1820 N   0  0  0  0  0  0  0  0  0  0  0  0
   37.9310   21.5540   33.1810 C   0  0  0  0  0  0  0  0  0  0  0  0
   38.8990   23.0440   38.8540 N   0  0  0  0  0  0  0  0  0  0  0  0
   41.3788   22.2547   38.3454 H   0  0  0  0  0  0  0  0  0  0  0  0
   42.2438   21.6682   36.0427 H   0  0  0  0  0  0  0  0  0  0  0  0
   38.0299   24.6659   34.0822 H   0  0  0  0  0  0  0  0  0  0  0  0
   36.6914   24.2230   31.7853 H   0  0  0  0  0  0  0  0  0  0  0  0
   38.1402   20.4774   33.2660 H   0  0  0  0  0  0  0  0  0  0  0  0
   37.9228   23.3447   38.9863 H   0  0  0  0  0  0  0  0  0  0  0  0
   39.5324   22.9801   39.6637 H   0  0  0  0  0  0  0  0  0  0  0  0
  1 12  1  0
  2  1  2  0
  3  2  1  0
  4  5  1  0
  4  3  2  0
  5  6  2  0
  6  1  1  0
  7  5  1  0
  8  7  1  0
  9  8  2  0
 10  9  1  0
 10 11  2  0
 11  7  1  0
  2 13  1  0
  3 14  1  0
  8 15  1  0
  9 16  1  0
 11 17  1  0
 12 18  1  0
 12 19  1  0
M  ISO  5  13  14  14  14  15  14  16  14  17  14
M  END
>  <minimizedAffinity>  (1) 
-3.69569683

>  <minimizedRMSD>  (1) 
5.33857536

$$$$
