
     RDKit          3D

 45 47  0  0  1  0  0  0  0  0999 V2000
   38.5710   23.2020   36.3390 C   0  0  1  0  0  0  0  0  0  0  0  0
   38.9990   24.5790   35.8960 C   0  0  0  0  0  0  0  0  0  0  0  0
   38.1110   25.6040   36.2420 C   0  0  0  0  0  0  0  0  0  0  0  0
   38.4460   26.8850   35.8580 C   0  0  0  0  0  0  0  0  0  0  0  0
   39.5890   27.1230   35.1760 N   0  0  0  0  0  0  0  0  0  0  0  0
   40.4240   26.1270   34.8560 C   0  0  0  0  0  0  0  0  0  0  0  0
   40.1020   24.9030   35.2230 N   0  0  0  0  0  0  0  0  0  0  0  0
   37.3270   23.1630   37.0030 C   0  0  0  0  0  0  0  0  0  0  0  0
   38.6830   22.2740   35.1110 C   0  0  0  0  0  0  0  0  0  0  0  0
   37.4970   21.7240   34.6320 C   0  0  0  0  0  0  0  0  0  0  0  0
   36.6120   21.0140   35.5170 C   0  0  0  0  0  0  0  0  0  0  0  0
   35.5390   20.5760   34.8890 N   0  0  0  0  0  0  0  0  0  0  0  0
   35.6010   20.9310   33.5960 C   0  0  0  0  0  0  0  0  0  0  0  0
   34.7690   20.7260   32.5240 C   0  0  0  0  0  0  0  0  0  0  0  0
   35.1170   21.2160   31.2710 C   0  0  0  0  0  0  0  0  0  0  0  0
   36.2910   21.8900   31.1600 C   0  0  0  0  0  0  0  0  0  0  0  0
   37.0910   22.0790   32.2240 C   0  0  0  0  0  0  0  0  0  0  0  0
   36.7850   21.6150   33.4750 C   0  0  0  0  0  0  0  0  0  0  0  0
   38.3100   22.8030   31.8350 C   0  0  0  0  0  0  0  0  0  0  0  0
   38.7540   23.7750   32.5830 F   0  0  0  0  0  0  0  0  0  0  0  0
   38.5670   22.6750   30.4970 F   0  0  0  0  0  0  0  0  0  0  0  0
   39.4640   21.9310   32.0970 F   0  0  0  0  0  0  0  0  0  0  0  0
   39.6790   22.7440   37.3190 C   0  0  0  0  0  0  0  0  0  0  0  0
   40.6510   21.8990   36.8040 N   0  0  0  0  0  0  0  0  0  0  0  0
   41.9160   21.3910   37.3010 C   0  0  0  0  0  0  0  0  0  0  0  0
   42.0940   20.3910   38.2920 N   0  0  0  0  0  0  0  0  0  0  0  0
   42.9910   21.8520   36.8370 O   0  0  0  0  0  0  0  0  0  0  0  0
   37.1844   25.3962   36.7972 H   0  0  0  0  0  0  0  0  0  0  0  0
   37.7771   27.7214   36.1088 H   0  0  0  0  0  0  0  0  0  0  0  0
   41.3534   26.3248   34.3019 H   0  0  0  0  0  0  0  0  0  0  0  0
   37.4916   23.1682   38.0906 H   0  0  0  0  0  0  0  0  0  0  0  0
   36.7315   24.0429   36.7181 H   0  0  0  0  0  0  0  0  0  0  0  0
   36.7878   22.2475   36.7181 H   0  0  0  0  0  0  0  0  0  0  0  0
   39.1344   22.8557   34.2938 H   0  0  0  0  0  0  0  0  0  0  0  0
   39.2825   21.4166   35.4507 H   0  0  0  0  0  0  0  0  0  0  0  0
   36.8072   20.8559   36.5879 H   0  0  0  0  0  0  0  0  0  0  0  0
   34.7716   20.0436   35.3233 H   0  0  0  0  0  0  0  0  0  0  0  0
   33.8268   20.1739   32.6565 H   0  0  0  0  0  0  0  0  0  0  0  0
   34.4641   21.0633   30.3990 H   0  0  0  0  0  0  0  0  0  0  0  0
   36.5932   22.2890   30.1805 H   0  0  0  0  0  0  0  0  0  0  0  0
   40.1852   23.6451   37.6957 H   0  0  0  0  0  0  0  0  0  0  0  0
   39.1603   22.1550   38.0897 H   0  0  0  0  0  0  0  0  0  0  0  0
   40.4246   21.5562   35.8595 H   0  0  0  0  0  0  0  0  0  0  0  0
   43.0436   20.1051   38.5704 H   0  0  0  0  0  0  0  0  0  0  0  0
   41.2736   19.9511   38.7329 H   0  0  0  0  0  0  0  0  0  0  0  0
  1  9  1  6
  1  8  1  0
  1 23  1  0
  2  3  2  0
  2  1  1  0
  4  3  1  0
  5  4  2  0
  6  5  1  0
  6  7  2  0
  7  2  1  0
 10  9  1  0
 10 11  2  0
 12 11  1  0
 13 12  1  0
 14 13  2  0
 15 14  1  0
 16 15  2  0
 16 17  1  0
 17 18  2  0
 18 13  1  0
 18 10  1  0
 19 22  1  0
 19 17  1  0
 19 20  1  0
 21 19  1  0
 24 25  1  0
 24 23  1  0
 25 26  1  0
 27 25  2  0
  3 28  1  0
  4 29  1  0
  6 30  1  0
  8 31  1  0
  8 32  1  0
  8 33  1  0
  9 34  1  0
  9 35  1  0
 11 36  1  0
 12 37  1  0
 14 38  1  0
 15 39  1  0
 16 40  1  0
 23 41  1  0
 23 42  1  0
 24 43  1  0
 26 44  1  0
 26 45  1  0
M  ISO  8  28  14  29  14  30  14  31   8  32   8  33   8  34   8  35   8
M  ISO  7  36  14  37   9  38  14  39  14  40  14  41   8  42   8
M  END
>  <minimizedAffinity>  (1) 
-6.06838465

>  <minimizedRMSD>  (1) 
1.19716513

$$$$
