
     RDKit          3D

 33 36  0  0  0  0  0  0  0  0999 V2000
   38.2320   23.4260   37.3190 C   0  0  0  0  0  0  0  0  0  0  0  0
   39.4890   22.9010   36.8990 C   0  0  0  0  0  0  0  0  0  0  0  0
   40.0310   23.4400   35.7260 C   0  0  0  0  0  0  0  0  0  0  0  0
   39.3470   24.4120   35.0680 N   0  0  0  0  0  0  0  0  0  0  0  0
   38.1680   24.8720   35.5060 C   0  0  0  0  0  0  0  0  0  0  0  0
   37.6070   24.3760   36.6390 N   0  0  0  0  0  0  0  0  0  0  0  0
   37.5990   25.8840   34.6950 N   0  0  0  0  0  0  0  0  0  0  0  0
   37.4410   27.1280   35.2120 C   0  0  0  0  0  0  0  0  0  0  0  0
   36.8680   27.9390   34.2320 C   0  0  0  0  0  0  0  0  0  0  0  0
   36.6890   27.1610   33.1360 N   0  0  0  0  0  0  0  0  0  0  0  0
   37.1330   25.9300   33.4300 C   0  0  0  0  0  0  0  0  0  0  0  0
   37.1580   24.7680   32.6100 N   0  0  0  0  0  0  0  0  0  0  0  0
   36.1780   24.1840   31.8620 C   0  0  0  0  0  0  0  0  0  0  0  0
   36.6980   23.0820   31.2530 N   0  0  0  0  0  0  0  0  0  0  0  0
   37.9930   22.9550   31.6020 C   0  0  0  0  0  0  0  0  0  0  0  0
   38.9110   21.9930   31.2280 C   0  0  0  0  0  0  0  0  0  0  0  0
   38.6220   21.0400   30.4510 O   0  0  0  0  0  0  0  0  0  0  0  0
   40.1510   22.1440   31.7550 N   0  0  0  0  0  0  0  0  0  0  0  0
   40.4440   23.1560   32.5750 C   0  0  0  0  0  0  0  0  0  0  0  0
   41.7870   23.1430   33.0210 N   0  0  0  0  0  0  0  0  0  0  0  0
   39.5360   24.0840   32.9290 N   0  0  0  0  0  0  0  0  0  0  0  0
   38.2730   24.0090   32.4470 C   0  0  0  0  0  0  0  0  0  0  0  0
   37.7020   22.8710   38.5010 N   0  0  0  0  0  0  0  0  0  0  0  0
   40.0061   22.1135   37.4668 H   0  0  0  0  0  0  0  0  0  0  0  0
   40.9975   23.0813   35.3424 H   0  0  0  0  0  0  0  0  0  0  0  0
   37.7172   27.4432   36.2290 H   0  0  0  0  0  0  0  0  0  0  0  0
   36.6110   29.0041   34.3296 H   0  0  0  0  0  0  0  0  0  0  0  0
   35.1424   24.5425   31.7667 H   0  0  0  0  0  0  0  0  0  0  0  0
   40.8847   21.4615   31.5170 H   0  0  0  0  0  0  0  0  0  0  0  0
   42.1250   23.8778   33.6588 H   0  0  0  0  0  0  0  0  0  0  0  0
   42.4265   22.3988   32.7078 H   0  0  0  0  0  0  0  0  0  0  0  0
   36.7969   23.2019   38.8645 H   0  0  0  0  0  0  0  0  0  0  0  0
   38.2198   22.1345   39.0014 H   0  0  0  0  0  0  0  0  0  0  0  0
  1 23  1  0
  2  1  2  0
  3  2  1  0
  4  5  1  0
  4  3  2  0
  5  6  2  0
  6  1  1  0
  7  8  1  0
  7  5  1  0
  9  8  2  0
 10 11  2  0
 10  9  1  0
 11  7  1  0
 12 11  1  0
 13 12  1  0
 14 15  1  0
 14 13  2  0
 15 22  2  0
 16 15  1  0
 16 18  1  0
 17 16  2  0
 18 19  1  0
 19 21  2  0
 19 20  1  0
 22 12  1  0
 22 21  1  0
  2 24  1  0
  3 25  1  0
  8 26  1  0
  9 27  1  0
 13 28  1  0
 18 29  1  0
 20 30  1  0
 20 31  1  0
 23 32  1  0
 23 33  1  0
M  ISO  6  24  14  25  14  26  14  27  14  28  14  29   9
M  END
>  <minimizedAffinity>  (1) 
-5.54166174

>  <minimizedRMSD>  (1) 
4.13453293

$$$$
