
     RDKit          3D

 33 36  0  0  0  0  0  0  0  0999 V2000
   39.2390   23.0230   37.6390 C   0  0  0  0  0  0  0  0  0  0  0  0
   40.5290   22.5340   37.3390 C   0  0  0  0  0  0  0  0  0  0  0  0
   40.9520   22.6890   36.0290 C   0  0  0  0  0  0  0  0  0  0  0  0
   40.1290   23.2830   35.1280 N   0  0  0  0  0  0  0  0  0  0  0  0
   38.9040   23.7360   35.4550 C   0  0  0  0  0  0  0  0  0  0  0  0
   38.4550   23.6020   36.7350 N   0  0  0  0  0  0  0  0  0  0  0  0
   38.1650   24.3330   34.4120 N   0  0  0  0  0  0  0  0  0  0  0  0
   37.8870   25.6490   34.4710 C   0  0  0  0  0  0  0  0  0  0  0  0
   37.1970   26.0070   33.3160 C   0  0  0  0  0  0  0  0  0  0  0  0
   37.0760   24.8920   32.5900 N   0  0  0  0  0  0  0  0  0  0  0  0
   37.6690   23.8530   33.2570 C   0  0  0  0  0  0  0  0  0  0  0  0
   37.7290   22.5430   32.6580 C   0  0  0  0  0  0  0  0  0  0  0  0
   38.6980   22.2300   31.6960 C   0  0  0  0  0  0  0  0  0  0  0  0
   38.5570   20.9610   31.2470 N   0  0  0  0  0  0  0  0  0  0  0  0
   37.5310   20.3930   31.8610 C   0  0  0  0  0  0  0  0  0  0  0  0
   36.9480   19.1650   31.7810 C   0  0  0  0  0  0  0  0  0  0  0  0
   35.8470   18.8330   32.5370 C   0  0  0  0  0  0  0  0  0  0  0  0
   35.3440   19.7950   33.3880 C   0  0  0  0  0  0  0  0  0  0  0  0
   35.9490   21.0280   33.4520 C   0  0  0  0  0  0  0  0  0  0  0  0
   37.0420   21.3610   32.7070 C   0  0  0  0  0  0  0  0  0  0  0  0
   38.7990   22.8650   38.9870 N   0  0  0  0  0  0  0  0  0  0  0  0
   41.1620   22.0572   38.1019 H   0  0  0  0  0  0  0  0  0  0  0  0
   41.9466   22.3336   35.7216 H   0  0  0  0  0  0  0  0  0  0  0  0
   38.1592   26.3271   35.2932 H   0  0  0  0  0  0  0  0  0  0  0  0
   36.8254   27.0085   33.0534 H   0  0  0  0  0  0  0  0  0  0  0  0
   39.4750   22.9272   31.3494 H   0  0  0  0  0  0  0  0  0  0  0  0
   39.1536   20.5088   30.5395 H   0  0  0  0  0  0  0  0  0  0  0  0
   37.3689   18.4173   31.0927 H   0  0  0  0  0  0  0  0  0  0  0  0
   35.3852   17.8372   32.4653 H   0  0  0  0  0  0  0  0  0  0  0  0
   34.4644   19.5771   34.0115 H   0  0  0  0  0  0  0  0  0  0  0  0
   35.5319   21.7815   34.1363 H   0  0  0  0  0  0  0  0  0  0  0  0
   37.8668   23.2018   39.2673 H   0  0  0  0  0  0  0  0  0  0  0  0
   39.4135   22.4142   39.6798 H   0  0  0  0  0  0  0  0  0  0  0  0
  1 21  1  0
  2  1  2  0
  3  2  1  0
  4  5  1  0
  4  3  2  0
  5  6  2  0
  6  1  1  0
  7  8  1  0
  7  5  1  0
  9  8  2  0
 10 11  2  0
 10  9  1  0
 11  7  1  0
 12 20  1  0
 12 11  1  0
 13 12  2  0
 14 13  1  0
 14 15  1  0
 15 20  2  0
 16 15  1  0
 16 17  2  0
 17 18  1  0
 18 19  2  0
 20 19  1  0
  2 22  1  0
  3 23  1  0
  8 24  1  0
  9 25  1  0
 13 26  1  0
 14 27  1  0
 16 28  1  0
 17 29  1  0
 18 30  1  0
 19 31  1  0
 21 32  1  0
 21 33  1  0
M  ISO  8  22  14  23  14  24  14  25  14  26  14  27   9  28  14  29  14
M  ISO  2  30  14  31  14
M  END
>  <minimizedAffinity>  (1) 
-5.92345428

>  <minimizedRMSD>  (1) 
2.20374346

$$$$
