
     RDKit          3D

 32 34  0  0  0  0  0  0  0  0999 V2000
   38.1890   23.3150   37.4210 C   0  0  0  0  0  0  0  0  0  0  0  0
   39.5280   22.8830   37.1570 C   0  0  0  0  0  0  0  0  0  0  0  0
   40.1690   23.4330   36.0360 C   0  0  0  0  0  0  0  0  0  0  0  0
   39.4840   24.3390   35.2730 N   0  0  0  0  0  0  0  0  0  0  0  0
   38.2260   24.7120   35.5660 C   0  0  0  0  0  0  0  0  0  0  0  0
   37.5820   24.1940   36.6430 N   0  0  0  0  0  0  0  0  0  0  0  0
   37.6720   25.6560   34.6710 N   0  0  0  0  0  0  0  0  0  0  0  0
   37.3770   26.8880   35.1160 C   0  0  0  0  0  0  0  0  0  0  0  0
   36.8450   27.6360   34.0540 C   0  0  0  0  0  0  0  0  0  0  0  0
   36.8400   26.8090   32.9820 N   0  0  0  0  0  0  0  0  0  0  0  0
   37.3380   25.6230   33.3580 C   0  0  0  0  0  0  0  0  0  0  0  0
   37.5260   24.4500   32.5800 N   0  0  0  0  0  0  0  0  0  0  0  0
   38.7990   23.9920   32.6740 C   0  0  0  0  0  0  0  0  0  0  0  0
   39.1960   22.8540   31.9910 C   0  0  0  0  0  0  0  0  0  0  0  0
   40.5720   22.2840   32.0370 C   0  0  0  0  0  0  0  0  0  0  0  0
   38.2650   22.2000   31.2150 C   0  0  0  0  0  0  0  0  0  0  0  0
   38.5770   21.1610   30.5750 O   0  0  0  0  0  0  0  0  0  0  0  0
   37.0120   22.6850   31.1480 N   0  0  0  0  0  0  0  0  0  0  0  0
   36.6350   23.7910   31.8150 C   0  0  0  0  0  0  0  0  0  0  0  0
   35.4890   24.3080   31.8060 O   0  0  0  0  0  0  0  0  0  0  0  0
   37.5640   22.7500   38.5500 N   0  0  0  0  0  0  0  0  0  0  0  0
   40.0329   22.1514   37.8049 H   0  0  0  0  0  0  0  0  0  0  0  0
   41.1978   23.1425   35.7769 H   0  0  0  0  0  0  0  0  0  0  0  0
   37.5274   27.2512   36.1433 H   0  0  0  0  0  0  0  0  0  0  0  0
   36.5022   28.6807   34.0861 H   0  0  0  0  0  0  0  0  0  0  0  0
   39.5253   24.5308   33.3003 H   0  0  0  0  0  0  0  0  0  0  0  0
   40.8810   22.1560   33.0849 H   0  0  0  0  0  0  0  0  0  0  0  0
   40.5817   21.3078   31.5300 H   0  0  0  0  0  0  0  0  0  0  0  0
   41.2691   22.9674   31.5300 H   0  0  0  0  0  0  0  0  0  0  0  0
   36.3182   22.1933   30.5668 H   0  0  0  0  0  0  0  0  0  0  0  0
   36.6004   23.0197   38.7941 H   0  0  0  0  0  0  0  0  0  0  0  0
   38.0707   22.0672   39.1314 H   0  0  0  0  0  0  0  0  0  0  0  0
  1 21  1  0
  2  1  2  0
  3  2  1  0
  4  5  1  0
  4  3  2  0
  5  6  2  0
  6  1  1  0
  7  8  1  0
  7  5  1  0
  9  8  2  0
 10 11  2  0
 10  9  1  0
 11  7  1  0
 12 13  1  0
 12 11  1  0
 14 15  1  0
 14 13  2  0
 16 14  1  0
 17 16  2  0
 18 16  1  0
 18 19  1  0
 19 12  1  0
 20 19  2  0
  2 22  1  0
  3 23  1  0
  8 24  1  0
  9 25  1  0
 13 26  1  0
 15 27  1  0
 15 28  1  0
 15 29  1  0
 18 30  1  0
 21 31  1  0
 21 32  1  0
M  ISO  8  22  14  23  14  24  14  25  14  26  14  27   8  28   8  29   8
M  ISO  1  30   9
M  END
>  <minimizedAffinity>  (1) 
-5.5416379

>  <minimizedRMSD>  (1) 
3.94590902

$$$$
