
     RDKit          3D

 34 36  0  0  0  0  0  0  0  0999 V2000
   38.8730   23.2360   37.6870 C   0  0  0  0  0  0  0  0  0  0  0  0
   40.1410   22.7670   37.2230 C   0  0  0  0  0  0  0  0  0  0  0  0
   40.6320   23.3200   36.0350 C   0  0  0  0  0  0  0  0  0  0  0  0
   39.8810   24.2650   35.3930 N   0  0  0  0  0  0  0  0  0  0  0  0
   38.6970   24.6700   35.8710 C   0  0  0  0  0  0  0  0  0  0  0  0
   38.1970   24.1550   37.0150 N   0  0  0  0  0  0  0  0  0  0  0  0
   38.0440   25.6580   35.0840 N   0  0  0  0  0  0  0  0  0  0  0  0
   37.8740   26.8870   35.5720 C   0  0  0  0  0  0  0  0  0  0  0  0
   37.2110   27.6570   34.6060 C   0  0  0  0  0  0  0  0  0  0  0  0
   37.0010   26.8480   33.5520 N   0  0  0  0  0  0  0  0  0  0  0  0
   37.5020   25.6240   33.8250 C   0  0  0  0  0  0  0  0  0  0  0  0
   37.5240   24.4400   33.0350 N   0  0  0  0  0  0  0  0  0  0  0  0
   36.4930   24.1180   32.0450 C   0  0  0  0  0  0  0  0  0  0  0  0
   37.1950   24.3340   30.7010 C   0  0  0  0  0  0  0  0  0  0  0  0
   38.2620   23.2710   30.6070 C   0  0  0  0  0  0  0  0  0  0  0  0
   38.5550   22.5690   31.8880 C   0  0  0  0  0  0  0  0  0  0  0  0
   38.5480   23.4300   33.1100 C   0  0  0  0  0  0  0  0  0  0  0  0
   38.3920   22.6660   38.8820 N   0  0  0  0  0  0  0  0  0  0  0  0
   40.7071   22.0034   37.7766 H   0  0  0  0  0  0  0  0  0  0  0  0
   41.6021   23.0010   35.6262 H   0  0  0  0  0  0  0  0  0  0  0  0
   38.1984   27.2370   36.5631 H   0  0  0  0  0  0  0  0  0  0  0  0
   36.9199   28.7142   34.6929 H   0  0  0  0  0  0  0  0  0  0  0  0
   36.1612   23.0745   32.1503 H   0  0  0  0  0  0  0  0  0  0  0  0
   35.5894   24.7353   32.1564 H   0  0  0  0  0  0  0  0  0  0  0  0
   36.4770   24.2276   29.8745 H   0  0  0  0  0  0  0  0  0  0  0  0
   37.6277   25.3430   30.6327 H   0  0  0  0  0  0  0  0  0  0  0  0
   37.9347   22.5208   29.8721 H   0  0  0  0  0  0  0  0  0  0  0  0
   39.1892   23.7860   30.3155 H   0  0  0  0  0  0  0  0  0  0  0  0
   37.7987   21.7818   32.0237 H   0  0  0  0  0  0  0  0  0  0  0  0
   39.5819   22.1860   31.7944 H   0  0  0  0  0  0  0  0  0  0  0  0
   39.5278   23.9203   33.2081 H   0  0  0  0  0  0  0  0  0  0  0  0
   38.3419   22.7920   33.9820 H   0  0  0  0  0  0  0  0  0  0  0  0
   37.4838   22.9642   39.2657 H   0  0  0  0  0  0  0  0  0  0  0  0
   38.9484   21.9511   39.3720 H   0  0  0  0  0  0  0  0  0  0  0  0
  1 18  1  0
  2  1  2  0
  3  2  1  0
  4  5  1  0
  4  3  2  0
  5  6  2  0
  6  1  1  0
  7  8  1  0
  7  5  1  0
  9  8  2  0
 10 11  2  0
 10  9  1  0
 11  7  1  0
 12 17  1  0
 12 11  1  0
 13 12  1  0
 14 13  1  0
 15 14  1  0
 15 16  1  0
 16 17  1  0
  2 19  1  0
  3 20  1  0
  8 21  1  0
  9 22  1  0
 13 23  1  0
 13 24  1  0
 14 25  1  0
 14 26  1  0
 15 27  1  0
 15 28  1  0
 16 29  1  0
 16 30  1  0
 17 31  1  0
 17 32  1  0
 18 33  1  0
 18 34  1  0
M  ISO  8  19  14  20  14  21  14  22  14  23  13  24  13  25  13  26  13
M  ISO  6  27  13  28  13  29  13  30  13  31  13  32  13
M  END
>  <minimizedAffinity>  (1) 
-5.39334297

>  <minimizedRMSD>  (1) 
3.80483317

$$$$
