
     RDKit          3D

 27 29  0  0  0  0  0  0  0  0999 V2000
   38.2090   23.3450   37.2700 C   0  0  0  0  0  0  0  0  0  0  0  0
   39.5350   22.9460   36.9850 C   0  0  0  0  0  0  0  0  0  0  0  0
   40.1540   23.5730   35.8940 C   0  0  0  0  0  0  0  0  0  0  0  0
   39.4670   24.5120   35.1820 N   0  0  0  0  0  0  0  0  0  0  0  0
   38.2080   24.8480   35.5020 C   0  0  0  0  0  0  0  0  0  0  0  0
   37.5790   24.2660   36.5460 N   0  0  0  0  0  0  0  0  0  0  0  0
   37.6330   25.8400   34.6640 N   0  0  0  0  0  0  0  0  0  0  0  0
   37.3300   27.0390   35.1880 C   0  0  0  0  0  0  0  0  0  0  0  0
   36.7820   27.8420   34.1900 C   0  0  0  0  0  0  0  0  0  0  0  0
   36.7700   27.0910   33.0780 N   0  0  0  0  0  0  0  0  0  0  0  0
   37.2840   25.8790   33.3620 C   0  0  0  0  0  0  0  0  0  0  0  0
   37.4800   24.7300   32.4940 C   0  0  0  0  0  0  0  0  0  0  0  0
   38.5920   24.7750   31.6450 C   0  0  0  0  0  0  0  0  0  0  0  0
   38.7300   23.6500   30.8360 C   0  0  0  0  0  0  0  0  0  0  0  0
   37.9230   22.5780   30.8070 N   0  0  0  0  0  0  0  0  0  0  0  0
   36.8670   22.5970   31.6510 C   0  0  0  0  0  0  0  0  0  0  0  0
   36.6780   23.6510   32.4560 N   0  0  0  0  0  0  0  0  0  0  0  0
   37.5950   22.7040   38.3720 N   0  0  0  0  0  0  0  0  0  0  0  0
   40.0532   22.1848   37.5866 H   0  0  0  0  0  0  0  0  0  0  0  0
   41.1849   23.3098   35.6147 H   0  0  0  0  0  0  0  0  0  0  0  0
   37.4887   27.3382   36.2346 H   0  0  0  0  0  0  0  0  0  0  0  0
   36.4310   28.8794   34.2926 H   0  0  0  0  0  0  0  0  0  0  0  0
   39.2932   25.6221   31.6192 H   0  0  0  0  0  0  0  0  0  0  0  0
   39.5895   23.6388   30.1496 H   0  0  0  0  0  0  0  0  0  0  0  0
   36.1655   21.7501   31.6766 H   0  0  0  0  0  0  0  0  0  0  0  0
   36.6294   22.9463   38.6362 H   0  0  0  0  0  0  0  0  0  0  0  0
   38.1137   21.9951   38.9099 H   0  0  0  0  0  0  0  0  0  0  0  0
  1 18  1  0
  2  1  2  0
  3  2  1  0
  4  5  1  0
  4  3  2  0
  5  6  2  0
  6  1  1  0
  7  8  1  0
  7  5  1  0
  9  8  2  0
 10 11  2  0
 10  9  1  0
 11  7  1  0
 12 11  1  0
 13 12  2  0
 14 13  1  0
 15 14  2  0
 15 16  1  0
 16 17  2  0
 17 12  1  0
  2 19  1  0
  3 20  1  0
  8 21  1  0
  9 22  1  0
 13 23  1  0
 14 24  1  0
 16 25  1  0
 18 26  1  0
 18 27  1  0
M  ISO  7  19  14  20  14  21  14  22  14  23  14  24  14  25  14
M  END
>  <minimizedAffinity>  (1) 
-4.76216841

>  <minimizedRMSD>  (1) 
4.01572895

$$$$
