
     RDKit          3D

 26 28  0  0  0  0  0  0  0  0999 V2000
   38.9740   23.1610   37.7610 C   0  0  0  0  0  0  0  0  0  0  0  0
   40.2820   22.7650   37.3970 C   0  0  0  0  0  0  0  0  0  0  0  0
   40.7830   23.2720   36.1860 C   0  0  0  0  0  0  0  0  0  0  0  0
   39.9960   24.0950   35.4540 N   0  0  0  0  0  0  0  0  0  0  0  0
   38.7710   24.4410   35.8340 C   0  0  0  0  0  0  0  0  0  0  0  0
   38.2560   23.9690   36.9990 N   0  0  0  0  0  0  0  0  0  0  0  0
   38.0760   25.3150   34.9480 N   0  0  0  0  0  0  0  0  0  0  0  0
   37.7760   26.5530   35.3520 C   0  0  0  0  0  0  0  0  0  0  0  0
   37.1010   27.1890   34.2950 C   0  0  0  0  0  0  0  0  0  0  0  0
   37.0180   26.2950   33.2800 N   0  0  0  0  0  0  0  0  0  0  0  0
   37.6110   25.1600   33.6800 C   0  0  0  0  0  0  0  0  0  0  0  0
   37.7780   23.9160   32.9480 C   0  0  0  0  0  0  0  0  0  0  0  0
   38.6130   23.7970   31.8310 C   0  0  0  0  0  0  0  0  0  0  0  0
   38.5390   22.4890   31.3810 C   0  0  0  0  0  0  0  0  0  0  0  0
   37.6560   21.8890   32.2570 C   0  0  0  0  0  0  0  0  0  0  0  0
   37.2340   22.7610   33.1580 O   0  0  0  0  0  0  0  0  0  0  0  0
   38.4930   22.6390   38.9820 N   0  0  0  0  0  0  0  0  0  0  0  0
   40.8783   22.0926   38.0312 H   0  0  0  0  0  0  0  0  0  0  0  0
   41.7928   23.0059   35.8403 H   0  0  0  0  0  0  0  0  0  0  0  0
   38.0135   26.9936   36.3315 H   0  0  0  0  0  0  0  0  0  0  0  0
   36.7133   28.2184   34.2925 H   0  0  0  0  0  0  0  0  0  0  0  0
   39.2206   24.6002   31.3887 H   0  0  0  0  0  0  0  0  0  0  0  0
   39.0613   22.0347   30.5261 H   0  0  0  0  0  0  0  0  0  0  0  0
   37.3470   20.8343   32.2120 H   0  0  0  0  0  0  0  0  0  0  0  0
   37.5482   22.8847   39.3106 H   0  0  0  0  0  0  0  0  0  0  0  0
   39.0870   22.0126   39.5439 H   0  0  0  0  0  0  0  0  0  0  0  0
  1 17  1  0
  2  1  2  0
  3  2  1  0
  4  5  1  0
  4  3  2  0
  5  6  2  0
  6  1  1  0
  7  8  1  0
  7  5  1  0
  9  8  2  0
 10 11  2  0
 10  9  1  0
 11  7  1  0
 12 16  1  0
 12 11  1  0
 13 12  2  0
 14 13  1  0
 14 15  2  0
 15 16  1  0
  2 18  1  0
  3 19  1  0
  8 20  1  0
  9 21  1  0
 13 22  1  0
 14 23  1  0
 15 24  1  0
 17 25  1  0
 17 26  1  0
M  ISO  7  18  14  19  14  20  14  21  14  22  14  23  14  24  14
M  END
>  <minimizedAffinity>  (1) 
-4.7209301

>  <minimizedRMSD>  (1) 
3.19585061

$$$$
