
     RDKit          3D

 24 26  0  0  0  0  0  0  0  0999 V2000
   38.9470   23.1690   37.7290 C   0  0  0  0  0  0  0  0  0  0  0  0
   40.2760   22.8100   37.4100 C   0  0  0  0  0  0  0  0  0  0  0  0
   40.8090   23.3290   36.2190 C   0  0  0  0  0  0  0  0  0  0  0  0
   40.0190   24.1420   35.4480 N   0  0  0  0  0  0  0  0  0  0  0  0
   38.7710   24.4440   35.8020 C   0  0  0  0  0  0  0  0  0  0  0  0
   38.2360   23.9570   36.9440 N   0  0  0  0  0  0  0  0  0  0  0  0
   38.0820   25.2990   34.8950 N   0  0  0  0  0  0  0  0  0  0  0  0
   37.7190   26.5240   35.2930 C   0  0  0  0  0  0  0  0  0  0  0  0
   37.0650   27.1380   34.2100 C   0  0  0  0  0  0  0  0  0  0  0  0
   37.0580   26.2500   33.1850 N   0  0  0  0  0  0  0  0  0  0  0  0
   37.6750   25.1350   33.6020 C   0  0  0  0  0  0  0  0  0  0  0  0
   37.9530   23.8720   32.9280 C   0  0  0  0  0  0  0  0  0  0  0  0
   38.9510   23.4590   32.1410 N   0  0  0  0  0  0  0  0  0  0  0  0
   38.7810   22.2370   31.7630 O   0  0  0  0  0  0  0  0  0  0  0  0
   37.6580   21.8360   32.3060 C   0  0  0  0  0  0  0  0  0  0  0  0
   37.1070   22.8220   33.0410 N   0  0  0  0  0  0  0  0  0  0  0  0
   38.4310   22.6320   38.9380 N   0  0  0  0  0  0  0  0  0  0  0  0
   40.8667   22.1532   38.0655 H   0  0  0  0  0  0  0  0  0  0  0  0
   41.8374   23.0886   35.9115 H   0  0  0  0  0  0  0  0  0  0  0  0
   37.8988   26.9681   36.2832 H   0  0  0  0  0  0  0  0  0  0  0  0
   36.6379   28.1516   34.1967 H   0  0  0  0  0  0  0  0  0  0  0  0
   37.2247   20.8329   32.1794 H   0  0  0  0  0  0  0  0  0  0  0  0
   37.4686   22.8536   39.2305 H   0  0  0  0  0  0  0  0  0  0  0  0
   39.0191   22.0209   39.5224 H   0  0  0  0  0  0  0  0  0  0  0  0
  1 17  1  0
  2  1  2  0
  3  2  1  0
  4  5  1  0
  4  3  2  0
  5  6  2  0
  6  1  1  0
  7  8  1  0
  7  5  1  0
  9  8  2  0
 10 11  2  0
 10  9  1  0
 11  7  1  0
 12 16  1  0
 12 11  1  0
 13 12  2  0
 14 13  1  0
 14 15  1  0
 15 16  2  0
  2 18  1  0
  3 19  1  0
  8 20  1  0
  9 21  1  0
 15 22  1  0
 17 23  1  0
 17 24  1  0
M  ISO  5  18  14  19  14  20  14  21  14  22  14
M  END
>  <minimizedAffinity>  (1) 
-4.60568619

>  <minimizedRMSD>  (1) 
3.11816144

$$$$
