
     RDKit          3D

 22 23  0  0  0  0  0  0  0  0999 V2000
   38.2800   23.2870   37.4530 C   0  0  0  0  0  0  0  0  0  0  0  0
   39.6140   22.8810   37.1900 C   0  0  0  0  0  0  0  0  0  0  0  0
   40.2500   23.4520   36.0750 C   0  0  0  0  0  0  0  0  0  0  0  0
   39.5550   24.3520   35.3240 N   0  0  0  0  0  0  0  0  0  0  0  0
   38.2970   24.6960   35.6230 C   0  0  0  0  0  0  0  0  0  0  0  0
   37.6590   24.1660   36.6860 N   0  0  0  0  0  0  0  0  0  0  0  0
   37.7160   25.6520   34.7300 N   0  0  0  0  0  0  0  0  0  0  0  0
   37.4120   26.8730   35.1730 C   0  0  0  0  0  0  0  0  0  0  0  0
   36.8630   27.6070   34.1180 C   0  0  0  0  0  0  0  0  0  0  0  0
   36.8550   26.7880   33.0610 N   0  0  0  0  0  0  0  0  0  0  0  0
   37.3720   25.5930   33.4140 C   0  0  0  0  0  0  0  0  0  0  0  0
   37.5950   24.3330   32.6300 C   0  0  0  0  0  0  0  0  0  0  0  0
   36.9390   24.4850   31.4230 F   0  0  0  0  0  0  0  0  0  0  0  0
   37.2380   23.2250   33.3330 F   0  0  0  0  0  0  0  0  0  0  0  0
   38.9570   24.2380   32.3290 F   0  0  0  0  0  0  0  0  0  0  0  0
   37.6590   22.6980   38.5710 N   0  0  0  0  0  0  0  0  0  0  0  0
   40.1282   22.1504   37.8317 H   0  0  0  0  0  0  0  0  0  0  0  0
   41.2834   23.1793   35.8146 H   0  0  0  0  0  0  0  0  0  0  0  0
   37.5675   27.2408   36.1979 H   0  0  0  0  0  0  0  0  0  0  0  0
   36.5090   28.6480   34.1506 H   0  0  0  0  0  0  0  0  0  0  0  0
   36.6909   22.9510   38.8151 H   0  0  0  0  0  0  0  0  0  0  0  0
   38.1729   22.0141   39.1447 H   0  0  0  0  0  0  0  0  0  0  0  0
  1 16  1  0
  2  1  2  0
  3  2  1  0
  4  5  1  0
  4  3  2  0
  5  6  2  0
  6  1  1  0
  7  8  1  0
  7  5  1  0
  9  8  2  0
 10 11  2  0
 10  9  1  0
 11  7  1  0
 12 14  1  0
 12 11  1  0
 13 12  1  0
 15 12  1  0
  2 17  1  0
  3 18  1  0
  8 19  1  0
  9 20  1  0
 16 21  1  0
 16 22  1  0
M  ISO  4  17  14  18  14  19  14  20  14
M  END
>  <minimizedAffinity>  (1) 
-4.48542929

>  <minimizedRMSD>  (1) 
3.42244554

$$$$
