
     RDKit          3D

 46 48  0  0  1  0  0  0  0  0999 V2000
   40.0180   23.0620   35.8410 C   0  0  0  0  0  0  0  0  0  0  0  0
   39.6520   24.5240   35.5690 C   0  0  1  0  0  0  0  0  0  0  0  0
   39.7240   24.8310   34.1490 C   0  0  0  0  0  0  0  0  0  0  0  0
   38.4500   25.6140   33.7720 C   0  0  0  0  0  0  0  0  0  0  0  0
   38.3900   26.7890   34.7050 C   0  0  0  0  0  0  0  0  0  0  0  0
   38.2270   26.4090   36.1400 C   0  0  0  0  0  0  0  0  0  0  0  0
   38.3090   24.8800   36.2090 C   0  0  2  0  0  0  0  0  0  0  0  0
   38.2490   24.5420   37.6570 C   0  0  0  0  0  0  0  0  0  0  0  0
   37.2680   23.3660   37.7790 C   0  0  0  0  0  0  0  0  0  0  0  0
   37.7070   21.4330   33.4580 C   0  0  0  0  0  0  0  0  0  0  0  0
   38.5730   20.8620   32.5360 C   0  0  0  0  0  0  0  0  0  0  0  0
   39.9150   21.0510   32.7610 C   0  0  0  0  0  0  0  0  0  0  0  0
   40.3060   21.7620   33.8400 N   0  0  0  0  0  0  0  0  0  0  0  0
   39.4630   22.3020   34.7110 C   0  0  0  0  0  0  0  0  0  0  0  0
   38.1260   22.1370   34.5230 N   0  0  0  0  0  0  0  0  0  0  0  0
   37.9970   20.1540   31.4720 N   0  0  0  0  0  0  0  0  0  0  0  0
   37.3520   19.0050   31.8030 C   0  0  0  0  0  0  0  0  0  0  0  0
   36.7740   18.2800   30.7840 C   0  0  0  0  0  0  0  0  0  0  0  0
   36.8850   18.7630   29.5000 C   0  0  0  0  0  0  0  0  0  0  0  0
   36.3050   18.0430   28.4520 N   0  0  0  0  0  0  0  0  0  0  0  0
   37.5350   19.9050   29.2350 N   0  0  0  0  0  0  0  0  0  0  0  0
   38.1070   20.6240   30.2330 C   0  0  0  0  0  0  0  0  0  0  0  0
   38.7010   21.6800   29.9440 O   0  0  0  0  0  0  0  0  0  0  0  0
   41.1104   22.9411   35.8863 H   0  0  0  0  0  0  0  0  0  0  0  0
   39.6171   22.7130   36.8041 H   0  0  0  0  0  0  0  0  0  0  0  0
   40.3992   25.1716   36.0510 H   0  0  0  0  0  0  0  0  0  0  0  0
   40.6144   25.4432   33.9430 H   0  0  0  0  0  0  0  0  0  0  0  0
   39.7957   23.9057   33.5585 H   0  0  0  0  0  0  0  0  0  0  0  0
   38.5083   25.9579   32.7288 H   0  0  0  0  0  0  0  0  0  0  0  0
   37.5518   24.9852   33.8604 H   0  0  0  0  0  0  0  0  0  0  0  0
   39.3230   27.3625   34.6015 H   0  0  0  0  0  0  0  0  0  0  0  0
   37.5029   27.3762   34.4254 H   0  0  0  0  0  0  0  0  0  0  0  0
   39.0294   26.8583   36.7436 H   0  0  0  0  0  0  0  0  0  0  0  0
   37.2660   26.7695   36.5356 H   0  0  0  0  0  0  0  0  0  0  0  0
   37.5094   24.3317   35.6893 H   0  0  0  0  0  0  0  0  0  0  0  0
   39.2442   24.2485   38.0222 H   0  0  0  0  0  0  0  0  0  0  0  0
   37.9211   25.4032   38.2577 H   0  0  0  0  0  0  0  0  0  0  0  0
   37.0866   23.1486   38.8419 H   0  0  0  0  0  0  0  0  0  0  0  0
   36.3178   23.6290   37.2912 H   0  0  0  0  0  0  0  0  0  0  0  0
   37.6972   22.4784   37.2912 H   0  0  0  0  0  0  0  0  0  0  0  0
   36.6248   21.3029   33.3097 H   0  0  0  0  0  0  0  0  0  0  0  0
   40.6608   20.6288   32.0714 H   0  0  0  0  0  0  0  0  0  0  0  0
   37.2933   18.6656   32.8477 H   0  0  0  0  0  0  0  0  0  0  0  0
   36.2388   17.3415   30.9908 H   0  0  0  0  0  0  0  0  0  0  0  0
   36.3790   18.3908   27.4853 H   0  0  0  0  0  0  0  0  0  0  0  0
   35.8035   17.1646   28.6463 H   0  0  0  0  0  0  0  0  0  0  0  0
  2  1  1  0
  2  7  1  0
  3  2  1  0
  4  3  1  0
  4  5  1  0
  5  6  1  0
  6  7  1  0
  7  8  1  0
  8  9  1  0
 10 15  2  0
 11 12  2  0
 11 10  1  0
 12 13  1  0
 13 14  2  0
 14  1  1  0
 15 14  1  0
 16 17  1  0
 16 11  1  0
 18 17  2  0
 19 18  1  0
 20 19  1  0
 21 19  2  0
 21 22  1  0
 22 16  1  0
 23 22  2  0
  1 24  1  0
  1 25  1  0
  2 26  1  1
  3 27  1  0
  3 28  1  0
  4 29  1  0
  4 30  1  0
  5 31  1  0
  5 32  1  0
  6 33  1  0
  6 34  1  0
  7 35  1  6
  8 36  1  0
  8 37  1  0
  9 38  1  0
  9 39  1  0
  9 40  1  0
 10 41  1  0
 12 42  1  0
 17 43  1  0
 18 44  1  0
 20 45  1  0
 20 46  1  0
M  ISO  8  24   8  25   8  26  13  27  13  28  13  29  13  30  13  31  13
M  ISO  8  32  13  33  13  34  13  35  13  36   8  37   8  38   8  39   8
M  ISO  5  40   8  41  14  42  14  43  14  44  14
M  END
>  <minimizedAffinity>  (1) 
-4.45846319

>  <minimizedRMSD>  (1) 
0.739018738

$$$$
