
     RDKit          3D

 22 23  0  0  0  0  0  0  0  0999 V2000
   38.9710   23.1580   37.7620 C   0  0  0  0  0  0  0  0  0  0  0  0
   40.2990   22.7840   37.4090 C   0  0  0  0  0  0  0  0  0  0  0  0
   40.7880   23.2950   36.2200 C   0  0  0  0  0  0  0  0  0  0  0  0
   40.0060   24.1120   35.4560 N   0  0  0  0  0  0  0  0  0  0  0  0
   38.7530   24.4350   35.8370 C   0  0  0  0  0  0  0  0  0  0  0  0
   38.2270   23.9580   36.9980 N   0  0  0  0  0  0  0  0  0  0  0  0
   38.0750   25.2960   34.9360 N   0  0  0  0  0  0  0  0  0  0  0  0
   37.7600   26.5440   35.3460 C   0  0  0  0  0  0  0  0  0  0  0  0
   37.1030   27.1820   34.2790 C   0  0  0  0  0  0  0  0  0  0  0  0
   37.0470   26.2870   33.2610 N   0  0  0  0  0  0  0  0  0  0  0  0
   37.6340   25.1580   33.6690 C   0  0  0  0  0  0  0  0  0  0  0  0
   38.4680   22.6350   38.9800 N   0  0  0  0  0  0  0  0  0  0  0  0
   37.8070   23.9280   32.9120 C   0  0  0  0  0  0  0  0  0  0  0  0
   36.7910   23.2890   32.5390 O   0  0  0  0  0  0  0  0  0  0  0  0
   39.0500   23.4150   32.5740 O   0  0  0  0  0  0  0  0  0  0  0  0
   40.9039   22.1238   38.0479 H   0  0  0  0  0  0  0  0  0  0  0  0
   41.8068   23.0429   35.8905 H   0  0  0  0  0  0  0  0  0  0  0  0
   37.9773   26.9804   36.3321 H   0  0  0  0  0  0  0  0  0  0  0  0
   36.7100   28.2094   34.2712 H   0  0  0  0  0  0  0  0  0  0  0  0
   37.5136   22.8713   39.2868 H   0  0  0  0  0  0  0  0  0  0  0  0
   39.0570   22.0188   39.5581 H   0  0  0  0  0  0  0  0  0  0  0  0
   39.1141   22.5732   32.0569 H   0  0  0  0  0  0  0  0  0  0  0  0
  1 12  1  0
  2  1  2  0
  3  2  1  0
  4  5  1  0
  4  3  2  0
  5  6  2  0
  6  1  1  0
  7  8  1  0
  7  5  1  0
  9  8  2  0
 10 11  2  0
 10  9  1  0
 11  7  1  0
 13 11  1  0
 14 13  2  0
 15 13  1  0
  2 16  1  0
  3 17  1  0
  8 18  1  0
  9 19  1  0
 12 20  1  0
 12 21  1  0
 15 22  1  0
M  ISO  5  16  14  17  14  18  14  19  14  22   3
M  END
>  <minimizedAffinity>  (1) 
-4.39523697

>  <minimizedRMSD>  (1) 
3.00251102

$$$$
