
     RDKit          3D

 33 36  0  0  0  0  0  0  0  0999 V2000
   39.1100   23.1430   37.7880 C   0  0  0  0  0  0  0  0  0  0  0  0
   40.4350   22.7920   37.4440 C   0  0  0  0  0  0  0  0  0  0  0  0
   40.9160   23.2990   36.2700 C   0  0  0  0  0  0  0  0  0  0  0  0
   40.0860   24.0810   35.5570 N   0  0  0  0  0  0  0  0  0  0  0  0
   38.8680   24.4160   35.8510 C   0  0  0  0  0  0  0  0  0  0  0  0
   38.3760   23.9260   37.0060 N   0  0  0  0  0  0  0  0  0  0  0  0
   38.2090   25.2450   34.9370 N   0  0  0  0  0  0  0  0  0  0  0  0
   37.8810   26.5070   35.3290 C   0  0  0  0  0  0  0  0  0  0  0  0
   37.2330   27.1370   34.2780 C   0  0  0  0  0  0  0  0  0  0  0  0
   37.1820   26.2520   33.2830 N   0  0  0  0  0  0  0  0  0  0  0  0
   37.7800   25.0790   33.6710 C   0  0  0  0  0  0  0  0  0  0  0  0
   37.8660   23.9020   32.8800 C   0  0  0  0  0  0  0  0  0  0  0  0
   38.5630   23.9010   31.6310 C   0  0  0  0  0  0  0  0  0  0  0  0
   38.4680   22.6560   31.0460 N   0  0  0  0  0  0  0  0  0  0  0  0
   37.7110   21.9060   31.9440 C   0  0  0  0  0  0  0  0  0  0  0  0
   37.4090   22.6830   32.9720 N   0  0  0  0  0  0  0  0  0  0  0  0
   36.7990   21.8220   33.8830 C   0  0  0  0  0  0  0  0  0  0  0  0
   36.8140   21.5700   35.2280 C   0  0  0  0  0  0  0  0  0  0  0  0
   35.9010   20.5820   35.5640 C   0  0  0  0  0  0  0  0  0  0  0  0
   35.3530   20.2620   34.3790 N   0  0  0  0  0  0  0  0  0  0  0  0
   35.8760   20.9860   33.3910 N   0  0  0  0  0  0  0  0  0  0  0  0
   38.5700   22.6410   39.0260 N   0  0  0  0  0  0  0  0  0  0  0  0
   41.0475   22.1440   38.0882 H   0  0  0  0  0  0  0  0  0  0  0  0
   41.9363   23.0776   35.9235 H   0  0  0  0  0  0  0  0  0  0  0  0
   38.0940   26.9511   36.3126 H   0  0  0  0  0  0  0  0  0  0  0  0
   36.8390   28.1639   34.2674 H   0  0  0  0  0  0  0  0  0  0  0  0
   39.0945   24.7632   31.2019 H   0  0  0  0  0  0  0  0  0  0  0  0
   37.4163   20.8535   31.8202 H   0  0  0  0  0  0  0  0  0  0  0  0
   37.4660   22.0846   35.9492 H   0  0  0  0  0  0  0  0  0  0  0  0
   35.6795   20.1629   36.5566 H   0  0  0  0  0  0  0  0  0  0  0  0
   34.6218   19.5479   34.2513 H   0  0  0  0  0  0  0  0  0  0  0  0
   37.6071   22.8805   39.3025 H   0  0  0  0  0  0  0  0  0  0  0  0
   39.1469   22.0427   39.6344 H   0  0  0  0  0  0  0  0  0  0  0  0
  1 22  1  0
  2  1  2  0
  3  2  1  0
  4  5  1  0
  4  3  2  0
  5  6  2  0
  6  1  1  0
  7  8  1  0
  7  5  1  0
  9  8  2  0
 10 11  2  0
 10  9  1  0
 11  7  1  0
 12 16  1  0
 12 11  1  0
 13 12  2  0
 14 13  1  0
 14 15  2  0
 15 16  1  0
 16 17  1  0
 17 18  1  0
 18 19  2  0
 20 19  1  0
 21 17  2  0
 21 20  1  0
  2 23  1  0
  3 24  1  0
  8 25  1  0
  9 26  1  0
 13 27  1  0
 15 28  1  0
 18 29  1  0
 19 30  1  0
 20 31  1  0
 22 32  1  0
 22 33  1  0
M  ISO  8  23  14  24  14  25  14  26  14  27  14  28  14  29  14  30  14
M  ISO  1  31   9
M  END
>  <minimizedAffinity>  (1) 
-5.85466766

>  <minimizedRMSD>  (1) 
2.61419177

$$$$
