
     RDKit          3D

 34 37  0  0  0  0  0  0  0  0999 V2000
   38.7170   23.4750   36.6520 C   0  0  0  0  0  0  0  0  0  0  0  0
   40.0980   23.3770   36.3740 C   0  0  0  0  0  0  0  0  0  0  0  0
   40.5900   24.2140   35.4090 C   0  0  0  0  0  0  0  0  0  0  0  0
   39.7070   25.0440   34.8260 N   0  0  0  0  0  0  0  0  0  0  0  0
   38.4340   25.1510   35.0640 C   0  0  0  0  0  0  0  0  0  0  0  0
   37.9270   24.3360   36.0120 N   0  0  0  0  0  0  0  0  0  0  0  0
   37.7410   26.1040   34.3110 N   0  0  0  0  0  0  0  0  0  0  0  0
   37.2160   27.1800   34.9590 C   0  0  0  0  0  0  0  0  0  0  0  0
   36.5730   27.9810   34.0320 C   0  0  0  0  0  0  0  0  0  0  0  0
   36.7170   27.3790   32.8520 N   0  0  0  0  0  0  0  0  0  0  0  0
   37.4360   26.2170   33.0040 C   0  0  0  0  0  0  0  0  0  0  0  0
   37.7330   25.2950   31.9620 C   0  0  0  0  0  0  0  0  0  0  0  0
   38.5920   25.6500   30.8870 C   0  0  0  0  0  0  0  0  0  0  0  0
   38.6790   24.5960   30.0010 N   0  0  0  0  0  0  0  0  0  0  0  0
   37.8690   23.6070   30.5460 C   0  0  0  0  0  0  0  0  0  0  0  0
   37.3630   24.0750   31.6740 N   0  0  0  0  0  0  0  0  0  0  0  0
   36.6760   22.9830   32.1980 C   0  0  0  0  0  0  0  0  0  0  0  0
   35.5020   22.3980   31.7600 C   0  0  0  0  0  0  0  0  0  0  0  0
   35.0010   21.2550   32.4010 C   0  0  0  0  0  0  0  0  0  0  0  0
   35.6540   20.7190   33.4450 N   0  0  0  0  0  0  0  0  0  0  0  0
   36.7910   21.3250   33.8360 C   0  0  0  0  0  0  0  0  0  0  0  0
   37.3080   22.4370   33.2340 N   0  0  0  0  0  0  0  0  0  0  0  0
   38.1590   22.6300   37.6840 N   0  0  0  0  0  0  0  0  0  0  0  0
   40.7455   22.6643   36.9058 H   0  0  0  0  0  0  0  0  0  0  0  0
   41.6527   24.2080   35.1251 H   0  0  0  0  0  0  0  0  0  0  0  0
   37.2905   27.3792   36.0383 H   0  0  0  0  0  0  0  0  0  0  0  0
   36.0474   28.9268   34.2298 H   0  0  0  0  0  0  0  0  0  0  0  0
   39.1076   26.6155   30.7782 H   0  0  0  0  0  0  0  0  0  0  0  0
   37.6822   22.6121   30.1155 H   0  0  0  0  0  0  0  0  0  0  0  0
   34.9593   22.8302   30.9064 H   0  0  0  0  0  0  0  0  0  0  0  0
   34.0671   20.7948   32.0461 H   0  0  0  0  0  0  0  0  0  0  0  0
   37.3362   20.8992   34.6913 H   0  0  0  0  0  0  0  0  0  0  0  0
   37.1545   22.6827   37.9055 H   0  0  0  0  0  0  0  0  0  0  0  0
   38.7660   21.9753   38.1977 H   0  0  0  0  0  0  0  0  0  0  0  0
  1 23  1  0
  2  1  2  0
  3  2  1  0
  4  5  1  0
  4  3  2  0
  5  6  2  0
  6  1  1  0
  7  8  1  0
  7  5  1  0
  9  8  2  0
 10 11  2  0
 10  9  1  0
 11  7  1  0
 12 11  1  0
 13 12  2  0
 14 15  2  0
 14 13  1  0
 15 16  1  0
 16 12  1  0
 16 17  1  0
 17 22  1  0
 18 17  2  0
 18 19  1  0
 19 20  2  0
 20 21  1  0
 22 21  2  0
  2 24  1  0
  3 25  1  0
  8 26  1  0
  9 27  1  0
 13 28  1  0
 15 29  1  0
 18 30  1  0
 19 31  1  0
 21 32  1  0
 23 33  1  0
 23 34  1  0
M  ISO  8  24  14  25  14  26  14  27  14  28  14  29  14  30  14  31  14
M  ISO  1  32  14
M  END
>  <minimizedAffinity>  (1) 
-5.65318823

>  <minimizedRMSD>  (1) 
2.75331664

$$$$
