
     RDKit          3D

 31 34  0  0  0  0  0  0  0  0999 V2000
   38.1880   23.1590   37.6400 C   0  0  0  0  0  0  0  0  0  0  0  0
   39.5830   22.9340   37.6720 C   0  0  0  0  0  0  0  0  0  0  0  0
   40.3210   23.5220   36.6830 C   0  0  0  0  0  0  0  0  0  0  0  0
   39.6460   24.2540   35.7790 N   0  0  0  0  0  0  0  0  0  0  0  0
   38.3660   24.4740   35.7270 C   0  0  0  0  0  0  0  0  0  0  0  0
   37.6110   23.9040   36.6950 N   0  0  0  0  0  0  0  0  0  0  0  0
   37.9170   25.2750   34.6730 N   0  0  0  0  0  0  0  0  0  0  0  0
   37.3820   26.4910   34.9740 C   0  0  0  0  0  0  0  0  0  0  0  0
   37.0070   27.1070   33.7870 C   0  0  0  0  0  0  0  0  0  0  0  0
   37.3220   26.2600   32.8060 N   0  0  0  0  0  0  0  0  0  0  0  0
   37.8830   25.1240   33.3350 C   0  0  0  0  0  0  0  0  0  0  0  0
   38.2820   23.9840   32.5850 C   0  0  0  0  0  0  0  0  0  0  0  0
   39.5750   23.9170   31.9770 C   0  0  0  0  0  0  0  0  0  0  0  0
   39.6930   22.7390   31.2740 N   0  0  0  0  0  0  0  0  0  0  0  0
   38.4770   22.0950   31.4540 C   0  0  0  0  0  0  0  0  0  0  0  0
   37.7190   22.8630   32.2210 N   0  0  0  0  0  0  0  0  0  0  0  0
   36.5760   22.1010   32.4800 C   0  0  0  0  0  0  0  0  0  0  0  0
   35.2970   22.0890   32.0840 N   0  0  0  0  0  0  0  0  0  0  0  0
   34.6440   21.0980   32.6240 O   0  0  0  0  0  0  0  0  0  0  0  0
   35.4870   20.4580   33.3730 C   0  0  0  0  0  0  0  0  0  0  0  0
   36.7100   21.0620   33.3050 N   0  0  0  0  0  0  0  0  0  0  0  0
   37.3770   22.5690   38.6750 N   0  0  0  0  0  0  0  0  0  0  0  0
   40.0511   22.3170   38.4532 H   0  0  0  0  0  0  0  0  0  0  0  0
   41.4131   23.4024   36.6292 H   0  0  0  0  0  0  0  0  0  0  0  0
   37.2668   26.9126   35.9835 H   0  0  0  0  0  0  0  0  0  0  0  0
   36.5420   28.0979   33.6776 H   0  0  0  0  0  0  0  0  0  0  0  0
   40.3552   24.6881   32.0585 H   0  0  0  0  0  0  0  0  0  0  0  0
   38.1931   21.1189   31.0337 H   0  0  0  0  0  0  0  0  0  0  0  0
   35.2529   19.5653   33.9715 H   0  0  0  0  0  0  0  0  0  0  0  0
   36.3575   22.7160   38.6771 H   0  0  0  0  0  0  0  0  0  0  0  0
   37.8168   22.0003   39.4126 H   0  0  0  0  0  0  0  0  0  0  0  0
  1  2  2  0
  1 22  1  0
  3  2  1  0
  4  3  2  0
  5  4  1  0
  5  6  2  0
  6  1  1  0
  7  8  1  0
  7  5  1  0
  9  8  2  0
 10 11  2  0
 10  9  1  0
 11  7  1  0
 12 11  1  0
 13 12  2  0
 14 15  2  0
 14 13  1  0
 15 16  1  0
 16 17  1  0
 16 12  1  0
 17 21  1  0
 18 17  2  0
 18 19  1  0
 19 20  1  0
 21 20  2  0
  2 23  1  0
  3 24  1  0
  8 25  1  0
  9 26  1  0
 13 27  1  0
 15 28  1  0
 20 29  1  0
 22 30  1  0
 22 31  1  0
M  ISO  7  23  14  24  14  25  14  26  14  27  14  28  14  29  14
M  END
>  <minimizedAffinity>  (1) 
-5.49373007

>  <minimizedRMSD>  (1) 
2.86342072

$$$$
