
     RDKit          3D

 46 49  0  0  1  0  0  0  0  0999 V2000
   36.1890   29.4620   32.4280 C   0  0  0  0  0  0  0  0  0  0  0  0
   36.9270   28.5000   31.7820 C   0  0  0  0  0  0  0  0  0  0  0  0
   37.2850   27.3680   32.5080 C   0  0  0  0  0  0  0  0  0  0  0  0
   36.9150   27.2200   33.8210 C   0  0  0  0  0  0  0  0  0  0  0  0
   36.1800   28.1770   34.4670 C   0  0  0  0  0  0  0  0  0  0  0  0
   35.8100   29.3080   33.7750 C   0  0  0  0  0  0  0  0  0  0  0  0
   37.3970   25.9490   34.4050 C   0  0  0  0  0  0  0  0  0  0  0  0
   38.7960   26.0070   34.9060 C   0  0  2  0  0  0  0  0  0  0  0  0
   40.7480   23.1630   36.1340 C   0  0  0  0  0  0  0  0  0  0  0  0
   39.9420   22.6450   37.1970 C   0  0  0  0  0  0  0  0  0  0  0  0
   38.7190   23.2920   37.4780 C   0  0  0  0  0  0  0  0  0  0  0  0
   38.3990   24.3750   36.7020 N   0  0  0  0  0  0  0  0  0  0  0  0
   39.1890   24.8320   35.7050 C   0  0  0  0  0  0  0  0  0  0  0  0
   40.3580   24.2370   35.4160 N   0  0  0  0  0  0  0  0  0  0  0  0
   38.9410   27.2530   35.7980 C   0  0  0  0  0  0  0  0  0  0  0  0
   35.7130   30.9080   31.5520 S   0  0  0  0  0  0  0  0  0  0  0  0
   36.2620   30.7640   30.1400 O   0  0  0  0  0  0  0  0  0  0  0  0
   36.2890   32.1290   32.1660 O   0  0  0  0  0  0  0  0  0  0  0  0
   33.9820   31.0420   31.4840 C   0  0  0  0  0  0  0  0  0  0  0  0
   32.9680   30.5280   32.1980 N   0  0  0  0  0  0  0  0  0  0  0  0
   31.8250   30.9410   31.7380 O   0  0  0  0  0  0  0  0  0  0  0  0
   32.0410   31.7350   30.7100 C   0  0  0  0  0  0  0  0  0  0  0  0
   33.3470   31.7940   30.5580 N   0  0  0  0  0  0  0  0  0  0  0  0
   30.9940   32.4040   29.9180 C   0  0  0  0  0  0  0  0  0  0  0  0
   30.5440   31.9260   28.7040 C   0  0  0  0  0  0  0  0  0  0  0  0
   29.5640   32.5620   27.9730 C   0  0  0  0  0  0  0  0  0  0  0  0
   29.0270   33.7200   28.4970 C   0  0  0  0  0  0  0  0  0  0  0  0
   29.4690   34.2190   29.7200 C   0  0  0  0  0  0  0  0  0  0  0  0
   30.4310   33.5390   30.3750 N   0  0  0  0  0  0  0  0  0  0  0  0
   37.2240   28.6201   30.7297 H   0  0  0  0  0  0  0  0  0  0  0  0
   37.8751   26.5779   32.0206 H   0  0  0  0  0  0  0  0  0  0  0  0
   35.8903   28.0448   35.5199 H   0  0  0  0  0  0  0  0  0  0  0  0
   35.2191   30.0903   34.2738 H   0  0  0  0  0  0  0  0  0  0  0  0
   36.7391   25.6828   35.2454 H   0  0  0  0  0  0  0  0  0  0  0  0
   37.3777   25.2004   33.5992 H   0  0  0  0  0  0  0  0  0  0  0  0
   39.4496   26.0369   34.0218 H   0  0  0  0  0  0  0  0  0  0  0  0
   41.7053   22.6756   35.8973 H   0  0  0  0  0  0  0  0  0  0  0  0
   40.2657   21.7688   37.7779 H   0  0  0  0  0  0  0  0  0  0  0  0
   38.0543   22.9431   38.2820 H   0  0  0  0  0  0  0  0  0  0  0  0
   38.9061   26.9528   36.8557 H   0  0  0  0  0  0  0  0  0  0  0  0
   39.9024   27.7445   35.5879 H   0  0  0  0  0  0  0  0  0  0  0  0
   38.1182   27.9521   35.5879 H   0  0  0  0  0  0  0  0  0  0  0  0
   30.9849   31.0010   28.3041 H   0  0  0  0  0  0  0  0  0  0  0  0
   29.2224   32.1612   27.0072 H   0  0  0  0  0  0  0  0  0  0  0  0
   28.2415   34.2548   27.9430 H   0  0  0  0  0  0  0  0  0  0  0  0
   29.0445   35.1429   30.1399 H   0  0  0  0  0  0  0  0  0  0  0  0
  1  6  1  0
  2  1  2  0
  2  3  1  0
  3  4  2  0
  4  7  1  0
  4  5  1  0
  6  5  2  0
  7  8  1  0
  8 13  1  0
  8 15  1  0
  9 10  2  0
 10 11  1  0
 12 11  2  0
 13 12  1  0
 14 13  2  0
 14  9  1  0
 16 18  2  0
 16  1  1  0
 17 16  2  0
 19 16  1  0
 19 20  2  0
 21 20  1  0
 22 21  1  0
 23 22  2  0
 23 19  1  0
 24 29  1  0
 24 22  1  0
 25 24  2  0
 26 27  2  0
 26 25  1  0
 27 28  1  0
 28 29  2  0
  2 30  1  0
  3 31  1  0
  5 32  1  0
  6 33  1  0
  7 34  1  0
  7 35  1  0
  8 36  1  6
  9 37  1  0
 10 38  1  0
 11 39  1  0
 15 40  1  0
 15 41  1  0
 15 42  1  0
 25 43  1  0
 26 44  1  0
 27 45  1  0
 28 46  1  0
M  ISO  8  30  14  31  14  32  14  33  14  34   8  35   8  36   8  37  14
M  ISO  8  38  14  39  14  40   8  41   8  42   8  43  14  44  14  45  14
M  ISO  1  46  14
M  END
>  <minimizedAffinity>  (1) 
-5.47377396

>  <minimizedRMSD>  (1) 
0.799841762

$$$$
