
     RDKit          3D

 55 58  0  0  1  0  0  0  0  0999 V2000
   40.4100   22.6570   35.3790 C   0  0  0  0  0  0  0  0  0  0  0  0
   40.5580   24.1040   34.8950 C   0  0  1  0  0  0  0  0  0  0  0  0
   41.0190   24.1670   33.5220 C   0  0  0  0  0  0  0  0  0  0  0  0
   40.1430   25.1930   32.7780 C   0  0  0  0  0  0  0  0  0  0  0  0
   40.1790   26.4640   33.5780 C   0  0  0  0  0  0  0  0  0  0  0  0
   39.6120   26.3400   34.9540 C   0  0  0  0  0  0  0  0  0  0  0  0
   39.2580   24.8650   35.1690 C   0  0  2  0  0  0  0  0  0  0  0  0
   38.7200   24.6140   36.4580 N   0  0  0  0  0  0  0  0  0  0  0  0
   37.3480   24.2730   36.5490 C   0  0  0  0  0  0  0  0  0  0  0  0
   37.1660   22.9580   37.3210 C   0  0  0  0  0  0  0  0  0  0  0  0
   37.8370   23.0480   38.6670 C   0  0  0  0  0  0  0  0  0  0  0  0
   39.2380   23.6540   38.5800 C   0  0  0  0  0  0  0  0  0  0  0  0
   39.5840   23.6450   37.1060 C   0  0  0  0  0  0  0  0  0  0  0  0
   37.9680   21.2710   32.9710 C   0  0  0  0  0  0  0  0  0  0  0  0
   38.7700   20.5360   32.1110 C   0  0  0  0  0  0  0  0  0  0  0  0
   40.1220   20.5340   32.3810 C   0  0  0  0  0  0  0  0  0  0  0  0
   40.5810   21.2340   33.4440 N   0  0  0  0  0  0  0  0  0  0  0  0
   39.7960   21.9310   34.2520 C   0  0  0  0  0  0  0  0  0  0  0  0
   38.4540   21.9570   34.0190 N   0  0  0  0  0  0  0  0  0  0  0  0
   38.1350   19.8660   31.0550 N   0  0  0  0  0  0  0  0  0  0  0  0
   37.4230   18.7580   31.4020 C   0  0  0  0  0  0  0  0  0  0  0  0
   36.7860   18.0760   30.3850 C   0  0  0  0  0  0  0  0  0  0  0  0
   36.9080   18.5500   29.1040 C   0  0  0  0  0  0  0  0  0  0  0  0
   36.2680   17.8650   28.0680 N   0  0  0  0  0  0  0  0  0  0  0  0
   37.6290   19.6550   28.8240 N   0  0  0  0  0  0  0  0  0  0  0  0
   38.2570   20.3320   29.8120 C   0  0  0  0  0  0  0  0  0  0  0  0
   38.9170   21.3520   29.5170 O   0  0  0  0  0  0  0  0  0  0  0  0
   41.3939   22.2296   35.6225 H   0  0  0  0  0  0  0  0  0  0  0  0
   39.7994   22.5901   36.2915 H   0  0  0  0  0  0  0  0  0  0  0  0
   41.3492   24.6126   35.4653 H   0  0  0  0  0  0  0  0  0  0  0  0
   42.0719   24.4844   33.4949 H   0  0  0  0  0  0  0  0  0  0  0  0
   40.9424   23.1787   33.0451 H   0  0  0  0  0  0  0  0  0  0  0  0
   40.5435   25.3704   31.7690 H   0  0  0  0  0  0  0  0  0  0  0  0
   39.1118   24.8250   32.6722 H   0  0  0  0  0  0  0  0  0  0  0  0
   41.2270   26.7868   33.6650 H   0  0  0  0  0  0  0  0  0  0  0  0
   39.5508   27.1912   33.0427 H   0  0  0  0  0  0  0  0  0  0  0  0
   40.3558   26.6610   35.6981 H   0  0  0  0  0  0  0  0  0  0  0  0
   38.7210   26.9751   35.0670 H   0  0  0  0  0  0  0  0  0  0  0  0
   38.4548   24.5341   34.4942 H   0  0  0  0  0  0  0  0  0  0  0  0
   36.8100   25.0768   37.0729 H   0  0  0  0  0  0  0  0  0  0  0  0
   36.9470   24.1451   35.5327 H   0  0  0  0  0  0  0  0  0  0  0  0
   36.0923   22.7652   37.4624 H   0  0  0  0  0  0  0  0  0  0  0  0
   37.6222   22.1383   36.7465 H   0  0  0  0  0  0  0  0  0  0  0  0
   37.2209   23.6757   39.3277 H   0  0  0  0  0  0  0  0  0  0  0  0
   37.9374   22.0259   39.0609 H   0  0  0  0  0  0  0  0  0  0  0  0
   39.2382   24.6826   38.9699 H   0  0  0  0  0  0  0  0  0  0  0  0
   39.9683   23.0882   39.1770 H   0  0  0  0  0  0  0  0  0  0  0  0
   39.4111   22.6439   36.6841 H   0  0  0  0  0  0  0  0  0  0  0  0
   40.6428   23.9000   36.9513 H   0  0  0  0  0  0  0  0  0  0  0  0
   36.8838   21.2934   32.7866 H   0  0  0  0  0  0  0  0  0  0  0  0
   40.8177   19.9712   31.7412 H   0  0  0  0  0  0  0  0  0  0  0  0
   37.3584   18.4213   32.4472 H   0  0  0  0  0  0  0  0  0  0  0  0
   36.1943   17.1733   30.5971 H   0  0  0  0  0  0  0  0  0  0  0  0
   36.3477   18.2054   27.0991 H   0  0  0  0  0  0  0  0  0  0  0  0
   35.7165   17.0196   28.2731 H   0  0  0  0  0  0  0  0  0  0  0  0
  2  7  1  0
  2  1  1  0
  3  2  1  0
  4  3  1  0
  4  5  1  0
  5  6  1  0
  6  7  1  0
  7  8  1  0
  8  9  1  0
  8 13  1  0
  9 10  1  0
 10 11  1  0
 12 11  1  0
 13 12  1  0
 14 19  2  0
 15 16  2  0
 15 14  1  0
 16 17  1  0
 17 18  2  0
 18  1  1  0
 19 18  1  0
 20 21  1  0
 20 15  1  0
 22 21  2  0
 23 22  1  0
 24 23  1  0
 25 23  2  0
 25 26  1  0
 26 20  1  0
 27 26  2  0
  1 28  1  0
  1 29  1  0
  2 30  1  1
  3 31  1  0
  3 32  1  0
  4 33  1  0
  4 34  1  0
  5 35  1  0
  5 36  1  0
  6 37  1  0
  6 38  1  0
  7 39  1  6
  9 40  1  0
  9 41  1  0
 10 42  1  0
 10 43  1  0
 11 44  1  0
 11 45  1  0
 12 46  1  0
 12 47  1  0
 13 48  1  0
 13 49  1  0
 14 50  1  0
 16 51  1  0
 21 52  1  0
 22 53  1  0
 24 54  1  0
 24 55  1  0
M  ISO  8  28   8  29   8  30  13  31  13  32  13  33  13  34  13  35  13
M  ISO  8  36  13  37  13  38  13  39  13  40  13  41  13  42  13  43  13
M  ISO  8  44  13  45  13  46  13  47  13  48  13  49  13  50  14  51  14
M  ISO  2  52  14  53  14
M  END
>  <minimizedAffinity>  (1) 
-4.35235167

>  <minimizedRMSD>  (1) 
1.47835016

$$$$
