
     RDKit          3D

 53 58  0  0  0  0  0  0  0  0999 V2000
   38.3070   25.9080   31.6440 C   0  0  0  0  0  0  0  0  0  0  0  0
   38.7760   26.6090   30.5130 C   0  0  0  0  0  0  0  0  0  0  0  0
   39.2190   25.7100   29.5760 N   0  0  0  0  0  0  0  0  0  0  0  0
   39.0200   24.4430   30.1350 C   0  0  0  0  0  0  0  0  0  0  0  0
   38.4920   24.6470   31.3340 N   0  0  0  0  0  0  0  0  0  0  0  0
   38.3900   23.3540   31.8530 C   0  0  0  0  0  0  0  0  0  0  0  0
   39.5250   22.9570   32.4400 N   0  0  0  0  0  0  0  0  0  0  0  0
   39.6160   21.6980   32.9430 C   0  0  0  0  0  0  0  0  0  0  0  0
   38.6290   20.8060   32.8930 N   0  0  0  0  0  0  0  0  0  0  0  0
   37.4640   21.1620   32.3130 C   0  0  0  0  0  0  0  0  0  0  0  0
   36.3720   20.3470   32.1880 C   0  0  0  0  0  0  0  0  0  0  0  0
   35.2250   20.7580   31.5860 C   0  0  0  0  0  0  0  0  0  0  0  0
   35.1510   22.0520   31.0760 C   0  0  0  0  0  0  0  0  0  0  0  0
   36.2120   22.9180   31.1690 C   0  0  0  0  0  0  0  0  0  0  0  0
   37.3420   22.4540   31.7840 C   0  0  0  0  0  0  0  0  0  0  0  0
   39.0480   23.4650   36.0990 C   0  0  0  0  0  0  0  0  0  0  0  0
   40.4590   23.6150   35.9900 C   0  0  0  0  0  0  0  0  0  0  0  0
   40.9190   24.6620   35.2340 C   0  0  0  0  0  0  0  0  0  0  0  0
   39.9830   25.4400   34.6730 N   0  0  0  0  0  0  0  0  0  0  0  0
   38.6860   25.3240   34.7580 C   0  0  0  0  0  0  0  0  0  0  0  0
   38.2160   24.3050   35.4930 N   0  0  0  0  0  0  0  0  0  0  0  0
   37.9410   26.2890   34.0690 N   0  0  0  0  0  0  0  0  0  0  0  0
   37.2110   27.1740   34.7980 C   0  0  0  0  0  0  0  0  0  0  0  0
   36.5610   28.0340   33.9280 C   0  0  0  0  0  0  0  0  0  0  0  0
   36.9070   27.6550   32.6950 N   0  0  0  0  0  0  0  0  0  0  0  0
   37.7620   26.5750   32.7770 C   0  0  0  0  0  0  0  0  0  0  0  0
   35.6490   29.1630   34.3130 C   0  0  0  0  0  0  0  0  0  0  0  0
   35.4380   30.1550   33.2200 C   0  0  0  0  0  0  0  0  0  0  0  0
   35.0150   31.4110   33.9700 C   0  0  0  0  0  0  0  0  0  0  0  0
   35.3280   31.1850   35.4290 C   0  0  0  0  0  0  0  0  0  0  0  0
   36.3140   30.0210   35.3920 C   0  0  0  0  0  0  0  0  0  0  0  0
   38.5270   22.3820   36.8990 N   0  0  0  0  0  0  0  0  0  0  0  0
   38.7851   27.7032   30.4003 H   0  0  0  0  0  0  0  0  0  0  0  0
   39.2544   23.4728   29.6728 H   0  0  0  0  0  0  0  0  0  0  0  0
   40.5609   21.3981   33.4196 H   0  0  0  0  0  0  0  0  0  0  0  0
   36.4243   19.3239   32.5886 H   0  0  0  0  0  0  0  0  0  0  0  0
   34.3653   20.0769   31.5025 H   0  0  0  0  0  0  0  0  0  0  0  0
   34.2234   22.3868   30.5887 H   0  0  0  0  0  0  0  0  0  0  0  0
   36.1558   23.9402   30.7666 H   0  0  0  0  0  0  0  0  0  0  0  0
   41.1504   22.9211   36.4905 H   0  0  0  0  0  0  0  0  0  0  0  0
   41.9936   24.8524   35.0959 H   0  0  0  0  0  0  0  0  0  0  0  0
   37.1470   27.2025   35.8958 H   0  0  0  0  0  0  0  0  0  0  0  0
   34.7116   28.6695   34.6092 H   0  0  0  0  0  0  0  0  0  0  0  0
   34.6478   29.8215   32.5312 H   0  0  0  0  0  0  0  0  0  0  0  0
   36.3302   30.3050   32.5943 H   0  0  0  0  0  0  0  0  0  0  0  0
   35.5743   32.2806   33.5947 H   0  0  0  0  0  0  0  0  0  0  0  0
   33.9426   31.6095   33.8264 H   0  0  0  0  0  0  0  0  0  0  0  0
   35.7873   32.0781   35.8778 H   0  0  0  0  0  0  0  0  0  0  0  0
   34.4350   30.9776   36.0369 H   0  0  0  0  0  0  0  0  0  0  0  0
   36.3675   29.4973   36.3579 H   0  0  0  0  0  0  0  0  0  0  0  0
   37.3595   30.2984   35.1921 H   0  0  0  0  0  0  0  0  0  0  0  0
   37.5093   22.2540   36.9923 H   0  0  0  0  0  0  0  0  0  0  0  0
   39.1730   21.7374   37.3765 H   0  0  0  0  0  0  0  0  0  0  0  0
  1 26  1  0
  2  1  2  0
  3  4  2  0
  3  2  1  0
  4  5  1  0
  5  1  1  0
  5  6  1  0
  6  7  2  0
  7  8  1  0
  9  8  2  0
 10  9  1  0
 11 10  2  0
 12 11  1  0
 13 14  1  0
 13 12  2  0
 14 15  2  0
 15  6  1  0
 15 10  1  0
 16 32  1  0
 17 16  2  0
 18 17  1  0
 19 20  1  0
 19 18  2  0
 20 21  2  0
 21 16  1  0
 22 20  1  0
 22 23  1  0
 24 27  1  0
 24 23  2  0
 25 26  2  0
 25 24  1  0
 26 22  1  0
 27 31  1  0
 28 29  1  0
 28 27  1  0
 29 30  1  0
 31 30  1  0
  2 33  1  0
  4 34  1  0
  8 35  1  0
 11 36  1  0
 12 37  1  0
 13 38  1  0
 14 39  1  0
 17 40  1  0
 18 41  1  0
 23 42  1  0
 27 43  1  0
 28 44  1  0
 28 45  1  0
 29 46  1  0
 29 47  1  0
 30 48  1  0
 30 49  1  0
 31 50  1  0
 31 51  1  0
 32 52  1  0
 32 53  1  0
M  ISO  8  33  14  34  14  35  14  36  14  37  14  38  14  39  14  40  14
M  ISO  8  41  14  42  14  43  13  44  13  45  13  46  13  47  13  48  13
M  ISO  3  49  13  50  13  51  13
M  END
>  <minimizedAffinity>  (1) 
-6.82318211

>  <minimizedRMSD>  (1) 
0.612817705

$$$$
