
     RDKit          3D

 47 52  0  0  0  0  0  0  0  0999 V2000
   39.1370   23.4870   36.0980 C   0  0  0  0  0  0  0  0  0  0  0  0
   40.5420   23.6610   35.9610 C   0  0  0  0  0  0  0  0  0  0  0  0
   40.9680   24.7310   35.2180 C   0  0  0  0  0  0  0  0  0  0  0  0
   40.0050   25.5060   34.6950 N   0  0  0  0  0  0  0  0  0  0  0  0
   38.7110   25.3670   34.8060 C   0  0  0  0  0  0  0  0  0  0  0  0
   38.2760   24.3270   35.5280 N   0  0  0  0  0  0  0  0  0  0  0  0
   37.9330   26.3340   34.1540 N   0  0  0  0  0  0  0  0  0  0  0  0
   37.1970   27.1870   34.9150 C   0  0  0  0  0  0  0  0  0  0  0  0
   36.5170   28.0490   34.0800 C   0  0  0  0  0  0  0  0  0  0  0  0
   36.8460   27.7110   32.8390 N   0  0  0  0  0  0  0  0  0  0  0  0
   37.7270   26.6430   32.8730 C   0  0  0  0  0  0  0  0  0  0  0  0
   38.2580   26.0100   31.7110 C   0  0  0  0  0  0  0  0  0  0  0  0
   38.7060   26.7420   30.5950 C   0  0  0  0  0  0  0  0  0  0  0  0
   39.1360   25.8700   29.6280 N   0  0  0  0  0  0  0  0  0  0  0  0
   38.9490   24.5870   30.1570 C   0  0  0  0  0  0  0  0  0  0  0  0
   38.4410   24.7570   31.3670 N   0  0  0  0  0  0  0  0  0  0  0  0
   38.3550   23.4500   31.8540 C   0  0  0  0  0  0  0  0  0  0  0  0
   39.5030   23.0460   32.4120 N   0  0  0  0  0  0  0  0  0  0  0  0
   39.6050   21.7740   32.8820 C   0  0  0  0  0  0  0  0  0  0  0  0
   38.6200   20.8790   32.8260 N   0  0  0  0  0  0  0  0  0  0  0  0
   37.4490   21.2430   32.2740 C   0  0  0  0  0  0  0  0  0  0  0  0
   36.3580   20.4270   32.1510 C   0  0  0  0  0  0  0  0  0  0  0  0
   35.1910   20.8510   31.5770 C   0  0  0  0  0  0  0  0  0  0  0  0
   35.1060   22.1550   31.1000 C   0  0  0  0  0  0  0  0  0  0  0  0
   36.1660   23.0210   31.1950 C   0  0  0  0  0  0  0  0  0  0  0  0
   37.3090   22.5460   31.7790 C   0  0  0  0  0  0  0  0  0  0  0  0
   35.6040   29.1330   34.4490 C   0  0  0  0  0  0  0  0  0  0  0  0
   35.9800   30.2860   35.1020 C   0  0  0  0  0  0  0  0  0  0  0  0
   34.8180   31.0070   35.2400 C   0  0  0  0  0  0  0  0  0  0  0  0
   33.7960   30.2940   34.6830 C   0  0  0  0  0  0  0  0  0  0  0  0
   34.3120   29.1850   34.2250 O   0  0  0  0  0  0  0  0  0  0  0  0
   38.6500   22.3790   36.8860 N   0  0  0  0  0  0  0  0  0  0  0  0
   41.2551   22.9675   36.4306 H   0  0  0  0  0  0  0  0  0  0  0  0
   42.0359   24.9421   35.0597 H   0  0  0  0  0  0  0  0  0  0  0  0
   37.1514   27.1893   36.0141 H   0  0  0  0  0  0  0  0  0  0  0  0
   38.7104   27.8389   30.5119 H   0  0  0  0  0  0  0  0  0  0  0  0
   39.1783   23.6300   29.6654 H   0  0  0  0  0  0  0  0  0  0  0  0
   40.5584   21.4656   33.3358 H   0  0  0  0  0  0  0  0  0  0  0  0
   36.4213   19.3950   32.5264 H   0  0  0  0  0  0  0  0  0  0  0  0
   34.3312   20.1699   31.4937 H   0  0  0  0  0  0  0  0  0  0  0  0
   34.1694   22.4990   30.6370 H   0  0  0  0  0  0  0  0  0  0  0  0
   36.1000   24.0523   30.8181 H   0  0  0  0  0  0  0  0  0  0  0  0
   36.9885   30.5678   35.4390 H   0  0  0  0  0  0  0  0  0  0  0  0
   34.7269   31.9931   35.7189 H   0  0  0  0  0  0  0  0  0  0  0  0
   32.7395   30.5958   34.6300 H   0  0  0  0  0  0  0  0  0  0  0  0
   37.6366   22.2335   36.9990 H   0  0  0  0  0  0  0  0  0  0  0  0
   39.3161   21.7343   37.3350 H   0  0  0  0  0  0  0  0  0  0  0  0
  1 32  1  0
  2  1  2  0
  3  2  1  0
  4  5  1  0
  4  3  2  0
  5  6  2  0
  6  1  1  0
  7  5  1  0
  7  8  1  0
  9 27  1  0
  9  8  2  0
 10 11  2  0
 10  9  1  0
 11  7  1  0
 12 11  1  0
 13 12  2  0
 14 15  2  0
 14 13  1  0
 15 16  1  0
 16 12  1  0
 16 17  1  0
 17 18  2  0
 18 19  1  0
 20 19  2  0
 21 20  1  0
 22 21  2  0
 23 22  1  0
 24 25  1  0
 24 23  2  0
 25 26  2  0
 26 17  1  0
 26 21  1  0
 27 28  2  0
 28 29  1  0
 30 29  2  0
 31 27  1  0
 31 30  1  0
  2 33  1  0
  3 34  1  0
  8 35  1  0
 13 36  1  0
 15 37  1  0
 19 38  1  0
 22 39  1  0
 23 40  1  0
 24 41  1  0
 25 42  1  0
 28 43  1  0
 29 44  1  0
 30 45  1  0
 32 46  1  0
 32 47  1  0
M  ISO  8  33  14  34  14  35  14  36  14  37  14  38  14  39  14  40  14
M  ISO  5  41  14  42  14  43  14  44  14  45  14
M  END
>  <minimizedAffinity>  (1) 
-6.80386162

>  <minimizedRMSD>  (1) 
0.511705101

$$$$
