
     RDKit          3D

 48 53  0  0  0  0  0  0  0  0999 V2000
   39.0090   23.5340   36.1030 C   0  0  0  0  0  0  0  0  0  0  0  0
   40.4180   23.6850   35.9940 C   0  0  0  0  0  0  0  0  0  0  0  0
   40.8770   24.7320   35.2380 C   0  0  0  0  0  0  0  0  0  0  0  0
   39.9370   25.5070   34.6760 N   0  0  0  0  0  0  0  0  0  0  0  0
   38.6480   25.3910   34.7580 C   0  0  0  0  0  0  0  0  0  0  0  0
   38.1750   24.3710   35.4950 N   0  0  0  0  0  0  0  0  0  0  0  0
   37.8910   26.3510   34.0690 N   0  0  0  0  0  0  0  0  0  0  0  0
   37.1440   27.2280   34.7930 C   0  0  0  0  0  0  0  0  0  0  0  0
   36.4900   28.0750   33.9250 C   0  0  0  0  0  0  0  0  0  0  0  0
   36.8420   27.7080   32.7020 N   0  0  0  0  0  0  0  0  0  0  0  0
   37.7130   26.6340   32.7770 C   0  0  0  0  0  0  0  0  0  0  0  0
   38.2630   25.9670   31.6420 C   0  0  0  0  0  0  0  0  0  0  0  0
   38.7330   26.6690   30.5120 C   0  0  0  0  0  0  0  0  0  0  0  0
   39.1740   25.7680   29.5790 N   0  0  0  0  0  0  0  0  0  0  0  0
   38.9740   24.5020   30.1380 C   0  0  0  0  0  0  0  0  0  0  0  0
   38.4470   24.7050   31.3350 N   0  0  0  0  0  0  0  0  0  0  0  0
   38.3460   23.4100   31.8560 C   0  0  0  0  0  0  0  0  0  0  0  0
   39.4820   23.0190   32.4430 N   0  0  0  0  0  0  0  0  0  0  0  0
   39.5770   21.7620   32.9480 C   0  0  0  0  0  0  0  0  0  0  0  0
   38.5900   20.8670   32.8990 N   0  0  0  0  0  0  0  0  0  0  0  0
   37.4290   21.2200   32.3170 C   0  0  0  0  0  0  0  0  0  0  0  0
   36.3360   20.4010   32.1950 C   0  0  0  0  0  0  0  0  0  0  0  0
   35.1830   20.8140   31.5900 C   0  0  0  0  0  0  0  0  0  0  0  0
   35.1090   22.1050   31.0800 C   0  0  0  0  0  0  0  0  0  0  0  0
   36.1700   22.9700   31.1720 C   0  0  0  0  0  0  0  0  0  0  0  0
   37.3020   22.5090   31.7860 C   0  0  0  0  0  0  0  0  0  0  0  0
   35.5770   29.1740   34.2420 C   0  0  0  0  0  0  0  0  0  0  0  0
   35.9290   30.2060   35.0900 C   0  0  0  0  0  0  0  0  0  0  0  0
   35.0520   31.2490   35.3860 C   0  0  0  0  0  0  0  0  0  0  0  0
   33.8330   31.2230   34.8130 N   0  0  0  0  0  0  0  0  0  0  0  0
   33.4700   30.2270   33.9850 C   0  0  0  0  0  0  0  0  0  0  0  0
   34.3290   29.2220   33.7060 N   0  0  0  0  0  0  0  0  0  0  0  0
   38.4920   22.4530   36.9070 N   0  0  0  0  0  0  0  0  0  0  0  0
   41.1100   22.9918   36.4946 H   0  0  0  0  0  0  0  0  0  0  0  0
   41.9511   24.9252   35.1003 H   0  0  0  0  0  0  0  0  0  0  0  0
   37.0738   27.2562   35.8904 H   0  0  0  0  0  0  0  0  0  0  0  0
   38.7436   27.7631   30.3985 H   0  0  0  0  0  0  0  0  0  0  0  0
   39.2078   23.5317   29.6755 H   0  0  0  0  0  0  0  0  0  0  0  0
   40.5227   21.4651   33.4250 H   0  0  0  0  0  0  0  0  0  0  0  0
   36.3894   19.3786   32.5972 H   0  0  0  0  0  0  0  0  0  0  0  0
   34.3232   20.1329   31.5074 H   0  0  0  0  0  0  0  0  0  0  0  0
   34.1813   22.4398   30.5929 H   0  0  0  0  0  0  0  0  0  0  0  0
   36.1127   23.9918   30.7687 H   0  0  0  0  0  0  0  0  0  0  0  0
   36.9304   30.2051   35.5451 H   0  0  0  0  0  0  0  0  0  0  0  0
   35.3452   32.0644   36.0636 H   0  0  0  0  0  0  0  0  0  0  0  0
   32.4675   30.2307   33.5322 H   0  0  0  0  0  0  0  0  0  0  0  0
   37.4747   22.3225   37.0017 H   0  0  0  0  0  0  0  0  0  0  0  0
   39.1403   21.8119   37.3862 H   0  0  0  0  0  0  0  0  0  0  0  0
  1 33  1  0
  2  1  2  0
  3  2  1  0
  4  5  1  0
  4  3  2  0
  5  6  2  0
  6  1  1  0
  7  5  1  0
  7  8  1  0
  9 27  1  0
  9  8  2  0
 10 11  2  0
 10  9  1  0
 11  7  1  0
 12 11  1  0
 13 12  2  0
 14 15  2  0
 14 13  1  0
 15 16  1  0
 16 12  1  0
 16 17  1  0
 17 18  2  0
 18 19  1  0
 20 19  2  0
 21 20  1  0
 22 21  2  0
 23 22  1  0
 24 25  1  0
 24 23  2  0
 25 26  2  0
 26 17  1  0
 26 21  1  0
 27 28  2  0
 28 29  1  0
 30 29  2  0
 31 30  1  0
 32 31  2  0
 32 27  1  0
  2 34  1  0
  3 35  1  0
  8 36  1  0
 13 37  1  0
 15 38  1  0
 19 39  1  0
 22 40  1  0
 23 41  1  0
 24 42  1  0
 25 43  1  0
 28 44  1  0
 29 45  1  0
 31 46  1  0
 33 47  1  0
 33 48  1  0
M  ISO  8  34  14  35  14  36  14  37  14  38  14  39  14  40  14  41  14
M  ISO  5  42  14  43  14  44  14  45  14  46  14
M  END
>  <minimizedAffinity>  (1) 
-6.84812307

>  <minimizedRMSD>  (1) 
0.607288003

$$$$
