
     RDKit          3D

 47 52  0  0  0  0  0  0  0  0999 V2000
   39.0270   23.5150   36.1080 C   0  0  0  0  0  0  0  0  0  0  0  0
   40.4380   23.6640   35.9890 C   0  0  0  0  0  0  0  0  0  0  0  0
   40.8920   24.7240   35.2520 C   0  0  0  0  0  0  0  0  0  0  0  0
   39.9510   25.5160   34.7130 N   0  0  0  0  0  0  0  0  0  0  0  0
   38.6590   25.4000   34.8060 C   0  0  0  0  0  0  0  0  0  0  0  0
   38.1900   24.3670   35.5260 N   0  0  0  0  0  0  0  0  0  0  0  0
   37.9070   26.3780   34.1410 N   0  0  0  0  0  0  0  0  0  0  0  0
   37.1730   27.2440   34.8900 C   0  0  0  0  0  0  0  0  0  0  0  0
   36.5150   28.1160   34.0460 C   0  0  0  0  0  0  0  0  0  0  0  0
   36.8560   27.7700   32.8030 N   0  0  0  0  0  0  0  0  0  0  0  0
   37.7190   26.6910   32.8580 C   0  0  0  0  0  0  0  0  0  0  0  0
   38.2580   26.0430   31.7060 C   0  0  0  0  0  0  0  0  0  0  0  0
   38.7150   26.7620   30.5860 C   0  0  0  0  0  0  0  0  0  0  0  0
   39.1470   25.8800   29.6270 N   0  0  0  0  0  0  0  0  0  0  0  0
   38.9500   24.6020   30.1660 C   0  0  0  0  0  0  0  0  0  0  0  0
   38.4360   24.7870   31.3730 N   0  0  0  0  0  0  0  0  0  0  0  0
   38.3410   23.4830   31.8700 C   0  0  0  0  0  0  0  0  0  0  0  0
   39.4810   23.0770   32.4390 N   0  0  0  0  0  0  0  0  0  0  0  0
   39.5760   21.8100   32.9190 C   0  0  0  0  0  0  0  0  0  0  0  0
   38.5890   20.9190   32.8630 N   0  0  0  0  0  0  0  0  0  0  0  0
   37.4180   21.2850   32.2980 C   0  0  0  0  0  0  0  0  0  0  0  0
   36.3240   20.4700   32.1680 C   0  0  0  0  0  0  0  0  0  0  0  0
   35.1750   20.8920   31.5840 C   0  0  0  0  0  0  0  0  0  0  0  0
   35.0940   22.1960   31.0970 C   0  0  0  0  0  0  0  0  0  0  0  0
   36.1550   23.0570   31.1980 C   0  0  0  0  0  0  0  0  0  0  0  0
   37.2910   22.5850   31.7940 C   0  0  0  0  0  0  0  0  0  0  0  0
   35.6360   29.1880   34.4070 N   0  0  0  0  0  0  0  0  0  0  0  0
   36.1220   30.1590   35.1900 N   0  0  0  0  0  0  0  0  0  0  0  0
   35.1520   31.0600   35.4120 C   0  0  0  0  0  0  0  0  0  0  0  0
   34.0260   30.6000   34.7230 C   0  0  0  0  0  0  0  0  0  0  0  0
   34.3470   29.3990   34.0820 C   0  0  0  0  0  0  0  0  0  0  0  0
   38.5130   22.4170   36.8910 N   0  0  0  0  0  0  0  0  0  0  0  0
   41.1325   22.9583   36.4683 H   0  0  0  0  0  0  0  0  0  0  0  0
   41.9657   24.9161   35.1094 H   0  0  0  0  0  0  0  0  0  0  0  0
   37.1134   27.2488   35.9884 H   0  0  0  0  0  0  0  0  0  0  0  0
   38.7245   27.8581   30.4936 H   0  0  0  0  0  0  0  0  0  0  0  0
   39.1764   23.6393   29.6843 H   0  0  0  0  0  0  0  0  0  0  0  0
   40.5253   21.5020   33.3816 H   0  0  0  0  0  0  0  0  0  0  0  0
   36.3796   19.4399   32.5498 H   0  0  0  0  0  0  0  0  0  0  0  0
   34.3150   20.2119   31.4954 H   0  0  0  0  0  0  0  0  0  0  0  0
   34.1623   22.5394   30.6236 H   0  0  0  0  0  0  0  0  0  0  0  0
   36.0951   24.0864   30.8150 H   0  0  0  0  0  0  0  0  0  0  0  0
   35.2280   31.9767   36.0153 H   0  0  0  0  0  0  0  0  0  0  0  0
   33.0472   31.1009   34.6903 H   0  0  0  0  0  0  0  0  0  0  0  0
   33.6957   28.7712   33.4561 H   0  0  0  0  0  0  0  0  0  0  0  0
   37.4961   22.2881   36.9920 H   0  0  0  0  0  0  0  0  0  0  0  0
   39.1631   21.7622   37.3488 H   0  0  0  0  0  0  0  0  0  0  0  0
  1 32  1  0
  2  1  2  0
  3  2  1  0
  4  5  1  0
  4  3  2  0
  5  6  2  0
  6  1  1  0
  7  5  1  0
  7  8  1  0
  9 27  1  0
  9  8  2  0
 10 11  2  0
 10  9  1  0
 11  7  1  0
 12 11  1  0
 13 12  2  0
 14 15  2  0
 14 13  1  0
 15 16  1  0
 16 12  1  0
 16 17  1  0
 17 18  2  0
 18 19  1  0
 20 19  2  0
 21 20  1  0
 22 21  2  0
 23 22  1  0
 24 25  1  0
 24 23  2  0
 25 26  2  0
 26 17  1  0
 26 21  1  0
 27 28  1  0
 28 29  2  0
 30 29  1  0
 31 27  1  0
 31 30  2  0
  2 33  1  0
  3 34  1  0
  8 35  1  0
 13 36  1  0
 15 37  1  0
 19 38  1  0
 22 39  1  0
 23 40  1  0
 24 41  1  0
 25 42  1  0
 29 43  1  0
 30 44  1  0
 31 45  1  0
 32 46  1  0
 32 47  1  0
M  ISO  8  33  14  34  14  35  14  36  14  37  14  38  14  39  14  40  14
M  ISO  5  41  14  42  14  43  14  44  14  45  14
M  END
>  <minimizedAffinity>  (1) 
-6.67645216

>  <minimizedRMSD>  (1) 
0.551449537

$$$$
