
     RDKit          3D

 43 47  0  0  0  0  0  0  0  0999 V2000
   38.4070   25.8720   31.6550 C   0  0  0  0  0  0  0  0  0  0  0  0
   38.8370   26.5950   30.5250 C   0  0  0  0  0  0  0  0  0  0  0  0
   39.2570   25.7160   29.5580 N   0  0  0  0  0  0  0  0  0  0  0  0
   39.0820   24.4370   30.1020 C   0  0  0  0  0  0  0  0  0  0  0  0
   38.5890   24.6160   31.3170 N   0  0  0  0  0  0  0  0  0  0  0  0
   38.5110   23.3120   31.8150 C   0  0  0  0  0  0  0  0  0  0  0  0
   39.6640   22.9120   32.3610 N   0  0  0  0  0  0  0  0  0  0  0  0
   39.7760   21.6450   32.8390 C   0  0  0  0  0  0  0  0  0  0  0  0
   38.7920   20.7490   32.8030 N   0  0  0  0  0  0  0  0  0  0  0  0
   37.6080   21.1090   32.2620 C   0  0  0  0  0  0  0  0  0  0  0  0
   36.5170   20.2900   32.1580 C   0  0  0  0  0  0  0  0  0  0  0  0
   35.3500   20.7060   31.5990 C   0  0  0  0  0  0  0  0  0  0  0  0
   35.2550   22.0090   31.1120 C   0  0  0  0  0  0  0  0  0  0  0  0
   36.3140   22.8770   31.1890 C   0  0  0  0  0  0  0  0  0  0  0  0
   37.4650   22.4080   31.7610 C   0  0  0  0  0  0  0  0  0  0  0  0
   39.3970   23.4110   36.0530 C   0  0  0  0  0  0  0  0  0  0  0  0
   40.7950   23.5930   35.8880 C   0  0  0  0  0  0  0  0  0  0  0  0
   41.1980   24.6600   35.1230 C   0  0  0  0  0  0  0  0  0  0  0  0
   40.2200   25.4190   34.6100 N   0  0  0  0  0  0  0  0  0  0  0  0
   38.9340   25.2730   34.7460 C   0  0  0  0  0  0  0  0  0  0  0  0
   38.5200   24.2350   35.4900 N   0  0  0  0  0  0  0  0  0  0  0  0
   38.1320   26.2230   34.0990 N   0  0  0  0  0  0  0  0  0  0  0  0
   37.4030   27.0770   34.8640 C   0  0  0  0  0  0  0  0  0  0  0  0
   36.6930   27.9200   34.0350 C   0  0  0  0  0  0  0  0  0  0  0  0
   36.9960   27.5700   32.7850 N   0  0  0  0  0  0  0  0  0  0  0  0
   37.8910   26.5130   32.8190 C   0  0  0  0  0  0  0  0  0  0  0  0
   38.9350   22.3080   36.8640 N   0  0  0  0  0  0  0  0  0  0  0  0
   35.7490   29.0310   34.3990 C   0  0  0  0  0  0  0  0  0  0  0  0
   38.8363   27.6911   30.4322 H   0  0  0  0  0  0  0  0  0  0  0  0
   39.3089   23.4764   29.6165 H   0  0  0  0  0  0  0  0  0  0  0  0
   40.7362   21.3418   33.2818 H   0  0  0  0  0  0  0  0  0  0  0  0
   36.5866   19.2606   32.5395 H   0  0  0  0  0  0  0  0  0  0  0  0
   34.4906   20.0227   31.5316 H   0  0  0  0  0  0  0  0  0  0  0  0
   34.3123   22.3474   30.6572 H   0  0  0  0  0  0  0  0  0  0  0  0
   36.2411   23.9061   30.8073 H   0  0  0  0  0  0  0  0  0  0  0  0
   41.5225   22.9105   36.3517 H   0  0  0  0  0  0  0  0  0  0  0  0
   42.2608   24.8787   34.9421 H   0  0  0  0  0  0  0  0  0  0  0  0
   37.3825   27.0933   35.9637 H   0  0  0  0  0  0  0  0  0  0  0  0
   37.9253   22.1553   36.9986 H   0  0  0  0  0  0  0  0  0  0  0  0
   39.6153   21.6745   37.3075 H   0  0  0  0  0  0  0  0  0  0  0  0
   35.6813   29.1106   35.4940 H   0  0  0  0  0  0  0  0  0  0  0  0
   36.1218   29.9794   33.9847 H   0  0  0  0  0  0  0  0  0  0  0  0
   34.7529   28.8163   33.9847 H   0  0  0  0  0  0  0  0  0  0  0  0
  1 26  1  0
  2  1  2  0
  3  4  2  0
  3  2  1  0
  4  5  1  0
  5  1  1  0
  5  6  1  0
  6  7  2  0
  7  8  1  0
  9  8  2  0
 10  9  1  0
 11 10  2  0
 12 11  1  0
 13 14  1  0
 13 12  2  0
 14 15  2  0
 15  6  1  0
 15 10  1  0
 16 27  1  0
 17 16  2  0
 18 17  1  0
 19 20  1  0
 19 18  2  0
 20 21  2  0
 21 16  1  0
 22 20  1  0
 22 23  1  0
 24 28  1  0
 24 23  2  0
 25 26  2  0
 25 24  1  0
 26 22  1  0
  2 29  1  0
  4 30  1  0
  8 31  1  0
 11 32  1  0
 12 33  1  0
 13 34  1  0
 14 35  1  0
 17 36  1  0
 18 37  1  0
 23 38  1  0
 27 39  1  0
 27 40  1  0
 28 41  1  0
 28 42  1  0
 28 43  1  0
M  ISO  8  29  14  30  14  31  14  32  14  33  14  34  14  35  14  36  14
M  ISO  5  37  14  38  14  41   8  42   8  43   8
M  END
>  <minimizedAffinity>  (1) 
-6.27872038

>  <minimizedRMSD>  (1) 
0.286021471

$$$$
