
     RDKit          3D

 41 45  0  0  0  0  0  0  0  0999 V2000
   38.4110   25.8640   31.6370 C   0  0  0  0  0  0  0  0  0  0  0  0
   38.8500   26.5810   30.5060 C   0  0  0  0  0  0  0  0  0  0  0  0
   39.2740   25.6950   29.5440 N   0  0  0  0  0  0  0  0  0  0  0  0
   39.0920   24.4220   30.0950 C   0  0  0  0  0  0  0  0  0  0  0  0
   38.5930   24.6050   31.3060 N   0  0  0  0  0  0  0  0  0  0  0  0
   38.5120   23.3050   31.8130 C   0  0  0  0  0  0  0  0  0  0  0  0
   39.6660   22.9120   32.3660 N   0  0  0  0  0  0  0  0  0  0  0  0
   39.7730   21.6470   32.8520 C   0  0  0  0  0  0  0  0  0  0  0  0
   38.7860   20.7500   32.8180 N   0  0  0  0  0  0  0  0  0  0  0  0
   37.6070   21.1060   32.2710 C   0  0  0  0  0  0  0  0  0  0  0  0
   36.5180   20.2860   32.1660 C   0  0  0  0  0  0  0  0  0  0  0  0
   35.3520   20.7000   31.5970 C   0  0  0  0  0  0  0  0  0  0  0  0
   35.2570   21.9980   31.1020 C   0  0  0  0  0  0  0  0  0  0  0  0
   36.3180   22.8670   31.1800 C   0  0  0  0  0  0  0  0  0  0  0  0
   37.4660   22.4040   31.7600 C   0  0  0  0  0  0  0  0  0  0  0  0
   39.3700   23.4330   36.0550 C   0  0  0  0  0  0  0  0  0  0  0  0
   40.7710   23.6190   35.8980 C   0  0  0  0  0  0  0  0  0  0  0  0
   41.1780   24.6770   35.1290 C   0  0  0  0  0  0  0  0  0  0  0  0
   40.2020   25.4330   34.6040 N   0  0  0  0  0  0  0  0  0  0  0  0
   38.9180   25.2850   34.7320 C   0  0  0  0  0  0  0  0  0  0  0  0
   38.4990   24.2530   35.4810 N   0  0  0  0  0  0  0  0  0  0  0  0
   38.1210   26.2320   34.0730 N   0  0  0  0  0  0  0  0  0  0  0  0
   37.3920   27.0930   34.8300 C   0  0  0  0  0  0  0  0  0  0  0  0
   36.6860   27.9350   33.9910 C   0  0  0  0  0  0  0  0  0  0  0  0
   36.9960   27.5730   32.7460 N   0  0  0  0  0  0  0  0  0  0  0  0
   37.8870   26.5140   32.7900 C   0  0  0  0  0  0  0  0  0  0  0  0
   38.9070   22.3350   36.8690 N   0  0  0  0  0  0  0  0  0  0  0  0
   35.5560   29.2740   34.4080 S   0  0  0  0  0  0  0  0  0  0  0  0
   38.8530   27.6766   30.4083 H   0  0  0  0  0  0  0  0  0  0  0  0
   39.3192   23.4585   29.6154 H   0  0  0  0  0  0  0  0  0  0  0  0
   40.7310   21.3448   33.3003 H   0  0  0  0  0  0  0  0  0  0  0  0
   36.5858   19.2588   32.5536 H   0  0  0  0  0  0  0  0  0  0  0  0
   34.4935   20.0156   31.5291 H   0  0  0  0  0  0  0  0  0  0  0  0
   34.3164   22.3332   30.6407 H   0  0  0  0  0  0  0  0  0  0  0  0
   36.2467   23.8937   30.7916 H   0  0  0  0  0  0  0  0  0  0  0  0
   41.4965   22.9426   36.3735 H   0  0  0  0  0  0  0  0  0  0  0  0
   42.2419   24.8938   34.9524 H   0  0  0  0  0  0  0  0  0  0  0  0
   37.3675   27.1163   35.9295 H   0  0  0  0  0  0  0  0  0  0  0  0
   37.8970   22.1796   36.9979 H   0  0  0  0  0  0  0  0  0  0  0  0
   39.5866   21.7067   37.3211 H   0  0  0  0  0  0  0  0  0  0  0  0
   35.4624   29.3850   35.7703 H   0  0  0  0  0  0  0  0  0  0  0  0
  1 26  1  0
  2  1  2  0
  3  4  2  0
  3  2  1  0
  4  5  1  0
  5  1  1  0
  5  6  1  0
  6  7  2  0
  7  8  1  0
  9  8  2  0
 10  9  1  0
 11 10  2  0
 12 11  1  0
 13 14  1  0
 13 12  2  0
 14 15  2  0
 15  6  1  0
 15 10  1  0
 16 27  1  0
 17 16  2  0
 18 17  1  0
 19 20  1  0
 19 18  2  0
 20 21  2  0
 21 16  1  0
 22 20  1  0
 22 23  1  0
 24 28  1  0
 24 23  2  0
 25 26  2  0
 25 24  1  0
 26 22  1  0
  2 29  1  0
  4 30  1  0
  8 31  1  0
 11 32  1  0
 12 33  1  0
 13 34  1  0
 14 35  1  0
 17 36  1  0
 18 37  1  0
 23 38  1  0
 27 39  1  0
 27 40  1  0
 28 41  1  0
M  ISO  8  29  14  30  14  31  14  32  14  33  14  34  14  35  14  36  14
M  ISO  3  37  14  38  14  41  11
M  END
>  <minimizedAffinity>  (1) 
-6.11959124

>  <minimizedRMSD>  (1) 
0.314195752

$$$$
