
     RDKit          3D

 38 40  0  0  0  0  0  0  0  0999 V2000
   40.1190   22.8000   37.4830 C   0  0  0  0  0  0  0  0  0  0  0  0
   39.0680   23.1270   38.3790 C   0  0  0  0  0  0  0  0  0  0  0  0
   37.8000   23.3760   37.8150 C   0  0  0  0  0  0  0  0  0  0  0  0
   37.6550   23.2910   36.4760 N   0  0  0  0  0  0  0  0  0  0  0  0
   38.6900   22.9750   35.6430 C   0  0  0  0  0  0  0  0  0  0  0  0
   39.9060   22.7340   36.1610 N   0  0  0  0  0  0  0  0  0  0  0  0
   38.5280   22.8930   34.2380 N   0  0  0  0  0  0  0  0  0  0  0  0
   39.5490   23.4610   33.4950 C   0  0  0  0  0  0  0  0  0  0  0  0
   39.4300   23.4050   32.1270 C   0  0  0  0  0  0  0  0  0  0  0  0
   38.3150   22.7940   31.5630 C   0  0  0  0  0  0  0  0  0  0  0  0
   38.1970   22.7410   30.3130 O   0  0  0  0  0  0  0  0  0  0  0  0
   37.3620   22.2620   32.3570 N   0  0  0  0  0  0  0  0  0  0  0  0
   37.4610   22.3080   33.6940 C   0  0  0  0  0  0  0  0  0  0  0  0
   36.6380   21.8530   34.4780 O   0  0  0  0  0  0  0  0  0  0  0  0
   36.1870   21.6210   31.7760 C   0  0  0  0  0  0  0  0  0  0  0  0
   36.5100   20.2520   31.2130 C   0  0  0  0  0  0  0  0  0  0  0  0
   36.9050   19.3630   32.2690 N   0  0  0  0  0  0  0  0  0  0  0  0
   37.5120   18.1910   31.6730 C   0  0  0  0  0  0  0  0  0  0  0  0
   36.5730   17.0390   31.7910 C   0  0  0  0  0  0  0  0  0  0  0  0
   35.2700   17.7090   32.1470 C   0  0  0  0  0  0  0  0  0  0  0  0
   35.7050   18.8800   32.9540 C   0  0  0  0  0  0  0  0  0  0  0  0
   41.1248   22.5974   37.8797 H   0  0  0  0  0  0  0  0  0  0  0  0
   39.2352   23.1836   39.4647 H   0  0  0  0  0  0  0  0  0  0  0  0
   36.9439   23.6350   38.4553 H   0  0  0  0  0  0  0  0  0  0  0  0
   40.4160   23.9355   33.9778 H   0  0  0  0  0  0  0  0  0  0  0  0
   40.2095   23.8395   31.4839 H   0  0  0  0  0  0  0  0  0  0  0  0
   35.4190   21.5125   32.5560 H   0  0  0  0  0  0  0  0  0  0  0  0
   35.8275   22.2528   30.9504 H   0  0  0  0  0  0  0  0  0  0  0  0
   35.6196   19.8464   30.7103 H   0  0  0  0  0  0  0  0  0  0  0  0
   37.3370   20.3453   30.4937 H   0  0  0  0  0  0  0  0  0  0  0  0
   38.4503   17.9560   32.1968 H   0  0  0  0  0  0  0  0  0  0  0  0
   37.7271   18.3853   30.6119 H   0  0  0  0  0  0  0  0  0  0  0  0
   36.4918   16.4942   30.8388 H   0  0  0  0  0  0  0  0  0  0  0  0
   36.8936   16.2881   32.5282 H   0  0  0  0  0  0  0  0  0  0  0  0
   34.7308   18.0299   31.2435 H   0  0  0  0  0  0  0  0  0  0  0  0
   34.5748   17.0469   32.6840 H   0  0  0  0  0  0  0  0  0  0  0  0
   35.9397   18.5775   33.9852 H   0  0  0  0  0  0  0  0  0  0  0  0
   34.9248   19.6516   33.0310 H   0  0  0  0  0  0  0  0  0  0  0  0
  1  2  2  0
  3  2  1  0
  4  3  2  0
  5  6  2  0
  5  4  1  0
  6  1  1  0
  7  5  1  0
  8  7  1  0
  9  8  2  0
 10  9  1  0
 10 12  1  0
 11 10  2  0
 12 13  1  0
 13  7  1  0
 13 14  2  0
 15 12  1  0
 16 15  1  0
 16 17  1  0
 17 21  1  0
 18 19  1  0
 18 17  1  0
 19 20  1  0
 20 21  1  0
  1 22  1  0
  2 23  1  0
  3 24  1  0
  8 25  1  0
  9 26  1  0
 15 27  1  0
 15 28  1  0
 16 29  1  0
 16 30  1  0
 18 31  1  0
 18 32  1  0
 19 33  1  0
 19 34  1  0
 20 35  1  0
 20 36  1  0
 21 37  1  0
 21 38  1  0
M  ISO  8  22  14  23  14  24  14  25  14  26  14  27   8  28   8  29   8
M  ISO  8  30   8  31  13  32  13  33  13  34  13  35  13  36  13  37  13
M  ISO  1  38  13
M  END
>  <minimizedAffinity>  (1) 
-4.21909237

>  <minimizedRMSD>  (1) 
1.77593327

$$$$
