
     RDKit          3D

 51 54  0  0  1  0  0  0  0  0999 V2000
   40.2880   23.6400   35.9790 C   0  0  1  0  0  0  0  0  0  0  0  0
   41.4010   24.3490   35.3780 C   0  0  0  0  0  0  0  0  0  0  0  0
   40.8300   25.2930   34.3040 C   0  0  0  0  0  0  0  0  0  0  0  0
   39.7700   26.1230   34.9710 C   0  0  0  0  0  0  0  0  0  0  0  0
   38.6130   25.3320   35.4870 C   0  0  0  0  0  0  0  0  0  0  0  0
   38.9480   23.8550   35.2680 C   0  0  2  0  0  0  0  0  0  0  0  0
   37.9250   22.9990   35.8020 N   0  0  0  0  0  0  0  0  0  0  0  0
   37.3180   22.0050   35.1280 C   0  0  0  0  0  0  0  0  0  0  0  0
   36.3370   21.2010   35.6730 C   0  0  0  0  0  0  0  0  0  0  0  0
   35.9340   21.4020   36.9840 C   0  0  0  0  0  0  0  0  0  0  0  0
   34.9240   20.5680   37.5350 N   0  0  0  0  0  0  0  0  0  0  0  0
   36.5300   22.3920   37.6750 N   0  0  0  0  0  0  0  0  0  0  0  0
   37.4620   23.1200   37.0820 C   0  0  0  0  0  0  0  0  0  0  0  0
   37.9500   24.0240   37.8400 O   0  0  0  0  0  0  0  0  0  0  0  0
   40.5720   22.1380   36.1100 C   0  0  0  0  0  0  0  0  0  0  0  0
   41.2520   21.1510   32.6030 C   0  0  0  0  0  0  0  0  0  0  0  0
   42.6400   21.0870   32.5730 C   0  0  0  0  0  0  0  0  0  0  0  0
   43.2980   21.3790   33.7460 C   0  0  0  0  0  0  0  0  0  0  0  0
   42.5740   21.7060   34.8410 N   0  0  0  0  0  0  0  0  0  0  0  0
   41.2510   21.7640   34.8540 C   0  0  0  0  0  0  0  0  0  0  0  0
   40.5650   21.4810   33.7120 N   0  0  0  0  0  0  0  0  0  0  0  0
   43.2310   20.7310   31.3520 N   0  0  0  0  0  0  0  0  0  0  0  0
   43.4160   19.4020   31.1450 C   0  0  0  0  0  0  0  0  0  0  0  0
   43.9930   19.0090   29.9600 C   0  0  0  0  0  0  0  0  0  0  0  0
   44.3450   19.9840   29.0610 C   0  0  0  0  0  0  0  0  0  0  0  0
   44.9330   19.6230   27.8420 N   0  0  0  0  0  0  0  0  0  0  0  0
   44.1370   21.2910   29.3190 N   0  0  0  0  0  0  0  0  0  0  0  0
   43.5700   21.6810   30.4840 C   0  0  0  0  0  0  0  0  0  0  0  0
   43.3940   22.8990   30.6880 O   0  0  0  0  0  0  0  0  0  0  0  0
   40.1893   24.0820   36.9814 H   0  0  0  0  0  0  0  0  0  0  0  0
   41.9319   24.9319   36.1451 H   0  0  0  0  0  0  0  0  0  0  0  0
   42.1120   23.6399   34.9289 H   0  0  0  0  0  0  0  0  0  0  0  0
   40.3912   24.7089   33.4816 H   0  0  0  0  0  0  0  0  0  0  0  0
   41.6200   25.9302   33.8798 H   0  0  0  0  0  0  0  0  0  0  0  0
   40.2293   26.6557   35.8168 H   0  0  0  0  0  0  0  0  0  0  0  0
   39.3723   26.8055   34.2055 H   0  0  0  0  0  0  0  0  0  0  0  0
   38.4670   25.5314   36.5589 H   0  0  0  0  0  0  0  0  0  0  0  0
   37.6852   25.6061   34.9634 H   0  0  0  0  0  0  0  0  0  0  0  0
   39.0095   23.6047   34.1986 H   0  0  0  0  0  0  0  0  0  0  0  0
   37.6199   21.8232   34.0860 H   0  0  0  0  0  0  0  0  0  0  0  0
   35.8772   20.4044   35.0696 H   0  0  0  0  0  0  0  0  0  0  0  0
   34.6155   20.7069   38.5079 H   0  0  0  0  0  0  0  0  0  0  0  0
   34.5004   19.8246   36.9615 H   0  0  0  0  0  0  0  0  0  0  0  0
   41.2236   21.9421   36.9743 H   0  0  0  0  0  0  0  0  0  0  0  0
   39.6517   21.5570   36.2698 H   0  0  0  0  0  0  0  0  0  0  0  0
   40.6928   20.9228   31.6836 H   0  0  0  0  0  0  0  0  0  0  0  0
   44.3966   21.3470   33.7925 H   0  0  0  0  0  0  0  0  0  0  0  0
   43.1139   18.6627   31.9014 H   0  0  0  0  0  0  0  0  0  0  0  0
   44.1670   17.9454   29.7397 H   0  0  0  0  0  0  0  0  0  0  0  0
   45.1007   18.6301   27.6251 H   0  0  0  0  0  0  0  0  0  0  0  0
   45.1977   20.3504   27.1625 H   0  0  0  0  0  0  0  0  0  0  0  0
  1 15  1  0
  2  1  1  0
  3  4  1  0
  3  2  1  0
  4  5  1  0
  6  5  1  0
  6  7  1  0
  6  1  1  0
  7 13  1  0
  8  9  2  0
  8  7  1  0
  9 10  1  0
 10 11  1  0
 10 12  2  0
 13 12  1  0
 13 14  2  0
 16 21  2  0
 17 16  1  0
 17 18  2  0
 18 19  1  0
 19 20  2  0
 20 15  1  0
 21 20  1  0
 22 17  1  0
 23 22  1  0
 24 23  2  0
 25 27  2  0
 25 24  1  0
 26 25  1  0
 27 28  1  0
 28 29  2  0
 28 22  1  0
  1 30  1  1
  2 31  1  0
  2 32  1  0
  3 33  1  0
  3 34  1  0
  4 35  1  0
  4 36  1  0
  5 37  1  0
  5 38  1  0
  6 39  1  6
  8 40  1  0
  9 41  1  0
 11 42  1  0
 11 43  1  0
 15 44  1  0
 15 45  1  0
 16 46  1  0
 18 47  1  0
 23 48  1  0
 24 49  1  0
 26 50  1  0
 26 51  1  0
M  ISO  8  30  13  31  13  32  13  33  13  34  13  35  13  36  13  37  13
M  ISO  8  38  13  39  13  40  14  41  14  44   8  45   8  46  14  47  14
M  ISO  2  48  14  49  14
M  END
>  <minimizedAffinity>  (1) 
-4.095994

>  <minimizedRMSD>  (1) 
4.44541502

$$$$
