
     RDKit          3D

 39 41  0  0  0  0  0  0  0  0999 V2000
   40.2850   23.0920   37.1250 C   0  0  0  0  0  0  0  0  0  0  0  0
   39.2490   23.0400   38.0690 C   0  0  0  0  0  0  0  0  0  0  0  0
   37.9310   23.1270   37.5660 C   0  0  0  0  0  0  0  0  0  0  0  0
   37.7610   23.2510   36.2320 N   0  0  0  0  0  0  0  0  0  0  0  0
   38.7830   23.2970   35.3550 C   0  0  0  0  0  0  0  0  0  0  0  0
   40.0360   23.2170   35.8110 N   0  0  0  0  0  0  0  0  0  0  0  0
   38.5810   23.4290   33.9580 N   0  0  0  0  0  0  0  0  0  0  0  0
   39.4380   24.3070   33.3260 C   0  0  0  0  0  0  0  0  0  0  0  0
   39.2780   24.4680   31.9590 C   0  0  0  0  0  0  0  0  0  0  0  0
   38.2890   23.7570   31.3080 C   0  0  0  0  0  0  0  0  0  0  0  0
   38.1420   23.9020   30.0670 O   0  0  0  0  0  0  0  0  0  0  0  0
   37.4920   22.9190   31.9910 N   0  0  0  0  0  0  0  0  0  0  0  0
   37.6360   22.7510   33.3300 C   0  0  0  0  0  0  0  0  0  0  0  0
   36.9410   22.0000   34.0200 O   0  0  0  0  0  0  0  0  0  0  0  0
   36.4500   22.1690   31.3100 C   0  0  0  0  0  0  0  0  0  0  0  0
   36.9260   20.8390   30.8190 C   0  0  0  0  0  0  0  0  0  0  0  0
   35.9210   19.7470   30.8520 C   0  0  0  0  0  0  0  0  0  0  0  0
   36.5410   18.3920   30.9690 C   0  0  0  0  0  0  0  0  0  0  0  0
   36.0800   17.7900   32.2560 C   0  0  0  0  0  0  0  0  0  0  0  0
   35.3080   18.8480   33.0060 C   0  0  0  0  0  0  0  0  0  0  0  0
   34.9120   19.8750   31.9640 C   0  0  0  0  0  0  0  0  0  0  0  0
   41.3278   23.0288   37.4694 H   0  0  0  0  0  0  0  0  0  0  0  0
   39.4518   22.9368   39.1452 H   0  0  0  0  0  0  0  0  0  0  0  0
   37.0655   23.0945   38.2441 H   0  0  0  0  0  0  0  0  0  0  0  0
   40.2132   24.8543   33.8824 H   0  0  0  0  0  0  0  0  0  0  0  0
   39.9308   25.1538   31.3991 H   0  0  0  0  0  0  0  0  0  0  0  0
   35.6167   22.0085   32.0099 H   0  0  0  0  0  0  0  0  0  0  0  0
   36.1365   22.7550   30.4335 H   0  0  0  0  0  0  0  0  0  0  0  0
   37.7789   20.5332   31.4428 H   0  0  0  0  0  0  0  0  0  0  0  0
   37.1802   20.9826   29.7585 H   0  0  0  0  0  0  0  0  0  0  0  0
   35.4068   19.8517   29.8852 H   0  0  0  0  0  0  0  0  0  0  0  0
   36.2238   17.7610   30.1256 H   0  0  0  0  0  0  0  0  0  0  0  0
   37.6382   18.4680   30.9510 H   0  0  0  0  0  0  0  0  0  0  0  0
   35.4311   16.9251   32.0540 H   0  0  0  0  0  0  0  0  0  0  0  0
   36.9392   17.4457   32.8502 H   0  0  0  0  0  0  0  0  0  0  0  0
   34.4138   18.4116   33.4749 H   0  0  0  0  0  0  0  0  0  0  0  0
   35.9069   19.2953   33.8130 H   0  0  0  0  0  0  0  0  0  0  0  0
   34.9427   20.8872   32.3936 H   0  0  0  0  0  0  0  0  0  0  0  0
   33.8875   19.7066   31.6005 H   0  0  0  0  0  0  0  0  0  0  0  0
  1  2  2  0
  3  2  1  0
  4  3  2  0
  5  6  2  0
  5  4  1  0
  6  1  1  0
  7  5  1  0
  8  7  1  0
  9  8  2  0
 10  9  1  0
 10 12  1  0
 11 10  2  0
 12 13  1  0
 13  7  1  0
 13 14  2  0
 15 12  1  0
 16 17  1  0
 16 15  1  0
 17 18  1  0
 17 21  1  0
 18 19  1  0
 19 20  1  0
 21 20  1  0
  1 22  1  0
  2 23  1  0
  3 24  1  0
  8 25  1  0
  9 26  1  0
 15 27  1  0
 15 28  1  0
 16 29  1  0
 16 30  1  0
 17 31  1  0
 18 32  1  0
 18 33  1  0
 19 34  1  0
 19 35  1  0
 20 36  1  0
 20 37  1  0
 21 38  1  0
 21 39  1  0
M  ISO  8  22  14  23  14  24  14  25  14  26  14  27   8  28   8  29   8
M  ISO  8  30   8  31  13  32  13  33  13  34  13  35  13  36  13  37  13
M  ISO  2  38  13  39  13
M  END
>  <minimizedAffinity>  (1) 
-4.89545822

>  <minimizedRMSD>  (1) 
2.38133097

$$$$
