
     RDKit          3D

 42 44  0  0  1  0  0  0  0  0999 V2000
   37.4910   22.6640   31.2260 C   0  0  0  0  0  0  0  0  0  0  0  0
   39.9840   22.9090   37.7970 C   0  0  0  0  0  0  0  0  0  0  0  0
   38.8000   23.2130   38.4640 C   0  0  0  0  0  0  0  0  0  0  0  0
   37.7100   23.6200   37.6600 C   0  0  0  0  0  0  0  0  0  0  0  0
   37.8960   23.6820   36.3250 N   0  0  0  0  0  0  0  0  0  0  0  0
   39.0580   23.3790   35.7180 C   0  0  0  0  0  0  0  0  0  0  0  0
   40.0850   22.9980   36.4630 N   0  0  0  0  0  0  0  0  0  0  0  0
   39.2330   23.4510   34.3150 N   0  0  0  0  0  0  0  0  0  0  0  0
   40.4410   23.9870   33.9020 C   0  0  0  0  0  0  0  0  0  0  0  0
   40.6550   24.0770   32.5330 C   0  0  0  0  0  0  0  0  0  0  0  0
   39.6610   23.6310   31.6760 C   0  0  0  0  0  0  0  0  0  0  0  0
   39.8570   23.7150   30.4350 O   0  0  0  0  0  0  0  0  0  0  0  0
   38.5170   23.1230   32.1370 N   0  0  0  0  0  0  0  0  0  0  0  0
   38.2970   23.0300   33.4820 C   0  0  0  0  0  0  0  0  0  0  0  0
   37.2650   22.5720   33.9830 O   0  0  0  0  0  0  0  0  0  0  0  0
   37.6320   21.2660   30.8500 C   0  0  0  0  0  0  0  0  0  0  0  0
   36.4150   20.4300   30.7990 C   0  0  1  0  0  0  0  0  0  0  0  0
   36.6310   19.1910   29.9590 C   0  0  0  0  0  0  0  0  0  0  0  0
   36.4850   18.0060   30.8520 C   0  0  0  0  0  0  0  0  0  0  0  0
   36.3240   18.5250   32.2440 C   0  0  0  0  0  0  0  0  0  0  0  0
   35.9080   19.9900   32.0840 C   0  0  2  0  0  0  0  0  0  0  0  0
   34.3730   20.0300   32.0320 C   0  0  0  0  0  0  0  0  0  0  0  0
   36.5117   22.7976   31.7087 H   0  0  0  0  0  0  0  0  0  0  0  0
   37.5868   23.2579   30.3051 H   0  0  0  0  0  0  0  0  0  0  0  0
   40.8596   22.5873   38.3800 H   0  0  0  0  0  0  0  0  0  0  0  0
   38.7169   23.1404   39.5585 H   0  0  0  0  0  0  0  0  0  0  0  0
   36.7398   23.8782   38.1095 H   0  0  0  0  0  0  0  0  0  0  0  0
   41.1969   24.3262   34.6256 H   0  0  0  0  0  0  0  0  0  0  0  0
   41.5931   24.4932   32.1371 H   0  0  0  0  0  0  0  0  0  0  0  0
   38.0862   21.2420   29.8485 H   0  0  0  0  0  0  0  0  0  0  0  0
   38.2313   20.8252   31.6603 H   0  0  0  0  0  0  0  0  0  0  0  0
   35.6675   21.1047   30.3562 H   0  0  0  0  0  0  0  0  0  0  0  0
   35.8817   19.1485   29.1548 H   0  0  0  0  0  0  0  0  0  0  0  0
   37.6306   19.2064   29.5001 H   0  0  0  0  0  0  0  0  0  0  0  0
   35.5995   17.4213   30.5621 H   0  0  0  0  0  0  0  0  0  0  0  0
   37.3633   17.3479   30.7776 H   0  0  0  0  0  0  0  0  0  0  0  0
   35.5461   17.9598   32.7783 H   0  0  0  0  0  0  0  0  0  0  0  0
   37.2500   18.4234   32.8290 H   0  0  0  0  0  0  0  0  0  0  0  0
   36.2871   20.6194   32.9026 H   0  0  0  0  0  0  0  0  0  0  0  0
   33.9716   20.0405   33.0561 H   0  0  0  0  0  0  0  0  0  0  0  0
   34.0476   20.9369   31.5013 H   0  0  0  0  0  0  0  0  0  0  0  0
   34.0008   19.1412   31.5013 H   0  0  0  0  0  0  0  0  0  0  0  0
  1 13  1  0
  2  3  2  0
  4  3  1  0
  5  4  2  0
  6  5  1  0
  6  7  2  0
  7  2  1  0
  8  6  1  0
  9  8  1  0
 10  9  2  0
 11 13  1  0
 11 10  1  0
 12 11  2  0
 13 14  1  0
 14 15  2  0
 14  8  1  0
 16  1  1  0
 17 16  1  0
 17 21  1  0
 18 17  1  0
 18 19  1  0
 19 20  1  0
 21 20  1  0
 22 21  1  0
  1 23  1  0
  1 24  1  0
  2 25  1  0
  3 26  1  0
  4 27  1  0
  9 28  1  0
 10 29  1  0
 16 30  1  0
 16 31  1  0
 17 32  1  6
 18 33  1  0
 18 34  1  0
 19 35  1  0
 19 36  1  0
 20 37  1  0
 20 38  1  0
 21 39  1  1
 22 40  1  0
 22 41  1  0
 22 42  1  0
M  ISO  8  23   8  24   8  25  14  26  14  27  14  28  14  29  14  30   8
M  ISO  8  31   8  32  13  33  13  34  13  35  13  36  13  37  13  38  13
M  ISO  4  39  13  40   8  41   8  42   8
M  END
>  <minimizedAffinity>  (1) 
-4.81712914

>  <minimizedRMSD>  (1) 
1.03998029

$$$$
