
     RDKit          3D

 46 49  0  0  1  0  0  0  0  0999 V2000
   37.5330   23.4140   31.3370 C   0  0  0  0  0  0  0  0  0  0  0  0
   37.6230   22.9420   38.3460 C   0  0  0  0  0  0  0  0  0  0  0  0
   38.9690   23.2300   38.5610 C   0  0  0  0  0  0  0  0  0  0  0  0
   39.8050   23.2120   37.4280 C   0  0  0  0  0  0  0  0  0  0  0  0
   39.2450   22.9200   36.2360 N   0  0  0  0  0  0  0  0  0  0  0  0
   37.9490   22.6470   36.0580 C   0  0  0  0  0  0  0  0  0  0  0  0
   37.1590   22.6630   37.1220 N   0  0  0  0  0  0  0  0  0  0  0  0
   37.3790   22.3410   34.7950 N   0  0  0  0  0  0  0  0  0  0  0  0
   36.4570   21.3170   34.8050 C   0  0  0  0  0  0  0  0  0  0  0  0
   35.8770   20.9890   33.5850 C   0  0  0  0  0  0  0  0  0  0  0  0
   36.2470   21.6920   32.4660 C   0  0  0  0  0  0  0  0  0  0  0  0
   35.7220   21.3960   31.3600 O   0  0  0  0  0  0  0  0  0  0  0  0
   37.1470   22.6780   32.5190 N   0  0  0  0  0  0  0  0  0  0  0  0
   37.7270   23.0130   33.7070 C   0  0  0  0  0  0  0  0  0  0  0  0
   38.5670   23.9100   33.8460 O   0  0  0  0  0  0  0  0  0  0  0  0
   36.7080   24.5860   31.0840 C   0  0  0  0  0  0  0  0  0  0  0  0
   37.4060   25.8340   30.7150 C   0  0  1  0  0  0  0  0  0  0  0  0
   36.4990   27.0280   30.9080 C   0  0  0  0  0  0  0  0  0  0  0  0
   37.1090   27.8930   31.9650 C   0  0  0  0  0  0  0  0  0  0  0  0
   38.2810   27.1440   32.5140 C   0  0  0  0  0  0  0  0  0  0  0  0
   38.6300   26.1180   31.4330 C   0  0  2  0  0  0  0  0  0  0  0  0
   39.5100   26.9320   30.5050 C   0  0  0  0  0  0  0  0  0  0  0  0
   39.5540   27.0180   29.1270 C   0  0  0  0  0  0  0  0  0  0  0  0
   40.5490   27.9140   28.7810 C   0  0  0  0  0  0  0  0  0  0  0  0
   41.0780   28.3410   30.0030 C   0  0  0  0  0  0  0  0  0  0  0  0
   40.4470   27.7480   30.9820 O   0  0  0  0  0  0  0  0  0  0  0  0
   38.5759   23.7425   31.4572 H   0  0  0  0  0  0  0  0  0  0  0  0
   37.4031   22.7374   30.4795 H   0  0  0  0  0  0  0  0  0  0  0  0
   36.9281   22.9439   39.1987 H   0  0  0  0  0  0  0  0  0  0  0  0
   39.3585   23.4595   39.5638 H   0  0  0  0  0  0  0  0  0  0  0  0
   40.8801   23.4291   37.5122 H   0  0  0  0  0  0  0  0  0  0  0  0
   36.1933   20.7860   35.7315 H   0  0  0  0  0  0  0  0  0  0  0  0
   35.1345   20.1802   33.5177 H   0  0  0  0  0  0  0  0  0  0  0  0
   36.0203   24.3359   30.2627 H   0  0  0  0  0  0  0  0  0  0  0  0
   36.2232   24.8055   32.0467 H   0  0  0  0  0  0  0  0  0  0  0  0
   37.6791   25.6643   29.6630 H   0  0  0  0  0  0  0  0  0  0  0  0
   36.4135   27.5902   29.9664 H   0  0  0  0  0  0  0  0  0  0  0  0
   35.4917   26.7035   31.2081 H   0  0  0  0  0  0  0  0  0  0  0  0
   37.4400   28.8471   31.5289 H   0  0  0  0  0  0  0  0  0  0  0  0
   36.3805   28.1210   32.7570 H   0  0  0  0  0  0  0  0  0  0  0  0
   39.1274   27.8241   32.6906 H   0  0  0  0  0  0  0  0  0  0  0  0
   38.0549   26.6690   33.4800 H   0  0  0  0  0  0  0  0  0  0  0  0
   39.0842   25.1871   31.8032 H   0  0  0  0  0  0  0  0  0  0  0  0
   38.9088   26.4685   28.4257 H   0  0  0  0  0  0  0  0  0  0  0  0
   40.8557   28.2219   27.7705 H   0  0  0  0  0  0  0  0  0  0  0  0
   41.8983   29.0641   30.1219 H   0  0  0  0  0  0  0  0  0  0  0  0
  1 13  1  0
  2  3  2  0
  4  3  1  0
  5  4  2  0
  6  5  1  0
  6  7  2  0
  7  2  1  0
  8  9  1  0
  8  6  1  0
 10  9  2  0
 11 13  1  0
 11 10  1  0
 12 11  2  0
 13 14  1  0
 14 15  2  0
 14  8  1  0
 16  1  1  0
 17 18  1  0
 17 16  1  0
 17 21  1  0
 18 19  1  0
 19 20  1  0
 21 20  1  0
 22 26  1  0
 22 21  1  0
 23 22  2  0
 24 23  1  0
 24 25  2  0
 25 26  1  0
  1 27  1  0
  1 28  1  0
  2 29  1  0
  3 30  1  0
  4 31  1  0
  9 32  1  0
 10 33  1  0
 16 34  1  0
 16 35  1  0
 17 36  1  6
 18 37  1  0
 18 38  1  0
 19 39  1  0
 19 40  1  0
 20 41  1  0
 20 42  1  0
 21 43  1  1
 23 44  1  0
 24 45  1  0
 25 46  1  0
M  ISO  8  27   8  28   8  29  14  30  14  31  14  32  14  33  14  34   8
M  ISO  8  35   8  36  13  37  13  38  13  39  13  40  13  41  13  42  13
M  ISO  4  43  13  44  14  45  14  46  14
M  END
>  <minimizedAffinity>  (1) 
-4.89749384

>  <minimizedRMSD>  (1) 
6.74447107

$$$$
