
     RDKit          3D

 30 30  0  0  0  0  0  0  0  0999 V2000
   38.3230   26.4640   34.2840 C   0  0  0  0  0  0  0  0  0  0  0  0
   39.3510   27.1370   35.1630 C   0  0  0  0  0  0  0  0  0  0  0  0
   37.0060   27.1780   34.4920 C   0  0  0  0  0  0  0  0  0  0  0  0
   38.7270   26.7330   32.8430 C   0  0  0  0  0  0  0  0  0  0  0  0
   38.4610   25.5820   31.9980 N   0  0  0  0  0  0  0  0  0  0  0  0
   37.5100   25.6750   30.9440 C   0  0  0  0  0  0  0  0  0  0  0  0
   37.1770   26.8520   30.5330 N   0  0  0  0  0  0  0  0  0  0  0  0
   37.0160   24.4580   30.4430 N   0  0  0  0  0  0  0  0  0  0  0  0
   36.4910   26.9940   29.7710 H   0  0  0  0  0  0  0  0  0  0  0  0
   38.2050   24.7110   34.4810 S   0  0  0  0  0  0  0  0  0  0  0  0
   38.0330   23.9800   38.4700 C   0  0  0  0  0  0  0  0  0  0  0  0
   37.7480   24.4630   37.1940 C   0  0  0  0  0  0  0  0  0  0  0  0
   38.5500   24.1070   36.1120 C   0  0  0  0  0  0  0  0  0  0  0  0
   39.5990   23.2860   36.3630 N   0  0  0  0  0  0  0  0  0  0  0  0
   39.8670   22.8240   37.6000 C   0  0  0  0  0  0  0  0  0  0  0  0
   39.0960   23.1660   38.6380 N   0  0  0  0  0  0  0  0  0  0  0  0
   39.0957   26.9698   36.2198 H   0  0  0  0  0  0  0  0  0  0  0  0
   40.3449   26.7142   34.9546 H   0  0  0  0  0  0  0  0  0  0  0  0
   39.3610   28.2170   34.9546 H   0  0  0  0  0  0  0  0  0  0  0  0
   36.8121   27.2831   35.5697 H   0  0  0  0  0  0  0  0  0  0  0  0
   37.0521   28.1747   34.0288 H   0  0  0  0  0  0  0  0  0  0  0  0
   36.1960   26.5955   34.0288 H   0  0  0  0  0  0  0  0  0  0  0  0
   38.1565   27.5944   32.4655 H   0  0  0  0  0  0  0  0  0  0  0  0
   39.8069   26.9409   32.8176 H   0  0  0  0  0  0  0  0  0  0  0  0
   38.9617   24.6970   32.1621 H   0  0  0  0  0  0  0  0  0  0  0  0
   36.3248   24.4581   29.6794 H   0  0  0  0  0  0  0  0  0  0  0  0
   37.3453   23.5662   30.8395 H   0  0  0  0  0  0  0  0  0  0  0  0
   37.4013   24.2580   39.3266 H   0  0  0  0  0  0  0  0  0  0  0  0
   36.8857   25.1285   37.0406 H   0  0  0  0  0  0  0  0  0  0  0  0
   40.7287   22.1587   37.7578 H   0  0  0  0  0  0  0  0  0  0  0  0
  1 10  1  0
  1  3  1  0
  1  2  1  0
  4  1  1  0
  5  4  1  0
  6  5  1  0
  7  6  2  0
  8  6  1  0
  9  7  1  0
 10 13  1  0
 11 16  2  0
 12 11  1  0
 13 14  1  0
 13 12  2  0
 14 15  2  0
 15 16  1  0
  2 17  1  0
  2 18  1  0
  2 19  1  0
  3 20  1  0
  3 21  1  0
  3 22  1  0
  4 23  1  0
  4 24  1  0
  5 25  1  0
  8 26  1  0
  8 27  1  0
 11 28  1  0
 12 29  1  0
 15 30  1  0
M  ISO  8  17   8  18   8  19   8  20   8  21   8  22   8  23   8  24   8
M  ISO  3  28  14  29  14  30  14
M  END
>  <minimizedAffinity>  (1) 
-4.177773

>  <minimizedRMSD>  (1) 
3.09678864

$$$$
