
     RDKit          3D

 24 24  0  0  0  0  0  0  0  0999 V2000
   38.6800   26.6470   34.4690 C   0  0  0  0  0  0  0  0  0  0  0  0
   37.8890   27.5890   35.3420 C   0  0  0  0  0  0  0  0  0  0  0  0
   38.6530   27.1620   33.0520 C   0  0  0  0  0  0  0  0  0  0  0  0
   40.1550   26.7530   34.8790 C   0  0  0  0  0  0  0  0  0  0  0  0
   41.0380   25.7560   33.6290 S   0  0  0  0  0  0  0  0  0  0  0  0
   38.2370   24.9290   34.6090 S   0  0  0  0  0  0  0  0  0  0  0  0
   38.1090   23.8760   38.5400 C   0  0  0  0  0  0  0  0  0  0  0  0
   37.7890   24.4760   37.3080 C   0  0  0  0  0  0  0  0  0  0  0  0
   38.5920   24.1990   36.1990 C   0  0  0  0  0  0  0  0  0  0  0  0
   39.6430   23.3620   36.3700 N   0  0  0  0  0  0  0  0  0  0  0  0
   39.9240   22.8050   37.5620 C   0  0  0  0  0  0  0  0  0  0  0  0
   39.1680   23.0550   38.6390 N   0  0  0  0  0  0  0  0  0  0  0  0
   38.0827   27.3583   36.4000 H   0  0  0  0  0  0  0  0  0  0  0  0
   38.1915   28.6254   35.1313 H   0  0  0  0  0  0  0  0  0  0  0  0
   36.8159   27.4703   35.1313 H   0  0  0  0  0  0  0  0  0  0  0  0
   38.5954   28.2604   33.0621 H   0  0  0  0  0  0  0  0  0  0  0  0
   39.5689   26.8476   32.5301 H   0  0  0  0  0  0  0  0  0  0  0  0
   37.7750   26.7536   32.5301 H   0  0  0  0  0  0  0  0  0  0  0  0
   40.4930   27.7995   34.8536 H   0  0  0  0  0  0  0  0  0  0  0  0
   40.3344   26.3989   35.9049 H   0  0  0  0  0  0  0  0  0  0  0  0
   41.8448   24.8450   34.2583 H   0  0  0  0  0  0  0  0  0  0  0  0
   37.4895   24.0800   39.4258 H   0  0  0  0  0  0  0  0  0  0  0  0
   36.9239   25.1496   37.2200 H   0  0  0  0  0  0  0  0  0  0  0  0
   40.7897   22.1326   37.6537 H   0  0  0  0  0  0  0  0  0  0  0  0
  1  6  1  0
  1  4  1  0
  1  2  1  0
  3  1  1  0
  5  4  1  0
  6  9  1  0
  7 12  2  0
  8  7  1  0
  9 10  1  0
  9  8  2  0
 10 11  2  0
 11 12  1  0
  2 13  1  0
  2 14  1  0
  2 15  1  0
  3 16  1  0
  3 17  1  0
  3 18  1  0
  4 19  1  0
  4 20  1  0
  5 21  1  0
  7 22  1  0
  8 23  1  0
 11 24  1  0
M  ISO  8  13   8  14   8  15   8  16   8  17   8  18   8  19   8  20   8
M  ISO  4  21  11  22  14  23  14  24  14
M  END
>  <minimizedAffinity>  (1) 
-3.42038584

>  <minimizedRMSD>  (1) 
0.0291824378

$$$$
