
     RDKit          3D

 39 40  0  0  0  0  0  0  0  0999 V2000
   38.7080   26.6450   34.4530 C   0  0  0  0  0  0  0  0  0  0  0  0
   37.8700   27.6170   35.2830 C   0  0  0  0  0  0  0  0  0  0  0  0
   38.6480   27.1520   33.0470 C   0  0  0  0  0  0  0  0  0  0  0  0
   40.1160   26.7890   34.9520 C   0  0  0  0  0  0  0  0  0  0  0  0
   41.2200   26.3040   34.1270 C   0  0  0  0  0  0  0  0  0  0  0  0
   41.9870   25.2590   34.9550 C   0  0  0  0  0  0  0  0  0  0  0  0
   43.4320   25.5900   35.1240 C   0  0  0  0  0  0  0  0  0  0  0  0
   44.1710   25.7860   33.8320 C   0  0  0  0  0  0  0  0  0  0  0  0
   43.2420   26.4120   32.8410 C   0  0  0  0  0  0  0  0  0  0  0  0
   42.2520   27.2680   33.6600 C   0  0  0  0  0  0  0  0  0  0  0  0
   38.1920   24.9530   34.6770 S   0  0  0  0  0  0  0  0  0  0  0  0
   38.1150   24.0960   38.6390 C   0  0  0  0  0  0  0  0  0  0  0  0
   37.8260   24.6640   37.3820 C   0  0  0  0  0  0  0  0  0  0  0  0
   38.5360   24.2560   36.2640 C   0  0  0  0  0  0  0  0  0  0  0  0
   39.4970   23.3080   36.4370 N   0  0  0  0  0  0  0  0  0  0  0  0
   39.7660   22.7700   37.6470 C   0  0  0  0  0  0  0  0  0  0  0  0
   39.0870   23.1550   38.7430 N   0  0  0  0  0  0  0  0  0  0  0  0
   38.0367   27.4236   36.3530 H   0  0  0  0  0  0  0  0  0  0  0  0
   38.1653   28.6499   35.0467 H   0  0  0  0  0  0  0  0  0  0  0  0
   36.8048   27.4770   35.0467 H   0  0  0  0  0  0  0  0  0  0  0  0
   38.5187   28.2443   33.0563 H   0  0  0  0  0  0  0  0  0  0  0  0
   39.5825   26.8978   32.5254 H   0  0  0  0  0  0  0  0  0  0  0  0
   37.7987   26.6867   32.5254 H   0  0  0  0  0  0  0  0  0  0  0  0
   40.2886   27.8622   35.1204 H   0  0  0  0  0  0  0  0  0  0  0  0
   40.1465   26.1371   35.8375 H   0  0  0  0  0  0  0  0  0  0  0  0
   40.7145   25.9561   33.2141 H   0  0  0  0  0  0  0  0  0  0  0  0
   41.5243   25.1935   35.9508 H   0  0  0  0  0  0  0  0  0  0  0  0
   41.9312   24.3048   34.4106 H   0  0  0  0  0  0  0  0  0  0  0  0
   43.5076   26.5182   35.7095 H   0  0  0  0  0  0  0  0  0  0  0  0
   43.8975   24.7304   35.6285 H   0  0  0  0  0  0  0  0  0  0  0  0
   45.0363   26.4450   33.9963 H   0  0  0  0  0  0  0  0  0  0  0  0
   44.5279   24.8172   33.4525 H   0  0  0  0  0  0  0  0  0  0  0  0
   42.7014   25.6346   32.2812 H   0  0  0  0  0  0  0  0  0  0  0  0
   43.7897   27.0232   32.1085 H   0  0  0  0  0  0  0  0  0  0  0  0
   42.7600   27.7377   34.5152 H   0  0  0  0  0  0  0  0  0  0  0  0
   41.8196   28.0875   33.0672 H   0  0  0  0  0  0  0  0  0  0  0  0
   37.5555   24.4139   39.5311 H   0  0  0  0  0  0  0  0  0  0  0  0
   37.0401   25.4280   37.2887 H   0  0  0  0  0  0  0  0  0  0  0  0
   40.5520   22.0057   37.7374 H   0  0  0  0  0  0  0  0  0  0  0  0
  1 11  1  0
  1  4  1  0
  1  2  1  0
  3  1  1  0
  5  4  1  0
  5  6  1  0
  6  7  1  0
  8  7  1  0
  9 10  1  0
  9  8  1  0
 10  5  1  0
 11 14  1  0
 12 17  2  0
 13 12  1  0
 14 15  1  0
 14 13  2  0
 15 16  2  0
 16 17  1  0
  2 18  1  0
  2 19  1  0
  2 20  1  0
  3 21  1  0
  3 22  1  0
  3 23  1  0
  4 24  1  0
  4 25  1  0
  5 26  1  0
  6 27  1  0
  6 28  1  0
  7 29  1  0
  7 30  1  0
  8 31  1  0
  8 32  1  0
  9 33  1  0
  9 34  1  0
 10 35  1  0
 10 36  1  0
 12 37  1  0
 13 38  1  0
 16 39  1  0
M  ISO  8  18   8  19   8  20   8  21   8  22   8  23   8  24   8  25   8
M  ISO  8  26  13  27  13  28  13  29  13  30  13  31  13  32  13  33  13
M  ISO  6  34  13  35  13  36  13  37  14  38  14  39  14
M  END
>  <minimizedAffinity>  (1) 
-4.33727026

>  <minimizedRMSD>  (1) 
0.317750394

$$$$
