
     RDKit          3D

 42 43  0  0  0  0  0  0  0  0999 V2000
   38.5140   26.7500   34.4580 C   0  0  0  0  0  0  0  0  0  0  0  0
   37.7600   27.6840   35.4170 C   0  0  0  0  0  0  0  0  0  0  0  0
   38.3430   27.3550   33.1100 C   0  0  0  0  0  0  0  0  0  0  0  0
   39.9630   26.8690   34.8470 C   0  0  0  0  0  0  0  0  0  0  0  0
   40.9900   26.4550   33.8990 C   0  0  0  0  0  0  0  0  0  0  0  0
   41.9310   25.4920   34.6110 C   0  0  0  0  0  0  0  0  0  0  0  0
   43.3600   25.9370   34.5880 C   0  0  0  0  0  0  0  0  0  0  0  0
   43.9050   26.1760   33.2100 C   0  0  0  0  0  0  0  0  0  0  0  0
   42.8020   26.6900   32.3420 C   0  0  0  0  0  0  0  0  0  0  0  0
   41.8730   27.4880   33.2820 C   0  0  0  0  0  0  0  0  0  0  0  0
   38.0040   25.0560   34.6240 S   0  0  0  0  0  0  0  0  0  0  0  0
   38.4470   23.6420   38.4050 C   0  0  0  0  0  0  0  0  0  0  0  0
   37.9440   24.3160   37.2640 C   0  0  0  0  0  0  0  0  0  0  0  0
   38.6140   24.2220   36.0600 C   0  0  0  0  0  0  0  0  0  0  0  0
   39.7360   23.4700   36.0540 N   0  0  0  0  0  0  0  0  0  0  0  0
   40.2190   22.8280   37.1300 C   0  0  0  0  0  0  0  0  0  0  0  0
   39.5780   22.9120   38.3070 N   0  0  0  0  0  0  0  0  0  0  0  0
   41.4670   22.0190   37.0300 C   0  0  0  0  0  0  0  0  0  0  0  0
   41.5020   21.3180   35.8400 F   0  0  0  0  0  0  0  0  0  0  0  0
   41.5160   21.1610   38.1090 F   0  0  0  0  0  0  0  0  0  0  0  0
   42.5250   22.9040   37.0040 F   0  0  0  0  0  0  0  0  0  0  0  0
   37.9867   27.4032   36.4561 H   0  0  0  0  0  0  0  0  0  0  0  0
   38.0756   28.7229   35.2407 H   0  0  0  0  0  0  0  0  0  0  0  0
   36.6779   27.5946   35.2407 H   0  0  0  0  0  0  0  0  0  0  0  0
   38.0452   28.4086   33.2161 H   0  0  0  0  0  0  0  0  0  0  0  0
   39.2930   27.2962   32.5585 H   0  0  0  0  0  0  0  0  0  0  0  0
   37.5644   26.8076   32.5585 H   0  0  0  0  0  0  0  0  0  0  0  0
   40.1477   27.9284   35.0786 H   0  0  0  0  0  0  0  0  0  0  0  0
   40.0705   26.1555   35.6773 H   0  0  0  0  0  0  0  0  0  0  0  0
   40.3943   26.0493   33.0680 H   0  0  0  0  0  0  0  0  0  0  0  0
   41.6102   25.4010   35.6592 H   0  0  0  0  0  0  0  0  0  0  0  0
   41.8797   24.5313   34.0777 H   0  0  0  0  0  0  0  0  0  0  0  0
   43.4392   26.8743   35.1582 H   0  0  0  0  0  0  0  0  0  0  0  0
   43.9535   25.1214   35.0269 H   0  0  0  0  0  0  0  0  0  0  0  0
   44.7162   26.9175   33.2560 H   0  0  0  0  0  0  0  0  0  0  0  0
   44.3023   25.2377   32.7957 H   0  0  0  0  0  0  0  0  0  0  0  0
   43.2056   27.3438   31.5548 H   0  0  0  0  0  0  0  0  0  0  0  0
   42.2662   25.8726   31.8372 H   0  0  0  0  0  0  0  0  0  0  0  0
   42.4569   28.0115   34.0534 H   0  0  0  0  0  0  0  0  0  0  0  0
   41.3020   28.2619   32.7481 H   0  0  0  0  0  0  0  0  0  0  0  0
   37.9176   23.7136   39.3666 H   0  0  0  0  0  0  0  0  0  0  0  0
   37.0225   24.9123   37.3373 H   0  0  0  0  0  0  0  0  0  0  0  0
  1 11  1  0
  1  4  1  0
  1  2  1  0
  3  1  1  0
  5  6  1  0
  5  4  1  0
  7  6  1  0
  8  7  1  0
  9  8  1  0
  9 10  1  0
 10  5  1  0
 11 14  1  0
 13 12  2  0
 14 13  1  0
 15 14  2  0
 15 16  1  0
 16 17  2  0
 17 12  1  0
 18 16  1  0
 18 20  1  0
 19 18  1  0
 21 18  1  0
  2 22  1  0
  2 23  1  0
  2 24  1  0
  3 25  1  0
  3 26  1  0
  3 27  1  0
  4 28  1  0
  4 29  1  0
  5 30  1  0
  6 31  1  0
  6 32  1  0
  7 33  1  0
  7 34  1  0
  8 35  1  0
  8 36  1  0
  9 37  1  0
  9 38  1  0
 10 39  1  0
 10 40  1  0
 12 41  1  0
 13 42  1  0
M  ISO  8  22   8  23   8  24   8  25   8  26   8  27   8  28   8  29   8
M  ISO  8  30  13  31  13  32  13  33  13  34  13  35  13  36  13  37  13
M  ISO  5  38  13  39  13  40  13  41  14  42  14
M  END
>  <minimizedAffinity>  (1) 
-5.03132868

>  <minimizedRMSD>  (1) 
0.659022212

$$$$
