
     RDKit          3D

 53 55  0  0  0  0  0  0  0  0999 V2000
   39.5930   26.1090   33.6190 C   0  0  0  0  0  0  0  0  0  0  0  0
   40.6740   27.2040   33.5570 C   0  0  0  0  0  0  0  0  0  0  0  0
   39.9950   25.0860   32.6060 C   0  0  0  0  0  0  0  0  0  0  0  0
   39.7230   25.5120   34.9880 C   0  0  0  0  0  0  0  0  0  0  0  0
   38.6500   24.6330   35.4810 C   0  0  0  0  0  0  0  0  0  0  0  0
   38.0580   25.2680   36.7370 C   0  0  0  0  0  0  0  0  0  0  0  0
   38.1300   24.3720   37.9300 C   0  0  0  0  0  0  0  0  0  0  0  0
   37.4780   23.0310   37.7330 C   0  0  0  0  0  0  0  0  0  0  0  0
   37.6580   22.6220   36.3120 C   0  0  0  0  0  0  0  0  0  0  0  0
   38.9950   23.2310   35.8510 C   0  0  0  0  0  0  0  0  0  0  0  0
   37.9550   26.7750   33.4200 S   0  0  0  0  0  0  0  0  0  0  0  0
   35.1270   25.6770   30.7210 C   0  0  0  0  0  0  0  0  0  0  0  0
   35.9940   26.4570   31.5230 C   0  0  0  0  0  0  0  0  0  0  0  0
   36.8640   25.8270   32.4090 C   0  0  0  0  0  0  0  0  0  0  0  0
   36.8370   24.4590   32.4600 N   0  0  0  0  0  0  0  0  0  0  0  0
   36.0020   23.7460   31.6880 C   0  0  0  0  0  0  0  0  0  0  0  0
   35.1590   24.3200   30.8290 N   0  0  0  0  0  0  0  0  0  0  0  0
   36.0260   22.3270   31.7920 N   0  0  0  0  0  0  0  0  0  0  0  0
   35.4480   21.6090   32.9020 C   0  0  0  0  0  0  0  0  0  0  0  0
   36.4700   20.5500   33.2880 C   0  0  0  0  0  0  0  0  0  0  0  0
   36.5620   19.5700   32.2530 N   0  0  0  0  0  0  0  0  0  0  0  0
   36.2990   20.0690   30.9200 C   0  0  0  0  0  0  0  0  0  0  0  0
   36.6510   21.5120   30.7560 C   0  0  0  0  0  0  0  0  0  0  0  0
   40.9607   27.4944   34.5785 H   0  0  0  0  0  0  0  0  0  0  0  0
   41.5559   26.8189   33.0241 H   0  0  0  0  0  0  0  0  0  0  0  0
   40.2776   28.0809   33.0241 H   0  0  0  0  0  0  0  0  0  0  0  0
   40.3507   24.1809   33.1201 H   0  0  0  0  0  0  0  0  0  0  0  0
   39.1292   24.8336   31.9762 H   0  0  0  0  0  0  0  0  0  0  0  0
   40.8010   25.4906   31.9762 H   0  0  0  0  0  0  0  0  0  0  0  0
   40.6529   24.9245   34.9980 H   0  0  0  0  0  0  0  0  0  0  0  0
   39.6877   26.3803   35.6623 H   0  0  0  0  0  0  0  0  0  0  0  0
   37.9765   24.5479   34.6154 H   0  0  0  0  0  0  0  0  0  0  0  0
   38.6124   26.1920   36.9579 H   0  0  0  0  0  0  0  0  0  0  0  0
   36.9948   25.4668   36.5369 H   0  0  0  0  0  0  0  0  0  0  0  0
   39.1898   24.2079   38.1749 H   0  0  0  0  0  0  0  0  0  0  0  0
   37.5794   24.8760   38.7380 H   0  0  0  0  0  0  0  0  0  0  0  0
   37.9482   22.2890   38.3951 H   0  0  0  0  0  0  0  0  0  0  0  0
   36.4066   23.0938   37.9743 H   0  0  0  0  0  0  0  0  0  0  0  0
   37.6920   21.5254   36.2330 H   0  0  0  0  0  0  0  0  0  0  0  0
   36.8233   22.9725   35.6871 H   0  0  0  0  0  0  0  0  0  0  0  0
   39.3936   22.6853   34.9830 H   0  0  0  0  0  0  0  0  0  0  0  0
   39.7717   23.1794   36.6282 H   0  0  0  0  0  0  0  0  0  0  0  0
   34.4343   26.1621   30.0176 H   0  0  0  0  0  0  0  0  0  0  0  0
   35.9806   27.5543   31.4468 H   0  0  0  0  0  0  0  0  0  0  0  0
   35.2654   22.2907   33.7458 H   0  0  0  0  0  0  0  0  0  0  0  0
   34.4807   21.1593   32.6336 H   0  0  0  0  0  0  0  0  0  0  0  0
   37.4521   21.0244   33.4307 H   0  0  0  0  0  0  0  0  0  0  0  0
   36.1553   20.0638   34.2232 H   0  0  0  0  0  0  0  0  0  0  0  0
   37.5145   19.1782   32.2664 H   0  0  0  0  0  0  0  0  0  0  0  0
   36.8898   19.4805   30.2026 H   0  0  0  0  0  0  0  0  0  0  0  0
   35.2182   19.9717   30.7399 H   0  0  0  0  0  0  0  0  0  0  0  0
   37.7433   21.6248   30.8206 H   0  0  0  0  0  0  0  0  0  0  0  0
   36.2841   21.8515   29.7762 H   0  0  0  0  0  0  0  0  0  0  0  0
  1  4  1  0
  2  1  1  0
  3  1  1  0
  4  5  1  0
  5 10  1  0
  5  6  1  0
  6  7  1  0
  8  7  1  0
  9  8  1  0
 10  9  1  0
 11  1  1  0
 12 17  2  0
 12 13  1  0
 13 14  2  0
 14 15  1  0
 14 11  1  0
 16 18  1  0
 16 15  2  0
 17 16  1  0
 18 19  1  0
 19 20  1  0
 21 20  1  0
 22 21  1  0
 23 22  1  0
 23 18  1  0
  2 24  1  0
  2 25  1  0
  2 26  1  0
  3 27  1  0
  3 28  1  0
  3 29  1  0
  4 30  1  0
  4 31  1  0
  5 32  1  0
  6 33  1  0
  6 34  1  0
  7 35  1  0
  7 36  1  0
  8 37  1  0
  8 38  1  0
  9 39  1  0
  9 40  1  0
 10 41  1  0
 10 42  1  0
 12 43  1  0
 13 44  1  0
 19 45  1  0
 19 46  1  0
 20 47  1  0
 20 48  1  0
 21 49  1  0
 22 50  1  0
 22 51  1  0
 23 52  1  0
 23 53  1  0
M  ISO  8  24   8  25   8  26   8  27   8  28   8  29   8  30   8  31   8
M  ISO  8  32  13  33  13  34  13  35  13  36  13  37  13  38  13  39  13
M  ISO  8  40  13  41  13  42  13  43  14  44  14  45  13  46  13  47  13
M  ISO  6  48  13  49   5  50  13  51  13  52  13  53  13
M  END
>  <minimizedAffinity>  (1) 
-5.00732279

>  <minimizedRMSD>  (1) 
6.37805271

$$$$
