
     RDKit          3D

 46 48  0  0  0  0  0  0  0  0999 V2000
   38.6510   26.6700   34.4870 C   0  0  0  0  0  0  0  0  0  0  0  0
   37.8600   27.6460   35.3780 C   0  0  0  0  0  0  0  0  0  0  0  0
   38.5560   27.2110   33.1000 C   0  0  0  0  0  0  0  0  0  0  0  0
   40.0680   26.7890   34.9620 C   0  0  0  0  0  0  0  0  0  0  0  0
   41.1490   26.3060   34.0880 C   0  0  0  0  0  0  0  0  0  0  0  0
   41.9600   25.2830   34.8710 C   0  0  0  0  0  0  0  0  0  0  0  0
   43.4090   25.6390   34.9690 C   0  0  0  0  0  0  0  0  0  0  0  0
   44.0780   25.8350   33.6400 C   0  0  0  0  0  0  0  0  0  0  0  0
   43.0970   26.4720   32.7080 C   0  0  0  0  0  0  0  0  0  0  0  0
   42.1320   27.3000   33.5770 C   0  0  0  0  0  0  0  0  0  0  0  0
   38.0930   25.0050   34.7030 S   0  0  0  0  0  0  0  0  0  0  0  0
   38.4670   23.7920   38.5420 C   0  0  0  0  0  0  0  0  0  0  0  0
   38.0320   24.4490   37.3690 C   0  0  0  0  0  0  0  0  0  0  0  0
   38.6420   24.1820   36.1600 C   0  0  0  0  0  0  0  0  0  0  0  0
   39.6510   23.2800   36.1820 N   0  0  0  0  0  0  0  0  0  0  0  0
   40.0700   22.6530   37.2930 C   0  0  0  0  0  0  0  0  0  0  0  0
   39.4830   22.9050   38.4670 N   0  0  0  0  0  0  0  0  0  0  0  0
   41.1670   21.6960   37.2140 C   0  0  0  0  0  0  0  0  0  0  0  0
   41.8620   21.5340   36.0150 C   0  0  0  0  0  0  0  0  0  0  0  0
   42.8570   20.5680   36.1940 C   0  0  0  0  0  0  0  0  0  0  0  0
   42.7250   20.1830   37.4920 N   0  0  0  0  0  0  0  0  0  0  0  0
   41.7400   20.8420   38.0790 N   0  0  0  0  0  0  0  0  0  0  0  0
   38.0494   27.4122   36.4360 H   0  0  0  0  0  0  0  0  0  0  0  0
   38.1806   28.6769   35.1672 H   0  0  0  0  0  0  0  0  0  0  0  0
   36.7850   27.5459   35.1672 H   0  0  0  0  0  0  0  0  0  0  0  0
   38.3659   28.2937   33.1410 H   0  0  0  0  0  0  0  0  0  0  0  0
   39.5006   27.0245   32.5682 H   0  0  0  0  0  0  0  0  0  0  0  0
   37.7314   26.7138   32.5682 H   0  0  0  0  0  0  0  0  0  0  0  0
   40.2574   27.8558   35.1519 H   0  0  0  0  0  0  0  0  0  0  0  0
   40.1136   26.1230   35.8363 H   0  0  0  0  0  0  0  0  0  0  0  0
   40.6174   25.9304   33.2013 H   0  0  0  0  0  0  0  0  0  0  0  0
   41.5468   25.2118   35.8879 H   0  0  0  0  0  0  0  0  0  0  0  0
   41.8914   24.3262   34.3326 H   0  0  0  0  0  0  0  0  0  0  0  0
   43.4981   26.5732   35.5428 H   0  0  0  0  0  0  0  0  0  0  0  0
   43.9133   24.7930   35.4588 H   0  0  0  0  0  0  0  0  0  0  0  0
   44.9557   26.4874   33.7584 H   0  0  0  0  0  0  0  0  0  0  0  0
   44.4091   24.8667   33.2367 H   0  0  0  0  0  0  0  0  0  0  0  0
   42.5417   25.6991   32.1563 H   0  0  0  0  0  0  0  0  0  0  0  0
   43.6084   27.1076   31.9702 H   0  0  0  0  0  0  0  0  0  0  0  0
   42.6701   27.7784   34.4086 H   0  0  0  0  0  0  0  0  0  0  0  0
   41.6517   28.1128   33.0125 H   0  0  0  0  0  0  0  0  0  0  0  0
   37.9827   24.0010   39.5073 H   0  0  0  0  0  0  0  0  0  0  0  0
   37.2063   25.1740   37.4195 H   0  0  0  0  0  0  0  0  0  0  0  0
   41.6599   22.0780   35.0805 H   0  0  0  0  0  0  0  0  0  0  0  0
   43.5826   20.2021   35.4527 H   0  0  0  0  0  0  0  0  0  0  0  0
   43.3123   19.4746   37.9547 H   0  0  0  0  0  0  0  0  0  0  0  0
  1 11  1  0
  1  4  1  0
  1  2  1  0
  3  1  1  0
  5  6  1  0
  5  4  1  0
  6  7  1  0
  8  7  1  0
  9 10  1  0
  9  8  1  0
 10  5  1  0
 11 14  1  0
 13 12  2  0
 14 15  2  0
 14 13  1  0
 15 16  1  0
 16 17  2  0
 17 12  1  0
 18 16  1  0
 18 22  2  0
 19 20  2  0
 19 18  1  0
 20 21  1  0
 21 22  1  0
  2 23  1  0
  2 24  1  0
  2 25  1  0
  3 26  1  0
  3 27  1  0
  3 28  1  0
  4 29  1  0
  4 30  1  0
  5 31  1  0
  6 32  1  0
  6 33  1  0
  7 34  1  0
  7 35  1  0
  8 36  1  0
  8 37  1  0
  9 38  1  0
  9 39  1  0
 10 40  1  0
 10 41  1  0
 12 42  1  0
 13 43  1  0
 19 44  1  0
 20 45  1  0
 21 46  1  0
M  ISO  8  23   8  24   8  25   8  26   8  27   8  28   8  29   8  30   8
M  ISO  8  31  13  32  13  33  13  34  13  35  13  36  13  37  13  38  13
M  ISO  8  39  13  40  13  41  13  42  14  43  14  44  14  45  14  46   9
M  END
>  <minimizedAffinity>  (1) 
-5.01843309

>  <minimizedRMSD>  (1) 
0.460204124

$$$$
