
     RDKit          3D

 42 43  0  0  0  0  0  0  0  0999 V2000
   38.6250   26.7140   34.4530 C   0  0  0  0  0  0  0  0  0  0  0  0
   37.8240   27.6760   35.3240 C   0  0  0  0  0  0  0  0  0  0  0  0
   38.5300   27.2330   33.0620 C   0  0  0  0  0  0  0  0  0  0  0  0
   40.0440   26.8340   34.9220 C   0  0  0  0  0  0  0  0  0  0  0  0
   41.1240   26.3500   34.0730 C   0  0  0  0  0  0  0  0  0  0  0  0
   41.9220   25.3050   34.8400 C   0  0  0  0  0  0  0  0  0  0  0  0
   43.3790   25.6460   34.9520 C   0  0  0  0  0  0  0  0  0  0  0  0
   44.0420   25.8210   33.6260 C   0  0  0  0  0  0  0  0  0  0  0  0
   43.0850   26.4840   32.6890 C   0  0  0  0  0  0  0  0  0  0  0  0
   42.1320   27.3200   33.5570 C   0  0  0  0  0  0  0  0  0  0  0  0
   38.0930   25.0280   34.6770 S   0  0  0  0  0  0  0  0  0  0  0  0
   38.2110   23.9550   38.5770 C   0  0  0  0  0  0  0  0  0  0  0  0
   37.8410   24.5770   37.3590 C   0  0  0  0  0  0  0  0  0  0  0  0
   38.5280   24.2750   36.2030 C   0  0  0  0  0  0  0  0  0  0  0  0
   39.5510   23.3730   36.2940 N   0  0  0  0  0  0  0  0  0  0  0  0
   39.8990   22.7850   37.4610 C   0  0  0  0  0  0  0  0  0  0  0  0
   39.2350   23.0720   38.5970 N   0  0  0  0  0  0  0  0  0  0  0  0
   41.0120   21.8130   37.5210 C   0  0  0  0  0  0  0  0  0  0  0  0
   38.0104   27.4521   36.3847 H   0  0  0  0  0  0  0  0  0  0  0  0
   38.1321   28.7096   35.1078 H   0  0  0  0  0  0  0  0  0  0  0  0
   36.7517   27.5602   35.1078 H   0  0  0  0  0  0  0  0  0  0  0  0
   38.3320   28.3147   33.0870 H   0  0  0  0  0  0  0  0  0  0  0  0
   39.4773   27.0457   32.5353 H   0  0  0  0  0  0  0  0  0  0  0  0
   37.7104   26.7223   32.5353 H   0  0  0  0  0  0  0  0  0  0  0  0
   40.2324   27.9029   35.1009 H   0  0  0  0  0  0  0  0  0  0  0  0
   40.0842   26.1671   35.7959 H   0  0  0  0  0  0  0  0  0  0  0  0
   40.5756   25.9958   33.1877 H   0  0  0  0  0  0  0  0  0  0  0  0
   41.5033   25.2185   35.8535 H   0  0  0  0  0  0  0  0  0  0  0  0
   41.8472   24.3595   34.2828 H   0  0  0  0  0  0  0  0  0  0  0  0
   43.4767   26.5836   35.5190 H   0  0  0  0  0  0  0  0  0  0  0  0
   43.8751   24.8052   35.4589 H   0  0  0  0  0  0  0  0  0  0  0  0
   44.9390   26.4472   33.7416 H   0  0  0  0  0  0  0  0  0  0  0  0
   44.3367   24.8401   33.2248 H   0  0  0  0  0  0  0  0  0  0  0  0
   42.5199   25.7274   32.1249 H   0  0  0  0  0  0  0  0  0  0  0  0
   43.6149   27.1146   31.9599 H   0  0  0  0  0  0  0  0  0  0  0  0
   42.6782   27.7884   34.3890 H   0  0  0  0  0  0  0  0  0  0  0  0
   41.6642   28.1360   32.9866 H   0  0  0  0  0  0  0  0  0  0  0  0
   37.6669   24.1897   39.5037 H   0  0  0  0  0  0  0  0  0  0  0  0
   37.0098   25.2971   37.3361 H   0  0  0  0  0  0  0  0  0  0  0  0
   41.2563   21.5997   38.5721 H   0  0  0  0  0  0  0  0  0  0  0  0
   40.7130   20.8817   37.0178 H   0  0  0  0  0  0  0  0  0  0  0  0
   41.8946   22.2347   37.0178 H   0  0  0  0  0  0  0  0  0  0  0  0
  1 11  1  0
  1  4  1  0
  1  2  1  0
  3  1  1  0
  5  6  1  0
  5  4  1  0
  6  7  1  0
  8  7  1  0
  9 10  1  0
  9  8  1  0
 10  5  1  0
 11 14  1  0
 12 17  2  0
 13 12  1  0
 14 15  1  0
 14 13  2  0
 15 16  2  0
 16 18  1  0
 16 17  1  0
  2 19  1  0
  2 20  1  0
  2 21  1  0
  3 22  1  0
  3 23  1  0
  3 24  1  0
  4 25  1  0
  4 26  1  0
  5 27  1  0
  6 28  1  0
  6 29  1  0
  7 30  1  0
  7 31  1  0
  8 32  1  0
  8 33  1  0
  9 34  1  0
  9 35  1  0
 10 36  1  0
 10 37  1  0
 12 38  1  0
 13 39  1  0
 18 40  1  0
 18 41  1  0
 18 42  1  0
M  ISO  8  19   8  20   8  21   8  22   8  23   8  24   8  25   8  26   8
M  ISO  8  27  13  28  13  29  13  30  13  31  13  32  13  33  13  34  13
M  ISO  8  35  13  36  13  37  13  38  14  39  14  40   8  41   8  42   8
M  END
>  <minimizedAffinity>  (1) 
-4.75035906

>  <minimizedRMSD>  (1) 
0.176051855

$$$$
