
     RDKit          3D

 38 41  0  0  1  0  0  0  0  0999 V2000
   40.3800   22.2330   37.5870 C   0  0  0  0  0  0  0  0  0  0  0  0
   40.1190   23.3710   36.8300 C   0  0  0  0  0  0  0  0  0  0  0  0
   40.9120   23.5960   35.6840 C   0  0  0  0  0  0  0  0  0  0  0  0
   41.8870   22.6950   35.3740 N   0  0  0  0  0  0  0  0  0  0  0  0
   42.1100   21.5950   36.1390 C   0  0  0  0  0  0  0  0  0  0  0  0
   41.3510   21.3760   37.2420 N   0  0  0  0  0  0  0  0  0  0  0  0
   40.7290   24.7250   34.8400 N   0  0  0  0  0  0  0  0  0  0  0  0
   41.6290   25.7850   34.4580 C   0  0  0  0  0  0  0  0  0  0  0  0
   40.6240   26.9550   34.5360 C   0  0  0  0  0  0  0  0  0  0  0  0
   39.5770   26.3640   33.5740 C   0  0  1  0  0  0  0  0  0  0  0  0
   39.4480   24.9870   34.1700 C   0  0  0  0  0  0  0  0  0  0  0  0
   38.3470   27.1450   33.5270 C   0  0  0  0  0  0  0  0  0  0  0  0
   37.5060   27.4500   34.5710 C   0  0  0  0  0  0  0  0  0  0  0  0
   36.3470   28.1830   34.5040 C   0  0  0  0  0  0  0  0  0  0  0  0
   35.9590   28.6810   33.2770 C   0  0  0  0  0  0  0  0  0  0  0  0
   36.7590   28.4120   32.1870 C   0  0  0  0  0  0  0  0  0  0  0  0
   36.3070   28.9440   30.9970 C   0  0  0  0  0  0  0  0  0  0  0  0
   37.0420   28.7320   29.8490 C   0  0  0  0  0  0  0  0  0  0  0  0
   38.2070   27.9970   29.9090 C   0  0  0  0  0  0  0  0  0  0  0  0
   38.5920   27.4980   31.1350 C   0  0  0  0  0  0  0  0  0  0  0  0
   37.9130   27.6660   32.3230 C   0  0  0  0  0  0  0  0  0  0  0  0
   39.7780   22.0330   38.4856 H   0  0  0  0  0  0  0  0  0  0  0  0
   39.3210   24.0723   37.1152 H   0  0  0  0  0  0  0  0  0  0  0  0
   42.9034   20.8840   35.8651 H   0  0  0  0  0  0  0  0  0  0  0  0
   42.0298   25.6464   33.4430 H   0  0  0  0  0  0  0  0  0  0  0  0
   42.5401   25.8885   35.0657 H   0  0  0  0  0  0  0  0  0  0  0  0
   40.2273   27.1026   35.5513 H   0  0  0  0  0  0  0  0  0  0  0  0
   41.0110   27.9549   34.2901 H   0  0  0  0  0  0  0  0  0  0  0  0
   39.8462   26.3584   32.5075 H   0  0  0  0  0  0  0  0  0  0  0  0
   38.6221   24.9586   34.8960 H   0  0  0  0  0  0  0  0  0  0  0  0
   39.2277   24.2303   33.4026 H   0  0  0  0  0  0  0  0  0  0  0  0
   37.7911   27.0673   35.5621 H   0  0  0  0  0  0  0  0  0  0  0  0
   35.7436   28.3684   35.4048 H   0  0  0  0  0  0  0  0  0  0  0  0
   35.0390   29.2748   33.1718 H   0  0  0  0  0  0  0  0  0  0  0  0
   35.3754   29.5279   30.9641 H   0  0  0  0  0  0  0  0  0  0  0  0
   36.7000   29.1476   28.8897 H   0  0  0  0  0  0  0  0  0  0  0  0
   38.8100   27.8146   29.0073 H   0  0  0  0  0  0  0  0  0  0  0  0
   39.5236   26.9140   31.1684 H   0  0  0  0  0  0  0  0  0  0  0  0
  2  1  2  0
  3  2  1  0
  4  3  2  0
  4  5  1  0
  5  6  2  0
  6  1  1  0
  7  3  1  0
  8  9  1  0
  8  7  1  0
 10 11  1  0
 10  9  1  0
 11  7  1  0
 12 10  1  0
 12 13  2  0
 14 13  1  0
 15 14  2  0
 16 21  2  0
 16 15  1  0
 17 16  1  0
 18 19  1  0
 18 17  2  0
 19 20  2  0
 20 21  1  0
 21 12  1  0
  1 22  1  0
  2 23  1  0
  5 24  1  0
  8 25  1  0
  8 26  1  0
  9 27  1  0
  9 28  1  0
 10 29  1  6
 11 30  1  0
 11 31  1  0
 13 32  1  0
 14 33  1  0
 15 34  1  0
 17 35  1  0
 18 36  1  0
 19 37  1  0
 20 38  1  0
M  ISO  8  22  14  23  14  24  14  25  13  26  13  27  13  28  13  29  13
M  ISO  8  30  13  31  13  32  14  33  14  34  14  35  14  36  14  37  14
M  ISO  1  38  14
M  END
>  <minimizedAffinity>  (1) 
-5.73635387

>  <minimizedRMSD>  (1) 
2.90209603

$$$$
