
     RDKit          3D

 23 24  0  0  0  0  0  0  0  0999 V2000
   40.9210   21.9660   37.4780 C   0  0  0  0  0  0  0  0  0  0  0  0
   39.9010   22.8340   37.8820 C   0  0  0  0  0  0  0  0  0  0  0  0
   39.1280   23.4460   36.9140 C   0  0  0  0  0  0  0  0  0  0  0  0
   39.3780   23.1920   35.6010 N   0  0  0  0  0  0  0  0  0  0  0  0
   40.3800   22.3410   35.2390 C   0  0  0  0  0  0  0  0  0  0  0  0
   41.1470   21.7310   36.1560 N   0  0  0  0  0  0  0  0  0  0  0  0
   38.0390   24.3710   37.3120 C   0  0  0  0  0  0  0  0  0  0  0  0
   37.7010   25.1880   36.0780 C   0  0  0  0  0  0  0  0  0  0  0  0
   38.3820   26.5420   36.3360 C   0  0  0  0  0  0  0  0  0  0  0  0
   37.8830   27.6090   35.3940 C   0  0  0  0  0  0  0  0  0  0  0  0
   39.2880   27.1340   35.3510 C   0  0  0  0  0  0  0  0  0  0  0  0
   41.5458   21.4691   38.2348 H   0  0  0  0  0  0  0  0  0  0  0  0
   39.7179   23.0256   38.9496 H   0  0  0  0  0  0  0  0  0  0  0  0
   40.5638   22.1501   34.1714 H   0  0  0  0  0  0  0  0  0  0  0  0
   37.1585   23.8018   37.6448 H   0  0  0  0  0  0  0  0  0  0  0  0
   38.3486   25.0172   38.1466 H   0  0  0  0  0  0  0  0  0  0  0  0
   36.6127   25.3102   35.9750 H   0  0  0  0  0  0  0  0  0  0  0  0
   38.0410   24.7117   35.1465 H   0  0  0  0  0  0  0  0  0  0  0  0
   38.4961   26.3714   37.4167 H   0  0  0  0  0  0  0  0  0  0  0  0
   37.1858   27.3504   34.5835 H   0  0  0  0  0  0  0  0  0  0  0  0
   37.3857   28.5841   35.5031 H   0  0  0  0  0  0  0  0  0  0  0  0
   39.6347   26.5325   34.4978 H   0  0  0  0  0  0  0  0  0  0  0  0
   40.2687   27.6289   35.4087 H   0  0  0  0  0  0  0  0  0  0  0  0
  1  2  2  0
  3  7  1  0
  3  2  1  0
  4  3  2  0
  5  4  1  0
  5  6  2  0
  6  1  1  0
  8  9  1  0
  8  7  1  0
 10  9  1  0
 11 10  1  0
 11  9  1  0
  1 12  1  0
  2 13  1  0
  5 14  1  0
  7 15  1  0
  7 16  1  0
  8 17  1  0
  8 18  1  0
  9 19  1  0
 10 20  1  0
 10 21  1  0
 11 22  1  0
 11 23  1  0
M  ISO  8  12  14  13  14  14  14  15   8  16   8  17   8  18   8  19  13
M  ISO  4  20  13  21  13  22  13  23  13
M  END
>  <minimizedAffinity>  (1) 
-3.67353535

>  <minimizedRMSD>  (1) 
2.74352407

$$$$
