
     RDKit          3D

 36 39  0  0  1  0  0  0  0  0999 V2000
   40.1300   22.7110   37.3720 C   0  0  0  0  0  0  0  0  0  0  0  0
   39.2940   23.7330   36.8980 C   0  0  0  0  0  0  0  0  0  0  0  0
   39.7240   24.4090   35.7340 C   0  0  0  0  0  0  0  0  0  0  0  0
   40.8970   24.0490   35.1340 N   0  0  0  0  0  0  0  0  0  0  0  0
   41.6680   23.0440   35.6440 C   0  0  0  0  0  0  0  0  0  0  0  0
   41.2790   22.3820   36.7580 N   0  0  0  0  0  0  0  0  0  0  0  0
   38.9580   25.4580   35.1690 N   0  0  0  0  0  0  0  0  0  0  0  0
   39.3050   26.8620   34.9510 C   0  0  0  0  0  0  0  0  0  0  0  0
   37.9590   27.4760   35.2930 C   0  0  0  0  0  0  0  0  0  0  0  0
   37.0620   26.6520   34.3850 C   0  0  2  0  0  0  0  0  0  0  0  0
   37.5930   25.2710   34.6790 C   0  0  0  0  0  0  0  0  0  0  0  0
   37.3290   26.9700   33.0160 N   0  0  0  0  0  0  0  0  0  0  0  0
   38.2120   26.3430   32.1850 C   0  0  0  0  0  0  0  0  0  0  0  0
   38.1950   26.9170   30.9600 N   0  0  0  0  0  0  0  0  0  0  0  0
   37.3070   27.9160   30.9770 C   0  0  0  0  0  0  0  0  0  0  0  0
   36.9480   28.7810   29.9690 C   0  0  0  0  0  0  0  0  0  0  0  0
   37.4760   28.6980   28.8270 O   0  0  0  0  0  0  0  0  0  0  0  0
   36.0160   29.7030   30.2680 N   0  0  0  0  0  0  0  0  0  0  0  0
   35.4860   29.7440   31.5090 C   0  0  0  0  0  0  0  0  0  0  0  0
   34.5010   30.7280   31.8040 N   0  0  0  0  0  0  0  0  0  0  0  0
   35.8510   28.8810   32.4980 N   0  0  0  0  0  0  0  0  0  0  0  0
   36.7800   27.9380   32.2560 C   0  0  0  0  0  0  0  0  0  0  0  0
   39.8348   22.1602   38.2772 H   0  0  0  0  0  0  0  0  0  0  0  0
   38.3537   23.9943   37.4055 H   0  0  0  0  0  0  0  0  0  0  0  0
   42.6104   22.7712   35.1465 H   0  0  0  0  0  0  0  0  0  0  0  0
   40.1014   27.2031   35.6287 H   0  0  0  0  0  0  0  0  0  0  0  0
   39.7062   27.1084   33.9568 H   0  0  0  0  0  0  0  0  0  0  0  0
   37.7042   27.3385   36.3542 H   0  0  0  0  0  0  0  0  0  0  0  0
   37.8936   28.5646   35.1489 H   0  0  0  0  0  0  0  0  0  0  0  0
   35.9829   26.7961   34.5421 H   0  0  0  0  0  0  0  0  0  0  0  0
   36.9759   24.7798   35.4458 H   0  0  0  0  0  0  0  0  0  0  0  0
   37.5711   24.6326   33.7835 H   0  0  0  0  0  0  0  0  0  0  0  0
   38.8473   25.4917   32.4708 H   0  0  0  0  0  0  0  0  0  0  0  0
   35.7073   30.3762   29.5522 H   0  0  0  0  0  0  0  0  0  0  0  0
   34.0853   30.7746   32.7453 H   0  0  0  0  0  0  0  0  0  0  0  0
   34.2038   31.3935   31.0762 H   0  0  0  0  0  0  0  0  0  0  0  0
  2  1  2  0
  3  2  1  0
  4  5  1  0
  4  3  2  0
  5  6  2  0
  6  1  1  0
  7  3  1  0
  8  7  1  0
  8  9  1  0
 10 11  1  0
 10  9  1  0
 11  7  1  0
 12 10  1  0
 13 12  1  0
 14 15  1  0
 14 13  2  0
 15 22  2  0
 16 18  1  0
 16 15  1  0
 17 16  2  0
 18 19  1  0
 19 20  1  0
 19 21  2  0
 22 21  1  0
 22 12  1  0
  1 23  1  0
  2 24  1  0
  5 25  1  0
  8 26  1  0
  8 27  1  0
  9 28  1  0
  9 29  1  0
 10 30  1  1
 11 31  1  0
 11 32  1  0
 13 33  1  0
 18 34  1  0
 20 35  1  0
 20 36  1  0
M  ISO  8  23  14  24  14  25  14  26  13  27  13  28  13  29  13  30  13
M  ISO  4  31  13  32  13  33  14  34   9
M  END
>  <minimizedAffinity>  (1) 
-5.46427488

>  <minimizedRMSD>  (1) 
0.889525354

$$$$
