
     RDKit          3D

 33 36  0  0  1  0  0  0  0  0999 V2000
   40.7380   21.9780   37.4900 C   0  0  0  0  0  0  0  0  0  0  0  0
   39.9430   23.1090   37.2300 C   0  0  0  0  0  0  0  0  0  0  0  0
   40.0760   23.6950   35.9580 C   0  0  0  0  0  0  0  0  0  0  0  0
   40.9510   23.1400   35.0670 N   0  0  0  0  0  0  0  0  0  0  0  0
   41.6960   22.0500   35.3600 C   0  0  0  0  0  0  0  0  0  0  0  0
   41.5830   21.4760   36.5710 N   0  0  0  0  0  0  0  0  0  0  0  0
   39.3420   24.8330   35.5590 N   0  0  0  0  0  0  0  0  0  0  0  0
   39.7830   26.1540   35.1190 C   0  0  0  0  0  0  0  0  0  0  0  0
   38.7650   27.0000   35.8800 C   0  0  0  0  0  0  0  0  0  0  0  0
   37.4950   26.3170   35.4420 C   0  0  2  0  0  0  0  0  0  0  0  0
   37.8790   24.8540   35.5260 C   0  0  0  0  0  0  0  0  0  0  0  0
   37.0760   26.7310   34.1450 N   0  0  0  0  0  0  0  0  0  0  0  0
   37.1820   26.0450   32.9990 C   0  0  0  0  0  0  0  0  0  0  0  0
   36.6740   26.7710   31.9860 N   0  0  0  0  0  0  0  0  0  0  0  0
   36.2240   27.9520   32.4570 C   0  0  0  0  0  0  0  0  0  0  0  0
   35.6360   28.9950   31.7960 C   0  0  0  0  0  0  0  0  0  0  0  0
   35.2870   30.0660   32.5520 N   0  0  0  0  0  0  0  0  0  0  0  0
   35.5330   30.0490   33.8910 C   0  0  0  0  0  0  0  0  0  0  0  0
   36.1200   29.0000   34.5240 N   0  0  0  0  0  0  0  0  0  0  0  0
   36.4860   27.9060   33.8110 C   0  0  0  0  0  0  0  0  0  0  0  0
   40.6668   21.4898   38.4731 H   0  0  0  0  0  0  0  0  0  0  0  0
   39.2520   23.5149   37.9835 H   0  0  0  0  0  0  0  0  0  0  0  0
   42.3894   21.6359   34.6132 H   0  0  0  0  0  0  0  0  0  0  0  0
   40.8159   26.3704   35.4293 H   0  0  0  0  0  0  0  0  0  0  0  0
   39.8129   26.3086   34.0303 H   0  0  0  0  0  0  0  0  0  0  0  0
   38.9106   26.9363   36.9685 H   0  0  0  0  0  0  0  0  0  0  0  0
   38.8092   28.0802   35.6767 H   0  0  0  0  0  0  0  0  0  0  0  0
   36.6176   26.5598   36.0594 H   0  0  0  0  0  0  0  0  0  0  0  0
   37.4677   24.4008   36.4400 H   0  0  0  0  0  0  0  0  0  0  0  0
   37.4825   24.2794   34.6759 H   0  0  0  0  0  0  0  0  0  0  0  0
   37.6184   25.0400   32.9009 H   0  0  0  0  0  0  0  0  0  0  0  0
   35.4560   28.9670   30.7112 H   0  0  0  0  0  0  0  0  0  0  0  0
   35.2428   30.9259   34.4884 H   0  0  0  0  0  0  0  0  0  0  0  0
  2  1  2  0
  3  2  1  0
  4  5  1  0
  4  3  2  0
  5  6  2  0
  6  1  1  0
  7  3  1  0
  8  7  1  0
  8  9  1  0
 10 11  1  0
 10  9  1  0
 11  7  1  0
 12 10  1  0
 13 12  1  0
 14 15  1  0
 14 13  2  0
 15 20  2  0
 16 15  1  0
 16 17  2  0
 17 18  1  0
 18 19  2  0
 20 12  1  0
 20 19  1  0
  1 21  1  0
  2 22  1  0
  5 23  1  0
  8 24  1  0
  8 25  1  0
  9 26  1  0
  9 27  1  0
 10 28  1  1
 11 29  1  0
 11 30  1  0
 13 31  1  0
 16 32  1  0
 18 33  1  0
M  ISO  8  21  14  22  14  23  14  24  13  25  13  26  13  27  13  28  13
M  ISO  5  29  13  30  13  31  14  32  14  33  14
M  END
>  <minimizedAffinity>  (1) 
-5.18127489

>  <minimizedRMSD>  (1) 
1.34704053

$$$$
