
     RDKit          3D

 35 38  0  0  1  0  0  0  0  0999 V2000
   40.4220   22.1690   37.5730 C   0  0  0  0  0  0  0  0  0  0  0  0
   40.1270   23.2920   36.7890 C   0  0  0  0  0  0  0  0  0  0  0  0
   40.9930   23.6140   35.7480 C   0  0  0  0  0  0  0  0  0  0  0  0
   42.0790   22.8120   35.5560 N   0  0  0  0  0  0  0  0  0  0  0  0
   42.3390   21.7360   36.3280 C   0  0  0  0  0  0  0  0  0  0  0  0
   41.5130   21.4190   37.3300 N   0  0  0  0  0  0  0  0  0  0  0  0
   40.7940   24.7190   34.8980 N   0  0  0  0  0  0  0  0  0  0  0  0
   41.6500   25.8790   34.6310 C   0  0  0  0  0  0  0  0  0  0  0  0
   40.5650   26.9560   34.6210 C   0  0  0  0  0  0  0  0  0  0  0  0
   39.6390   26.3150   33.5810 C   0  0  1  0  0  0  0  0  0  0  0  0
   39.6070   24.8960   34.0830 C   0  0  0  0  0  0  0  0  0  0  0  0
   38.3510   26.9700   33.6880 N   0  0  0  0  0  0  0  0  0  0  0  0
   37.5740   27.1040   34.8010 C   0  0  0  0  0  0  0  0  0  0  0  0
   36.4380   27.7820   34.4880 N   0  0  0  0  0  0  0  0  0  0  0  0
   36.5000   28.0730   33.1810 C   0  0  0  0  0  0  0  0  0  0  0  0
   35.6350   28.7350   32.3520 C   0  0  0  0  0  0  0  0  0  0  0  0
   35.9360   28.9000   31.0410 N   0  0  0  0  0  0  0  0  0  0  0  0
   37.0890   28.4120   30.5550 C   0  0  0  0  0  0  0  0  0  0  0  0
   37.9390   27.7610   31.3690 N   0  0  0  0  0  0  0  0  0  0  0  0
   37.6840   27.5710   32.6810 C   0  0  0  0  0  0  0  0  0  0  0  0
   34.4160   29.2550   32.8520 N   0  0  0  0  0  0  0  0  0  0  0  0
   39.7510   21.8957   38.4007 H   0  0  0  0  0  0  0  0  0  0  0  0
   39.2348   23.9029   36.9908 H   0  0  0  0  0  0  0  0  0  0  0  0
   43.2296   21.1206   36.1329 H   0  0  0  0  0  0  0  0  0  0  0  0
   42.3897   26.0419   35.4287 H   0  0  0  0  0  0  0  0  0  0  0  0
   42.2735   25.8174   33.7268 H   0  0  0  0  0  0  0  0  0  0  0  0
   40.0780   27.0661   35.6011 H   0  0  0  0  0  0  0  0  0  0  0  0
   40.9025   27.9797   34.4016 H   0  0  0  0  0  0  0  0  0  0  0  0
   39.9369   26.3854   32.5244 H   0  0  0  0  0  0  0  0  0  0  0  0
   38.7032   24.7271   34.6868 H   0  0  0  0  0  0  0  0  0  0  0  0
   39.5879   24.1798   33.2483 H   0  0  0  0  0  0  0  0  0  0  0  0
   37.8281   26.7214   35.8005 H   0  0  0  0  0  0  0  0  0  0  0  0
   37.3380   28.5447   29.4918 H   0  0  0  0  0  0  0  0  0  0  0  0
   33.7708   29.7518   32.2213 H   0  0  0  0  0  0  0  0  0  0  0  0
   34.1748   29.1363   33.8463 H   0  0  0  0  0  0  0  0  0  0  0  0
  2  1  2  0
  3  2  1  0
  4  3  2  0
  4  5  1  0
  5  6  2  0
  6  1  1  0
  7  3  1  0
  8  7  1  0
  9  8  1  0
 10 12  1  0
 10 11  1  0
 10  9  1  0
 11  7  1  0
 12 13  1  0
 14 13  2  0
 15 14  1  0
 16 21  1  0
 16 15  2  0
 17 16  1  0
 18 17  2  0
 18 19  1  0
 19 20  2  0
 20 15  1  0
 20 12  1  0
  1 22  1  0
  2 23  1  0
  5 24  1  0
  8 25  1  0
  8 26  1  0
  9 27  1  0
  9 28  1  0
 10 29  1  6
 11 30  1  0
 11 31  1  0
 13 32  1  0
 18 33  1  0
 21 34  1  0
 21 35  1  0
M  ISO  8  22  14  23  14  24  14  25  13  26  13  27  13  28  13  29  13
M  ISO  4  30  13  31  13  32  14  33  14
M  END
>  <minimizedAffinity>  (1) 
-5.01356363

>  <minimizedRMSD>  (1) 
3.15437317

$$$$
