
     RDKit          3D

 50 53  0  0  1  0  0  0  0  0999 V2000
   36.2240   29.5740   32.3380 C   0  0  0  0  0  0  0  0  0  0  0  0
   36.9870   28.5970   31.7530 C   0  0  0  0  0  0  0  0  0  0  0  0
   37.3040   27.4740   32.5140 C   0  0  0  0  0  0  0  0  0  0  0  0
   36.8630   27.3560   33.8080 C   0  0  0  0  0  0  0  0  0  0  0  0
   36.0940   28.3370   34.4010 C   0  0  0  0  0  0  0  0  0  0  0  0
   35.7710   29.4540   33.6650 C   0  0  0  0  0  0  0  0  0  0  0  0
   37.3010   26.0980   34.4490 C   0  0  0  0  0  0  0  0  0  0  0  0
   38.7070   26.1240   34.9320 C   0  0  2  0  0  0  0  0  0  0  0  0
   40.6680   23.2280   36.0210 C   0  0  0  0  0  0  0  0  0  0  0  0
   39.8540   22.6510   37.0490 C   0  0  0  0  0  0  0  0  0  0  0  0
   38.6230   23.2740   37.3560 C   0  0  0  0  0  0  0  0  0  0  0  0
   38.3020   24.3950   36.6370 N   0  0  0  0  0  0  0  0  0  0  0  0
   39.0990   24.9100   35.6730 C   0  0  0  0  0  0  0  0  0  0  0  0
   40.2770   24.3410   35.3560 N   0  0  0  0  0  0  0  0  0  0  0  0
   38.8680   27.3280   35.8770 C   0  0  0  0  0  0  0  0  0  0  0  0
   35.8050   31.0040   31.4090 S   0  0  0  0  0  0  0  0  0  0  0  0
   36.3240   30.7720   29.9940 O   0  0  0  0  0  0  0  0  0  0  0  0
   36.4600   32.2210   31.9580 O   0  0  0  0  0  0  0  0  0  0  0  0
   34.0780   31.2200   31.3580 C   0  0  0  0  0  0  0  0  0  0  0  0
   33.0300   30.5590   31.8730 N   0  0  0  0  0  0  0  0  0  0  0  0
   31.9170   31.1440   31.5320 O   0  0  0  0  0  0  0  0  0  0  0  0
   32.1810   32.1940   30.7930 C   0  0  0  0  0  0  0  0  0  0  0  0
   33.5080   32.2400   30.6860 N   0  0  0  0  0  0  0  0  0  0  0  0
   31.2300   33.1570   30.1820 C   0  0  0  0  0  0  0  0  0  0  0  0
   29.7980   32.7490   30.2780 C   0  0  0  0  0  0  0  0  0  0  0  0
   29.5750   31.8080   29.1290 C   0  0  0  0  0  0  0  0  0  0  0  0
   30.8020   31.9080   28.2300 C   0  0  0  0  0  0  0  0  0  0  0  0
   31.5200   33.1410   28.6830 C   0  0  0  0  0  0  0  0  0  0  0  0
   37.3380   28.6966   30.7153 H   0  0  0  0  0  0  0  0  0  0  0  0
   37.9148   26.6727   32.0725 H   0  0  0  0  0  0  0  0  0  0  0  0
   35.7470   28.2283   35.4391 H   0  0  0  0  0  0  0  0  0  0  0  0
   35.1600   30.2515   34.1130 H   0  0  0  0  0  0  0  0  0  0  0  0
   36.6435   25.9003   35.3084 H   0  0  0  0  0  0  0  0  0  0  0  0
   37.2422   25.3121   33.6816 H   0  0  0  0  0  0  0  0  0  0  0  0
   39.3526   26.1891   34.0438 H   0  0  0  0  0  0  0  0  0  0  0  0
   41.6294   22.7578   35.7669 H   0  0  0  0  0  0  0  0  0  0  0  0
   40.1784   21.7470   37.5852 H   0  0  0  0  0  0  0  0  0  0  0  0
   37.9548   22.8778   38.1348 H   0  0  0  0  0  0  0  0  0  0  0  0
   38.8220   26.9837   36.9207 H   0  0  0  0  0  0  0  0  0  0  0  0
   39.8388   27.8114   35.6929 H   0  0  0  0  0  0  0  0  0  0  0  0
   38.0583   28.0495   35.6929 H   0  0  0  0  0  0  0  0  0  0  0  0
   31.3632   34.1167   30.7028 H   0  0  0  0  0  0  0  0  0  0  0  0
   29.6056   32.2412   31.2346 H   0  0  0  0  0  0  0  0  0  0  0  0
   29.1215   33.6153   30.2352 H   0  0  0  0  0  0  0  0  0  0  0  0
   29.4606   30.7787   29.4998 H   0  0  0  0  0  0  0  0  0  0  0  0
   28.6603   32.0703   28.5772 H   0  0  0  0  0  0  0  0  0  0  0  0
   30.5015   32.0017   27.1760 H   0  0  0  0  0  0  0  0  0  0  0  0
   31.4374   31.0128   28.2999 H   0  0  0  0  0  0  0  0  0  0  0  0
   32.5999   33.0672   28.4873 H   0  0  0  0  0  0  0  0  0  0  0  0
   31.1960   34.0545   28.1628 H   0  0  0  0  0  0  0  0  0  0  0  0
  1  6  1  0
  2  1  2  0
  2  3  1  0
  3  4  2  0
  4  5  1  0
  4  7  1  0
  6  5  2  0
  7  8  1  0
  8 13  1  0
  8 15  1  0
  9 10  2  0
 10 11  1  0
 12 11  2  0
 13 12  1  0
 14 13  2  0
 14  9  1  0
 16 18  2  0
 16  1  1  0
 17 16  2  0
 19 16  1  0
 19 20  2  0
 21 20  1  0
 22 21  1  0
 23 22  2  0
 23 19  1  0
 24 25  1  0
 24 22  1  0
 26 25  1  0
 27 28  1  0
 27 26  1  0
 28 24  1  0
  2 29  1  0
  3 30  1  0
  5 31  1  0
  6 32  1  0
  7 33  1  0
  7 34  1  0
  8 35  1  6
  9 36  1  0
 10 37  1  0
 11 38  1  0
 15 39  1  0
 15 40  1  0
 15 41  1  0
 24 42  1  0
 25 43  1  0
 25 44  1  0
 26 45  1  0
 26 46  1  0
 27 47  1  0
 27 48  1  0
 28 49  1  0
 28 50  1  0
M  ISO  8  29  14  30  14  31  14  32  14  33   8  34   8  35   8  36  14
M  ISO  8  37  14  38  14  39   8  40   8  41   8  42  13  43  13  44  13
M  ISO  6  45  13  46  13  47  13  48  13  49  13  50  13
M  END
>  <minimizedAffinity>  (1) 
-5.46538448

>  <minimizedRMSD>  (1) 
1.3181951

$$$$
