
     RDKit          3D

 27 29  0  0  1  0  0  0  0  0999 V2000
   38.0210   24.1400   38.3090 C   0  0  0  0  0  0  0  0  0  0  0  0
   38.0000   24.7910   37.0680 C   0  0  0  0  0  0  0  0  0  0  0  0
   38.9570   24.3980   36.1140 C   0  0  0  0  0  0  0  0  0  0  0  0
   39.8520   23.4190   36.4290 N   0  0  0  0  0  0  0  0  0  0  0  0
   39.8360   22.8130   37.6480 C   0  0  0  0  0  0  0  0  0  0  0  0
   38.9340   23.1690   38.5740 N   0  0  0  0  0  0  0  0  0  0  0  0
   39.0250   24.9920   34.8260 N   0  0  0  0  0  0  0  0  0  0  0  0
   40.1240   25.7150   34.1830 C   0  0  0  0  0  0  0  0  0  0  0  0
   39.2900   26.8200   33.5310 C   0  0  0  0  0  0  0  0  0  0  0  0
   38.2760   25.9540   32.7970 C   0  0  1  0  0  0  0  0  0  0  0  0
   37.9190   24.9620   33.8830 C   0  0  0  0  0  0  0  0  0  0  0  0
   37.1130   26.7830   32.4770 C   0  0  0  0  0  0  0  0  0  0  0  0
   36.0310   26.6010   31.6970 N   0  0  0  0  0  0  0  0  0  0  0  0
   35.2530   27.6300   31.7230 O   0  0  0  0  0  0  0  0  0  0  0  0
   35.8040   28.5140   32.5200 C   0  0  0  0  0  0  0  0  0  0  0  0
   36.9500   28.0090   32.9930 N   0  0  0  0  0  0  0  0  0  0  0  0
   37.2876   24.4192   39.0799 H   0  0  0  0  0  0  0  0  0  0  0  0
   37.2641   25.5785   36.8482 H   0  0  0  0  0  0  0  0  0  0  0  0
   40.5690   22.0249   37.8751 H   0  0  0  0  0  0  0  0  0  0  0  0
   40.8461   26.1116   34.9119 H   0  0  0  0  0  0  0  0  0  0  0  0
   40.7626   25.1266   33.5078 H   0  0  0  0  0  0  0  0  0  0  0  0
   38.8121   27.4708   34.2780 H   0  0  0  0  0  0  0  0  0  0  0  0
   39.8512   27.5264   32.9017 H   0  0  0  0  0  0  0  0  0  0  0  0
   38.6241   25.4955   31.8597 H   0  0  0  0  0  0  0  0  0  0  0  0
   36.9836   25.2584   34.3801 H   0  0  0  0  0  0  0  0  0  0  0  0
   37.7629   23.9528   33.4741 H   0  0  0  0  0  0  0  0  0  0  0  0
   35.3928   29.5056   32.7599 H   0  0  0  0  0  0  0  0  0  0  0  0
  1  6  2  0
  2  1  1  0
  3  4  1  0
  3  2  2  0
  4  5  2  0
  5  6  1  0
  7  3  1  0
  8  7  1  0
  9  8  1  0
 10  9  1  0
 10 11  1  0
 11  7  1  0
 12 10  1  0
 12 16  1  0
 13 14  1  0
 13 12  2  0
 14 15  1  0
 15 16  2  0
  1 17  1  0
  2 18  1  0
  5 19  1  0
  8 20  1  0
  8 21  1  0
  9 22  1  0
  9 23  1  0
 10 24  1  6
 11 25  1  0
 11 26  1  0
 15 27  1  0
M  ISO  8  17  14  18  14  19  14  20  13  21  13  22  13  23  13  24  13
M  ISO  3  25  13  26  13  27  14
M  END
>  <minimizedAffinity>  (1) 
-4.44081783

>  <minimizedRMSD>  (1) 
3.14240003

$$$$
