
     RDKit          3D

 31 33  0  0  1  0  0  0  0  0999 V2000
   39.5380   22.7680   37.4190 C   0  0  0  0  0  0  0  0  0  0  0  0
   39.4780   23.8140   36.4870 C   0  0  0  0  0  0  0  0  0  0  0  0
   40.6000   23.9850   35.6520 C   0  0  0  0  0  0  0  0  0  0  0  0
   41.6660   23.1420   35.7900 N   0  0  0  0  0  0  0  0  0  0  0  0
   41.6800   22.1470   36.7040 C   0  0  0  0  0  0  0  0  0  0  0  0
   40.6090   21.9690   37.5150 N   0  0  0  0  0  0  0  0  0  0  0  0
   40.6680   25.0020   34.6680 N   0  0  0  0  0  0  0  0  0  0  0  0
   41.5720   26.1180   34.5080 C   0  0  0  0  0  0  0  0  0  0  0  0
   40.5560   27.1850   34.0850 C   0  0  0  0  0  0  0  0  0  0  0  0
   39.9290   26.4200   32.9140 C   0  0  1  0  0  0  0  0  0  0  0  0
   39.7290   25.0780   33.5500 C   0  0  0  0  0  0  0  0  0  0  0  0
   38.7020   27.1280   32.5490 C   0  0  0  0  0  0  0  0  0  0  0  0
   38.5710   27.6100   31.2470 C   0  0  0  0  0  0  0  0  0  0  0  0
   37.4460   28.2880   30.8230 C   0  0  0  0  0  0  0  0  0  0  0  0
   36.4350   28.4790   31.7440 C   0  0  0  0  0  0  0  0  0  0  0  0
   36.5520   28.0020   33.0530 C   0  0  0  0  0  0  0  0  0  0  0  0
   37.6700   27.3470   33.4140 N   0  0  0  0  0  0  0  0  0  0  0  0
   38.6825   22.5990   38.0894 H   0  0  0  0  0  0  0  0  0  0  0  0
   38.5977   24.4693   36.4114 H   0  0  0  0  0  0  0  0  0  0  0  0
   42.5550   21.4858   36.7892 H   0  0  0  0  0  0  0  0  0  0  0  0
   42.0772   26.3788   35.4497 H   0  0  0  0  0  0  0  0  0  0  0  0
   42.4078   25.9558   33.8115 H   0  0  0  0  0  0  0  0  0  0  0  0
   39.8267   27.4053   34.8785 H   0  0  0  0  0  0  0  0  0  0  0  0
   40.9649   28.1792   33.8518 H   0  0  0  0  0  0  0  0  0  0  0  0
   40.4930   26.3324   31.9737 H   0  0  0  0  0  0  0  0  0  0  0  0
   38.6958   24.9810   33.9148 H   0  0  0  0  0  0  0  0  0  0  0  0
   39.9047   24.2666   32.8283 H   0  0  0  0  0  0  0  0  0  0  0  0
   39.3919   27.4443   30.5338 H   0  0  0  0  0  0  0  0  0  0  0  0
   37.3582   28.6615   29.7921 H   0  0  0  0  0  0  0  0  0  0  0  0
   35.5229   29.0151   31.4429 H   0  0  0  0  0  0  0  0  0  0  0  0
   35.7403   28.1603   33.7783 H   0  0  0  0  0  0  0  0  0  0  0  0
  1  6  2  0
  2  1  1  0
  3  4  1  0
  3  2  2  0
  4  5  2  0
  5  6  1  0
  7  3  1  0
  8  7  1  0
  9  8  1  0
 10 11  1  0
 10  9  1  0
 11  7  1  0
 12 10  1  0
 12 17  1  0
 13 12  2  0
 14 13  1  0
 14 15  2  0
 15 16  1  0
 16 17  2  0
  1 18  1  0
  2 19  1  0
  5 20  1  0
  8 21  1  0
  8 22  1  0
  9 23  1  0
  9 24  1  0
 10 25  1  6
 11 26  1  0
 11 27  1  0
 13 28  1  0
 14 29  1  0
 15 30  1  0
 16 31  1  0
M  ISO  8  18  14  19  14  20  14  21  13  22  13  23  13  24  13  25  13
M  ISO  6  26  13  27  13  28  14  29  14  30  14  31  14
M  END
>  <minimizedAffinity>  (1) 
-4.24216986

>  <minimizedRMSD>  (1) 
3.34068489

$$$$
