
     RDKit          3D

 31 32  0  0  1  0  0  0  0  0999 V2000
   39.5580   27.0850   34.3010 C   0  0  0  0  0  0  0  0  0  0  0  0
   40.0250   25.9880   35.0530 C   0  0  0  0  0  0  0  0  0  0  0  0
   39.1540   24.8820   35.1460 C   0  0  0  0  0  0  0  0  0  0  0  0
   37.9350   24.9120   34.5270 N   0  0  0  0  0  0  0  0  0  0  0  0
   37.5370   26.0020   33.8120 C   0  0  0  0  0  0  0  0  0  0  0  0
   38.3370   27.0660   33.7050 N   0  0  0  0  0  0  0  0  0  0  0  0
   39.5090   23.7240   35.8750 N   0  0  0  0  0  0  0  0  0  0  0  0
   38.8540   23.0920   37.0240 C   0  0  0  0  0  0  0  0  0  0  0  0
   40.0970   22.7490   37.8410 C   0  0  0  0  0  0  0  0  0  0  0  0
   40.8220   21.9600   36.7520 C   0  0  1  0  0  0  0  0  0  0  0  0
   40.6670   22.9100   35.5840 C   0  0  0  0  0  0  0  0  0  0  0  0
   42.2310   21.6490   37.1180 C   0  0  0  0  0  0  0  0  0  0  0  0
   42.6500   20.2340   36.8670 C   0  0  0  0  0  0  0  0  0  0  0  0
   43.1180   22.6800   36.4950 C   0  0  0  0  0  0  0  0  0  0  0  0
   40.1954   27.9751   34.1944 H   0  0  0  0  0  0  0  0  0  0  0  0
   41.0117   25.9939   35.5393 H   0  0  0  0  0  0  0  0  0  0  0  0
   36.5527   26.0053   33.3210 H   0  0  0  0  0  0  0  0  0  0  0  0
   38.1891   23.7887   37.5556 H   0  0  0  0  0  0  0  0  0  0  0  0
   38.1922   22.2457   36.7876 H   0  0  0  0  0  0  0  0  0  0  0  0
   40.6547   23.6437   38.1548 H   0  0  0  0  0  0  0  0  0  0  0  0
   39.9309   22.2310   38.7971 H   0  0  0  0  0  0  0  0  0  0  0  0
   40.4245   20.9542   36.5509 H   0  0  0  0  0  0  0  0  0  0  0  0
   40.5120   22.3462   34.6523 H   0  0  0  0  0  0  0  0  0  0  0  0
   41.5668   23.5281   35.4489 H   0  0  0  0  0  0  0  0  0  0  0  0
   42.3281   21.7112   38.2119 H   0  0  0  0  0  0  0  0  0  0  0  0
   42.8020   19.7207   37.8279 H   0  0  0  0  0  0  0  0  0  0  0  0
   41.8668   19.7158   36.2943 H   0  0  0  0  0  0  0  0  0  0  0  0
   43.5891   20.2258   36.2943 H   0  0  0  0  0  0  0  0  0  0  0  0
   43.6171   23.2601   37.2852 H   0  0  0  0  0  0  0  0  0  0  0  0
   43.8754   22.1832   35.8709 H   0  0  0  0  0  0  0  0  0  0  0  0
   42.5137   23.3548   35.8709 H   0  0  0  0  0  0  0  0  0  0  0  0
  1  2  2  0
  2  3  1  0
  3  7  1  0
  4  3  2  0
  5  4  1  0
  6  5  2  0
  6  1  1  0
  7  8  1  0
  8  9  1  0
 10 12  1  0
 10  9  1  0
 11  7  1  0
 11 10  1  0
 13 12  1  0
 14 12  1  0
  1 15  1  0
  2 16  1  0
  5 17  1  0
  8 18  1  0
  8 19  1  0
  9 20  1  0
  9 21  1  0
 10 22  1  6
 11 23  1  0
 11 24  1  0
 12 25  1  0
 13 26  1  0
 13 27  1  0
 13 28  1  0
 14 29  1  0
 14 30  1  0
 14 31  1  0
M  ISO  8  15  14  16  14  17  14  18  13  19  13  20  13  21  13  22  13
M  ISO  8  23  13  24  13  25   8  26   8  27   8  28   8  29   8  30   8
M  ISO  1  31   8
M  END
>  <minimizedAffinity>  (1) 
-3.99917817

>  <minimizedRMSD>  (1) 
5.8037219

$$$$
