
     RDKit          3D

 17 17  0  0  0  0  0  0  0  0999 V2000
   41.3140   21.7790   37.3230 C   0  0  0  0  0  0  0  0  0  0  0  0
   40.1570   22.5130   37.6380 C   0  0  0  0  0  0  0  0  0  0  0  0
   39.4060   22.9960   36.5800 C   0  0  0  0  0  0  0  0  0  0  0  0
   39.8200   22.7400   35.2980 N   0  0  0  0  0  0  0  0  0  0  0  0
   40.9380   22.0300   35.0480 C   0  0  0  0  0  0  0  0  0  0  0  0
   41.6800   21.5540   36.0410 N   0  0  0  0  0  0  0  0  0  0  0  0
   38.1840   23.7710   36.9080 C   0  0  0  0  0  0  0  0  0  0  0  0
   37.9710   23.6900   38.4000 C   0  0  0  0  0  0  0  0  0  0  0  0
   38.0090   24.9350   38.9900 O   0  0  0  0  0  0  0  0  0  0  0  0
   41.9354   21.3788   38.1377 H   0  0  0  0  0  0  0  0  0  0  0  0
   39.8608   22.6959   38.6815 H   0  0  0  0  0  0  0  0  0  0  0  0
   41.2399   21.8423   34.0070 H   0  0  0  0  0  0  0  0  0  0  0  0
   38.3143   24.8205   36.6053 H   0  0  0  0  0  0  0  0  0  0  0  0
   37.3145   23.3606   36.3736 H   0  0  0  0  0  0  0  0  0  0  0  0
   36.9897   23.2330   38.5954 H   0  0  0  0  0  0  0  0  0  0  0  0
   38.7818   23.0830   38.8291 H   0  0  0  0  0  0  0  0  0  0  0  0
   38.0059   24.8337   39.9748 H   0  0  0  0  0  0  0  0  0  0  0  0
  1  2  2  0
  3  7  1  0
  3  2  1  0
  4  3  2  0
  5  4  1  0
  5  6  2  0
  6  1  1  0
  7  8  1  0
  8  9  1  0
  1 10  1  0
  2 11  1  0
  5 12  1  0
  7 13  1  0
  7 14  1  0
  8 15  1  0
  8 16  1  0
  9 17  1  0
M  ISO  8  10  14  11  14  12  14  13   8  14   8  15   8  16   8  17   3
M  END
>  <minimizedAffinity>  (1) 
-2.81050301

>  <minimizedRMSD>  (1) 
0.68027705

$$$$
