
     RDKit          3D

 18 18  0  0  0  0  0  0  0  0999 V2000
   41.7870   21.6130   37.1150 C   0  0  0  0  0  0  0  0  0  0  0  0
   40.5570   22.1620   37.4980 C   0  0  0  0  0  0  0  0  0  0  0  0
   39.6290   22.5790   36.5630 C   0  0  0  0  0  0  0  0  0  0  0  0
   39.9730   22.4270   35.2540 N   0  0  0  0  0  0  0  0  0  0  0  0
   41.1600   21.8970   34.8990 C   0  0  0  0  0  0  0  0  0  0  0  0
   42.0600   21.4930   35.7910 N   0  0  0  0  0  0  0  0  0  0  0  0
   38.3550   23.1480   37.0530 C   0  0  0  0  0  0  0  0  0  0  0  0
   38.5300   23.4480   38.5280 C   0  0  0  0  0  0  0  0  0  0  0  0
   37.9840   24.7370   38.8820 N   0  0  0  0  0  0  0  0  0  0  0  0
   42.5162   21.2861   37.8709 H   0  0  0  0  0  0  0  0  0  0  0  0
   40.3241   22.2637   38.5682 H   0  0  0  0  0  0  0  0  0  0  0  0
   41.3938   21.7944   33.8290 H   0  0  0  0  0  0  0  0  0  0  0  0
   38.1217   24.0735   36.5062 H   0  0  0  0  0  0  0  0  0  0  0  0
   37.5278   22.4401   36.8962 H   0  0  0  0  0  0  0  0  0  0  0  0
   38.0160   22.6709   39.1127 H   0  0  0  0  0  0  0  0  0  0  0  0
   39.6076   23.4611   38.7485 H   0  0  0  0  0  0  0  0  0  0  0  0
   37.9470   24.8243   39.9076 H   0  0  0  0  0  0  0  0  0  0  0  0
   38.5821   25.4811   38.4954 H   0  0  0  0  0  0  0  0  0  0  0  0
  1  2  2  0
  3  7  1  0
  3  2  1  0
  4  3  2  0
  5  4  1  0
  5  6  2  0
  6  1  1  0
  7  8  1  0
  8  9  1  0
  1 10  1  0
  2 11  1  0
  5 12  1  0
  7 13  1  0
  7 14  1  0
  8 15  1  0
  8 16  1  0
  9 17  1  0
  9 18  1  0
M  ISO  8  10  14  11  14  12  14  13   8  14   8  15   8  16   8  17   5
M  ISO  1  18   5
M  END
>  <minimizedAffinity>  (1) 
-2.7057724

>  <minimizedRMSD>  (1) 
1.05836046

$$$$
