
     RDKit          3D

 37 39  0  0  1  0  0  0  0  0999 V2000
   37.8960   24.2340   38.0410 C   0  0  0  0  0  0  0  0  0  0  0  0
   38.1340   24.7950   36.7820 C   0  0  0  0  0  0  0  0  0  0  0  0
   39.2040   24.3190   36.0210 C   0  0  0  0  0  0  0  0  0  0  0  0
   39.9480   23.3300   36.5680 N   0  0  0  0  0  0  0  0  0  0  0  0
   39.7210   22.7890   37.7790 C   0  0  0  0  0  0  0  0  0  0  0  0
   38.6790   23.2510   38.5220 N   0  0  0  0  0  0  0  0  0  0  0  0
   39.5280   24.8100   34.7430 N   0  0  0  0  0  0  0  0  0  0  0  0
   40.7420   25.4100   34.2320 C   0  0  0  0  0  0  0  0  0  0  0  0
   40.0500   26.5740   33.4590 C   0  0  0  0  0  0  0  0  0  0  0  0
   39.1680   25.7220   32.6060 C   0  0  1  0  0  0  0  0  0  0  0  0
   38.5880   24.7760   33.6410 C   0  0  0  0  0  0  0  0  0  0  0  0
   38.0680   26.5300   32.1490 N   0  0  0  0  0  0  0  0  0  0  0  0
   37.0210   26.6460   33.0970 C   0  0  0  0  0  0  0  0  0  0  0  0
   36.1380   27.6960   32.4510 C   0  0  0  0  0  0  0  0  0  0  0  0
   37.0830   28.5110   31.6070 C   0  0  0  0  0  0  0  0  0  0  0  0
   38.4500   27.8230   31.7430 C   0  0  2  0  0  0  0  0  0  0  0  0
   38.9100   27.9110   30.2950 C   0  0  0  0  0  0  0  0  0  0  0  0
   38.3400   27.8670   29.2020 O   0  0  0  0  0  0  0  0  0  0  0  0
   40.3070   28.0820   30.2450 O   0  0  0  0  0  0  0  0  0  0  0  0
   37.0554   24.6022   38.6475 H   0  0  0  0  0  0  0  0  0  0  0  0
   37.4886   25.5984   36.3973 H   0  0  0  0  0  0  0  0  0  0  0  0
   40.3677   21.9859   38.1622 H   0  0  0  0  0  0  0  0  0  0  0  0
   41.4058   25.7692   35.0322 H   0  0  0  0  0  0  0  0  0  0  0  0
   41.4137   24.7587   33.6536 H   0  0  0  0  0  0  0  0  0  0  0  0
   39.4788   27.2397   34.1227 H   0  0  0  0  0  0  0  0  0  0  0  0
   40.7108   27.2802   32.9350 H   0  0  0  0  0  0  0  0  0  0  0  0
   39.6772   25.2565   31.7492 H   0  0  0  0  0  0  0  0  0  0  0  0
   37.5957   25.1205   33.9676 H   0  0  0  0  0  0  0  0  0  0  0  0
   38.4515   23.7595   33.2435 H   0  0  0  0  0  0  0  0  0  0  0  0
   36.4856   25.6933   33.2220 H   0  0  0  0  0  0  0  0  0  0  0  0
   37.3616   26.9096   34.1092 H   0  0  0  0  0  0  0  0  0  0  0  0
   35.3656   27.2242   31.8258 H   0  0  0  0  0  0  0  0  0  0  0  0
   35.6029   28.3080   33.1920 H   0  0  0  0  0  0  0  0  0  0  0  0
   37.1345   29.5456   31.9771 H   0  0  0  0  0  0  0  0  0  0  0  0
   36.7539   28.5623   30.5587 H   0  0  0  0  0  0  0  0  0  0  0  0
   39.2284   28.1970   32.4243 H   0  0  0  0  0  0  0  0  0  0  0  0
   40.7655   28.1571   29.3708 H   0  0  0  0  0  0  0  0  0  0  0  0
  1  6  2  0
  2  1  1  0
  3  4  1  0
  3  2  2  0
  4  5  2  0
  5  6  1  0
  7  3  1  0
  8  7  1  0
  9  8  1  0
 10  9  1  0
 10 11  1  0
 11  7  1  0
 12 10  1  0
 12 13  1  0
 14 13  1  0
 15 16  1  0
 15 14  1  0
 16 12  1  0
 17 16  1  0
 18 17  2  0
 19 17  1  0
  1 20  1  0
  2 21  1  0
  5 22  1  0
  8 23  1  0
  8 24  1  0
  9 25  1  0
  9 26  1  0
 10 27  1  6
 11 28  1  0
 11 29  1  0
 13 30  1  0
 13 31  1  0
 14 32  1  0
 14 33  1  0
 15 34  1  0
 15 35  1  0
 16 36  1  1
 19 37  1  0
M  ISO  8  20  14  21  14  22  14  23  13  24  13  25  13  26  13  27  13
M  ISO  8  28  13  29  13  30  13  31  13  32  13  33  13  34  13  35  13
M  ISO  2  36  13  37   3
M  END
>  <minimizedAffinity>  (1) 
-4.43198729

>  <minimizedRMSD>  (1) 
3.59807467

$$$$
