
     RDKit          3D

 36 38  0  0  1  0  0  0  0  0999 V2000
   40.6230   22.0480   37.4940 C   0  0  0  0  0  0  0  0  0  0  0  0
   40.4710   23.1580   36.6490 C   0  0  0  0  0  0  0  0  0  0  0  0
   41.4770   23.4710   35.7300 C   0  0  0  0  0  0  0  0  0  0  0  0
   42.5660   22.6650   35.7110 N   0  0  0  0  0  0  0  0  0  0  0  0
   42.7090   21.5930   36.5290 C   0  0  0  0  0  0  0  0  0  0  0  0
   41.7360   21.2880   37.4180 N   0  0  0  0  0  0  0  0  0  0  0  0
   41.4020   24.5560   34.8540 N   0  0  0  0  0  0  0  0  0  0  0  0
   42.2750   25.7270   34.7130 C   0  0  0  0  0  0  0  0  0  0  0  0
   41.1770   26.7780   34.4920 C   0  0  0  0  0  0  0  0  0  0  0  0
   40.4030   26.1240   33.3910 C   0  0  1  0  0  0  0  0  0  0  0  0
   40.3640   24.7060   33.8510 C   0  0  0  0  0  0  0  0  0  0  0  0
   39.0400   26.5590   33.4290 N   0  0  0  0  0  0  0  0  0  0  0  0
   38.0860   25.6830   32.9520 C   0  0  0  0  0  0  0  0  0  0  0  0
   36.7930   26.4460   33.2800 C   0  0  0  0  0  0  0  0  0  0  0  0
   37.1840   27.4010   34.3810 C   0  0  0  0  0  0  0  0  0  0  0  0
   38.6560   27.0840   34.6720 C   0  0  1  0  0  0  0  0  0  0  0  0
   38.5950   26.2610   35.8160 N   0  0  0  0  0  0  0  0  0  0  0  0
   39.8346   21.7970   38.2188 H   0  0  0  0  0  0  0  0  0  0  0  0
   39.5649   23.7787   36.7094 H   0  0  0  0  0  0  0  0  0  0  0  0
   43.6151   20.9721   36.4698 H   0  0  0  0  0  0  0  0  0  0  0  0
   42.8628   25.9218   35.6221 H   0  0  0  0  0  0  0  0  0  0  0  0
   43.0499   25.6637   33.9348 H   0  0  0  0  0  0  0  0  0  0  0  0
   40.5624   26.9209   35.3930 H   0  0  0  0  0  0  0  0  0  0  0  0
   41.5450   27.7884   34.2605 H   0  0  0  0  0  0  0  0  0  0  0  0
   40.8313   26.3189   32.3967 H   0  0  0  0  0  0  0  0  0  0  0  0
   39.3807   24.4777   34.2880 H   0  0  0  0  0  0  0  0  0  0  0  0
   40.5284   24.0161   33.0101 H   0  0  0  0  0  0  0  0  0  0  0  0
   38.1941   25.5188   31.8697 H   0  0  0  0  0  0  0  0  0  0  0  0
   38.1393   24.6746   33.3883 H   0  0  0  0  0  0  0  0  0  0  0  0
   36.4324   26.9963   32.3984 H   0  0  0  0  0  0  0  0  0  0  0  0
   35.9765   25.7733   33.5814 H   0  0  0  0  0  0  0  0  0  0  0  0
   37.0708   28.4432   34.0479 H   0  0  0  0  0  0  0  0  0  0  0  0
   36.5510   27.2867   35.2733 H   0  0  0  0  0  0  0  0  0  0  0  0
   39.3990   27.8490   34.9417 H   0  0  0  0  0  0  0  0  0  0  0  0
   38.6384   26.8461   36.6626 H   0  0  0  0  0  0  0  0  0  0  0  0
   37.7124   25.7301   35.8104 H   0  0  0  0  0  0  0  0  0  0  0  0
  2  1  2  0
  3  2  1  0
  4  3  2  0
  4  5  1  0
  5  6  2  0
  6  1  1  0
  7  3  1  0
  8  7  1  0
  9  8  1  0
 10 12  1  0
 10 11  1  0
 10  9  1  0
 11  7  1  0
 12 13  1  0
 12 16  1  0
 13 14  1  0
 14 15  1  0
 15 16  1  0
 16 17  1  0
  1 18  1  0
  2 19  1  0
  5 20  1  0
  8 21  1  0
  8 22  1  0
  9 23  1  0
  9 24  1  0
 10 25  1  6
 11 26  1  0
 11 27  1  0
 13 28  1  0
 13 29  1  0
 14 30  1  0
 14 31  1  0
 15 32  1  0
 15 33  1  0
 16 34  1  1
 17 35  1  0
 17 36  1  0
M  ISO  8  18  14  19  14  20  14  21  13  22  13  23  13  24  13  25  13
M  ISO  8  26  13  27  13  28  13  29  13  30  13  31  13  32  13  33  13
M  ISO  3  34  13  35   5  36   5
M  END
>  <minimizedAffinity>  (1) 
-4.00351048

>  <minimizedRMSD>  (1) 
0.68058908

$$$$
