
     RDKit          3D

 45 48  0  0  1  0  0  0  0  0999 V2000
   37.8350   24.1480   38.1020 C   0  0  0  0  0  0  0  0  0  0  0  0
   37.9800   24.4510   36.7410 C   0  0  0  0  0  0  0  0  0  0  0  0
   39.0450   23.9650   36.0140 C   0  0  0  0  0  0  0  0  0  0  0  0
   39.9260   23.1900   36.6830 N   0  0  0  0  0  0  0  0  0  0  0  0
   39.8000   22.8870   37.9990 C   0  0  0  0  0  0  0  0  0  0  0  0
   38.7620   23.3640   38.7030 N   0  0  0  0  0  0  0  0  0  0  0  0
   39.2290   24.2220   34.6670 N   0  0  0  0  0  0  0  0  0  0  0  0
   40.3500   24.8950   33.9740 C   0  0  0  0  0  0  0  0  0  0  0  0
   39.5230   25.6550   32.9410 C   0  0  0  0  0  0  0  0  0  0  0  0
   38.6410   24.6250   32.4240 C   0  0  1  0  0  0  0  0  0  0  0  0
   38.3060   23.8340   33.6200 C   0  0  0  0  0  0  0  0  0  0  0  0
   37.3770   25.1340   31.9740 N   0  0  0  0  0  0  0  0  0  0  0  0
   37.3300   26.0070   30.9670 C   0  0  0  0  0  0  0  0  0  0  0  0
   35.8070   26.1640   30.7850 C   0  0  0  0  0  0  0  0  0  0  0  0
   35.2100   24.9700   31.4830 C   0  0  0  0  0  0  0  0  0  0  0  0
   36.4180   24.1270   31.9390 C   0  0  1  0  0  0  0  0  0  0  0  0
   36.4980   23.1450   30.9150 N   0  0  0  0  0  0  0  0  0  0  0  0
   36.1400   21.8120   31.3720 C   0  0  0  0  0  0  0  0  0  0  0  0
   36.3270   20.6570   30.6050 C   0  0  0  0  0  0  0  0  0  0  0  0
   36.0080   19.3760   30.9850 C   0  0  0  0  0  0  0  0  0  0  0  0
   35.4550   19.2200   32.2350 C   0  0  0  0  0  0  0  0  0  0  0  0
   35.2560   20.3350   33.0170 C   0  0  0  0  0  0  0  0  0  0  0  0
   35.5940   21.5520   32.5740 N   0  0  0  0  0  0  0  0  0  0  0  0
   36.9812   24.5410   38.6735 H   0  0  0  0  0  0  0  0  0  0  0  0
   37.2316   25.0869   36.2454 H   0  0  0  0  0  0  0  0  0  0  0  0
   40.5498   22.2493   38.4899 H   0  0  0  0  0  0  0  0  0  0  0  0
   40.9091   25.5688   34.6399 H   0  0  0  0  0  0  0  0  0  0  0  0
   41.1401   24.2401   33.5779 H   0  0  0  0  0  0  0  0  0  0  0  0
   38.9511   26.4689   33.4106 H   0  0  0  0  0  0  0  0  0  0  0  0
   40.1315   26.1411   32.1642 H   0  0  0  0  0  0  0  0  0  0  0  0
   39.1317   24.1082   31.5861 H   0  0  0  0  0  0  0  0  0  0  0  0
   37.2725   24.0441   33.9327 H   0  0  0  0  0  0  0  0  0  0  0  0
   38.3870   22.7574   33.4095 H   0  0  0  0  0  0  0  0  0  0  0  0
   37.8051   26.9616   31.2373 H   0  0  0  0  0  0  0  0  0  0  0  0
   37.8641   25.6839   30.0613 H   0  0  0  0  0  0  0  0  0  0  0  0
   35.4560   27.0984   31.2472 H   0  0  0  0  0  0  0  0  0  0  0  0
   35.5187   26.2116   29.7245 H   0  0  0  0  0  0  0  0  0  0  0  0
   34.6118   25.2882   32.3495 H   0  0  0  0  0  0  0  0  0  0  0  0
   34.5355   24.4022   30.8252 H   0  0  0  0  0  0  0  0  0  0  0  0
   36.4541   23.5721   32.8881 H   0  0  0  0  0  0  0  0  0  0  0  0
   36.7809   23.3561   29.9474 H   0  0  0  0  0  0  0  0  0  0  0  0
   36.7699   20.7864   29.6065 H   0  0  0  0  0  0  0  0  0  0  0  0
   36.1861   18.5166   30.3219 H   0  0  0  0  0  0  0  0  0  0  0  0
   35.1767   18.2215   32.6031 H   0  0  0  0  0  0  0  0  0  0  0  0
   34.8138   20.2246   34.0182 H   0  0  0  0  0  0  0  0  0  0  0  0
  1  6  2  0
  2  1  1  0
  3  4  1  0
  3  2  2  0
  4  5  2  0
  5  6  1  0
  7  3  1  0
  8  7  1  0
  9  8  1  0
 10  9  1  0
 10 11  1  0
 11  7  1  0
 12 13  1  0
 12 10  1  0
 14 13  1  0
 14 15  1  0
 15 16  1  0
 16 12  1  0
 17 18  1  0
 17 16  1  0
 18 23  2  0
 19 20  2  0
 19 18  1  0
 20 21  1  0
 21 22  2  0
 23 22  1  0
  1 24  1  0
  2 25  1  0
  5 26  1  0
  8 27  1  0
  8 28  1  0
  9 29  1  0
  9 30  1  0
 10 31  1  6
 11 32  1  0
 11 33  1  0
 13 34  1  0
 13 35  1  0
 14 36  1  0
 14 37  1  0
 15 38  1  0
 15 39  1  0
 16 40  1  1
 17 41  1  0
 19 42  1  0
 20 43  1  0
 21 44  1  0
 22 45  1  0
M  ISO  8  24  14  25  14  26  14  27  13  28  13  29  13  30  13  31  13
M  ISO  8  32  13  33  13  34  13  35  13  36  13  37  13  38  13  39  13
M  ISO  5  40  13  42  14  43  14  44  14  45  14
M  END
>  <minimizedAffinity>  (1) 
-5.64341497

>  <minimizedRMSD>  (1) 
5.95449352

$$$$
