
     RDKit          3D

 43 46  0  0  1  0  0  0  0  0999 V2000
   37.8750   24.2290   37.7920 C   0  0  0  0  0  0  0  0  0  0  0  0
   37.9780   24.3590   36.4040 C   0  0  0  0  0  0  0  0  0  0  0  0
   38.9920   23.6700   35.7280 C   0  0  0  0  0  0  0  0  0  0  0  0
   39.8250   22.9080   36.4550 N   0  0  0  0  0  0  0  0  0  0  0  0
   39.7140   22.7880   37.8090 C   0  0  0  0  0  0  0  0  0  0  0  0
   38.7430   23.4460   38.4650 N   0  0  0  0  0  0  0  0  0  0  0  0
   39.1570   23.7460   34.3400 N   0  0  0  0  0  0  0  0  0  0  0  0
   40.2980   24.2090   33.5410 C   0  0  0  0  0  0  0  0  0  0  0  0
   39.5060   24.9310   32.4470 C   0  0  0  0  0  0  0  0  0  0  0  0
   38.5210   23.9280   32.0840 C   0  0  1  0  0  0  0  0  0  0  0  0
   38.1340   23.3400   33.3900 C   0  0  0  0  0  0  0  0  0  0  0  0
   37.3030   24.5030   31.5880 N   0  0  0  0  0  0  0  0  0  0  0  0
   36.1720   23.7840   31.6430 C   0  0  0  0  0  0  0  0  0  0  0  0
   35.1280   24.8160   31.1620 C   0  0  0  0  0  0  0  0  0  0  0  0
   35.8280   26.1550   31.3040 C   0  0  0  0  0  0  0  0  0  0  0  0
   37.1420   25.8220   31.9960 C   0  0  1  0  0  0  0  0  0  0  0  0
   36.9100   26.1120   33.3620 N   0  0  0  0  0  0  0  0  0  0  0  0
   37.1860   27.5330   33.6010 C   0  0  0  0  0  0  0  0  0  0  0  0
   37.4800   27.7800   35.0910 C   0  0  0  0  0  0  0  0  0  0  0  0
   36.2930   28.3840   34.3950 C   0  0  0  0  0  0  0  0  0  0  0  0
   37.0845   24.7663   38.3365 H   0  0  0  0  0  0  0  0  0  0  0  0
   37.2714   24.9945   35.8501 H   0  0  0  0  0  0  0  0  0  0  0  0
   40.4195   22.1524   38.3643 H   0  0  0  0  0  0  0  0  0  0  0  0
   40.9516   24.8922   34.1032 H   0  0  0  0  0  0  0  0  0  0  0  0
   40.9981   23.4321   33.2000 H   0  0  0  0  0  0  0  0  0  0  0  0
   39.0263   25.8419   32.8345 H   0  0  0  0  0  0  0  0  0  0  0  0
   40.1227   25.2760   31.6040 H   0  0  0  0  0  0  0  0  0  0  0  0
   38.9393   23.2534   31.3224 H   0  0  0  0  0  0  0  0  0  0  0  0
   37.1508   23.7214   33.7030 H   0  0  0  0  0  0  0  0  0  0  0  0
   38.0583   22.2444   33.3282 H   0  0  0  0  0  0  0  0  0  0  0  0
   36.2159   22.9138   30.9715 H   0  0  0  0  0  0  0  0  0  0  0  0
   35.9585   23.3586   32.6347 H   0  0  0  0  0  0  0  0  0  0  0  0
   34.2262   24.7795   31.7909 H   0  0  0  0  0  0  0  0  0  0  0  0
   34.7933   24.6249   30.1317 H   0  0  0  0  0  0  0  0  0  0  0  0
   36.0107   26.6056   30.3173 H   0  0  0  0  0  0  0  0  0  0  0  0
   35.2289   26.8842   31.8691 H   0  0  0  0  0  0  0  0  0  0  0  0
   38.0755   26.3599   31.7740 H   0  0  0  0  0  0  0  0  0  0  0  0
   35.9285   25.9064   33.5970 H   0  0  0  0  0  0  0  0  0  0  0  0
   37.6320   27.7008   32.6096 H   0  0  0  0  0  0  0  0  0  0  0  0
   37.3428   26.9735   35.8263 H   0  0  0  0  0  0  0  0  0  0  0  0
   38.3302   28.1581   35.6777 H   0  0  0  0  0  0  0  0  0  0  0  0
   36.2666   29.4676   34.2076 H   0  0  0  0  0  0  0  0  0  0  0  0
   35.2105   28.3816   34.5907 H   0  0  0  0  0  0  0  0  0  0  0  0
  1  6  2  0
  2  1  1  0
  3  2  2  0
  3  4  1  0
  4  5  2  0
  5  6  1  0
  7  3  1  0
  8  7  1  0
  9  8  1  0
 10  9  1  0
 10 11  1  0
 11  7  1  0
 12 13  1  0
 12 16  1  0
 12 10  1  0
 14 15  1  0
 14 13  1  0
 15 16  1  0
 16 17  1  0
 17 18  1  0
 18 20  1  0
 18 19  1  0
 20 19  1  0
  1 21  1  0
  2 22  1  0
  5 23  1  0
  8 24  1  0
  8 25  1  0
  9 26  1  0
  9 27  1  0
 10 28  1  6
 11 29  1  0
 11 30  1  0
 13 31  1  0
 13 32  1  0
 14 33  1  0
 14 34  1  0
 15 35  1  0
 15 36  1  0
 16 37  1  6
 17 38  1  0
 18 39  1  0
 19 40  1  0
 19 41  1  0
 20 42  1  0
 20 43  1  0
M  ISO  8  21  14  22  14  23  14  24  13  25  13  26  13  27  13  28  13
M  ISO  8  29  13  30  13  31  13  32  13  33  13  34  13  35  13  36  13
M  ISO  7  37  13  38   5  39  13  40  13  41  13  42  13  43  13
M  END
>  <minimizedAffinity>  (1) 
-5.12051105

>  <minimizedRMSD>  (1) 
3.14500713

$$$$
