
     RDKit          3D

 49 52  0  0  1  0  0  0  0  0999 V2000
   38.1270   27.2890   33.4510 N   0  0  0  0  0  0  0  0  0  0  0  0
   37.2070   26.7570   34.2940 C   0  0  0  0  0  0  0  0  0  0  0  0
   37.9330   26.8830   35.6320 C   0  0  0  0  0  0  0  0  0  0  0  0
   39.3750   27.0360   35.2780 C   0  0  0  0  0  0  0  0  0  0  0  0
   39.4370   26.9160   33.7240 C   0  0  1  0  0  0  0  0  0  0  0  0
   42.5220   29.4530   29.5820 C   0  0  0  0  0  0  0  0  0  0  0  0
   41.3820   29.0940   30.3150 C   0  0  0  0  0  0  0  0  0  0  0  0
   40.3000   28.5010   29.6520 C   0  0  0  0  0  0  0  0  0  0  0  0
   40.4240   28.3060   28.3180 N   0  0  0  0  0  0  0  0  0  0  0  0
   41.5340   28.6580   27.6210 C   0  0  0  0  0  0  0  0  0  0  0  0
   42.5750   29.2270   28.2510 N   0  0  0  0  0  0  0  0  0  0  0  0
   39.1290   28.1080   30.3040 N   0  0  0  0  0  0  0  0  0  0  0  0
   37.7530   28.5300   30.1120 C   0  0  0  0  0  0  0  0  0  0  0  0
   37.3220   28.5380   31.5910 C   0  0  0  0  0  0  0  0  0  0  0  0
   37.8180   27.2540   32.0510 C   0  0  1  0  0  0  0  0  0  0  0  0
   39.1190   27.1220   31.3710 C   0  0  0  0  0  0  0  0  0  0  0  0
   39.8300   25.5890   33.5450 N   0  0  0  0  0  0  0  0  0  0  0  0
   41.5270   25.4620   33.3140 S   0  0  0  0  0  0  0  0  0  0  0  0
   41.8420   24.5580   32.1240 O   0  0  0  0  0  0  0  0  0  0  0  0
   42.1300   26.8000   32.9100 O   0  0  0  0  0  0  0  0  0  0  0  0
   42.3820   24.8410   34.6930 C   0  0  0  0  0  0  0  0  0  0  0  0
   42.1100   23.7760   35.5260 C   0  0  0  0  0  0  0  0  0  0  0  0
   42.9380   23.4600   36.5790 C   0  0  0  0  0  0  0  0  0  0  0  0
   44.0800   24.1780   36.8670 C   0  0  0  0  0  0  0  0  0  0  0  0
   44.3700   25.2460   36.0470 C   0  0  0  0  0  0  0  0  0  0  0  0
   43.5430   25.5680   34.9900 C   0  0  0  0  0  0  0  0  0  0  0  0
   36.2704   27.3338   34.2864 H   0  0  0  0  0  0  0  0  0  0  0  0
   36.8972   25.7325   34.0401 H   0  0  0  0  0  0  0  0  0  0  0  0
   37.5751   27.7645   36.1842 H   0  0  0  0  0  0  0  0  0  0  0  0
   37.7575   26.0118   36.2802 H   0  0  0  0  0  0  0  0  0  0  0  0
   39.7486   28.0182   35.6030 H   0  0  0  0  0  0  0  0  0  0  0  0
   39.9994   26.2766   35.7714 H   0  0  0  0  0  0  0  0  0  0  0  0
   40.1111   27.4981   33.0785 H   0  0  0  0  0  0  0  0  0  0  0  0
   43.3768   29.9206   30.0927 H   0  0  0  0  0  0  0  0  0  0  0  0
   41.3378   29.2761   31.3989 H   0  0  0  0  0  0  0  0  0  0  0  0
   41.5813   28.4768   26.5371 H   0  0  0  0  0  0  0  0  0  0  0  0
   37.6833   29.5270   29.6524 H   0  0  0  0  0  0  0  0  0  0  0  0
   37.1474   27.9081   29.4364 H   0  0  0  0  0  0  0  0  0  0  0  0
   37.7899   29.3683   32.1402 H   0  0  0  0  0  0  0  0  0  0  0  0
   36.2410   28.6775   31.7395 H   0  0  0  0  0  0  0  0  0  0  0  0
   37.0834   26.4581   31.8588 H   0  0  0  0  0  0  0  0  0  0  0  0
   39.2289   26.1100   30.9542 H   0  0  0  0  0  0  0  0  0  0  0  0
   39.9519   27.2849   32.0709 H   0  0  0  0  0  0  0  0  0  0  0  0
   39.5639   25.0456   34.3786 H   0  0  0  0  0  0  0  0  0  0  0  0
   41.2125   23.1663   35.3450 H   0  0  0  0  0  0  0  0  0  0  0  0
   42.6789   22.6013   37.2158 H   0  0  0  0  0  0  0  0  0  0  0  0
   44.7297   23.9098   37.7132 H   0  0  0  0  0  0  0  0  0  0  0  0
   45.2704   25.8488   36.2366 H   0  0  0  0  0  0  0  0  0  0  0  0
   43.8051   26.4281   34.3564 H   0  0  0  0  0  0  0  0  0  0  0  0
  1  5  1  0
  1  2  1  0
  2  3  1  0
  4  3  1  0
  5  4  1  0
  6  7  2  0
  8 12  1  0
  8  7  1  0
  9  8  2  0
 10 11  2  0
 10  9  1  0
 11  6  1  0
 12 16  1  0
 13 12  1  0
 13 14  1  0
 14 15  1  0
 15  1  1  0
 16 15  1  0
 17  5  1  0
 18 17  1  0
 18 21  1  0
 19 18  2  0
 20 18  2  0
 21 26  1  0
 21 22  2  0
 22 23  1  0
 23 24  2  0
 25 24  1  0
 26 25  2  0
  2 27  1  0
  2 28  1  0
  3 29  1  0
  3 30  1  0
  4 31  1  0
  4 32  1  0
  5 33  1  6
  6 34  1  0
  7 35  1  0
 10 36  1  0
 13 37  1  0
 13 38  1  0
 14 39  1  0
 14 40  1  0
 15 41  1  1
 16 42  1  0
 16 43  1  0
 17 44  1  0
 22 45  1  0
 23 46  1  0
 24 47  1  0
 25 48  1  0
 26 49  1  0
M  ISO  8  27  13  28  13  29  13  30  13  31  13  32  13  33  13  34  14
M  ISO  8  35  14  36  14  37  13  38  13  39  13  40  13  41  13  42  13
M  ISO  7  43  13  44   5  45  14  46  14  47  14  48  14  49  14
M  END
>  <minimizedAffinity>  (1) 
-4.53209829

>  <minimizedRMSD>  (1) 
7.06910038

$$$$
