
     RDKit          3D

 42 45  0  0  1  0  0  0  0  0999 V2000
   42.8450   23.2070   36.2150 C   0  0  0  0  0  0  0  0  0  0  0  0
   41.9260   23.8930   35.4150 C   0  0  0  0  0  0  0  0  0  0  0  0
   42.2280   25.1230   34.8710 C   0  0  0  0  0  0  0  0  0  0  0  0
   43.4500   25.6280   35.1520 N   0  0  0  0  0  0  0  0  0  0  0  0
   44.3570   24.9730   35.9300 C   0  0  0  0  0  0  0  0  0  0  0  0
   44.0570   23.7730   36.4570 N   0  0  0  0  0  0  0  0  0  0  0  0
   41.3590   25.8330   34.0610 N   0  0  0  0  0  0  0  0  0  0  0  0
   40.7520   27.1700   34.2490 C   0  0  0  0  0  0  0  0  0  0  0  0
   39.3750   26.8520   33.6760 C   0  0  0  0  0  0  0  0  0  0  0  0
   39.6910   26.1640   32.4300 C   0  0  1  0  0  0  0  0  0  0  0  0
   40.8720   25.3660   32.7730 C   0  0  0  0  0  0  0  0  0  0  0  0
   38.6980   25.2150   32.0440 N   0  0  0  0  0  0  0  0  0  0  0  0
   38.9620   24.3440   31.0710 C   0  0  0  0  0  0  0  0  0  0  0  0
   37.6850   23.4890   31.0800 C   0  0  0  0  0  0  0  0  0  0  0  0
   37.0520   23.7610   32.4190 C   0  0  0  0  0  0  0  0  0  0  0  0
   38.0370   24.6960   33.1560 C   0  0  1  0  0  0  0  0  0  0  0  0
   38.7450   23.7750   33.9800 N   0  0  0  0  0  0  0  0  0  0  0  0
   38.2720   23.6310   35.3500 C   0  0  0  0  0  0  0  0  0  0  0  0
   38.5850   24.6710   36.2980 C   0  0  0  0  0  0  0  0  0  0  0  0
   37.8250   24.1190   37.8690 S   0  0  0  0  0  0  0  0  0  0  0  0
   37.1930   22.5570   37.0040 C   0  0  0  0  0  0  0  0  0  0  0  0
   37.5740   22.7010   35.9590 N   0  0  0  0  0  0  0  0  0  0  0  0
   42.5913   22.2253   36.6416 H   0  0  0  0  0  0  0  0  0  0  0  0
   40.9426   23.4422   35.2158 H   0  0  0  0  0  0  0  0  0  0  0  0
   45.3388   25.4280   36.1277 H   0  0  0  0  0  0  0  0  0  0  0  0
   40.7063   27.4630   35.3083 H   0  0  0  0  0  0  0  0  0  0  0  0
   41.2860   28.0146   33.7892 H   0  0  0  0  0  0  0  0  0  0  0  0
   38.8051   26.2001   34.3544 H   0  0  0  0  0  0  0  0  0  0  0  0
   38.7479   27.7443   33.5323 H   0  0  0  0  0  0  0  0  0  0  0  0
   39.7975   26.8972   31.6169 H   0  0  0  0  0  0  0  0  0  0  0  0
   40.5999   24.3022   32.8381 H   0  0  0  0  0  0  0  0  0  0  0  0
   41.6497   25.4761   32.0029 H   0  0  0  0  0  0  0  0  0  0  0  0
   39.1015   24.8499   30.1042 H   0  0  0  0  0  0  0  0  0  0  0  0
   39.8895   23.7711   31.2177 H   0  0  0  0  0  0  0  0  0  0  0  0
   37.0112   23.7896   30.2642 H   0  0  0  0  0  0  0  0  0  0  0  0
   37.8987   22.4204   30.9301 H   0  0  0  0  0  0  0  0  0  0  0  0
   36.0768   24.2534   32.2908 H   0  0  0  0  0  0  0  0  0  0  0  0
   36.8699   22.8334   32.9815 H   0  0  0  0  0  0  0  0  0  0  0  0
   37.7232   25.5226   33.8104 H   0  0  0  0  0  0  0  0  0  0  0  0
   39.5497   23.2386   33.6255 H   0  0  0  0  0  0  0  0  0  0  0  0
   39.1555   25.5939   36.1169 H   0  0  0  0  0  0  0  0  0  0  0  0
   36.6051   21.7249   37.4187 H   0  0  0  0  0  0  0  0  0  0  0  0
  1  6  2  0
  2  1  1  0
  3  4  1  0
  3  2  2  0
  4  5  2  0
  5  6  1  0
  7  8  1  0
  7  3  1  0
  9  8  1  0
 10 11  1  0
 10  9  1  0
 11  7  1  0
 12 13  1  0
 12 10  1  0
 12 16  1  0
 13 14  1  0
 14 15  1  0
 15 16  1  0
 16 17  1  0
 17 18  1  0
 18 22  1  0
 18 19  2  0
 19 20  1  0
 21 20  1  0
 22 21  2  0
  1 23  1  0
  2 24  1  0
  5 25  1  0
  8 26  1  0
  8 27  1  0
  9 28  1  0
  9 29  1  0
 10 30  1  6
 11 31  1  0
 11 32  1  0
 13 33  1  0
 13 34  1  0
 14 35  1  0
 14 36  1  0
 15 37  1  0
 15 38  1  0
 16 39  1  1
 17 40  1  0
 19 41  1  0
 21 42  1  0
M  ISO  8  23  14  24  14  25  14  26  13  27  13  28  13  29  13  30  13
M  ISO  8  31  13  32  13  33  13  34  13  35  13  36  13  37  13  38  13
M  ISO  3  39  13  41  14  42  14
M  END
>  <minimizedAffinity>  (1) 
-4.19452572

>  <minimizedRMSD>  (1) 
3.19493723

$$$$
