
     RDKit          3D

 43 46  0  0  1  0  0  0  0  0999 V2000
   43.0060   20.5650   35.9570 C   0  0  0  0  0  0  0  0  0  0  0  0
   42.4280   21.7230   35.4190 C   0  0  0  0  0  0  0  0  0  0  0  0
   43.1930   22.8230   35.1010 C   0  0  0  0  0  0  0  0  0  0  0  0
   44.5170   22.7110   35.3410 N   0  0  0  0  0  0  0  0  0  0  0  0
   45.0990   21.6110   35.8580 C   0  0  0  0  0  0  0  0  0  0  0  0
   44.3480   20.5410   36.1650 N   0  0  0  0  0  0  0  0  0  0  0  0
   42.6700   23.9820   34.5580 N   0  0  0  0  0  0  0  0  0  0  0  0
   42.6870   25.3660   35.0810 C   0  0  0  0  0  0  0  0  0  0  0  0
   41.2740   25.7650   34.6520 C   0  0  0  0  0  0  0  0  0  0  0  0
   41.2420   25.3370   33.2650 C   0  0  1  0  0  0  0  0  0  0  0  0
   41.9870   24.0610   33.2830 C   0  0  0  0  0  0  0  0  0  0  0  0
   39.9310   24.9700   32.8150 N   0  0  0  0  0  0  0  0  0  0  0  0
   39.7940   24.1360   31.7810 C   0  0  0  0  0  0  0  0  0  0  0  0
   38.2610   23.9670   31.7450 C   0  0  0  0  0  0  0  0  0  0  0  0
   37.7910   24.4230   33.1010 C   0  0  0  0  0  0  0  0  0  0  0  0
   39.0790   24.7320   33.8930 C   0  0  1  0  0  0  0  0  0  0  0  0
   39.2580   23.5660   34.6550 N   0  0  0  0  0  0  0  0  0  0  0  0
   38.9020   23.7100   36.1080 C   0  0  0  0  0  0  0  0  0  0  0  0
   39.4310   22.9900   37.0680 C   0  0  0  0  0  0  0  0  0  0  0  0
   39.0480   23.1870   38.3710 C   0  0  0  0  0  0  0  0  0  0  0  0
   38.1090   24.1470   38.6220 C   0  0  0  0  0  0  0  0  0  0  0  0
   37.7780   24.7820   36.8830 S   0  0  0  0  0  0  0  0  0  0  0  0
   42.3846   19.6922   36.2060 H   0  0  0  0  0  0  0  0  0  0  0  0
   41.3419   21.7538   35.2474 H   0  0  0  0  0  0  0  0  0  0  0  0
   46.1856   21.5897   36.0279 H   0  0  0  0  0  0  0  0  0  0  0  0
   42.8170   25.3985   36.1728 H   0  0  0  0  0  0  0  0  0  0  0  0
   43.5033   26.0104   34.7227 H   0  0  0  0  0  0  0  0  0  0  0  0
   40.5131   25.2408   35.2488 H   0  0  0  0  0  0  0  0  0  0  0  0
   41.0565   26.8345   34.7891 H   0  0  0  0  0  0  0  0  0  0  0  0
   41.6226   26.1458   32.6239 H   0  0  0  0  0  0  0  0  0  0  0  0
   41.2906   23.2164   33.1755 H   0  0  0  0  0  0  0  0  0  0  0  0
   42.7057   24.0166   32.4515 H   0  0  0  0  0  0  0  0  0  0  0  0
   40.1740   24.5807   30.8494 H   0  0  0  0  0  0  0  0  0  0  0  0
   40.3533   23.1939   31.8793 H   0  0  0  0  0  0  0  0  0  0  0  0
   37.8211   24.5905   30.9527 H   0  0  0  0  0  0  0  0  0  0  0  0
   37.9628   22.9303   31.5295 H   0  0  0  0  0  0  0  0  0  0  0  0
   37.1683   25.3252   33.0101 H   0  0  0  0  0  0  0  0  0  0  0  0
   37.1744   23.6609   33.6001 H   0  0  0  0  0  0  0  0  0  0  0  0
   39.1717   25.5610   34.6100 H   0  0  0  0  0  0  0  0  0  0  0  0
   39.6049   22.6843   34.2511 H   0  0  0  0  0  0  0  0  0  0  0  0
   40.1845   22.2254   36.8279 H   0  0  0  0  0  0  0  0  0  0  0  0
   39.4830   22.5912   39.1869 H   0  0  0  0  0  0  0  0  0  0  0  0
   37.6675   24.4622   39.5790 H   0  0  0  0  0  0  0  0  0  0  0  0
  1  6  2  0
  2  1  1  0
  3  4  1  0
  3  2  2  0
  4  5  2  0
  5  6  1  0
  7  8  1  0
  7  3  1  0
  9  8  1  0
 10 11  1  0
 10  9  1  0
 11  7  1  0
 12 13  1  0
 12 10  1  0
 12 16  1  0
 14 13  1  0
 14 15  1  0
 15 16  1  0
 16 17  1  0
 17 18  1  0
 18 22  1  0
 18 19  2  0
 19 20  1  0
 20 21  2  0
 22 21  1  0
  1 23  1  0
  2 24  1  0
  5 25  1  0
  8 26  1  0
  8 27  1  0
  9 28  1  0
  9 29  1  0
 10 30  1  6
 11 31  1  0
 11 32  1  0
 13 33  1  0
 13 34  1  0
 14 35  1  0
 14 36  1  0
 15 37  1  0
 15 38  1  0
 16 39  1  1
 17 40  1  0
 19 41  1  0
 20 42  1  0
 21 43  1  0
M  ISO  8  23  14  24  14  25  14  26  13  27  13  28  13  29  13  30  13
M  ISO  8  31  13  32  13  33  13  34  13  35  13  36  13  37  13  38  13
M  ISO  4  39  13  41  14  42  14  43  14
M  END
>  <minimizedAffinity>  (1) 
-3.91962719

>  <minimizedRMSD>  (1) 
2.89692354

$$$$
