
     RDKit          3D

 39 41  0  0  1  0  0  0  0  0999 V2000
   40.1930   22.3210   37.3540 C   0  0  0  0  0  0  0  0  0  0  0  0
   40.1690   23.3760   36.4290 C   0  0  0  0  0  0  0  0  0  0  0  0
   41.3000   23.6330   35.6590 C   0  0  0  0  0  0  0  0  0  0  0  0
   42.3760   22.8470   35.8410 N   0  0  0  0  0  0  0  0  0  0  0  0
   42.3870   21.8270   36.7430 C   0  0  0  0  0  0  0  0  0  0  0  0
   41.3040   21.5670   37.4930 N   0  0  0  0  0  0  0  0  0  0  0  0
   41.3480   24.6620   34.7130 N   0  0  0  0  0  0  0  0  0  0  0  0
   42.2310   25.8350   34.6300 C   0  0  0  0  0  0  0  0  0  0  0  0
   41.1820   26.8510   34.1650 C   0  0  0  0  0  0  0  0  0  0  0  0
   40.5570   26.1370   33.0630 C   0  0  1  0  0  0  0  0  0  0  0  0
   40.4640   24.7450   33.5640 C   0  0  0  0  0  0  0  0  0  0  0  0
   39.1930   26.5190   32.8510 N   0  0  0  0  0  0  0  0  0  0  0  0
   38.3730   25.7000   32.1790 C   0  0  0  0  0  0  0  0  0  0  0  0
   37.0210   26.4370   32.3200 C   0  0  0  0  0  0  0  0  0  0  0  0
   37.2350   27.4030   33.4720 C   0  0  0  0  0  0  0  0  0  0  0  0
   38.6220   27.0560   33.9990 C   0  0  1  0  0  0  0  0  0  0  0  0
   38.3670   26.2210   35.1200 N   0  0  0  0  0  0  0  0  0  0  0  0
   38.3480   27.1110   36.2940 C   0  0  0  0  0  0  0  0  0  0  0  0
   39.3048   22.1080   37.9670 H   0  0  0  0  0  0  0  0  0  0  0  0
   39.2660   23.9935   36.3135 H   0  0  0  0  0  0  0  0  0  0  0  0
   43.2908   21.2107   36.8582 H   0  0  0  0  0  0  0  0  0  0  0  0
   42.6659   26.1002   35.6049 H   0  0  0  0  0  0  0  0  0  0  0  0
   43.1200   25.7287   33.9910 H   0  0  0  0  0  0  0  0  0  0  0  0
   40.4574   27.0740   34.9620 H   0  0  0  0  0  0  0  0  0  0  0  0
   41.5981   27.8305   33.8868 H   0  0  0  0  0  0  0  0  0  0  0  0
   41.1275   26.3138   32.1393 H   0  0  0  0  0  0  0  0  0  0  0  0
   39.4302   24.5165   33.8623 H   0  0  0  0  0  0  0  0  0  0  0  0
   40.7519   24.0218   32.7868 H   0  0  0  0  0  0  0  0  0  0  0  0
   38.6725   25.6074   31.1246 H   0  0  0  0  0  0  0  0  0  0  0  0
   38.3627   24.6665   32.5555 H   0  0  0  0  0  0  0  0  0  0  0  0
   36.7764   26.9814   31.3960 H   0  0  0  0  0  0  0  0  0  0  0  0
   36.1843   25.7465   32.5021 H   0  0  0  0  0  0  0  0  0  0  0  0
   37.2011   28.4443   33.1192 H   0  0  0  0  0  0  0  0  0  0  0  0
   36.4570   27.3157   34.2447 H   0  0  0  0  0  0  0  0  0  0  0  0
   39.3141   27.8167   34.3892 H   0  0  0  0  0  0  0  0  0  0  0  0
   37.4580   25.7483   35.0146 H   0  0  0  0  0  0  0  0  0  0  0  0
   38.3609   26.5063   37.2128 H   0  0  0  0  0  0  0  0  0  0  0  0
   39.2324   27.7648   36.2729 H   0  0  0  0  0  0  0  0  0  0  0  0
   37.4365   27.7264   36.2729 H   0  0  0  0  0  0  0  0  0  0  0  0
  1  6  2  0
  2  1  1  0
  3  4  1  0
  3  2  2  0
  4  5  2  0
  5  6  1  0
  7  3  1  0
  8  7  1  0
  9  8  1  0
 10 11  1  0
 10  9  1  0
 11  7  1  0
 12 13  1  0
 12 10  1  0
 12 16  1  0
 13 14  1  0
 14 15  1  0
 15 16  1  0
 16 17  1  0
 17 18  1  0
  1 19  1  0
  2 20  1  0
  5 21  1  0
  8 22  1  0
  8 23  1  0
  9 24  1  0
  9 25  1  0
 10 26  1  6
 11 27  1  0
 11 28  1  0
 13 29  1  0
 13 30  1  0
 14 31  1  0
 14 32  1  0
 15 33  1  0
 15 34  1  0
 16 35  1  1
 17 36  1  0
 18 37  1  0
 18 38  1  0
 18 39  1  0
M  ISO  8  19  14  20  14  21  14  22  13  23  13  24  13  25  13  26  13
M  ISO  8  27  13  28  13  29  13  30  13  31  13  32  13  33  13  34  13
M  ISO  5  35  13  36   5  37   8  38   8  39   8
M  END
>  <minimizedAffinity>  (1) 
-4.00469875

>  <minimizedRMSD>  (1) 
0.566008866

$$$$
