
     RDKit          3D

 46 49  0  0  1  0  0  0  0  0999 V2000
   38.3060   26.5500   33.6700 N   0  0  0  0  0  0  0  0  0  0  0  0
   37.1750   27.2450   33.6260 C   0  0  0  0  0  0  0  0  0  0  0  0
   37.1930   27.9350   35.0090 C   0  0  0  0  0  0  0  0  0  0  0  0
   38.2290   27.1620   35.8050 C   0  0  0  0  0  0  0  0  0  0  0  0
   38.6150   25.9860   34.8990 C   0  0  1  0  0  0  0  0  0  0  0  0
   37.7460   23.4910   32.2930 N   0  0  0  0  0  0  0  0  0  0  0  0
   39.1960   23.4780   32.0200 C   0  0  0  0  0  0  0  0  0  0  0  0
   39.5860   24.6670   32.9230 C   0  0  0  0  0  0  0  0  0  0  0  0
   38.6090   25.6380   32.6160 C   0  0  1  0  0  0  0  0  0  0  0  0
   37.3660   24.8800   32.3970 C   0  0  0  0  0  0  0  0  0  0  0  0
   35.8440   20.6250   33.6680 C   0  0  0  0  0  0  0  0  0  0  0  0
   36.7640   21.6810   33.5880 C   0  0  0  0  0  0  0  0  0  0  0  0
   36.8550   22.4290   32.4310 C   0  0  0  0  0  0  0  0  0  0  0  0
   36.0380   22.1010   31.4100 N   0  0  0  0  0  0  0  0  0  0  0  0
   35.1500   21.0750   31.5000 C   0  0  0  0  0  0  0  0  0  0  0  0
   35.0550   20.3470   32.6130 N   0  0  0  0  0  0  0  0  0  0  0  0
   37.8520   24.9020   35.3780 N   0  0  0  0  0  0  0  0  0  0  0  0
   38.2660   24.6290   36.7320 C   0  0  0  0  0  0  0  0  0  0  0  0
   39.2760   23.5140   36.8040 C   0  0  0  0  0  0  0  0  0  0  0  0
   39.9320   22.9550   37.9060 C   0  0  0  0  0  0  0  0  0  0  0  0
   40.7720   21.9590   37.5240 C   0  0  0  0  0  0  0  0  0  0  0  0
   40.6080   21.9270   36.1560 C   0  0  0  0  0  0  0  0  0  0  0  0
   39.7460   22.8300   35.7890 O   0  0  0  0  0  0  0  0  0  0  0  0
   37.1854   27.9807   32.8083 H   0  0  0  0  0  0  0  0  0  0  0  0
   36.2783   26.6368   33.4364 H   0  0  0  0  0  0  0  0  0  0  0  0
   37.4849   28.9912   34.9130 H   0  0  0  0  0  0  0  0  0  0  0  0
   36.2048   27.9302   35.4921 H   0  0  0  0  0  0  0  0  0  0  0  0
   39.1051   27.7924   36.0174 H   0  0  0  0  0  0  0  0  0  0  0  0
   37.8426   26.8285   36.7794 H   0  0  0  0  0  0  0  0  0  0  0  0
   39.6362   25.5796   34.8543 H   0  0  0  0  0  0  0  0  0  0  0  0
   39.6726   22.5386   32.3367 H   0  0  0  0  0  0  0  0  0  0  0  0
   39.4923   23.5526   30.9633 H   0  0  0  0  0  0  0  0  0  0  0  0
   39.5430   24.3862   33.9857 H   0  0  0  0  0  0  0  0  0  0  0  0
   40.6138   25.0198   32.7524 H   0  0  0  0  0  0  0  0  0  0  0  0
   38.9907   26.2283   31.7699 H   0  0  0  0  0  0  0  0  0  0  0  0
   36.8776   25.2109   31.4686 H   0  0  0  0  0  0  0  0  0  0  0  0
   36.6539   25.0371   33.2205 H   0  0  0  0  0  0  0  0  0  0  0  0
   35.7676   20.0270   34.5881 H   0  0  0  0  0  0  0  0  0  0  0  0
   37.4121   21.9129   34.4460 H   0  0  0  0  0  0  0  0  0  0  0  0
   34.5011   20.8425   30.6427 H   0  0  0  0  0  0  0  0  0  0  0  0
   36.8511   25.1445   35.3608 H   0  0  0  0  0  0  0  0  0  0  0  0
   38.7132   25.5401   37.1563 H   0  0  0  0  0  0  0  0  0  0  0  0
   37.3775   24.3172   37.3006 H   0  0  0  0  0  0  0  0  0  0  0  0
   39.7862   23.2801   38.9467 H   0  0  0  0  0  0  0  0  0  0  0  0
   41.4228   21.3323   38.1515 H   0  0  0  0  0  0  0  0  0  0  0  0
   41.1294   21.2389   35.4743 H   0  0  0  0  0  0  0  0  0  0  0  0
  1  2  1  0
  1  5  1  0
  2  3  1  0
  3  4  1  0
  5 17  1  0
  5  4  1  0
  6 10  1  0
  6 13  1  0
  7  6  1  0
  7  8  1  0
  9  8  1  0
  9  1  1  0
 10  9  1  0
 12 11  2  0
 13 12  1  0
 14 15  1  0
 14 13  2  0
 15 16  2  0
 16 11  1  0
 17 18  1  0
 18 19  1  0
 19 20  2  0
 21 20  1  0
 22 21  2  0
 23 22  1  0
 23 19  1  0
  2 24  1  0
  2 25  1  0
  3 26  1  0
  3 27  1  0
  4 28  1  0
  4 29  1  0
  5 30  1  6
  7 31  1  0
  7 32  1  0
  8 33  1  0
  8 34  1  0
  9 35  1  6
 10 36  1  0
 10 37  1  0
 11 38  1  0
 12 39  1  0
 15 40  1  0
 17 41  1  0
 18 42  1  0
 18 43  1  0
 20 44  1  0
 21 45  1  0
 22 46  1  0
M  ISO  8  24  13  25  13  26  13  27  13  28  13  29  13  30  13  31  13
M  ISO  8  32  13  33  13  34  13  35  13  36  13  37  13  38  14  39  14
M  ISO  7  40  14  41   5  42   8  43   8  44  14  45  14  46  14
M  END
>  <minimizedAffinity>  (1) 
-5.0073328

>  <minimizedRMSD>  (1) 
4.59717894

$$$$
