
     RDKit          3D

 45 48  0  0  1  0  0  0  0  0999 V2000
   38.0480   26.8510   33.3910 N   0  0  0  0  0  0  0  0  0  0  0  0
   37.0690   27.1170   34.2460 C   0  0  0  0  0  0  0  0  0  0  0  0
   37.8670   27.5330   35.4990 C   0  0  0  0  0  0  0  0  0  0  0  0
   39.2670   27.0290   35.2390 C   0  0  0  0  0  0  0  0  0  0  0  0
   39.1650   26.2290   33.9320 C   0  0  1  0  0  0  0  0  0  0  0  0
   37.2140   24.0750   31.6240 N   0  0  0  0  0  0  0  0  0  0  0  0
   38.1350   24.5900   30.5930 C   0  0  0  0  0  0  0  0  0  0  0  0
   38.8180   25.6650   31.4530 C   0  0  0  0  0  0  0  0  0  0  0  0
   37.7400   26.2900   32.1170 C   0  0  1  0  0  0  0  0  0  0  0  0
   36.7720   25.2100   32.3980 C   0  0  0  0  0  0  0  0  0  0  0  0
   35.0990   21.0620   32.1190 C   0  0  0  0  0  0  0  0  0  0  0  0
   35.4630   22.3940   31.8640 C   0  0  0  0  0  0  0  0  0  0  0  0
   36.7930   22.7630   31.8700 C   0  0  0  0  0  0  0  0  0  0  0  0
   37.6910   21.8000   32.1250 N   0  0  0  0  0  0  0  0  0  0  0  0
   37.3420   20.5160   32.3680 C   0  0  0  0  0  0  0  0  0  0  0  0
   36.0590   20.1490   32.3660 N   0  0  0  0  0  0  0  0  0  0  0  0
   39.0660   24.8790   34.3540 N   0  0  0  0  0  0  0  0  0  0  0  0
   40.3870   24.4360   34.7140 C   0  0  0  0  0  0  0  0  0  0  0  0
   40.3300   23.6550   35.9320 N   0  0  0  0  0  0  0  0  0  0  0  0
   41.1360   22.8030   36.5910 C   0  0  0  0  0  0  0  0  0  0  0  0
   40.5500   22.3530   37.7130 N   0  0  0  0  0  0  0  0  0  0  0  0
   39.3440   22.9300   37.7750 C   0  0  0  0  0  0  0  0  0  0  0  0
   39.2350   23.6990   36.7050 N   0  0  0  0  0  0  0  0  0  0  0  0
   36.4304   27.9366   33.8848 H   0  0  0  0  0  0  0  0  0  0  0  0
   36.3751   26.2796   34.4112 H   0  0  0  0  0  0  0  0  0  0  0  0
   37.8630   28.6266   35.6174 H   0  0  0  0  0  0  0  0  0  0  0  0
   37.4386   27.1205   36.4243 H   0  0  0  0  0  0  0  0  0  0  0  0
   39.9657   27.8707   35.1236 H   0  0  0  0  0  0  0  0  0  0  0  0
   39.6466   26.4163   36.0700 H   0  0  0  0  0  0  0  0  0  0  0  0
   39.9667   26.2123   33.1790 H   0  0  0  0  0  0  0  0  0  0  0  0
   37.6018   25.0191   29.7318 H   0  0  0  0  0  0  0  0  0  0  0  0
   38.7979   23.8514   30.1186 H   0  0  0  0  0  0  0  0  0  0  0  0
   39.5126   25.2091   32.1738 H   0  0  0  0  0  0  0  0  0  0  0  0
   39.4217   26.3681   30.8603 H   0  0  0  0  0  0  0  0  0  0  0  0
   37.3984   27.1119   31.4707 H   0  0  0  0  0  0  0  0  0  0  0  0
   35.7602   25.5128   32.0904 H   0  0  0  0  0  0  0  0  0  0  0  0
   36.7275   24.9753   33.4718 H   0  0  0  0  0  0  0  0  0  0  0  0
   34.0395   20.7663   32.1172 H   0  0  0  0  0  0  0  0  0  0  0  0
   34.6862   23.1453   31.6589 H   0  0  0  0  0  0  0  0  0  0  0  0
   38.1227   19.7676   32.5691 H   0  0  0  0  0  0  0  0  0  0  0  0
   38.4390   24.8109   35.1683 H   0  0  0  0  0  0  0  0  0  0  0  0
   40.7979   23.8171   33.9027 H   0  0  0  0  0  0  0  0  0  0  0  0
   41.0314   25.3127   34.8757 H   0  0  0  0  0  0  0  0  0  0  0  0
   42.1426   22.5129   36.2553 H   0  0  0  0  0  0  0  0  0  0  0  0
   38.5896   22.7913   38.5634 H   0  0  0  0  0  0  0  0  0  0  0  0
  1  5  1  0
  1  2  1  0
  2  3  1  0
  4  3  1  0
  5 17  1  0
  5  4  1  0
  6 13  1  0
  6 10  1  0
  7  8  1  0
  7  6  1  0
  8  9  1  0
  9 10  1  0
  9  1  1  0
 11 16  2  0
 12 13  2  0
 12 11  1  0
 13 14  1  0
 14 15  2  0
 16 15  1  0
 17 18  1  0
 18 19  1  0
 19 20  1  0
 19 23  1  0
 20 21  2  0
 21 22  1  0
 23 22  2  0
  2 24  1  0
  2 25  1  0
  3 26  1  0
  3 27  1  0
  4 28  1  0
  4 29  1  0
  5 30  1  6
  7 31  1  0
  7 32  1  0
  8 33  1  0
  8 34  1  0
  9 35  1  6
 10 36  1  0
 10 37  1  0
 11 38  1  0
 12 39  1  0
 15 40  1  0
 17 41  1  0
 18 42  1  0
 18 43  1  0
 20 44  1  0
 22 45  1  0
M  ISO  8  24  13  25  13  26  13  27  13  28  13  29  13  30  13  31  13
M  ISO  8  32  13  33  13  34  13  35  13  36  13  37  13  38  14  39  14
M  ISO  6  40  14  41   5  42   8  43   8  44  14  45  14
M  END
>  <minimizedAffinity>  (1) 
-4.98890352

>  <minimizedRMSD>  (1) 
4.66114902

$$$$
