
     RDKit          3D

 40 42  0  0  1  0  0  0  0  0999 V2000
   41.8940   24.1230   35.0000 N   0  0  0  0  0  0  0  0  0  0  0  0
   42.5790   25.4160   35.0430 C   0  0  0  0  0  0  0  0  0  0  0  0
   41.3690   26.3140   34.7020 C   0  0  0  0  0  0  0  0  0  0  0  0
   40.7760   25.6380   33.6120 C   0  0  1  0  0  0  0  0  0  0  0  0
   40.9380   24.2070   33.9140 C   0  0  0  0  0  0  0  0  0  0  0  0
   39.3630   25.8250   33.4790 N   0  0  0  0  0  0  0  0  0  0  0  0
   38.6850   25.0730   32.6190 C   0  0  0  0  0  0  0  0  0  0  0  0
   37.2330   25.5080   32.9370 C   0  0  0  0  0  0  0  0  0  0  0  0
   37.3250   26.1860   34.2900 C   0  0  0  0  0  0  0  0  0  0  0  0
   38.7650   25.9780   34.7190 C   0  0  1  0  0  0  0  0  0  0  0  0
   38.7300   24.8840   35.6130 N   0  0  0  0  0  0  0  0  0  0  0  0
   38.0290   25.2890   36.8050 C   0  0  0  0  0  0  0  0  0  0  0  0
   37.9370   24.0030   38.0760 S   0  0  0  0  0  0  0  0  0  0  0  0
   41.4020   21.5020   37.5720 C   0  0  0  0  0  0  0  0  0  0  0  0
   41.1930   22.6560   36.8070 C   0  0  0  0  0  0  0  0  0  0  0  0
   42.0610   22.9930   35.7920 C   0  0  0  0  0  0  0  0  0  0  0  0
   43.1060   22.1750   35.5710 N   0  0  0  0  0  0  0  0  0  0  0  0
   43.3070   21.0470   36.3220 C   0  0  0  0  0  0  0  0  0  0  0  0
   42.4680   20.7160   37.3060 N   0  0  0  0  0  0  0  0  0  0  0  0
   42.9927   25.6351   36.0384 H   0  0  0  0  0  0  0  0  0  0  0  0
   43.4558   25.5190   34.3868 H   0  0  0  0  0  0  0  0  0  0  0  0
   40.6739   26.3821   35.5518 H   0  0  0  0  0  0  0  0  0  0  0  0
   41.6483   27.3526   34.4710 H   0  0  0  0  0  0  0  0  0  0  0  0
   41.2509   26.0154   32.6944 H   0  0  0  0  0  0  0  0  0  0  0  0
   39.9754   23.7716   34.2202 H   0  0  0  0  0  0  0  0  0  0  0  0
   41.2873   23.6506   33.0317 H   0  0  0  0  0  0  0  0  0  0  0  0
   38.9577   25.3019   31.5782 H   0  0  0  0  0  0  0  0  0  0  0  0
   38.8686   23.9927   32.7147 H   0  0  0  0  0  0  0  0  0  0  0  0
   36.8621   26.2097   32.1754 H   0  0  0  0  0  0  0  0  0  0  0  0
   36.5345   24.6582   32.9426 H   0  0  0  0  0  0  0  0  0  0  0  0
   37.0953   27.2584   34.2044 H   0  0  0  0  0  0  0  0  0  0  0  0
   36.6078   25.7740   35.0151 H   0  0  0  0  0  0  0  0  0  0  0  0
   39.3213   26.7446   35.2784 H   0  0  0  0  0  0  0  0  0  0  0  0
   38.2394   24.0920   35.1737 H   0  0  0  0  0  0  0  0  0  0  0  0
   38.5465   26.1609   37.2316 H   0  0  0  0  0  0  0  0  0  0  0  0
   36.9952   25.5158   36.5054 H   0  0  0  0  0  0  0  0  0  0  0  0
   37.9785   24.5831   39.3164 H   0  0  0  0  0  0  0  0  0  0  0  0
   40.7053   21.2381   38.3813 H   0  0  0  0  0  0  0  0  0  0  0  0
   40.3268   23.3000   37.0188 H   0  0  0  0  0  0  0  0  0  0  0  0
   44.1738   20.4036   36.1107 H   0  0  0  0  0  0  0  0  0  0  0  0
  1  2  1  0
  1 16  1  0
  3  2  1  0
  4  5  1  0
  4  3  1  0
  5  1  1  0
  6  7  1  0
  6  4  1  0
  6 10  1  0
  7  8  1  0
  8  9  1  0
  9 10  1  0
 10 11  1  0
 11 12  1  0
 12 13  1  0
 15 14  2  0
 16 15  1  0
 17 16  2  0
 17 18  1  0
 18 19  2  0
 19 14  1  0
  2 20  1  0
  2 21  1  0
  3 22  1  0
  3 23  1  0
  4 24  1  6
  5 25  1  0
  5 26  1  0
  7 27  1  0
  7 28  1  0
  8 29  1  0
  8 30  1  0
  9 31  1  0
  9 32  1  0
 10 33  1  1
 11 34  1  0
 12 35  1  0
 12 36  1  0
 13 37  1  0
 14 38  1  0
 15 39  1  0
 18 40  1  0
M  ISO  8  20  13  21  13  22  13  23  13  24  13  25  13  26  13  27  13
M  ISO  8  28  13  29  13  30  13  31  13  32  13  33  13  34   5  35   8
M  ISO  5  36   8  37  11  38  14  39  14  40  14
M  END
>  <minimizedAffinity>  (1) 
-3.69320798

>  <minimizedRMSD>  (1) 
1.25579393

$$$$
