
     RDKit          3D

 40 42  0  0  1  0  0  0  0  0999 V2000
   40.9030   24.8410   34.6010 N   0  0  0  0  0  0  0  0  0  0  0  0
   41.7460   26.0280   34.4710 C   0  0  0  0  0  0  0  0  0  0  0  0
   40.6800   26.9890   33.8970 C   0  0  0  0  0  0  0  0  0  0  0  0
   40.0670   26.2020   32.9010 C   0  0  1  0  0  0  0  0  0  0  0  0
   40.0310   24.8400   33.4520 C   0  0  0  0  0  0  0  0  0  0  0  0
   38.7020   26.5200   32.6240 N   0  0  0  0  0  0  0  0  0  0  0  0
   37.9530   25.6710   31.9260 C   0  0  0  0  0  0  0  0  0  0  0  0
   36.5730   26.3330   32.0220 C   0  0  0  0  0  0  0  0  0  0  0  0
   36.7060   27.3190   33.1790 C   0  0  0  0  0  0  0  0  0  0  0  0
   38.0790   27.0490   33.7550 C   0  0  1  0  0  0  0  0  0  0  0  0
   37.8560   26.2200   34.8700 N   0  0  0  0  0  0  0  0  0  0  0  0
   38.2680   26.9130   36.0690 C   0  0  0  0  0  0  0  0  0  0  0  0
   37.9510   28.2730   35.9760 O   0  0  0  0  0  0  0  0  0  0  0  0
   39.7780   22.5380   37.2790 C   0  0  0  0  0  0  0  0  0  0  0  0
   39.7310   23.5390   36.2980 C   0  0  0  0  0  0  0  0  0  0  0  0
   40.8850   23.8620   35.5940 C   0  0  0  0  0  0  0  0  0  0  0  0
   42.0110   23.1900   35.8920 N   0  0  0  0  0  0  0  0  0  0  0  0
   42.0440   22.2170   36.8520 C   0  0  0  0  0  0  0  0  0  0  0  0
   40.9390   21.8970   37.5360 N   0  0  0  0  0  0  0  0  0  0  0  0
   42.1359   26.3701   35.4410 H   0  0  0  0  0  0  0  0  0  0  0  0
   42.6596   25.9071   33.8704 H   0  0  0  0  0  0  0  0  0  0  0  0
   39.9562   27.2875   34.6697 H   0  0  0  0  0  0  0  0  0  0  0  0
   41.0986   27.9321   33.5158 H   0  0  0  0  0  0  0  0  0  0  0  0
   40.6371   26.3546   31.9727 H   0  0  0  0  0  0  0  0  0  0  0  0
   39.0058   24.5786   33.7530 H   0  0  0  0  0  0  0  0  0  0  0  0
   40.3561   24.0999   32.7060 H   0  0  0  0  0  0  0  0  0  0  0  0
   38.2929   25.5994   30.8823 H   0  0  0  0  0  0  0  0  0  0  0  0
   37.9816   24.6363   32.2982 H   0  0  0  0  0  0  0  0  0  0  0  0
   36.3278   26.8595   31.0878 H   0  0  0  0  0  0  0  0  0  0  0  0
   35.7672   25.6020   32.1840 H   0  0  0  0  0  0  0  0  0  0  0  0
   36.6339   28.3550   32.8165 H   0  0  0  0  0  0  0  0  0  0  0  0
   35.9084   27.1951   33.9264 H   0  0  0  0  0  0  0  0  0  0  0  0
   38.7098   27.8534   34.1612 H   0  0  0  0  0  0  0  0  0  0  0  0
   36.8541   25.9895   34.9327 H   0  0  0  0  0  0  0  0  0  0  0  0
   37.7496   26.4778   36.9361 H   0  0  0  0  0  0  0  0  0  0  0  0
   39.3563   26.8061   36.1886 H   0  0  0  0  0  0  0  0  0  0  0  0
   37.8622   28.6541   36.8854 H   0  0  0  0  0  0  0  0  0  0  0  0
   38.8689   22.2746   37.8396 H   0  0  0  0  0  0  0  0  0  0  0  0
   38.7879   24.0646   36.0873 H   0  0  0  0  0  0  0  0  0  0  0  0
   42.9873   21.6924   37.0641 H   0  0  0  0  0  0  0  0  0  0  0  0
  1 16  1  0
  2  1  1  0
  3  2  1  0
  4  5  1  0
  4  3  1  0
  5  1  1  0
  6  7  1  0
  6  4  1  0
  6 10  1  0
  7  8  1  0
  8  9  1  0
  9 10  1  0
 10 11  1  0
 11 12  1  0
 13 12  1  0
 14 19  2  0
 15 14  1  0
 16 17  1  0
 16 15  2  0
 17 18  2  0
 18 19  1  0
  2 20  1  0
  2 21  1  0
  3 22  1  0
  3 23  1  0
  4 24  1  6
  5 25  1  0
  5 26  1  0
  7 27  1  0
  7 28  1  0
  8 29  1  0
  8 30  1  0
  9 31  1  0
  9 32  1  0
 10 33  1  1
 11 34  1  0
 12 35  1  0
 12 36  1  0
 13 37  1  0
 14 38  1  0
 15 39  1  0
 18 40  1  0
M  ISO  8  20  13  21  13  22  13  23  13  24  13  25  13  26  13  27  13
M  ISO  8  28  13  29  13  30  13  31  13  32  13  33  13  34   5  35   8
M  ISO  5  36   8  37   3  38  14  39  14  40  14
M  END
>  <minimizedAffinity>  (1) 
-4.16132259

>  <minimizedRMSD>  (1) 
0.533247471

$$$$
