
     RDKit          3D

 27 29  0  0  0  0  0  0  0  0999 V2000
   40.9210   22.2320   35.8110 C   0  0  0  0  0  0  0  0  0  0  0  0
   41.4420   23.4180   35.1100 C   0  0  0  0  0  0  0  0  0  0  0  0
   40.8080   23.9160   34.0250 N   0  0  0  0  0  0  0  0  0  0  0  0
   41.2370   24.9950   33.3440 C   0  0  0  0  0  0  0  0  0  0  0  0
   42.3470   25.6650   33.7060 N   0  0  0  0  0  0  0  0  0  0  0  0
   43.0380   25.2270   34.7830 C   0  0  0  0  0  0  0  0  0  0  0  0
   44.1900   25.8640   35.2170 C   0  0  0  0  0  0  0  0  0  0  0  0
   44.9170   25.4330   36.3210 C   0  0  0  0  0  0  0  0  0  0  0  0
   44.4280   24.3170   36.9830 C   0  0  0  0  0  0  0  0  0  0  0  0
   43.2720   23.6360   36.5900 C   0  0  0  0  0  0  0  0  0  0  0  0
   42.5890   24.1140   35.4800 C   0  0  0  0  0  0  0  0  0  0  0  0
   39.7150   22.5910   36.5770 C   0  0  0  0  0  0  0  0  0  0  0  0
   39.8580   23.0290   37.9100 C   0  0  0  0  0  0  0  0  0  0  0  0
   38.6910   23.3650   38.6170 C   0  0  0  0  0  0  0  0  0  0  0  0
   37.5020   23.2460   37.9670 N   0  0  0  0  0  0  0  0  0  0  0  0
   37.4260   22.8230   36.6940 C   0  0  0  0  0  0  0  0  0  0  0  0
   38.5130   22.4960   35.9930 N   0  0  0  0  0  0  0  0  0  0  0  0
   41.6890   21.8483   36.4988 H   0  0  0  0  0  0  0  0  0  0  0  0
   40.6635   21.4590   35.0720 H   0  0  0  0  0  0  0  0  0  0  0  0
   40.6656   25.3382   32.4689 H   0  0  0  0  0  0  0  0  0  0  0  0
   44.5438   26.7473   34.6650 H   0  0  0  0  0  0  0  0  0  0  0  0
   45.8304   25.9492   36.6513 H   0  0  0  0  0  0  0  0  0  0  0  0
   44.9775   23.9489   37.8619 H   0  0  0  0  0  0  0  0  0  0  0  0
   42.9163   22.7528   37.1408 H   0  0  0  0  0  0  0  0  0  0  0  0
   40.8495   23.1050   38.3803 H   0  0  0  0  0  0  0  0  0  0  0  0
   38.7373   23.7122   39.6598 H   0  0  0  0  0  0  0  0  0  0  0  0
   36.4386   22.7440   36.2157 H   0  0  0  0  0  0  0  0  0  0  0  0
  1 12  1  0
  2 11  1  0
  2  1  1  0
  3  2  2  0
  4  5  2  0
  4  3  1  0
  5  6  1  0
  6  7  1  0
  6 11  2  0
  7  8  2  0
  8  9  1  0
 10  9  2  0
 11 10  1  0
 12 13  2  0
 13 14  1  0
 15 14  2  0
 16 15  1  0
 17 12  1  0
 17 16  2  0
  1 18  1  0
  1 19  1  0
  4 20  1  0
  7 21  1  0
  8 22  1  0
  9 23  1  0
 10 24  1  0
 13 25  1  0
 14 26  1  0
 16 27  1  0
M  ISO  8  18   8  19   8  20  14  21  14  22  14  23  14  24  14  25  14
M  ISO  2  26  14  27  14
M  END
>  <minimizedAffinity>  (1) 
-4.2974534

>  <minimizedRMSD>  (1) 
2.55738473

$$$$
