
     RDKit          3D

 26 27  0  0  0  0  0  0  0  0999 V2000
   42.1360   22.8690   35.4430 C   0  0  0  0  0  0  0  0  0  0  0  0
   40.9650   22.9850   36.2570 N   0  0  0  0  0  0  0  0  0  0  0  0
   40.0150   23.8830   35.8830 C   0  0  0  0  0  0  0  0  0  0  0  0
   38.8630   24.0210   36.6530 C   0  0  0  0  0  0  0  0  0  0  0  0
   37.8050   24.9870   36.2830 C   0  0  0  0  0  0  0  0  0  0  0  0
   38.6560   23.2640   37.7970 C   0  0  0  0  0  0  0  0  0  0  0  0
   37.6110   23.4060   38.4720 O   0  0  0  0  0  0  0  0  0  0  0  0
   39.6280   22.3730   38.1420 N   0  0  0  0  0  0  0  0  0  0  0  0
   40.7180   22.2760   37.3680 C   0  0  0  0  0  0  0  0  0  0  0  0
   41.5780   21.4370   37.7410 O   0  0  0  0  0  0  0  0  0  0  0  0
   43.1060   23.9640   35.5900 C   0  0  0  0  0  0  0  0  0  0  0  0
   43.8610   24.0900   36.7750 C   0  0  0  0  0  0  0  0  0  0  0  0
   44.7730   25.1440   36.8760 C   0  0  0  0  0  0  0  0  0  0  0  0
   44.8780   25.9900   35.8180 N   0  0  0  0  0  0  0  0  0  0  0  0
   44.1280   25.8310   34.6910 C   0  0  0  0  0  0  0  0  0  0  0  0
   43.2570   24.8270   34.5900 N   0  0  0  0  0  0  0  0  0  0  0  0
   41.8179   22.8340   34.3906 H   0  0  0  0  0  0  0  0  0  0  0  0
   42.6513   21.9554   35.7742 H   0  0  0  0  0  0  0  0  0  0  0  0
   40.1553   24.4952   34.9799 H   0  0  0  0  0  0  0  0  0  0  0  0
   37.3513   25.4012   37.1955 H   0  0  0  0  0  0  0  0  0  0  0  0
   38.2442   25.8022   35.6892 H   0  0  0  0  0  0  0  0  0  0  0  0
   37.0330   24.4757   35.6892 H   0  0  0  0  0  0  0  0  0  0  0  0
   39.5268   21.7852   38.9818 H   0  0  0  0  0  0  0  0  0  0  0  0
   43.7347   23.3746   37.6010 H   0  0  0  0  0  0  0  0  0  0  0  0
   45.3841   25.2838   37.7799 H   0  0  0  0  0  0  0  0  0  0  0  0
   44.2427   26.5383   33.8564 H   0  0  0  0  0  0  0  0  0  0  0  0
  1 11  1  0
  1  2  1  0
  2  9  1  0
  3  2  1  0
  3  4  2  0
  4  6  1  0
  5  4  1  0
  6  8  1  0
  6  7  2  0
  9 10  2  0
  9  8  1  0
 11 12  2  0
 12 13  1  0
 14 13  2  0
 15 14  1  0
 16 15  2  0
 16 11  1  0
  1 17  1  0
  1 18  1  0
  3 19  1  0
  5 20  1  0
  5 21  1  0
  5 22  1  0
  8 23  1  0
 12 24  1  0
 13 25  1  0
 15 26  1  0
M  ISO  8  17   8  18   8  19  14  20   8  21   8  22   8  23   9  24  14
M  ISO  2  25  14  26  14
M  END
>  <minimizedAffinity>  (1) 
-4.70988941

>  <minimizedRMSD>  (1) 
5.72056723

$$$$
