
     RDKit          3D

 26 27  0  0  0  0  0  0  0  0999 V2000
   39.7270   22.7080   37.4220 C   0  0  0  0  0  0  0  0  0  0  0  0
   39.1550   23.3560   38.5300 C   0  0  0  0  0  0  0  0  0  0  0  0
   37.9890   24.0990   38.3120 C   0  0  0  0  0  0  0  0  0  0  0  0
   37.4840   24.1520   37.0600 N   0  0  0  0  0  0  0  0  0  0  0  0
   38.0780   23.5070   36.0250 C   0  0  0  0  0  0  0  0  0  0  0  0
   39.1870   22.7940   36.2100 N   0  0  0  0  0  0  0  0  0  0  0  0
   40.9530   21.9120   37.5850 C   0  0  0  0  0  0  0  0  0  0  0  0
   41.9250   22.0660   36.4410 C   0  0  0  0  0  0  0  0  0  0  0  0
   43.0190   21.0200   36.4900 C   0  0  0  0  0  0  0  0  0  0  0  0
   44.1690   21.6930   35.7340 C   0  0  0  0  0  0  0  0  0  0  0  0
   43.7520   23.1370   35.5240 C   0  0  0  0  0  0  0  0  0  0  0  0
   42.7460   23.3170   36.6710 C   0  0  0  0  0  0  0  0  0  0  0  0
   39.6064   23.2821   39.5304 H   0  0  0  0  0  0  0  0  0  0  0  0
   37.4953   24.6275   39.1408 H   0  0  0  0  0  0  0  0  0  0  0  0
   37.6375   23.5740   35.0193 H   0  0  0  0  0  0  0  0  0  0  0  0
   41.4532   22.2282   38.5123 H   0  0  0  0  0  0  0  0  0  0  0  0
   40.6516   20.8545   37.6145 H   0  0  0  0  0  0  0  0  0  0  0  0
   41.3203   22.0333   35.5227 H   0  0  0  0  0  0  0  0  0  0  0  0
   43.3055   20.7952   37.5280 H   0  0  0  0  0  0  0  0  0  0  0  0
   42.7182   20.0556   36.0547 H   0  0  0  0  0  0  0  0  0  0  0  0
   45.0941   21.6460   36.3272 H   0  0  0  0  0  0  0  0  0  0  0  0
   44.3666   21.1901   34.7758 H   0  0  0  0  0  0  0  0  0  0  0  0
   44.6059   23.8233   35.6233 H   0  0  0  0  0  0  0  0  0  0  0  0
   43.3460   23.3526   34.5247 H   0  0  0  0  0  0  0  0  0  0  0  0
   42.1475   24.2330   36.5585 H   0  0  0  0  0  0  0  0  0  0  0  0
   43.1793   23.4282   37.6759 H   0  0  0  0  0  0  0  0  0  0  0  0
  1  7  1  0
  1  2  2  0
  3  2  1  0
  4  3  2  0
  5  6  2  0
  5  4  1  0
  6  1  1  0
  8  9  1  0
  8 12  1  0
  8  7  1  0
 10  9  1  0
 11 10  1  0
 11 12  1  0
  2 13  1  0
  3 14  1  0
  5 15  1  0
  7 16  1  0
  7 17  1  0
  8 18  1  0
  9 19  1  0
  9 20  1  0
 10 21  1  0
 10 22  1  0
 11 23  1  0
 11 24  1  0
 12 25  1  0
 12 26  1  0
M  ISO  8  13  14  14  14  15  14  16   8  17   8  18  13  19  13  20  13
M  ISO  6  21  13  22  13  23  13  24  13  25  13  26  13
M  END
>  <minimizedAffinity>  (1) 
-3.7933042

>  <minimizedRMSD>  (1) 
2.57431102

$$$$
