
     RDKit          3D

 22 23  0  0  0  0  0  0  0  0999 V2000
   41.2760   22.0790   36.5690 C   0  0  0  0  0  0  0  0  0  0  0  0
   39.8680   22.4420   36.8130 C   0  0  0  0  0  0  0  0  0  0  0  0
   39.5150   23.0860   38.0040 C   0  0  0  0  0  0  0  0  0  0  0  0
   38.1590   23.4150   38.1980 C   0  0  0  0  0  0  0  0  0  0  0  0
   37.2740   23.0830   37.2070 N   0  0  0  0  0  0  0  0  0  0  0  0
   37.6790   22.4620   36.0810 C   0  0  0  0  0  0  0  0  0  0  0  0
   38.9590   22.1370   35.8710 N   0  0  0  0  0  0  0  0  0  0  0  0
   42.1060   23.2490   36.1690 C   0  0  0  0  0  0  0  0  0  0  0  0
   43.3980   23.3370   36.6910 C   0  0  0  0  0  0  0  0  0  0  0  0
   44.2550   24.3940   36.3790 C   0  0  0  0  0  0  0  0  0  0  0  0
   43.7570   25.3580   35.5170 C   0  0  0  0  0  0  0  0  0  0  0  0
   42.4710   25.2680   34.9990 C   0  0  0  0  0  0  0  0  0  0  0  0
   41.6750   24.2130   35.3380 N   0  0  0  0  0  0  0  0  0  0  0  0
   41.6941   21.6487   37.4910 H   0  0  0  0  0  0  0  0  0  0  0  0
   41.2958   21.3564   35.7399 H   0  0  0  0  0  0  0  0  0  0  0  0
   40.2721   23.3277   38.7645 H   0  0  0  0  0  0  0  0  0  0  0  0
   37.8224   23.9215   39.1146 H   0  0  0  0  0  0  0  0  0  0  0  0
   36.9333   22.2150   35.3110 H   0  0  0  0  0  0  0  0  0  0  0  0
   43.7522   22.5477   37.3703 H   0  0  0  0  0  0  0  0  0  0  0  0
   45.2712   24.4582   36.7952 H   0  0  0  0  0  0  0  0  0  0  0  0
   44.3924   26.2113   35.2374 H   0  0  0  0  0  0  0  0  0  0  0  0
   42.0955   26.0453   34.3173 H   0  0  0  0  0  0  0  0  0  0  0  0
  1  2  1  0
  2  3  2  0
  3  4  1  0
  5  4  2  0
  6  5  1  0
  7  6  2  0
  7  2  1  0
  8  1  1  0
  8  9  2  0
 10  9  1  0
 11 10  2  0
 12 13  2  0
 12 11  1  0
 13  8  1  0
  1 14  1  0
  1 15  1  0
  3 16  1  0
  4 17  1  0
  6 18  1  0
  9 19  1  0
 10 20  1  0
 11 21  1  0
 12 22  1  0
M  ISO  8  14   8  15   8  16  14  17  14  18  14  19  14  20  14  21  14
M  ISO  1  22  14
M  END
>  <minimizedAffinity>  (1) 
-3.87747312

>  <minimizedRMSD>  (1) 
0.738024712

$$$$
