
     RDKit          3D

 25 26  0  0  0  0  0  0  0  0999 V2000
   41.2610   22.6510   37.0120 C   0  0  0  0  0  0  0  0  0  0  0  0
   39.7980   22.7580   37.0800 C   0  0  0  0  0  0  0  0  0  0  0  0
   39.1910   23.2740   38.2290 C   0  0  0  0  0  0  0  0  0  0  0  0
   37.7840   23.3590   38.2540 C   0  0  0  0  0  0  0  0  0  0  0  0
   37.1040   22.9340   37.1580 N   0  0  0  0  0  0  0  0  0  0  0  0
   37.7430   22.4400   36.0640 C   0  0  0  0  0  0  0  0  0  0  0  0
   39.0810   22.3480   36.0150 N   0  0  0  0  0  0  0  0  0  0  0  0
   41.6610   21.3570   36.4840 N   0  0  0  0  0  0  0  0  0  0  0  0
   42.3480   20.6070   37.4810 C   0  0  0  0  0  0  0  0  0  0  0  0
   43.2820   19.5550   37.0190 C   0  0  0  0  0  0  0  0  0  0  0  0
   43.4510   19.3730   35.6440 N   0  0  0  0  0  0  0  0  0  0  0  0
   43.1320   20.4220   34.7510 C   0  0  0  0  0  0  0  0  0  0  0  0
   42.4290   21.6080   35.2950 C   0  0  0  0  0  0  0  0  0  0  0  0
   41.6503   23.4438   36.3563 H   0  0  0  0  0  0  0  0  0  0  0  0
   41.6695   22.7584   38.0277 H   0  0  0  0  0  0  0  0  0  0  0  0
   39.7935   23.6039   39.0881 H   0  0  0  0  0  0  0  0  0  0  0  0
   37.2544   23.7565   39.1324 H   0  0  0  0  0  0  0  0  0  0  0  0
   37.1496   22.1082   35.1993 H   0  0  0  0  0  0  0  0  0  0  0  0
   42.1909   20.8016   38.5522 H   0  0  0  0  0  0  0  0  0  0  0  0
   43.8298   18.9316   37.7411 H   0  0  0  0  0  0  0  0  0  0  0  0
   43.8071   18.4770   35.2817 H   0  0  0  0  0  0  0  0  0  0  0  0
   42.4946   19.9973   33.9615 H   0  0  0  0  0  0  0  0  0  0  0  0
   44.1075   20.8080   34.4202 H   0  0  0  0  0  0  0  0  0  0  0  0
   43.1817   22.3754   35.5287 H   0  0  0  0  0  0  0  0  0  0  0  0
   41.7126   21.9261   34.5233 H   0  0  0  0  0  0  0  0  0  0  0  0
  1  2  1  0
  2  3  2  0
  3  4  1  0
  5  4  2  0
  6  5  1  0
  7  6  2  0
  7  2  1  0
  8  1  1  0
  8  9  1  0
 10  9  2  0
 11 10  1  0
 12 13  1  0
 12 11  1  0
 13  8  1  0
  1 14  1  0
  1 15  1  0
  3 16  1  0
  4 17  1  0
  6 18  1  0
  9 19  1  0
 10 20  1  0
 11 21  1  0
 12 22  1  0
 12 23  1  0
 13 24  1  0
 13 25  1  0
M  ISO  8  14   8  15   8  16  14  17  14  18  14  19  13  20  13  22  13
M  ISO  3  23  13  24  13  25  13
M  END
>  <minimizedAffinity>  (1) 
-3.33548498

>  <minimizedRMSD>  (1) 
2.17279291

$$$$
