
     RDKit          3D

 19 20  0  0  0  0  0  0  0  0999 V2000
   41.9180   24.4520   35.1530 C   0  0  0  0  0  0  0  0  0  0  0  0
   42.9810   25.3560   35.2420 C   0  0  0  0  0  0  0  0  0  0  0  0
   44.0750   25.0060   36.0670 C   0  0  0  0  0  0  0  0  0  0  0  0
   44.0150   23.8060   36.7210 N   0  0  0  0  0  0  0  0  0  0  0  0
   42.9610   22.9810   36.5910 C   0  0  0  0  0  0  0  0  0  0  0  0
   41.9130   23.2880   35.8170 N   0  0  0  0  0  0  0  0  0  0  0  0
   40.7510   24.7780   34.3000 C   0  0  0  0  0  0  0  0  0  0  0  0
   39.7790   25.5560   35.0470 N   0  0  0  0  0  0  0  0  0  0  0  0
   38.7870   25.0210   35.8030 C   0  0  0  0  0  0  0  0  0  0  0  0
   38.1140   26.0600   36.3210 N   0  0  0  0  0  0  0  0  0  0  0  0
   38.6470   27.2160   35.9170 C   0  0  0  0  0  0  0  0  0  0  0  0
   39.6830   26.8710   35.1230 N   0  0  0  0  0  0  0  0  0  0  0  0
   42.9668   26.3069   34.6892 H   0  0  0  0  0  0  0  0  0  0  0  0
   44.9419   25.6738   36.1787 H   0  0  0  0  0  0  0  0  0  0  0  0
   42.9601   22.0259   37.1367 H   0  0  0  0  0  0  0  0  0  0  0  0
   40.2812   23.8446   33.9566 H   0  0  0  0  0  0  0  0  0  0  0  0
   41.0936   25.3686   33.4376 H   0  0  0  0  0  0  0  0  0  0  0  0
   38.5772   23.9526   35.9594 H   0  0  0  0  0  0  0  0  0  0  0  0
   38.3134   28.2317   36.1758 H   0  0  0  0  0  0  0  0  0  0  0  0
  1  2  2  0
  1  6  1  0
  2  3  1  0
  3  4  2  0
  5  4  1  0
  6  5  2  0
  7  8  1  0
  7  1  1  0
  8 12  1  0
  8  9  1  0
  9 10  2  0
 11 10  1  0
 12 11  2  0
  2 13  1  0
  3 14  1  0
  5 15  1  0
  7 16  1  0
  7 17  1  0
  9 18  1  0
 11 19  1  0
M  ISO  7  13  14  14  14  15  14  16   8  17   8  18  14  19  14
M  END
>  <minimizedAffinity>  (1) 
-2.9421885

>  <minimizedRMSD>  (1) 
6.27931595

$$$$
