
     RDKit          3D

 34 37  0  0  0  0  0  0  0  0999 V2000
   42.0050   23.2540   36.3600 C   0  0  0  0  0  0  0  0  0  0  0  0
   43.3350   23.4990   36.5990 C   0  0  0  0  0  0  0  0  0  0  0  0
   43.9820   24.5650   35.9670 C   0  0  0  0  0  0  0  0  0  0  0  0
   43.2900   25.3470   35.1240 N   0  0  0  0  0  0  0  0  0  0  0  0
   41.9790   25.1070   34.8870 C   0  0  0  0  0  0  0  0  0  0  0  0
   41.3810   24.0800   35.5030 N   0  0  0  0  0  0  0  0  0  0  0  0
   41.3350   25.9920   33.9770 N   0  0  0  0  0  0  0  0  0  0  0  0
   41.8780   27.0100   33.2790 C   0  0  0  0  0  0  0  0  0  0  0  0
   40.9140   27.6040   32.5260 N   0  0  0  0  0  0  0  0  0  0  0  0
   39.7750   26.9340   32.7740 C   0  0  0  0  0  0  0  0  0  0  0  0
   38.4760   27.0480   32.3290 C   0  0  0  0  0  0  0  0  0  0  0  0
   37.4960   26.2200   32.7530 N   0  0  0  0  0  0  0  0  0  0  0  0
   37.7600   25.2290   33.6480 C   0  0  0  0  0  0  0  0  0  0  0  0
   39.0270   25.1190   34.0810 N   0  0  0  0  0  0  0  0  0  0  0  0
   40.0130   25.9280   33.6740 C   0  0  0  0  0  0  0  0  0  0  0  0
   41.2910   22.1260   37.0170 C   0  0  0  0  0  0  0  0  0  0  0  0
   39.8610   22.4630   37.0840 C   0  0  0  0  0  0  0  0  0  0  0  0
   39.3710   23.1530   38.1880 C   0  0  0  0  0  0  0  0  0  0  0  0
   38.0050   23.4610   38.2260 C   0  0  0  0  0  0  0  0  0  0  0  0
   37.2310   23.0700   37.1840 N   0  0  0  0  0  0  0  0  0  0  0  0
   37.7590   22.4030   36.1380 C   0  0  0  0  0  0  0  0  0  0  0  0
   39.0550   22.0980   36.0810 N   0  0  0  0  0  0  0  0  0  0  0  0
   38.1090   28.0550   31.3940 N   0  0  0  0  0  0  0  0  0  0  0  0
   43.8943   22.8529   37.2916 H   0  0  0  0  0  0  0  0  0  0  0  0
   45.0473   24.7608   36.1587 H   0  0  0  0  0  0  0  0  0  0  0  0
   42.9350   27.3125   33.3133 H   0  0  0  0  0  0  0  0  0  0  0  0
   36.9711   24.5485   34.0010 H   0  0  0  0  0  0  0  0  0  0  0  0
   41.4295   21.2058   36.4305 H   0  0  0  0  0  0  0  0  0  0  0  0
   41.6902   21.9619   38.0288 H   0  0  0  0  0  0  0  0  0  0  0  0
   40.0391   23.4492   39.0101 H   0  0  0  0  0  0  0  0  0  0  0  0
   37.5721   24.0054   39.0782 H   0  0  0  0  0  0  0  0  0  0  0  0
   37.1018   22.1023   35.3087 H   0  0  0  0  0  0  0  0  0  0  0  0
   38.8187   28.7118   31.0394 H   0  0  0  0  0  0  0  0  0  0  0  0
   37.1335   28.1274   31.0715 H   0  0  0  0  0  0  0  0  0  0  0  0
  1  2  2  0
  1 16  1  0
  3  2  1  0
  4  3  2  0
  5  4  1  0
  5  6  2  0
  6  1  1  0
  7  5  1  0
  8  7  1  0
  9 10  1  0
  9  8  2  0
 10 15  2  0
 11 12  2  0
 11 10  1  0
 12 13  1  0
 13 14  2  0
 15  7  1  0
 15 14  1  0
 16 17  1  0
 17 18  2  0
 18 19  1  0
 20 19  2  0
 21 20  1  0
 22 21  2  0
 22 17  1  0
 23 11  1  0
  2 24  1  0
  3 25  1  0
  8 26  1  0
 13 27  1  0
 16 28  1  0
 16 29  1  0
 18 30  1  0
 19 31  1  0
 21 32  1  0
 23 33  1  0
 23 34  1  0
M  ISO  8  24  14  25  14  26  14  27  14  28   8  29   8  30  14  31  14
M  ISO  1  32  14
M  END
>  <minimizedAffinity>  (1) 
-5.45342016

>  <minimizedRMSD>  (1) 
0.522585452

$$$$
