
     RDKit          3D

 28 29  0  0  0  0  0  0  0  0999 V2000
   42.1650   23.1470   36.0140 C   0  0  0  0  0  0  0  0  0  0  0  0
   43.4080   23.0870   36.6040 C   0  0  0  0  0  0  0  0  0  0  0  0
   44.2710   24.1730   36.5210 C   0  0  0  0  0  0  0  0  0  0  0  0
   43.8820   25.2690   35.8650 N   0  0  0  0  0  0  0  0  0  0  0  0
   42.6580   25.3420   35.2770 C   0  0  0  0  0  0  0  0  0  0  0  0
   41.8590   24.2820   35.3800 N   0  0  0  0  0  0  0  0  0  0  0  0
   42.3250   26.5460   34.5950 N   0  0  0  0  0  0  0  0  0  0  0  0
   40.9720   26.8010   34.2530 C   0  0  0  0  0  0  0  0  0  0  0  0
   40.0190   26.5140   35.0690 N   0  0  0  0  0  0  0  0  0  0  0  0
   40.6470   27.3910   32.9850 N   0  0  0  0  0  0  0  0  0  0  0  0
   40.1870   26.0890   36.0020 H   0  0  0  0  0  0  0  0  0  0  0  0
   41.2100   22.0000   36.0800 C   0  0  0  0  0  0  0  0  0  0  0  0
   39.9520   22.4760   36.6610 C   0  0  0  0  0  0  0  0  0  0  0  0
   39.9220   22.9060   37.9920 C   0  0  0  0  0  0  0  0  0  0  0  0
   38.7170   23.3560   38.5290 C   0  0  0  0  0  0  0  0  0  0  0  0
   37.6210   23.3490   37.7100 N   0  0  0  0  0  0  0  0  0  0  0  0
   37.7100   22.9200   36.4250 C   0  0  0  0  0  0  0  0  0  0  0  0
   38.8640   22.4840   35.8930 N   0  0  0  0  0  0  0  0  0  0  0  0
   43.7179   22.1786   37.1414 H   0  0  0  0  0  0  0  0  0  0  0  0
   45.2646   24.1302   36.9910 H   0  0  0  0  0  0  0  0  0  0  0  0
   43.0596   27.2259   34.3520 H   0  0  0  0  0  0  0  0  0  0  0  0
   39.6638   27.5750   32.7395 H   0  0  0  0  0  0  0  0  0  0  0  0
   41.3971   27.6303   32.3209 H   0  0  0  0  0  0  0  0  0  0  0  0
   41.0273   21.6104   35.0676 H   0  0  0  0  0  0  0  0  0  0  0  0
   41.6306   21.1943   36.6997 H   0  0  0  0  0  0  0  0  0  0  0  0
   40.8351   22.8892   38.6051 H   0  0  0  0  0  0  0  0  0  0  0  0
   38.6498   23.7032   39.5706 H   0  0  0  0  0  0  0  0  0  0  0  0
   36.8063   22.9297   35.7980 H   0  0  0  0  0  0  0  0  0  0  0  0
  1 12  1  0
  1  2  2  0
  3  2  1  0
  4  3  2  0
  5  6  2  0
  5  4  1  0
  6  1  1  0
  7  5  1  0
  8  7  1  0
  8  9  2  0
  9 11  1  0
 10  8  1  0
 12 13  1  0
 13 14  2  0
 14 15  1  0
 16 15  2  0
 17 16  1  0
 18 17  2  0
 18 13  1  0
  2 19  1  0
  3 20  1  0
  7 21  1  0
 10 22  1  0
 10 23  1  0
 12 24  1  0
 12 25  1  0
 14 26  1  0
 15 27  1  0
 17 28  1  0
M  ISO  7  19  14  20  14  24   8  25   8  26  14  27  14  28  14
M  END
>  <minimizedAffinity>  (1) 
-4.77031994

>  <minimizedRMSD>  (1) 
0.710438848

$$$$
