
     RDKit          3D

 27 29  0  0  0  0  0  0  0  0999 V2000
   42.1810   23.0210   36.2110 C   0  0  0  0  0  0  0  0  0  0  0  0
   43.4640   23.0700   36.7250 C   0  0  0  0  0  0  0  0  0  0  0  0
   44.2560   24.1970   36.4430 C   0  0  0  0  0  0  0  0  0  0  0  0
   43.7670   25.1900   35.6950 N   0  0  0  0  0  0  0  0  0  0  0  0
   42.5190   25.1390   35.1960 C   0  0  0  0  0  0  0  0  0  0  0  0
   41.7620   24.0650   35.4640 N   0  0  0  0  0  0  0  0  0  0  0  0
   41.8450   26.0950   34.3900 N   0  0  0  0  0  0  0  0  0  0  0  0
   42.2960   27.1090   33.5950 C   0  0  0  0  0  0  0  0  0  0  0  0
   41.2350   27.7300   33.0400 N   0  0  0  0  0  0  0  0  0  0  0  0
   40.1590   27.0710   33.5150 C   0  0  0  0  0  0  0  0  0  0  0  0
   40.5040   26.0520   34.3550 N   0  0  0  0  0  0  0  0  0  0  0  0
   41.2930   21.8410   36.4810 C   0  0  0  0  0  0  0  0  0  0  0  0
   39.9510   22.3530   36.8110 C   0  0  0  0  0  0  0  0  0  0  0  0
   39.7450   22.9710   38.0560 C   0  0  0  0  0  0  0  0  0  0  0  0
   38.4530   23.4530   38.3470 C   0  0  0  0  0  0  0  0  0  0  0  0
   37.4810   23.2950   37.4170 N   0  0  0  0  0  0  0  0  0  0  0  0
   37.7520   22.6820   36.2260 C   0  0  0  0  0  0  0  0  0  0  0  0
   38.9620   22.2150   35.9150 N   0  0  0  0  0  0  0  0  0  0  0  0
   43.8557   22.2465   37.3401 H   0  0  0  0  0  0  0  0  0  0  0  0
   45.2802   24.2612   36.8390 H   0  0  0  0  0  0  0  0  0  0  0  0
   43.3509   27.3757   33.4336 H   0  0  0  0  0  0  0  0  0  0  0  0
   39.1209   27.3256   33.2551 H   0  0  0  0  0  0  0  0  0  0  0  0
   41.2400   21.2006   35.5882 H   0  0  0  0  0  0  0  0  0  0  0  0
   41.6915   21.2430   37.3138 H   0  0  0  0  0  0  0  0  0  0  0  0
   40.5661   23.0753   38.7805 H   0  0  0  0  0  0  0  0  0  0  0  0
   38.2390   23.9459   39.3068 H   0  0  0  0  0  0  0  0  0  0  0  0
   36.9389   22.5691   35.4938 H   0  0  0  0  0  0  0  0  0  0  0  0
  1 12  1  0
  1  2  2  0
  3  2  1  0
  4  3  2  0
  5  6  2  0
  5  4  1  0
  6  1  1  0
  7  5  1  0
  8  7  1  0
  9 10  1  0
  9  8  2  0
 10 11  2  0
 11  7  1  0
 12 13  1  0
 13 14  2  0
 14 15  1  0
 16 15  2  0
 17 16  1  0
 18 17  2  0
 18 13  1  0
  2 19  1  0
  3 20  1  0
  8 21  1  0
 10 22  1  0
 12 23  1  0
 12 24  1  0
 14 25  1  0
 15 26  1  0
 17 27  1  0
M  ISO  8  19  14  20  14  21  14  22  14  23   8  24   8  25  14  26  14
M  ISO  1  27  14
M  END
>  <minimizedAffinity>  (1) 
-4.59946489

>  <minimizedRMSD>  (1) 
0.481179833

$$$$
