
     RDKit          3D

 34 36  0  0  0  0  0  0  0  0999 V2000
   42.0390   23.2440   36.1810 C   0  0  0  0  0  0  0  0  0  0  0  0
   43.3700   23.3940   36.5250 C   0  0  0  0  0  0  0  0  0  0  0  0
   44.0640   24.5530   36.1330 C   0  0  0  0  0  0  0  0  0  0  0  0
   43.4120   25.5050   35.4230 N   0  0  0  0  0  0  0  0  0  0  0  0
   42.1130   25.3390   35.0960 C   0  0  0  0  0  0  0  0  0  0  0  0
   41.4660   24.2240   35.4790 N   0  0  0  0  0  0  0  0  0  0  0  0
   41.5230   26.4470   34.3220 C   0  0  0  0  0  0  0  0  0  0  0  0
   40.1230   26.7330   34.8520 C   0  0  0  0  0  0  0  0  0  0  0  0
   39.3130   27.1410   33.6480 C   0  0  0  0  0  0  0  0  0  0  0  0
   39.8340   26.2120   32.5820 C   0  0  0  0  0  0  0  0  0  0  0  0
   41.3220   26.1170   32.8770 C   0  0  0  0  0  0  0  0  0  0  0  0
   41.2980   22.0250   36.5900 C   0  0  0  0  0  0  0  0  0  0  0  0
   39.8900   22.4050   36.8270 C   0  0  0  0  0  0  0  0  0  0  0  0
   39.5500   23.0460   38.0100 C   0  0  0  0  0  0  0  0  0  0  0  0
   38.2150   23.3980   38.2190 C   0  0  0  0  0  0  0  0  0  0  0  0
   37.3200   23.0960   37.2550 N   0  0  0  0  0  0  0  0  0  0  0  0
   37.7030   22.4640   36.1100 C   0  0  0  0  0  0  0  0  0  0  0  0
   38.9780   22.1170   35.8890 N   0  0  0  0  0  0  0  0  0  0  0  0
   43.8834   22.6109   37.1023 H   0  0  0  0  0  0  0  0  0  0  0  0
   45.1230   24.6848   36.3996 H   0  0  0  0  0  0  0  0  0  0  0  0
   42.2239   27.2889   34.4223 H   0  0  0  0  0  0  0  0  0  0  0  0
   39.6957   25.8316   35.3155 H   0  0  0  0  0  0  0  0  0  0  0  0
   40.1307   27.5168   35.6237 H   0  0  0  0  0  0  0  0  0  0  0  0
   38.2376   26.9867   33.8202 H   0  0  0  0  0  0  0  0  0  0  0  0
   39.4110   28.2061   33.3910 H   0  0  0  0  0  0  0  0  0  0  0  0
   39.6595   26.6294   31.5794 H   0  0  0  0  0  0  0  0  0  0  0  0
   39.3355   25.2315   32.5925 H   0  0  0  0  0  0  0  0  0  0  0  0
   41.6797   25.0970   32.6727 H   0  0  0  0  0  0  0  0  0  0  0  0
   41.8854   26.8157   32.2411 H   0  0  0  0  0  0  0  0  0  0  0  0
   41.3517   21.2700   35.7918 H   0  0  0  0  0  0  0  0  0  0  0  0
   41.7379   21.5988   37.5037 H   0  0  0  0  0  0  0  0  0  0  0  0
   40.3157   23.2719   38.7667 H   0  0  0  0  0  0  0  0  0  0  0  0
   37.9018   23.9067   39.1426 H   0  0  0  0  0  0  0  0  0  0  0  0
   36.9452   22.2326   35.3470 H   0  0  0  0  0  0  0  0  0  0  0  0
  1  2  2  0
  1 12  1  0
  3  2  1  0
  4  3  2  0
  5  4  1  0
  5  6  2  0
  6  1  1  0
  7  8  1  0
  7  5  1  0
  9  8  1  0
 10 11  1  0
 10  9  1  0
 11  7  1  0
 12 13  1  0
 13 14  2  0
 14 15  1  0
 16 15  2  0
 17 16  1  0
 18 17  2  0
 18 13  1  0
  2 19  1  0
  3 20  1  0
  7 21  1  0
  8 22  1  0
  8 23  1  0
  9 24  1  0
  9 25  1  0
 10 26  1  0
 10 27  1  0
 11 28  1  0
 11 29  1  0
 12 30  1  0
 12 31  1  0
 14 32  1  0
 15 33  1  0
 17 34  1  0
M  ISO  8  19  14  20  14  21  13  22  13  23  13  24  13  25  13  26  13
M  ISO  8  27  13  28  13  29  13  30   8  31   8  32  14  33  14  34  14
M  END
>  <minimizedAffinity>  (1) 
-4.74846601

>  <minimizedRMSD>  (1) 
0.303394288

$$$$
