
     RDKit          3D

 28 30  0  0  0  0  0  0  0  0999 V2000
   42.1800   23.0020   36.2050 C   0  0  0  0  0  0  0  0  0  0  0  0
   43.4250   23.0720   36.7920 C   0  0  0  0  0  0  0  0  0  0  0  0
   44.2490   24.1710   36.5410 C   0  0  0  0  0  0  0  0  0  0  0  0
   43.8060   25.1440   35.7280 N   0  0  0  0  0  0  0  0  0  0  0  0
   42.5810   25.0750   35.1510 C   0  0  0  0  0  0  0  0  0  0  0  0
   41.8030   24.0190   35.3980 N   0  0  0  0  0  0  0  0  0  0  0  0
   42.1500   26.1580   34.2760 C   0  0  0  0  0  0  0  0  0  0  0  0
   40.8700   26.3700   33.8080 C   0  0  0  0  0  0  0  0  0  0  0  0
   40.8390   27.4920   33.0050 C   0  0  0  0  0  0  0  0  0  0  0  0
   42.1060   27.9470   32.9960 N   0  0  0  0  0  0  0  0  0  0  0  0
   42.8750   27.1490   33.7530 N   0  0  0  0  0  0  0  0  0  0  0  0
   41.2790   21.8290   36.4610 C   0  0  0  0  0  0  0  0  0  0  0  0
   39.9470   22.3440   36.7960 C   0  0  0  0  0  0  0  0  0  0  0  0
   39.7410   22.9660   38.0270 C   0  0  0  0  0  0  0  0  0  0  0  0
   38.4660   23.4550   38.3410 C   0  0  0  0  0  0  0  0  0  0  0  0
   37.4930   23.2940   37.4160 N   0  0  0  0  0  0  0  0  0  0  0  0
   37.7470   22.6840   36.2380 C   0  0  0  0  0  0  0  0  0  0  0  0
   38.9510   22.2120   35.9210 N   0  0  0  0  0  0  0  0  0  0  0  0
   43.7683   22.2649   37.4559 H   0  0  0  0  0  0  0  0  0  0  0  0
   45.2455   24.2388   37.0019 H   0  0  0  0  0  0  0  0  0  0  0  0
   40.0009   25.7372   34.0408 H   0  0  0  0  0  0  0  0  0  0  0  0
   39.9692   27.9208   32.4858 H   0  0  0  0  0  0  0  0  0  0  0  0
   42.4347   28.7796   32.4864 H   0  0  0  0  0  0  0  0  0  0  0  0
   41.2203   21.2001   35.5604 H   0  0  0  0  0  0  0  0  0  0  0  0
   41.6717   21.2194   37.2881 H   0  0  0  0  0  0  0  0  0  0  0  0
   40.5695   23.0715   38.7429 H   0  0  0  0  0  0  0  0  0  0  0  0
   38.2645   23.9504   39.3022 H   0  0  0  0  0  0  0  0  0  0  0  0
   36.9276   22.5729   35.5126 H   0  0  0  0  0  0  0  0  0  0  0  0
  1 12  1  0
  1  2  2  0
  3  2  1  0
  4  3  2  0
  5  6  2  0
  5  4  1  0
  6  1  1  0
  7  5  1  0
  8  7  1  0
  9  8  2  0
 10  9  1  0
 10 11  1  0
 11  7  2  0
 12 13  1  0
 13 14  2  0
 14 15  1  0
 16 15  2  0
 17 16  1  0
 18 17  2  0
 18 13  1  0
  2 19  1  0
  3 20  1  0
  8 21  1  0
  9 22  1  0
 10 23  1  0
 12 24  1  0
 12 25  1  0
 14 26  1  0
 15 27  1  0
 17 28  1  0
M  ISO  8  19  14  20  14  21  14  22  14  23   9  24   8  25   8  26  14
M  ISO  2  27  14  28  14
M  END
>  <minimizedAffinity>  (1) 
-4.50512648

>  <minimizedRMSD>  (1) 
0.51490581

$$$$
