
     RDKit          3D

 28 30  0  0  0  0  0  0  0  0999 V2000
   42.1240   23.1130   36.2390 C   0  0  0  0  0  0  0  0  0  0  0  0
   43.3490   23.3180   36.8650 C   0  0  0  0  0  0  0  0  0  0  0  0
   44.1200   24.4450   36.5640 C   0  0  0  0  0  0  0  0  0  0  0  0
   43.6600   25.3360   35.6530 N   0  0  0  0  0  0  0  0  0  0  0  0
   42.4710   25.1260   35.0520 C   0  0  0  0  0  0  0  0  0  0  0  0
   41.7380   24.0490   35.3420 N   0  0  0  0  0  0  0  0  0  0  0  0
   42.0090   26.1060   34.0760 C   0  0  0  0  0  0  0  0  0  0  0  0
   40.9530   25.9910   33.1950 C   0  0  0  0  0  0  0  0  0  0  0  0
   40.8500   27.1180   32.4580 N   0  0  0  0  0  0  0  0  0  0  0  0
   41.8480   27.9460   32.8810 C   0  0  0  0  0  0  0  0  0  0  0  0
   42.5340   27.3220   33.8540 N   0  0  0  0  0  0  0  0  0  0  0  0
   41.2950   21.9200   36.5480 C   0  0  0  0  0  0  0  0  0  0  0  0
   39.9300   22.3940   36.8550 C   0  0  0  0  0  0  0  0  0  0  0  0
   39.6760   23.0300   38.0730 C   0  0  0  0  0  0  0  0  0  0  0  0
   38.3670   23.4660   38.3280 C   0  0  0  0  0  0  0  0  0  0  0  0
   37.4160   23.2500   37.3830 N   0  0  0  0  0  0  0  0  0  0  0  0
   37.7280   22.6270   36.2240 C   0  0  0  0  0  0  0  0  0  0  0  0
   38.9600   22.2070   35.9600 N   0  0  0  0  0  0  0  0  0  0  0  0
   43.7140   22.5880   37.6025 H   0  0  0  0  0  0  0  0  0  0  0  0
   45.0881   24.6062   37.0608 H   0  0  0  0  0  0  0  0  0  0  0  0
   40.2948   25.1141   33.1065 H   0  0  0  0  0  0  0  0  0  0  0  0
   42.0561   28.9536   32.4918 H   0  0  0  0  0  0  0  0  0  0  0  0
   43.3423   27.7177   34.3550 H   0  0  0  0  0  0  0  0  0  0  0  0
   41.2715   21.2443   35.6803 H   0  0  0  0  0  0  0  0  0  0  0  0
   41.7143   21.3681   37.4022 H   0  0  0  0  0  0  0  0  0  0  0  0
   40.4782   23.1842   38.8097 H   0  0  0  0  0  0  0  0  0  0  0  0
   38.1167   23.9715   39.2723 H   0  0  0  0  0  0  0  0  0  0  0  0
   36.9373   22.4631   35.4771 H   0  0  0  0  0  0  0  0  0  0  0  0
  1 12  1  0
  1  2  2  0
  3  2  1  0
  4  3  2  0
  5  6  2  0
  5  4  1  0
  6  1  1  0
  7  5  1  0
  8  7  2  0
  9 10  2  0
  9  8  1  0
 10 11  1  0
 11  7  1  0
 12 13  1  0
 13 14  2  0
 14 15  1  0
 16 15  2  0
 17 16  1  0
 18 17  2  0
 18 13  1  0
  2 19  1  0
  3 20  1  0
  8 21  1  0
 10 22  1  0
 11 23  1  0
 12 24  1  0
 12 25  1  0
 14 26  1  0
 15 27  1  0
 17 28  1  0
M  ISO  8  19  14  20  14  21  14  22  14  23   9  24   8  25   8  26  14
M  ISO  2  27  14  28  14
M  END
>  <minimizedAffinity>  (1) 
-4.351161

>  <minimizedRMSD>  (1) 
0.332155496

$$$$
