
     RDKit          3D

 30 31  0  0  0  0  0  0  0  0999 V2000
   41.2820   22.0680   36.6750 C   0  0  0  0  0  0  0  0  0  0  0  0
   39.8640   22.4340   36.8780 C   0  0  0  0  0  0  0  0  0  0  0  0
   39.4680   23.0900   38.0300 C   0  0  0  0  0  0  0  0  0  0  0  0
   38.1260   23.4280   38.2060 C   0  0  0  0  0  0  0  0  0  0  0  0
   37.2610   23.0880   37.2150 N   0  0  0  0  0  0  0  0  0  0  0  0
   37.6980   22.4460   36.1020 C   0  0  0  0  0  0  0  0  0  0  0  0
   38.9740   22.1160   35.9200 N   0  0  0  0  0  0  0  0  0  0  0  0
   41.9950   23.2900   36.1880 C   0  0  0  0  0  0  0  0  0  0  0  0
   43.3160   23.5210   36.5200 C   0  0  0  0  0  0  0  0  0  0  0  0
   43.9770   24.6550   36.0670 C   0  0  0  0  0  0  0  0  0  0  0  0
   43.3010   25.5330   35.2930 N   0  0  0  0  0  0  0  0  0  0  0  0
   42.0070   25.3180   34.9620 C   0  0  0  0  0  0  0  0  0  0  0  0
   41.3900   24.2140   35.4120 N   0  0  0  0  0  0  0  0  0  0  0  0
   41.2180   26.2410   34.1200 C   0  0  0  0  0  0  0  0  0  0  0  0
   42.0070   27.3390   33.4920 C   0  0  0  0  0  0  0  0  0  0  0  0
   40.0270   26.7600   34.9230 C   0  0  0  0  0  0  0  0  0  0  0  0
   41.7223   21.7292   37.6244 H   0  0  0  0  0  0  0  0  0  0  0  0
   41.3710   21.2500   35.9450 H   0  0  0  0  0  0  0  0  0  0  0  0
   40.2078   23.3438   38.8035 H   0  0  0  0  0  0  0  0  0  0  0  0
   37.7817   23.9492   39.1114 H   0  0  0  0  0  0  0  0  0  0  0  0
   36.9687   22.1884   35.3198 H   0  0  0  0  0  0  0  0  0  0  0  0
   43.8514   22.7969   37.1517 H   0  0  0  0  0  0  0  0  0  0  0  0
   45.0292   24.8351   36.3326 H   0  0  0  0  0  0  0  0  0  0  0  0
   40.8554   25.6631   33.2572 H   0  0  0  0  0  0  0  0  0  0  0  0
   42.4560   27.9638   34.2781 H   0  0  0  0  0  0  0  0  0  0  0  0
   42.8030   26.9076   32.8672 H   0  0  0  0  0  0  0  0  0  0  0  0
   41.3442   27.9558   32.8672 H   0  0  0  0  0  0  0  0  0  0  0  0
   40.2409   26.6668   35.9980 H   0  0  0  0  0  0  0  0  0  0  0  0
   39.8499   27.8169   34.6747 H   0  0  0  0  0  0  0  0  0  0  0  0
   39.1323   26.1701   34.6747 H   0  0  0  0  0  0  0  0  0  0  0  0
  1  2  1  0
  2  3  2  0
  3  4  1  0
  5  4  2  0
  6  5  1  0
  7  6  2  0
  7  2  1  0
  8  9  2  0
  8  1  1  0
 10  9  1  0
 11 10  2  0
 12 11  1  0
 12 13  2  0
 13  8  1  0
 14 16  1  0
 14 12  1  0
 15 14  1  0
  1 17  1  0
  1 18  1  0
  3 19  1  0
  4 20  1  0
  6 21  1  0
  9 22  1  0
 10 23  1  0
 14 24  1  0
 15 25  1  0
 15 26  1  0
 15 27  1  0
 16 28  1  0
 16 29  1  0
 16 30  1  0
M  ISO  8  17   8  18   8  19  14  20  14  21  14  22  14  23  14  24   8
M  ISO  6  25   8  26   8  27   8  28   8  29   8  30   8
M  END
>  <minimizedAffinity>  (1) 
-4.53277302

>  <minimizedRMSD>  (1) 
0.425613642

$$$$
