
     RDKit          3D

 35 37  0  0  1  0  0  0  0  0999 V2000
   42.4580   23.5550   36.2630 N   0  0  0  0  0  0  0  0  0  0  0  0
   42.5450   24.1620   34.9580 C   0  0  0  0  0  0  0  0  0  0  0  0
   43.4090   25.3810   35.2400 C   0  0  0  0  0  0  0  0  0  0  0  0
   44.1650   25.0670   36.5180 C   0  0  0  0  0  0  0  0  0  0  0  0
   43.8080   23.6010   36.7050 C   0  0  2  0  0  0  0  0  0  0  0  0
   44.7560   22.7190   35.9830 C   0  0  0  0  0  0  0  0  0  0  0  0
   46.1310   22.9840   36.0240 C   0  0  0  0  0  0  0  0  0  0  0  0
   46.8370   22.0550   35.2950 C   0  0  0  0  0  0  0  0  0  0  0  0
   45.9000   21.2260   34.8090 N   0  0  0  0  0  0  0  0  0  0  0  0
   44.7170   21.6220   35.2150 N   0  0  0  0  0  0  0  0  0  0  0  0
   41.8730   22.2450   36.2430 C   0  0  0  0  0  0  0  0  0  0  0  0
   41.0960   21.9020   37.4690 C   0  0  0  0  0  0  0  0  0  0  0  0
   37.8530   23.2280   36.1220 C   0  0  0  0  0  0  0  0  0  0  0  0
   39.0890   22.5890   36.2560 C   0  0  0  0  0  0  0  0  0  0  0  0
   39.8000   22.5960   37.4250 C   0  0  0  0  0  0  0  0  0  0  0  0
   39.2350   23.2600   38.4540 N   0  0  0  0  0  0  0  0  0  0  0  0
   38.0510   23.8780   38.3420 C   0  0  0  0  0  0  0  0  0  0  0  0
   37.3640   23.8740   37.2180 N   0  0  0  0  0  0  0  0  0  0  0  0
   41.5521   24.4525   34.5842 H   0  0  0  0  0  0  0  0  0  0  0  0
   42.9526   23.4963   34.1829 H   0  0  0  0  0  0  0  0  0  0  0  0
   44.1121   25.5518   34.4115 H   0  0  0  0  0  0  0  0  0  0  0  0
   42.8014   26.2921   35.3432 H   0  0  0  0  0  0  0  0  0  0  0  0
   45.2488   25.2072   36.3925 H   0  0  0  0  0  0  0  0  0  0  0  0
   43.9067   25.7118   37.3709 H   0  0  0  0  0  0  0  0  0  0  0  0
   43.8926   23.2242   37.7350 H   0  0  0  0  0  0  0  0  0  0  0  0
   46.5865   23.8247   36.5678 H   0  0  0  0  0  0  0  0  0  0  0  0
   47.9254   22.0033   35.1443 H   0  0  0  0  0  0  0  0  0  0  0  0
   46.0813   20.4072   34.2110 H   0  0  0  0  0  0  0  0  0  0  0  0
   41.1967   22.1827   35.3777 H   0  0  0  0  0  0  0  0  0  0  0  0
   42.7058   21.5285   36.1866 H   0  0  0  0  0  0  0  0  0  0  0  0
   40.9311   20.8152   37.5089 H   0  0  0  0  0  0  0  0  0  0  0  0
   41.6551   22.2157   38.3629 H   0  0  0  0  0  0  0  0  0  0  0  0
   37.2985   23.2102   35.1722 H   0  0  0  0  0  0  0  0  0  0  0  0
   39.5067   22.0594   35.3870 H   0  0  0  0  0  0  0  0  0  0  0  0
   37.6401   24.4049   39.2158 H   0  0  0  0  0  0  0  0  0  0  0  0
  1  5  1  0
  2  3  1  0
  2  1  1  0
  3  4  1  0
  4  5  1  0
  6  7  1  0
  6  5  1  0
  8  7  2  0
  9 10  1  0
  9  8  1  0
 10  6  2  0
 11  1  1  0
 11 12  1  0
 13 14  2  0
 13 18  1  0
 14 15  1  0
 15 12  1  0
 15 16  2  0
 17 16  1  0
 18 17  2  0
  2 19  1  0
  2 20  1  0
  3 21  1  0
  3 22  1  0
  4 23  1  0
  4 24  1  0
  5 25  1  1
  7 26  1  0
  8 27  1  0
  9 28  1  0
 11 29  1  0
 11 30  1  0
 12 31  1  0
 12 32  1  0
 13 33  1  0
 14 34  1  0
 17 35  1  0
M  ISO  8  19  13  20  13  21  13  22  13  23  13  24  13  25  13  26  14
M  ISO  8  27  14  28   9  29   8  30   8  31   8  32   8  33  14  34  14
M  ISO  1  35  14
M  END
>  <minimizedAffinity>  (1) 
-3.94100595

>  <minimizedRMSD>  (1) 
0.431010038

$$$$
