
     RDKit          3D

 43 45  0  0  1  0  0  0  0  0999 V2000
   41.9970   23.1460   36.2050 C   0  0  0  0  0  0  0  0  0  0  0  0
   43.3840   23.2400   36.2690 C   0  0  0  0  0  0  0  0  0  0  0  0
   44.0570   24.3130   35.6890 C   0  0  0  0  0  0  0  0  0  0  0  0
   43.3270   25.2650   35.0580 N   0  0  0  0  0  0  0  0  0  0  0  0
   41.9700   25.1720   34.9960 C   0  0  0  0  0  0  0  0  0  0  0  0
   41.3290   24.1370   35.5570 N   0  0  0  0  0  0  0  0  0  0  0  0
   41.2770   21.9980   36.8380 C   0  0  0  0  0  0  0  0  0  0  0  0
   39.8630   22.3990   36.9840 C   0  0  0  0  0  0  0  0  0  0  0  0
   39.4100   23.0760   38.0890 C   0  0  0  0  0  0  0  0  0  0  0  0
   38.0700   23.4470   38.2000 C   0  0  0  0  0  0  0  0  0  0  0  0
   37.2580   23.1090   37.1780 N   0  0  0  0  0  0  0  0  0  0  0  0
   37.7260   22.4440   36.1030 C   0  0  0  0  0  0  0  0  0  0  0  0
   38.9970   22.1000   36.0120 N   0  0  0  0  0  0  0  0  0  0  0  0
   41.1330   26.2010   34.3340 C   0  0  2  0  0  0  0  0  0  0  0  0
   41.8730   27.3230   33.7250 C   0  0  0  0  0  0  0  0  0  0  0  0
   40.0800   26.7030   35.3520 C   0  0  0  0  0  0  0  0  0  0  0  0
   36.6600   27.8970   33.0480 C   0  0  0  0  0  0  0  0  0  0  0  0
   36.6570   28.0200   34.4120 C   0  0  0  0  0  0  0  0  0  0  0  0
   37.7460   27.6390   35.1420 C   0  0  0  0  0  0  0  0  0  0  0  0
   38.8870   27.1220   34.5770 C   0  0  0  0  0  0  0  0  0  0  0  0
   38.8580   27.0090   33.1930 C   0  0  0  0  0  0  0  0  0  0  0  0
   37.7680   27.3860   32.4030 C   0  0  0  0  0  0  0  0  0  0  0  0
   35.3610   28.3290   31.9450 S   0  0  0  0  0  0  0  0  0  0  0  0
   35.8560   29.2920   30.8900 O   0  0  0  0  0  0  0  0  0  0  0  0
   34.2240   28.9960   32.6640 O   0  0  0  0  0  0  0  0  0  0  0  0
   43.9572   22.4557   36.7850 H   0  0  0  0  0  0  0  0  0  0  0  0
   45.1533   24.3859   35.7418 H   0  0  0  0  0  0  0  0  0  0  0  0
   41.3521   21.1065   36.1980 H   0  0  0  0  0  0  0  0  0  0  0  0
   41.7168   21.7514   37.8156 H   0  0  0  0  0  0  0  0  0  0  0  0
   40.1124   23.3290   38.8968 H   0  0  0  0  0  0  0  0  0  0  0  0
   37.6935   23.9896   39.0797 H   0  0  0  0  0  0  0  0  0  0  0  0
   37.0362   22.1833   35.2868 H   0  0  0  0  0  0  0  0  0  0  0  0
   40.6521   25.7145   33.4726 H   0  0  0  0  0  0  0  0  0  0  0  0
   42.2925   27.9591   34.5183 H   0  0  0  0  0  0  0  0  0  0  0  0
   42.6888   26.9287   33.1013 H   0  0  0  0  0  0  0  0  0  0  0  0
   41.1893   27.9176   33.1013 H   0  0  0  0  0  0  0  0  0  0  0  0
   39.8126   25.8940   36.0478 H   0  0  0  0  0  0  0  0  0  0  0  0
   40.4765   27.5417   35.9430 H   0  0  0  0  0  0  0  0  0  0  0  0
   35.7721   28.4281   34.9223 H   0  0  0  0  0  0  0  0  0  0  0  0
   37.7082   27.7513   36.2356 H   0  0  0  0  0  0  0  0  0  0  0  0
   39.7452   26.5986   32.6886 H   0  0  0  0  0  0  0  0  0  0  0  0
   37.7925   27.2794   31.3085 H   0  0  0  0  0  0  0  0  0  0  0  0
   34.9289   27.1610   31.3741 H   0  0  0  0  0  0  0  0  0  0  0  0
  1  2  2  0
  1  7  1  0
  3  2  1  0
  4  3  2  0
  5  4  1  0
  5  6  2  0
  6  1  1  0
  7  8  1  0
  8  9  2  0
  9 10  1  0
 11 10  2  0
 12 11  1  0
 13 12  2  0
 13  8  1  0
 14  5  1  0
 14 16  1  0
 15 14  1  0
 17 18  2  0
 18 19  1  0
 20 19  2  0
 20 16  1  0
 21 20  1  0
 22 17  1  0
 22 21  2  0
 23 25  2  0
 23 17  1  0
 24 23  2  0
  2 26  1  0
  3 27  1  0
  7 28  1  0
  7 29  1  0
  9 30  1  0
 10 31  1  0
 12 32  1  0
 14 33  1  6
 15 34  1  0
 15 35  1  0
 15 36  1  0
 16 37  1  0
 16 38  1  0
 18 39  1  0
 19 40  1  0
 21 41  1  0
 22 42  1  0
 23 43  1  0
M  ISO  8  26  14  27  14  28   8  29   8  30  14  31  14  32  14  33   8
M  ISO  8  34   8  35   8  36   8  37   8  38   8  39  14  40  14  41  14
M  ISO  2  42  14  43  11
M  END
>  <minimizedAffinity>  (1) 
-5.92956591

>  <minimizedRMSD>  (1) 
1.29072917

$$$$
