
     RDKit          3D

 46 48  0  0  1  0  0  0  0  0999 V2000
   42.0380   23.1800   36.2470 C   0  0  0  0  0  0  0  0  0  0  0  0
   43.3930   23.3510   36.5220 C   0  0  0  0  0  0  0  0  0  0  0  0
   44.0870   24.4620   36.0590 C   0  0  0  0  0  0  0  0  0  0  0  0
   43.4100   25.3730   35.3330 N   0  0  0  0  0  0  0  0  0  0  0  0
   42.1020   25.2300   35.0540 C   0  0  0  0  0  0  0  0  0  0  0  0
   41.4520   24.1370   35.5190 N   0  0  0  0  0  0  0  0  0  0  0  0
   41.2980   21.9860   36.7600 C   0  0  0  0  0  0  0  0  0  0  0  0
   39.8880   22.3940   36.9310 C   0  0  0  0  0  0  0  0  0  0  0  0
   39.4610   23.0620   38.0530 C   0  0  0  0  0  0  0  0  0  0  0  0
   38.1240   23.4370   38.1850 C   0  0  0  0  0  0  0  0  0  0  0  0
   37.2830   23.1170   37.1670 N   0  0  0  0  0  0  0  0  0  0  0  0
   37.7470   22.4590   36.0820 C   0  0  0  0  0  0  0  0  0  0  0  0
   39.0140   22.1070   35.9640 N   0  0  0  0  0  0  0  0  0  0  0  0
   41.2940   26.2080   34.2590 C   0  0  2  0  0  0  0  0  0  0  0  0
   42.1150   27.2540   33.6140 C   0  0  0  0  0  0  0  0  0  0  0  0
   40.1510   26.6990   35.1170 C   0  0  0  0  0  0  0  0  0  0  0  0
   38.9330   27.1970   34.4610 C   0  0  0  0  0  0  0  0  0  0  0  0
   38.4050   26.0220   33.6160 C   0  0  0  0  0  0  0  0  0  0  0  0
   37.2810   26.4590   32.7250 C   0  0  0  0  0  0  0  0  0  0  0  0
   36.8330   27.8700   33.0680 C   0  0  0  0  0  0  0  0  0  0  0  0
   36.5350   27.8640   34.5510 C   0  0  0  0  0  0  0  0  0  0  0  0
   37.8280   27.7060   35.3490 C   0  0  0  0  0  0  0  0  0  0  0  0
   43.9231   22.5925   37.1166 H   0  0  0  0  0  0  0  0  0  0  0  0
   45.1568   24.5939   36.2785 H   0  0  0  0  0  0  0  0  0  0  0  0
   41.3674   21.1592   36.0378 H   0  0  0  0  0  0  0  0  0  0  0  0
   41.7249   21.6381   37.7122 H   0  0  0  0  0  0  0  0  0  0  0  0
   40.1777   23.3026   38.8520 H   0  0  0  0  0  0  0  0  0  0  0  0
   37.7649   23.9704   39.0775 H   0  0  0  0  0  0  0  0  0  0  0  0
   37.0470   22.2086   35.2713 H   0  0  0  0  0  0  0  0  0  0  0  0
   40.8477   25.7083   33.3866 H   0  0  0  0  0  0  0  0  0  0  0  0
   42.5981   27.8696   34.3871 H   0  0  0  0  0  0  0  0  0  0  0  0
   42.8855   26.7810   32.9874 H   0  0  0  0  0  0  0  0  0  0  0  0
   41.4725   27.8900   32.9874 H   0  0  0  0  0  0  0  0  0  0  0  0
   39.8500   25.8617   35.7637 H   0  0  0  0  0  0  0  0  0  0  0  0
   40.5611   27.5858   35.6224 H   0  0  0  0  0  0  0  0  0  0  0  0
   39.2235   28.0913   33.8902 H   0  0  0  0  0  0  0  0  0  0  0  0
   39.2239   25.6298   32.9950 H   0  0  0  0  0  0  0  0  0  0  0  0
   38.0286   25.2441   34.2966 H   0  0  0  0  0  0  0  0  0  0  0  0
   36.4323   25.7709   32.8524 H   0  0  0  0  0  0  0  0  0  0  0  0
   37.6336   26.4462   31.6831 H   0  0  0  0  0  0  0  0  0  0  0  0
   37.6328   28.5905   32.8418 H   0  0  0  0  0  0  0  0  0  0  0  0
   35.9512   28.1666   32.4811 H   0  0  0  0  0  0  0  0  0  0  0  0
   36.0508   28.8120   34.8280 H   0  0  0  0  0  0  0  0  0  0  0  0
   35.8673   27.0201   34.7792 H   0  0  0  0  0  0  0  0  0  0  0  0
   37.6632   26.9912   36.1687 H   0  0  0  0  0  0  0  0  0  0  0  0
   38.1190   28.6859   35.7554 H   0  0  0  0  0  0  0  0  0  0  0  0
  1  2  2  0
  1  7  1  0
  3  2  1  0
  4  3  2  0
  5  4  1  0
  5  6  2  0
  6  1  1  0
  7  8  1  0
  8  9  2  0
  9 10  1  0
 11 10  2  0
 12 11  1  0
 13 12  2  0
 13  8  1  0
 14  5  1  0
 14 16  1  0
 15 14  1  0
 17 16  1  0
 17 22  1  0
 18 17  1  0
 19 20  1  0
 19 18  1  0
 20 21  1  0
 21 22  1  0
  2 23  1  0
  3 24  1  0
  7 25  1  0
  7 26  1  0
  9 27  1  0
 10 28  1  0
 12 29  1  0
 14 30  1  6
 15 31  1  0
 15 32  1  0
 15 33  1  0
 16 34  1  0
 16 35  1  0
 17 36  1  0
 18 37  1  0
 18 38  1  0
 19 39  1  0
 19 40  1  0
 20 41  1  0
 20 42  1  0
 21 43  1  0
 21 44  1  0
 22 45  1  0
 22 46  1  0
M  ISO  8  23  14  24  14  25   8  26   8  27  14  28  14  29  14  30   8
M  ISO  8  31   8  32   8  33   8  34   8  35   8  36  13  37  13  38  13
M  ISO  8  39  13  40  13  41  13  42  13  43  13  44  13  45  13  46  13
M  END
>  <minimizedAffinity>  (1) 
-5.73426723

>  <minimizedRMSD>  (1) 
0.586659193

$$$$
