
     RDKit          3D

 43 45  0  0  1  0  0  0  0  0999 V2000
   42.0460   23.1740   36.2690 C   0  0  0  0  0  0  0  0  0  0  0  0
   43.4010   23.3430   36.5210 C   0  0  0  0  0  0  0  0  0  0  0  0
   44.0880   24.4520   36.0220 C   0  0  0  0  0  0  0  0  0  0  0  0
   43.3910   25.3490   35.2880 N   0  0  0  0  0  0  0  0  0  0  0  0
   42.0690   25.1890   35.0380 C   0  0  0  0  0  0  0  0  0  0  0  0
   41.4230   24.1200   35.5240 N   0  0  0  0  0  0  0  0  0  0  0  0
   41.3090   21.9920   36.8150 C   0  0  0  0  0  0  0  0  0  0  0  0
   39.8890   22.4000   36.9750 C   0  0  0  0  0  0  0  0  0  0  0  0
   39.4420   23.0730   38.0840 C   0  0  0  0  0  0  0  0  0  0  0  0
   38.1010   23.4360   38.1860 C   0  0  0  0  0  0  0  0  0  0  0  0
   37.2840   23.0980   37.1620 N   0  0  0  0  0  0  0  0  0  0  0  0
   37.7560   22.4370   36.0890 C   0  0  0  0  0  0  0  0  0  0  0  0
   39.0280   22.0970   35.9990 N   0  0  0  0  0  0  0  0  0  0  0  0
   41.2770   26.1660   34.2530 C   0  0  2  0  0  0  0  0  0  0  0  0
   42.0710   27.2650   33.6760 C   0  0  0  0  0  0  0  0  0  0  0  0
   40.0630   26.5860   35.0690 C   0  0  0  0  0  0  0  0  0  0  0  0
   39.0370   27.3830   34.3440 C   0  0  0  0  0  0  0  0  0  0  0  0
   37.8990   27.5720   35.3440 C   0  0  0  0  0  0  0  0  0  0  0  0
   36.6740   27.8880   34.5280 C   0  0  0  0  0  0  0  0  0  0  0  0
   36.8910   27.1330   33.2500 C   0  0  0  0  0  0  0  0  0  0  0  0
   38.3270   26.6350   33.2570 C   0  0  0  0  0  0  0  0  0  0  0  0
   43.9397   22.5946   37.1207 H   0  0  0  0  0  0  0  0  0  0  0  0
   45.1611   24.5913   36.2196 H   0  0  0  0  0  0  0  0  0  0  0  0
   41.3822   21.1456   36.1162 H   0  0  0  0  0  0  0  0  0  0  0  0
   41.7363   21.6738   37.7773 H   0  0  0  0  0  0  0  0  0  0  0  0
   40.1430   23.3261   38.8930 H   0  0  0  0  0  0  0  0  0  0  0  0
   37.7210   23.9767   39.0653 H   0  0  0  0  0  0  0  0  0  0  0  0
   37.0684   22.1751   35.2713 H   0  0  0  0  0  0  0  0  0  0  0  0
   40.9047   25.6754   33.3416 H   0  0  0  0  0  0  0  0  0  0  0  0
   42.5064   27.8677   34.4867 H   0  0  0  0  0  0  0  0  0  0  0  0
   42.8777   26.8479   33.0553 H   0  0  0  0  0  0  0  0  0  0  0  0
   41.4216   27.8999   33.0553 H   0  0  0  0  0  0  0  0  0  0  0  0
   39.5773   25.6734   35.4448 H   0  0  0  0  0  0  0  0  0  0  0  0
   40.4494   27.2465   35.8592 H   0  0  0  0  0  0  0  0  0  0  0  0
   39.5511   28.2673   33.9394 H   0  0  0  0  0  0  0  0  0  0  0  0
   37.7438   26.6505   35.9243 H   0  0  0  0  0  0  0  0  0  0  0  0
   38.1230   28.3762   36.0603 H   0  0  0  0  0  0  0  0  0  0  0  0
   35.7632   27.5414   35.0381 H   0  0  0  0  0  0  0  0  0  0  0  0
   36.5372   28.9674   34.3665 H   0  0  0  0  0  0  0  0  0  0  0  0
   36.7270   27.7967   32.3883 H   0  0  0  0  0  0  0  0  0  0  0  0
   36.1874   26.2911   33.1710 H   0  0  0  0  0  0  0  0  0  0  0  0
   38.3525   25.5545   33.4614 H   0  0  0  0  0  0  0  0  0  0  0  0
   38.8084   26.8022   32.2822 H   0  0  0  0  0  0  0  0  0  0  0  0
  1  2  2  0
  1  7  1  0
  3  2  1  0
  4  3  2  0
  5  4  1  0
  5  6  2  0
  6  1  1  0
  7  8  1  0
  8  9  2  0
  9 10  1  0
 11 10  2  0
 12 11  1  0
 13 12  2  0
 13  8  1  0
 14  5  1  0
 14 16  1  0
 15 14  1  0
 17 16  1  0
 17 18  1  0
 19 18  1  0
 20 21  1  0
 20 19  1  0
 21 17  1  0
  2 22  1  0
  3 23  1  0
  7 24  1  0
  7 25  1  0
  9 26  1  0
 10 27  1  0
 12 28  1  0
 14 29  1  6
 15 30  1  0
 15 31  1  0
 15 32  1  0
 16 33  1  0
 16 34  1  0
 17 35  1  0
 18 36  1  0
 18 37  1  0
 19 38  1  0
 19 39  1  0
 20 40  1  0
 20 41  1  0
 21 42  1  0
 21 43  1  0
M  ISO  8  22  14  23  14  24   8  25   8  26  14  27  14  28  14  29   8
M  ISO  8  30   8  31   8  32   8  33   8  34   8  35  13  36  13  37  13
M  ISO  6  38  13  39  13  40  13  41  13  42  13  43  13
M  END
>  <minimizedAffinity>  (1) 
-5.49209452

>  <minimizedRMSD>  (1) 
0.411269128

$$$$
