
     RDKit          3D

 43 45  0  0  1  0  0  0  0  0999 V2000
   42.0270   23.2350   36.2170 C   0  0  0  0  0  0  0  0  0  0  0  0
   43.3460   23.4540   36.6050 C   0  0  0  0  0  0  0  0  0  0  0  0
   44.0340   24.5880   36.1750 C   0  0  0  0  0  0  0  0  0  0  0  0
   43.3930   25.4650   35.3750 N   0  0  0  0  0  0  0  0  0  0  0  0
   42.1020   25.2510   34.9940 C   0  0  0  0  0  0  0  0  0  0  0  0
   41.4740   24.1590   35.4230 N   0  0  0  0  0  0  0  0  0  0  0  0
   41.2960   22.0180   36.6980 C   0  0  0  0  0  0  0  0  0  0  0  0
   39.8880   22.4010   36.8750 C   0  0  0  0  0  0  0  0  0  0  0  0
   39.4770   23.0560   38.0110 C   0  0  0  0  0  0  0  0  0  0  0  0
   38.1610   23.4330   38.2070 C   0  0  0  0  0  0  0  0  0  0  0  0
   37.2860   23.1200   37.2080 N   0  0  0  0  0  0  0  0  0  0  0  0
   37.7110   22.4760   36.1000 C   0  0  0  0  0  0  0  0  0  0  0  0
   38.9730   22.1290   35.9420 N   0  0  0  0  0  0  0  0  0  0  0  0
   41.3490   26.1890   34.1220 C   0  0  2  0  0  0  0  0  0  0  0  0
   42.1470   27.3210   33.6000 C   0  0  0  0  0  0  0  0  0  0  0  0
   40.1210   26.6930   34.9080 C   0  0  0  0  0  0  0  0  0  0  0  0
   39.0790   26.8600   33.9360 N   0  0  0  0  0  0  0  0  0  0  0  0
   37.8120   27.2130   34.5710 C   0  0  0  0  0  0  0  0  0  0  0  0
   36.9960   27.7850   33.4360 C   0  0  0  0  0  0  0  0  0  0  0  0
   36.5750   26.5770   32.6250 C   0  0  0  0  0  0  0  0  0  0  0  0
   37.6540   25.6030   32.3460 C   0  0  0  0  0  0  0  0  0  0  0  0
   38.9130   25.6920   33.0980 C   0  0  0  0  0  0  0  0  0  0  0  0
   43.8502   22.7255   37.2570 H   0  0  0  0  0  0  0  0  0  0  0  0
   45.0759   24.7636   36.4811 H   0  0  0  0  0  0  0  0  0  0  0  0
   41.3769   21.2110   35.9549 H   0  0  0  0  0  0  0  0  0  0  0  0
   41.7239   21.6524   37.6431 H   0  0  0  0  0  0  0  0  0  0  0  0
   40.2187   23.2879   38.7895 H   0  0  0  0  0  0  0  0  0  0  0  0
   37.8373   23.9567   39.1186 H   0  0  0  0  0  0  0  0  0  0  0  0
   36.9857   22.2347   35.3089 H   0  0  0  0  0  0  0  0  0  0  0  0
   41.0467   25.6325   33.2226 H   0  0  0  0  0  0  0  0  0  0  0  0
   42.5554   27.9004   34.4411 H   0  0  0  0  0  0  0  0  0  0  0  0
   42.9734   26.9345   32.9855 H   0  0  0  0  0  0  0  0  0  0  0  0
   41.5052   27.9694   32.9855 H   0  0  0  0  0  0  0  0  0  0  0  0
   39.8225   25.9552   35.6672 H   0  0  0  0  0  0  0  0  0  0  0  0
   40.3361   27.6327   35.4378 H   0  0  0  0  0  0  0  0  0  0  0  0
   37.3243   26.3236   34.9966 H   0  0  0  0  0  0  0  0  0  0  0  0
   37.9336   27.9162   35.4081 H   0  0  0  0  0  0  0  0  0  0  0  0
   36.1158   28.3205   33.8213 H   0  0  0  0  0  0  0  0  0  0  0  0
   37.5639   28.5129   32.8380 H   0  0  0  0  0  0  0  0  0  0  0  0
   35.7794   26.0557   33.1775 H   0  0  0  0  0  0  0  0  0  0  0  0
   36.2485   26.9619   31.6476 H   0  0  0  0  0  0  0  0  0  0  0  0
   37.5149   24.8216   31.5844 H   0  0  0  0  0  0  0  0  0  0  0  0
   39.6870   24.9135   33.0279 H   0  0  0  0  0  0  0  0  0  0  0  0
  1  2  2  0
  1  7  1  0
  3  2  1  0
  4  3  2  0
  5  4  1  0
  5  6  2  0
  6  1  1  0
  7  8  1  0
  8  9  2  0
  9 10  1  0
 11 10  2  0
 12 11  1  0
 13 12  2  0
 13  8  1  0
 14 16  1  0
 14  5  1  0
 15 14  1  0
 17 18  1  0
 17 16  1  0
 19 18  1  0
 20 19  1  0
 21 20  1  0
 21 22  2  0
 22 17  1  0
  2 23  1  0
  3 24  1  0
  7 25  1  0
  7 26  1  0
  9 27  1  0
 10 28  1  0
 12 29  1  0
 14 30  1  6
 15 31  1  0
 15 32  1  0
 15 33  1  0
 16 34  1  0
 16 35  1  0
 18 36  1  0
 18 37  1  0
 19 38  1  0
 19 39  1  0
 20 40  1  0
 20 41  1  0
 21 42  1  0
 22 43  1  0
M  ISO  8  23  14  24  14  25   8  26   8  27  14  28  14  29  14  30   8
M  ISO  8  31   8  32   8  33   8  34   8  35   8  36  13  37  13  38  13
M  ISO  5  39  13  40  13  41  13  42  13  43  13
M  END
>  <minimizedAffinity>  (1) 
-5.117167

>  <minimizedRMSD>  (1) 
0.89552176

$$$$
