
     RDKit          3D

 34 36  0  0  1  0  0  0  0  0999 V2000
   42.4660   23.6950   36.0860 N   0  0  0  0  0  0  0  0  0  0  0  0
   42.7060   24.2170   34.7540 C   0  0  0  0  0  0  0  0  0  0  0  0
   43.4690   25.4870   35.0760 C   0  0  0  0  0  0  0  0  0  0  0  0
   44.1450   25.2080   36.4150 C   0  0  0  0  0  0  0  0  0  0  0  0
   43.7610   23.7900   36.6920 C   0  0  2  0  0  0  0  0  0  0  0  0
   44.7020   22.8120   36.2110 N   0  0  0  0  0  0  0  0  0  0  0  0
   45.9940   23.1850   36.1190 C   0  0  0  0  0  0  0  0  0  0  0  0
   46.7010   22.1430   35.6560 N   0  0  0  0  0  0  0  0  0  0  0  0
   45.8640   21.1180   35.4560 C   0  0  0  0  0  0  0  0  0  0  0  0
   44.6630   21.5560   35.8010 N   0  0  0  0  0  0  0  0  0  0  0  0
   41.9280   22.3580   36.0560 C   0  0  0  0  0  0  0  0  0  0  0  0
   41.2350   21.9560   37.3180 C   0  0  0  0  0  0  0  0  0  0  0  0
   37.8510   23.0650   36.1080 C   0  0  0  0  0  0  0  0  0  0  0  0
   39.1300   22.5070   36.1910 C   0  0  0  0  0  0  0  0  0  0  0  0
   39.8930   22.5760   37.3270 C   0  0  0  0  0  0  0  0  0  0  0  0
   39.3310   23.2240   38.3810 N   0  0  0  0  0  0  0  0  0  0  0  0
   38.1130   23.7590   38.3100 C   0  0  0  0  0  0  0  0  0  0  0  0
   37.3700   23.6970   37.2160 N   0  0  0  0  0  0  0  0  0  0  0  0
   41.7640   24.4335   34.2289 H   0  0  0  0  0  0  0  0  0  0  0  0
   43.2378   23.5252   34.0842 H   0  0  0  0  0  0  0  0  0  0  0  0
   44.2195   25.6954   34.2992 H   0  0  0  0  0  0  0  0  0  0  0  0
   42.8103   26.3669   35.1193 H   0  0  0  0  0  0  0  0  0  0  0  0
   45.2371   25.3146   36.3371 H   0  0  0  0  0  0  0  0  0  0  0  0
   43.8400   25.9046   37.2099 H   0  0  0  0  0  0  0  0  0  0  0  0
   43.7534   23.5583   37.7673 H   0  0  0  0  0  0  0  0  0  0  0  0
   46.3992   24.1741   36.3789 H   0  0  0  0  0  0  0  0  0  0  0  0
   46.1213   20.1162   35.0815 H   0  0  0  0  0  0  0  0  0  0  0  0
   41.2060   22.2936   35.2286 H   0  0  0  0  0  0  0  0  0  0  0  0
   42.7796   21.6737   35.9272 H   0  0  0  0  0  0  0  0  0  0  0  0
   41.1393   20.8609   37.3574 H   0  0  0  0  0  0  0  0  0  0  0  0
   41.8135   22.2906   38.1917 H   0  0  0  0  0  0  0  0  0  0  0  0
   37.2562   22.9968   35.1852 H   0  0  0  0  0  0  0  0  0  0  0  0
   39.5401   21.9922   35.3096 H   0  0  0  0  0  0  0  0  0  0  0  0
   37.7088   24.2723   39.1950 H   0  0  0  0  0  0  0  0  0  0  0  0
  1  5  1  0
  2  3  1  0
  2  1  1  0
  3  4  1  0
  4  5  1  0
  6  5  1  0
  7  6  1  0
  8  7  2  0
  9  8  1  0
  9 10  2  0
 10  6  1  0
 11  1  1  0
 11 12  1  0
 12 15  1  0
 13 14  2  0
 13 18  1  0
 14 15  1  0
 15 16  2  0
 17 16  1  0
 18 17  2  0
  2 19  1  0
  2 20  1  0
  3 21  1  0
  3 22  1  0
  4 23  1  0
  4 24  1  0
  5 25  1  1
  7 26  1  0
  9 27  1  0
 11 28  1  0
 11 29  1  0
 12 30  1  0
 12 31  1  0
 13 32  1  0
 14 33  1  0
 17 34  1  0
M  ISO  8  19  13  20  13  21  13  22  13  23  13  24  13  25  13  26  14
M  ISO  8  27  14  28   8  29   8  30   8  31   8  32  14  33  14  34  14
M  END
>  <minimizedAffinity>  (1) 
-3.93093204

>  <minimizedRMSD>  (1) 
0.812763929

$$$$
