
     RDKit          3D

 32 33  0  0  1  0  0  0  0  0999 V2000
   42.0010   23.3040   36.1750 C   0  0  0  0  0  0  0  0  0  0  0  0
   43.3410   23.5380   36.4680 C   0  0  0  0  0  0  0  0  0  0  0  0
   43.9900   24.6790   35.9930 C   0  0  0  0  0  0  0  0  0  0  0  0
   43.2790   25.5500   35.2410 N   0  0  0  0  0  0  0  0  0  0  0  0
   41.9700   25.3240   34.9530 C   0  0  0  0  0  0  0  0  0  0  0  0
   41.3640   24.2280   35.4160 N   0  0  0  0  0  0  0  0  0  0  0  0
   41.3080   22.0860   36.6880 C   0  0  0  0  0  0  0  0  0  0  0  0
   39.8840   22.4470   36.8890 C   0  0  0  0  0  0  0  0  0  0  0  0
   39.4670   23.0950   38.0250 C   0  0  0  0  0  0  0  0  0  0  0  0
   38.1160   23.4260   38.1860 C   0  0  0  0  0  0  0  0  0  0  0  0
   37.2690   23.0840   37.1910 N   0  0  0  0  0  0  0  0  0  0  0  0
   37.7170   22.4460   36.0890 C   0  0  0  0  0  0  0  0  0  0  0  0
   38.9930   22.1370   35.9450 N   0  0  0  0  0  0  0  0  0  0  0  0
   41.1670   26.2560   34.1490 C   0  0  2  0  0  0  0  0  0  0  0  0
   41.9170   27.3350   33.4630 C   0  0  0  0  0  0  0  0  0  0  0  0
   40.0070   26.7950   35.0100 C   0  0  0  0  0  0  0  0  0  0  0  0
   38.9560   25.8260   35.0200 N   0  0  0  0  0  0  0  0  0  0  0  0
   43.8965   22.8140   37.0823 H   0  0  0  0  0  0  0  0  0  0  0  0
   45.0494   24.8645   36.2237 H   0  0  0  0  0  0  0  0  0  0  0  0
   41.3905   21.2686   35.9565 H   0  0  0  0  0  0  0  0  0  0  0  0
   41.7621   21.7445   37.6299 H   0  0  0  0  0  0  0  0  0  0  0  0
   40.1940   23.3542   38.8087 H   0  0  0  0  0  0  0  0  0  0  0  0
   37.7583   23.9444   39.0878 H   0  0  0  0  0  0  0  0  0  0  0  0
   37.0048   22.1780   35.2947 H   0  0  0  0  0  0  0  0  0  0  0  0
   40.7724   25.6730   33.3038 H   0  0  0  0  0  0  0  0  0  0  0  0
   42.3764   27.9960   34.2127 H   0  0  0  0  0  0  0  0  0  0  0  0
   42.7030   26.8922   32.8336 H   0  0  0  0  0  0  0  0  0  0  0  0
   41.2281   27.9175   32.8336 H   0  0  0  0  0  0  0  0  0  0  0  0
   40.3588   26.9703   36.0374 H   0  0  0  0  0  0  0  0  0  0  0  0
   39.6388   27.7435   34.5920 H   0  0  0  0  0  0  0  0  0  0  0  0
   38.7086   25.5979   35.9935 H   0  0  0  0  0  0  0  0  0  0  0  0
   38.1310   26.2093   34.5369 H   0  0  0  0  0  0  0  0  0  0  0  0
  1  2  2  0
  1  7  1  0
  3  2  1  0
  4  3  2  0
  5  4  1  0
  5  6  2  0
  6  1  1  0
  7  8  1  0
  8  9  2  0
  9 10  1  0
 11 10  2  0
 12 11  1  0
 13 12  2  0
 13  8  1  0
 14  5  1  0
 14 16  1  0
 15 14  1  0
 16 17  1  0
  2 18  1  0
  3 19  1  0
  7 20  1  0
  7 21  1  0
  9 22  1  0
 10 23  1  0
 12 24  1  0
 14 25  1  6
 15 26  1  0
 15 27  1  0
 15 28  1  0
 16 29  1  0
 16 30  1  0
 17 31  1  0
 17 32  1  0
M  ISO  8  18  14  19  14  20   8  21   8  22  14  23  14  24  14  25   8
M  ISO  7  26   8  27   8  28   8  29   8  30   8  31   5  32   5
M  END
>  <minimizedAffinity>  (1) 
-4.37436104

>  <minimizedRMSD>  (1) 
0.114706092

$$$$
