
     RDKit          3D

 48 52  0  0  1  0  0  0  0  0999 V2000
   41.4560   26.1680   33.7580 C   0  0  2  0  0  0  0  0  0  0  0  0
   41.9610   23.2720   36.0120 C   0  0  0  0  0  0  0  0  0  0  0  0
   43.2110   23.5720   36.5690 C   0  0  0  0  0  0  0  0  0  0  0  0
   43.9060   24.7180   36.2130 C   0  0  0  0  0  0  0  0  0  0  0  0
   43.3410   25.5440   35.3080 N   0  0  0  0  0  0  0  0  0  0  0  0
   42.1330   25.2700   34.7600 C   0  0  0  0  0  0  0  0  0  0  0  0
   41.4640   24.1510   35.1130 N   0  0  0  0  0  0  0  0  0  0  0  0
   41.2100   22.0370   36.4070 C   0  0  0  0  0  0  0  0  0  0  0  0
   39.8940   22.4890   36.9060 C   0  0  0  0  0  0  0  0  0  0  0  0
   39.6990   23.0780   38.1200 C   0  0  0  0  0  0  0  0  0  0  0  0
   38.4390   23.4900   38.5390 C   0  0  0  0  0  0  0  0  0  0  0  0
   37.4150   23.2910   37.7070 N   0  0  0  0  0  0  0  0  0  0  0  0
   37.6290   22.7020   36.4970 C   0  0  0  0  0  0  0  0  0  0  0  0
   38.8300   22.3240   36.1340 N   0  0  0  0  0  0  0  0  0  0  0  0
   42.2120   27.3800   33.4490 C   0  0  0  0  0  0  0  0  0  0  0  0
   40.0180   26.3900   34.2210 C   0  0  0  0  0  0  0  0  0  0  0  0
   39.0490   26.1340   33.1350 C   0  0  2  0  0  0  0  0  0  0  0  0
   38.1290   27.2290   32.6840 C   0  0  0  0  0  0  0  0  0  0  0  0
   37.6060   25.9560   33.2720 C   0  0  1  0  0  0  0  0  0  0  0  0
   36.8320   25.0730   32.4540 N   0  0  0  0  0  0  0  0  0  0  0  0
   35.8790   25.5330   31.5940 C   0  0  0  0  0  0  0  0  0  0  0  0
   35.3270   24.4970   30.9730 N   0  0  0  0  0  0  0  0  0  0  0  0
   35.8890   23.3420   31.3980 C   0  0  0  0  0  0  0  0  0  0  0  0
   35.6900   22.0040   31.0830 C   0  0  0  0  0  0  0  0  0  0  0  0
   36.4650   21.1040   31.7330 N   0  0  0  0  0  0  0  0  0  0  0  0
   37.3730   21.5190   32.6350 C   0  0  0  0  0  0  0  0  0  0  0  0
   37.5580   22.8130   32.9320 N   0  0  0  0  0  0  0  0  0  0  0  0
   36.8290   23.7380   32.3270 C   0  0  0  0  0  0  0  0  0  0  0  0
   41.4235   25.6763   32.7745 H   0  0  0  0  0  0  0  0  0  0  0  0
   43.6510   22.8832   37.3051 H   0  0  0  0  0  0  0  0  0  0  0  0
   44.8872   24.9465   36.6546 H   0  0  0  0  0  0  0  0  0  0  0  0
   41.0803   21.3763   35.5371 H   0  0  0  0  0  0  0  0  0  0  0  0
   41.7539   21.4690   37.1761 H   0  0  0  0  0  0  0  0  0  0  0  0
   40.5613   23.2313   38.7855 H   0  0  0  0  0  0  0  0  0  0  0  0
   38.2916   23.9630   39.5211 H   0  0  0  0  0  0  0  0  0  0  0  0
   36.7811   22.5415   35.8149 H   0  0  0  0  0  0  0  0  0  0  0  0
   42.5177   27.8701   34.3851 H   0  0  0  0  0  0  0  0  0  0  0  0
   43.1057   27.1157   32.8647 H   0  0  0  0  0  0  0  0  0  0  0  0
   41.5816   28.0664   32.8647 H   0  0  0  0  0  0  0  0  0  0  0  0
   39.8037   25.7091   35.0579 H   0  0  0  0  0  0  0  0  0  0  0  0
   39.9158   27.4403   34.5316 H   0  0  0  0  0  0  0  0  0  0  0  0
   39.8279   25.4904   32.7002 H   0  0  0  0  0  0  0  0  0  0  0  0
   38.0658   28.1691   33.2516 H   0  0  0  0  0  0  0  0  0  0  0  0
   37.9697   27.7892   31.7508 H   0  0  0  0  0  0  0  0  0  0  0  0
   36.9670   25.6709   34.1208 H   0  0  0  0  0  0  0  0  0  0  0  0
   35.6114   26.5888   31.4399 H   0  0  0  0  0  0  0  0  0  0  0  0
   34.9397   21.6910   30.3420 H   0  0  0  0  0  0  0  0  0  0  0  0
   37.9883   20.7661   33.1494 H   0  0  0  0  0  0  0  0  0  0  0  0
  1 16  1  0
  1  6  1  0
  2  8  1  0
  2  3  2  0
  4  3  1  0
  5  4  2  0
  6  7  2  0
  6  5  1  0
  7  2  1  0
  8  9  1  0
  9 10  2  0
 10 11  1  0
 12 11  2  0
 13 12  1  0
 14 13  2  0
 14  9  1  0
 15  1  1  0
 17 19  1  0
 17 16  1  0
 18 17  1  0
 18 19  1  0
 20 19  1  0
 21 20  1  0
 22 23  1  0
 22 21  2  0
 23 28  2  0
 24 23  1  0
 24 25  2  0
 25 26  1  0
 26 27  2  0
 28 20  1  0
 28 27  1  0
  1 29  1  6
  3 30  1  0
  4 31  1  0
  8 32  1  0
  8 33  1  0
 10 34  1  0
 11 35  1  0
 13 36  1  0
 15 37  1  0
 15 38  1  0
 15 39  1  0
 16 40  1  0
 16 41  1  0
 17 42  1  6
 18 43  1  0
 18 44  1  0
 19 45  1  1
 21 46  1  0
 24 47  1  0
 26 48  1  0
M  ISO  8  29   8  30  14  31  14  32   8  33   8  34  14  35  14  36  14
M  ISO  8  37   8  38   8  39   8  40   8  41   8  42  13  43  13  44  13
M  ISO  4  45  13  46  14  47  14  48  14
M  END
>  <minimizedAffinity>  (1) 
-5.98192501

>  <minimizedRMSD>  (1) 
1.31378591

$$$$
