
     RDKit          3D

 51 55  0  0  1  0  0  0  0  0999 V2000
   41.4640   26.0410   34.1100 C   0  0  2  0  0  0  0  0  0  0  0  0
   42.0740   23.1370   36.3290 C   0  0  0  0  0  0  0  0  0  0  0  0
   43.3940   23.3660   36.7260 C   0  0  0  0  0  0  0  0  0  0  0  0
   44.1090   24.4690   36.2720 C   0  0  0  0  0  0  0  0  0  0  0  0
   43.4850   25.3190   35.4290 N   0  0  0  0  0  0  0  0  0  0  0  0
   42.2060   25.1120   35.0340 C   0  0  0  0  0  0  0  0  0  0  0  0
   41.5280   24.0380   35.4840 N   0  0  0  0  0  0  0  0  0  0  0  0
   41.3100   21.9530   36.8310 C   0  0  0  0  0  0  0  0  0  0  0  0
   39.9030   22.3990   36.9950 C   0  0  0  0  0  0  0  0  0  0  0  0
   39.4400   23.0720   38.0860 C   0  0  0  0  0  0  0  0  0  0  0  0
   38.1100   23.4680   38.1800 C   0  0  0  0  0  0  0  0  0  0  0  0
   37.3060   23.1600   37.1580 N   0  0  0  0  0  0  0  0  0  0  0  0
   37.7810   22.4920   36.0860 C   0  0  0  0  0  0  0  0  0  0  0  0
   39.0400   22.1330   36.0250 N   0  0  0  0  0  0  0  0  0  0  0  0
   42.2350   27.2200   33.7160 C   0  0  0  0  0  0  0  0  0  0  0  0
   40.0890   26.3080   34.7150 C   0  0  0  0  0  0  0  0  0  0  0  0
   39.2750   27.1770   33.8470 C   0  0  2  0  0  0  0  0  0  0  0  0
   37.7780   27.1610   33.9440 C   0  0  0  0  0  0  0  0  0  0  0  0
   38.4760   26.7720   32.6940 C   0  0  1  0  0  0  0  0  0  0  0  0
   38.5010   27.6590   31.5490 N   0  0  0  0  0  0  0  0  0  0  0  0
   39.3550   27.8860   30.5310 C   0  0  0  0  0  0  0  0  0  0  0  0
   38.8690   28.8490   29.7270 N   0  0  0  0  0  0  0  0  0  0  0  0
   37.6900   29.2300   30.2520 C   0  0  0  0  0  0  0  0  0  0  0  0
   36.8100   30.1930   29.7860 C   0  0  0  0  0  0  0  0  0  0  0  0
   36.9700   30.8960   28.7570 O   0  0  0  0  0  0  0  0  0  0  0  0
   35.6680   30.4280   30.4630 N   0  0  0  0  0  0  0  0  0  0  0  0
   35.4280   29.7080   31.5810 C   0  0  0  0  0  0  0  0  0  0  0  0
   34.2800   29.8020   32.4430 N   0  0  0  0  0  0  0  0  0  0  0  0
   36.2700   28.7680   32.0520 N   0  0  0  0  0  0  0  0  0  0  0  0
   37.4360   28.5000   31.3950 C   0  0  0  0  0  0  0  0  0  0  0  0
   41.3075   25.5608   33.1328 H   0  0  0  0  0  0  0  0  0  0  0  0
   43.8788   22.6574   37.4136 H   0  0  0  0  0  0  0  0  0  0  0  0
   45.1478   24.6430   36.5890 H   0  0  0  0  0  0  0  0  0  0  0  0
   41.3654   21.1289   36.1045 H   0  0  0  0  0  0  0  0  0  0  0  0
   41.7245   21.5853   37.7813 H   0  0  0  0  0  0  0  0  0  0  0  0
   40.1318   23.3066   38.9084 H   0  0  0  0  0  0  0  0  0  0  0  0
   37.7354   24.0123   39.0594 H   0  0  0  0  0  0  0  0  0  0  0  0
   37.1042   22.2462   35.2544 H   0  0  0  0  0  0  0  0  0  0  0  0
   42.5811   27.7493   34.6160 H   0  0  0  0  0  0  0  0  0  0  0  0
   43.1035   26.9071   33.1179 H   0  0  0  0  0  0  0  0  0  0  0  0
   41.6001   27.8902   33.1179 H   0  0  0  0  0  0  0  0  0  0  0  0
   39.5667   25.3496   34.8516 H   0  0  0  0  0  0  0  0  0  0  0  0
   40.2301   26.8188   35.6789 H   0  0  0  0  0  0  0  0  0  0  0  0
   40.0947   27.9019   33.9593 H   0  0  0  0  0  0  0  0  0  0  0  0
   37.2707   26.3998   34.5549 H   0  0  0  0  0  0  0  0  0  0  0  0
   37.0001   27.8897   34.2157 H   0  0  0  0  0  0  0  0  0  0  0  0
   38.4037   25.8858   32.0464 H   0  0  0  0  0  0  0  0  0  0  0  0
   40.3096   27.3607   30.3798 H   0  0  0  0  0  0  0  0  0  0  0  0
   34.9964   31.1375   30.1367 H   0  0  0  0  0  0  0  0  0  0  0  0
   34.2080   29.1960   33.2728 H   0  0  0  0  0  0  0  0  0  0  0  0
   33.5301   30.4753   32.2304 H   0  0  0  0  0  0  0  0  0  0  0  0
  1 16  1  0
  1  6  1  0
  2  3  2  0
  2  8  1  0
  4  3  1  0
  5  4  2  0
  6  5  1  0
  6  7  2  0
  7  2  1  0
  8  9  1  0
  9 10  2  0
 10 11  1  0
 12 11  2  0
 13 12  1  0
 14 13  2  0
 14  9  1  0
 15  1  1  0
 17 18  1  0
 17 16  1  0
 19 17  1  0
 19 18  1  0
 20 19  1  0
 21 20  1  0
 22 23  1  0
 22 21  2  0
 23 30  2  0
 24 23  1  0
 24 26  1  0
 25 24  2  0
 26 27  1  0
 27 29  2  0
 27 28  1  0
 30 20  1  0
 30 29  1  0
  1 31  1  6
  3 32  1  0
  4 33  1  0
  8 34  1  0
  8 35  1  0
 10 36  1  0
 11 37  1  0
 13 38  1  0
 15 39  1  0
 15 40  1  0
 15 41  1  0
 16 42  1  0
 16 43  1  0
 17 44  1  6
 18 45  1  0
 18 46  1  0
 19 47  1  6
 21 48  1  0
 26 49  1  0
 28 50  1  0
 28 51  1  0
M  ISO  8  31   8  32  14  33  14  34   8  35   8  36  14  37  14  38  14
M  ISO  8  39   8  40   8  41   8  42   8  43   8  44  13  45  13  46  13
M  ISO  3  47  13  48  14  49   9
M  END
>  <minimizedAffinity>  (1) 
-6.28481817

>  <minimizedRMSD>  (1) 
3.13521719

$$$$
