
     RDKit          3D

 44 47  0  0  1  0  0  0  0  0999 V2000
   41.1810   26.2920   34.1630 C   0  0  2  0  0  0  0  0  0  0  0  0
   41.9870   23.2740   36.1520 C   0  0  0  0  0  0  0  0  0  0  0  0
   43.3290   23.5100   36.4830 C   0  0  0  0  0  0  0  0  0  0  0  0
   43.9940   24.6620   36.0520 C   0  0  0  0  0  0  0  0  0  0  0  0
   43.2970   25.5430   35.3040 N   0  0  0  0  0  0  0  0  0  0  0  0
   42.0000   25.3260   34.9770 C   0  0  0  0  0  0  0  0  0  0  0  0
   41.3680   24.2070   35.4000 N   0  0  0  0  0  0  0  0  0  0  0  0
   41.2860   22.0460   36.6290 C   0  0  0  0  0  0  0  0  0  0  0  0
   39.8750   22.4440   36.8860 C   0  0  0  0  0  0  0  0  0  0  0  0
   39.4570   23.0910   38.0090 C   0  0  0  0  0  0  0  0  0  0  0  0
   38.1230   23.4380   38.1830 C   0  0  0  0  0  0  0  0  0  0  0  0
   37.2720   23.1120   37.2020 N   0  0  0  0  0  0  0  0  0  0  0  0
   37.7090   22.4720   36.1010 C   0  0  0  0  0  0  0  0  0  0  0  0
   38.9730   22.1540   35.9600 N   0  0  0  0  0  0  0  0  0  0  0  0
   41.9810   27.3180   33.4930 C   0  0  0  0  0  0  0  0  0  0  0  0
   40.0550   26.8220   35.0460 C   0  0  0  0  0  0  0  0  0  0  0  0
   38.8120   26.9940   34.2650 C   0  0  2  0  0  0  0  0  0  0  0  0
   37.5540   27.4250   34.9980 C   0  0  0  0  0  0  0  0  0  0  0  0
   37.6280   26.1110   34.2850 C   0  0  1  0  0  0  0  0  0  0  0  0
   36.8830   25.9950   32.9780 C   0  0  0  0  0  0  0  0  0  0  0  0
   36.5110   27.1800   32.3290 C   0  0  0  0  0  0  0  0  0  0  0  0
   35.8710   26.8790   31.1750 N   0  0  0  0  0  0  0  0  0  0  0  0
   35.8350   25.5440   31.0900 C   0  0  0  0  0  0  0  0  0  0  0  0
   36.4380   25.0230   32.1650 N   0  0  0  0  0  0  0  0  0  0  0  0
   40.7261   25.7674   33.3099 H   0  0  0  0  0  0  0  0  0  0  0  0
   43.8701   22.7732   37.0948 H   0  0  0  0  0  0  0  0  0  0  0  0
   45.0470   24.8436   36.3131 H   0  0  0  0  0  0  0  0  0  0  0  0
   41.3263   21.2611   35.8593 H   0  0  0  0  0  0  0  0  0  0  0  0
   41.7592   21.6423   37.5362 H   0  0  0  0  0  0  0  0  0  0  0  0
   40.1878   23.3431   38.7915 H   0  0  0  0  0  0  0  0  0  0  0  0
   37.7801   23.9590   39.0891 H   0  0  0  0  0  0  0  0  0  0  0  0
   36.9938   22.2117   35.3068 H   0  0  0  0  0  0  0  0  0  0  0  0
   42.4734   27.9495   34.2471 H   0  0  0  0  0  0  0  0  0  0  0  0
   42.7437   26.8356   32.8641 H   0  0  0  0  0  0  0  0  0  0  0  0
   41.3272   27.9401   32.8641 H   0  0  0  0  0  0  0  0  0  0  0  0
   39.8716   26.1090   35.8633 H   0  0  0  0  0  0  0  0  0  0  0  0
   40.3550   27.7998   35.4509 H   0  0  0  0  0  0  0  0  0  0  0  0
   39.4488   27.3413   33.4380 H   0  0  0  0  0  0  0  0  0  0  0  0
   37.5377   27.4582   36.0974 H   0  0  0  0  0  0  0  0  0  0  0  0
   36.8871   28.2993   34.9668 H   0  0  0  0  0  0  0  0  0  0  0  0
   37.4358   25.0703   34.5851 H   0  0  0  0  0  0  0  0  0  0  0  0
   36.7084   28.1966   32.6998 H   0  0  0  0  0  0  0  0  0  0  0  0
   35.3828   24.9680   30.2692 H   0  0  0  0  0  0  0  0  0  0  0  0
   36.5461   24.0145   32.3444 H   0  0  0  0  0  0  0  0  0  0  0  0
  1  6  1  0
  1 16  1  0
  2  3  2  0
  2  8  1  0
  4  3  1  0
  5  4  2  0
  6  5  1  0
  6  7  2  0
  7  2  1  0
  8  9  1  0
  9 10  2  0
 10 11  1  0
 12 11  2  0
 13 12  1  0
 14 13  2  0
 14  9  1  0
 15  1  1  0
 17 19  1  0
 17 18  1  0
 17 16  1  0
 19 18  1  0
 20 19  1  0
 21 20  2  0
 22 21  1  0
 23 22  2  0
 23 24  1  0
 24 20  1  0
  1 25  1  6
  3 26  1  0
  4 27  1  0
  8 28  1  0
  8 29  1  0
 10 30  1  0
 11 31  1  0
 13 32  1  0
 15 33  1  0
 15 34  1  0
 15 35  1  0
 16 36  1  0
 16 37  1  0
 17 38  1  6
 18 39  1  0
 18 40  1  0
 19 41  1  1
 21 42  1  0
 23 43  1  0
 24 44  1  0
M  ISO  8  25   8  26  14  27  14  28   8  29   8  30  14  31  14  32  14
M  ISO  8  33   8  34   8  35   8  36   8  37   8  38  13  39  13  40  13
M  ISO  4  41  13  42  14  43  14  44   9
M  END
>  <minimizedAffinity>  (1) 
-5.83095312

>  <minimizedRMSD>  (1) 
0.915148377

$$$$
