
     RDKit          3D

 50 53  0  0  1  0  0  0  0  0999 V2000
   41.1850   26.2540   34.3180 C   0  0  2  0  0  0  0  0  0  0  0  0
   42.0200   23.1820   36.2090 C   0  0  0  0  0  0  0  0  0  0  0  0
   43.4010   23.3370   36.4000 C   0  0  0  0  0  0  0  0  0  0  0  0
   44.0790   24.4510   35.9060 C   0  0  0  0  0  0  0  0  0  0  0  0
   43.3630   25.3780   35.2340 N   0  0  0  0  0  0  0  0  0  0  0  0
   42.0280   25.2390   35.0430 C   0  0  0  0  0  0  0  0  0  0  0  0
   41.3860   24.1550   35.5280 N   0  0  0  0  0  0  0  0  0  0  0  0
   41.3040   21.9910   36.7560 C   0  0  0  0  0  0  0  0  0  0  0  0
   39.8850   22.4040   36.9450 C   0  0  0  0  0  0  0  0  0  0  0  0
   39.4400   23.0660   38.0500 C   0  0  0  0  0  0  0  0  0  0  0  0
   38.1050   23.4320   38.1760 C   0  0  0  0  0  0  0  0  0  0  0  0
   37.2860   23.1080   37.1720 N   0  0  0  0  0  0  0  0  0  0  0  0
   37.7470   22.4520   36.0860 C   0  0  0  0  0  0  0  0  0  0  0  0
   39.0110   22.1180   35.9910 N   0  0  0  0  0  0  0  0  0  0  0  0
   41.9650   27.2820   33.6290 C   0  0  0  0  0  0  0  0  0  0  0  0
   40.1180   26.7580   35.2850 C   0  0  0  0  0  0  0  0  0  0  0  0
   38.8840   27.1590   34.5600 C   0  0  2  0  0  0  0  0  0  0  0  0
   37.7300   27.7230   35.3690 C   0  0  0  0  0  0  0  0  0  0  0  0
   37.6020   26.4700   34.5650 C   0  0  1  0  0  0  0  0  0  0  0  0
   36.8410   26.4300   33.3640 N   0  0  0  0  0  0  0  0  0  0  0  0
   36.4220   27.6610   32.7950 C   0  0  0  0  0  0  0  0  0  0  0  0
   37.2120   27.9430   31.5350 C   0  0  0  0  0  0  0  0  0  0  0  0
   37.2330   26.8930   30.6520 O   0  0  0  0  0  0  0  0  0  0  0  0
   36.6180   25.7460   31.1090 C   0  0  0  0  0  0  0  0  0  0  0  0
   37.0360   25.3340   32.5060 C   0  0  0  0  0  0  0  0  0  0  0  0
   40.6669   25.7818   33.4702 H   0  0  0  0  0  0  0  0  0  0  0  0
   43.9597   22.5653   36.9498 H   0  0  0  0  0  0  0  0  0  0  0  0
   45.1617   24.5707   36.0588 H   0  0  0  0  0  0  0  0  0  0  0  0
   41.3649   21.1518   36.0474 H   0  0  0  0  0  0  0  0  0  0  0  0
   41.7518   21.6567   37.7035 H   0  0  0  0  0  0  0  0  0  0  0  0
   40.1480   23.3144   38.8544 H   0  0  0  0  0  0  0  0  0  0  0  0
   37.7385   23.9660   39.0651 H   0  0  0  0  0  0  0  0  0  0  0  0
   37.0540   22.1948   35.2714 H   0  0  0  0  0  0  0  0  0  0  0  0
   42.4558   27.9288   34.3712 H   0  0  0  0  0  0  0  0  0  0  0  0
   42.7284   26.8022   32.9989 H   0  0  0  0  0  0  0  0  0  0  0  0
   41.2974   27.8880   32.9989 H   0  0  0  0  0  0  0  0  0  0  0  0
   39.8717   25.9568   35.9973 H   0  0  0  0  0  0  0  0  0  0  0  0
   40.5137   27.6378   35.8136 H   0  0  0  0  0  0  0  0  0  0  0  0
   39.5407   27.4600   33.7305 H   0  0  0  0  0  0  0  0  0  0  0  0
   37.7476   27.6791   36.4680 H   0  0  0  0  0  0  0  0  0  0  0  0
   37.1988   28.6846   35.4243 H   0  0  0  0  0  0  0  0  0  0  0  0
   37.2604   25.4536   34.8102 H   0  0  0  0  0  0  0  0  0  0  0  0
   35.3515   27.6031   32.5487 H   0  0  0  0  0  0  0  0  0  0  0  0
   36.5944   28.4712   33.5188 H   0  0  0  0  0  0  0  0  0  0  0  0
   36.7639   28.8120   31.0310 H   0  0  0  0  0  0  0  0  0  0  0  0
   38.2523   28.1269   31.8415 H   0  0  0  0  0  0  0  0  0  0  0  0
   35.5308   25.9136   31.1091 H   0  0  0  0  0  0  0  0  0  0  0  0
   36.9226   24.9325   30.4341 H   0  0  0  0  0  0  0  0  0  0  0  0
   36.4239   24.4842   32.8424 H   0  0  0  0  0  0  0  0  0  0  0  0
   38.0932   25.0301   32.5121 H   0  0  0  0  0  0  0  0  0  0  0  0
  1  6  1  0
  1 16  1  0
  2  3  2  0
  2  8  1  0
  4  3  1  0
  5  4  2  0
  6  5  1  0
  6  7  2  0
  7  2  1  0
  8  9  1  0
  9 10  2  0
 10 11  1  0
 12 11  2  0
 13 12  1  0
 14 13  2  0
 14  9  1  0
 15  1  1  0
 17 19  1  0
 17 16  1  0
 17 18  1  0
 19 18  1  0
 20 19  1  0
 21 20  1  0
 22 21  1  0
 23 24  1  0
 23 22  1  0
 24 25  1  0
 25 20  1  0
  1 26  1  6
  3 27  1  0
  4 28  1  0
  8 29  1  0
  8 30  1  0
 10 31  1  0
 11 32  1  0
 13 33  1  0
 15 34  1  0
 15 35  1  0
 15 36  1  0
 16 37  1  0
 16 38  1  0
 17 39  1  6
 18 40  1  0
 18 41  1  0
 19 42  1  1
 21 43  1  0
 21 44  1  0
 22 45  1  0
 22 46  1  0
 24 47  1  0
 24 48  1  0
 25 49  1  0
 25 50  1  0
M  ISO  8  26   8  27  14  28  14  29   8  30   8  31  14  32  14  33  14
M  ISO  8  34   8  35   8  36   8  37   8  38   8  39  13  40  13  41  13
M  ISO  8  42  13  43  13  44  13  45  13  46  13  47  13  48  13  49  13
M  ISO  1  50  13
M  END
>  <minimizedAffinity>  (1) 
-5.74837637

>  <minimizedRMSD>  (1) 
1.09452605

$$$$
