
     RDKit          3D

 46 49  0  0  1  0  0  0  0  0999 V2000
   41.5170   26.5780   34.2630 C   0  0  2  0  0  0  0  0  0  0  0  0
   39.1410   24.2970   35.9570 C   0  0  0  0  0  0  0  0  0  0  0  0
   38.1370   25.1820   36.3550 C   0  0  0  0  0  0  0  0  0  0  0  0
   38.2230   26.5520   36.0780 C   0  0  0  0  0  0  0  0  0  0  0  0
   39.3140   26.9900   35.4130 N   0  0  0  0  0  0  0  0  0  0  0  0
   40.2940   26.1400   35.0230 C   0  0  0  0  0  0  0  0  0  0  0  0
   40.1970   24.8210   35.2960 N   0  0  0  0  0  0  0  0  0  0  0  0
   39.0360   22.8360   36.2470 C   0  0  0  0  0  0  0  0  0  0  0  0
   38.5720   22.1890   34.9940 C   0  0  0  0  0  0  0  0  0  0  0  0
   37.2650   21.9140   34.7230 C   0  0  0  0  0  0  0  0  0  0  0  0
   36.8820   21.3080   33.5300 C   0  0  0  0  0  0  0  0  0  0  0  0
   37.8530   21.0100   32.6630 N   0  0  0  0  0  0  0  0  0  0  0  0
   39.1430   21.2890   32.9460 C   0  0  0  0  0  0  0  0  0  0  0  0
   39.4710   21.8590   34.0780 N   0  0  0  0  0  0  0  0  0  0  0  0
   41.2200   27.4320   33.1140 C   0  0  0  0  0  0  0  0  0  0  0  0
   42.3490   25.3350   33.9460 C   0  0  0  0  0  0  0  0  0  0  0  0
   43.7980   25.6140   34.0010 C   0  0  2  0  0  0  0  0  0  0  0  0
   44.7060   24.6460   34.7000 C   0  0  0  0  0  0  0  0  0  0  0  0
   44.5550   26.0620   35.1580 C   0  0  1  0  0  0  0  0  0  0  0  0
   45.7910   26.9070   34.9960 C   0  0  0  0  0  0  0  0  0  0  0  0
   47.0470   26.6180   35.4760 C   0  0  0  0  0  0  0  0  0  0  0  0
   48.0930   27.4900   35.2620 C   0  0  0  0  0  0  0  0  0  0  0  0
   47.9230   28.6810   34.5610 C   0  0  0  0  0  0  0  0  0  0  0  0
   46.6480   28.8820   34.1250 C   0  0  0  0  0  0  0  0  0  0  0  0
   45.6190   28.0420   34.3250 N   0  0  0  0  0  0  0  0  0  0  0  0
   42.1237   27.2469   34.8911 H   0  0  0  0  0  0  0  0  0  0  0  0
   37.2612   24.7954   36.8968 H   0  0  0  0  0  0  0  0  0  0  0  0
   37.4299   27.2470   36.3910 H   0  0  0  0  0  0  0  0  0  0  0  0
   40.0176   22.4355   36.5404 H   0  0  0  0  0  0  0  0  0  0  0  0
   38.3380   22.6444   37.0753 H   0  0  0  0  0  0  0  0  0  0  0  0
   36.4955   22.1769   35.4638 H   0  0  0  0  0  0  0  0  0  0  0  0
   35.8274   21.0847   33.3112 H   0  0  0  0  0  0  0  0  0  0  0  0
   39.9271   21.0347   32.2176 H   0  0  0  0  0  0  0  0  0  0  0  0
   40.8778   28.4159   33.4672 H   0  0  0  0  0  0  0  0  0  0  0  0
   42.1277   27.5563   32.5052 H   0  0  0  0  0  0  0  0  0  0  0  0
   40.4311   26.9663   32.5052 H   0  0  0  0  0  0  0  0  0  0  0  0
   42.0926   24.9835   32.9357 H   0  0  0  0  0  0  0  0  0  0  0  0
   42.1201   24.5695   34.7020 H   0  0  0  0  0  0  0  0  0  0  0  0
   43.6791   26.0455   32.9962 H   0  0  0  0  0  0  0  0  0  0  0  0
   44.2864   23.8219   35.2956 H   0  0  0  0  0  0  0  0  0  0  0  0
   45.5439   23.9968   34.4060 H   0  0  0  0  0  0  0  0  0  0  0  0
   44.2511   26.5879   36.0751 H   0  0  0  0  0  0  0  0  0  0  0  0
   47.2179   25.6855   36.0340 H   0  0  0  0  0  0  0  0  0  0  0  0
   49.0888   27.2381   35.6556 H   0  0  0  0  0  0  0  0  0  0  0  0
   48.7412   29.3927   34.3766 H   0  0  0  0  0  0  0  0  0  0  0  0
   46.4449   29.8063   33.5642 H   0  0  0  0  0  0  0  0  0  0  0  0
  1  6  1  0
  2  8  1  0
  2  3  2  0
  4  3  1  0
  5  4  2  0
  6  7  2  0
  6  5  1  0
  7  2  1  0
  9  8  1  0
 10  9  2  0
 11 10  1  0
 12 13  1  0
 12 11  2  0
 13 14  2  0
 14  9  1  0
 15  1  1  0
 16 17  1  0
 16  1  1  0
 17 18  1  0
 17 19  1  0
 18 19  1  0
 20 19  1  0
 20 21  2  0
 22 21  1  0
 23 22  2  0
 24 25  2  0
 24 23  1  0
 25 20  1  0
  1 26  1  1
  3 27  1  0
  4 28  1  0
  8 29  1  0
  8 30  1  0
 10 31  1  0
 11 32  1  0
 13 33  1  0
 15 34  1  0
 15 35  1  0
 15 36  1  0
 16 37  1  0
 16 38  1  0
 17 39  1  6
 18 40  1  0
 18 41  1  0
 19 42  1  1
 21 43  1  0
 22 44  1  0
 23 45  1  0
 24 46  1  0
M  ISO  8  26   8  27  14  28  14  29   8  30   8  31  14  32  14  33  14
M  ISO  8  34   8  35   8  36   8  37   8  38   8  39  13  40  13  41  13
M  ISO  5  42  13  43  14  44  14  45  14  46  14
M  END
>  <minimizedAffinity>  (1) 
-4.52467346

>  <minimizedRMSD>  (1) 
6.99245358

$$$$
