
     RDKit          3D

 43 45  0  0  1  0  0  0  0  0999 V2000
   41.9290   23.4060   36.1030 C   0  0  0  0  0  0  0  0  0  0  0  0
   43.2940   23.6560   36.2210 C   0  0  0  0  0  0  0  0  0  0  0  0
   43.8780   24.7940   35.6660 C   0  0  0  0  0  0  0  0  0  0  0  0
   43.0680   25.6500   35.0090 N   0  0  0  0  0  0  0  0  0  0  0  0
   41.7420   25.4240   34.8840 C   0  0  0  0  0  0  0  0  0  0  0  0
   41.1990   24.3180   35.4260 N   0  0  0  0  0  0  0  0  0  0  0  0
   41.3150   22.1860   36.7120 C   0  0  0  0  0  0  0  0  0  0  0  0
   39.8810   22.5030   36.9390 C   0  0  0  0  0  0  0  0  0  0  0  0
   39.4100   23.1270   38.0550 C   0  0  0  0  0  0  0  0  0  0  0  0
   38.0570   23.4050   38.2140 C   0  0  0  0  0  0  0  0  0  0  0  0
   37.2300   23.0330   37.2190 N   0  0  0  0  0  0  0  0  0  0  0  0
   37.7220   22.4160   36.1240 C   0  0  0  0  0  0  0  0  0  0  0  0
   39.0030   22.1690   36.0050 N   0  0  0  0  0  0  0  0  0  0  0  0
   40.8070   26.3640   34.1750 C   0  0  2  0  0  0  0  0  0  0  0  0
   41.4870   27.4460   33.4610 C   0  0  0  0  0  0  0  0  0  0  0  0
   39.7410   26.8130   35.1720 C   0  0  0  0  0  0  0  0  0  0  0  0
   38.5350   27.3210   34.4860 C   0  0  2  0  0  0  0  0  0  0  0  0
   37.1750   26.9230   34.9790 C   0  0  0  0  0  0  0  0  0  0  0  0
   37.6470   26.5940   33.5920 C   0  0  1  0  0  0  0  0  0  0  0  0
   36.9170   27.3670   32.4860 C   0  0  0  0  0  0  0  0  0  0  0  0
   37.8760   27.9200   31.4630 C   0  0  0  0  0  0  0  0  0  0  0  0
   43.9263   22.9388   36.7649 H   0  0  0  0  0  0  0  0  0  0  0  0
   44.9569   24.9864   35.7601 H   0  0  0  0  0  0  0  0  0  0  0  0
   41.4112   21.3303   36.0275 H   0  0  0  0  0  0  0  0  0  0  0  0
   41.8163   21.9163   37.6532 H   0  0  0  0  0  0  0  0  0  0  0  0
   40.1156   23.4171   38.8474 H   0  0  0  0  0  0  0  0  0  0  0  0
   37.6779   23.9082   39.1157 H   0  0  0  0  0  0  0  0  0  0  0  0
   37.0360   22.1156   35.3183 H   0  0  0  0  0  0  0  0  0  0  0  0
   40.3045   25.8361   33.3511 H   0  0  0  0  0  0  0  0  0  0  0  0
   41.9265   28.1453   34.1875 H   0  0  0  0  0  0  0  0  0  0  0  0
   42.2832   27.0250   32.8295 H   0  0  0  0  0  0  0  0  0  0  0  0
   40.7623   27.9808   32.8295 H   0  0  0  0  0  0  0  0  0  0  0  0
   39.4591   25.9572   35.8029 H   0  0  0  0  0  0  0  0  0  0  0  0
   40.1601   27.6280   35.7804 H   0  0  0  0  0  0  0  0  0  0  0  0
   39.1172   28.2424   34.3378 H   0  0  0  0  0  0  0  0  0  0  0  0
   37.0677   26.1287   35.7323 H   0  0  0  0  0  0  0  0  0  0  0  0
   36.3101   27.4435   35.4160 H   0  0  0  0  0  0  0  0  0  0  0  0
   37.7804   25.6863   32.9852 H   0  0  0  0  0  0  0  0  0  0  0  0
   36.2122   26.6885   31.9831 H   0  0  0  0  0  0  0  0  0  0  0  0
   36.3886   28.2122   32.9512 H   0  0  0  0  0  0  0  0  0  0  0  0
   38.7190   28.4061   31.9758 H   0  0  0  0  0  0  0  0  0  0  0  0
   38.2531   27.1007   30.8333 H   0  0  0  0  0  0  0  0  0  0  0  0
   37.3558   28.6568   30.8333 H   0  0  0  0  0  0  0  0  0  0  0  0
  1  2  2  0
  1  7  1  0
  3  2  1  0
  4  3  2  0
  5  4  1  0
  5  6  2  0
  6  1  1  0
  7  8  1  0
  8  9  2  0
  9 10  1  0
 11 10  2  0
 12 11  1  0
 13 12  2  0
 13  8  1  0
 14  5  1  0
 14 16  1  0
 15 14  1  0
 17 18  1  0
 17 16  1  0
 19 17  1  0
 19 18  1  0
 20 19  1  0
 21 20  1  0
  2 22  1  0
  3 23  1  0
  7 24  1  0
  7 25  1  0
  9 26  1  0
 10 27  1  0
 12 28  1  0
 14 29  1  6
 15 30  1  0
 15 31  1  0
 15 32  1  0
 16 33  1  0
 16 34  1  0
 17 35  1  6
 18 36  1  0
 18 37  1  0
 19 38  1  6
 20 39  1  0
 20 40  1  0
 21 41  1  0
 21 42  1  0
 21 43  1  0
M  ISO  8  22  14  23  14  24   8  25   8  26  14  27  14  28  14  29   8
M  ISO  8  30   8  31   8  32   8  33   8  34   8  35  13  36  13  37  13
M  ISO  6  38  13  39   8  40   8  41   8  42   8  43   8
M  END
>  <minimizedAffinity>  (1) 
-5.15220499

>  <minimizedRMSD>  (1) 
0.953411758

$$$$
