
     RDKit          3D

 39 41  0  0  1  0  0  0  0  0999 V2000
   41.9920   23.2730   36.1580 C   0  0  0  0  0  0  0  0  0  0  0  0
   43.3390   23.5080   36.4630 C   0  0  0  0  0  0  0  0  0  0  0  0
   43.9980   24.6520   36.0210 C   0  0  0  0  0  0  0  0  0  0  0  0
   43.2940   25.5330   35.2820 N   0  0  0  0  0  0  0  0  0  0  0  0
   41.9920   25.3220   34.9750 C   0  0  0  0  0  0  0  0  0  0  0  0
   41.3680   24.2090   35.4120 N   0  0  0  0  0  0  0  0  0  0  0  0
   41.2930   22.0480   36.6470 C   0  0  0  0  0  0  0  0  0  0  0  0
   39.8810   22.4410   36.8910 C   0  0  0  0  0  0  0  0  0  0  0  0
   39.4570   23.0850   38.0150 C   0  0  0  0  0  0  0  0  0  0  0  0
   38.1200   23.4320   38.1850 C   0  0  0  0  0  0  0  0  0  0  0  0
   37.2700   23.1100   37.2050 N   0  0  0  0  0  0  0  0  0  0  0  0
   37.7130   22.4700   36.0960 C   0  0  0  0  0  0  0  0  0  0  0  0
   38.9770   22.1560   35.9650 N   0  0  0  0  0  0  0  0  0  0  0  0
   41.1660   26.2890   34.1690 C   0  0  2  0  0  0  0  0  0  0  0  0
   41.9600   27.3250   33.5090 C   0  0  0  0  0  0  0  0  0  0  0  0
   40.0440   26.8110   35.0650 C   0  0  0  0  0  0  0  0  0  0  0  0
   38.7900   26.9990   34.3200 C   0  0  2  0  0  0  0  0  0  0  0  0
   37.5360   27.4090   35.0300 C   0  0  0  0  0  0  0  0  0  0  0  0
   37.6320   26.1030   34.3150 C   0  0  1  0  0  0  0  0  0  0  0  0
   36.9520   25.8420   33.0810 N   0  0  0  0  0  0  0  0  0  0  0  0
   43.8892   22.7709   37.0662 H   0  0  0  0  0  0  0  0  0  0  0  0
   45.0554   24.8307   36.2660 H   0  0  0  0  0  0  0  0  0  0  0  0
   41.3412   21.2536   35.8876 H   0  0  0  0  0  0  0  0  0  0  0  0
   41.7629   21.6589   37.5623 H   0  0  0  0  0  0  0  0  0  0  0  0
   40.1843   23.3348   38.8015 H   0  0  0  0  0  0  0  0  0  0  0  0
   37.7758   23.9515   39.0914 H   0  0  0  0  0  0  0  0  0  0  0  0
   37.0026   22.2114   35.2969 H   0  0  0  0  0  0  0  0  0  0  0  0
   40.7104   25.7688   33.3135 H   0  0  0  0  0  0  0  0  0  0  0  0
   42.4437   27.9561   34.2691 H   0  0  0  0  0  0  0  0  0  0  0  0
   42.7296   26.8527   32.8808 H   0  0  0  0  0  0  0  0  0  0  0  0
   41.3038   27.9453   32.8808 H   0  0  0  0  0  0  0  0  0  0  0  0
   39.8710   26.0882   35.8759 H   0  0  0  0  0  0  0  0  0  0  0  0
   40.3532   27.7882   35.4643 H   0  0  0  0  0  0  0  0  0  0  0  0
   39.4304   27.3841   33.5128 H   0  0  0  0  0  0  0  0  0  0  0  0
   37.5061   27.4376   36.1292 H   0  0  0  0  0  0  0  0  0  0  0  0
   36.8607   28.2765   34.9943 H   0  0  0  0  0  0  0  0  0  0  0  0
   37.4314   25.0642   34.6163 H   0  0  0  0  0  0  0  0  0  0  0  0
   36.0083   25.4798   33.2789 H   0  0  0  0  0  0  0  0  0  0  0  0
   36.8781   26.7144   32.5385 H   0  0  0  0  0  0  0  0  0  0  0  0
  1  2  2  0
  1  7  1  0
  3  2  1  0
  4  3  2  0
  5  4  1  0
  5  6  2  0
  6  1  1  0
  7  8  1  0
  8  9  2  0
  9 10  1  0
 11 10  2  0
 12 11  1  0
 13 12  2  0
 13  8  1  0
 14  5  1  0
 14 16  1  0
 15 14  1  0
 17 18  1  0
 17 16  1  0
 19 17  1  0
 19 18  1  0
 20 19  1  0
  2 21  1  0
  3 22  1  0
  7 23  1  0
  7 24  1  0
  9 25  1  0
 10 26  1  0
 12 27  1  0
 14 28  1  6
 15 29  1  0
 15 30  1  0
 15 31  1  0
 16 32  1  0
 16 33  1  0
 17 34  1  6
 18 35  1  0
 18 36  1  0
 19 37  1  1
 20 38  1  0
 20 39  1  0
M  ISO  8  21  14  22  14  23   8  24   8  25  14  26  14  27  14  28   8
M  ISO  8  29   8  30   8  31   8  32   8  33   8  34  13  35  13  36  13
M  ISO  3  37  13  38   5  39   5
M  END
>  <minimizedAffinity>  (1) 
-5.17403936

>  <minimizedRMSD>  (1) 
0.405949622

$$$$
