
     RDKit          3D

 31 33  0  0  0  0  0  0  0  0999 V2000
   38.1850   24.6660   34.7940 C   0  0  0  0  0  0  0  0  0  0  0  0
   38.6060   23.9560   33.6710 C   0  0  0  0  0  0  0  0  0  0  0  0
   38.3400   24.4310   32.4230 C   0  0  0  0  0  0  0  0  0  0  0  0
   37.6590   25.6040   32.2900 N   0  0  0  0  0  0  0  0  0  0  0  0
   37.2600   26.2800   33.3850 C   0  0  0  0  0  0  0  0  0  0  0  0
   37.5150   25.8220   34.6310 N   0  0  0  0  0  0  0  0  0  0  0  0
   36.5480   27.5090   33.2680 N   0  0  0  0  0  0  0  0  0  0  0  0
   36.3550   28.3010   34.3350 C   0  0  0  0  0  0  0  0  0  0  0  0
   35.6520   29.5020   34.1910 C   0  0  0  0  0  0  0  0  0  0  0  0
   35.1890   29.8050   32.9290 C   0  0  0  0  0  0  0  0  0  0  0  0
   34.4810   31.0560   32.8800 N   0  0  0  0  0  0  0  0  0  0  0  0
   35.3900   29.0030   31.8690 N   0  0  0  0  0  0  0  0  0  0  0  0
   36.0760   27.8440   32.0470 C   0  0  0  0  0  0  0  0  0  0  0  0
   36.2150   27.1590   31.0010 O   0  0  0  0  0  0  0  0  0  0  0  0
   38.4610   24.1730   36.1290 C   0  0  0  0  0  0  0  0  0  0  0  0
   39.4360   23.1990   36.2530 C   0  0  0  0  0  0  0  0  0  0  0  0
   39.6920   22.7320   37.5530 C   0  0  0  0  0  0  0  0  0  0  0  0
   38.9850   23.2520   38.5810 N   0  0  0  0  0  0  0  0  0  0  0  0
   38.0400   24.2010   38.4320 C   0  0  0  0  0  0  0  0  0  0  0  0
   37.7980   24.6400   37.2050 N   0  0  0  0  0  0  0  0  0  0  0  0
   40.6560   21.7350   37.8730 N   0  0  0  0  0  0  0  0  0  0  0  0
   39.1542   23.0102   33.7931 H   0  0  0  0  0  0  0  0  0  0  0  0
   38.6706   23.8750   31.5333 H   0  0  0  0  0  0  0  0  0  0  0  0
   36.7484   28.0065   35.3191 H   0  0  0  0  0  0  0  0  0  0  0  0
   35.4771   30.1729   35.0450 H   0  0  0  0  0  0  0  0  0  0  0  0
   34.0871   31.3903   31.9889 H   0  0  0  0  0  0  0  0  0  0  0  0
   34.3679   31.6176   33.7360 H   0  0  0  0  0  0  0  0  0  0  0  0
   39.9816   22.8110   35.3802 H   0  0  0  0  0  0  0  0  0  0  0  0
   37.4891   24.5972   39.2978 H   0  0  0  0  0  0  0  0  0  0  0  0
   40.7887   21.4422   38.8515 H   0  0  0  0  0  0  0  0  0  0  0  0
   41.2209   21.3063   37.1260 H   0  0  0  0  0  0  0  0  0  0  0  0
  1 15  1  0
  2  1  2  0
  3  2  1  0
  4  3  2  0
  4  5  1  0
  5  6  2  0
  6  1  1  0
  7  5  1  0
  7  8  1  0
  9  8  2  0
 10  9  1  0
 11 10  1  0
 12 13  1  0
 12 10  2  0
 13  7  1  0
 14 13  2  0
 15 16  2  0
 15 20  1  0
 16 17  1  0
 17 21  1  0
 17 18  2  0
 19 18  1  0
 20 19  2  0
  2 22  1  0
  3 23  1  0
  8 24  1  0
  9 25  1  0
 11 26  1  0
 11 27  1  0
 16 28  1  0
 19 29  1  0
 21 30  1  0
 21 31  1  0
M  ISO  6  22  14  23  14  24  14  25  14  28  14  29  14
M  END
>  <minimizedAffinity>  (1) 
-6.23398829

>  <minimizedRMSD>  (1) 
0.760694861

$$$$
