
     RDKit          3D

 30 32  0  0  0  0  0  0  0  0999 V2000
   38.1410   24.6670   34.7810 C   0  0  0  0  0  0  0  0  0  0  0  0
   38.4390   23.9020   33.6750 C   0  0  0  0  0  0  0  0  0  0  0  0
   38.1700   24.3840   32.4300 C   0  0  0  0  0  0  0  0  0  0  0  0
   37.6120   25.6090   32.2830 N   0  0  0  0  0  0  0  0  0  0  0  0
   37.3250   26.3490   33.3600 C   0  0  0  0  0  0  0  0  0  0  0  0
   37.5870   25.8830   34.6010 N   0  0  0  0  0  0  0  0  0  0  0  0
   38.4070   24.2020   36.1240 C   0  0  0  0  0  0  0  0  0  0  0  0
   39.3780   23.2250   36.2660 C   0  0  0  0  0  0  0  0  0  0  0  0
   39.6590   22.7520   37.5460 C   0  0  0  0  0  0  0  0  0  0  0  0
   38.9600   23.2820   38.5840 N   0  0  0  0  0  0  0  0  0  0  0  0
   38.0170   24.2340   38.4320 C   0  0  0  0  0  0  0  0  0  0  0  0
   37.7540   24.6800   37.2020 N   0  0  0  0  0  0  0  0  0  0  0  0
   40.6120   21.7630   37.8820 N   0  0  0  0  0  0  0  0  0  0  0  0
   36.7240   27.6760   33.2580 C   0  0  0  0  0  0  0  0  0  0  0  0
   36.3070   28.3340   34.3970 C   0  0  0  0  0  0  0  0  0  0  0  0
   35.7210   29.6000   34.4120 C   0  0  0  0  0  0  0  0  0  0  0  0
   35.5820   30.1770   33.1660 C   0  0  0  0  0  0  0  0  0  0  0  0
   35.9800   29.5700   31.9920 C   0  0  0  0  0  0  0  0  0  0  0  0
   36.5510   28.3200   32.0450 C   0  0  0  0  0  0  0  0  0  0  0  0
   38.8919   22.9070   33.7967 H   0  0  0  0  0  0  0  0  0  0  0  0
   38.4062   23.7777   31.5431 H   0  0  0  0  0  0  0  0  0  0  0  0
   39.9143   22.8320   35.3897 H   0  0  0  0  0  0  0  0  0  0  0  0
   37.4766   24.6340   39.3026 H   0  0  0  0  0  0  0  0  0  0  0  0
   40.7410   21.4851   38.8654 H   0  0  0  0  0  0  0  0  0  0  0  0
   41.1772   21.3205   37.1434 H   0  0  0  0  0  0  0  0  0  0  0  0
   36.4465   27.8241   35.3616 H   0  0  0  0  0  0  0  0  0  0  0  0
   35.3971   30.0964   35.3387 H   0  0  0  0  0  0  0  0  0  0  0  0
   35.1284   31.1772   33.1051 H   0  0  0  0  0  0  0  0  0  0  0  0
   35.8423   30.0793   31.0268 H   0  0  0  0  0  0  0  0  0  0  0  0
   36.8730   27.8277   31.1155 H   0  0  0  0  0  0  0  0  0  0  0  0
  1  7  1  0
  2  1  2  0
  3  2  1  0
  4  3  2  0
  4  5  1  0
  5  6  2  0
  6  1  1  0
  7  8  2  0
  7 12  1  0
  8  9  1  0
  9 13  1  0
  9 10  2  0
 11 10  1  0
 12 11  2  0
 14  5  1  0
 14 15  2  0
 15 16  1  0
 17 16  2  0
 18 19  2  0
 18 17  1  0
 19 14  1  0
  2 20  1  0
  3 21  1  0
  8 22  1  0
 11 23  1  0
 13 24  1  0
 13 25  1  0
 15 26  1  0
 16 27  1  0
 17 28  1  0
 18 29  1  0
 19 30  1  0
M  ISO  8  20  14  21  14  22  14  23  14  26  14  27  14  28  14  29  14
M  ISO  1  30  14
M  END
>  <minimizedAffinity>  (1) 
-5.95189619

>  <minimizedRMSD>  (1) 
0.895008624

$$$$
