
     RDKit          3D

 33 35  0  0  0  0  0  0  0  0999 V2000
   38.0930   24.6820   34.8330 C   0  0  0  0  0  0  0  0  0  0  0  0
   38.2200   23.8420   33.7280 C   0  0  0  0  0  0  0  0  0  0  0  0
   37.9370   24.3210   32.4790 C   0  0  0  0  0  0  0  0  0  0  0  0
   37.5340   25.6140   32.3270 N   0  0  0  0  0  0  0  0  0  0  0  0
   37.4170   26.4070   33.4070 C   0  0  0  0  0  0  0  0  0  0  0  0
   37.6920   25.9560   34.6600 N   0  0  0  0  0  0  0  0  0  0  0  0
   38.3870   24.2020   36.1690 C   0  0  0  0  0  0  0  0  0  0  0  0
   39.3610   23.2260   36.2800 C   0  0  0  0  0  0  0  0  0  0  0  0
   39.6620   22.7470   37.5610 C   0  0  0  0  0  0  0  0  0  0  0  0
   38.9790   23.2690   38.6190 N   0  0  0  0  0  0  0  0  0  0  0  0
   38.0250   24.2290   38.4780 C   0  0  0  0  0  0  0  0  0  0  0  0
   37.7440   24.6820   37.2530 N   0  0  0  0  0  0  0  0  0  0  0  0
   40.6250   21.7550   37.8610 N   0  0  0  0  0  0  0  0  0  0  0  0
   36.9730   27.8100   33.1930 C   0  0  0  0  0  0  0  0  0  0  0  0
   35.8600   27.8900   32.1860 C   0  0  0  0  0  0  0  0  0  0  0  0
   35.2830   29.2670   32.4380 C   0  0  0  0  0  0  0  0  0  0  0  0
   35.1730   29.2350   33.9620 C   0  0  0  0  0  0  0  0  0  0  0  0
   36.3540   28.4020   34.4270 C   0  0  0  0  0  0  0  0  0  0  0  0
   38.5460   22.7997   33.8600 H   0  0  0  0  0  0  0  0  0  0  0  0
   38.0342   23.6657   31.6008 H   0  0  0  0  0  0  0  0  0  0  0  0
   39.8817   22.8391   35.3917 H   0  0  0  0  0  0  0  0  0  0  0  0
   37.4948   24.6249   39.3567 H   0  0  0  0  0  0  0  0  0  0  0  0
   40.7785   21.4648   38.8373 H   0  0  0  0  0  0  0  0  0  0  0  0
   41.1726   21.3230   37.1031 H   0  0  0  0  0  0  0  0  0  0  0  0
   37.8842   28.3394   32.8777 H   0  0  0  0  0  0  0  0  0  0  0  0
   35.1083   27.1064   32.3622 H   0  0  0  0  0  0  0  0  0  0  0  0
   36.1969   27.7404   31.1496 H   0  0  0  0  0  0  0  0  0  0  0  0
   35.9606   30.0625   32.0944 H   0  0  0  0  0  0  0  0  0  0  0  0
   34.3412   29.4779   31.9102 H   0  0  0  0  0  0  0  0  0  0  0  0
   35.2321   30.2529   34.3748 H   0  0  0  0  0  0  0  0  0  0  0  0
   34.2140   28.8130   34.2970 H   0  0  0  0  0  0  0  0  0  0  0  0
   36.0128   27.6028   35.1014 H   0  0  0  0  0  0  0  0  0  0  0  0
   37.0800   29.0163   34.9798 H   0  0  0  0  0  0  0  0  0  0  0  0
  1  7  1  0
  2  1  2  0
  3  2  1  0
  4  3  2  0
  4  5  1  0
  5  6  2  0
  6  1  1  0
  7  8  2  0
  7 12  1  0
  8  9  1  0
  9 13  1  0
  9 10  2  0
 11 10  1  0
 12 11  2  0
 14  5  1  0
 14 18  1  0
 15 16  1  0
 15 14  1  0
 16 17  1  0
 17 18  1  0
  2 19  1  0
  3 20  1  0
  8 21  1  0
 11 22  1  0
 13 23  1  0
 13 24  1  0
 14 25  1  0
 15 26  1  0
 15 27  1  0
 16 28  1  0
 16 29  1  0
 17 30  1  0
 17 31  1  0
 18 32  1  0
 18 33  1  0
M  ISO  8  19  14  20  14  21  14  22  14  25  13  26  13  27  13  28  13
M  ISO  5  29  13  30  13  31  13  32  13  33  13
M  END
>  <minimizedAffinity>  (1) 
-5.58458328

>  <minimizedRMSD>  (1) 
0.699866891

$$$$
