
     RDKit          3D

 27 28  0  0  0  0  0  0  0  0999 V2000
   38.0220   24.9910   35.1210 C   0  0  0  0  0  0  0  0  0  0  0  0
   38.2740   24.3310   33.9410 C   0  0  0  0  0  0  0  0  0  0  0  0
   37.9460   24.9170   32.7480 C   0  0  0  0  0  0  0  0  0  0  0  0
   37.3740   26.1440   32.7440 N   0  0  0  0  0  0  0  0  0  0  0  0
   37.1290   26.7850   33.9090 C   0  0  0  0  0  0  0  0  0  0  0  0
   37.4530   26.2070   35.0760 N   0  0  0  0  0  0  0  0  0  0  0  0
   36.5280   28.0740   33.8930 N   0  0  0  0  0  0  0  0  0  0  0  0
   35.8840   28.6090   32.7470 C   0  0  0  0  0  0  0  0  0  0  0  0
   35.7300   27.8670   31.6990 N   0  0  0  0  0  0  0  0  0  0  0  0
   35.4120   29.9560   32.7550 N   0  0  0  0  0  0  0  0  0  0  0  0
   35.2510   28.2740   30.8510 H   0  0  0  0  0  0  0  0  0  0  0  0
   38.3570   24.3980   36.4060 C   0  0  0  0  0  0  0  0  0  0  0  0
   39.3010   23.3870   36.3930 C   0  0  0  0  0  0  0  0  0  0  0  0
   39.6420   22.7990   37.6130 C   0  0  0  0  0  0  0  0  0  0  0  0
   39.0240   23.2590   38.7420 N   0  0  0  0  0  0  0  0  0  0  0  0
   38.0980   24.2560   38.7260 C   0  0  0  0  0  0  0  0  0  0  0  0
   37.7780   24.8110   37.5530 N   0  0  0  0  0  0  0  0  0  0  0  0
   40.5770   21.7590   37.8080 N   0  0  0  0  0  0  0  0  0  0  0  0
   38.7383   23.3339   33.9558 H   0  0  0  0  0  0  0  0  0  0  0  0
   38.1456   24.3951   31.8005 H   0  0  0  0  0  0  0  0  0  0  0  0
   36.5616   28.6439   34.7503 H   0  0  0  0  0  0  0  0  0  0  0  0
   34.9448   30.3429   31.9226 H   0  0  0  0  0  0  0  0  0  0  0  0
   35.5386   30.5411   33.5932 H   0  0  0  0  0  0  0  0  0  0  0  0
   39.7676   23.0572   35.4530 H   0  0  0  0  0  0  0  0  0  0  0  0
   37.6234   24.5976   39.6577 H   0  0  0  0  0  0  0  0  0  0  0  0
   40.7540   21.3966   38.7558 H   0  0  0  0  0  0  0  0  0  0  0  0
   41.0820   21.3628   37.0025 H   0  0  0  0  0  0  0  0  0  0  0  0
  1 12  1  0
  2  1  2  0
  3  2  1  0
  4  3  2  0
  4  5  1  0
  5  6  2  0
  6  1  1  0
  7  5  1  0
  8 10  1  0
  8  7  1  0
  9  8  2  0
 11  9  1  0
 12 17  1  0
 13 12  2  0
 13 14  1  0
 14 18  1  0
 14 15  2  0
 16 15  1  0
 17 16  2  0
  2 19  1  0
  3 20  1  0
  7 21  1  0
 10 22  1  0
 10 23  1  0
 13 24  1  0
 16 25  1  0
 18 26  1  0
 18 27  1  0
M  ISO  4  19  14  20  14  24  14  25  14
M  END
>  <minimizedAffinity>  (1) 
-5.25670815

>  <minimizedRMSD>  (1) 
0.0300891474

$$$$
