
     RDKit          3D

 29 30  0  0  0  0  0  0  0  0999 V2000
   38.3560   24.1560   36.1280 C   0  0  0  0  0  0  0  0  0  0  0  0
   39.3320   23.1870   36.2660 C   0  0  0  0  0  0  0  0  0  0  0  0
   39.6570   22.7310   37.5380 C   0  0  0  0  0  0  0  0  0  0  0  0
   38.9830   23.2780   38.5800 N   0  0  0  0  0  0  0  0  0  0  0  0
   38.0270   24.2270   38.4320 C   0  0  0  0  0  0  0  0  0  0  0  0
   37.7260   24.6540   37.2120 N   0  0  0  0  0  0  0  0  0  0  0  0
   40.6170   21.7580   37.8690 N   0  0  0  0  0  0  0  0  0  0  0  0
   38.0520   24.5960   34.7810 C   0  0  0  0  0  0  0  0  0  0  0  0
   38.1300   23.7370   33.7050 C   0  0  0  0  0  0  0  0  0  0  0  0
   37.8350   24.1890   32.4500 C   0  0  0  0  0  0  0  0  0  0  0  0
   37.4690   25.4790   32.2730 N   0  0  0  0  0  0  0  0  0  0  0  0
   37.3950   26.3180   33.3330 C   0  0  0  0  0  0  0  0  0  0  0  0
   37.6850   25.8740   34.5730 N   0  0  0  0  0  0  0  0  0  0  0  0
   36.9930   27.7280   33.1250 C   0  0  0  0  0  0  0  0  0  0  0  0
   36.4350   28.2180   34.4500 C   0  0  0  0  0  0  0  0  0  0  0  0
   35.9080   27.8430   32.0760 C   0  0  0  0  0  0  0  0  0  0  0  0
   39.8446   22.7822   35.3809 H   0  0  0  0  0  0  0  0  0  0  0  0
   37.5078   24.6376   39.3106 H   0  0  0  0  0  0  0  0  0  0  0  0
   40.7707   21.5005   38.8544 H   0  0  0  0  0  0  0  0  0  0  0  0
   41.1664   21.3029   37.1260 H   0  0  0  0  0  0  0  0  0  0  0  0
   38.4293   22.6895   33.8570 H   0  0  0  0  0  0  0  0  0  0  0  0
   37.8948   23.5077   31.5884 H   0  0  0  0  0  0  0  0  0  0  0  0
   37.8576   28.3169   32.7849 H   0  0  0  0  0  0  0  0  0  0  0  0
   36.9801   27.7393   35.2769 H   0  0  0  0  0  0  0  0  0  0  0  0
   36.5530   29.3096   34.5163 H   0  0  0  0  0  0  0  0  0  0  0  0
   35.3678   27.9599   34.5163 H   0  0  0  0  0  0  0  0  0  0  0  0
   34.9304   27.9466   32.5695 H   0  0  0  0  0  0  0  0  0  0  0  0
   36.0972   28.7261   31.4481 H   0  0  0  0  0  0  0  0  0  0  0  0
   35.9079   26.9398   31.4481 H   0  0  0  0  0  0  0  0  0  0  0  0
  1  2  2  0
  1  6  1  0
  2  3  1  0
  3  7  1  0
  3  4  2  0
  5  4  1  0
  6  5  2  0
  8  1  1  0
  9  8  2  0
 10  9  1  0
 11 10  2  0
 11 12  1  0
 12 13  2  0
 13  8  1  0
 14 12  1  0
 14 15  1  0
 16 14  1  0
  2 17  1  0
  5 18  1  0
  7 19  1  0
  7 20  1  0
  9 21  1  0
 10 22  1  0
 14 23  1  0
 15 24  1  0
 15 25  1  0
 15 26  1  0
 16 27  1  0
 16 28  1  0
 16 29  1  0
M  ISO  8  17  14  18  14  21  14  22  14  23   8  24   8  25   8  26   8
M  ISO  3  27   8  28   8  29   8
M  END
>  <minimizedAffinity>  (1) 
-5.04013634

>  <minimizedRMSD>  (1) 
0.879720807

$$$$
