
     RDKit          3D

 23 24  0  0  0  0  0  0  0  0999 V2000
   38.0060   24.4800   34.7470 C   0  0  0  0  0  0  0  0  0  0  0  0
   38.1020   23.6150   33.6840 C   0  0  0  0  0  0  0  0  0  0  0  0
   37.7890   24.0160   32.4280 C   0  0  0  0  0  0  0  0  0  0  0  0
   37.3740   25.3000   32.2290 N   0  0  0  0  0  0  0  0  0  0  0  0
   37.2820   26.1420   33.2730 C   0  0  0  0  0  0  0  0  0  0  0  0
   37.5940   25.7440   34.5300 N   0  0  0  0  0  0  0  0  0  0  0  0
   38.3380   24.0700   36.1030 C   0  0  0  0  0  0  0  0  0  0  0  0
   39.3300   23.1130   36.2340 C   0  0  0  0  0  0  0  0  0  0  0  0
   39.6540   22.7140   37.5380 C   0  0  0  0  0  0  0  0  0  0  0  0
   38.9810   23.2860   38.5750 N   0  0  0  0  0  0  0  0  0  0  0  0
   38.0200   24.2170   38.4170 C   0  0  0  0  0  0  0  0  0  0  0  0
   37.7190   24.5890   37.1820 N   0  0  0  0  0  0  0  0  0  0  0  0
   40.6380   21.7500   37.8700 N   0  0  0  0  0  0  0  0  0  0  0  0
   36.8340   27.5290   33.0570 C   0  0  0  0  0  0  0  0  0  0  0  0
   37.7570   28.2120   32.3050 F   0  0  0  0  0  0  0  0  0  0  0  0
   36.6390   28.1370   34.2680 F   0  0  0  0  0  0  0  0  0  0  0  0
   35.6430   27.5740   32.3610 F   0  0  0  0  0  0  0  0  0  0  0  0
   38.4379   22.5816   33.8550 H   0  0  0  0  0  0  0  0  0  0  0  0
   37.8683   23.3171   31.5823 H   0  0  0  0  0  0  0  0  0  0  0  0
   39.8392   22.6865   35.3572 H   0  0  0  0  0  0  0  0  0  0  0  0
   37.5029   24.6534   39.2843 H   0  0  0  0  0  0  0  0  0  0  0  0
   40.8149   21.5134   38.8567 H   0  0  0  0  0  0  0  0  0  0  0  0
   41.1764   21.2859   37.1246 H   0  0  0  0  0  0  0  0  0  0  0  0
  1  7  1  0
  2  1  2  0
  3  2  1  0
  4  3  2  0
  4  5  1  0
  5  6  2  0
  6  1  1  0
  7  8  2  0
  7 12  1  0
  8  9  1  0
  9 13  1  0
  9 10  2  0
 11 10  1  0
 12 11  2  0
 14  5  1  0
 14 16  1  0
 15 14  1  0
 17 14  1  0
  2 18  1  0
  3 19  1  0
  8 20  1  0
 11 21  1  0
 13 22  1  0
 13 23  1  0
M  ISO  4  18  14  19  14  20  14  21  14
M  END
>  <minimizedAffinity>  (1) 
-5.12050438

>  <minimizedRMSD>  (1) 
0.787199914

$$$$
