
     RDKit          3D

 32 33  0  0  0  0  0  0  0  0999 V2000
   37.9930   24.2510   34.6460 C   0  0  0  0  0  0  0  0  0  0  0  0
   38.0220   23.3030   33.6390 C   0  0  0  0  0  0  0  0  0  0  0  0
   37.7060   23.6160   32.3610 C   0  0  0  0  0  0  0  0  0  0  0  0
   37.3570   24.8840   32.0770 N   0  0  0  0  0  0  0  0  0  0  0  0
   37.3230   25.8240   33.0540 C   0  0  0  0  0  0  0  0  0  0  0  0
   37.6390   25.5100   34.3300 N   0  0  0  0  0  0  0  0  0  0  0  0
   38.3300   23.9270   36.0190 C   0  0  0  0  0  0  0  0  0  0  0  0
   39.3390   22.9930   36.2040 C   0  0  0  0  0  0  0  0  0  0  0  0
   39.6790   22.6690   37.5170 C   0  0  0  0  0  0  0  0  0  0  0  0
   39.0000   23.2860   38.5210 N   0  0  0  0  0  0  0  0  0  0  0  0
   38.0230   24.1900   38.3130 C   0  0  0  0  0  0  0  0  0  0  0  0
   37.7020   24.4970   37.0660 N   0  0  0  0  0  0  0  0  0  0  0  0
   40.6820   21.7390   37.9110 N   0  0  0  0  0  0  0  0  0  0  0  0
   36.9310   27.1990   32.6720 C   0  0  0  0  0  0  0  0  0  0  0  0
   35.7800   27.1270   31.7070 C   0  0  0  0  0  0  0  0  0  0  0  0
   36.5820   28.0670   33.8570 C   0  0  0  0  0  0  0  0  0  0  0  0
   38.1080   27.7760   31.8780 C   0  0  0  0  0  0  0  0  0  0  0  0
   38.3089   22.2695   33.8831 H   0  0  0  0  0  0  0  0  0  0  0  0
   37.7338   22.8505   31.5716 H   0  0  0  0  0  0  0  0  0  0  0  0
   39.8504   22.5266   35.3491 H   0  0  0  0  0  0  0  0  0  0  0  0
   37.5039   24.6622   39.1601 H   0  0  0  0  0  0  0  0  0  0  0  0
   40.8604   21.5667   38.9107 H   0  0  0  0  0  0  0  0  0  0  0  0
   41.2294   21.2384   37.1964 H   0  0  0  0  0  0  0  0  0  0  0  0
   34.8351   27.0679   32.2671 H   0  0  0  0  0  0  0  0  0  0  0  0
   35.7754   28.0266   31.0740 H   0  0  0  0  0  0  0  0  0  0  0  0
   35.8875   26.2338   31.0740 H   0  0  0  0  0  0  0  0  0  0  0  0
   36.8009   27.5226   34.7874 H   0  0  0  0  0  0  0  0  0  0  0  0
   37.1787   28.9905   33.8235 H   0  0  0  0  0  0  0  0  0  0  0  0
   35.5121   28.3204   33.8235 H   0  0  0  0  0  0  0  0  0  0  0  0
   38.8721   28.1506   32.5751 H   0  0  0  0  0  0  0  0  0  0  0  0
   38.5437   26.9893   31.2445 H   0  0  0  0  0  0  0  0  0  0  0  0
   37.7530   28.6022   31.2445 H   0  0  0  0  0  0  0  0  0  0  0  0
  1  7  1  0
  2  1  2  0
  3  2  1  0
  4  3  2  0
  4  5  1  0
  5  6  2  0
  6  1  1  0
  7  8  2  0
  7 12  1  0
  8  9  1  0
  9 13  1  0
  9 10  2  0
 11 10  1  0
 12 11  2  0
 14  5  1  0
 14 16  1  0
 15 14  1  0
 17 14  1  0
  2 18  1  0
  3 19  1  0
  8 20  1  0
 11 21  1  0
 13 22  1  0
 13 23  1  0
 15 24  1  0
 15 25  1  0
 15 26  1  0
 16 27  1  0
 16 28  1  0
 16 29  1  0
 17 30  1  0
 17 31  1  0
 17 32  1  0
M  ISO  8  18  14  19  14  20  14  21  14  24   8  25   8  26   8  27   8
M  ISO  5  28   8  29   8  30   8  31   8  32   8
M  END
>  <minimizedAffinity>  (1) 
-5.18959379

>  <minimizedRMSD>  (1) 
1.16608262

$$$$
