
     RDKit          3D

 22 23  0  0  0  0  0  0  0  0999 V2000
   38.3640   24.2460   36.2760 C   0  0  0  0  0  0  0  0  0  0  0  0
   39.3380   23.2640   36.3400 C   0  0  0  0  0  0  0  0  0  0  0  0
   39.6720   22.7510   37.5900 C   0  0  0  0  0  0  0  0  0  0  0  0
   39.0210   23.2450   38.6660 N   0  0  0  0  0  0  0  0  0  0  0  0
   38.0610   24.2130   38.5910 C   0  0  0  0  0  0  0  0  0  0  0  0
   37.7470   24.7000   37.3870 N   0  0  0  0  0  0  0  0  0  0  0  0
   40.6330   21.7550   37.8480 N   0  0  0  0  0  0  0  0  0  0  0  0
   38.0340   24.7610   34.9640 C   0  0  0  0  0  0  0  0  0  0  0  0
   38.2000   24.0030   33.8260 C   0  0  0  0  0  0  0  0  0  0  0  0
   37.8820   24.5050   32.5990 C   0  0  0  0  0  0  0  0  0  0  0  0
   37.3990   25.7720   32.5140 N   0  0  0  0  0  0  0  0  0  0  0  0
   37.2360   26.5160   33.6280 C   0  0  0  0  0  0  0  0  0  0  0  0
   37.5520   26.0100   34.8310 N   0  0  0  0  0  0  0  0  0  0  0  0
   36.7160   27.8780   33.5340 C   0  0  0  0  0  0  0  0  0  0  0  0
   36.1370   28.4440   34.4940 O   0  0  0  0  0  0  0  0  0  0  0  0
   39.8340   22.8994   35.4284 H   0  0  0  0  0  0  0  0  0  0  0  0
   37.5594   24.5821   39.4977 H   0  0  0  0  0  0  0  0  0  0  0  0
   40.8055   21.4439   38.8146 H   0  0  0  0  0  0  0  0  0  0  0  0
   41.1636   21.3374   37.0701 H   0  0  0  0  0  0  0  0  0  0  0  0
   38.5942   22.9794   33.9082 H   0  0  0  0  0  0  0  0  0  0  0  0
   38.0142   23.8947   31.6934 H   0  0  0  0  0  0  0  0  0  0  0  0
   36.8359   28.4274   32.5886 H   0  0  0  0  0  0  0  0  0  0  0  0
  1  2  2  0
  1  6  1  0
  2  3  1  0
  3  7  1  0
  3  4  2  0
  5  4  1  0
  6  5  2  0
  8  1  1  0
  9  8  2  0
 10  9  1  0
 11 10  2  0
 11 12  1  0
 12 13  2  0
 13  8  1  0
 14 12  1  0
 14 15  2  0
  2 16  1  0
  5 17  1  0
  7 18  1  0
  7 19  1  0
  9 20  1  0
 10 21  1  0
 14 22  1  0
M  ISO  5  16  14  17  14  20  14  21  14  22   6
M  END
>  <minimizedAffinity>  (1) 
-4.59957218

>  <minimizedRMSD>  (1) 
0.375703961

$$$$
