
     RDKit          3D

 28 30  0  0  0  0  0  0  0  0999 V2000
   37.9810   24.7020   35.0190 C   0  0  0  0  0  0  0  0  0  0  0  0
   38.0980   23.9310   33.8750 C   0  0  0  0  0  0  0  0  0  0  0  0
   37.7400   24.4240   32.6590 C   0  0  0  0  0  0  0  0  0  0  0  0
   37.2640   25.6880   32.5850 N   0  0  0  0  0  0  0  0  0  0  0  0
   37.1490   26.4370   33.6930 C   0  0  0  0  0  0  0  0  0  0  0  0
   37.4980   25.9670   34.9040 N   0  0  0  0  0  0  0  0  0  0  0  0
   38.3540   24.1950   36.3110 C   0  0  0  0  0  0  0  0  0  0  0  0
   39.3240   23.2240   36.3580 C   0  0  0  0  0  0  0  0  0  0  0  0
   39.6910   22.7280   37.6100 C   0  0  0  0  0  0  0  0  0  0  0  0
   39.0680   23.2360   38.7040 N   0  0  0  0  0  0  0  0  0  0  0  0
   38.1230   24.1830   38.6440 C   0  0  0  0  0  0  0  0  0  0  0  0
   37.7820   24.6480   37.4530 N   0  0  0  0  0  0  0  0  0  0  0  0
   40.6760   21.7230   37.8280 N   0  0  0  0  0  0  0  0  0  0  0  0
   36.5120   28.0990   33.5370 S   0  0  0  0  0  0  0  0  0  0  0  0
   35.9590   29.8090   30.1490 N   0  0  0  0  0  0  0  0  0  0  0  0
   35.7100   29.4210   31.4070 N   0  0  0  0  0  0  0  0  0  0  0  0
   36.7370   28.6730   31.8610 C   0  0  0  0  0  0  0  0  0  0  0  0
   37.6790   28.5850   30.8440 C   0  0  0  0  0  0  0  0  0  0  0  0
   37.1500   29.3150   29.7780 C   0  0  0  0  0  0  0  0  0  0  0  0
   38.4862   22.9046   33.9507 H   0  0  0  0  0  0  0  0  0  0  0  0
   37.8357   23.8069   31.7534 H   0  0  0  0  0  0  0  0  0  0  0  0
   39.7967   22.8491   35.4382 H   0  0  0  0  0  0  0  0  0  0  0  0
   37.6441   24.5633   39.5583 H   0  0  0  0  0  0  0  0  0  0  0  0
   40.8897   21.4105   38.7859 H   0  0  0  0  0  0  0  0  0  0  0  0
   41.1748   21.3086   37.0278 H   0  0  0  0  0  0  0  0  0  0  0  0
   35.3400   30.3891   29.5648 H   0  0  0  0  0  0  0  0  0  0  0  0
   38.6406   28.0517   30.8726 H   0  0  0  0  0  0  0  0  0  0  0  0
   37.6291   29.4607   28.7986 H   0  0  0  0  0  0  0  0  0  0  0  0
  1  7  1  0
  2  1  2  0
  3  2  1  0
  4  3  2  0
  4  5  1  0
  5  6  2  0
  6  1  1  0
  7  8  2  0
  7 12  1  0
  8  9  1  0
  9 13  1  0
  9 10  2  0
 11 10  1  0
 12 11  2  0
 14  5  1  0
 15 16  1  0
 16 17  2  0
 17 14  1  0
 18 17  1  0
 19 15  1  0
 19 18  2  0
  2 20  1  0
  3 21  1  0
  8 22  1  0
 11 23  1  0
 13 24  1  0
 13 25  1  0
 15 26  1  0
 18 27  1  0
 19 28  1  0
M  ISO  7  20  14  21  14  22  14  23  14  26   9  27  14  28  14
M  END
>  <minimizedAffinity>  (1) 
-5.36945391

>  <minimizedRMSD>  (1) 
0.695892513

$$$$
