
     RDKit          3D

 45 48  0  0  1  0  0  0  0  0999 V2000
   36.1880   29.3320   32.4820 C   0  0  0  0  0  0  0  0  0  0  0  0
   36.8780   28.3500   31.8030 C   0  0  0  0  0  0  0  0  0  0  0  0
   37.2650   27.2170   32.5180 C   0  0  0  0  0  0  0  0  0  0  0  0
   36.9640   27.0980   33.8560 C   0  0  0  0  0  0  0  0  0  0  0  0
   36.2800   28.0700   34.5330 C   0  0  0  0  0  0  0  0  0  0  0  0
   35.8850   29.1990   33.8480 C   0  0  0  0  0  0  0  0  0  0  0  0
   37.4640   25.8230   34.4270 C   0  0  0  0  0  0  0  0  0  0  0  0
   38.8910   25.8640   34.8340 C   0  0  2  0  0  0  0  0  0  0  0  0
   40.8820   23.1110   36.1990 C   0  0  0  0  0  0  0  0  0  0  0  0
   40.0760   22.6190   37.2730 C   0  0  0  0  0  0  0  0  0  0  0  0
   38.8360   23.2520   37.5130 C   0  0  0  0  0  0  0  0  0  0  0  0
   38.5190   24.2930   36.6840 N   0  0  0  0  0  0  0  0  0  0  0  0
   39.2980   24.7310   35.6850 C   0  0  0  0  0  0  0  0  0  0  0  0
   40.4810   24.1470   35.4350 N   0  0  0  0  0  0  0  0  0  0  0  0
   39.1310   27.1580   35.6340 C   0  0  0  0  0  0  0  0  0  0  0  0
   35.6830   30.7700   31.6220 S   0  0  0  0  0  0  0  0  0  0  0  0
   36.1580   30.6060   30.1770 O   0  0  0  0  0  0  0  0  0  0  0  0
   36.2940   31.9910   32.1840 O   0  0  0  0  0  0  0  0  0  0  0  0
   33.9460   30.9110   31.6260 C   0  0  0  0  0  0  0  0  0  0  0  0
   32.9640   30.4380   32.4070 N   0  0  0  0  0  0  0  0  0  0  0  0
   31.8080   30.8400   31.9740 O   0  0  0  0  0  0  0  0  0  0  0  0
   31.9690   31.5810   30.9090 C   0  0  0  0  0  0  0  0  0  0  0  0
   33.2730   31.6230   30.6990 N   0  0  0  0  0  0  0  0  0  0  0  0
   30.8990   32.2110   30.1430 C   0  0  0  0  0  0  0  0  0  0  0  0
   30.8470   31.9660   28.7870 C   0  0  0  0  0  0  0  0  0  0  0  0
   29.8140   32.5820   28.0770 C   0  0  0  0  0  0  0  0  0  0  0  0
   28.9350   33.3690   28.7270 N   0  0  0  0  0  0  0  0  0  0  0  0
   28.9950   33.6020   30.0510 C   0  0  0  0  0  0  0  0  0  0  0  0
   29.9980   33.0050   30.7430 N   0  0  0  0  0  0  0  0  0  0  0  0
   37.1150   28.4567   30.7341 H   0  0  0  0  0  0  0  0  0  0  0  0
   37.8152   26.4120   32.0088 H   0  0  0  0  0  0  0  0  0  0  0  0
   36.0499   27.9531   35.6023 H   0  0  0  0  0  0  0  0  0  0  0  0
   35.3333   29.9949   34.3698 H   0  0  0  0  0  0  0  0  0  0  0  0
   36.8584   25.5791   35.3123 H   0  0  0  0  0  0  0  0  0  0  0  0
   37.3799   25.0642   33.6351 H   0  0  0  0  0  0  0  0  0  0  0  0
   39.4857   25.8145   33.9100 H   0  0  0  0  0  0  0  0  0  0  0  0
   41.8510   22.6334   35.9915 H   0  0  0  0  0  0  0  0  0  0  0  0
   40.4110   21.7742   37.8928 H   0  0  0  0  0  0  0  0  0  0  0  0
   38.1637   22.9264   38.3205 H   0  0  0  0  0  0  0  0  0  0  0  0
   39.0899   26.9364   36.7107 H   0  0  0  0  0  0  0  0  0  0  0  0
   40.1203   27.5671   35.3814 H   0  0  0  0  0  0  0  0  0  0  0  0
   38.3542   27.8947   35.3814 H   0  0  0  0  0  0  0  0  0  0  0  0
   31.5828   31.3174   28.2891 H   0  0  0  0  0  0  0  0  0  0  0  0
   29.7187   32.4253   26.9924 H   0  0  0  0  0  0  0  0  0  0  0  0
   28.2608   34.2501   30.5519 H   0  0  0  0  0  0  0  0  0  0  0  0
  1  6  1  0
  2  1  2  0
  2  3  1  0
  3  4  2  0
  4  7  1  0
  4  5  1  0
  6  5  2  0
  7  8  1  0
  8 15  1  0
  8 13  1  0
  9 10  2  0
 10 11  1  0
 12 11  2  0
 13 12  1  0
 14 13  2  0
 14  9  1  0
 16 19  1  0
 16 18  2  0
 16  1  1  0
 17 16  2  0
 19 20  2  0
 21 20  1  0
 22 21  1  0
 23 22  2  0
 23 19  1  0
 24 29  1  0
 24 22  1  0
 25 24  2  0
 26 27  2  0
 26 25  1  0
 27 28  1  0
 28 29  2  0
  2 30  1  0
  3 31  1  0
  5 32  1  0
  6 33  1  0
  7 34  1  0
  7 35  1  0
  8 36  1  6
  9 37  1  0
 10 38  1  0
 11 39  1  0
 15 40  1  0
 15 41  1  0
 15 42  1  0
 25 43  1  0
 26 44  1  0
 28 45  1  0
M  ISO  8  30  14  31  14  32  14  33  14  34   8  35   8  36   8  37  14
M  ISO  8  38  14  39  14  40   8  41   8  42   8  43  14  44  14  45  14
M  END
>  <minimizedAffinity>  (1) 
-5.42752504

>  <minimizedRMSD>  (1) 
0.987202287

$$$$
