
     RDKit          3D

 28 30  0  0  0  0  0  0  0  0999 V2000
   37.8060   25.4950   35.2330 C   0  0  0  0  0  0  0  0  0  0  0  0
   37.8590   25.0050   33.9390 C   0  0  0  0  0  0  0  0  0  0  0  0
   37.4690   25.7910   32.8940 C   0  0  0  0  0  0  0  0  0  0  0  0
   37.0300   27.0540   33.1410 N   0  0  0  0  0  0  0  0  0  0  0  0
   36.9810   27.5220   34.3940 C   0  0  0  0  0  0  0  0  0  0  0  0
   37.3620   26.7630   35.4440 N   0  0  0  0  0  0  0  0  0  0  0  0
   38.2110   24.6850   36.3520 C   0  0  0  0  0  0  0  0  0  0  0  0
   39.0400   23.6210   36.0980 C   0  0  0  0  0  0  0  0  0  0  0  0
   39.4320   22.8350   37.1860 C   0  0  0  0  0  0  0  0  0  0  0  0
   38.9730   23.1690   38.4270 N   0  0  0  0  0  0  0  0  0  0  0  0
   38.1660   24.2120   38.6510 C   0  0  0  0  0  0  0  0  0  0  0  0
   37.7970   24.9530   37.6150 N   0  0  0  0  0  0  0  0  0  0  0  0
   40.2860   21.6990   37.0920 N   0  0  0  0  0  0  0  0  0  0  0  0
   36.3990   29.1770   34.6550 S   0  0  0  0  0  0  0  0  0  0  0  0
   34.7520   29.3290   34.2300 C   0  0  0  0  0  0  0  0  0  0  0  0
   33.5270   29.3820   34.8940 C   0  0  0  0  0  0  0  0  0  0  0  0
   32.3460   29.5140   34.2130 C   0  0  0  0  0  0  0  0  0  0  0  0
   32.4130   29.5980   32.8150 C   0  0  0  0  0  0  0  0  0  0  0  0
   34.2820   29.4760   32.5010 S   0  0  0  0  0  0  0  0  0  0  0  0
   38.2158   23.9812   33.7533 H   0  0  0  0  0  0  0  0  0  0  0  0
   37.5093   25.4074   31.8638 H   0  0  0  0  0  0  0  0  0  0  0  0
   39.3829   23.3952   35.0775 H   0  0  0  0  0  0  0  0  0  0  0  0
   37.8178   24.4487   39.6672 H   0  0  0  0  0  0  0  0  0  0  0  0
   40.5316   21.1678   37.9396 H   0  0  0  0  0  0  0  0  0  0  0  0
   40.6580   21.4087   36.1764 H   0  0  0  0  0  0  0  0  0  0  0  0
   33.5087   29.3162   35.9919 H   0  0  0  0  0  0  0  0  0  0  0  0
   31.3825   29.5526   34.7422 H   0  0  0  0  0  0  0  0  0  0  0  0
   31.5946   29.7065   32.0881 H   0  0  0  0  0  0  0  0  0  0  0  0
  1  6  1  0
  1  7  1  0
  2  1  2  0
  3  4  2  0
  3  2  1  0
  4  5  1  0
  5 14  1  0
  5  6  2  0
  7 12  1  0
  8  7  2  0
  8  9  1  0
  9 10  2  0
 10 11  1  0
 12 11  2  0
 13  9  1  0
 15 14  1  0
 15 16  2  0
 17 16  1  0
 18 17  2  0
 19 18  1  0
 19 15  1  0
  2 20  1  0
  3 21  1  0
  8 22  1  0
 11 23  1  0
 13 24  1  0
 13 25  1  0
 16 26  1  0
 17 27  1  0
 18 28  1  0
M  ISO  7  20  14  21  14  22  14  23  14  26  14  27  14  28  14
M  END
>  <minimizedAffinity>  (1) 
-4.66902876

>  <minimizedRMSD>  (1) 
0.986630499

$$$$
