
     RDKit          3D

 33 34  0  0  0  0  0  0  0  0999 V2000
   37.9410   25.0660   35.3350 C   0  0  0  0  0  0  0  0  0  0  0  0
   38.0700   24.4310   34.1110 C   0  0  0  0  0  0  0  0  0  0  0  0
   37.6680   25.0630   32.9620 C   0  0  0  0  0  0  0  0  0  0  0  0
   37.1470   26.3110   33.0390 N   0  0  0  0  0  0  0  0  0  0  0  0
   37.0240   26.9210   34.2300 C   0  0  0  0  0  0  0  0  0  0  0  0
   37.4160   26.3050   35.3560 N   0  0  0  0  0  0  0  0  0  0  0  0
   38.3580   24.4130   36.5480 C   0  0  0  0  0  0  0  0  0  0  0  0
   39.2810   23.4020   36.4590 C   0  0  0  0  0  0  0  0  0  0  0  0
   39.6780   22.7730   37.6380 C   0  0  0  0  0  0  0  0  0  0  0  0
   39.1180   23.2110   38.8030 N   0  0  0  0  0  0  0  0  0  0  0  0
   38.2160   24.2010   38.8760 C   0  0  0  0  0  0  0  0  0  0  0  0
   37.8490   24.7880   37.7490 N   0  0  0  0  0  0  0  0  0  0  0  0
   40.6140   21.7160   37.7320 N   0  0  0  0  0  0  0  0  0  0  0  0
   36.3320   28.5630   34.3100 S   0  0  0  0  0  0  0  0  0  0  0  0
   35.9590   29.2310   32.6970 C   0  0  0  0  0  0  0  0  0  0  0  0
   35.7440   30.7320   32.7200 C   0  0  0  0  0  0  0  0  0  0  0  0
   34.6040   28.6440   32.2790 C   0  0  0  0  0  0  0  0  0  0  0  0
   36.9550   28.9030   31.6270 C   0  0  0  0  0  0  0  0  0  0  0  0
   38.4956   23.4180   34.0602 H   0  0  0  0  0  0  0  0  0  0  0  0
   37.7677   24.5616   31.9880 H   0  0  0  0  0  0  0  0  0  0  0  0
   39.6953   23.0969   35.4867 H   0  0  0  0  0  0  0  0  0  0  0  0
   37.7948   24.5148   39.8425 H   0  0  0  0  0  0  0  0  0  0  0  0
   40.8451   21.3129   38.6513 H   0  0  0  0  0  0  0  0  0  0  0  0
   41.0643   21.3496   36.8812 H   0  0  0  0  0  0  0  0  0  0  0  0
   35.6942   31.0793   33.7625 H   0  0  0  0  0  0  0  0  0  0  0  0
   36.5800   31.2301   32.2071 H   0  0  0  0  0  0  0  0  0  0  0  0
   34.8018   30.9754   32.2071 H   0  0  0  0  0  0  0  0  0  0  0  0
   34.0211   28.3915   33.1770 H   0  0  0  0  0  0  0  0  0  0  0  0
   34.0528   29.3840   31.6802 H   0  0  0  0  0  0  0  0  0  0  0  0
   34.7669   27.7358   31.6802 H   0  0  0  0  0  0  0  0  0  0  0  0
   37.9023   28.5910   32.0910 H   0  0  0  0  0  0  0  0  0  0  0  0
   36.5661   28.0855   31.0022 H   0  0  0  0  0  0  0  0  0  0  0  0
   37.1279   29.7916   31.0022 H   0  0  0  0  0  0  0  0  0  0  0  0
  1  6  1  0
  1  7  1  0
  2  1  2  0
  3  4  2  0
  3  2  1  0
  4  5  1  0
  5 14  1  0
  5  6  2  0
  7 12  1  0
  8  7  2  0
  8  9  1  0
  9 13  1  0
  9 10  2  0
 10 11  1  0
 12 11  2  0
 15 16  1  0
 15 14  1  0
 17 15  1  0
 18 15  1  0
  2 19  1  0
  3 20  1  0
  8 21  1  0
 11 22  1  0
 13 23  1  0
 13 24  1  0
 16 25  1  0
 16 26  1  0
 16 27  1  0
 17 28  1  0
 17 29  1  0
 17 30  1  0
 18 31  1  0
 18 32  1  0
 18 33  1  0
M  ISO  8  19  14  20  14  21  14  22  14  25   8  26   8  27   8  28   8
M  ISO  5  29   8  30   8  31   8  32   8  33   8
M  END
>  <minimizedAffinity>  (1) 
-4.84053183

>  <minimizedRMSD>  (1) 
0.348975927

$$$$
