
     RDKit          3D

 26 28  0  0  0  0  0  0  0  0999 V2000
   38.0800   24.2340   34.5760 C   0  0  0  0  0  0  0  0  0  0  0  0
   37.8680   23.2390   33.6360 C   0  0  0  0  0  0  0  0  0  0  0  0
   37.5820   23.5680   32.3400 C   0  0  0  0  0  0  0  0  0  0  0  0
   37.5090   24.8750   31.9850 N   0  0  0  0  0  0  0  0  0  0  0  0
   37.7160   25.8320   32.9010 C   0  0  0  0  0  0  0  0  0  0  0  0
   38.0010   25.5330   34.1900 N   0  0  0  0  0  0  0  0  0  0  0  0
   38.3820   23.9120   35.9470 C   0  0  0  0  0  0  0  0  0  0  0  0
   39.3700   22.9910   36.1770 C   0  0  0  0  0  0  0  0  0  0  0  0
   39.6640   22.6790   37.5110 C   0  0  0  0  0  0  0  0  0  0  0  0
   38.9510   23.3080   38.4880 N   0  0  0  0  0  0  0  0  0  0  0  0
   37.9890   24.2060   38.2430 C   0  0  0  0  0  0  0  0  0  0  0  0
   37.7200   24.4940   36.9780 N   0  0  0  0  0  0  0  0  0  0  0  0
   40.6560   21.7480   37.9200 N   0  0  0  0  0  0  0  0  0  0  0  0
   37.6140   27.5290   32.3970 S   0  0  0  0  0  0  0  0  0  0  0  0
   36.2190   28.3620   33.1280 C   0  0  0  0  0  0  0  0  0  0  0  0
   35.9220   28.8300   34.3450 N   0  0  0  0  0  0  0  0  0  0  0  0
   34.7320   29.3480   34.2650 O   0  0  0  0  0  0  0  0  0  0  0  0
   34.2300   29.2480   33.0660 C   0  0  0  0  0  0  0  0  0  0  0  0
   35.1720   28.6200   32.3330 N   0  0  0  0  0  0  0  0  0  0  0  0
   37.9299   22.1816   33.9328 H   0  0  0  0  0  0  0  0  0  0  0  0
   37.4126   22.7796   31.5919 H   0  0  0  0  0  0  0  0  0  0  0  0
   39.9116   22.5148   35.3464 H   0  0  0  0  0  0  0  0  0  0  0  0
   37.4399   24.6889   39.0648 H   0  0  0  0  0  0  0  0  0  0  0  0
   40.8145   21.5714   38.9223 H   0  0  0  0  0  0  0  0  0  0  0  0
   41.2167   21.2496   37.2143 H   0  0  0  0  0  0  0  0  0  0  0  0
   33.2459   29.6012   32.7243 H   0  0  0  0  0  0  0  0  0  0  0  0
  1  7  1  0
  2  1  2  0
  3  2  1  0
  4  3  2  0
  4  5  1  0
  5  6  2  0
  6  1  1  0
  7  8  2  0
  7 12  1  0
  8  9  1  0
  9 13  1  0
  9 10  2  0
 11 10  1  0
 12 11  2  0
 14  5  1  0
 14 15  1  0
 15 16  2  0
 17 16  1  0
 18 17  1  0
 19 18  2  0
 19 15  1  0
  2 20  1  0
  3 21  1  0
  8 22  1  0
 11 23  1  0
 13 24  1  0
 13 25  1  0
 18 26  1  0
M  ISO  5  20  14  21  14  22  14  23  14  26  14
M  END
>  <minimizedAffinity>  (1) 
-5.13413143

>  <minimizedRMSD>  (1) 
1.47937655

$$$$
