
     RDKit          3D

 39 42  0  0  0  0  0  0  0  0999 V2000
   38.3910   26.1160   33.9990 C   0  0  0  0  0  0  0  0  0  0  0  0
   39.4120   26.3310   33.1070 C   0  0  0  0  0  0  0  0  0  0  0  0
   39.2290   27.1950   32.0610 C   0  0  0  0  0  0  0  0  0  0  0  0
   38.0430   27.8370   31.9080 N   0  0  0  0  0  0  0  0  0  0  0  0
   37.0380   27.6190   32.7940 C   0  0  0  0  0  0  0  0  0  0  0  0
   37.2410   26.7720   33.8040 N   0  0  0  0  0  0  0  0  0  0  0  0
   38.5320   25.2260   35.1070 C   0  0  0  0  0  0  0  0  0  0  0  0
   39.6310   24.4050   35.1490 C   0  0  0  0  0  0  0  0  0  0  0  0
   39.7820   23.5360   36.2210 C   0  0  0  0  0  0  0  0  0  0  0  0
   38.8240   23.5420   37.1840 N   0  0  0  0  0  0  0  0  0  0  0  0
   37.7420   24.3510   37.1420 C   0  0  0  0  0  0  0  0  0  0  0  0
   37.6190   25.1710   36.1100 N   0  0  0  0  0  0  0  0  0  0  0  0
   40.8520   22.6400   36.3990 N   0  0  0  0  0  0  0  0  0  0  0  0
   35.5160   28.4830   32.5480 S   0  0  0  0  0  0  0  0  0  0  0  0
   35.0230   29.5210   33.8830 C   0  0  0  0  0  0  0  0  0  0  0  0
   35.7160   30.4480   34.6140 C   0  0  0  0  0  0  0  0  0  0  0  0
   35.0970   31.1550   35.6180 C   0  0  0  0  0  0  0  0  0  0  0  0
   33.8240   30.9620   35.9090 N   0  0  0  0  0  0  0  0  0  0  0  0
   33.1150   30.0370   35.1860 C   0  0  0  0  0  0  0  0  0  0  0  0
   33.7040   29.3200   34.1820 N   0  0  0  0  0  0  0  0  0  0  0  0
   31.6840   29.8230   35.5140 C   0  0  0  0  0  0  0  0  0  0  0  0
   31.0770   28.6730   35.1370 C   0  0  0  0  0  0  0  0  0  0  0  0
   29.7250   28.4670   35.4440 C   0  0  0  0  0  0  0  0  0  0  0  0
   29.1180   29.4990   36.1320 C   0  0  0  0  0  0  0  0  0  0  0  0
   29.6780   30.6910   36.5450 C   0  0  0  0  0  0  0  0  0  0  0  0
   31.0200   30.8220   36.2030 C   0  0  0  0  0  0  0  0  0  0  0  0
   40.3733   25.8112   33.2322 H   0  0  0  0  0  0  0  0  0  0  0  0
   40.0444   27.3692   31.3435 H   0  0  0  0  0  0  0  0  0  0  0  0
   40.3812   24.4351   34.3450 H   0  0  0  0  0  0  0  0  0  0  0  0
   36.9865   24.3287   37.9412 H   0  0  0  0  0  0  0  0  0  0  0  0
   40.8808   22.0306   37.2289 H   0  0  0  0  0  0  0  0  0  0  0  0
   41.6065   22.5934   35.6994 H   0  0  0  0  0  0  0  0  0  0  0  0
   36.7789   30.6292   34.3961 H   0  0  0  0  0  0  0  0  0  0  0  0
   35.6743   31.8963   36.1901 H   0  0  0  0  0  0  0  0  0  0  0  0
   31.6428   27.9032   34.5918 H   0  0  0  0  0  0  0  0  0  0  0  0
   29.1873   27.5510   35.1580 H   0  0  0  0  0  0  0  0  0  0  0  0
   28.0567   29.3530   36.3818 H   0  0  0  0  0  0  0  0  0  0  0  0
   29.1171   31.4631   37.0920 H   0  0  0  0  0  0  0  0  0  0  0  0
   31.5628   31.7361   36.4854 H   0  0  0  0  0  0  0  0  0  0  0  0
  1  7  1  0
  2  1  2  0
  3  2  1  0
  4  3  2  0
  4  5  1  0
  5  6  2  0
  6  1  1  0
  7  8  2  0
  7 12  1  0
  8  9  1  0
  9 13  1  0
  9 10  2  0
 11 10  1  0
 12 11  2  0
 14  5  1  0
 14 15  1  0
 15 20  1  0
 15 16  2  0
 16 17  1  0
 17 18  2  0
 19 21  1  0
 19 18  1  0
 20 19  2  0
 21 26  2  0
 22 23  2  0
 22 21  1  0
 23 24  1  0
 24 25  2  0
 26 25  1  0
  2 27  1  0
  3 28  1  0
  8 29  1  0
 11 30  1  0
 13 31  1  0
 13 32  1  0
 16 33  1  0
 17 34  1  0
 22 35  1  0
 23 36  1  0
 24 37  1  0
 25 38  1  0
 26 39  1  0
M  ISO  8  27  14  28  14  29  14  30  14  33  14  34  14  35  14  36  14
M  ISO  3  37  14  38  14  39  14
M  END
>  <minimizedAffinity>  (1) 
-5.41577816

>  <minimizedRMSD>  (1) 
1.42702675

$$$$
