
     RDKit          3D

 42 45  0  0  0  0  0  0  0  0999 V2000
   38.0210   26.5140   33.7020 C   0  0  0  0  0  0  0  0  0  0  0  0
   38.8160   26.6780   32.5950 C   0  0  0  0  0  0  0  0  0  0  0  0
   38.4630   27.5810   31.6280 C   0  0  0  0  0  0  0  0  0  0  0  0
   37.3250   28.3100   31.7710 N   0  0  0  0  0  0  0  0  0  0  0  0
   36.5460   28.1430   32.8660 C   0  0  0  0  0  0  0  0  0  0  0  0
   36.9080   27.2500   33.8060 N   0  0  0  0  0  0  0  0  0  0  0  0
   38.3560   25.5820   34.7340 C   0  0  0  0  0  0  0  0  0  0  0  0
   39.3800   24.6960   34.5160 C   0  0  0  0  0  0  0  0  0  0  0  0
   39.7040   23.7940   35.5190 C   0  0  0  0  0  0  0  0  0  0  0  0
   38.9830   23.8320   36.6800 N   0  0  0  0  0  0  0  0  0  0  0  0
   37.9830   24.7010   36.8860 C   0  0  0  0  0  0  0  0  0  0  0  0
   37.6850   25.5580   35.9180 N   0  0  0  0  0  0  0  0  0  0  0  0
   40.7280   22.8270   35.4390 N   0  0  0  0  0  0  0  0  0  0  0  0
   35.0790   29.1230   32.9920 S   0  0  0  0  0  0  0  0  0  0  0  0
   34.9930   30.1540   34.4140 C   0  0  0  0  0  0  0  0  0  0  0  0
   35.9320   30.9500   35.0150 C   0  0  0  0  0  0  0  0  0  0  0  0
   35.6090   31.6880   36.1350 C   0  0  0  0  0  0  0  0  0  0  0  0
   34.4000   31.6560   36.6650 N   0  0  0  0  0  0  0  0  0  0  0  0
   33.4550   30.8610   36.0680 C   0  0  0  0  0  0  0  0  0  0  0  0
   33.7460   30.1310   34.9730 N   0  0  0  0  0  0  0  0  0  0  0  0
   32.1290   30.8190   36.6400 N   0  0  0  0  0  0  0  0  0  0  0  0
   31.3120   32.0130   36.7570 C   0  0  0  0  0  0  0  0  0  0  0  0
   29.9710   31.6630   36.0980 C   0  0  0  0  0  0  0  0  0  0  0  0
   29.4350   30.5450   36.6870 O   0  0  0  0  0  0  0  0  0  0  0  0
   30.1970   29.3970   36.5700 C   0  0  0  0  0  0  0  0  0  0  0  0
   31.6010   29.5550   37.1100 C   0  0  0  0  0  0  0  0  0  0  0  0
   39.7357   26.0846   32.4848 H   0  0  0  0  0  0  0  0  0  0  0  0
   39.0976   27.7157   30.7396 H   0  0  0  0  0  0  0  0  0  0  0  0
   39.9331   24.7005   33.5652 H   0  0  0  0  0  0  0  0  0  0  0  0
   37.4239   24.7034   37.8333 H   0  0  0  0  0  0  0  0  0  0  0  0
   40.9022   22.1944   36.2330 H   0  0  0  0  0  0  0  0  0  0  0  0
   41.3015   22.7535   34.5866 H   0  0  0  0  0  0  0  0  0  0  0  0
   36.9502   31.0011   34.6019 H   0  0  0  0  0  0  0  0  0  0  0  0
   36.3799   32.3205   36.5993 H   0  0  0  0  0  0  0  0  0  0  0  0
   31.1631   32.2740   37.8152 H   0  0  0  0  0  0  0  0  0  0  0  0
   31.7877   32.8800   36.2753 H   0  0  0  0  0  0  0  0  0  0  0  0
   30.1312   31.4690   35.0272 H   0  0  0  0  0  0  0  0  0  0  0  0
   29.2758   32.5060   36.2251 H   0  0  0  0  0  0  0  0  0  0  0  0
   29.6982   28.5885   37.1246 H   0  0  0  0  0  0  0  0  0  0  0  0
   30.2835   29.1705   35.4970 H   0  0  0  0  0  0  0  0  0  0  0  0
   32.2334   28.7304   36.7492 H   0  0  0  0  0  0  0  0  0  0  0  0
   31.5888   29.5346   38.2097 H   0  0  0  0  0  0  0  0  0  0  0  0
  1  6  1  0
  1  7  1  0
  2  1  2  0
  3  4  2  0
  3  2  1  0
  4  5  1  0
  5 14  1  0
  5  6  2  0
  7 12  1  0
  8  7  2  0
  8  9  1  0
  9 10  2  0
 10 11  1  0
 12 11  2  0
 13  9  1  0
 14 15  1  0
 15 20  1  0
 15 16  2  0
 16 17  1  0
 17 18  2  0
 19 21  1  0
 19 18  1  0
 20 19  2  0
 21 22  1  0
 21 26  1  0
 23 24  1  0
 23 22  1  0
 25 24  1  0
 25 26  1  0
  2 27  1  0
  3 28  1  0
  8 29  1  0
 11 30  1  0
 13 31  1  0
 13 32  1  0
 16 33  1  0
 17 34  1  0
 22 35  1  0
 22 36  1  0
 23 37  1  0
 23 38  1  0
 25 39  1  0
 25 40  1  0
 26 41  1  0
 26 42  1  0
M  ISO  8  27  14  28  14  29  14  30  14  33  14  34  14  35  13  36  13
M  ISO  6  37  13  38  13  39  13  40  13  41  13  42  13
M  END
>  <minimizedAffinity>  (1) 
-5.56752634

>  <minimizedRMSD>  (1) 
0.325147867

$$$$
