
     RDKit          3D

 42 45  0  0  0  0  0  0  0  0999 V2000
   38.4220   26.0980   33.9890 C   0  0  0  0  0  0  0  0  0  0  0  0
   39.4530   26.3200   33.1110 C   0  0  0  0  0  0  0  0  0  0  0  0
   39.2820   27.1780   32.0600 C   0  0  0  0  0  0  0  0  0  0  0  0
   38.0900   27.8080   31.8870 N   0  0  0  0  0  0  0  0  0  0  0  0
   37.0780   27.5840   32.7560 C   0  0  0  0  0  0  0  0  0  0  0  0
   37.2670   26.7380   33.7810 N   0  0  0  0  0  0  0  0  0  0  0  0
   38.5560   25.2110   35.1030 C   0  0  0  0  0  0  0  0  0  0  0  0
   39.6490   24.3820   35.1510 C   0  0  0  0  0  0  0  0  0  0  0  0
   39.7800   23.5230   36.2360 C   0  0  0  0  0  0  0  0  0  0  0  0
   38.8130   23.5480   37.1950 N   0  0  0  0  0  0  0  0  0  0  0  0
   37.7470   24.3590   37.1440 C   0  0  0  0  0  0  0  0  0  0  0  0
   37.6380   25.1730   36.1020 N   0  0  0  0  0  0  0  0  0  0  0  0
   40.8570   22.6170   36.4090 N   0  0  0  0  0  0  0  0  0  0  0  0
   35.5540   28.4380   32.4740 S   0  0  0  0  0  0  0  0  0  0  0  0
   35.0380   29.4830   33.8020 C   0  0  0  0  0  0  0  0  0  0  0  0
   35.7300   30.4190   34.5580 C   0  0  0  0  0  0  0  0  0  0  0  0
   35.0660   31.1050   35.5390 C   0  0  0  0  0  0  0  0  0  0  0  0
   33.7840   30.9120   35.8020 N   0  0  0  0  0  0  0  0  0  0  0  0
   33.1020   29.9970   35.0660 C   0  0  0  0  0  0  0  0  0  0  0  0
   33.7110   29.2820   34.0720 N   0  0  0  0  0  0  0  0  0  0  0  0
   31.6650   29.8400   35.4230 C   0  0  0  0  0  0  0  0  0  0  0  0
   31.1430   28.4570   35.1440 C   0  0  0  0  0  0  0  0  0  0  0  0
   31.3780   27.6590   36.4070 C   0  0  0  0  0  0  0  0  0  0  0  0
   31.4650   28.6830   37.5190 C   0  0  0  0  0  0  0  0  0  0  0  0
   31.3810   30.0460   36.8660 C   0  0  0  0  0  0  0  0  0  0  0  0
   40.4163   25.8081   33.2525 H   0  0  0  0  0  0  0  0  0  0  0  0
   40.1076   27.3580   31.3558 H   0  0  0  0  0  0  0  0  0  0  0  0
   40.4030   24.3971   34.3502 H   0  0  0  0  0  0  0  0  0  0  0  0
   36.9876   24.3500   37.9398 H   0  0  0  0  0  0  0  0  0  0  0  0
   40.8899   22.0086   37.2395 H   0  0  0  0  0  0  0  0  0  0  0  0
   41.6065   22.5673   35.7042 H   0  0  0  0  0  0  0  0  0  0  0  0
   36.7976   30.6070   34.3714 H   0  0  0  0  0  0  0  0  0  0  0  0
   35.6208   31.8466   36.1325 H   0  0  0  0  0  0  0  0  0  0  0  0
   31.1799   30.6074   34.8019 H   0  0  0  0  0  0  0  0  0  0  0  0
   30.0688   28.4941   34.9099 H   0  0  0  0  0  0  0  0  0  0  0  0
   31.6500   28.0021   34.2803 H   0  0  0  0  0  0  0  0  0  0  0  0
   30.5422   26.9666   36.5859 H   0  0  0  0  0  0  0  0  0  0  0  0
   32.2903   27.0480   36.3411 H   0  0  0  0  0  0  0  0  0  0  0  0
   30.6310   28.5486   38.2236 H   0  0  0  0  0  0  0  0  0  0  0  0
   32.4023   28.5732   38.0842 H   0  0  0  0  0  0  0  0  0  0  0  0
   32.1256   30.7252   37.3068 H   0  0  0  0  0  0  0  0  0  0  0  0
   30.3897   30.4986   37.0158 H   0  0  0  0  0  0  0  0  0  0  0  0
  1  7  1  0
  2  1  2  0
  3  2  1  0
  4  3  2  0
  4  5  1  0
  5  6  2  0
  6  1  1  0
  7  8  2  0
  7 12  1  0
  8  9  1  0
  9 13  1  0
  9 10  2  0
 11 10  1  0
 12 11  2  0
 14  5  1  0
 14 15  1  0
 15 20  1  0
 15 16  2  0
 16 17  1  0
 17 18  2  0
 19 21  1  0
 19 18  1  0
 20 19  2  0
 21 25  1  0
 22 21  1  0
 22 23  1  0
 23 24  1  0
 25 24  1  0
  2 26  1  0
  3 27  1  0
  8 28  1  0
 11 29  1  0
 13 30  1  0
 13 31  1  0
 16 32  1  0
 17 33  1  0
 21 34  1  0
 22 35  1  0
 22 36  1  0
 23 37  1  0
 23 38  1  0
 24 39  1  0
 24 40  1  0
 25 41  1  0
 25 42  1  0
M  ISO  8  26  14  27  14  28  14  29  14  32  14  33  14  34  13  35  13
M  ISO  7  36  13  37  13  38  13  39  13  40  13  41  13  42  13
M  END
>  <minimizedAffinity>  (1) 
-5.5246129

>  <minimizedRMSD>  (1) 
1.56245697

$$$$
