
     RDKit          3D

 37 40  0  0  0  0  0  0  0  0999 V2000
   37.4070   26.4370   34.1090 C   0  0  0  0  0  0  0  0  0  0  0  0
   37.6940   26.4270   32.7660 C   0  0  0  0  0  0  0  0  0  0  0  0
   37.2730   27.4530   31.9670 C   0  0  0  0  0  0  0  0  0  0  0  0
   36.5710   28.4820   32.5080 N   0  0  0  0  0  0  0  0  0  0  0  0
   36.2920   28.4860   33.8290 C   0  0  0  0  0  0  0  0  0  0  0  0
   36.7130   27.4700   34.5960 N   0  0  0  0  0  0  0  0  0  0  0  0
   37.8320   25.3830   34.9770 C   0  0  0  0  0  0  0  0  0  0  0  0
   38.3460   24.2400   34.4190 C   0  0  0  0  0  0  0  0  0  0  0  0
   38.7640   23.2140   35.2570 C   0  0  0  0  0  0  0  0  0  0  0  0
   38.6390   23.4040   36.5980 N   0  0  0  0  0  0  0  0  0  0  0  0
   38.1310   24.5310   37.1510 C   0  0  0  0  0  0  0  0  0  0  0  0
   37.7410   25.4930   36.3300 N   0  0  0  0  0  0  0  0  0  0  0  0
   39.3100   21.9950   34.8350 N   0  0  0  0  0  0  0  0  0  0  0  0
   35.3750   29.8590   34.4640 S   0  0  0  0  0  0  0  0  0  0  0  0
   33.6630   29.8570   34.0870 C   0  0  0  0  0  0  0  0  0  0  0  0
   32.9900   30.2010   32.9440 C   0  0  0  0  0  0  0  0  0  0  0  0
   31.6130   30.1010   32.8800 C   0  0  0  0  0  0  0  0  0  0  0  0
   30.9070   29.6750   33.9100 N   0  0  0  0  0  0  0  0  0  0  0  0
   31.5690   29.3270   35.0600 C   0  0  0  0  0  0  0  0  0  0  0  0
   32.9190   29.4170   35.1460 N   0  0  0  0  0  0  0  0  0  0  0  0
   30.7770   28.8490   36.2160 C   0  0  0  0  0  0  0  0  0  0  0  0
   31.3150   27.9210   37.0610 C   0  0  0  0  0  0  0  0  0  0  0  0
   30.5420   27.4920   38.1420 C   0  0  0  0  0  0  0  0  0  0  0  0
   29.3030   27.9580   38.3720 N   0  0  0  0  0  0  0  0  0  0  0  0
   28.8070   28.8720   37.5150 C   0  0  0  0  0  0  0  0  0  0  0  0
   29.5340   29.3140   36.4490 N   0  0  0  0  0  0  0  0  0  0  0  0
   38.2637   25.5918   32.3325 H   0  0  0  0  0  0  0  0  0  0  0  0
   37.5017   27.4453   30.8911 H   0  0  0  0  0  0  0  0  0  0  0  0
   38.4258   24.1377   33.3267 H   0  0  0  0  0  0  0  0  0  0  0  0
   38.0457   24.6427   38.2420 H   0  0  0  0  0  0  0  0  0  0  0  0
   39.5933   21.2895   35.5299 H   0  0  0  0  0  0  0  0  0  0  0  0
   39.4282   21.8041   33.8298 H   0  0  0  0  0  0  0  0  0  0  0  0
   33.5512   30.5603   32.0688 H   0  0  0  0  0  0  0  0  0  0  0  0
   31.0950   30.3824   31.9513 H   0  0  0  0  0  0  0  0  0  0  0  0
   32.3271   27.5232   36.8951 H   0  0  0  0  0  0  0  0  0  0  0  0
   30.9631   26.7448   38.8308 H   0  0  0  0  0  0  0  0  0  0  0  0
   27.7946   29.2699   37.6786 H   0  0  0  0  0  0  0  0  0  0  0  0
  1  6  1  0
  1  7  1  0
  2  1  2  0
  3  4  2  0
  3  2  1  0
  4  5  1  0
  5 14  1  0
  5  6  2  0
  7 12  1  0
  8  7  2  0
  8  9  1  0
  9 10  2  0
 10 11  1  0
 12 11  2  0
 13  9  1  0
 15 14  1  0
 15 20  1  0
 16 15  2  0
 17 16  1  0
 17 18  2  0
 18 19  1  0
 19 20  2  0
 19 21  1  0
 21 26  1  0
 21 22  2  0
 22 23  1  0
 23 24  2  0
 25 24  1  0
 26 25  2  0
  2 27  1  0
  3 28  1  0
  8 29  1  0
 11 30  1  0
 13 31  1  0
 13 32  1  0
 16 33  1  0
 17 34  1  0
 22 35  1  0
 23 36  1  0
 25 37  1  0
M  ISO  8  27  14  28  14  29  14  30  14  33  14  34  14  35  14  36  14
M  ISO  1  37  14
M  END
>  <minimizedAffinity>  (1) 
-5.32581186

>  <minimizedRMSD>  (1) 
2.36978984

$$$$
