
     RDKit          3D

 32 34  0  0  0  0  0  0  0  0999 V2000
   38.0060   26.5350   33.7860 C   0  0  0  0  0  0  0  0  0  0  0  0
   38.7830   26.7080   32.6690 C   0  0  0  0  0  0  0  0  0  0  0  0
   38.4160   27.6130   31.7160 C   0  0  0  0  0  0  0  0  0  0  0  0
   37.2800   28.3380   31.8790 N   0  0  0  0  0  0  0  0  0  0  0  0
   36.5170   28.1670   32.9810 C   0  0  0  0  0  0  0  0  0  0  0  0
   36.9010   27.2750   33.8950 N   0  0  0  0  0  0  0  0  0  0  0  0
   38.3540   25.5990   34.8090 C   0  0  0  0  0  0  0  0  0  0  0  0
   39.5220   24.8850   34.6810 C   0  0  0  0  0  0  0  0  0  0  0  0
   39.8610   23.9740   35.6820 C   0  0  0  0  0  0  0  0  0  0  0  0
   39.0140   23.8390   36.7360 N   0  0  0  0  0  0  0  0  0  0  0  0
   37.8680   24.5440   36.8560 C   0  0  0  0  0  0  0  0  0  0  0  0
   37.5600   25.4060   35.8980 N   0  0  0  0  0  0  0  0  0  0  0  0
   41.0170   23.1900   35.6820 N   0  0  0  0  0  0  0  0  0  0  0  0
   35.0490   29.1470   33.1320 S   0  0  0  0  0  0  0  0  0  0  0  0
   35.0050   30.2030   34.5280 C   0  0  0  0  0  0  0  0  0  0  0  0
   35.9700   31.0160   35.0970 C   0  0  0  0  0  0  0  0  0  0  0  0
   35.6610   31.7720   36.2060 C   0  0  0  0  0  0  0  0  0  0  0  0
   34.4430   31.7500   36.7600 N   0  0  0  0  0  0  0  0  0  0  0  0
   33.5080   30.9540   36.1980 C   0  0  0  0  0  0  0  0  0  0  0  0
   33.7660   30.1950   35.1110 N   0  0  0  0  0  0  0  0  0  0  0  0
   32.1840   30.9950   36.8870 C   0  0  0  0  0  0  0  0  0  0  0  0
   32.3390   30.2510   38.0540 F   0  0  0  0  0  0  0  0  0  0  0  0
   31.8220   32.2600   37.2230 F   0  0  0  0  0  0  0  0  0  0  0  0
   31.1790   30.4600   36.1060 F   0  0  0  0  0  0  0  0  0  0  0  0
   39.7020   26.1171   32.5414 H   0  0  0  0  0  0  0  0  0  0  0  0
   39.0379   27.7544   30.8197 H   0  0  0  0  0  0  0  0  0  0  0  0
   40.1754   25.0289   33.8079 H   0  0  0  0  0  0  0  0  0  0  0  0
   37.2084   24.4062   37.7254 H   0  0  0  0  0  0  0  0  0  0  0  0
   41.1976   22.5387   36.4592 H   0  0  0  0  0  0  0  0  0  0  0  0
   41.6889   23.2632   34.9048 H   0  0  0  0  0  0  0  0  0  0  0  0
   36.9806   31.0582   34.6647 H   0  0  0  0  0  0  0  0  0  0  0  0
   36.4378   32.4124   36.6492 H   0  0  0  0  0  0  0  0  0  0  0  0
  1  6  1  0
  1  7  1  0
  2  1  2  0
  3  4  2  0
  3  2  1  0
  4  5  1  0
  5 14  1  0
  5  6  2  0
  7 12  1  0
  8  7  2  0
  8  9  1  0
  9 13  1  0
  9 10  2  0
 10 11  1  0
 12 11  2  0
 14 15  1  0
 15 16  2  0
 15 20  1  0
 16 17  1  0
 17 18  2  0
 19 18  1  0
 19 21  1  0
 20 19  2  0
 21 23  1  0
 21 22  1  0
 24 21  1  0
  2 25  1  0
  3 26  1  0
  8 27  1  0
 11 28  1  0
 13 29  1  0
 13 30  1  0
 16 31  1  0
 17 32  1  0
M  ISO  6  25  14  26  14  27  14  28  14  31  14  32  14
M  END
>  <minimizedAffinity>  (1) 
-5.27059555

>  <minimizedRMSD>  (1) 
0.558679163

$$$$
