
     RDKit          3D

 36 37  0  0  0  0  0  0  0  0999 V2000
   38.3760   23.1120   35.9340 C   0  0  0  0  0  0  0  0  0  0  0  0
   39.8190   22.8700   36.2280 C   0  0  0  0  0  0  0  0  0  0  0  0
   40.7030   23.7700   35.6310 C   0  0  0  0  0  0  0  0  0  0  0  0
   42.0710   23.5830   35.8610 C   0  0  0  0  0  0  0  0  0  0  0  0
   42.4670   22.5290   36.6560 N   0  0  0  0  0  0  0  0  0  0  0  0
   41.5700   21.6750   37.2180 C   0  0  0  0  0  0  0  0  0  0  0  0
   40.2490   21.8460   37.0040 N   0  0  0  0  0  0  0  0  0  0  0  0
   38.2110   24.3810   35.1300 C   0  0  0  0  0  0  0  0  0  0  0  0
   37.6050   23.3850   37.2250 C   0  0  0  0  0  0  0  0  0  0  0  0
   37.7770   21.9660   35.2540 C   0  0  0  0  0  0  0  0  0  0  0  0
   37.7340   21.8610   33.8560 N   0  0  0  0  0  0  0  0  0  0  0  0
   38.7960   21.3440   33.1280 C   0  0  0  0  0  0  0  0  0  0  0  0
   38.4880   20.3860   32.0150 C   0  0  0  0  0  0  0  0  0  0  0  0
   37.1550   20.4550   31.4970 N   0  0  0  0  0  0  0  0  0  0  0  0
   36.3140   20.1990   32.6800 C   0  0  0  0  0  0  0  0  0  0  0  0
   36.4050   21.4740   33.4630 C   0  0  0  0  0  0  0  0  0  0  0  0
   40.3381   24.5960   35.0028 H   0  0  0  0  0  0  0  0  0  0  0  0
   42.8137   24.2623   35.4171 H   0  0  0  0  0  0  0  0  0  0  0  0
   41.9218   20.8443   37.8474 H   0  0  0  0  0  0  0  0  0  0  0  0
   38.0998   25.2360   35.8131 H   0  0  0  0  0  0  0  0  0  0  0  0
   39.0972   24.5311   34.4959 H   0  0  0  0  0  0  0  0  0  0  0  0
   37.3159   24.2995   34.4959 H   0  0  0  0  0  0  0  0  0  0  0  0
   38.2459   23.1581   38.0898 H   0  0  0  0  0  0  0  0  0  0  0  0
   37.3069   24.4433   37.2572 H   0  0  0  0  0  0  0  0  0  0  0  0
   36.7073   22.7501   37.2572 H   0  0  0  0  0  0  0  0  0  0  0  0
   38.3214   21.0793   35.6110 H   0  0  0  0  0  0  0  0  0  0  0  0
   36.7127   22.0835   35.5057 H   0  0  0  0  0  0  0  0  0  0  0  0
   39.3351   22.1953   32.6868 H   0  0  0  0  0  0  0  0  0  0  0  0
   39.3624   20.7452   33.8565 H   0  0  0  0  0  0  0  0  0  0  0  0
   39.1844   20.5907   31.1885 H   0  0  0  0  0  0  0  0  0  0  0  0
   38.5950   19.3786   32.4437 H   0  0  0  0  0  0  0  0  0  0  0  0
   36.9611   21.3862   31.1017 H   0  0  0  0  0  0  0  0  0  0  0  0
   35.2745   19.9930   32.3852 H   0  0  0  0  0  0  0  0  0  0  0  0
   36.6431   19.3210   33.2552 H   0  0  0  0  0  0  0  0  0  0  0  0
   35.9841   22.2820   32.8466 H   0  0  0  0  0  0  0  0  0  0  0  0
   35.8510   21.2976   34.3968 H   0  0  0  0  0  0  0  0  0  0  0  0
  1  2  1  0
  1  9  1  0
  2  7  2  0
  3  4  2  0
  3  2  1  0
  4  5  1  0
  5  6  2  0
  7  6  1  0
  8  1  1  0
 10  1  1  0
 11 10  1  0
 12 11  1  0
 13 12  1  0
 14 13  1  0
 14 15  1  0
 15 16  1  0
 16 11  1  0
  3 17  1  0
  4 18  1  0
  6 19  1  0
  8 20  1  0
  8 21  1  0
  8 22  1  0
  9 23  1  0
  9 24  1  0
  9 25  1  0
 10 26  1  0
 10 27  1  0
 12 28  1  0
 12 29  1  0
 13 30  1  0
 13 31  1  0
 14 32  1  0
 15 33  1  0
 15 34  1  0
 16 35  1  0
 16 36  1  0
M  ISO  8  17  14  18  14  19  14  20   8  21   8  22   8  23   8  24   8
M  ISO  8  25   8  26   8  27   8  28  13  29  13  30  13  31  13  32   5
M  ISO  4  33  13  34  13  35  13  36  13
M  END
>  <minimizedAffinity>  (1) 
-3.59690356

>  <minimizedRMSD>  (1) 
1.68987799

$$$$
