
     RDKit          3D

 46 49  0  0  0  0  0  0  0  0999 V2000
   37.5130   21.7270   34.9380 C   0  0  0  0  0  0  0  0  0  0  0  0
   36.5950   21.0060   35.7400 C   0  0  0  0  0  0  0  0  0  0  0  0
   35.5290   20.5780   35.0290 N   0  0  0  0  0  0  0  0  0  0  0  0
   35.6800   20.9810   33.7540 C   0  0  0  0  0  0  0  0  0  0  0  0
   34.9520   20.8490   32.6110 C   0  0  0  0  0  0  0  0  0  0  0  0
   35.3290   21.3570   31.3760 C   0  0  0  0  0  0  0  0  0  0  0  0
   36.5470   22.0300   31.3940 C   0  0  0  0  0  0  0  0  0  0  0  0
   37.3040   22.1770   32.5400 C   0  0  0  0  0  0  0  0  0  0  0  0
   36.8890   21.6690   33.7280 C   0  0  0  0  0  0  0  0  0  0  0  0
   38.4890   22.7840   32.0910 N   0  0  0  0  0  0  0  0  0  0  0  0
   39.5440   22.2100   31.4770 C   0  0  0  0  0  0  0  0  0  0  0  0
   40.6590   22.7830   30.9190 C   0  0  0  0  0  0  0  0  0  0  0  0
   40.6710   24.1550   31.0180 C   0  0  0  0  0  0  0  0  0  0  0  0
   41.6630   24.7780   30.5290 O   0  0  0  0  0  0  0  0  0  0  0  0
   39.6790   24.8430   31.6090 N   0  0  0  0  0  0  0  0  0  0  0  0
   38.6230   24.1510   32.1270 C   0  0  0  0  0  0  0  0  0  0  0  0
   37.7010   24.8230   32.6800 O   0  0  0  0  0  0  0  0  0  0  0  0
   38.7200   22.3440   35.4550 C   0  0  0  0  0  0  0  0  0  0  0  0
   38.5470   23.3900   36.5160 C   0  0  0  0  0  0  0  0  0  0  0  0
   39.0210   24.7060   35.9640 C   0  0  0  0  0  0  0  0  0  0  0  0
   38.1840   25.7820   36.2130 C   0  0  0  0  0  0  0  0  0  0  0  0
   38.5260   27.0480   35.7360 C   0  0  0  0  0  0  0  0  0  0  0  0
   39.6950   27.1510   35.0380 N   0  0  0  0  0  0  0  0  0  0  0  0
   40.4820   26.0880   34.8170 C   0  0  0  0  0  0  0  0  0  0  0  0
   40.1550   24.8820   35.2700 N   0  0  0  0  0  0  0  0  0  0  0  0
   37.1880   23.4830   37.0660 C   0  0  0  0  0  0  0  0  0  0  0  0
   39.4510   22.9950   37.7140 C   0  0  0  0  0  0  0  0  0  0  0  0
   36.7336   20.8169   36.8147 H   0  0  0  0  0  0  0  0  0  0  0  0
   34.7357   20.0356   35.3997 H   0  0  0  0  0  0  0  0  0  0  0  0
   33.9995   20.3020   32.6707 H   0  0  0  0  0  0  0  0  0  0  0  0
   34.7213   21.2387   30.4668 H   0  0  0  0  0  0  0  0  0  0  0  0
   36.9230   22.4634   30.4555 H   0  0  0  0  0  0  0  0  0  0  0  0
   39.5044   21.1125   31.4138 H   0  0  0  0  0  0  0  0  0  0  0  0
   41.4624   22.2035   30.4407 H   0  0  0  0  0  0  0  0  0  0  0  0
   39.7151   25.8706   31.6696 H   0  0  0  0  0  0  0  0  0  0  0  0
   39.3477   21.5447   35.8757 H   0  0  0  0  0  0  0  0  0  0  0  0
   39.1600   22.8751   34.5981 H   0  0  0  0  0  0  0  0  0  0  0  0
   37.2547   25.6389   36.7838 H   0  0  0  0  0  0  0  0  0  0  0  0
   37.8834   27.9228   35.9141 H   0  0  0  0  0  0  0  0  0  0  0  0
   41.4159   26.2165   34.2501 H   0  0  0  0  0  0  0  0  0  0  0  0
   37.2362   23.4797   38.1649 H   0  0  0  0  0  0  0  0  0  0  0  0
   36.7164   24.4155   36.7224 H   0  0  0  0  0  0  0  0  0  0  0  0
   36.5938   22.6234   36.7224 H   0  0  0  0  0  0  0  0  0  0  0  0
   38.9310   23.2222   38.6563 H   0  0  0  0  0  0  0  0  0  0  0  0
   39.6718   21.9184   37.6674 H   0  0  0  0  0  0  0  0  0  0  0  0
   40.3910   23.5644   37.6674 H   0  0  0  0  0  0  0  0  0  0  0  0
  1 18  1  0
  1  2  2  0
  3  2  1  0
  4  3  1  0
  5  4  2  0
  6  7  2  0
  6  5  1  0
  7  8  1  0
  8  9  2  0
  9  4  1  0
  9  1  1  0
 10 16  1  0
 10  8  1  0
 11 10  1  0
 12 13  1  0
 12 11  2  0
 13 15  1  0
 14 13  2  0
 15 16  1  0
 16 17  2  0
 18 19  1  0
 19 26  1  0
 19 27  1  0
 20 21  2  0
 20 19  1  0
 22 21  1  0
 23 22  2  0
 24 23  1  0
 24 25  2  0
 25 20  1  0
  2 28  1  0
  3 29  1  0
  5 30  1  0
  6 31  1  0
  7 32  1  0
 11 33  1  0
 12 34  1  0
 15 35  1  0
 18 36  1  0
 18 37  1  0
 21 38  1  0
 22 39  1  0
 24 40  1  0
 26 41  1  0
 26 42  1  0
 26 43  1  0
 27 44  1  0
 27 45  1  0
 27 46  1  0
M  ISO  8  28  14  29   9  30  14  31  14  32  14  33  14  34  14  35   9
M  ISO  8  36   8  37   8  38  14  39  14  40  14  41   8  42   8  43   8
M  ISO  3  44   8  45   8  46   8
M  END
>  <minimizedAffinity>  (1) 
-5.67479992

>  <minimizedRMSD>  (1) 
0.646524727

$$$$
