
     RDKit          3D

 52 55  0  0  0  0  0  0  0  0999 V2000
   38.7420   22.3850   35.2750 C   0  0  0  0  0  0  0  0  0  0  0  0
   37.5430   21.7370   34.8150 C   0  0  0  0  0  0  0  0  0  0  0  0
   36.6450   21.0340   35.6600 C   0  0  0  0  0  0  0  0  0  0  0  0
   35.5590   20.5830   34.9960 N   0  0  0  0  0  0  0  0  0  0  0  0
   35.6830   20.9570   33.7120 C   0  0  0  0  0  0  0  0  0  0  0  0
   34.8960   20.8120   32.5960 C   0  0  0  0  0  0  0  0  0  0  0  0
   35.2290   21.3150   31.3460 C   0  0  0  0  0  0  0  0  0  0  0  0
   36.4480   21.9880   31.3150 C   0  0  0  0  0  0  0  0  0  0  0  0
   37.2380   22.1430   32.3940 C   0  0  0  0  0  0  0  0  0  0  0  0
   36.8850   21.6470   33.6190 C   0  0  0  0  0  0  0  0  0  0  0  0
   38.5460   22.7700   32.0520 C   0  0  0  0  0  0  0  0  0  0  0  0
   38.3730   24.3190   32.0600 C   0  0  0  0  0  0  0  0  0  0  0  0
   39.7150   24.9130   31.6170 C   0  0  0  0  0  0  0  0  0  0  0  0
   39.6330   24.9360   30.1000 C   0  0  0  0  0  0  0  0  0  0  0  0
   38.7830   23.7200   29.6930 C   0  0  0  0  0  0  0  0  0  0  0  0
   38.9880   22.5830   30.6330 C   0  0  0  0  0  0  0  0  0  0  0  0
   38.5950   23.3740   36.4160 C   0  0  0  0  0  0  0  0  0  0  0  0
   39.0510   24.7070   35.9130 C   0  0  0  0  0  0  0  0  0  0  0  0
   38.1800   25.7710   36.1710 C   0  0  0  0  0  0  0  0  0  0  0  0
   38.5060   27.0540   35.7210 C   0  0  0  0  0  0  0  0  0  0  0  0
   39.6760   27.1980   35.0420 N   0  0  0  0  0  0  0  0  0  0  0  0
   40.4950   26.1610   34.8090 C   0  0  0  0  0  0  0  0  0  0  0  0
   40.1570   24.9700   35.2470 N   0  0  0  0  0  0  0  0  0  0  0  0
   37.2580   23.4390   37.0060 C   0  0  0  0  0  0  0  0  0  0  0  0
   39.5410   22.9340   37.5510 C   0  0  0  0  0  0  0  0  0  0  0  0
   39.1758   22.9256   34.4209 H   0  0  0  0  0  0  0  0  0  0  0  0
   39.3685   21.5752   35.6773 H   0  0  0  0  0  0  0  0  0  0  0  0
   36.8146   20.8745   36.7351 H   0  0  0  0  0  0  0  0  0  0  0  0
   34.7770   20.0488   35.4010 H   0  0  0  0  0  0  0  0  0  0  0  0
   33.9468   20.2656   32.6987 H   0  0  0  0  0  0  0  0  0  0  0  0
   34.5883   21.1932   30.4602 H   0  0  0  0  0  0  0  0  0  0  0  0
   36.7829   22.4154   30.3584 H   0  0  0  0  0  0  0  0  0  0  0  0
   39.2454   22.3180   32.7707 H   0  0  0  0  0  0  0  0  0  0  0  0
   37.5775   24.6155   31.3605 H   0  0  0  0  0  0  0  0  0  0  0  0
   38.0901   24.6810   33.0595 H   0  0  0  0  0  0  0  0  0  0  0  0
   39.8415   25.9303   32.0159 H   0  0  0  0  0  0  0  0  0  0  0  0
   40.5735   24.3306   31.9827 H   0  0  0  0  0  0  0  0  0  0  0  0
   39.1547   25.8660   29.7588 H   0  0  0  0  0  0  0  0  0  0  0  0
   40.6339   24.8932   29.6456 H   0  0  0  0  0  0  0  0  0  0  0  0
   37.7207   24.0055   29.7009 H   0  0  0  0  0  0  0  0  0  0  0  0
   39.0903   23.4005   28.6863 H   0  0  0  0  0  0  0  0  0  0  0  0
   38.4408   21.7186   30.2287 H   0  0  0  0  0  0  0  0  0  0  0  0
   40.0798   22.4628   30.6933 H   0  0  0  0  0  0  0  0  0  0  0  0
   37.2449   25.5993   36.7242 H   0  0  0  0  0  0  0  0  0  0  0  0
   37.8435   27.9119   35.9083 H   0  0  0  0  0  0  0  0  0  0  0  0
   41.4363   26.3065   34.2588 H   0  0  0  0  0  0  0  0  0  0  0  0
   37.3407   23.4350   38.1029 H   0  0  0  0  0  0  0  0  0  0  0  0
   36.7576   24.3625   36.6794 H   0  0  0  0  0  0  0  0  0  0  0  0
   36.6704   22.5684   36.6794 H   0  0  0  0  0  0  0  0  0  0  0  0
   39.0737   23.1514   38.5228 H   0  0  0  0  0  0  0  0  0  0  0  0
   39.7334   21.8540   37.4700 H   0  0  0  0  0  0  0  0  0  0  0  0
   40.4909   23.4827   37.4700 H   0  0  0  0  0  0  0  0  0  0  0  0
  1 17  1  0
  2  1  1  0
  2  3  2  0
  4  3  1  0
  5  4  1  0
  6  5  2  0
  7  6  1  0
  8  7  2  0
  8  9  1  0
  9 10  2  0
 10  5  1  0
 10  2  1  0
 11 12  1  0
 11  9  1  0
 13 12  1  0
 14 13  1  0
 15 14  1  0
 15 16  1  0
 16 11  1  0
 17 24  1  0
 17 25  1  0
 18 19  2  0
 18 17  1  0
 20 19  1  0
 21 20  2  0
 22 21  1  0
 22 23  2  0
 23 18  1  0
  1 26  1  0
  1 27  1  0
  3 28  1  0
  4 29  1  0
  6 30  1  0
  7 31  1  0
  8 32  1  0
 11 33  1  0
 12 34  1  0
 12 35  1  0
 13 36  1  0
 13 37  1  0
 14 38  1  0
 14 39  1  0
 15 40  1  0
 15 41  1  0
 16 42  1  0
 16 43  1  0
 19 44  1  0
 20 45  1  0
 22 46  1  0
 24 47  1  0
 24 48  1  0
 24 49  1  0
 25 50  1  0
 25 51  1  0
 25 52  1  0
M  ISO  8  26   8  27   8  28  14  29   9  30  14  31  14  32  14  33  13
M  ISO  8  34  13  35  13  36  13  37  13  38  13  39  13  40  13  41  13
M  ISO  8  42  13  43  13  44  14  45  14  46  14  47   8  48   8  49   8
M  ISO  3  50   8  51   8  52   8
M  END
>  <minimizedAffinity>  (1) 
-5.74246216

>  <minimizedRMSD>  (1) 
0.666804433

$$$$
