
     RDKit          3D

 50 53  0  0  0  0  0  0  0  0999 V2000
   38.7270   22.3770   35.2880 C   0  0  0  0  0  0  0  0  0  0  0  0
   37.4920   21.7050   34.9180 C   0  0  0  0  0  0  0  0  0  0  0  0
   36.5630   21.2070   35.8590 C   0  0  0  0  0  0  0  0  0  0  0  0
   35.5010   20.6550   35.2580 N   0  0  0  0  0  0  0  0  0  0  0  0
   35.6580   20.7520   33.9250 C   0  0  0  0  0  0  0  0  0  0  0  0
   34.9450   20.3770   32.8260 C   0  0  0  0  0  0  0  0  0  0  0  0
   35.3350   20.5790   31.5190 C   0  0  0  0  0  0  0  0  0  0  0  0
   36.5640   21.2200   31.3850 C   0  0  0  0  0  0  0  0  0  0  0  0
   37.3030   21.6100   32.4800 C   0  0  0  0  0  0  0  0  0  0  0  0
   36.8590   21.3830   33.7490 C   0  0  0  0  0  0  0  0  0  0  0  0
   38.4420   22.2040   31.8860 N   0  0  0  0  0  0  0  0  0  0  0  0
   39.5230   21.1950   31.8290 C   0  0  0  0  0  0  0  0  0  0  0  0
   40.8940   21.7850   31.8750 C   0  0  0  0  0  0  0  0  0  0  0  0
   41.0410   23.1010   31.3470 N   0  0  0  0  0  0  0  0  0  0  0  0
   40.0840   24.0000   31.9430 C   0  0  0  0  0  0  0  0  0  0  0  0
   38.6850   23.5940   31.4570 C   0  0  0  0  0  0  0  0  0  0  0  0
   38.6600   23.3000   36.4690 C   0  0  0  0  0  0  0  0  0  0  0  0
   38.9950   24.6900   35.9980 C   0  0  0  0  0  0  0  0  0  0  0  0
   38.0990   25.6720   36.3790 C   0  0  0  0  0  0  0  0  0  0  0  0
   38.3550   26.9850   35.9740 C   0  0  0  0  0  0  0  0  0  0  0  0
   39.4770   27.2240   35.2240 N   0  0  0  0  0  0  0  0  0  0  0  0
   40.3350   26.2340   34.8690 C   0  0  0  0  0  0  0  0  0  0  0  0
   40.0610   25.0110   35.2680 N   0  0  0  0  0  0  0  0  0  0  0  0
   37.3840   23.2710   37.2000 C   0  0  0  0  0  0  0  0  0  0  0  0
   39.7290   22.8380   37.4900 C   0  0  0  0  0  0  0  0  0  0  0  0
   39.0587   22.9673   34.4211 H   0  0  0  0  0  0  0  0  0  0  0  0
   39.4172   21.5738   35.5855 H   0  0  0  0  0  0  0  0  0  0  0  0
   36.6955   21.2654   36.9494 H   0  0  0  0  0  0  0  0  0  0  0  0
   34.6963   20.2266   35.7373 H   0  0  0  0  0  0  0  0  0  0  0  0
   33.9819   19.8732   32.9949 H   0  0  0  0  0  0  0  0  0  0  0  0
   34.7286   20.2617   30.6578 H   0  0  0  0  0  0  0  0  0  0  0  0
   36.9555   21.4204   30.3767 H   0  0  0  0  0  0  0  0  0  0  0  0
   39.4199   20.6273   30.8925 H   0  0  0  0  0  0  0  0  0  0  0  0
   39.4162   20.5570   32.7187 H   0  0  0  0  0  0  0  0  0  0  0  0
   41.2110   21.8106   32.9280 H   0  0  0  0  0  0  0  0  0  0  0  0
   41.5080   21.1424   31.2269 H   0  0  0  0  0  0  0  0  0  0  0  0
   41.9929   23.4405   31.5457 H   0  0  0  0  0  0  0  0  0  0  0  0
   40.1345   23.9257   33.0393 H   0  0  0  0  0  0  0  0  0  0  0  0
   40.3029   25.0383   31.6530 H   0  0  0  0  0  0  0  0  0  0  0  0
   38.6365   23.6605   30.3601 H   0  0  0  0  0  0  0  0  0  0  0  0
   37.9227   24.2646   31.8803 H   0  0  0  0  0  0  0  0  0  0  0  0
   37.2122   25.4274   36.9821 H   0  0  0  0  0  0  0  0  0  0  0  0
   37.6746   27.8042   36.2497 H   0  0  0  0  0  0  0  0  0  0  0  0
   41.2306   26.4476   34.2671 H   0  0  0  0  0  0  0  0  0  0  0  0
   37.5812   23.2755   38.2822 H   0  0  0  0  0  0  0  0  0  0  0  0
   36.7878   24.1558   36.9323 H   0  0  0  0  0  0  0  0  0  0  0  0
   36.8287   22.3600   36.9323 H   0  0  0  0  0  0  0  0  0  0  0  0
   39.3545   22.9999   38.5115 H   0  0  0  0  0  0  0  0  0  0  0  0
   39.9396   21.7686   37.3418 H   0  0  0  0  0  0  0  0  0  0  0  0
   40.6522   23.4175   37.3418 H   0  0  0  0  0  0  0  0  0  0  0  0
  1 17  1  0
  2  1  1  0
  2  3  2  0
  4  3  1  0
  5  4  1  0
  6  5  2  0
  7  6  1  0
  8  7  2  0
  8  9  1  0
  9 10  2  0
 10  5  1  0
 10  2  1  0
 11  9  1  0
 12 13  1  0
 12 11  1  0
 14 13  1  0
 14 15  1  0
 16 11  1  0
 16 15  1  0
 17 24  1  0
 17 25  1  0
 18 19  2  0
 18 17  1  0
 20 19  1  0
 21 20  2  0
 22 21  1  0
 22 23  2  0
 23 18  1  0
  1 26  1  0
  1 27  1  0
  3 28  1  0
  4 29  1  0
  6 30  1  0
  7 31  1  0
  8 32  1  0
 12 33  1  0
 12 34  1  0
 13 35  1  0
 13 36  1  0
 14 37  1  0
 15 38  1  0
 15 39  1  0
 16 40  1  0
 16 41  1  0
 19 42  1  0
 20 43  1  0
 22 44  1  0
 24 45  1  0
 24 46  1  0
 24 47  1  0
 25 48  1  0
 25 49  1  0
 25 50  1  0
M  ISO  8  26   8  27   8  28  14  29   9  30  14  31  14  32  14  33  13
M  ISO  8  34  13  35  13  36  13  37   5  38  13  39  13  40  13  41  13
M  ISO  8  42  14  43  14  44  14  45   8  46   8  47   8  48   8  49   8
M  ISO  1  50   8
M  END
>  <minimizedAffinity>  (1) 
-5.61334133

>  <minimizedRMSD>  (1) 
1.05510354

$$$$
