
     RDKit          3D

 45 47  0  0  0  0  0  0  0  0999 V2000
   38.7170   22.4070   35.2390 C   0  0  0  0  0  0  0  0  0  0  0  0
   37.4990   21.7170   34.8600 C   0  0  0  0  0  0  0  0  0  0  0  0
   36.5940   21.1250   35.7760 C   0  0  0  0  0  0  0  0  0  0  0  0
   35.5160   20.6000   35.1520 N   0  0  0  0  0  0  0  0  0  0  0  0
   35.6620   20.8190   33.8330 C   0  0  0  0  0  0  0  0  0  0  0  0
   34.9000   20.5240   32.7320 C   0  0  0  0  0  0  0  0  0  0  0  0
   35.2590   20.8550   31.4300 C   0  0  0  0  0  0  0  0  0  0  0  0
   36.4680   21.5120   31.3300 C   0  0  0  0  0  0  0  0  0  0  0  0
   37.2280   21.8080   32.4050 C   0  0  0  0  0  0  0  0  0  0  0  0
   36.8580   21.4840   33.6750 C   0  0  0  0  0  0  0  0  0  0  0  0
   38.5170   22.4380   32.0190 C   0  0  0  0  0  0  0  0  0  0  0  0
   38.5870   23.8950   32.3800 C   0  0  0  0  0  0  0  0  0  0  0  0
   39.6590   21.9230   32.9530 C   0  0  0  0  0  0  0  0  0  0  0  0
   38.6190   23.3720   36.3930 C   0  0  0  0  0  0  0  0  0  0  0  0
   39.0680   24.7150   35.9110 C   0  0  0  0  0  0  0  0  0  0  0  0
   38.2150   25.7800   36.2020 C   0  0  0  0  0  0  0  0  0  0  0  0
   38.5440   27.0710   35.7700 C   0  0  0  0  0  0  0  0  0  0  0  0
   39.7110   27.2180   35.0700 N   0  0  0  0  0  0  0  0  0  0  0  0
   40.5150   26.1710   34.8040 C   0  0  0  0  0  0  0  0  0  0  0  0
   40.1590   24.9860   35.2340 N   0  0  0  0  0  0  0  0  0  0  0  0
   37.2890   23.4430   37.0210 C   0  0  0  0  0  0  0  0  0  0  0  0
   39.5760   22.9050   37.5050 C   0  0  0  0  0  0  0  0  0  0  0  0
   39.0669   22.9712   34.3619 H   0  0  0  0  0  0  0  0  0  0  0  0
   39.4016   21.6169   35.5811 H   0  0  0  0  0  0  0  0  0  0  0  0
   36.7502   21.0962   36.8645 H   0  0  0  0  0  0  0  0  0  0  0  0
   34.7256   20.1192   35.6048 H   0  0  0  0  0  0  0  0  0  0  0  0
   33.9486   19.9943   32.8878 H   0  0  0  0  0  0  0  0  0  0  0  0
   34.6344   20.6143   30.5571 H   0  0  0  0  0  0  0  0  0  0  0  0
   36.8272   21.8067   30.3329 H   0  0  0  0  0  0  0  0  0  0  0  0
   38.6054   22.2263   30.9432 H   0  0  0  0  0  0  0  0  0  0  0  0
   38.5921   24.0017   33.4748 H   0  0  0  0  0  0  0  0  0  0  0  0
   39.5072   24.3318   31.9647 H   0  0  0  0  0  0  0  0  0  0  0  0
   37.7129   24.4181   31.9647 H   0  0  0  0  0  0  0  0  0  0  0  0
   39.3619   22.0570   34.0036 H   0  0  0  0  0  0  0  0  0  0  0  0
   39.8403   20.8560   32.7564 H   0  0  0  0  0  0  0  0  0  0  0  0
   40.5787   22.4935   32.7564 H   0  0  0  0  0  0  0  0  0  0  0  0
   37.2881   25.6065   36.7683 H   0  0  0  0  0  0  0  0  0  0  0  0
   37.8920   27.9306   35.9842 H   0  0  0  0  0  0  0  0  0  0  0  0
   41.4488   26.3076   34.2389 H   0  0  0  0  0  0  0  0  0  0  0  0
   37.3995   23.4371   38.1154 H   0  0  0  0  0  0  0  0  0  0  0  0
   36.7849   24.3693   36.7084 H   0  0  0  0  0  0  0  0  0  0  0  0
   36.6891   22.5756   36.7084 H   0  0  0  0  0  0  0  0  0  0  0  0
   39.1307   23.1223   38.4871 H   0  0  0  0  0  0  0  0  0  0  0  0
   39.7466   21.8224   37.4112 H   0  0  0  0  0  0  0  0  0  0  0  0
   40.5344   23.4367   37.4112 H   0  0  0  0  0  0  0  0  0  0  0  0
  1 14  1  0
  2  1  1  0
  2  3  2  0
  4  3  1  0
  5  4  1  0
  6  5  2  0
  7  6  1  0
  8  7  2  0
  8  9  1  0
  9 10  2  0
 10  5  1  0
 10  2  1  0
 11 12  1  0
 11  9  1  0
 11 13  1  0
 14 21  1  0
 14 22  1  0
 15 16  2  0
 15 14  1  0
 17 16  1  0
 18 17  2  0
 19 18  1  0
 19 20  2  0
 20 15  1  0
  1 23  1  0
  1 24  1  0
  3 25  1  0
  4 26  1  0
  6 27  1  0
  7 28  1  0
  8 29  1  0
 11 30  1  0
 12 31  1  0
 12 32  1  0
 12 33  1  0
 13 34  1  0
 13 35  1  0
 13 36  1  0
 16 37  1  0
 17 38  1  0
 19 39  1  0
 21 40  1  0
 21 41  1  0
 21 42  1  0
 22 43  1  0
 22 44  1  0
 22 45  1  0
M  ISO  8  23   8  24   8  25  14  26   9  27  14  28  14  29  14  30   8
M  ISO  8  31   8  32   8  33   8  34   8  35   8  36   8  37  14  38  14
M  ISO  7  39  14  40   8  41   8  42   8  43   8  44   8  45   8
M  END
>  <minimizedAffinity>  (1) 
-5.40256453

>  <minimizedRMSD>  (1) 
0.66779542

$$$$
