
     RDKit          3D

 43 46  0  0  0  0  0  0  0  0999 V2000
   38.7270   22.2150   35.6630 C   0  0  0  0  0  0  0  0  0  0  0  0
   37.5460   21.6880   35.0220 C   0  0  0  0  0  0  0  0  0  0  0  0
   36.5430   20.9600   35.7210 C   0  0  0  0  0  0  0  0  0  0  0  0
   35.5000   20.6320   34.9270 N   0  0  0  0  0  0  0  0  0  0  0  0
   35.7480   21.1100   33.6990 C   0  0  0  0  0  0  0  0  0  0  0  0
   35.0500   21.1100   32.5200 C   0  0  0  0  0  0  0  0  0  0  0  0
   35.4970   21.7040   31.3490 C   0  0  0  0  0  0  0  0  0  0  0  0
   36.7510   22.3090   31.4740 C   0  0  0  0  0  0  0  0  0  0  0  0
   37.4850   22.3210   32.6570 C   0  0  0  0  0  0  0  0  0  0  0  0
   36.9920   21.7380   33.7800 C   0  0  0  0  0  0  0  0  0  0  0  0
   38.7810   22.8660   32.3160 C   0  0  0  0  0  0  0  0  0  0  0  0
   40.0940   22.4510   32.3580 C   0  0  0  0  0  0  0  0  0  0  0  0
   41.0100   23.3480   31.8800 C   0  0  0  0  0  0  0  0  0  0  0  0
   40.1510   24.3630   31.5340 C   0  0  0  0  0  0  0  0  0  0  0  0
   38.9190   24.0590   31.7910 O   0  0  0  0  0  0  0  0  0  0  0  0
   38.5340   23.3240   36.6680 C   0  0  0  0  0  0  0  0  0  0  0  0
   38.9890   24.6080   36.0460 C   0  0  0  0  0  0  0  0  0  0  0  0
   38.1980   25.7040   36.3400 C   0  0  0  0  0  0  0  0  0  0  0  0
   38.5270   26.9520   35.8010 C   0  0  0  0  0  0  0  0  0  0  0  0
   39.6260   27.0260   35.0010 N   0  0  0  0  0  0  0  0  0  0  0  0
   40.3750   25.9430   34.7350 C   0  0  0  0  0  0  0  0  0  0  0  0
   40.0340   24.7890   35.2590 N   0  0  0  0  0  0  0  0  0  0  0  0
   37.1770   23.4140   37.2110 C   0  0  0  0  0  0  0  0  0  0  0  0
   39.4540   23.0140   37.8780 C   0  0  0  0  0  0  0  0  0  0  0  0
   39.3890   22.5976   34.8722 H   0  0  0  0  0  0  0  0  0  0  0  0
   39.1306   21.3738   36.2456 H   0  0  0  0  0  0  0  0  0  0  0  0
   36.6091   20.6945   36.7864 H   0  0  0  0  0  0  0  0  0  0  0  0
   34.6618   20.1070   35.2145 H   0  0  0  0  0  0  0  0  0  0  0  0
   34.0722   20.6065   32.5009 H   0  0  0  0  0  0  0  0  0  0  0  0
   34.9203   21.6994   30.4123 H   0  0  0  0  0  0  0  0  0  0  0  0
   37.1811   22.8023   30.5899 H   0  0  0  0  0  0  0  0  0  0  0  0
   40.3862   21.4653   32.7493 H   0  0  0  0  0  0  0  0  0  0  0  0
   42.1046   23.2777   31.7975 H   0  0  0  0  0  0  0  0  0  0  0  0
   40.4712   25.3181   31.0922 H   0  0  0  0  0  0  0  0  0  0  0  0
   37.3185   25.5951   36.9916 H   0  0  0  0  0  0  0  0  0  0  0  0
   37.9187   27.8429   36.0161 H   0  0  0  0  0  0  0  0  0  0  0  0
   41.2609   26.0222   34.0877 H   0  0  0  0  0  0  0  0  0  0  0  0
   37.2209   23.4111   38.3101 H   0  0  0  0  0  0  0  0  0  0  0  0
   36.7048   24.3454   36.8654 H   0  0  0  0  0  0  0  0  0  0  0  0
   36.5859   22.5531   36.8654 H   0  0  0  0  0  0  0  0  0  0  0  0
   38.9049   23.1990   38.8130 H   0  0  0  0  0  0  0  0  0  0  0  0
   39.7679   21.9605   37.8395 H   0  0  0  0  0  0  0  0  0  0  0  0
   40.3415   23.6627   37.8395 H   0  0  0  0  0  0  0  0  0  0  0  0
  1 16  1  0
  2  1  1  0
  2  3  2  0
  4  3  1  0
  5 10  2  0
  5  4  1  0
  6  5  1  0
  7  8  1  0
  7  6  2  0
  8  9  2  0
  9 10  1  0
 10  2  1  0
 11 12  2  0
 11  9  1  0
 13 12  1  0
 14 15  1  0
 14 13  2  0
 15 11  1  0
 16 23  1  0
 16 24  1  0
 17 18  2  0
 17 16  1  0
 19 18  1  0
 20 19  2  0
 21 20  1  0
 21 22  2  0
 22 17  1  0
  1 25  1  0
  1 26  1  0
  3 27  1  0
  4 28  1  0
  6 29  1  0
  7 30  1  0
  8 31  1  0
 12 32  1  0
 13 33  1  0
 14 34  1  0
 18 35  1  0
 19 36  1  0
 21 37  1  0
 23 38  1  0
 23 39  1  0
 23 40  1  0
 24 41  1  0
 24 42  1  0
 24 43  1  0
M  ISO  8  25   8  26   8  27  14  28   9  29  14  30  14  31  14  32  14
M  ISO  8  33  14  34  14  35  14  36  14  37  14  38   8  39   8  40   8
M  ISO  3  41   8  42   8  43   8
M  END
>  <minimizedAffinity>  (1) 
-5.33810472

>  <minimizedRMSD>  (1) 
0.376245081

$$$$
