
     RDKit          3D

 39 41  0  0  0  0  0  0  0  0999 V2000
   38.7070   22.2310   35.6740 C   0  0  0  0  0  0  0  0  0  0  0  0
   37.5080   21.6890   35.0730 C   0  0  0  0  0  0  0  0  0  0  0  0
   36.5210   20.9650   35.7850 C   0  0  0  0  0  0  0  0  0  0  0  0
   35.4820   20.6110   35.0030 N   0  0  0  0  0  0  0  0  0  0  0  0
   35.7270   21.0730   33.7680 C   0  0  0  0  0  0  0  0  0  0  0  0
   35.0490   21.0340   32.5670 C   0  0  0  0  0  0  0  0  0  0  0  0
   35.5190   21.6030   31.3930 C   0  0  0  0  0  0  0  0  0  0  0  0
   36.7330   22.2210   31.5030 C   0  0  0  0  0  0  0  0  0  0  0  0
   37.4160   22.2710   32.6740 C   0  0  0  0  0  0  0  0  0  0  0  0
   36.9430   21.7130   33.8270 C   0  0  0  0  0  0  0  0  0  0  0  0
   38.7200   22.9690   32.5120 C   0  0  0  0  0  0  0  0  0  0  0  0
   38.5240   23.3660   36.6460 C   0  0  0  0  0  0  0  0  0  0  0  0
   39.0490   24.6150   36.0130 C   0  0  0  0  0  0  0  0  0  0  0  0
   38.2730   25.7500   36.2100 C   0  0  0  0  0  0  0  0  0  0  0  0
   38.6760   26.9640   35.6370 C   0  0  0  0  0  0  0  0  0  0  0  0
   39.8330   26.9550   34.9040 N   0  0  0  0  0  0  0  0  0  0  0  0
   40.5670   25.8380   34.7300 C   0  0  0  0  0  0  0  0  0  0  0  0
   40.1470   24.7280   35.2870 N   0  0  0  0  0  0  0  0  0  0  0  0
   37.1430   23.5340   37.1290 C   0  0  0  0  0  0  0  0  0  0  0  0
   39.3660   23.0600   37.9040 C   0  0  0  0  0  0  0  0  0  0  0  0
   39.3542   22.5904   34.8604 H   0  0  0  0  0  0  0  0  0  0  0  0
   39.1294   21.4074   36.2684 H   0  0  0  0  0  0  0  0  0  0  0  0
   36.5940   20.7194   36.8548 H   0  0  0  0  0  0  0  0  0  0  0  0
   34.6501   20.0813   35.3001 H   0  0  0  0  0  0  0  0  0  0  0  0
   34.0767   20.5204   32.5391 H   0  0  0  0  0  0  0  0  0  0  0  0
   34.9587   21.5603   30.4474 H   0  0  0  0  0  0  0  0  0  0  0  0
   37.1712   22.6939   30.6117 H   0  0  0  0  0  0  0  0  0  0  0  0
   39.1409   23.1943   33.5030 H   0  0  0  0  0  0  0  0  0  0  0  0
   39.4154   22.3225   31.9566 H   0  0  0  0  0  0  0  0  0  0  0  0
   38.5677   23.9062   31.9566 H   0  0  0  0  0  0  0  0  0  0  0  0
   37.3521   25.6967   36.8092 H   0  0  0  0  0  0  0  0  0  0  0  0
   38.0884   27.8843   35.7702 H   0  0  0  0  0  0  0  0  0  0  0  0
   41.4932   25.8572   34.1368 H   0  0  0  0  0  0  0  0  0  0  0  0
   37.1368   23.5348   38.2290 H   0  0  0  0  0  0  0  0  0  0  0  0
   36.7388   24.4879   36.7594 H   0  0  0  0  0  0  0  0  0  0  0  0
   36.5219   22.7048   36.7594 H   0  0  0  0  0  0  0  0  0  0  0  0
   38.7719   23.2759   38.8043 H   0  0  0  0  0  0  0  0  0  0  0  0
   39.6561   21.9989   37.9019 H   0  0  0  0  0  0  0  0  0  0  0  0
   40.2697   23.6872   37.9019 H   0  0  0  0  0  0  0  0  0  0  0  0
  1 12  1  0
  2  1  1  0
  2  3  2  0
  4  3  1  0
  5 10  2  0
  5  4  1  0
  6  5  1  0
  7  8  1  0
  7  6  2  0
  8  9  2  0
  9 10  1  0
 10  2  1  0
 11  9  1  0
 12 19  1  0
 12 20  1  0
 13 14  2  0
 13 12  1  0
 15 14  1  0
 16 15  2  0
 17 16  1  0
 17 18  2  0
 18 13  1  0
  1 21  1  0
  1 22  1  0
  3 23  1  0
  4 24  1  0
  6 25  1  0
  7 26  1  0
  8 27  1  0
 11 28  1  0
 11 29  1  0
 11 30  1  0
 14 31  1  0
 15 32  1  0
 17 33  1  0
 19 34  1  0
 19 35  1  0
 19 36  1  0
 20 37  1  0
 20 38  1  0
 20 39  1  0
M  ISO  8  21   8  22   8  23  14  24   9  25  14  26  14  27  14  28   8
M  ISO  8  29   8  30   8  31  14  32  14  33  14  34   8  35   8  36   8
M  ISO  3  37   8  38   8  39   8
M  END
>  <minimizedAffinity>  (1) 
-5.27500629

>  <minimizedRMSD>  (1) 
0.237363115

$$$$
