
     RDKit          3D

 49 52  0  0  0  0  0  0  0  0999 V2000
   37.5060   21.7300   34.9560 C   0  0  0  0  0  0  0  0  0  0  0  0
   36.5880   20.9740   35.7290 C   0  0  0  0  0  0  0  0  0  0  0  0
   35.5310   20.5590   34.9970 N   0  0  0  0  0  0  0  0  0  0  0  0
   35.6930   21.0050   33.7350 C   0  0  0  0  0  0  0  0  0  0  0  0
   34.9660   20.9030   32.5870 C   0  0  0  0  0  0  0  0  0  0  0  0
   35.3440   21.4570   31.3700 C   0  0  0  0  0  0  0  0  0  0  0  0
   36.5550   22.1380   31.4190 C   0  0  0  0  0  0  0  0  0  0  0  0
   37.3090   22.2550   32.5710 C   0  0  0  0  0  0  0  0  0  0  0  0
   36.8930   21.7040   33.7380 C   0  0  0  0  0  0  0  0  0  0  0  0
   41.0950   23.8970   31.5340 C   0  0  0  0  0  0  0  0  0  0  0  0
   40.0430   24.7710   31.6010 C   0  0  0  0  0  0  0  0  0  0  0  0
   38.8430   24.2060   31.9000 C   0  0  0  0  0  0  0  0  0  0  0  0
   38.5410   22.8710   32.1460 C   0  0  0  0  0  0  0  0  0  0  0  0
   39.7160   22.0960   32.0410 C   0  0  0  0  0  0  0  0  0  0  0  0
   40.9870   22.5400   31.7470 C   0  0  0  0  0  0  0  0  0  0  0  0
   42.6890   24.5150   31.1570 S   0  0  0  0  0  0  0  0  0  0  0  0
   42.9030   25.7240   32.0480 O   0  0  0  0  0  0  0  0  0  0  0  0
   43.7680   23.5170   31.4800 O   0  0  0  0  0  0  0  0  0  0  0  0
   38.7020   22.3410   35.5030 C   0  0  0  0  0  0  0  0  0  0  0  0
   38.5030   23.4220   36.5270 C   0  0  0  0  0  0  0  0  0  0  0  0
   39.0350   24.7090   35.9560 C   0  0  0  0  0  0  0  0  0  0  0  0
   38.2400   25.8210   36.1850 C   0  0  0  0  0  0  0  0  0  0  0  0
   38.6420   27.0650   35.6930 C   0  0  0  0  0  0  0  0  0  0  0  0
   39.8130   27.1090   35.0050 N   0  0  0  0  0  0  0  0  0  0  0  0
   40.5600   26.0130   34.8020 C   0  0  0  0  0  0  0  0  0  0  0  0
   40.1740   24.8350   35.2700 N   0  0  0  0  0  0  0  0  0  0  0  0
   37.1240   23.5630   37.0080 C   0  0  0  0  0  0  0  0  0  0  0  0
   39.3390   23.0450   37.7780 C   0  0  0  0  0  0  0  0  0  0  0  0
   36.7209   20.7518   36.7981 H   0  0  0  0  0  0  0  0  0  0  0  0
   34.7388   19.9990   35.3430 H   0  0  0  0  0  0  0  0  0  0  0  0
   34.0183   20.3459   32.6262 H   0  0  0  0  0  0  0  0  0  0  0  0
   34.7417   21.3653   30.4541 H   0  0  0  0  0  0  0  0  0  0  0  0
   36.9307   22.6058   30.4971 H   0  0  0  0  0  0  0  0  0  0  0  0
   40.1601   25.8506   31.4258 H   0  0  0  0  0  0  0  0  0  0  0  0
   37.9927   24.9017   31.9550 H   0  0  0  0  0  0  0  0  0  0  0  0
   39.6045   21.0153   32.2134 H   0  0  0  0  0  0  0  0  0  0  0  0
   41.8509   21.8617   31.6869 H   0  0  0  0  0  0  0  0  0  0  0  0
   42.7579   24.8033   29.8194 H   0  0  0  0  0  0  0  0  0  0  0  0
   39.2980   21.5442   35.9719 H   0  0  0  0  0  0  0  0  0  0  0  0
   39.1868   22.8384   34.6501 H   0  0  0  0  0  0  0  0  0  0  0  0
   37.3007   25.7247   36.7493 H   0  0  0  0  0  0  0  0  0  0  0  0
   38.0372   27.9693   35.8554 H   0  0  0  0  0  0  0  0  0  0  0  0
   41.5028   26.0933   34.2411 H   0  0  0  0  0  0  0  0  0  0  0  0
   37.1176   23.5637   38.1080 H   0  0  0  0  0  0  0  0  0  0  0  0
   36.7016   24.5090   36.6383 H   0  0  0  0  0  0  0  0  0  0  0  0
   36.5189   22.7220   36.6383 H   0  0  0  0  0  0  0  0  0  0  0  0
   38.7741   23.2997   38.6869 H   0  0  0  0  0  0  0  0  0  0  0  0
   39.5486   21.9652   37.7671 H   0  0  0  0  0  0  0  0  0  0  0  0
   40.2871   23.6027   37.7671 H   0  0  0  0  0  0  0  0  0  0  0  0
  1 19  1  0
  1  2  2  0
  3  2  1  0
  4  9  2  0
  4  3  1  0
  5  4  1  0
  6  7  1  0
  6  5  2  0
  7  8  2  0
  8  9  1  0
  9  1  1  0
 10 11  2  0
 10 15  1  0
 11 12  1  0
 12 13  2  0
 13  8  1  0
 14 13  1  0
 15 14  2  0
 16 18  2  0
 16 10  1  0
 16 17  2  0
 19 20  1  0
 20 27  1  0
 20 28  1  0
 21 22  2  0
 21 20  1  0
 23 22  1  0
 24 23  2  0
 25 24  1  0
 25 26  2  0
 26 21  1  0
  2 29  1  0
  3 30  1  0
  5 31  1  0
  6 32  1  0
  7 33  1  0
 11 34  1  0
 12 35  1  0
 14 36  1  0
 15 37  1  0
 16 38  1  0
 19 39  1  0
 19 40  1  0
 22 41  1  0
 23 42  1  0
 25 43  1  0
 27 44  1  0
 27 45  1  0
 27 46  1  0
 28 47  1  0
 28 48  1  0
 28 49  1  0
M  ISO  8  29  14  30   9  31  14  32  14  33  14  34  14  35  14  36  14
M  ISO  8  37  14  38  11  39   8  40   8  41  14  42  14  43  14  44   8
M  ISO  5  45   8  46   8  47   8  48   8  49   8
M  END
>  <minimizedAffinity>  (1) 
-5.2544446

>  <minimizedRMSD>  (1) 
0.465588778

$$$$
