
     RDKit          3D

 47 49  0  0  1  0  0  0  0  0999 V2000
   37.9520   24.9930   35.9610 C   0  0  0  0  0  0  0  0  0  0  0  0
   39.1460   24.3490   36.4430 N   0  0  0  0  0  0  0  0  0  0  0  0
   39.7670   23.6020   35.3280 C   0  0  0  0  0  0  0  0  0  0  0  0
   40.7800   22.7540   36.0600 C   0  0  0  0  0  0  0  0  0  0  0  0
   40.2530   22.6400   37.4990 C   0  0  0  0  0  0  0  0  0  0  0  0
   38.8550   23.2350   37.3030 C   0  0  1  0  0  0  0  0  0  0  0  0
   38.3790   23.6290   38.6690 C   0  0  0  0  0  0  0  0  0  0  0  0
   39.3370   23.7700   39.6160 F   0  0  0  0  0  0  0  0  0  0  0  0
   37.3760   22.7500   39.0480 F   0  0  0  0  0  0  0  0  0  0  0  0
   37.7510   24.8820   38.5840 F   0  0  0  0  0  0  0  0  0  0  0  0
   38.0820   26.4640   35.8890 C   0  0  0  0  0  0  0  0  0  0  0  0
   36.6230   26.4700   32.4440 C   0  0  0  0  0  0  0  0  0  0  0  0
   37.2730   26.0910   33.6200 C   0  0  0  0  0  0  0  0  0  0  0  0
   37.3760   26.9400   34.6750 C   0  0  0  0  0  0  0  0  0  0  0  0
   36.8260   28.1760   34.5520 N   0  0  0  0  0  0  0  0  0  0  0  0
   36.1970   28.5550   33.4250 C   0  0  0  0  0  0  0  0  0  0  0  0
   36.0950   27.7190   32.3850 N   0  0  0  0  0  0  0  0  0  0  0  0
   35.6280   29.9290   33.3840 C   0  0  0  0  0  0  0  0  0  0  0  0
   34.7240   30.2450   34.5450 C   0  0  0  0  0  0  0  0  0  0  0  0
   33.5470   29.3260   34.5480 C   0  0  0  0  0  0  0  0  0  0  0  0
   32.8240   29.4300   33.2390 C   0  0  0  0  0  0  0  0  0  0  0  0
   33.4320   30.4610   32.3010 C   0  0  0  0  0  0  0  0  0  0  0  0
   34.9000   30.2290   32.0960 C   0  0  0  0  0  0  0  0  0  0  0  0
   37.7287   24.6105   34.9541 H   0  0  0  0  0  0  0  0  0  0  0  0
   37.1442   24.7670   36.6726 H   0  0  0  0  0  0  0  0  0  0  0  0
   40.2536   24.2804   34.6117 H   0  0  0  0  0  0  0  0  0  0  0  0
   39.0528   23.0246   34.7226 H   0  0  0  0  0  0  0  0  0  0  0  0
   40.8548   21.7587   35.5976 H   0  0  0  0  0  0  0  0  0  0  0  0
   41.7858   23.1981   36.0266 H   0  0  0  0  0  0  0  0  0  0  0  0
   40.2103   21.5947   37.8389 H   0  0  0  0  0  0  0  0  0  0  0  0
   40.8695   23.1341   38.2643 H   0  0  0  0  0  0  0  0  0  0  0  0
   38.0710   22.5965   36.8699 H   0  0  0  0  0  0  0  0  0  0  0  0
   37.6319   26.9204   36.7829 H   0  0  0  0  0  0  0  0  0  0  0  0
   39.1441   26.7466   35.8425 H   0  0  0  0  0  0  0  0  0  0  0  0
   36.5414   25.7785   31.5924 H   0  0  0  0  0  0  0  0  0  0  0  0
   37.7105   25.0844   33.6936 H   0  0  0  0  0  0  0  0  0  0  0  0
   36.5126   30.5792   33.4525 H   0  0  0  0  0  0  0  0  0  0  0  0
   35.2830   30.1224   35.4844 H   0  0  0  0  0  0  0  0  0  0  0  0
   34.3691   31.2820   34.4513 H   0  0  0  0  0  0  0  0  0  0  0  0
   33.8907   28.2915   34.6951 H   0  0  0  0  0  0  0  0  0  0  0  0
   32.8660   29.6076   35.3647 H   0  0  0  0  0  0  0  0  0  0  0  0
   32.8520   28.4477   32.7448 H   0  0  0  0  0  0  0  0  0  0  0  0
   31.7953   29.7524   33.4576 H   0  0  0  0  0  0  0  0  0  0  0  0
   32.9226   30.4015   31.3279 H   0  0  0  0  0  0  0  0  0  0  0  0
   33.3025   31.4548   32.7543 H   0  0  0  0  0  0  0  0  0  0  0  0
   35.0295   29.3773   31.4120 H   0  0  0  0  0  0  0  0  0  0  0  0
   35.3275   31.1533   31.6803 H   0  0  0  0  0  0  0  0  0  0  0  0
  1  2  1  0
  2  6  1  0
  3  4  1  0
  3  2  1  0
  4  5  1  0
  6  5  1  0
  6  7  1  0
  7  9  1  0
  7  8  1  0
 10  7  1  0
 11  1  1  0
 12 13  2  0
 13 14  1  0
 14 11  1  0
 15 14  2  0
 16 15  1  0
 17 12  1  0
 17 16  2  0
 18 16  1  0
 18 19  1  0
 19 20  1  0
 21 20  1  0
 22 21  1  0
 23 22  1  0
 23 18  1  0
  1 24  1  0
  1 25  1  0
  3 26  1  0
  3 27  1  0
  4 28  1  0
  4 29  1  0
  5 30  1  0
  5 31  1  0
  6 32  1  6
 11 33  1  0
 11 34  1  0
 12 35  1  0
 13 36  1  0
 18 37  1  0
 19 38  1  0
 19 39  1  0
 20 40  1  0
 20 41  1  0
 21 42  1  0
 21 43  1  0
 22 44  1  0
 22 45  1  0
 23 46  1  0
 23 47  1  0
M  ISO  8  24   8  25   8  26  13  27  13  28  13  29  13  30  13  31  13
M  ISO  8  32  13  33   8  34   8  35  14  36  14  37  13  38  13  39  13
M  ISO  8  40  13  41  13  42  13  43  13  44  13  45  13  46  13  47  13
M  END
>  <minimizedAffinity>  (1) 
-5.87446404

>  <minimizedRMSD>  (1) 
3.23987532

$$$$
