
     RDKit          3D

 46 48  0  0  1  0  0  0  0  0999 V2000
   37.6030   24.4470   32.6280 C   0  0  1  0  0  0  0  0  0  0  0  0
   37.7550   25.3740   33.7760 C   0  0  0  0  0  0  0  0  0  0  0  0
   38.3170   24.8160   34.9150 C   0  0  0  0  0  0  0  0  0  0  0  0
   38.4910   25.6100   36.0560 C   0  0  0  0  0  0  0  0  0  0  0  0
   38.0800   26.9240   35.9660 N   0  0  0  0  0  0  0  0  0  0  0  0
   37.5390   27.4360   34.8450 C   0  0  0  0  0  0  0  0  0  0  0  0
   37.3990   26.6560   33.8110 N   0  0  0  0  0  0  0  0  0  0  0  0
   38.6070   24.6520   31.5830 C   0  0  0  0  0  0  0  0  0  0  0  0
   37.5430   23.0180   33.1450 C   0  0  0  0  0  0  0  0  0  0  0  0
   36.9110   22.0490   32.2830 C   0  0  0  0  0  0  0  0  0  0  0  0
   35.5110   21.8790   32.2250 C   0  0  0  0  0  0  0  0  0  0  0  0
   35.1630   20.9390   31.3350 N   0  0  0  0  0  0  0  0  0  0  0  0
   36.2800   20.4550   30.7780 C   0  0  0  0  0  0  0  0  0  0  0  0
   36.5290   19.5030   29.8290 C   0  0  0  0  0  0  0  0  0  0  0  0
   37.8020   19.1680   29.4070 C   0  0  0  0  0  0  0  0  0  0  0  0
   38.8110   19.8510   30.0020 C   0  0  0  0  0  0  0  0  0  0  0  0
   38.5810   20.7990   30.9440 C   0  0  0  0  0  0  0  0  0  0  0  0
   37.3440   21.1300   31.3560 C   0  0  0  0  0  0  0  0  0  0  0  0
   39.8300   21.3870   31.4800 C   0  0  0  0  0  0  0  0  0  0  0  0
   36.2450   24.7410   31.9330 C   0  0  0  0  0  0  0  0  0  0  0  0
   36.4270   25.4290   30.6960 N   0  0  0  0  0  0  0  0  0  0  0  0
   36.0800   26.8200   30.7500 C   0  0  0  0  0  0  0  0  0  0  0  0
   35.2690   27.2750   31.6480 N   0  0  0  0  0  0  0  0  0  0  0  0
   36.6110   27.7780   29.8180 N   0  0  0  0  0  0  0  0  0  0  0  0
   35.0000   28.2770   31.7120 H   0  0  0  0  0  0  0  0  0  0  0  0
   38.6233   23.7595   34.9222 H   0  0  0  0  0  0  0  0  0  0  0  0
   38.9336   25.2057   36.9783 H   0  0  0  0  0  0  0  0  0  0  0  0
   37.2224   28.4886   34.8029 H   0  0  0  0  0  0  0  0  0  0  0  0
   39.5840   24.8515   32.0473 H   0  0  0  0  0  0  0  0  0  0  0  0
   38.6755   23.7493   30.9581 H   0  0  0  0  0  0  0  0  0  0  0  0
   38.3161   25.5093   30.9581 H   0  0  0  0  0  0  0  0  0  0  0  0
   38.5755   22.6834   33.3239 H   0  0  0  0  0  0  0  0  0  0  0  0
   36.9145   23.0601   34.0468 H   0  0  0  0  0  0  0  0  0  0  0  0
   34.7938   22.4478   32.8350 H   0  0  0  0  0  0  0  0  0  0  0  0
   34.2016   20.6404   31.1172 H   0  0  0  0  0  0  0  0  0  0  0  0
   35.6739   18.9775   29.3789 H   0  0  0  0  0  0  0  0  0  0  0  0
   37.9840   18.3999   28.6409 H   0  0  0  0  0  0  0  0  0  0  0  0
   39.8485   19.6292   29.7115 H   0  0  0  0  0  0  0  0  0  0  0  0
   39.7996   21.3727   32.5795 H   0  0  0  0  0  0  0  0  0  0  0  0
   40.6916   20.7999   31.1293 H   0  0  0  0  0  0  0  0  0  0  0  0
   39.9265   22.4251   31.1293 H   0  0  0  0  0  0  0  0  0  0  0  0
   35.7293   23.7888   31.7396 H   0  0  0  0  0  0  0  0  0  0  0  0
   35.6488   25.3819   32.5991 H   0  0  0  0  0  0  0  0  0  0  0  0
   36.7755   24.9691   29.8428 H   0  0  0  0  0  0  0  0  0  0  0  0
   36.3393   28.7691   29.8873 H   0  0  0  0  0  0  0  0  0  0  0  0
   37.2630   27.4730   29.0813 H   0  0  0  0  0  0  0  0  0  0  0  0
  1  8  1  6
  1  9  1  0
  1  2  1  0
  2  7  1  0
  2  3  2  0
  3  4  1  0
  5  4  2  0
  6  5  1  0
  7  6  2  0
 10  9  1  0
 11 10  2  0
 12 11  1  0
 13 12  1  0
 13 18  2  0
 14 13  1  0
 15 14  2  0
 15 16  1  0
 16 17  2  0
 17 18  1  0
 17 19  1  0
 18 10  1  0
 20  1  1  0
 21 22  1  0
 21 20  1  0
 22 23  2  0
 23 25  1  0
 24 22  1  0
  3 26  1  0
  4 27  1  0
  6 28  1  0
  8 29  1  0
  8 30  1  0
  8 31  1  0
  9 32  1  0
  9 33  1  0
 11 34  1  0
 12 35  1  0
 14 36  1  0
 15 37  1  0
 16 38  1  0
 19 39  1  0
 19 40  1  0
 19 41  1  0
 20 42  1  0
 20 43  1  0
 21 44  1  0
 24 45  1  0
 24 46  1  0
M  ISO  8  26  14  27  14  28  14  29   8  30   8  31   8  32   8  33   8
M  ISO  8  34  14  35   9  36  14  37  14  38  14  39   8  40   8  41   8
M  ISO  2  42   8  43   8
M  END
>  <minimizedAffinity>  (1) 
-4.87130785

>  <minimizedRMSD>  (1) 
5.27979279

$$$$
