
     RDKit          3D

 27 29  0  0  0  0  0  0  0  0999 V2000
   37.7620   22.1280   35.2240 C   0  0  0  0  0  0  0  0  0  0  0  0
   39.0880   22.5290   35.0710 C   0  0  0  0  0  0  0  0  0  0  0  0
   39.7050   23.2070   36.1090 C   0  0  0  0  0  0  0  0  0  0  0  0
   38.9810   23.4530   37.2430 N   0  0  0  0  0  0  0  0  0  0  0  0
   37.6950   23.0550   37.3720 C   0  0  0  0  0  0  0  0  0  0  0  0
   37.0850   22.3950   36.3690 N   0  0  0  0  0  0  0  0  0  0  0  0
   41.0620   23.6250   35.9700 N   0  0  0  0  0  0  0  0  0  0  0  0
   42.0220   23.0610   36.7370 C   0  0  0  0  0  0  0  0  0  0  0  0
   43.3350   23.5050   36.5620 C   0  0  0  0  0  0  0  0  0  0  0  0
   43.5560   24.4880   35.6160 C   0  0  0  0  0  0  0  0  0  0  0  0
   44.7700   24.8600   35.4940 O   0  0  0  0  0  0  0  0  0  0  0  0
   42.6050   25.0530   34.8480 N   0  0  0  0  0  0  0  0  0  0  0  0
   41.3640   24.5790   35.0680 C   0  0  0  0  0  0  0  0  0  0  0  0
   40.4120   25.0610   34.3840 O   0  0  0  0  0  0  0  0  0  0  0  0
   36.9990   21.4120   34.2130 C   0  0  0  0  0  0  0  0  0  0  0  0
   35.8160   20.7450   34.5110 C   0  0  0  0  0  0  0  0  0  0  0  0
   35.3310   20.1670   33.3550 C   0  0  0  0  0  0  0  0  0  0  0  0
   36.2510   20.5130   32.3950 C   0  0  0  0  0  0  0  0  0  0  0  0
   37.2150   21.2450   32.9430 O   0  0  0  0  0  0  0  0  0  0  0  0
   39.6349   22.3107   34.1419 H   0  0  0  0  0  0  0  0  0  0  0  0
   37.1451   23.2712   38.2998 H   0  0  0  0  0  0  0  0  0  0  0  0
   41.7779   22.2804   37.4726 H   0  0  0  0  0  0  0  0  0  0  0  0
   44.1621   23.0877   37.1551 H   0  0  0  0  0  0  0  0  0  0  0  0
   42.8093   25.7846   34.1523 H   0  0  0  0  0  0  0  0  0  0  0  0
   35.3447   20.6874   35.5033 H   0  0  0  0  0  0  0  0  0  0  0  0
   34.4174   19.5670   33.2309 H   0  0  0  0  0  0  0  0  0  0  0  0
   36.1976   20.2274   31.3341 H   0  0  0  0  0  0  0  0  0  0  0  0
  1  6  1  0
  2  1  2  0
  2  3  1  0
  3  4  2  0
  4  5  1  0
  6  5  2  0
  7  3  1  0
  7  8  1  0
  9  8  2  0
 10  9  1  0
 11 10  2  0
 12 13  1  0
 12 10  1  0
 13  7  1  0
 14 13  2  0
 15 16  2  0
 15  1  1  0
 17 16  1  0
 18 19  1  0
 18 17  2  0
 19 15  1  0
  2 20  1  0
  5 21  1  0
  8 22  1  0
  9 23  1  0
 12 24  1  0
 16 25  1  0
 17 26  1  0
 18 27  1  0
M  ISO  8  20  14  21  14  22  14  23  14  24   9  25  14  26  14  27  14
M  END
>  <minimizedAffinity>  (1) 
-4.8175807

>  <minimizedRMSD>  (1) 
1.86798537

$$$$
