
     RDKit          3D

 24 26  0  0  0  0  0  0  0  0999 V2000
   37.7810   22.1150   35.2260 C   0  0  0  0  0  0  0  0  0  0  0  0
   39.1230   22.4550   35.0800 C   0  0  0  0  0  0  0  0  0  0  0  0
   39.7060   23.1530   36.1480 C   0  0  0  0  0  0  0  0  0  0  0  0
   38.9710   23.4640   37.2470 N   0  0  0  0  0  0  0  0  0  0  0  0
   37.6690   23.1090   37.3380 C   0  0  0  0  0  0  0  0  0  0  0  0
   37.0640   22.4390   36.3420 N   0  0  0  0  0  0  0  0  0  0  0  0
   41.0530   23.5130   36.0400 N   0  0  0  0  0  0  0  0  0  0  0  0
   41.5920   24.4460   35.3010 N   0  0  0  0  0  0  0  0  0  0  0  0
   42.9280   24.5010   35.4610 C   0  0  0  0  0  0  0  0  0  0  0  0
   43.2710   23.5160   36.3820 C   0  0  0  0  0  0  0  0  0  0  0  0
   42.0590   22.9210   36.7180 C   0  0  0  0  0  0  0  0  0  0  0  0
   37.0070   21.3870   34.2150 C   0  0  0  0  0  0  0  0  0  0  0  0
   35.8240   20.7400   34.5250 C   0  0  0  0  0  0  0  0  0  0  0  0
   35.3230   20.1480   33.3870 C   0  0  0  0  0  0  0  0  0  0  0  0
   36.2310   20.4640   32.4340 C   0  0  0  0  0  0  0  0  0  0  0  0
   37.2250   21.2020   32.9490 O   0  0  0  0  0  0  0  0  0  0  0  0
   39.6942   22.1911   34.1777 H   0  0  0  0  0  0  0  0  0  0  0  0
   37.0970   23.3723   38.2400 H   0  0  0  0  0  0  0  0  0  0  0  0
   43.6183   25.1943   34.9582 H   0  0  0  0  0  0  0  0  0  0  0  0
   44.2733   23.2647   36.7590 H   0  0  0  0  0  0  0  0  0  0  0  0
   41.9385   22.0915   37.4303 H   0  0  0  0  0  0  0  0  0  0  0  0
   35.3582   20.7042   35.5209 H   0  0  0  0  0  0  0  0  0  0  0  0
   34.4015   19.5572   33.2780 H   0  0  0  0  0  0  0  0  0  0  0  0
   36.1626   20.1569   31.3799 H   0  0  0  0  0  0  0  0  0  0  0  0
  1  6  1  0
  2  1  2  0
  2  3  1  0
  3  4  2  0
  4  5  1  0
  6  5  2  0
  7  3  1  0
  7 11  1  0
  8  9  2  0
  8  7  1  0
  9 10  1  0
 10 11  2  0
 12 13  2  0
 12  1  1  0
 14 13  1  0
 15 16  1  0
 15 14  2  0
 16 12  1  0
  2 17  1  0
  5 18  1  0
  9 19  1  0
 10 20  1  0
 11 21  1  0
 13 22  1  0
 14 23  1  0
 15 24  1  0
M  ISO  8  17  14  18  14  19  14  20  14  21  14  22  14  23  14  24  14
M  END
>  <minimizedAffinity>  (1) 
-4.31339788

>  <minimizedRMSD>  (1) 
1.53614759

$$$$
