
     RDKit          3D

 25 27  0  0  0  0  0  0  0  0999 V2000
   38.7310   22.6690   35.5660 C   0  0  0  0  0  0  0  0  0  0  0  0
   37.7280   22.0670   34.8120 C   0  0  0  0  0  0  0  0  0  0  0  0
   38.0470   21.5200   33.5810 C   0  0  0  0  0  0  0  0  0  0  0  0
   39.3460   21.5910   33.1480 N   0  0  0  0  0  0  0  0  0  0  0  0
   40.2940   22.1760   33.8920 C   0  0  0  0  0  0  0  0  0  0  0  0
   40.0100   22.7150   35.0900 N   0  0  0  0  0  0  0  0  0  0  0  0
   38.5370   23.2800   36.8670 C   0  0  0  0  0  0  0  0  0  0  0  0
   39.3910   23.0090   37.9330 C   0  0  0  0  0  0  0  0  0  0  0  0
   38.9510   23.7330   39.0290 C   0  0  0  0  0  0  0  0  0  0  0  0
   37.8460   24.4100   38.5760 C   0  0  0  0  0  0  0  0  0  0  0  0
   37.6460   24.1120   37.3060 O   0  0  0  0  0  0  0  0  0  0  0  0
   37.0050   20.8850   32.7780 C   0  0  0  0  0  0  0  0  0  0  0  0
   35.8300   20.5370   33.3700 C   0  0  0  0  0  0  0  0  0  0  0  0
   34.8690   19.9340   32.5580 C   0  0  0  0  0  0  0  0  0  0  0  0
   35.1210   19.7170   31.2520 N   0  0  0  0  0  0  0  0  0  0  0  0
   36.3260   20.0990   30.7480 C   0  0  0  0  0  0  0  0  0  0  0  0
   37.3080   20.6920   31.4830 N   0  0  0  0  0  0  0  0  0  0  0  0
   36.6955   22.0264   35.1892 H   0  0  0  0  0  0  0  0  0  0  0  0
   41.3264   22.2161   33.5146 H   0  0  0  0  0  0  0  0  0  0  0  0
   40.2621   22.3378   37.9090 H   0  0  0  0  0  0  0  0  0  0  0  0
   39.3894   23.7595   40.0375 H   0  0  0  0  0  0  0  0  0  0  0  0
   37.2260   25.0923   39.1761 H   0  0  0  0  0  0  0  0  0  0  0  0
   35.6466   20.7225   34.4386 H   0  0  0  0  0  0  0  0  0  0  0  0
   33.9010   19.6342   32.9858 H   0  0  0  0  0  0  0  0  0  0  0  0
   36.5192   19.9176   29.6804 H   0  0  0  0  0  0  0  0  0  0  0  0
  1  7  1  0
  2  1  2  0
  3  2  1  0
  4  3  2  0
  4  5  1  0
  5  6  2  0
  6  1  1  0
  7 11  1  0
  7  8  2  0
  8  9  1  0
 10  9  2  0
 11 10  1  0
 12 13  2  0
 12  3  1  0
 14 13  1  0
 15 14  2  0
 16 15  1  0
 16 17  2  0
 17 12  1  0
  2 18  1  0
  5 19  1  0
  8 20  1  0
  9 21  1  0
 10 22  1  0
 13 23  1  0
 14 24  1  0
 16 25  1  0
M  ISO  8  18  14  19  14  20  14  21  14  22  14  23  14  24  14  25  14
M  END
>  <minimizedAffinity>  (1) 
-4.34294224

>  <minimizedRMSD>  (1) 
6.67802906

$$$$
