
     RDKit          3D

 26 27  0  0  0  0  0  0  0  0999 V2000
   37.8970   22.2510   35.9390 C   0  0  0  0  0  0  0  0  0  0  0  0
   39.2840   22.1710   36.0250 C   0  0  0  0  0  0  0  0  0  0  0  0
   39.9190   22.6840   37.1420 C   0  0  0  0  0  0  0  0  0  0  0  0
   39.1530   23.2520   38.1180 N   0  0  0  0  0  0  0  0  0  0  0  0
   37.7980   23.3230   38.0190 C   0  0  0  0  0  0  0  0  0  0  0  0
   37.1670   22.8270   36.9380 N   0  0  0  0  0  0  0  0  0  0  0  0
   37.1120   21.7560   34.8230 C   0  0  0  0  0  0  0  0  0  0  0  0
   36.0500   20.8850   34.9860 C   0  0  0  0  0  0  0  0  0  0  0  0
   35.5000   20.5920   33.7620 C   0  0  0  0  0  0  0  0  0  0  0  0
   36.2590   21.3040   32.8900 C   0  0  0  0  0  0  0  0  0  0  0  0
   37.2090   21.9860   33.5470 O   0  0  0  0  0  0  0  0  0  0  0  0
   41.3890   22.6200   37.2760 C   0  0  0  0  0  0  0  0  0  0  0  0
   41.9170   21.2020   37.2780 C   0  0  0  0  0  0  0  0  0  0  0  0
   42.0290   23.3410   36.1100 C   0  0  0  0  0  0  0  0  0  0  0  0
   39.8670   21.7064   35.2162 H   0  0  0  0  0  0  0  0  0  0  0  0
   37.2144   23.7884   38.8270 H   0  0  0  0  0  0  0  0  0  0  0  0
   35.6991   20.4873   35.9497 H   0  0  0  0  0  0  0  0  0  0  0  0
   34.6458   19.9352   33.5404 H   0  0  0  0  0  0  0  0  0  0  0  0
   36.1153   21.3194   31.7995 H   0  0  0  0  0  0  0  0  0  0  0  0
   41.6389   23.0876   38.2398 H   0  0  0  0  0  0  0  0  0  0  0  0
   42.0445   20.8597   38.3156 H   0  0  0  0  0  0  0  0  0  0  0  0
   41.2035   20.5443   36.7599 H   0  0  0  0  0  0  0  0  0  0  0  0
   42.8869   21.1711   36.7599 H   0  0  0  0  0  0  0  0  0  0  0  0
   42.7147   24.1135   36.4883 H   0  0  0  0  0  0  0  0  0  0  0  0
   42.5905   22.6206   35.4970 H   0  0  0  0  0  0  0  0  0  0  0  0
   41.2471   23.8131   35.4970 H   0  0  0  0  0  0  0  0  0  0  0  0
  1  2  2  0
  1  6  1  0
  2  3  1  0
  3 12  1  0
  3  4  2  0
  5  4  1  0
  6  5  2  0
  7  8  2  0
  7  1  1  0
  9  8  1  0
 10 11  1  0
 10  9  2  0
 11  7  1  0
 12 13  1  0
 14 12  1  0
  2 15  1  0
  5 16  1  0
  8 17  1  0
  9 18  1  0
 10 19  1  0
 12 20  1  0
 13 21  1  0
 13 22  1  0
 13 23  1  0
 14 24  1  0
 14 25  1  0
 14 26  1  0
M  ISO  8  15  14  16  14  17  14  18  14  19  14  20   8  21   8  22   8
M  ISO  4  23   8  24   8  25   8  26   8
M  END
>  <minimizedAffinity>  (1) 
-4.37165546

>  <minimizedRMSD>  (1) 
0.32496047

$$$$
