
     RDKit          3D

 43 44  0  0  1  0  0  0  0  0999 V2000
   38.0100   25.0250   35.9610 C   0  0  0  0  0  0  0  0  0  0  0  0
   39.1930   24.3510   36.4500 N   0  0  0  0  0  0  0  0  0  0  0  0
   39.8210   23.6050   35.3400 C   0  0  0  0  0  0  0  0  0  0  0  0
   40.7960   22.7200   36.0740 C   0  0  0  0  0  0  0  0  0  0  0  0
   40.2240   22.5730   37.4930 C   0  0  0  0  0  0  0  0  0  0  0  0
   38.8650   23.2360   37.2960 C   0  0  1  0  0  0  0  0  0  0  0  0
   38.3690   23.6220   38.6570 C   0  0  0  0  0  0  0  0  0  0  0  0
   39.3350   23.7720   39.5980 F   0  0  0  0  0  0  0  0  0  0  0  0
   37.3740   22.7440   39.0320 F   0  0  0  0  0  0  0  0  0  0  0  0
   37.7430   24.8740   38.5590 F   0  0  0  0  0  0  0  0  0  0  0  0
   38.1950   26.4950   35.8760 C   0  0  0  0  0  0  0  0  0  0  0  0
   36.6650   26.6310   32.4630 C   0  0  0  0  0  0  0  0  0  0  0  0
   37.3750   26.2390   33.6010 C   0  0  0  0  0  0  0  0  0  0  0  0
   37.4190   27.0050   34.7220 C   0  0  0  0  0  0  0  0  0  0  0  0
   36.7420   28.1830   34.7040 N   0  0  0  0  0  0  0  0  0  0  0  0
   36.0550   28.5710   33.6140 C   0  0  0  0  0  0  0  0  0  0  0  0
   36.0030   27.8360   32.5180 N   0  0  0  0  0  0  0  0  0  0  0  0
   35.3260   29.8760   33.6430 C   0  0  0  0  0  0  0  0  0  0  0  0
   35.6720   30.7510   32.4820 C   0  0  0  0  0  0  0  0  0  0  0  0
   33.8190   29.6500   33.6280 C   0  0  0  0  0  0  0  0  0  0  0  0
   35.6360   30.5920   34.9360 C   0  0  0  0  0  0  0  0  0  0  0  0
   37.7720   24.6397   34.9585 H   0  0  0  0  0  0  0  0  0  0  0  0
   37.1928   24.8287   36.6707 H   0  0  0  0  0  0  0  0  0  0  0  0
   40.3397   24.2822   34.6455 H   0  0  0  0  0  0  0  0  0  0  0  0
   39.1047   23.0538   34.7130 H   0  0  0  0  0  0  0  0  0  0  0  0
   40.8683   21.7377   35.5843 H   0  0  0  0  0  0  0  0  0  0  0  0
   41.8097   23.1471   36.0834 H   0  0  0  0  0  0  0  0  0  0  0  0
   40.1253   21.5176   37.7868 H   0  0  0  0  0  0  0  0  0  0  0  0
   40.8427   23.0091   38.2912 H   0  0  0  0  0  0  0  0  0  0  0  0
   38.0668   22.6304   36.8420 H   0  0  0  0  0  0  0  0  0  0  0  0
   37.8353   26.9676   36.8019 H   0  0  0  0  0  0  0  0  0  0  0  0
   39.2612   26.7318   35.7449 H   0  0  0  0  0  0  0  0  0  0  0  0
   36.6365   26.0024   31.5608 H   0  0  0  0  0  0  0  0  0  0  0  0
   37.9149   25.2807   33.5887 H   0  0  0  0  0  0  0  0  0  0  0  0
   36.0532   31.7149   32.8501 H   0  0  0  0  0  0  0  0  0  0  0  0
   36.4440   30.2608   31.8706 H   0  0  0  0  0  0  0  0  0  0  0  0
   34.7735   30.9213   31.8706 H   0  0  0  0  0  0  0  0  0  0  0  0
   33.4463   29.5941   34.6614 H   0  0  0  0  0  0  0  0  0  0  0  0
   33.3282   30.4846   33.1059 H   0  0  0  0  0  0  0  0  0  0  0  0
   33.5947   28.7082   33.1059 H   0  0  0  0  0  0  0  0  0  0  0  0
   35.3585   29.9510   35.7857 H   0  0  0  0  0  0  0  0  0  0  0  0
   36.7119   30.8164   34.9820 H   0  0  0  0  0  0  0  0  0  0  0  0
   35.0635   31.5301   34.9820 H   0  0  0  0  0  0  0  0  0  0  0  0
  1  2  1  0
  2  6  1  0
  3  4  1  0
  3  2  1  0
  4  5  1  0
  6  5  1  0
  6  7  1  0
  7  9  1  0
  7  8  1  0
 10  7  1  0
 11  1  1  0
 12 17  2  0
 12 13  1  0
 13 14  2  0
 14 11  1  0
 15 14  1  0
 16 18  1  0
 16 15  2  0
 17 16  1  0
 18 21  1  0
 19 18  1  0
 20 18  1  0
  1 22  1  0
  1 23  1  0
  3 24  1  0
  3 25  1  0
  4 26  1  0
  4 27  1  0
  5 28  1  0
  5 29  1  0
  6 30  1  6
 11 31  1  0
 11 32  1  0
 12 33  1  0
 13 34  1  0
 19 35  1  0
 19 36  1  0
 19 37  1  0
 20 38  1  0
 20 39  1  0
 20 40  1  0
 21 41  1  0
 21 42  1  0
 21 43  1  0
M  ISO  8  22   8  23   8  24  13  25  13  26  13  27  13  28  13  29  13
M  ISO  8  30  13  31   8  32   8  33  14  34  14  35   8  36   8  37   8
M  ISO  6  38   8  39   8  40   8  41   8  42   8  43   8
M  END
>  <minimizedAffinity>  (1) 
-5.66661453

>  <minimizedRMSD>  (1) 
2.92151451

$$$$
