
     RDKit          3D

 20 21  0  0  0  0  0  0  0  0999 V2000
   37.9340   22.2730   35.9790 C   0  0  0  0  0  0  0  0  0  0  0  0
   39.3210   22.1650   36.0510 C   0  0  0  0  0  0  0  0  0  0  0  0
   39.9640   22.6800   37.1740 C   0  0  0  0  0  0  0  0  0  0  0  0
   39.2090   23.2670   38.1490 N   0  0  0  0  0  0  0  0  0  0  0  0
   37.8750   23.3550   38.0470 C   0  0  0  0  0  0  0  0  0  0  0  0
   37.2200   22.8680   36.9780 N   0  0  0  0  0  0  0  0  0  0  0  0
   37.1340   21.7770   34.8620 C   0  0  0  0  0  0  0  0  0  0  0  0
   36.0760   20.8790   35.0820 C   0  0  0  0  0  0  0  0  0  0  0  0
   35.5080   20.5870   33.8650 C   0  0  0  0  0  0  0  0  0  0  0  0
   36.2370   21.3110   32.9670 C   0  0  0  0  0  0  0  0  0  0  0  0
   37.1930   22.0050   33.5960 O   0  0  0  0  0  0  0  0  0  0  0  0
   41.4280   22.5820   37.2820 C   0  0  0  0  0  0  0  0  0  0  0  0
   39.8930   21.6859   35.2427 H   0  0  0  0  0  0  0  0  0  0  0  0
   37.3040   23.8358   38.8550 H   0  0  0  0  0  0  0  0  0  0  0  0
   35.7583   20.4800   36.0566 H   0  0  0  0  0  0  0  0  0  0  0  0
   34.6574   19.9200   33.6609 H   0  0  0  0  0  0  0  0  0  0  0  0
   36.0636   21.3226   31.8808 H   0  0  0  0  0  0  0  0  0  0  0  0
   41.7169   22.5627   38.3432 H   0  0  0  0  0  0  0  0  0  0  0  0
   41.7709   21.6589   36.7918 H   0  0  0  0  0  0  0  0  0  0  0  0
   41.8908   23.4512   36.7918 H   0  0  0  0  0  0  0  0  0  0  0  0
  1  2  2  0
  1  6  1  0
  2  3  1  0
  3 12  1  0
  3  4  2  0
  5  4  1  0
  6  5  2  0
  7  8  2  0
  7  1  1  0
  9  8  1  0
 10 11  1  0
 10  9  2  0
 11  7  1  0
  2 13  1  0
  5 14  1  0
  8 15  1  0
  9 16  1  0
 10 17  1  0
 12 18  1  0
 12 19  1  0
 12 20  1  0
M  ISO  8  13  14  14  14  15  14  16  14  17  14  18   8  19   8  20   8
M  END
>  <minimizedAffinity>  (1) 
-3.92206836

>  <minimizedRMSD>  (1) 
0.25366962

$$$$
