
     RDKit          3D

 18 19  0  0  0  0  0  0  0  0999 V2000
   37.9260   22.2330   35.8430 C   0  0  0  0  0  0  0  0  0  0  0  0
   39.3170   22.1410   35.8840 C   0  0  0  0  0  0  0  0  0  0  0  0
   39.9820   22.6620   36.9830 C   0  0  0  0  0  0  0  0  0  0  0  0
   39.2390   23.2460   37.9850 N   0  0  0  0  0  0  0  0  0  0  0  0
   37.9030   23.3180   37.9150 C   0  0  0  0  0  0  0  0  0  0  0  0
   37.2510   22.8140   36.8510 N   0  0  0  0  0  0  0  0  0  0  0  0
   37.1010   21.7300   34.7520 C   0  0  0  0  0  0  0  0  0  0  0  0
   36.0340   20.8650   34.9830 C   0  0  0  0  0  0  0  0  0  0  0  0
   35.4570   20.5740   33.7550 C   0  0  0  0  0  0  0  0  0  0  0  0
   36.1910   21.2670   32.8490 C   0  0  0  0  0  0  0  0  0  0  0  0
   37.1560   21.9410   33.4720 O   0  0  0  0  0  0  0  0  0  0  0  0
   41.7540   22.5370   37.0190 S   0  0  0  0  0  0  0  0  0  0  0  0
   39.8738   21.6658   35.0629 H   0  0  0  0  0  0  0  0  0  0  0  0
   37.3366   23.7911   38.7307 H   0  0  0  0  0  0  0  0  0  0  0  0
   35.7079   20.4821   35.9613 H   0  0  0  0  0  0  0  0  0  0  0  0
   34.5924   19.9229   33.5589 H   0  0  0  0  0  0  0  0  0  0  0  0
   36.0156   21.2716   31.7631 H   0  0  0  0  0  0  0  0  0  0  0  0
   42.1833   22.5067   38.3196 H   0  0  0  0  0  0  0  0  0  0  0  0
  1  2  2  0
  1  6  1  0
  2  3  1  0
  3 12  1  0
  3  4  2  0
  5  4  1  0
  6  5  2  0
  7  8  2  0
  7  1  1  0
  9  8  1  0
 10 11  1  0
 10  9  2  0
 11  7  1  0
  2 13  1  0
  5 14  1  0
  8 15  1  0
  9 16  1  0
 10 17  1  0
 12 18  1  0
M  ISO  6  13  14  14  14  15  14  16  14  17  14  18  11
M  END
>  <minimizedAffinity>  (1) 
-3.66267204

>  <minimizedRMSD>  (1) 
0.401358604

$$$$
