
     RDKit          3D

 19 20  0  0  0  0  0  0  0  0999 V2000
   37.9070   22.2680   35.9570 C   0  0  0  0  0  0  0  0  0  0  0  0
   39.2920   22.0700   36.0630 C   0  0  0  0  0  0  0  0  0  0  0  0
   39.9100   22.5780   37.2100 C   0  0  0  0  0  0  0  0  0  0  0  0
   39.1630   23.2230   38.1440 N   0  0  0  0  0  0  0  0  0  0  0  0
   37.8390   23.3920   38.0050 C   0  0  0  0  0  0  0  0  0  0  0  0
   37.1950   22.9210   36.9170 N   0  0  0  0  0  0  0  0  0  0  0  0
   37.1250   21.7930   34.8170 C   0  0  0  0  0  0  0  0  0  0  0  0
   36.0660   20.8900   35.0110 C   0  0  0  0  0  0  0  0  0  0  0  0
   35.5050   20.6100   33.7770 C   0  0  0  0  0  0  0  0  0  0  0  0
   36.2410   21.3480   32.9080 C   0  0  0  0  0  0  0  0  0  0  0  0
   37.1830   22.0300   33.5580 O   0  0  0  0  0  0  0  0  0  0  0  0
   41.3500   22.3750   37.3260 C   0  0  0  0  0  0  0  0  0  0  0  0
   41.8900   21.2540   37.5050 O   0  0  0  0  0  0  0  0  0  0  0  0
   39.8622   21.5425   35.2842 H   0  0  0  0  0  0  0  0  0  0  0  0
   37.2728   23.9201   38.7864 H   0  0  0  0  0  0  0  0  0  0  0  0
   35.7393   20.4770   35.9767 H   0  0  0  0  0  0  0  0  0  0  0  0
   34.6589   19.9438   33.5528 H   0  0  0  0  0  0  0  0  0  0  0  0
   36.0822   21.3788   31.8200 H   0  0  0  0  0  0  0  0  0  0  0  0
   42.0033   23.2569   37.2523 H   0  0  0  0  0  0  0  0  0  0  0  0
  1  2  2  0
  1  6  1  0
  2  3  1  0
  3 12  1  0
  3  4  2  0
  5  4  1  0
  6  5  2  0
  7  8  2  0
  7  1  1  0
  9  8  1  0
 10 11  1  0
 10  9  2  0
 11  7  1  0
 12 13  2  0
  2 14  1  0
  5 15  1  0
  8 16  1  0
  9 17  1  0
 10 18  1  0
 12 19  1  0
M  ISO  6  14  14  15  14  16  14  17  14  18  14  19   6
M  END
>  <minimizedAffinity>  (1) 
-3.89502263

>  <minimizedRMSD>  (1) 
0.310324907

$$$$
