
     RDKit          3D

 34 35  0  0  1  0  0  0  0  0999 V2000
   38.4470   24.2560   35.4110 C   0  0  0  0  0  0  0  0  0  0  0  0
   39.5690   23.8310   36.2160 N   0  0  0  0  0  0  0  0  0  0  0  0
   40.3850   22.8730   35.4410 C   0  0  0  0  0  0  0  0  0  0  0  0
   41.2930   22.3160   36.5100 C   0  0  0  0  0  0  0  0  0  0  0  0
   40.5090   22.4770   37.8200 C   0  0  0  0  0  0  0  0  0  0  0  0
   39.1670   22.9510   37.2790 C   0  0  1  0  0  0  0  0  0  0  0  0
   38.4640   23.6350   38.4080 C   0  0  0  0  0  0  0  0  0  0  0  0
   39.2070   23.8150   39.5300 F   0  0  0  0  0  0  0  0  0  0  0  0
   37.2740   22.9690   38.6440 F   0  0  0  0  0  0  0  0  0  0  0  0
   38.0850   24.9210   37.9860 F   0  0  0  0  0  0  0  0  0  0  0  0
   38.8480   24.5530   34.0100 C   0  0  0  0  0  0  0  0  0  0  0  0
   36.3920   22.3460   32.2410 C   0  0  0  0  0  0  0  0  0  0  0  0
   37.4290   22.8170   33.0610 C   0  0  0  0  0  0  0  0  0  0  0  0
   37.7430   24.1370   33.1070 C   0  0  0  0  0  0  0  0  0  0  0  0
   37.0150   24.9790   32.3280 N   0  0  0  0  0  0  0  0  0  0  0  0
   36.0290   24.5420   31.5460 C   0  0  0  0  0  0  0  0  0  0  0  0
   35.7210   23.2610   31.4990 N   0  0  0  0  0  0  0  0  0  0  0  0
   35.2750   25.4870   30.7260 C   0  0  0  0  0  0  0  0  0  0  0  0
   34.0920   25.2610   30.3590 O   0  0  0  0  0  0  0  0  0  0  0  0
   35.8460   26.7020   30.3050 O   0  0  0  0  0  0  0  0  0  0  0  0
   37.6925   23.4556   35.4025 H   0  0  0  0  0  0  0  0  0  0  0  0
   38.0425   25.1790   35.8518 H   0  0  0  0  0  0  0  0  0  0  0  0
   39.7618   22.0851   34.9928 H   0  0  0  0  0  0  0  0  0  0  0  0
   40.9178   23.3235   34.5906 H   0  0  0  0  0  0  0  0  0  0  0  0
   41.5112   21.2551   36.3178 H   0  0  0  0  0  0  0  0  0  0  0  0
   42.2619   22.8359   36.5415 H   0  0  0  0  0  0  0  0  0  0  0  0
   40.4162   21.5223   38.3585 H   0  0  0  0  0  0  0  0  0  0  0  0
   40.9734   23.1521   38.5539 H   0  0  0  0  0  0  0  0  0  0  0  0
   38.4702   22.1863   36.9052 H   0  0  0  0  0  0  0  0  0  0  0  0
   39.0336   25.6314   33.8975 H   0  0  0  0  0  0  0  0  0  0  0  0
   39.7687   24.0069   33.7568 H   0  0  0  0  0  0  0  0  0  0  0  0
   36.1340   21.2774   32.2019 H   0  0  0  0  0  0  0  0  0  0  0  0
   37.9971   22.1044   33.6770 H   0  0  0  0  0  0  0  0  0  0  0  0
   35.3196   27.3301   29.7496 H   0  0  0  0  0  0  0  0  0  0  0  0
  1  2  1  0
  2  6  1  0
  3  2  1  0
  3  4  1  0
  4  5  1  0
  6  5  1  0
  6  7  1  0
  7  9  1  0
  7  8  1  0
 10  7  1  0
 11  1  1  0
 12 13  2  0
 13 14  1  0
 14 11  1  0
 15 14  2  0
 16 15  1  0
 17 16  2  0
 17 12  1  0
 18 16  1  0
 19 18  2  0
 20 18  1  0
  1 21  1  0
  1 22  1  0
  3 23  1  0
  3 24  1  0
  4 25  1  0
  4 26  1  0
  5 27  1  0
  5 28  1  0
  6 29  1  6
 11 30  1  0
 11 31  1  0
 12 32  1  0
 13 33  1  0
 20 34  1  0
M  ISO  8  21   8  22   8  23  13  24  13  25  13  26  13  27  13  28  13
M  ISO  6  29  13  30   8  31   8  32  14  33  14  34   3
M  END
>  <minimizedAffinity>  (1) 
-5.40359259

>  <minimizedRMSD>  (1) 
0.651111424

$$$$
