
     RDKit          3D

 37 40  0  0  0  0  0  0  0  0999 V2000
   41.3760   22.3970   36.6890 C   0  0  0  0  0  0  0  0  0  0  0  0
   38.4220   24.6790   36.1550 C   0  0  0  0  0  0  0  0  0  0  0  0
   39.6170   24.0050   35.9510 C   0  0  0  0  0  0  0  0  0  0  0  0
   40.1010   23.1230   36.8960 C   0  0  0  0  0  0  0  0  0  0  0  0
   39.3730   22.9450   38.0150 N   0  0  0  0  0  0  0  0  0  0  0  0
   38.2090   23.6010   38.2160 C   0  0  0  0  0  0  0  0  0  0  0  0
   37.7290   24.4620   37.3000 N   0  0  0  0  0  0  0  0  0  0  0  0
   37.8270   25.6260   35.2250 C   0  0  0  0  0  0  0  0  0  0  0  0
   37.7270   25.3200   33.8610 C   0  0  0  0  0  0  0  0  0  0  0  0
   37.1260   26.3990   33.2420 C   0  0  0  0  0  0  0  0  0  0  0  0
   36.8900   27.3030   34.2470 C   0  0  0  0  0  0  0  0  0  0  0  0
   37.3210   26.8030   35.4020 O   0  0  0  0  0  0  0  0  0  0  0  0
   42.0560   22.7510   35.4060 C   0  0  0  0  0  0  0  0  0  0  0  0
   43.2230   23.5730   35.5770 N   0  0  0  0  0  0  0  0  0  0  0  0
   44.3750   23.2720   36.2010 C   0  0  0  0  0  0  0  0  0  0  0  0
   45.2160   24.3290   36.1350 N   0  0  0  0  0  0  0  0  0  0  0  0
   44.5930   25.3110   35.4640 C   0  0  0  0  0  0  0  0  0  0  0  0
   44.9810   26.5900   35.1120 C   0  0  0  0  0  0  0  0  0  0  0  0
   46.1080   27.0660   35.4080 O   0  0  0  0  0  0  0  0  0  0  0  0
   44.0740   27.3100   34.4250 N   0  0  0  0  0  0  0  0  0  0  0  0
   42.8430   26.8850   34.0630 C   0  0  0  0  0  0  0  0  0  0  0  0
   41.9530   27.7200   33.3370 N   0  0  0  0  0  0  0  0  0  0  0  0
   42.4720   25.6390   34.4090 N   0  0  0  0  0  0  0  0  0  0  0  0
   43.3260   24.8470   35.1030 C   0  0  0  0  0  0  0  0  0  0  0  0
   42.0538   22.6374   37.5213 H   0  0  0  0  0  0  0  0  0  0  0  0
   41.1369   21.3242   36.6459 H   0  0  0  0  0  0  0  0  0  0  0  0
   40.1858   24.1754   35.0250 H   0  0  0  0  0  0  0  0  0  0  0  0
   37.6442   23.4283   39.1440 H   0  0  0  0  0  0  0  0  0  0  0  0
   38.0643   24.3932   33.3739 H   0  0  0  0  0  0  0  0  0  0  0  0
   36.8880   26.5096   32.1738 H   0  0  0  0  0  0  0  0  0  0  0  0
   36.4178   28.2880   34.1177 H   0  0  0  0  0  0  0  0  0  0  0  0
   41.3395   23.2932   34.7715 H   0  0  0  0  0  0  0  0  0  0  0  0
   42.3916   21.8080   34.9497 H   0  0  0  0  0  0  0  0  0  0  0  0
   44.5993   22.3127   36.6904 H   0  0  0  0  0  0  0  0  0  0  0  0
   44.3411   28.2666   34.1519 H   0  0  0  0  0  0  0  0  0  0  0  0
   42.2405   28.6734   33.0738 H   0  0  0  0  0  0  0  0  0  0  0  0
   41.0199   27.3723   33.0736 H   0  0  0  0  0  0  0  0  0  0  0  0
  1  4  1  0
  2  7  1  0
  3  2  2  0
  3  4  1  0
  4  5  2  0
  5  6  1  0
  7  6  2  0
  8 12  1  0
  8  2  1  0
  9  8  2  0
 10  9  1  0
 10 11  2  0
 11 12  1  0
 13 14  1  0
 13  1  1  0
 14 15  1  0
 16 15  2  0
 17 16  1  0
 18 19  2  0
 18 17  1  0
 20 18  1  0
 21 23  2  0
 21 20  1  0
 22 21  1  0
 23 24  1  0
 24 17  2  0
 24 14  1  0
  1 25  1  0
  1 26  1  0
  3 27  1  0
  6 28  1  0
  9 29  1  0
 10 30  1  0
 11 31  1  0
 13 32  1  0
 13 33  1  0
 15 34  1  0
 20 35  1  0
 22 36  1  0
 22 37  1  0
M  ISO  8  25   8  26   8  27  14  28  14  29  14  30  14  31  14  32   8
M  ISO  3  33   8  34  14  35   9
M  END
>  <minimizedAffinity>  (1) 
-5.35804033

>  <minimizedRMSD>  (1) 
6.97784853

$$$$
