
     RDKit          3D

 34 35  0  0  1  0  0  0  0  0999 V2000
   38.3650   24.2150   35.3280 C   0  0  0  0  0  0  0  0  0  0  0  0
   39.5080   23.8440   36.1210 N   0  0  0  0  0  0  0  0  0  0  0  0
   40.3500   22.9120   35.3420 C   0  0  0  0  0  0  0  0  0  0  0  0
   41.2860   22.3880   36.4030 C   0  0  0  0  0  0  0  0  0  0  0  0
   40.5260   22.5490   37.7250 C   0  0  0  0  0  0  0  0  0  0  0  0
   39.1560   22.9620   37.1990 C   0  0  1  0  0  0  0  0  0  0  0  0
   38.4440   23.6440   38.3370 C   0  0  0  0  0  0  0  0  0  0  0  0
   39.1840   23.7960   39.4670 F   0  0  0  0  0  0  0  0  0  0  0  0
   37.2510   22.9750   38.5520 F   0  0  0  0  0  0  0  0  0  0  0  0
   38.0850   24.9280   37.9290 F   0  0  0  0  0  0  0  0  0  0  0  0
   38.7160   24.5400   33.9300 C   0  0  0  0  0  0  0  0  0  0  0  0
   36.3030   22.3280   32.1140 C   0  0  0  0  0  0  0  0  0  0  0  0
   37.3410   22.8060   32.9190 C   0  0  0  0  0  0  0  0  0  0  0  0
   37.6010   24.1320   33.0530 C   0  0  0  0  0  0  0  0  0  0  0  0
   36.8040   24.9930   32.3660 N   0  0  0  0  0  0  0  0  0  0  0  0
   35.8000   24.5530   31.5860 C   0  0  0  0  0  0  0  0  0  0  0  0
   35.5410   23.2630   31.4510 N   0  0  0  0  0  0  0  0  0  0  0  0
   34.9410   25.5230   30.8420 C   0  0  0  0  0  0  0  0  0  0  0  0
   35.6100   26.6480   30.4440 F   0  0  0  0  0  0  0  0  0  0  0  0
   34.2970   24.9210   29.7630 F   0  0  0  0  0  0  0  0  0  0  0  0
   33.8890   25.9650   31.6580 F   0  0  0  0  0  0  0  0  0  0  0  0
   37.6527   23.3767   35.3252 H   0  0  0  0  0  0  0  0  0  0  0  0
   37.9307   25.1198   35.7781 H   0  0  0  0  0  0  0  0  0  0  0  0
   39.7500   22.1024   34.9009 H   0  0  0  0  0  0  0  0  0  0  0  0
   40.8603   23.3789   34.4867 H   0  0  0  0  0  0  0  0  0  0  0  0
   41.5221   21.3293   36.2203 H   0  0  0  0  0  0  0  0  0  0  0  0
   42.2433   22.9298   36.4106 H   0  0  0  0  0  0  0  0  0  0  0  0
   40.4792   21.6039   38.2859 H   0  0  0  0  0  0  0  0  0  0  0  0
   40.9800   23.2554   38.4355 H   0  0  0  0  0  0  0  0  0  0  0  0
   38.4842   22.1648   36.8480 H   0  0  0  0  0  0  0  0  0  0  0  0
   38.8854   25.6226   33.8334 H   0  0  0  0  0  0  0  0  0  0  0  0
   39.6335   24.0065   33.6411 H   0  0  0  0  0  0  0  0  0  0  0  0
   36.1037   21.2508   32.0146 H   0  0  0  0  0  0  0  0  0  0  0  0
   37.9682   22.0838   33.4621 H   0  0  0  0  0  0  0  0  0  0  0  0
  1  2  1  0
  2  6  1  0
  3  2  1  0
  3  4  1  0
  4  5  1  0
  6  5  1  0
  6  7  1  0
  7  9  1  0
  7  8  1  0
 10  7  1  0
 11  1  1  0
 12 13  2  0
 13 14  1  0
 14 11  1  0
 15 14  2  0
 16 15  1  0
 17 16  2  0
 17 12  1  0
 18 16  1  0
 18 21  1  0
 19 18  1  0
 20 18  1  0
  1 22  1  0
  1 23  1  0
  3 24  1  0
  3 25  1  0
  4 26  1  0
  4 27  1  0
  5 28  1  0
  5 29  1  0
  6 30  1  6
 11 31  1  0
 11 32  1  0
 12 33  1  0
 13 34  1  0
M  ISO  8  22   8  23   8  24  13  25  13  26  13  27  13  28  13  29  13
M  ISO  5  30  13  31   8  32   8  33  14  34  14
M  END
>  <minimizedAffinity>  (1) 
-5.34986782

>  <minimizedRMSD>  (1) 
0.525126159

$$$$
