
     RDKit          3D

 39 41  0  0  0  0  0  0  0  0999 V2000
   37.7660   22.2040   35.9380 C   0  0  0  0  0  0  0  0  0  0  0  0
   39.1580   22.1780   36.0840 C   0  0  0  0  0  0  0  0  0  0  0  0
   39.7420   22.7390   37.2050 C   0  0  0  0  0  0  0  0  0  0  0  0
   38.9380   23.2980   38.1290 N   0  0  0  0  0  0  0  0  0  0  0  0
   37.5970   23.3190   37.9810 C   0  0  0  0  0  0  0  0  0  0  0  0
   37.0050   22.7760   36.8930 N   0  0  0  0  0  0  0  0  0  0  0  0
   37.0400   21.6500   34.8110 C   0  0  0  0  0  0  0  0  0  0  0  0
   35.9240   20.8230   35.0000 C   0  0  0  0  0  0  0  0  0  0  0  0
   35.4720   20.4720   33.7370 C   0  0  0  0  0  0  0  0  0  0  0  0
   36.3070   21.0800   32.8620 C   0  0  0  0  0  0  0  0  0  0  0  0
   37.2120   21.7620   33.5400 O   0  0  0  0  0  0  0  0  0  0  0  0
   41.2160   22.7100   37.3550 C   0  0  0  0  0  0  0  0  0  0  0  0
   41.8010   21.3490   37.2030 C   0  0  0  0  0  0  0  0  0  0  0  0
   43.1440   21.3350   36.5410 C   0  0  0  0  0  0  0  0  0  0  0  0
   43.0410   20.6820   35.1810 C   0  0  0  0  0  0  0  0  0  0  0  0
   44.0660   21.1830   34.2160 C   0  0  0  0  0  0  0  0  0  0  0  0
   45.2950   21.6880   34.9400 C   0  0  0  0  0  0  0  0  0  0  0  0
   44.9580   22.8910   35.8020 C   0  0  0  0  0  0  0  0  0  0  0  0
   43.5900   22.7940   36.4000 C   0  0  0  0  0  0  0  0  0  0  0  0
   39.7854   21.7128   35.3094 H   0  0  0  0  0  0  0  0  0  0  0  0
   36.9746   23.7858   38.7586 H   0  0  0  0  0  0  0  0  0  0  0  0
   35.4912   20.5130   35.9626 H   0  0  0  0  0  0  0  0  0  0  0  0
   34.6113   19.8309   33.4956 H   0  0  0  0  0  0  0  0  0  0  0  0
   36.2423   21.0164   31.7658 H   0  0  0  0  0  0  0  0  0  0  0  0
   41.6570   23.3661   36.5901 H   0  0  0  0  0  0  0  0  0  0  0  0
   41.4444   23.0486   38.3764 H   0  0  0  0  0  0  0  0  0  0  0  0
   41.9035   20.9026   38.2031 H   0  0  0  0  0  0  0  0  0  0  0  0
   41.1196   20.7799   36.5536 H   0  0  0  0  0  0  0  0  0  0  0  0
   43.8721   20.7626   37.1345 H   0  0  0  0  0  0  0  0  0  0  0  0
   43.1736   19.5967   35.3018 H   0  0  0  0  0  0  0  0  0  0  0  0
   42.0514   20.9303   34.7698 H   0  0  0  0  0  0  0  0  0  0  0  0
   43.6332   22.0048   33.6267 H   0  0  0  0  0  0  0  0  0  0  0  0
   44.3639   20.3518   33.5599 H   0  0  0  0  0  0  0  0  0  0  0  0
   45.6914   20.8858   35.5798 H   0  0  0  0  0  0  0  0  0  0  0  0
   46.0447   21.9888   34.1934 H   0  0  0  0  0  0  0  0  0  0  0  0
   45.6955   22.9617   36.6150 H   0  0  0  0  0  0  0  0  0  0  0  0
   44.9826   23.7836   35.1596 H   0  0  0  0  0  0  0  0  0  0  0  0
   43.6002   23.2629   37.3950 H   0  0  0  0  0  0  0  0  0  0  0  0
   42.8832   23.3093   35.7330 H   0  0  0  0  0  0  0  0  0  0  0  0
  1  2  2  0
  1  6  1  0
  2  3  1  0
  3 12  1  0
  3  4  2  0
  5  4  1  0
  6  5  2  0
  7  8  2  0
  7  1  1  0
  9  8  1  0
 10 11  1  0
 10  9  2  0
 11  7  1  0
 13 12  1  0
 14 13  1  0
 15 14  1  0
 16 17  1  0
 16 15  1  0
 17 18  1  0
 18 19  1  0
 19 14  1  0
  2 20  1  0
  5 21  1  0
  8 22  1  0
  9 23  1  0
 10 24  1  0
 12 25  1  0
 12 26  1  0
 13 27  1  0
 13 28  1  0
 14 29  1  0
 15 30  1  0
 15 31  1  0
 16 32  1  0
 16 33  1  0
 17 34  1  0
 17 35  1  0
 18 36  1  0
 18 37  1  0
 19 38  1  0
 19 39  1  0
M  ISO  8  20  14  21  14  22  14  23  14  24  14  25   8  26   8  27   8
M  ISO  8  28   8  29  13  30  13  31  13  32  13  33  13  34  13  35  13
M  ISO  4  36  13  37  13  38  13  39  13
M  END
>  <minimizedAffinity>  (1) 
-4.62833595

>  <minimizedRMSD>  (1) 
1.34408522

$$$$
