
     RDKit          3D

 34 37  0  0  0  0  0  0  0  0999 V2000
   37.2740   23.1180   31.2590 C   0  0  0  0  0  0  0  0  0  0  0  0
   37.4390   24.2370   32.0560 C   0  0  0  0  0  0  0  0  0  0  0  0
   38.3170   25.2380   31.7110 C   0  0  0  0  0  0  0  0  0  0  0  0
   39.0160   25.0780   30.5510 N   0  0  0  0  0  0  0  0  0  0  0  0
   38.8530   23.9820   29.7720 C   0  0  0  0  0  0  0  0  0  0  0  0
   37.9910   22.9990   30.1120 N   0  0  0  0  0  0  0  0  0  0  0  0
   36.3760   22.0170   31.5410 C   0  0  0  0  0  0  0  0  0  0  0  0
   36.5690   20.7550   30.9890 C   0  0  0  0  0  0  0  0  0  0  0  0
   35.5440   19.9400   31.4560 C   0  0  0  0  0  0  0  0  0  0  0  0
   34.7900   20.7460   32.2580 C   0  0  0  0  0  0  0  0  0  0  0  0
   35.3080   21.9510   32.2820 O   0  0  0  0  0  0  0  0  0  0  0  0
   38.5290   26.4410   32.5200 C   0  0  0  0  0  0  0  0  0  0  0  0
   39.6890   26.2930   33.4660 C   0  0  0  0  0  0  0  0  0  0  0  0
   39.0960   26.2170   34.8050 N   0  0  0  0  0  0  0  0  0  0  0  0
   38.6840   27.2400   35.6100 C   0  0  0  0  0  0  0  0  0  0  0  0
   38.2090   26.6940   36.7390 N   0  0  0  0  0  0  0  0  0  0  0  0
   38.2940   25.3620   36.7040 C   0  0  0  0  0  0  0  0  0  0  0  0
   37.9630   24.3300   37.5640 C   0  0  0  0  0  0  0  0  0  0  0  0
   38.1970   23.0500   37.1880 N   0  0  0  0  0  0  0  0  0  0  0  0
   38.7530   22.7810   35.9740 C   0  0  0  0  0  0  0  0  0  0  0  0
   39.0850   23.7620   35.1150 N   0  0  0  0  0  0  0  0  0  0  0  0
   38.8630   25.0460   35.4660 C   0  0  0  0  0  0  0  0  0  0  0  0
   36.8561   24.3279   32.9844 H   0  0  0  0  0  0  0  0  0  0  0  0
   39.4348   23.8904   28.8429 H   0  0  0  0  0  0  0  0  0  0  0  0
   37.3812   20.4573   30.3096 H   0  0  0  0  0  0  0  0  0  0  0  0
   35.3773   18.8768   31.2284 H   0  0  0  0  0  0  0  0  0  0  0  0
   33.8861   20.4333   32.8013 H   0  0  0  0  0  0  0  0  0  0  0  0
   38.7259   27.2894   31.8481 H   0  0  0  0  0  0  0  0  0  0  0  0
   37.6227   26.6077   33.1208 H   0  0  0  0  0  0  0  0  0  0  0  0
   40.2525   25.3751   33.2425 H   0  0  0  0  0  0  0  0  0  0  0  0
   40.3953   27.1319   33.3797 H   0  0  0  0  0  0  0  0  0  0  0  0
   38.7327   28.3137   35.3757 H   0  0  0  0  0  0  0  0  0  0  0  0
   37.5138   24.5471   38.5444 H   0  0  0  0  0  0  0  0  0  0  0  0
   38.9354   21.7345   35.6884 H   0  0  0  0  0  0  0  0  0  0  0  0
  1  7  1  0
  1  2  2  0
  3  2  1  0
  3 12  1  0
  4  3  2  0
  5  6  2  0
  5  4  1  0
  6  1  1  0
  7 11  1  0
  8  9  1  0
  8  7  2  0
  9 10  2  0
 10 11  1  0
 12 13  1  0
 13 14  1  0
 14 22  1  0
 14 15  1  0
 15 16  2  0
 17 16  1  0
 17 18  2  0
 19 18  1  0
 20 19  2  0
 21 22  2  0
 21 20  1  0
 22 17  1  0
  2 23  1  0
  5 24  1  0
  8 25  1  0
  9 26  1  0
 10 27  1  0
 12 28  1  0
 12 29  1  0
 13 30  1  0
 13 31  1  0
 15 32  1  0
 18 33  1  0
 20 34  1  0
M  ISO  8  23  14  24  14  25  14  26  14  27  14  28   8  29   8  30   8
M  ISO  4  31   8  32  14  33  14  34  14
M  END
>  <minimizedAffinity>  (1) 
-4.60462809

>  <minimizedRMSD>  (1) 
6.3584156

$$$$
