
     RDKit          3D

 38 40  0  0  1  0  0  0  0  0999 V2000
   38.1220   23.2820   35.2340 C   0  0  0  0  0  0  0  0  0  0  0  0
   39.3650   23.3230   35.9560 N   0  0  0  0  0  0  0  0  0  0  0  0
   40.3070   22.3670   35.3360 C   0  0  0  0  0  0  0  0  0  0  0  0
   41.3910   22.2840   36.3840 C   0  0  0  0  0  0  0  0  0  0  0  0
   40.7120   22.6770   37.7040 C   0  0  0  0  0  0  0  0  0  0  0  0
   39.2590   22.7100   37.2490 C   0  0  1  0  0  0  0  0  0  0  0  0
   38.5020   23.5340   38.2620 C   0  0  0  0  0  0  0  0  0  0  0  0
   39.1810   23.7700   39.4140 F   0  0  0  0  0  0  0  0  0  0  0  0
   37.2680   22.9460   38.4570 F   0  0  0  0  0  0  0  0  0  0  0  0
   38.2450   24.7840   37.7030 F   0  0  0  0  0  0  0  0  0  0  0  0
   37.7590   21.9100   34.8060 C   0  0  0  0  0  0  0  0  0  0  0  0
   35.5570   20.8230   31.9820 C   0  0  0  0  0  0  0  0  0  0  0  0
   36.3190   20.8670   33.1600 C   0  0  0  0  0  0  0  0  0  0  0  0
   36.9960   21.9810   33.5410 C   0  0  0  0  0  0  0  0  0  0  0  0
   36.9150   23.0710   32.7350 N   0  0  0  0  0  0  0  0  0  0  0  0
   36.1870   23.0410   31.6020 C   0  0  0  0  0  0  0  0  0  0  0  0
   35.5240   21.9670   31.2190 N   0  0  0  0  0  0  0  0  0  0  0  0
   36.1810   24.3060   30.8070 C   0  0  0  0  0  0  0  0  0  0  0  0
   36.1750   25.6240   31.4580 C   0  0  0  0  0  0  0  0  0  0  0  0
   34.8740   25.1500   30.9370 C   0  0  0  0  0  0  0  0  0  0  0  0
   37.3240   23.6717   35.8831 H   0  0  0  0  0  0  0  0  0  0  0  0
   38.2415   23.8941   34.3279 H   0  0  0  0  0  0  0  0  0  0  0  0
   39.8338   21.3880   35.1699 H   0  0  0  0  0  0  0  0  0  0  0  0
   40.6675   22.6747   34.3434 H   0  0  0  0  0  0  0  0  0  0  0  0
   41.7892   21.2605   36.4457 H   0  0  0  0  0  0  0  0  0  0  0  0
   42.2397   22.9429   36.1482 H   0  0  0  0  0  0  0  0  0  0  0  0
   40.8777   21.9245   38.4890 H   0  0  0  0  0  0  0  0  0  0  0  0
   41.0791   23.6103   38.1559 H   0  0  0  0  0  0  0  0  0  0  0  0
   38.7275   21.7494   37.1796 H   0  0  0  0  0  0  0  0  0  0  0  0
   38.6736   21.3188   34.6513 H   0  0  0  0  0  0  0  0  0  0  0  0
   37.1439   21.4314   35.5822 H   0  0  0  0  0  0  0  0  0  0  0  0
   35.0116   19.9158   31.6829 H   0  0  0  0  0  0  0  0  0  0  0  0
   36.3694   19.9703   33.7951 H   0  0  0  0  0  0  0  0  0  0  0  0
   36.8063   23.8650   30.0167 H   0  0  0  0  0  0  0  0  0  0  0  0
   36.3288   25.6886   32.5453 H   0  0  0  0  0  0  0  0  0  0  0  0
   36.7589   26.5435   31.3044 H   0  0  0  0  0  0  0  0  0  0  0  0
   34.4254   25.6207   30.0498 H   0  0  0  0  0  0  0  0  0  0  0  0
   33.8673   24.9902   31.3506 H   0  0  0  0  0  0  0  0  0  0  0  0
  1  2  1  0
  2  6  1  0
  3  2  1  0
  3  4  1  0
  4  5  1  0
  6  5  1  0
  6  7  1  0
  7  9  1  0
  7  8  1  0
 10  7  1  0
 11  1  1  0
 12 13  2  0
 13 14  1  0
 14 11  1  0
 15 14  2  0
 16 15  1  0
 17 16  2  0
 17 12  1  0
 18 20  1  0
 18 19  1  0
 18 16  1  0
 20 19  1  0
  1 21  1  0
  1 22  1  0
  3 23  1  0
  3 24  1  0
  4 25  1  0
  4 26  1  0
  5 27  1  0
  5 28  1  0
  6 29  1  6
 11 30  1  0
 11 31  1  0
 12 32  1  0
 13 33  1  0
 18 34  1  0
 19 35  1  0
 19 36  1  0
 20 37  1  0
 20 38  1  0
M  ISO  8  21   8  22   8  23  13  24  13  25  13  26  13  27  13  28  13
M  ISO  8  29  13  30   8  31   8  32  14  33  14  34  13  35  13  36  13
M  ISO  2  37  13  38  13
M  END
>  <minimizedAffinity>  (1) 
-5.26822472

>  <minimizedRMSD>  (1) 
1.78559363

$$$$
