
     RDKit          3D

 32 34  0  0  0  0  0  0  0  0999 V2000
   38.6200   22.8770   35.3940 C   0  0  0  0  0  0  0  0  0  0  0  0
   38.6160   24.2670   35.2750 C   0  0  0  0  0  0  0  0  0  0  0  0
   39.7980   24.9650   35.2350 C   0  0  0  0  0  0  0  0  0  0  0  0
   40.9580   24.2500   35.3150 N   0  0  0  0  0  0  0  0  0  0  0  0
   40.9540   22.9140   35.4300 C   0  0  0  0  0  0  0  0  0  0  0  0
   39.8020   22.2200   35.4700 N   0  0  0  0  0  0  0  0  0  0  0  0
   37.4250   22.0500   35.4460 C   0  0  0  0  0  0  0  0  0  0  0  0
   36.9240   21.4580   34.2780 C   0  0  0  0  0  0  0  0  0  0  0  0
   35.8030   20.7420   34.6160 C   0  0  0  0  0  0  0  0  0  0  0  0
   35.6700   20.9280   35.9660 C   0  0  0  0  0  0  0  0  0  0  0  0
   36.6520   21.7080   36.4110 O   0  0  0  0  0  0  0  0  0  0  0  0
   39.8400   26.4290   35.1100 C   0  0  0  0  0  0  0  0  0  0  0  0
   38.4910   27.0570   35.0430 C   0  0  0  0  0  0  0  0  0  0  0  0
   37.9910   27.3040   33.6750 C   0  0  0  0  0  0  0  0  0  0  0  0
   36.6700   27.6020   33.4090 C   0  0  0  0  0  0  0  0  0  0  0  0
   36.1360   27.8430   32.1570 C   0  0  0  0  0  0  0  0  0  0  0  0
   37.0060   27.7800   31.0770 C   0  0  0  0  0  0  0  0  0  0  0  0
   38.3200   27.4810   31.3690 C   0  0  0  0  0  0  0  0  0  0  0  0
   38.8020   27.2520   32.5990 N   0  0  0  0  0  0  0  0  0  0  0  0
   37.6599   24.8074   35.2128 H   0  0  0  0  0  0  0  0  0  0  0  0
   41.9109   22.3751   35.4928 H   0  0  0  0  0  0  0  0  0  0  0  0
   37.3533   21.5509   33.2695 H   0  0  0  0  0  0  0  0  0  0  0  0
   35.1561   20.1509   33.9511 H   0  0  0  0  0  0  0  0  0  0  0  0
   34.8719   20.4976   36.5887 H   0  0  0  0  0  0  0  0  0  0  0  0
   40.3719   26.8380   35.9816 H   0  0  0  0  0  0  0  0  0  0  0  0
   40.3521   26.6591   34.1641 H   0  0  0  0  0  0  0  0  0  0  0  0
   37.7782   26.3925   35.5533 H   0  0  0  0  0  0  0  0  0  0  0  0
   38.5837   28.0429   35.5220 H   0  0  0  0  0  0  0  0  0  0  0  0
   35.9832   27.6520   34.2668 H   0  0  0  0  0  0  0  0  0  0  0  0
   35.0691   28.0744   32.0224 H   0  0  0  0  0  0  0  0  0  0  0  0
   36.6662   27.9586   30.0462 H   0  0  0  0  0  0  0  0  0  0  0  0
   39.0272   27.4261   30.5282 H   0  0  0  0  0  0  0  0  0  0  0  0
  1  7  1  0
  1  6  1  0
  2  1  2  0
  3  2  1  0
  3  4  2  0
  4  5  1  0
  5  6  2  0
  7 11  1  0
  8  9  1  0
  8  7  2  0
  9 10  2  0
 10 11  1  0
 12  3  1  0
 13 12  1  0
 14 13  1  0
 15 14  2  0
 16 15  1  0
 17 18  1  0
 17 16  2  0
 18 19  2  0
 19 14  1  0
  2 20  1  0
  5 21  1  0
  8 22  1  0
  9 23  1  0
 10 24  1  0
 12 25  1  0
 12 26  1  0
 13 27  1  0
 13 28  1  0
 15 29  1  0
 16 30  1  0
 17 31  1  0
 18 32  1  0
M  ISO  8  20  14  21  14  22  14  23  14  24  14  25   8  26   8  27   8
M  ISO  5  28   8  29  14  30  14  31  14  32  14
M  END
>  <minimizedAffinity>  (1) 
-4.41981649

>  <minimizedRMSD>  (1) 
7.00358486

$$$$
