
     RDKit          3D

 28 30  0  0  0  0  0  0  0  0999 V2000
   37.9480   22.2770   36.0720 C   0  0  0  0  0  0  0  0  0  0  0  0
   39.3340   22.1420   36.1990 C   0  0  0  0  0  0  0  0  0  0  0  0
   39.9620   22.6600   37.3070 C   0  0  0  0  0  0  0  0  0  0  0  0
   39.2160   23.2850   38.2400 N   0  0  0  0  0  0  0  0  0  0  0  0
   37.8720   23.4140   38.1150 C   0  0  0  0  0  0  0  0  0  0  0  0
   37.2350   22.9160   37.0400 N   0  0  0  0  0  0  0  0  0  0  0  0
   37.1670   21.7770   34.9550 C   0  0  0  0  0  0  0  0  0  0  0  0
   36.0740   20.9220   35.1520 C   0  0  0  0  0  0  0  0  0  0  0  0
   35.5470   20.6280   33.9020 C   0  0  0  0  0  0  0  0  0  0  0  0
   36.3280   21.3040   33.0270 C   0  0  0  0  0  0  0  0  0  0  0  0
   37.2580   21.9580   33.6850 O   0  0  0  0  0  0  0  0  0  0  0  0
   41.4130   22.5380   37.4740 C   0  0  0  0  0  0  0  0  0  0  0  0
   42.1610   22.4940   36.1690 C   0  0  0  0  0  0  0  0  0  0  0  0
   43.0090   23.7300   36.1350 C   0  0  0  0  0  0  0  0  0  0  0  0
   42.8290   24.7680   35.2700 N   0  0  0  0  0  0  0  0  0  0  0  0
   43.7250   25.6800   35.4980 O   0  0  0  0  0  0  0  0  0  0  0  0
   44.5090   25.3090   36.4830 C   0  0  0  0  0  0  0  0  0  0  0  0
   44.0810   24.0840   36.9020 N   0  0  0  0  0  0  0  0  0  0  0  0
   39.9158   21.6267   35.4205 H   0  0  0  0  0  0  0  0  0  0  0  0
   37.2981   23.9300   38.8989 H   0  0  0  0  0  0  0  0  0  0  0  0
   35.7023   20.5521   36.1190 H   0  0  0  0  0  0  0  0  0  0  0  0
   34.6836   19.9861   33.6726 H   0  0  0  0  0  0  0  0  0  0  0  0
   36.2032   21.3054   31.9341 H   0  0  0  0  0  0  0  0  0  0  0  0
   41.7716   23.4018   38.0530 H   0  0  0  0  0  0  0  0  0  0  0  0
   41.6025   21.5853   37.9903 H   0  0  0  0  0  0  0  0  0  0  0  0
   42.7936   21.5954   36.1215 H   0  0  0  0  0  0  0  0  0  0  0  0
   41.4726   22.4548   35.3119 H   0  0  0  0  0  0  0  0  0  0  0  0
   45.3544   25.8802   36.8942 H   0  0  0  0  0  0  0  0  0  0  0  0
  1  2  2  0
  1  6  1  0
  2  3  1  0
  3 12  1  0
  3  4  2  0
  5  4  1  0
  6  5  2  0
  7  8  2  0
  7  1  1  0
  9  8  1  0
 10 11  1  0
 10  9  2  0
 11  7  1  0
 13 12  1  0
 14 13  1  0
 14 18  1  0
 15 16  1  0
 15 14  2  0
 16 17  1  0
 17 18  2  0
  2 19  1  0
  5 20  1  0
  8 21  1  0
  9 22  1  0
 10 23  1  0
 12 24  1  0
 12 25  1  0
 13 26  1  0
 13 27  1  0
 17 28  1  0
M  ISO  8  19  14  20  14  21  14  22  14  23  14  24   8  25   8  26   8
M  ISO  2  27   8  28  14
M  END
>  <minimizedAffinity>  (1) 
-4.54551983

>  <minimizedRMSD>  (1) 
2.11675739

$$$$
