
     RDKit          3D

 30 32  0  0  0  0  0  0  0  0999 V2000
   37.8250   22.2220   35.9210 C   0  0  0  0  0  0  0  0  0  0  0  0
   39.2190   22.1630   36.0160 C   0  0  0  0  0  0  0  0  0  0  0  0
   39.8310   22.7170   37.1390 C   0  0  0  0  0  0  0  0  0  0  0  0
   39.0530   23.2840   38.0800 N   0  0  0  0  0  0  0  0  0  0  0  0
   37.7090   23.3320   37.9690 C   0  0  0  0  0  0  0  0  0  0  0  0
   37.0870   22.8020   36.8920 N   0  0  0  0  0  0  0  0  0  0  0  0
   37.0620   21.6860   34.8080 C   0  0  0  0  0  0  0  0  0  0  0  0
   35.9680   20.8390   35.0040 C   0  0  0  0  0  0  0  0  0  0  0  0
   35.4660   20.5080   33.7540 C   0  0  0  0  0  0  0  0  0  0  0  0
   36.2620   21.1550   32.8740 C   0  0  0  0  0  0  0  0  0  0  0  0
   37.1780   21.8290   33.5300 O   0  0  0  0  0  0  0  0  0  0  0  0
   41.3010   22.6650   37.2600 C   0  0  0  0  0  0  0  0  0  0  0  0
   41.8350   21.2740   37.4290 C   0  0  0  0  0  0  0  0  0  0  0  0
   43.0610   21.1320   36.5460 C   0  0  0  0  0  0  0  0  0  0  0  0
   43.6820   19.7480   36.5500 C   0  0  0  0  0  0  0  0  0  0  0  0
   43.0000   20.2540   35.3420 C   0  0  0  0  0  0  0  0  0  0  0  0
   39.8181   21.6907   35.2235 H   0  0  0  0  0  0  0  0  0  0  0  0
   37.1136   23.8070   38.7626 H   0  0  0  0  0  0  0  0  0  0  0  0
   35.5762   20.4970   35.9733 H   0  0  0  0  0  0  0  0  0  0  0  0
   34.6066   19.8597   33.5280 H   0  0  0  0  0  0  0  0  0  0  0  0
   36.1586   21.1220   31.7794 H   0  0  0  0  0  0  0  0  0  0  0  0
   41.7415   23.0996   36.3506 H   0  0  0  0  0  0  0  0  0  0  0  0
   41.5730   23.2297   38.1640 H   0  0  0  0  0  0  0  0  0  0  0  0
   42.1106   21.1051   38.4804 H   0  0  0  0  0  0  0  0  0  0  0  0
   41.0718   20.5345   37.1451 H   0  0  0  0  0  0  0  0  0  0  0  0
   43.3851   22.1702   36.7104 H   0  0  0  0  0  0  0  0  0  0  0  0
   44.7762   19.6354   36.5583 H   0  0  0  0  0  0  0  0  0  0  0  0
   43.5861   18.8526   37.1817 H   0  0  0  0  0  0  0  0  0  0  0  0
   42.0391   19.8161   35.0338 H   0  0  0  0  0  0  0  0  0  0  0  0
   43.2906   20.3731   34.2878 H   0  0  0  0  0  0  0  0  0  0  0  0
  1  2  2  0
  1  6  1  0
  2  3  1  0
  3 12  1  0
  3  4  2  0
  5  4  1  0
  6  5  2  0
  7  8  2  0
  7  1  1  0
  9  8  1  0
 10 11  1  0
 10  9  2  0
 11  7  1  0
 12 13  1  0
 14 15  1  0
 14 13  1  0
 16 14  1  0
 16 15  1  0
  2 17  1  0
  5 18  1  0
  8 19  1  0
  9 20  1  0
 10 21  1  0
 12 22  1  0
 12 23  1  0
 13 24  1  0
 13 25  1  0
 14 26  1  0
 15 27  1  0
 15 28  1  0
 16 29  1  0
 16 30  1  0
M  ISO  8  17  14  18  14  19  14  20  14  21  14  22   8  23   8  24   8
M  ISO  6  25   8  26  13  27  13  28  13  29  13  30  13
M  END
>  <minimizedAffinity>  (1) 
-4.23610449

>  <minimizedRMSD>  (1) 
0.54332459

$$$$
