
     RDKit          3D

 24 25  0  0  0  0  0  0  0  0999 V2000
   37.9480   22.2220   35.8290 C   0  0  0  0  0  0  0  0  0  0  0  0
   39.3310   22.0890   35.9110 C   0  0  0  0  0  0  0  0  0  0  0  0
   40.0210   22.5830   37.0010 C   0  0  0  0  0  0  0  0  0  0  0  0
   39.2990   23.1970   37.9780 N   0  0  0  0  0  0  0  0  0  0  0  0
   37.9690   23.3240   37.8990 C   0  0  0  0  0  0  0  0  0  0  0  0
   37.2800   22.8510   36.8460 N   0  0  0  0  0  0  0  0  0  0  0  0
   37.1120   21.7520   34.7470 C   0  0  0  0  0  0  0  0  0  0  0  0
   36.0670   20.8630   34.9530 C   0  0  0  0  0  0  0  0  0  0  0  0
   35.4650   20.6090   33.7420 C   0  0  0  0  0  0  0  0  0  0  0  0
   36.1780   21.3630   32.8460 C   0  0  0  0  0  0  0  0  0  0  0  0
   37.1330   22.0140   33.4870 O   0  0  0  0  0  0  0  0  0  0  0  0
   41.4770   22.4470   37.0950 C   0  0  0  0  0  0  0  0  0  0  0  0
   41.9010   21.1730   37.7720 C   0  0  0  0  0  0  0  0  0  0  0  0
   42.1960   20.1640   36.8940 O   0  0  0  0  0  0  0  0  0  0  0  0
   39.8794   21.5861   35.1008 H   0  0  0  0  0  0  0  0  0  0  0  0
   37.4275   23.8267   38.7139 H   0  0  0  0  0  0  0  0  0  0  0  0
   35.7698   20.4336   35.9211 H   0  0  0  0  0  0  0  0  0  0  0  0
   34.6072   19.9510   33.5391 H   0  0  0  0  0  0  0  0  0  0  0  0
   35.9856   21.4175   31.7643 H   0  0  0  0  0  0  0  0  0  0  0  0
   41.8976   22.4617   36.0787 H   0  0  0  0  0  0  0  0  0  0  0  0
   41.8492   23.2847   37.7030 H   0  0  0  0  0  0  0  0  0  0  0  0
   42.7952   21.3808   38.3780 H   0  0  0  0  0  0  0  0  0  0  0  0
   41.0536   20.8330   38.3855 H   0  0  0  0  0  0  0  0  0  0  0  0
   42.4350   19.3466   37.3988 H   0  0  0  0  0  0  0  0  0  0  0  0
  1  2  2  0
  1  6  1  0
  2  3  1  0
  3 12  1  0
  3  4  2  0
  5  4  1  0
  6  5  2  0
  7  8  2  0
  7  1  1  0
  9  8  1  0
 10 11  1  0
 10  9  2  0
 11  7  1  0
 12 13  1  0
 14 13  1  0
  2 15  1  0
  5 16  1  0
  8 17  1  0
  9 18  1  0
 10 19  1  0
 12 20  1  0
 12 21  1  0
 13 22  1  0
 13 23  1  0
 14 24  1  0
M  ISO  8  15  14  16  14  17  14  18  14  19  14  20   8  21   8  22   8
M  ISO  2  23   8  24   3
M  END
>  <minimizedAffinity>  (1) 
-3.89202023

>  <minimizedRMSD>  (1) 
0.326783776

$$$$
