
     RDKit          3D

 30 32  0  0  0  0  0  0  0  0999 V2000
   37.9980   22.2730   36.0380 C   0  0  0  0  0  0  0  0  0  0  0  0
   39.3910   22.1810   36.0880 C   0  0  0  0  0  0  0  0  0  0  0  0
   40.0710   22.6990   37.1710 C   0  0  0  0  0  0  0  0  0  0  0  0
   39.3580   23.2870   38.1620 N   0  0  0  0  0  0  0  0  0  0  0  0
   38.0120   23.3710   38.1030 C   0  0  0  0  0  0  0  0  0  0  0  0
   37.3170   22.8730   37.0570 N   0  0  0  0  0  0  0  0  0  0  0  0
   37.1840   21.7710   34.9630 C   0  0  0  0  0  0  0  0  0  0  0  0
   36.1040   20.9070   35.2040 C   0  0  0  0  0  0  0  0  0  0  0  0
   35.5110   20.5900   33.9970 C   0  0  0  0  0  0  0  0  0  0  0  0
   36.2460   21.2670   33.0850 C   0  0  0  0  0  0  0  0  0  0  0  0
   37.2150   21.9450   33.6860 O   0  0  0  0  0  0  0  0  0  0  0  0
   41.5380   22.6220   37.2590 C   0  0  0  0  0  0  0  0  0  0  0  0
   42.2380   23.1780   36.0530 C   0  0  0  0  0  0  0  0  0  0  0  0
   43.6800   23.4600   36.2900 C   0  0  0  0  0  0  0  0  0  0  0  0
   44.0660   24.5110   37.0400 C   0  0  0  0  0  0  0  0  0  0  0  0
   45.3320   24.8620   37.3210 C   0  0  0  0  0  0  0  0  0  0  0  0
   46.3160   23.9410   36.6980 C   0  0  0  0  0  0  0  0  0  0  0  0
   45.2090   22.6870   35.7860 S   0  0  0  0  0  0  0  0  0  0  0  0
   39.9429   21.6981   35.2682 H   0  0  0  0  0  0  0  0  0  0  0  0
   37.4679   23.8567   38.9265 H   0  0  0  0  0  0  0  0  0  0  0  0
   35.7829   20.5425   36.1909 H   0  0  0  0  0  0  0  0  0  0  0  0
   34.6428   19.9384   33.8189 H   0  0  0  0  0  0  0  0  0  0  0  0
   36.0658   21.2567   31.9999 H   0  0  0  0  0  0  0  0  0  0  0  0
   41.8644   23.1886   38.1436 H   0  0  0  0  0  0  0  0  0  0  0  0
   41.8036   21.5567   37.3260 H   0  0  0  0  0  0  0  0  0  0  0  0
   41.7417   24.1155   35.7620 H   0  0  0  0  0  0  0  0  0  0  0  0
   42.1797   22.4165   35.2613 H   0  0  0  0  0  0  0  0  0  0  0  0
   43.2692   25.1411   37.4620 H   0  0  0  0  0  0  0  0  0  0  0  0
   45.6070   25.7291   37.9394 H   0  0  0  0  0  0  0  0  0  0  0  0
   47.4143   23.9745   36.7502 H   0  0  0  0  0  0  0  0  0  0  0  0
  1  2  2  0
  1  6  1  0
  2  3  1  0
  3 12  1  0
  3  4  2  0
  5  4  1  0
  6  5  2  0
  7  8  2  0
  7  1  1  0
  9  8  1  0
 10 11  1  0
 10  9  2  0
 11  7  1  0
 13 14  1  0
 13 12  1  0
 14 15  2  0
 15 16  1  0
 17 16  2  0
 18 14  1  0
 18 17  1  0
  2 19  1  0
  5 20  1  0
  8 21  1  0
  9 22  1  0
 10 23  1  0
 12 24  1  0
 12 25  1  0
 13 26  1  0
 13 27  1  0
 15 28  1  0
 16 29  1  0
 17 30  1  0
M  ISO  8  19  14  20  14  21  14  22  14  23  14  24   8  25   8  26   8
M  ISO  4  27   8  28  14  29  14  30  14
M  END
>  <minimizedAffinity>  (1) 
-4.75583839

>  <minimizedRMSD>  (1) 
1.61901629

$$$$
