
     RDKit          3D

 40 43  0  0  0  0  0  0  0  0999 V2000
   41.6500   22.4610   37.1750 C   0  0  0  0  0  0  0  0  0  0  0  0
   38.1030   22.2620   35.9300 C   0  0  0  0  0  0  0  0  0  0  0  0
   39.4820   22.1120   35.9910 C   0  0  0  0  0  0  0  0  0  0  0  0
   40.1920   22.5930   37.0590 C   0  0  0  0  0  0  0  0  0  0  0  0
   39.5130   23.2170   38.0470 N   0  0  0  0  0  0  0  0  0  0  0  0
   38.1700   23.3670   37.9930 C   0  0  0  0  0  0  0  0  0  0  0  0
   37.4550   22.9020   36.9550 N   0  0  0  0  0  0  0  0  0  0  0  0
   37.2610   21.8000   34.8650 C   0  0  0  0  0  0  0  0  0  0  0  0
   36.1770   20.9450   35.1050 C   0  0  0  0  0  0  0  0  0  0  0  0
   35.5490   20.6650   33.9150 C   0  0  0  0  0  0  0  0  0  0  0  0
   36.2790   21.3620   32.9990 C   0  0  0  0  0  0  0  0  0  0  0  0
   37.2640   22.0070   33.6030 O   0  0  0  0  0  0  0  0  0  0  0  0
   42.4080   23.0590   36.0490 C   0  0  0  0  0  0  0  0  0  0  0  0
   43.6660   23.7280   36.4730 C   0  0  0  0  0  0  0  0  0  0  0  0
   43.7090   24.8160   37.2750 C   0  0  0  0  0  0  0  0  0  0  0  0
   44.8830   25.3830   37.6040 C   0  0  0  0  0  0  0  0  0  0  0  0
   46.0880   24.7700   37.0610 C   0  0  0  0  0  0  0  0  0  0  0  0
   45.3720   23.3370   36.0540 S   0  0  0  0  0  0  0  0  0  0  0  0
   47.4670   25.0810   37.1870 N   0  0  0  0  0  0  0  0  0  0  0  0
   48.1430   24.3760   38.1120 C   0  0  0  0  0  0  0  0  0  0  0  0
   49.4990   24.6770   38.2410 C   0  0  0  0  0  0  0  0  0  0  0  0
   50.0130   25.6620   37.4150 C   0  0  0  0  0  0  0  0  0  0  0  0
   51.2280   25.9930   37.4670 O   0  0  0  0  0  0  0  0  0  0  0  0
   49.2720   26.3280   36.5070 N   0  0  0  0  0  0  0  0  0  0  0  0
   47.9590   26.0260   36.3950 C   0  0  0  0  0  0  0  0  0  0  0  0
   47.2480   26.6370   35.5530 O   0  0  0  0  0  0  0  0  0  0  0  0
   41.9678   22.9548   38.1051 H   0  0  0  0  0  0  0  0  0  0  0  0
   41.8706   21.3834   37.1665 H   0  0  0  0  0  0  0  0  0  0  0  0
   40.0102   21.6012   35.1725 H   0  0  0  0  0  0  0  0  0  0  0  0
   37.6521   23.8806   38.8164 H   0  0  0  0  0  0  0  0  0  0  0  0
   35.8762   20.5590   36.0901 H   0  0  0  0  0  0  0  0  0  0  0  0
   34.6675   20.0299   33.7429 H   0  0  0  0  0  0  0  0  0  0  0  0
   36.0789   21.3849   31.9176 H   0  0  0  0  0  0  0  0  0  0  0  0
   41.7672   23.8033   35.5537 H   0  0  0  0  0  0  0  0  0  0  0  0
   42.6890   22.2371   35.3741 H   0  0  0  0  0  0  0  0  0  0  0  0
   42.7721   25.2423   37.6629 H   0  0  0  0  0  0  0  0  0  0  0  0
   44.9314   26.2694   38.2536 H   0  0  0  0  0  0  0  0  0  0  0  0
   47.6554   23.6077   38.7300 H   0  0  0  0  0  0  0  0  0  0  0  0
   50.1345   24.1527   38.9699 H   0  0  0  0  0  0  0  0  0  0  0  0
   49.6974   27.0521   35.9107 H   0  0  0  0  0  0  0  0  0  0  0  0
  2  3  2  0
  2  7  1  0
  3  4  1  0
  4  1  1  0
  4  5  2  0
  6  5  1  0
  7  6  2  0
  8  9  2  0
  8  2  1  0
 10  9  1  0
 11 12  1  0
 11 10  2  0
 12  8  1  0
 13 14  1  0
 13  1  1  0
 14 15  2  0
 15 16  1  0
 17 19  1  0
 17 16  2  0
 18 14  1  0
 18 17  1  0
 19 20  1  0
 20 21  2  0
 22 23  2  0
 22 21  1  0
 24 22  1  0
 25 24  1  0
 25 19  1  0
 26 25  2  0
  1 27  1  0
  1 28  1  0
  3 29  1  0
  6 30  1  0
  9 31  1  0
 10 32  1  0
 11 33  1  0
 13 34  1  0
 13 35  1  0
 15 36  1  0
 16 37  1  0
 20 38  1  0
 21 39  1  0
 24 40  1  0
M  ISO  8  27   8  28   8  29  14  30  14  31  14  32  14  33  14  34   8
M  ISO  6  35   8  36  14  37  14  38  14  39  14  40   9
M  END
>  <minimizedAffinity>  (1) 
-5.4277482

>  <minimizedRMSD>  (1) 
1.06918657

$$$$
