
     RDKit          3D

 40 43  0  0  0  0  0  0  0  0999 V2000
   41.7020   22.4570   37.1390 C   0  0  0  0  0  0  0  0  0  0  0  0
   38.1220   22.2710   35.9660 C   0  0  0  0  0  0  0  0  0  0  0  0
   39.5180   22.1170   35.9990 C   0  0  0  0  0  0  0  0  0  0  0  0
   40.2340   22.5980   37.0640 C   0  0  0  0  0  0  0  0  0  0  0  0
   39.5570   23.2150   38.0610 N   0  0  0  0  0  0  0  0  0  0  0  0
   38.2240   23.3610   38.0240 C   0  0  0  0  0  0  0  0  0  0  0  0
   37.4880   22.8970   36.9860 N   0  0  0  0  0  0  0  0  0  0  0  0
   37.2830   21.8030   34.8950 C   0  0  0  0  0  0  0  0  0  0  0  0
   36.1830   20.9560   35.1450 C   0  0  0  0  0  0  0  0  0  0  0  0
   35.5610   20.6660   33.9480 C   0  0  0  0  0  0  0  0  0  0  0  0
   36.2980   21.3400   33.0210 C   0  0  0  0  0  0  0  0  0  0  0  0
   37.2840   21.9820   33.6300 O   0  0  0  0  0  0  0  0  0  0  0  0
   42.4240   23.1490   36.0130 C   0  0  0  0  0  0  0  0  0  0  0  0
   43.7080   23.7660   36.4670 C   0  0  0  0  0  0  0  0  0  0  0  0
   43.8220   24.8460   37.2460 C   0  0  0  0  0  0  0  0  0  0  0  0
   45.0070   25.3500   37.6220 C   0  0  0  0  0  0  0  0  0  0  0  0
   46.1730   24.6490   37.1320 C   0  0  0  0  0  0  0  0  0  0  0  0
   45.4020   23.2700   36.1290 S   0  0  0  0  0  0  0  0  0  0  0  0
   47.5070   24.8190   37.2700 N   0  0  0  0  0  0  0  0  0  0  0  0
   48.2970   24.0460   38.2010 C   0  0  0  0  0  0  0  0  0  0  0  0
   49.6750   24.6460   38.2220 C   0  0  0  0  0  0  0  0  0  0  0  0
   49.6710   25.7780   37.2390 C   0  0  0  0  0  0  0  0  0  0  0  0
   48.3300   25.7580   36.5480 C   0  0  0  0  0  0  0  0  0  0  0  0
   42.0461   22.8870   38.0912 H   0  0  0  0  0  0  0  0  0  0  0  0
   41.9311   21.3838   37.0628 H   0  0  0  0  0  0  0  0  0  0  0  0
   40.0358   21.6109   35.1709 H   0  0  0  0  0  0  0  0  0  0  0  0
   37.7165   23.8698   38.8568 H   0  0  0  0  0  0  0  0  0  0  0  0
   35.8718   20.5868   36.1334 H   0  0  0  0  0  0  0  0  0  0  0  0
   34.6748   20.0362   33.7807 H   0  0  0  0  0  0  0  0  0  0  0  0
   36.1048   21.3495   31.9381 H   0  0  0  0  0  0  0  0  0  0  0  0
   41.7746   23.9385   35.6067 H   0  0  0  0  0  0  0  0  0  0  0  0
   42.6609   22.3957   35.2472 H   0  0  0  0  0  0  0  0  0  0  0  0
   42.9045   25.3431   37.5939 H   0  0  0  0  0  0  0  0  0  0  0  0
   45.0867   26.2405   38.2628 H   0  0  0  0  0  0  0  0  0  0  0  0
   47.9537   23.1797   38.7855 H   0  0  0  0  0  0  0  0  0  0  0  0
   50.5236   24.3175   38.8400 H   0  0  0  0  0  0  0  0  0  0  0  0
   49.8112   26.7345   37.7639 H   0  0  0  0  0  0  0  0  0  0  0  0
   50.4889   25.6689   36.5116 H   0  0  0  0  0  0  0  0  0  0  0  0
   47.8751   26.7592   36.5737 H   0  0  0  0  0  0  0  0  0  0  0  0
   48.4325   25.4653   35.4926 H   0  0  0  0  0  0  0  0  0  0  0  0
  2  3  2  0
  2  7  1  0
  3  4  1  0
  4  1  1  0
  4  5  2  0
  6  5  1  0
  7  6  2  0
  8  9  2  0
  8  2  1  0
 10  9  1  0
 11 12  1  0
 11 10  2  0
 12  8  1  0
 13 14  1  0
 13  1  1  0
 14 15  2  0
 15 16  1  0
 17 19  1  0
 17 16  2  0
 18 14  1  0
 18 17  1  0
 19 20  1  0
 20 21  2  0
 22 21  1  0
 23 22  1  0
 23 19  1  0
  1 24  1  0
  1 25  1  0
  3 26  1  0
  6 27  1  0
  9 28  1  0
 10 29  1  0
 11 30  1  0
 13 31  1  0
 13 32  1  0
 15 33  1  0
 16 34  1  0
 20 35  1  0
 21 36  1  0
 22 37  1  0
 22 38  1  0
 23 39  1  0
 23 40  1  0
M  ISO  8  24   8  25   8  26  14  27  14  28  14  29  14  30  14  31   8
M  ISO  8  32   8  33  14  34  14  35  13  36  13  37  13  38  13  39  13
M  ISO  1  40  13
M  END
>  <minimizedAffinity>  (1) 
-5.18007898

>  <minimizedRMSD>  (1) 
0.770522952

$$$$
