
     RDKit          3D

 37 40  0  0  0  0  0  0  0  0999 V2000
   41.7100   22.4630   37.0600 C   0  0  0  0  0  0  0  0  0  0  0  0
   38.1340   22.2540   35.9260 C   0  0  0  0  0  0  0  0  0  0  0  0
   39.5220   22.1040   35.9360 C   0  0  0  0  0  0  0  0  0  0  0  0
   40.2440   22.6020   37.0120 C   0  0  0  0  0  0  0  0  0  0  0  0
   39.5760   23.2160   38.0160 N   0  0  0  0  0  0  0  0  0  0  0  0
   38.2350   23.3520   37.9910 C   0  0  0  0  0  0  0  0  0  0  0  0
   37.5000   22.8830   36.9660 N   0  0  0  0  0  0  0  0  0  0  0  0
   37.2700   21.7890   34.8820 C   0  0  0  0  0  0  0  0  0  0  0  0
   36.1760   20.9410   35.1530 C   0  0  0  0  0  0  0  0  0  0  0  0
   35.5470   20.6760   33.9400 C   0  0  0  0  0  0  0  0  0  0  0  0
   36.2620   21.3510   33.0250 C   0  0  0  0  0  0  0  0  0  0  0  0
   37.2690   21.9970   33.6010 O   0  0  0  0  0  0  0  0  0  0  0  0
   42.4310   23.2380   36.0080 C   0  0  0  0  0  0  0  0  0  0  0  0
   43.7220   23.8120   36.5050 C   0  0  0  0  0  0  0  0  0  0  0  0
   43.8170   24.8990   37.2800 C   0  0  0  0  0  0  0  0  0  0  0  0
   45.0030   25.3770   37.7030 C   0  0  0  0  0  0  0  0  0  0  0  0
   46.1650   24.6400   37.2660 C   0  0  0  0  0  0  0  0  0  0  0  0
   45.4010   23.2810   36.2510 S   0  0  0  0  0  0  0  0  0  0  0  0
   47.5800   24.7710   37.4600 C   0  0  0  0  0  0  0  0  0  0  0  0
   48.2730   24.2500   38.5260 C   0  0  0  0  0  0  0  0  0  0  0  0
   49.5950   24.6370   38.2660 C   0  0  0  0  0  0  0  0  0  0  0  0
   49.6100   25.3610   37.0680 C   0  0  0  0  0  0  0  0  0  0  0  0
   48.3610   25.3900   36.6570 O   0  0  0  0  0  0  0  0  0  0  0  0
   42.0578   22.8104   38.0441 H   0  0  0  0  0  0  0  0  0  0  0  0
   41.9337   21.4010   36.8805 H   0  0  0  0  0  0  0  0  0  0  0  0
   40.0354   21.5992   35.1044 H   0  0  0  0  0  0  0  0  0  0  0  0
   37.7302   23.8577   38.8273 H   0  0  0  0  0  0  0  0  0  0  0  0
   35.8756   20.5597   36.1401 H   0  0  0  0  0  0  0  0  0  0  0  0
   34.6586   20.0505   33.7683 H   0  0  0  0  0  0  0  0  0  0  0  0
   36.0435   21.3665   31.9470 H   0  0  0  0  0  0  0  0  0  0  0  0
   41.7847   24.0619   35.6710 H   0  0  0  0  0  0  0  0  0  0  0  0
   42.6662   22.5473   35.1849 H   0  0  0  0  0  0  0  0  0  0  0  0
   42.8959   25.4193   37.5815 H   0  0  0  0  0  0  0  0  0  0  0  0
   45.0812   26.2705   38.3398 H   0  0  0  0  0  0  0  0  0  0  0  0
   47.8849   23.6703   39.3765 H   0  0  0  0  0  0  0  0  0  0  0  0
   50.4691   24.4110   38.8944 H   0  0  0  0  0  0  0  0  0  0  0  0
   50.4835   25.8114   36.5738 H   0  0  0  0  0  0  0  0  0  0  0  0
  2  3  2  0
  2  7  1  0
  3  4  1  0
  4  1  1  0
  4  5  2  0
  6  5  1  0
  7  6  2  0
  8  9  2  0
  8  2  1  0
 10  9  1  0
 11 12  1  0
 11 10  2  0
 12  8  1  0
 13 14  1  0
 13  1  1  0
 14 15  2  0
 15 16  1  0
 17 19  1  0
 17 16  2  0
 18 14  1  0
 18 17  1  0
 19 20  2  0
 21 20  1  0
 22 21  2  0
 23 22  1  0
 23 19  1  0
  1 24  1  0
  1 25  1  0
  3 26  1  0
  6 27  1  0
  9 28  1  0
 10 29  1  0
 11 30  1  0
 13 31  1  0
 13 32  1  0
 15 33  1  0
 16 34  1  0
 20 35  1  0
 21 36  1  0
 22 37  1  0
M  ISO  8  24   8  25   8  26  14  27  14  28  14  29  14  30  14  31   8
M  ISO  6  32   8  33  14  34  14  35  14  36  14  37  14
M  END
>  <minimizedAffinity>  (1) 
-5.20073175

>  <minimizedRMSD>  (1) 
1.02330709

$$$$
