
     RDKit          3D

 43 46  0  0  0  0  0  0  0  0999 V2000
   41.5720   22.5700   37.2420 C   0  0  0  0  0  0  0  0  0  0  0  0
   38.0420   22.2670   35.9980 C   0  0  0  0  0  0  0  0  0  0  0  0
   39.4260   22.1570   36.0620 C   0  0  0  0  0  0  0  0  0  0  0  0
   40.1040   22.6710   37.1480 C   0  0  0  0  0  0  0  0  0  0  0  0
   39.3960   23.2770   38.1380 N   0  0  0  0  0  0  0  0  0  0  0  0
   38.0460   23.3790   38.0670 C   0  0  0  0  0  0  0  0  0  0  0  0
   37.3540   22.8850   37.0150 N   0  0  0  0  0  0  0  0  0  0  0  0
   37.2210   21.7810   34.9330 C   0  0  0  0  0  0  0  0  0  0  0  0
   36.1360   20.9360   35.1560 C   0  0  0  0  0  0  0  0  0  0  0  0
   35.5440   20.6430   33.9320 C   0  0  0  0  0  0  0  0  0  0  0  0
   36.2850   21.3120   33.0350 C   0  0  0  0  0  0  0  0  0  0  0  0
   37.2600   21.9700   33.6490 O   0  0  0  0  0  0  0  0  0  0  0  0
   42.2820   23.1930   36.0640 C   0  0  0  0  0  0  0  0  0  0  0  0
   43.6690   23.6390   36.4040 C   0  0  0  0  0  0  0  0  0  0  0  0
   43.9030   24.6990   37.1790 C   0  0  0  0  0  0  0  0  0  0  0  0
   45.0840   25.1550   37.5390 C   0  0  0  0  0  0  0  0  0  0  0  0
   46.2040   24.3800   37.0050 C   0  0  0  0  0  0  0  0  0  0  0  0
   45.2980   23.0500   36.0200 S   0  0  0  0  0  0  0  0  0  0  0  0
   47.6320   24.3100   36.9910 N   0  0  0  0  0  0  0  0  0  0  0  0
   48.4550   23.8960   38.0750 C   0  0  0  0  0  0  0  0  0  0  0  0
   49.7120   24.7370   38.0180 C   0  0  0  0  0  0  0  0  0  0  0  0
   49.3910   25.9610   37.4650 O   0  0  0  0  0  0  0  0  0  0  0  0
   49.1660   25.8800   36.0900 C   0  0  0  0  0  0  0  0  0  0  0  0
   48.2570   24.6980   35.7720 C   0  0  0  0  0  0  0  0  0  0  0  0
   41.9006   23.0803   38.1594 H   0  0  0  0  0  0  0  0  0  0  0  0
   41.8286   21.5004   37.2532 H   0  0  0  0  0  0  0  0  0  0  0  0
   39.9787   21.6620   35.2499 H   0  0  0  0  0  0  0  0  0  0  0  0
   37.5009   23.8749   38.8837 H   0  0  0  0  0  0  0  0  0  0  0  0
   35.8033   20.5630   36.1359 H   0  0  0  0  0  0  0  0  0  0  0  0
   34.6669   20.0069   33.7421 H   0  0  0  0  0  0  0  0  0  0  0  0
   36.1096   21.3145   31.9491 H   0  0  0  0  0  0  0  0  0  0  0  0
   41.7040   24.0650   35.7242 H   0  0  0  0  0  0  0  0  0  0  0  0
   42.3593   22.4286   35.2768 H   0  0  0  0  0  0  0  0  0  0  0  0
   43.0243   25.2447   37.5533 H   0  0  0  0  0  0  0  0  0  0  0  0
   45.2167   26.0375   38.1821 H   0  0  0  0  0  0  0  0  0  0  0  0
   47.9336   24.0591   39.0297 H   0  0  0  0  0  0  0  0  0  0  0  0
   48.6940   22.8248   38.0015 H   0  0  0  0  0  0  0  0  0  0  0  0
   50.1096   24.8806   39.0335 H   0  0  0  0  0  0  0  0  0  0  0  0
   50.4765   24.2344   37.4073 H   0  0  0  0  0  0  0  0  0  0  0  0
   48.6879   26.8087   35.7451 H   0  0  0  0  0  0  0  0  0  0  0  0
   50.1290   25.7393   35.5772 H   0  0  0  0  0  0  0  0  0  0  0  0
   47.4957   24.9950   35.0356 H   0  0  0  0  0  0  0  0  0  0  0  0
   48.8340   23.8643   35.3455 H   0  0  0  0  0  0  0  0  0  0  0  0
  2  3  2  0
  2  7  1  0
  3  4  1  0
  4  1  1  0
  4  5  2  0
  6  5  1  0
  7  6  2  0
  8  9  2  0
  8  2  1  0
 10  9  1  0
 11 12  1  0
 11 10  2  0
 12  8  1  0
 13 14  1  0
 13  1  1  0
 14 15  2  0
 15 16  1  0
 17 16  2  0
 18 14  1  0
 18 17  1  0
 19 17  1  0
 19 20  1  0
 21 20  1  0
 22 21  1  0
 23 22  1  0
 24 23  1  0
 24 19  1  0
  1 25  1  0
  1 26  1  0
  3 27  1  0
  6 28  1  0
  9 29  1  0
 10 30  1  0
 11 31  1  0
 13 32  1  0
 13 33  1  0
 15 34  1  0
 16 35  1  0
 20 36  1  0
 20 37  1  0
 21 38  1  0
 21 39  1  0
 23 40  1  0
 23 41  1  0
 24 42  1  0
 24 43  1  0
M  ISO  8  25   8  26   8  27  14  28  14  29  14  30  14  31  14  32   8
M  ISO  8  33   8  34  14  35  14  36  13  37  13  38  13  39  13  40  13
M  ISO  3  41  13  42  13  43  13
M  END
>  <minimizedAffinity>  (1) 
-5.19489288

>  <minimizedRMSD>  (1) 
1.07689023

$$$$
