
     RDKit          3D

 37 40  0  0  0  0  0  0  0  0999 V2000
   41.7160   22.4610   37.0500 C   0  0  0  0  0  0  0  0  0  0  0  0
   38.1480   22.2470   35.9110 C   0  0  0  0  0  0  0  0  0  0  0  0
   39.5270   22.1120   35.9470 C   0  0  0  0  0  0  0  0  0  0  0  0
   40.2550   22.6000   37.0030 C   0  0  0  0  0  0  0  0  0  0  0  0
   39.5930   23.2160   38.0090 N   0  0  0  0  0  0  0  0  0  0  0  0
   38.2510   23.3500   37.9800 C   0  0  0  0  0  0  0  0  0  0  0  0
   37.5140   22.8800   36.9530 N   0  0  0  0  0  0  0  0  0  0  0  0
   37.2770   21.7870   34.8760 C   0  0  0  0  0  0  0  0  0  0  0  0
   36.1940   20.9470   35.1260 C   0  0  0  0  0  0  0  0  0  0  0  0
   35.5490   20.6830   33.9280 C   0  0  0  0  0  0  0  0  0  0  0  0
   36.2600   21.3640   33.0150 C   0  0  0  0  0  0  0  0  0  0  0  0
   37.2680   22.0030   33.5980 O   0  0  0  0  0  0  0  0  0  0  0  0
   42.4380   23.2600   35.9950 C   0  0  0  0  0  0  0  0  0  0  0  0
   43.7340   23.8140   36.4940 C   0  0  0  0  0  0  0  0  0  0  0  0
   43.8410   24.8900   37.2780 C   0  0  0  0  0  0  0  0  0  0  0  0
   45.0110   25.3670   37.7200 C   0  0  0  0  0  0  0  0  0  0  0  0
   46.1720   24.6220   37.2800 C   0  0  0  0  0  0  0  0  0  0  0  0
   45.4270   23.2630   36.2380 S   0  0  0  0  0  0  0  0  0  0  0  0
   47.5760   24.7120   37.4630 C   0  0  0  0  0  0  0  0  0  0  0  0
   48.2120   24.2420   38.5040 C   0  0  0  0  0  0  0  0  0  0  0  0
   49.5680   24.3670   38.6130 C   0  0  0  0  0  0  0  0  0  0  0  0
   50.2020   25.0590   37.4800 C   0  0  0  0  0  0  0  0  0  0  0  0
   48.7120   25.4480   36.3750 S   0  0  0  0  0  0  0  0  0  0  0  0
   42.0646   22.7963   38.0379 H   0  0  0  0  0  0  0  0  0  0  0  0
   41.9430   21.4015   36.8604 H   0  0  0  0  0  0  0  0  0  0  0  0
   40.0447   21.6070   35.1182 H   0  0  0  0  0  0  0  0  0  0  0  0
   37.7448   23.8556   38.8155 H   0  0  0  0  0  0  0  0  0  0  0  0
   35.8994   20.5575   36.1117 H   0  0  0  0  0  0  0  0  0  0  0  0
   34.6586   20.0586   33.7630 H   0  0  0  0  0  0  0  0  0  0  0  0
   36.0392   21.3891   31.9377 H   0  0  0  0  0  0  0  0  0  0  0  0
   41.7940   24.0943   35.6800 H   0  0  0  0  0  0  0  0  0  0  0  0
   42.6603   22.5862   35.1544 H   0  0  0  0  0  0  0  0  0  0  0  0
   42.9195   25.4115   37.5761 H   0  0  0  0  0  0  0  0  0  0  0  0
   45.0846   26.2543   38.3660 H   0  0  0  0  0  0  0  0  0  0  0  0
   47.6476   23.7390   39.3030 H   0  0  0  0  0  0  0  0  0  0  0  0
   50.1364   23.9836   39.4731 H   0  0  0  0  0  0  0  0  0  0  0  0
   51.2649   25.2905   37.3166 H   0  0  0  0  0  0  0  0  0  0  0  0
  2  3  2  0
  2  7  1  0
  3  4  1  0
  4  1  1  0
  4  5  2  0
  6  5  1  0
  7  6  2  0
  8  9  2  0
  8  2  1  0
 10  9  1  0
 11 12  1  0
 11 10  2  0
 12  8  1  0
 13 14  1  0
 13  1  1  0
 14 15  2  0
 15 16  1  0
 17 19  1  0
 17 16  2  0
 18 14  1  0
 18 17  1  0
 19 20  2  0
 20 21  1  0
 22 21  2  0
 23 19  1  0
 23 22  1  0
  1 24  1  0
  1 25  1  0
  3 26  1  0
  6 27  1  0
  9 28  1  0
 10 29  1  0
 11 30  1  0
 13 31  1  0
 13 32  1  0
 15 33  1  0
 16 34  1  0
 20 35  1  0
 21 36  1  0
 22 37  1  0
M  ISO  8  24   8  25   8  26  14  27  14  28  14  29  14  30  14  31   8
M  ISO  6  32   8  33  14  34  14  35  14  36  14  37  14
M  END
>  <minimizedAffinity>  (1) 
-5.21257067

>  <minimizedRMSD>  (1) 
0.802634954

$$$$
