
     RDKit          3D

 33 35  0  0  0  0  0  0  0  0999 V2000
   41.6520   22.5320   37.1060 C   0  0  0  0  0  0  0  0  0  0  0  0
   38.0820   22.2710   35.9360 C   0  0  0  0  0  0  0  0  0  0  0  0
   39.4750   22.1530   35.9680 C   0  0  0  0  0  0  0  0  0  0  0  0
   40.1880   22.6360   37.0320 C   0  0  0  0  0  0  0  0  0  0  0  0
   39.5150   23.2300   38.0470 N   0  0  0  0  0  0  0  0  0  0  0  0
   38.1650   23.3420   38.0120 C   0  0  0  0  0  0  0  0  0  0  0  0
   37.4460   22.8710   36.9700 N   0  0  0  0  0  0  0  0  0  0  0  0
   37.2420   21.7970   34.8670 C   0  0  0  0  0  0  0  0  0  0  0  0
   36.1570   20.9290   35.1280 C   0  0  0  0  0  0  0  0  0  0  0  0
   35.5340   20.6390   33.9390 C   0  0  0  0  0  0  0  0  0  0  0  0
   36.2560   21.3330   33.0150 C   0  0  0  0  0  0  0  0  0  0  0  0
   37.2370   21.9900   33.6030 O   0  0  0  0  0  0  0  0  0  0  0  0
   42.3750   23.2930   36.0550 C   0  0  0  0  0  0  0  0  0  0  0  0
   43.7170   23.7580   36.4910 C   0  0  0  0  0  0  0  0  0  0  0  0
   43.9200   24.8430   37.2620 C   0  0  0  0  0  0  0  0  0  0  0  0
   45.1650   25.2310   37.6210 C   0  0  0  0  0  0  0  0  0  0  0  0
   46.2610   24.4080   37.1280 C   0  0  0  0  0  0  0  0  0  0  0  0
   45.3490   23.0840   36.1410 S   0  0  0  0  0  0  0  0  0  0  0  0
   47.6840   24.3520   37.1920 C   0  0  0  0  0  0  0  0  0  0  0  0
   48.2420   25.2340   38.1310 F   0  0  0  0  0  0  0  0  0  0  0  0
   48.0840   23.1110   37.5710 F   0  0  0  0  0  0  0  0  0  0  0  0
   48.2620   24.6280   35.9530 F   0  0  0  0  0  0  0  0  0  0  0  0
   41.9746   22.9095   38.0875 H   0  0  0  0  0  0  0  0  0  0  0  0
   41.8996   21.4713   36.9521 H   0  0  0  0  0  0  0  0  0  0  0  0
   40.0015   21.6687   35.1324 H   0  0  0  0  0  0  0  0  0  0  0  0
   37.6434   23.8270   38.8503 H   0  0  0  0  0  0  0  0  0  0  0  0
   35.8615   20.5496   36.1173 H   0  0  0  0  0  0  0  0  0  0  0  0
   34.6570   19.9965   33.7716 H   0  0  0  0  0  0  0  0  0  0  0  0
   36.0504   21.3438   31.9344 H   0  0  0  0  0  0  0  0  0  0  0  0
   41.7720   24.1714   35.7814 H   0  0  0  0  0  0  0  0  0  0  0  0
   42.5242   22.6140   35.2025 H   0  0  0  0  0  0  0  0  0  0  0  0
   43.0541   25.4268   37.6076 H   0  0  0  0  0  0  0  0  0  0  0  0
   45.3397   26.1170   38.2491 H   0  0  0  0  0  0  0  0  0  0  0  0
  2  3  2  0
  2  7  1  0
  3  4  1  0
  4  1  1  0
  4  5  2  0
  6  5  1  0
  7  6  2  0
  8  9  2  0
  8  2  1  0
 10  9  1  0
 11 12  1  0
 11 10  2  0
 12  8  1  0
 13 14  1  0
 13  1  1  0
 14 15  2  0
 15 16  1  0
 17 19  1  0
 17 16  2  0
 18 14  1  0
 18 17  1  0
 19 21  1  0
 19 20  1  0
 22 19  1  0
  1 23  1  0
  1 24  1  0
  3 25  1  0
  6 26  1  0
  9 27  1  0
 10 28  1  0
 11 29  1  0
 13 30  1  0
 13 31  1  0
 15 32  1  0
 16 33  1  0
M  ISO  8  23   8  24   8  25  14  26  14  27  14  28  14  29  14  30   8
M  ISO  3  31   8  32  14  33  14
M  END
>  <minimizedAffinity>  (1) 
-5.01624727

>  <minimizedRMSD>  (1) 
0.53345722

$$$$
