
     RDKit          3D

 37 40  0  0  0  0  0  0  0  0999 V2000
   41.7120   22.2950   37.1520 C   0  0  0  0  0  0  0  0  0  0  0  0
   38.1640   22.2470   35.9320 C   0  0  0  0  0  0  0  0  0  0  0  0
   39.5350   22.0330   35.9900 C   0  0  0  0  0  0  0  0  0  0  0  0
   40.2620   22.5030   37.0600 C   0  0  0  0  0  0  0  0  0  0  0  0
   39.6100   23.1680   38.0370 N   0  0  0  0  0  0  0  0  0  0  0  0
   38.2740   23.3760   37.9810 C   0  0  0  0  0  0  0  0  0  0  0  0
   37.5370   22.9270   36.9430 N   0  0  0  0  0  0  0  0  0  0  0  0
   37.3070   21.8030   34.8660 C   0  0  0  0  0  0  0  0  0  0  0  0
   36.2030   20.9580   35.1190 C   0  0  0  0  0  0  0  0  0  0  0  0
   35.5690   20.6990   33.9140 C   0  0  0  0  0  0  0  0  0  0  0  0
   36.3090   21.3890   33.0020 C   0  0  0  0  0  0  0  0  0  0  0  0
   37.3100   22.0150   33.6050 O   0  0  0  0  0  0  0  0  0  0  0  0
   42.4820   22.8400   35.9720 C   0  0  0  0  0  0  0  0  0  0  0  0
   43.6990   23.5950   36.4100 C   0  0  0  0  0  0  0  0  0  0  0  0
   43.6530   24.7120   37.1480 C   0  0  0  0  0  0  0  0  0  0  0  0
   44.7640   25.3700   37.5370 C   0  0  0  0  0  0  0  0  0  0  0  0
   46.0150   24.7860   37.1030 C   0  0  0  0  0  0  0  0  0  0  0  0
   45.4490   23.2920   36.1410 S   0  0  0  0  0  0  0  0  0  0  0  0
   47.3650   25.1280   37.2760 C   0  0  0  0  0  0  0  0  0  0  0  0
   48.2930   24.4170   38.0000 C   0  0  0  0  0  0  0  0  0  0  0  0
   49.4590   25.0890   37.9070 N   0  0  0  0  0  0  0  0  0  0  0  0
   49.2330   26.1680   37.1510 C   0  0  0  0  0  0  0  0  0  0  0  0
   47.9300   26.2200   36.7400 N   0  0  0  0  0  0  0  0  0  0  0  0
   42.0765   22.7916   38.0633 H   0  0  0  0  0  0  0  0  0  0  0  0
   41.8794   21.2079   37.1694 H   0  0  0  0  0  0  0  0  0  0  0  0
   40.0405   21.4872   35.1797 H   0  0  0  0  0  0  0  0  0  0  0  0
   37.7787   23.9218   38.7976 H   0  0  0  0  0  0  0  0  0  0  0  0
   35.8990   20.5721   36.1032 H   0  0  0  0  0  0  0  0  0  0  0  0
   34.6768   20.0808   33.7358 H   0  0  0  0  0  0  0  0  0  0  0  0
   36.1055   21.4220   31.9215 H   0  0  0  0  0  0  0  0  0  0  0  0
   41.8288   23.5160   35.4007 H   0  0  0  0  0  0  0  0  0  0  0  0
   42.8076   21.9919   35.3518 H   0  0  0  0  0  0  0  0  0  0  0  0
   42.6715   25.1076   37.4482 H   0  0  0  0  0  0  0  0  0  0  0  0
   44.7222   26.2874   38.1425 H   0  0  0  0  0  0  0  0  0  0  0  0
   48.1182   23.4802   38.5494 H   0  0  0  0  0  0  0  0  0  0  0  0
   49.9963   26.9169   36.8930 H   0  0  0  0  0  0  0  0  0  0  0  0
   47.4827   26.9369   36.1510 H   0  0  0  0  0  0  0  0  0  0  0  0
  2  3  2  0
  2  7  1  0
  3  4  1  0
  4  1  1  0
  4  5  2  0
  6  5  1  0
  7  6  2  0
  8  9  2  0
  8  2  1  0
 10  9  1  0
 11 12  1  0
 11 10  2  0
 12  8  1  0
 13 14  1  0
 13  1  1  0
 14 15  2  0
 15 16  1  0
 17 19  1  0
 17 16  2  0
 18 14  1  0
 18 17  1  0
 19 20  2  0
 21 20  1  0
 22 21  2  0
 23 22  1  0
 23 19  1  0
  1 24  1  0
  1 25  1  0
  3 26  1  0
  6 27  1  0
  9 28  1  0
 10 29  1  0
 11 30  1  0
 13 31  1  0
 13 32  1  0
 15 33  1  0
 16 34  1  0
 20 35  1  0
 22 36  1  0
 23 37  1  0
M  ISO  8  24   8  25   8  26  14  27  14  28  14  29  14  30  14  31   8
M  ISO  6  32   8  33  14  34  14  35  14  36  14  37   9
M  END
>  <minimizedAffinity>  (1) 
-5.04637575

>  <minimizedRMSD>  (1) 
1.02950442

$$$$
