
     RDKit          3D

 37 40  0  0  0  0  0  0  0  0999 V2000
   41.7130   22.3680   37.1370 C   0  0  0  0  0  0  0  0  0  0  0  0
   38.1550   22.2480   35.9310 C   0  0  0  0  0  0  0  0  0  0  0  0
   39.5330   22.0660   35.9870 C   0  0  0  0  0  0  0  0  0  0  0  0
   40.2580   22.5460   37.0540 C   0  0  0  0  0  0  0  0  0  0  0  0
   39.5940   23.1930   38.0360 N   0  0  0  0  0  0  0  0  0  0  0  0
   38.2580   23.3720   37.9850 C   0  0  0  0  0  0  0  0  0  0  0  0
   37.5220   22.9120   36.9530 N   0  0  0  0  0  0  0  0  0  0  0  0
   37.2980   21.7950   34.8780 C   0  0  0  0  0  0  0  0  0  0  0  0
   36.1990   20.9580   35.1350 C   0  0  0  0  0  0  0  0  0  0  0  0
   35.5670   20.6940   33.9280 C   0  0  0  0  0  0  0  0  0  0  0  0
   36.3000   21.3710   33.0140 C   0  0  0  0  0  0  0  0  0  0  0  0
   37.3010   22.0010   33.6080 O   0  0  0  0  0  0  0  0  0  0  0  0
   42.4640   22.9650   35.9800 C   0  0  0  0  0  0  0  0  0  0  0  0
   43.6940   23.6950   36.4270 C   0  0  0  0  0  0  0  0  0  0  0  0
   43.6790   24.8080   37.1730 C   0  0  0  0  0  0  0  0  0  0  0  0
   44.8100   25.4370   37.5590 C   0  0  0  0  0  0  0  0  0  0  0  0
   46.0460   24.8200   37.1060 C   0  0  0  0  0  0  0  0  0  0  0  0
   45.4180   23.3460   36.1370 S   0  0  0  0  0  0  0  0  0  0  0  0
   47.3690   25.1450   37.2820 N   0  0  0  0  0  0  0  0  0  0  0  0
   48.1620   24.2870   37.9880 C   0  0  0  0  0  0  0  0  0  0  0  0
   49.4440   24.7910   38.0500 C   0  0  0  0  0  0  0  0  0  0  0  0
   49.4250   25.9710   37.3710 N   0  0  0  0  0  0  0  0  0  0  0  0
   48.1670   26.1680   36.9160 C   0  0  0  0  0  0  0  0  0  0  0  0
   42.0683   22.8431   38.0633 H   0  0  0  0  0  0  0  0  0  0  0  0
   41.9049   21.2850   37.1190 H   0  0  0  0  0  0  0  0  0  0  0  0
   40.0470   21.5346   35.1725 H   0  0  0  0  0  0  0  0  0  0  0  0
   37.7566   23.9063   38.8054 H   0  0  0  0  0  0  0  0  0  0  0  0
   35.8930   20.5782   36.1210 H   0  0  0  0  0  0  0  0  0  0  0  0
   34.6741   20.0756   33.7540 H   0  0  0  0  0  0  0  0  0  0  0  0
   36.0938   21.3944   31.9338 H   0  0  0  0  0  0  0  0  0  0  0  0
   41.8038   23.6702   35.4538 H   0  0  0  0  0  0  0  0  0  0  0  0
   42.7772   22.1443   35.3179 H   0  0  0  0  0  0  0  0  0  0  0  0
   42.7093   25.2249   37.4825 H   0  0  0  0  0  0  0  0  0  0  0  0
   44.7970   26.3503   38.1719 H   0  0  0  0  0  0  0  0  0  0  0  0
   47.8296   23.3399   38.4379 H   0  0  0  0  0  0  0  0  0  0  0  0
   50.3099   24.3312   38.5488 H   0  0  0  0  0  0  0  0  0  0  0  0
   47.8408   27.0399   36.3300 H   0  0  0  0  0  0  0  0  0  0  0  0
  2  3  2  0
  2  7  1  0
  3  4  1  0
  4  1  1  0
  4  5  2  0
  6  5  1  0
  7  6  2  0
  8  9  2  0
  8  2  1  0
 10  9  1  0
 11 12  1  0
 11 10  2  0
 12  8  1  0
 13 14  1  0
 13  1  1  0
 14 15  2  0
 15 16  1  0
 17 19  1  0
 17 16  2  0
 18 14  1  0
 18 17  1  0
 19 20  1  0
 20 21  2  0
 22 21  1  0
 23 19  1  0
 23 22  2  0
  1 24  1  0
  1 25  1  0
  3 26  1  0
  6 27  1  0
  9 28  1  0
 10 29  1  0
 11 30  1  0
 13 31  1  0
 13 32  1  0
 15 33  1  0
 16 34  1  0
 20 35  1  0
 21 36  1  0
 23 37  1  0
M  ISO  8  24   8  25   8  26  14  27  14  28  14  29  14  30  14  31   8
M  ISO  6  32   8  33  14  34  14  35  14  36  14  37  14
M  END
>  <minimizedAffinity>  (1) 
-5.04823542

>  <minimizedRMSD>  (1) 
0.981648326

$$$$
