
     RDKit          3D

 32 33  0  0  1  0  0  0  0  0999 V2000
   39.5230   23.8610   36.1190 N   0  0  0  0  0  0  0  0  0  0  0  0
   40.3570   22.9220   35.3370 C   0  0  0  0  0  0  0  0  0  0  0  0
   41.2940   22.3950   36.3960 C   0  0  0  0  0  0  0  0  0  0  0  0
   40.5420   22.5750   37.7190 C   0  0  0  0  0  0  0  0  0  0  0  0
   39.1710   22.9750   37.1940 C   0  0  1  0  0  0  0  0  0  0  0  0
   38.4440   23.6350   38.3280 C   0  0  0  0  0  0  0  0  0  0  0  0
   39.1660   23.7930   39.4630 F   0  0  0  0  0  0  0  0  0  0  0  0
   37.2590   22.9660   38.5370 F   0  0  0  0  0  0  0  0  0  0  0  0
   38.0820   24.9300   37.9280 F   0  0  0  0  0  0  0  0  0  0  0  0
   38.3780   24.2390   35.3230 C   0  0  0  0  0  0  0  0  0  0  0  0
   38.7360   24.4990   33.9090 C   0  0  0  0  0  0  0  0  0  0  0  0
   36.5160   22.0410   32.1590 C   0  0  0  0  0  0  0  0  0  0  0  0
   37.5180   22.6300   32.9460 C   0  0  0  0  0  0  0  0  0  0  0  0
   37.6470   23.9780   33.0440 C   0  0  0  0  0  0  0  0  0  0  0  0
   36.7650   24.7570   32.3480 N   0  0  0  0  0  0  0  0  0  0  0  0
   35.8030   24.1990   31.5930 C   0  0  0  0  0  0  0  0  0  0  0  0
   35.6700   22.8910   31.4910 N   0  0  0  0  0  0  0  0  0  0  0  0
   34.7580   25.3960   30.7660 S   0  0  0  0  0  0  0  0  0  0  0  0
   39.7507   22.1150   34.8998 H   0  0  0  0  0  0  0  0  0  0  0  0
   40.8663   23.3840   34.4784 H   0  0  0  0  0  0  0  0  0  0  0  0
   41.5173   21.3324   36.2201 H   0  0  0  0  0  0  0  0  0  0  0  0
   42.2580   22.9247   36.3943 H   0  0  0  0  0  0  0  0  0  0  0  0
   40.5009   21.6390   38.2954 H   0  0  0  0  0  0  0  0  0  0  0  0
   40.9979   23.2935   38.4160 H   0  0  0  0  0  0  0  0  0  0  0  0
   38.5047   22.1753   36.8385 H   0  0  0  0  0  0  0  0  0  0  0  0
   37.6395   23.4244   35.3567 H   0  0  0  0  0  0  0  0  0  0  0  0
   37.9694   25.1700   35.7429 H   0  0  0  0  0  0  0  0  0  0  0  0
   38.8519   25.5810   33.7485 H   0  0  0  0  0  0  0  0  0  0  0  0
   39.6848   23.9999   33.6624 H   0  0  0  0  0  0  0  0  0  0  0  0
   36.4134   20.9486   32.0811 H   0  0  0  0  0  0  0  0  0  0  0  0
   38.2163   21.9831   33.4972 H   0  0  0  0  0  0  0  0  0  0  0  0
   34.0994   26.1504   31.7009 H   0  0  0  0  0  0  0  0  0  0  0  0
  1  5  1  0
  2  1  1  0
  2  3  1  0
  3  4  1  0
  5  4  1  0
  5  6  1  0
  6  8  1  0
  6  7  1  0
  9  6  1  0
 10  1  1  0
 11 10  1  0
 12 13  2  0
 13 14  1  0
 14 11  1  0
 15 14  2  0
 16 15  1  0
 17 16  2  0
 17 12  1  0
 18 16  1  0
  2 19  1  0
  2 20  1  0
  3 21  1  0
  3 22  1  0
  4 23  1  0
  4 24  1  0
  5 25  1  6
 10 26  1  0
 10 27  1  0
 11 28  1  0
 11 29  1  0
 12 30  1  0
 13 31  1  0
 18 32  1  0
M  ISO  8  19  13  20  13  21  13  22  13  23  13  24  13  25  13  26   8
M  ISO  6  27   8  28   8  29   8  30  14  31  14  32  11
M  END
>  <minimizedAffinity>  (1) 
-4.98895741

>  <minimizedRMSD>  (1) 
0.636748374

$$$$
