
     RDKit          3D

 39 41  0  0  0  0  0  0  0  0999 V2000
   38.1540   22.2690   35.9670 C   0  0  0  0  0  0  0  0  0  0  0  0
   39.5400   22.1210   35.9920 C   0  0  0  0  0  0  0  0  0  0  0  0
   40.2600   22.6060   37.0600 C   0  0  0  0  0  0  0  0  0  0  0  0
   39.5830   23.2190   38.0620 N   0  0  0  0  0  0  0  0  0  0  0  0
   38.2440   23.3550   38.0260 C   0  0  0  0  0  0  0  0  0  0  0  0
   37.5090   22.8890   36.9910 N   0  0  0  0  0  0  0  0  0  0  0  0
   37.3040   21.7990   34.8950 C   0  0  0  0  0  0  0  0  0  0  0  0
   36.1990   20.9670   35.1740 C   0  0  0  0  0  0  0  0  0  0  0  0
   35.5710   20.6720   33.9700 C   0  0  0  0  0  0  0  0  0  0  0  0
   36.3190   21.3330   33.0420 C   0  0  0  0  0  0  0  0  0  0  0  0
   37.3300   21.9840   33.6200 O   0  0  0  0  0  0  0  0  0  0  0  0
   41.7220   22.4750   37.1330 C   0  0  0  0  0  0  0  0  0  0  0  0
   42.4440   23.1660   35.9970 C   0  0  0  0  0  0  0  0  0  0  0  0
   43.7360   23.7670   36.4590 C   0  0  0  0  0  0  0  0  0  0  0  0
   43.8260   24.8410   37.2560 C   0  0  0  0  0  0  0  0  0  0  0  0
   45.0020   25.3530   37.6580 C   0  0  0  0  0  0  0  0  0  0  0  0
   46.1770   24.6610   37.1670 C   0  0  0  0  0  0  0  0  0  0  0  0
   45.4330   23.2860   36.1340 S   0  0  0  0  0  0  0  0  0  0  0  0
   47.5920   24.8650   37.3450 C   0  0  0  0  0  0  0  0  0  0  0  0
   47.9760   26.3290   37.2780 C   0  0  0  0  0  0  0  0  0  0  0  0
   48.1420   24.2310   38.6270 C   0  0  0  0  0  0  0  0  0  0  0  0
   40.0564   21.6183   35.1610 H   0  0  0  0  0  0  0  0  0  0  0  0
   37.7344   23.8586   38.8607 H   0  0  0  0  0  0  0  0  0  0  0  0
   35.8894   20.6142   36.1688 H   0  0  0  0  0  0  0  0  0  0  0  0
   34.6787   20.0503   33.8046 H   0  0  0  0  0  0  0  0  0  0  0  0
   36.1162   21.3301   31.9609 H   0  0  0  0  0  0  0  0  0  0  0  0
   42.0645   22.9134   38.0819 H   0  0  0  0  0  0  0  0  0  0  0  0
   41.9562   21.4025   37.0624 H   0  0  0  0  0  0  0  0  0  0  0  0
   41.8010   23.9634   35.5961 H   0  0  0  0  0  0  0  0  0  0  0  0
   42.6665   22.4185   35.2212 H   0  0  0  0  0  0  0  0  0  0  0  0
   42.8979   25.3240   37.5955 H   0  0  0  0  0  0  0  0  0  0  0  0
   45.0679   26.2343   38.3129 H   0  0  0  0  0  0  0  0  0  0  0  0
   48.0607   24.3440   36.4971 H   0  0  0  0  0  0  0  0  0  0  0  0
   48.0806   26.7277   38.2979 H   0  0  0  0  0  0  0  0  0  0  0  0
   48.9319   26.4333   36.7437 H   0  0  0  0  0  0  0  0  0  0  0  0
   47.1944   26.8890   36.7437 H   0  0  0  0  0  0  0  0  0  0  0  0
   47.7050   24.7347   39.5018 H   0  0  0  0  0  0  0  0  0  0  0  0
   47.8795   23.1630   38.6497 H   0  0  0  0  0  0  0  0  0  0  0  0
   49.2363   24.3401   38.6497 H   0  0  0  0  0  0  0  0  0  0  0  0
  1  2  2  0
  1  6  1  0
  2  3  1  0
  3 12  1  0
  3  4  2  0
  5  4  1  0
  6  5  2  0
  7  8  2  0
  7  1  1  0
  9  8  1  0
 10 11  1  0
 10  9  2  0
 11  7  1  0
 13 14  1  0
 13 12  1  0
 14 15  2  0
 15 16  1  0
 17 19  1  0
 17 16  2  0
 18 14  1  0
 18 17  1  0
 19 21  1  0
 20 19  1  0
  2 22  1  0
  5 23  1  0
  8 24  1  0
  9 25  1  0
 10 26  1  0
 12 27  1  0
 12 28  1  0
 13 29  1  0
 13 30  1  0
 15 31  1  0
 16 32  1  0
 19 33  1  0
 20 34  1  0
 20 35  1  0
 20 36  1  0
 21 37  1  0
 21 38  1  0
 21 39  1  0
M  ISO  8  22  14  23  14  24  14  25  14  26  14  27   8  28   8  29   8
M  ISO  8  30   8  31  14  32  14  33   8  34   8  35   8  36   8  37   8
M  ISO  2  38   8  39   8
M  END
>  <minimizedAffinity>  (1) 
-5.15057802

>  <minimizedRMSD>  (1) 
0.597889066

$$$$
