
     RDKit          3D

 33 35  0  0  0  0  0  0  0  0999 V2000
   37.9690   22.2770   36.0210 C   0  0  0  0  0  0  0  0  0  0  0  0
   39.3610   22.1940   36.0800 C   0  0  0  0  0  0  0  0  0  0  0  0
   40.0430   22.7010   37.1540 C   0  0  0  0  0  0  0  0  0  0  0  0
   39.3300   23.2770   38.1430 N   0  0  0  0  0  0  0  0  0  0  0  0
   37.9870   23.3570   38.0850 C   0  0  0  0  0  0  0  0  0  0  0  0
   37.2900   22.8640   37.0350 N   0  0  0  0  0  0  0  0  0  0  0  0
   37.1700   21.7770   34.9410 C   0  0  0  0  0  0  0  0  0  0  0  0
   36.0910   20.8970   35.1800 C   0  0  0  0  0  0  0  0  0  0  0  0
   35.5010   20.5770   33.9670 C   0  0  0  0  0  0  0  0  0  0  0  0
   36.2410   21.2700   33.0560 C   0  0  0  0  0  0  0  0  0  0  0  0
   37.1970   21.9500   33.6730 O   0  0  0  0  0  0  0  0  0  0  0  0
   41.5120   22.6280   37.2460 C   0  0  0  0  0  0  0  0  0  0  0  0
   42.2250   23.1830   36.0430 C   0  0  0  0  0  0  0  0  0  0  0  0
   43.6440   23.5290   36.3350 C   0  0  0  0  0  0  0  0  0  0  0  0
   44.0460   24.5740   37.0660 C   0  0  0  0  0  0  0  0  0  0  0  0
   45.3290   24.8530   37.3150 C   0  0  0  0  0  0  0  0  0  0  0  0
   46.2900   23.9340   36.7300 C   0  0  0  0  0  0  0  0  0  0  0  0
   45.1730   22.7170   35.8480 S   0  0  0  0  0  0  0  0  0  0  0  0
   47.7090   23.7870   36.6900 C   0  0  0  0  0  0  0  0  0  0  0  0
   39.9146   21.7176   35.2574 H   0  0  0  0  0  0  0  0  0  0  0  0
   37.4425   23.8354   38.9124 H   0  0  0  0  0  0  0  0  0  0  0  0
   35.7718   20.5269   36.1655 H   0  0  0  0  0  0  0  0  0  0  0  0
   34.6389   19.9190   33.7831 H   0  0  0  0  0  0  0  0  0  0  0  0
   36.0701   21.2656   31.9694 H   0  0  0  0  0  0  0  0  0  0  0  0
   41.8325   23.1963   38.1316 H   0  0  0  0  0  0  0  0  0  0  0  0
   41.7760   21.5621   37.3109 H   0  0  0  0  0  0  0  0  0  0  0  0
   41.7012   24.0909   35.7094 H   0  0  0  0  0  0  0  0  0  0  0  0
   42.2220   22.4072   35.2632 H   0  0  0  0  0  0  0  0  0  0  0  0
   43.2783   25.2408   37.4855 H   0  0  0  0  0  0  0  0  0  0  0  0
   45.6360   25.7183   37.9208 H   0  0  0  0  0  0  0  0  0  0  0  0
   48.1025   23.7462   37.7164 H   0  0  0  0  0  0  0  0  0  0  0  0
   47.9666   22.8574   36.1614 H   0  0  0  0  0  0  0  0  0  0  0  0
   48.1517   24.6441   36.1614 H   0  0  0  0  0  0  0  0  0  0  0  0
  1  2  2  0
  1  6  1  0
  2  3  1  0
  3 12  1  0
  3  4  2  0
  5  4  1  0
  6  5  2  0
  7  8  2  0
  7  1  1  0
  9  8  1  0
 10 11  1  0
 10  9  2  0
 11  7  1  0
 13 14  1  0
 13 12  1  0
 14 15  2  0
 15 16  1  0
 17 16  2  0
 18 14  1  0
 18 17  1  0
 19 17  1  0
  2 20  1  0
  5 21  1  0
  8 22  1  0
  9 23  1  0
 10 24  1  0
 12 25  1  0
 12 26  1  0
 13 27  1  0
 13 28  1  0
 15 29  1  0
 16 30  1  0
 19 31  1  0
 19 32  1  0
 19 33  1  0
M  ISO  8  20  14  21  14  22  14  23  14  24  14  25   8  26   8  27   8
M  ISO  6  28   8  29  14  30  14  31   8  32   8  33   8
M  END
>  <minimizedAffinity>  (1) 
-4.90280867

>  <minimizedRMSD>  (1) 
0.0456379987

$$$$
