
     RDKit          3D

 32 34  0  0  0  0  0  0  0  0999 V2000
   37.9800   22.2740   35.9830 C   0  0  0  0  0  0  0  0  0  0  0  0
   39.3720   22.1870   36.0500 C   0  0  0  0  0  0  0  0  0  0  0  0
   40.0310   22.7000   37.1480 C   0  0  0  0  0  0  0  0  0  0  0  0
   39.3080   23.2770   38.1400 N   0  0  0  0  0  0  0  0  0  0  0  0
   37.9570   23.3580   38.0660 C   0  0  0  0  0  0  0  0  0  0  0  0
   37.2850   22.8650   37.0020 N   0  0  0  0  0  0  0  0  0  0  0  0
   37.1750   21.7830   34.9000 C   0  0  0  0  0  0  0  0  0  0  0  0
   36.1080   20.9030   35.1140 C   0  0  0  0  0  0  0  0  0  0  0  0
   35.5210   20.6040   33.9030 C   0  0  0  0  0  0  0  0  0  0  0  0
   36.2520   21.3120   32.9980 C   0  0  0  0  0  0  0  0  0  0  0  0
   37.2100   21.9890   33.6180 O   0  0  0  0  0  0  0  0  0  0  0  0
   41.4970   22.6200   37.2420 C   0  0  0  0  0  0  0  0  0  0  0  0
   42.2120   23.1240   36.0140 C   0  0  0  0  0  0  0  0  0  0  0  0
   43.6180   23.5170   36.3070 C   0  0  0  0  0  0  0  0  0  0  0  0
   43.9590   24.5680   37.0550 C   0  0  0  0  0  0  0  0  0  0  0  0
   45.1910   24.9300   37.3420 C   0  0  0  0  0  0  0  0  0  0  0  0
   46.2360   24.0750   36.7700 C   0  0  0  0  0  0  0  0  0  0  0  0
   45.1970   22.8030   35.8490 S   0  0  0  0  0  0  0  0  0  0  0  0
   47.6820   24.0140   36.7670 C   0  0  0  0  0  0  0  0  0  0  0  0
   48.2050   23.5310   37.7700 O   0  0  0  0  0  0  0  0  0  0  0  0
   39.9382   21.7135   35.2344 H   0  0  0  0  0  0  0  0  0  0  0  0
   37.3981   23.8330   38.8858 H   0  0  0  0  0  0  0  0  0  0  0  0
   35.7889   20.5126   36.0916 H   0  0  0  0  0  0  0  0  0  0  0  0
   34.6608   19.9456   33.7118 H   0  0  0  0  0  0  0  0  0  0  0  0
   36.0743   21.3212   31.9125 H   0  0  0  0  0  0  0  0  0  0  0  0
   41.8229   23.2202   38.1043 H   0  0  0  0  0  0  0  0  0  0  0  0
   41.7544   21.5560   37.3496 H   0  0  0  0  0  0  0  0  0  0  0  0
   41.6728   23.9998   35.6238 H   0  0  0  0  0  0  0  0  0  0  0  0
   42.2347   22.3084   35.2762 H   0  0  0  0  0  0  0  0  0  0  0  0
   43.1436   25.1819   37.4652 H   0  0  0  0  0  0  0  0  0  0  0  0
   45.4198   25.8078   37.9641 H   0  0  0  0  0  0  0  0  0  0  0  0
   48.2783   24.3783   35.9175 H   0  0  0  0  0  0  0  0  0  0  0  0
  1  2  2  0
  1  6  1  0
  2  3  1  0
  3 12  1  0
  3  4  2  0
  5  4  1  0
  6  5  2  0
  7  8  2  0
  7  1  1  0
  9  8  1  0
 10 11  1  0
 10  9  2  0
 11  7  1  0
 13 14  1  0
 13 12  1  0
 14 15  2  0
 15 16  1  0
 17 16  2  0
 18 14  1  0
 18 17  1  0
 19 17  1  0
 19 20  2  0
  2 21  1  0
  5 22  1  0
  8 23  1  0
  9 24  1  0
 10 25  1  0
 12 26  1  0
 12 27  1  0
 13 28  1  0
 13 29  1  0
 15 30  1  0
 16 31  1  0
 19 32  1  0
M  ISO  8  21  14  22  14  23  14  24  14  25  14  26   8  27   8  28   8
M  ISO  4  29   8  30  14  31  14  32   6
M  END
>  <minimizedAffinity>  (1) 
-4.77728939

>  <minimizedRMSD>  (1) 
0.14920339

$$$$
