
     RDKit          3D

 33 35  0  0  0  0  0  0  0  0999 V2000
   41.4980   22.6340   37.2510 C   0  0  0  0  0  0  0  0  0  0  0  0
   37.9730   22.2660   36.0180 C   0  0  0  0  0  0  0  0  0  0  0  0
   39.3620   22.1890   36.0860 C   0  0  0  0  0  0  0  0  0  0  0  0
   40.0380   22.7050   37.1600 C   0  0  0  0  0  0  0  0  0  0  0  0
   39.3200   23.2870   38.1430 N   0  0  0  0  0  0  0  0  0  0  0  0
   37.9760   23.3640   38.0820 C   0  0  0  0  0  0  0  0  0  0  0  0
   37.2850   22.8670   37.0410 N   0  0  0  0  0  0  0  0  0  0  0  0
   37.1620   21.7640   34.9500 C   0  0  0  0  0  0  0  0  0  0  0  0
   36.0780   20.8880   35.1890 C   0  0  0  0  0  0  0  0  0  0  0  0
   35.5020   20.5860   33.9690 C   0  0  0  0  0  0  0  0  0  0  0  0
   36.2360   21.2710   33.0620 C   0  0  0  0  0  0  0  0  0  0  0  0
   37.2020   21.9520   33.6670 O   0  0  0  0  0  0  0  0  0  0  0  0
   42.2190   23.1160   36.0210 C   0  0  0  0  0  0  0  0  0  0  0  0
   43.6330   23.5070   36.3170 C   0  0  0  0  0  0  0  0  0  0  0  0
   43.9750   24.5680   37.0620 C   0  0  0  0  0  0  0  0  0  0  0  0
   45.2700   24.8890   37.3120 C   0  0  0  0  0  0  0  0  0  0  0  0
   46.2550   24.0020   36.7150 C   0  0  0  0  0  0  0  0  0  0  0  0
   45.1740   22.7540   35.8240 S   0  0  0  0  0  0  0  0  0  0  0  0
   47.6560   24.0230   36.7570 C   0  0  0  0  0  0  0  0  0  0  0  0
   48.3770   24.9690   36.3390 O   0  0  0  0  0  0  0  0  0  0  0  0
   48.2680   22.9030   37.3060 O   0  0  0  0  0  0  0  0  0  0  0  0
   41.8205   23.2503   38.1032 H   0  0  0  0  0  0  0  0  0  0  0  0
   41.7550   21.5712   37.3708 H   0  0  0  0  0  0  0  0  0  0  0  0
   39.9216   21.7092   35.2695 H   0  0  0  0  0  0  0  0  0  0  0  0
   37.4295   23.8463   38.9059 H   0  0  0  0  0  0  0  0  0  0  0  0
   35.7514   20.5137   36.1704 H   0  0  0  0  0  0  0  0  0  0  0  0
   34.6377   19.9329   33.7779 H   0  0  0  0  0  0  0  0  0  0  0  0
   36.0576   21.2646   31.9766 H   0  0  0  0  0  0  0  0  0  0  0  0
   41.6863   23.9893   35.6164 H   0  0  0  0  0  0  0  0  0  0  0  0
   42.2398   22.2907   35.2941 H   0  0  0  0  0  0  0  0  0  0  0  0
   43.1796   25.1994   37.4847 H   0  0  0  0  0  0  0  0  0  0  0  0
   45.5540   25.7586   37.9229 H   0  0  0  0  0  0  0  0  0  0  0  0
   49.2552   22.8569   37.3642 H   0  0  0  0  0  0  0  0  0  0  0  0
  2  3  2  0
  2  7  1  0
  3  4  1  0
  4  1  1  0
  4  5  2  0
  6  5  1  0
  7  6  2  0
  8  9  2  0
  8  2  1  0
 10  9  1  0
 11 12  1  0
 11 10  2  0
 12  8  1  0
 13 14  1  0
 13  1  1  0
 14 15  2  0
 15 16  1  0
 17 19  1  0
 17 16  2  0
 18 14  1  0
 18 17  1  0
 19 21  1  0
 20 19  2  0
  1 22  1  0
  1 23  1  0
  3 24  1  0
  6 25  1  0
  9 26  1  0
 10 27  1  0
 11 28  1  0
 13 29  1  0
 13 30  1  0
 15 31  1  0
 16 32  1  0
 21 33  1  0
M  ISO  8  22   8  23   8  24  14  25  14  26  14  27  14  28  14  29   8
M  ISO  4  30   8  31  14  32  14  33   3
M  END
>  <minimizedAffinity>  (1) 
-4.85829163

>  <minimizedRMSD>  (1) 
0.0711567029

$$$$
