
     RDKit          3D

 31 33  0  0  0  0  0  0  0  0999 V2000
   37.9690   22.2740   35.9930 C   0  0  0  0  0  0  0  0  0  0  0  0
   39.3660   22.1950   36.0500 C   0  0  0  0  0  0  0  0  0  0  0  0
   40.0450   22.7010   37.1260 C   0  0  0  0  0  0  0  0  0  0  0  0
   39.3360   23.2740   38.1270 N   0  0  0  0  0  0  0  0  0  0  0  0
   37.9810   23.3480   38.0660 C   0  0  0  0  0  0  0  0  0  0  0  0
   37.2930   22.8560   37.0130 N   0  0  0  0  0  0  0  0  0  0  0  0
   37.1620   21.7760   34.9100 C   0  0  0  0  0  0  0  0  0  0  0  0
   36.0880   20.8890   35.1550 C   0  0  0  0  0  0  0  0  0  0  0  0
   35.4990   20.5790   33.9520 C   0  0  0  0  0  0  0  0  0  0  0  0
   36.2280   21.2780   33.0400 C   0  0  0  0  0  0  0  0  0  0  0  0
   37.1840   21.9590   33.6450 O   0  0  0  0  0  0  0  0  0  0  0  0
   41.5040   22.6430   37.2350 C   0  0  0  0  0  0  0  0  0  0  0  0
   42.2340   23.1500   36.0430 C   0  0  0  0  0  0  0  0  0  0  0  0
   43.6510   23.4980   36.3310 C   0  0  0  0  0  0  0  0  0  0  0  0
   44.0140   24.5770   37.0720 C   0  0  0  0  0  0  0  0  0  0  0  0
   45.3210   24.8530   37.2960 C   0  0  0  0  0  0  0  0  0  0  0  0
   46.2870   23.9370   36.7050 C   0  0  0  0  0  0  0  0  0  0  0  0
   45.1730   22.6910   35.8290 S   0  0  0  0  0  0  0  0  0  0  0  0
   47.6140   23.8510   36.6870 O   0  0  0  0  0  0  0  0  0  0  0  0
   39.9211   21.7237   35.2255 H   0  0  0  0  0  0  0  0  0  0  0  0
   37.4311   23.8197   38.8937 H   0  0  0  0  0  0  0  0  0  0  0  0
   35.7769   20.5115   36.1402 H   0  0  0  0  0  0  0  0  0  0  0  0
   34.6382   19.9190   33.7691 H   0  0  0  0  0  0  0  0  0  0  0  0
   36.0470   21.2760   31.9550 H   0  0  0  0  0  0  0  0  0  0  0  0
   41.8073   23.2444   38.1046 H   0  0  0  0  0  0  0  0  0  0  0  0
   41.7674   21.5795   37.3331 H   0  0  0  0  0  0  0  0  0  0  0  0
   41.7203   24.0503   35.6747 H   0  0  0  0  0  0  0  0  0  0  0  0
   42.2399   22.3439   35.2946 H   0  0  0  0  0  0  0  0  0  0  0  0
   43.2388   25.2332   37.4944 H   0  0  0  0  0  0  0  0  0  0  0  0
   45.6360   25.7221   37.8922 H   0  0  0  0  0  0  0  0  0  0  0  0
   48.0555   23.1111   36.1994 H   0  0  0  0  0  0  0  0  0  0  0  0
  1  2  2  0
  1  6  1  0
  2  3  1  0
  3 12  1  0
  3  4  2  0
  5  4  1  0
  6  5  2  0
  7  8  2  0
  7  1  1  0
  9  8  1  0
 10 11  1  0
 10  9  2  0
 11  7  1  0
 13 14  1  0
 13 12  1  0
 14 15  2  0
 15 16  1  0
 17 16  2  0
 18 14  1  0
 18 17  1  0
 19 17  1  0
  2 20  1  0
  5 21  1  0
  8 22  1  0
  9 23  1  0
 10 24  1  0
 12 25  1  0
 12 26  1  0
 13 27  1  0
 13 28  1  0
 15 29  1  0
 16 30  1  0
 19 31  1  0
M  ISO  8  20  14  21  14  22  14  23  14  24  14  25   8  26   8  27   8
M  ISO  4  28   8  29  14  30  14  31   3
M  END
>  <minimizedAffinity>  (1) 
-4.84269428

>  <minimizedRMSD>  (1) 
0.0468839109

$$$$
