
     RDKit          3D

 47 50  0  0  1  0  0  0  0  0999 V2000
   43.7510   23.7450   36.4590 C   0  0  0  0  0  0  0  0  0  0  0  0
   43.8400   24.8130   37.2500 C   0  0  0  0  0  0  0  0  0  0  0  0
   45.0390   25.3120   37.6550 C   0  0  0  0  0  0  0  0  0  0  0  0
   46.1860   24.6370   37.1960 C   0  0  0  0  0  0  0  0  0  0  0  0
   45.4530   23.2970   36.1790 S   0  0  0  0  0  0  0  0  0  0  0  0
   42.4780   23.1180   35.9660 C   0  0  0  0  0  0  0  0  0  0  0  0
   41.7320   22.4780   37.1210 C   0  0  0  0  0  0  0  0  0  0  0  0
   38.1700   22.2590   35.9550 C   0  0  0  0  0  0  0  0  0  0  0  0
   39.5470   22.1240   35.9900 C   0  0  0  0  0  0  0  0  0  0  0  0
   40.2770   22.6020   37.0430 C   0  0  0  0  0  0  0  0  0  0  0  0
   39.6120   23.2080   38.0440 N   0  0  0  0  0  0  0  0  0  0  0  0
   38.2720   23.3440   38.0170 C   0  0  0  0  0  0  0  0  0  0  0  0
   37.5300   22.8800   36.9870 N   0  0  0  0  0  0  0  0  0  0  0  0
   37.3160   21.7950   34.8980 C   0  0  0  0  0  0  0  0  0  0  0  0
   36.2110   20.9720   35.1640 C   0  0  0  0  0  0  0  0  0  0  0  0
   35.5770   20.6830   33.9730 C   0  0  0  0  0  0  0  0  0  0  0  0
   36.3240   21.3400   33.0460 C   0  0  0  0  0  0  0  0  0  0  0  0
   37.3400   21.9860   33.6270 O   0  0  0  0  0  0  0  0  0  0  0  0
   47.4910   24.9730   37.6020 C   0  0  2  0  0  0  0  0  0  0  0  0
   47.8680   26.3850   37.2620 C   0  0  0  0  0  0  0  0  0  0  0  0
   48.4810   23.9280   37.4850 C   0  0  0  0  0  0  0  0  0  0  0  0
   49.0150   23.4640   38.7600 C   0  0  0  0  0  0  0  0  0  0  0  0
   48.9640   23.8090   40.0890 C   0  0  0  0  0  0  0  0  0  0  0  0
   49.6230   23.1370   41.0900 C   0  0  0  0  0  0  0  0  0  0  0  0
   50.3720   22.0750   40.8030 N   0  0  0  0  0  0  0  0  0  0  0  0
   50.4450   21.7090   39.5050 C   0  0  0  0  0  0  0  0  0  0  0  0
   49.8040   22.3630   38.5350 N   0  0  0  0  0  0  0  0  0  0  0  0
   42.9160   25.3064   37.5859 H   0  0  0  0  0  0  0  0  0  0  0  0
   45.1086   26.1957   38.3063 H   0  0  0  0  0  0  0  0  0  0  0  0
   41.8447   23.8920   35.5079 H   0  0  0  0  0  0  0  0  0  0  0  0
   42.7214   22.3454   35.2218 H   0  0  0  0  0  0  0  0  0  0  0  0
   41.9854   21.4078   37.1434 H   0  0  0  0  0  0  0  0  0  0  0  0
   42.0443   23.0117   38.0307 H   0  0  0  0  0  0  0  0  0  0  0  0
   40.0628   21.6239   35.1570 H   0  0  0  0  0  0  0  0  0  0  0  0
   37.7681   23.8463   38.8559 H   0  0  0  0  0  0  0  0  0  0  0  0
   35.9014   20.6161   36.1577 H   0  0  0  0  0  0  0  0  0  0  0  0
   34.6800   20.0671   33.8117 H   0  0  0  0  0  0  0  0  0  0  0  0
   36.1200   21.3399   31.9651 H   0  0  0  0  0  0  0  0  0  0  0  0
   47.4735   25.0122   38.7012 H   0  0  0  0  0  0  0  0  0  0  0  0
   48.0207   26.9571   38.1890 H   0  0  0  0  0  0  0  0  0  0  0  0
   48.7976   26.3848   36.6739 H   0  0  0  0  0  0  0  0  0  0  0  0
   47.0621   26.8482   36.6739 H   0  0  0  0  0  0  0  0  0  0  0  0
   48.0192   23.0713   36.9723 H   0  0  0  0  0  0  0  0  0  0  0  0
   49.3262   24.3551   36.9254 H   0  0  0  0  0  0  0  0  0  0  0  0
   48.3552   24.6810   40.3702 H   0  0  0  0  0  0  0  0  0  0  0  0
   49.5312   23.4778   42.1318 H   0  0  0  0  0  0  0  0  0  0  0  0
   51.0581   20.8360   39.2367 H   0  0  0  0  0  0  0  0  0  0  0  0
  1  2  2  0
  2  3  1  0
  4 19  1  0
  4  3  2  0
  5  1  1  0
  5  4  1  0
  6  1  1  0
  6  7  1  0
  8  9  2  0
  8 13  1  0
  9 10  1  0
 10  7  1  0
 10 11  2  0
 12 11  1  0
 13 12  2  0
 14 15  2  0
 14  8  1  0
 16 15  1  0
 17 18  1  0
 17 16  2  0
 18 14  1  0
 20 19  1  0
 21 19  1  0
 21 22  1  0
 22 23  2  0
 23 24  1  0
 25 24  2  0
 26 25  1  0
 27 22  1  0
 27 26  2  0
  2 28  1  0
  3 29  1  0
  6 30  1  0
  6 31  1  0
  7 32  1  0
  7 33  1  0
  9 34  1  0
 12 35  1  0
 15 36  1  0
 16 37  1  0
 17 38  1  0
 19 39  1  1
 20 40  1  0
 20 41  1  0
 20 42  1  0
 21 43  1  0
 21 44  1  0
 23 45  1  0
 24 46  1  0
 26 47  1  0
M  ISO  8  28  14  29  14  30   8  31   8  32   8  33   8  34  14  35  14
M  ISO  8  36  14  37  14  38  14  39   8  40   8  41   8  42   8  43   8
M  ISO  4  44   8  45  14  46  14  47  14
M  END
>  <minimizedAffinity>  (1) 
-5.32142162

>  <minimizedRMSD>  (1) 
1.19311261

$$$$
