
     RDKit          3D

 46 49  0  0  1  0  0  0  0  0999 V2000
   42.4670   23.2450   35.9720 C   0  0  0  0  0  0  0  0  0  0  0  0
   43.7670   23.8080   36.4720 C   0  0  0  0  0  0  0  0  0  0  0  0
   43.8980   24.8460   37.2970 C   0  0  0  0  0  0  0  0  0  0  0  0
   45.1170   25.2900   37.7150 C   0  0  0  0  0  0  0  0  0  0  0  0
   46.2340   24.5880   37.2310 C   0  0  0  0  0  0  0  0  0  0  0  0
   45.4510   23.3070   36.1720 S   0  0  0  0  0  0  0  0  0  0  0  0
   47.5570   24.8640   37.6190 C   0  0  2  0  0  0  0  0  0  0  0  0
   47.9860   26.2640   37.3360 C   0  0  0  0  0  0  0  0  0  0  0  0
   48.5030   23.7760   37.5100 C   0  0  0  0  0  0  0  0  0  0  0  0
   49.2870   23.2900   38.6560 C   0  0  0  0  0  0  0  0  0  0  0  0
   49.1960   23.7080   40.0510 C   0  0  0  0  0  0  0  0  0  0  0  0
   50.3800   24.1250   39.2340 C   0  0  0  0  0  0  0  0  0  0  0  0
   41.7540   22.5210   37.1080 C   0  0  0  0  0  0  0  0  0  0  0  0
   38.1780   22.2590   36.0050 C   0  0  0  0  0  0  0  0  0  0  0  0
   39.5630   22.1330   36.0060 C   0  0  0  0  0  0  0  0  0  0  0  0
   40.2950   22.6270   37.0570 C   0  0  0  0  0  0  0  0  0  0  0  0
   39.6320   23.2290   38.0710 N   0  0  0  0  0  0  0  0  0  0  0  0
   38.2980   23.3460   38.0650 C   0  0  0  0  0  0  0  0  0  0  0  0
   37.5460   22.8720   37.0470 N   0  0  0  0  0  0  0  0  0  0  0  0
   37.3130   21.7810   34.9600 C   0  0  0  0  0  0  0  0  0  0  0  0
   36.2020   20.9570   35.2690 C   0  0  0  0  0  0  0  0  0  0  0  0
   35.5650   20.6610   34.0650 C   0  0  0  0  0  0  0  0  0  0  0  0
   36.3020   21.3000   33.1270 C   0  0  0  0  0  0  0  0  0  0  0  0
   37.3300   21.9570   33.6800 O   0  0  0  0  0  0  0  0  0  0  0  0
   41.8312   24.0633   35.6031 H   0  0  0  0  0  0  0  0  0  0  0  0
   42.6656   22.5365   35.1544 H   0  0  0  0  0  0  0  0  0  0  0  0
   42.9933   25.3612   37.6522 H   0  0  0  0  0  0  0  0  0  0  0  0
   45.2206   26.1498   38.3933 H   0  0  0  0  0  0  0  0  0  0  0  0
   47.5549   24.8844   38.7188 H   0  0  0  0  0  0  0  0  0  0  0  0
   48.1491   26.7964   38.2847 H   0  0  0  0  0  0  0  0  0  0  0  0
   48.9214   26.2510   36.7573 H   0  0  0  0  0  0  0  0  0  0  0  0
   47.2039   26.7773   36.7573 H   0  0  0  0  0  0  0  0  0  0  0  0
   47.9318   22.9108   37.1422 H   0  0  0  0  0  0  0  0  0  0  0  0
   49.2842   24.2204   36.8758 H   0  0  0  0  0  0  0  0  0  0  0  0
   49.1719   22.3037   38.1828 H   0  0  0  0  0  0  0  0  0  0  0  0
   48.4468   24.4551   40.3518 H   0  0  0  0  0  0  0  0  0  0  0  0
   49.0620   23.1844   41.0091 H   0  0  0  0  0  0  0  0  0  0  0  0
   51.3697   23.6858   39.4279 H   0  0  0  0  0  0  0  0  0  0  0  0
   50.8611   25.0800   38.9760 H   0  0  0  0  0  0  0  0  0  0  0  0
   42.0254   21.4559   37.0639 H   0  0  0  0  0  0  0  0  0  0  0  0
   42.0760   23.0011   38.0438 H   0  0  0  0  0  0  0  0  0  0  0  0
   40.0714   21.6380   35.1655 H   0  0  0  0  0  0  0  0  0  0  0  0
   37.8007   23.8415   38.9118 H   0  0  0  0  0  0  0  0  0  0  0  0
   35.8995   20.6155   36.2700 H   0  0  0  0  0  0  0  0  0  0  0  0
   34.6657   20.0464   33.9118 H   0  0  0  0  0  0  0  0  0  0  0  0
   36.0848   21.2822   32.0488 H   0  0  0  0  0  0  0  0  0  0  0  0
  1  2  1  0
  1 13  1  0
  2  3  2  0
  3  4  1  0
  5  7  1  0
  5  4  2  0
  6  2  1  0
  6  5  1  0
  8  7  1  0
  9  7  1  0
  9 10  1  0
 10 12  1  0
 10 11  1  0
 12 11  1  0
 14 15  2  0
 14 19  1  0
 15 16  1  0
 16 13  1  0
 16 17  2  0
 18 17  1  0
 19 18  2  0
 20 21  2  0
 20 14  1  0
 22 21  1  0
 23 24  1  0
 23 22  2  0
 24 20  1  0
  1 25  1  0
  1 26  1  0
  3 27  1  0
  4 28  1  0
  7 29  1  1
  8 30  1  0
  8 31  1  0
  8 32  1  0
  9 33  1  0
  9 34  1  0
 10 35  1  0
 11 36  1  0
 11 37  1  0
 12 38  1  0
 12 39  1  0
 13 40  1  0
 13 41  1  0
 15 42  1  0
 18 43  1  0
 21 44  1  0
 22 45  1  0
 23 46  1  0
M  ISO  8  25   8  26   8  27  14  28  14  29   8  30   8  31   8  32   8
M  ISO  8  33   8  34   8  35  13  36  13  37  13  38  13  39  13  40   8
M  ISO  6  41   8  42  14  43  14  44  14  45  14  46  14
M  END
>  <minimizedAffinity>  (1) 
-5.21651745

>  <minimizedRMSD>  (1) 
0.900403082

$$$$
