
     RDKit          3D

 52 55  0  0  1  0  0  0  0  0999 V2000
   43.3610   24.0040   35.9550 C   0  0  0  0  0  0  0  0  0  0  0  0
   43.9430   24.1720   37.1410 C   0  0  0  0  0  0  0  0  0  0  0  0
   45.0820   24.9060   37.2930 C   0  0  0  0  0  0  0  0  0  0  0  0
   45.6150   25.4770   36.1210 C   0  0  0  0  0  0  0  0  0  0  0  0
   44.4200   24.9200   34.8560 S   0  0  0  0  0  0  0  0  0  0  0  0
   42.1260   23.1930   35.6910 C   0  0  0  0  0  0  0  0  0  0  0  0
   41.4640   22.8160   37.0130 C   0  0  0  0  0  0  0  0  0  0  0  0
   37.9400   22.2420   35.8750 C   0  0  0  0  0  0  0  0  0  0  0  0
   39.3290   22.2520   35.8920 C   0  0  0  0  0  0  0  0  0  0  0  0
   40.0020   22.7880   36.9570 C   0  0  0  0  0  0  0  0  0  0  0  0
   39.2710   23.3020   37.9810 N   0  0  0  0  0  0  0  0  0  0  0  0
   37.9310   23.2900   37.9600 C   0  0  0  0  0  0  0  0  0  0  0  0
   37.2370   22.7690   36.9240 N   0  0  0  0  0  0  0  0  0  0  0  0
   37.1310   21.7080   34.8120 C   0  0  0  0  0  0  0  0  0  0  0  0
   36.0360   20.8600   35.0980 C   0  0  0  0  0  0  0  0  0  0  0  0
   35.4570   20.5110   33.8800 C   0  0  0  0  0  0  0  0  0  0  0  0
   36.2140   21.1510   32.9510 C   0  0  0  0  0  0  0  0  0  0  0  0
   37.2000   21.8540   33.5270 O   0  0  0  0  0  0  0  0  0  0  0  0
   46.8300   26.1810   36.0900 C   0  0  2  0  0  0  0  0  0  0  0  0
   47.5500   26.0610   34.7740 C   0  0  0  0  0  0  0  0  0  0  0  0
   47.5850   26.2650   37.3090 C   0  0  0  0  0  0  0  0  0  0  0  0
   48.8690   25.6490   37.4500 N   0  0  0  0  0  0  0  0  0  0  0  0
   48.8600   24.3400   37.8500 C   0  0  0  0  0  0  0  0  0  0  0  0
   49.9670   23.5760   38.0840 C   0  0  0  0  0  0  0  0  0  0  0  0
   49.8730   22.1590   38.5180 C   0  0  0  0  0  0  0  0  0  0  0  0
   51.2120   24.1380   37.9120 C   0  0  0  0  0  0  0  0  0  0  0  0
   52.2950   23.5380   38.0970 O   0  0  0  0  0  0  0  0  0  0  0  0
   51.2130   25.4170   37.5200 N   0  0  0  0  0  0  0  0  0  0  0  0
   50.1090   26.1490   37.2950 C   0  0  0  0  0  0  0  0  0  0  0  0
   50.1600   27.3490   36.9210 O   0  0  0  0  0  0  0  0  0  0  0  0
   43.4900   23.7033   38.0270 H   0  0  0  0  0  0  0  0  0  0  0  0
   45.5576   25.0443   38.2752 H   0  0  0  0  0  0  0  0  0  0  0  0
   41.4230   23.7844   35.0859 H   0  0  0  0  0  0  0  0  0  0  0  0
   42.4018   22.2769   35.1482 H   0  0  0  0  0  0  0  0  0  0  0  0
   41.8186   21.8166   37.3054 H   0  0  0  0  0  0  0  0  0  0  0  0
   41.7409   23.5922   37.7416 H   0  0  0  0  0  0  0  0  0  0  0  0
   39.8903   21.8276   35.0465 H   0  0  0  0  0  0  0  0  0  0  0  0
   37.3799   23.7167   38.8110 H   0  0  0  0  0  0  0  0  0  0  0  0
   35.7037   20.5365   36.0955 H   0  0  0  0  0  0  0  0  0  0  0  0
   34.5842   19.8636   33.7091 H   0  0  0  0  0  0  0  0  0  0  0  0
   36.0405   21.0992   31.8660 H   0  0  0  0  0  0  0  0  0  0  0  0
   46.5471   27.2440   36.0976 H   0  0  0  0  0  0  0  0  0  0  0  0
   48.6200   25.8827   34.9564 H   0  0  0  0  0  0  0  0  0  0  0  0
   47.1305   25.2204   34.2018 H   0  0  0  0  0  0  0  0  0  0  0  0
   47.4258   26.9922   34.2018 H   0  0  0  0  0  0  0  0  0  0  0  0
   47.7346   27.3370   37.5052 H   0  0  0  0  0  0  0  0  0  0  0  0
   46.9686   25.6753   38.0034 H   0  0  0  0  0  0  0  0  0  0  0  0
   47.8790   23.8639   37.9950 H   0  0  0  0  0  0  0  0  0  0  0  0
   49.8699   22.1116   39.6170 H   0  0  0  0  0  0  0  0  0  0  0  0
   48.9436   21.7173   38.1293 H   0  0  0  0  0  0  0  0  0  0  0  0
   50.7359   21.5984   38.1293 H   0  0  0  0  0  0  0  0  0  0  0  0
   52.1257   25.8735   37.3806 H   0  0  0  0  0  0  0  0  0  0  0  0
  1  2  2  0
  2  3  1  0
  4  3  2  0
  5  1  1  0
  5  4  1  0
  6  1  1  0
  6  7  1  0
  8  9  2  0
  8 13  1  0
  9 10  1  0
 10  7  1  0
 10 11  2  0
 12 11  1  0
 13 12  2  0
 14 15  2  0
 14  8  1  0
 16 15  1  0
 17 18  1  0
 17 16  2  0
 18 14  1  0
 19  4  1  0
 19 21  1  0
 20 19  1  0
 21 22  1  0
 22 23  1  0
 23 24  2  0
 24 25  1  0
 26 24  1  0
 26 27  2  0
 28 26  1  0
 29 22  1  0
 29 28  1  0
 30 29  2  0
  2 31  1  0
  3 32  1  0
  6 33  1  0
  6 34  1  0
  7 35  1  0
  7 36  1  0
  9 37  1  0
 12 38  1  0
 15 39  1  0
 16 40  1  0
 17 41  1  0
 19 42  1  6
 20 43  1  0
 20 44  1  0
 20 45  1  0
 21 46  1  0
 21 47  1  0
 23 48  1  0
 25 49  1  0
 25 50  1  0
 25 51  1  0
 28 52  1  0
M  ISO  8  31  14  32  14  33   8  34   8  35   8  36   8  37  14  38  14
M  ISO  8  39  14  40  14  41  14  42   8  43   8  44   8  45   8  46   8
M  ISO  6  47   8  48  14  49   8  50   8  51   8  52   9
M  END
>  <minimizedAffinity>  (1) 
-5.14080715

>  <minimizedRMSD>  (1) 
2.35294461

$$$$
