
     RDKit          3D

 41 43  0  0  1  0  0  0  0  0999 V2000
   42.4710   23.1160   35.9990 C   0  0  0  0  0  0  0  0  0  0  0  0
   43.7400   23.7690   36.4800 C   0  0  0  0  0  0  0  0  0  0  0  0
   43.8210   24.8470   37.2570 C   0  0  0  0  0  0  0  0  0  0  0  0
   45.0080   25.3640   37.6350 C   0  0  0  0  0  0  0  0  0  0  0  0
   46.1790   24.6670   37.1380 C   0  0  0  0  0  0  0  0  0  0  0  0
   45.4290   23.2800   36.1360 S   0  0  0  0  0  0  0  0  0  0  0  0
   47.5990   24.8750   37.3080 C   0  0  1  0  0  0  0  0  0  0  0  0
   47.9670   26.3290   37.2840 C   0  0  0  0  0  0  0  0  0  0  0  0
   48.1480   24.2210   38.5990 C   0  0  0  0  0  0  0  0  0  0  0  0
   49.5800   24.4580   38.5770 N   0  0  0  0  0  0  0  0  0  0  0  0
   41.7220   22.4820   37.1350 C   0  0  0  0  0  0  0  0  0  0  0  0
   38.1700   22.2580   35.9500 C   0  0  0  0  0  0  0  0  0  0  0  0
   39.5470   22.1220   35.9920 C   0  0  0  0  0  0  0  0  0  0  0  0
   40.2700   22.6030   37.0480 C   0  0  0  0  0  0  0  0  0  0  0  0
   39.5900   23.2150   38.0460 N   0  0  0  0  0  0  0  0  0  0  0  0
   38.2490   23.3510   38.0120 C   0  0  0  0  0  0  0  0  0  0  0  0
   37.5180   22.8830   36.9790 N   0  0  0  0  0  0  0  0  0  0  0  0
   37.3110   21.7900   34.8910 C   0  0  0  0  0  0  0  0  0  0  0  0
   36.2050   20.9690   35.1690 C   0  0  0  0  0  0  0  0  0  0  0  0
   35.5700   20.6800   33.9670 C   0  0  0  0  0  0  0  0  0  0  0  0
   36.3220   21.3380   33.0400 C   0  0  0  0  0  0  0  0  0  0  0  0
   37.3380   21.9810   33.6170 O   0  0  0  0  0  0  0  0  0  0  0  0
   41.8317   23.8775   35.5285 H   0  0  0  0  0  0  0  0  0  0  0  0
   42.7360   22.3309   35.2755 H   0  0  0  0  0  0  0  0  0  0  0  0
   42.8940   25.3295   37.6003 H   0  0  0  0  0  0  0  0  0  0  0  0
   45.0830   26.2542   38.2769 H   0  0  0  0  0  0  0  0  0  0  0  0
   48.0697   24.3793   36.4462 H   0  0  0  0  0  0  0  0  0  0  0  0
   48.0610   26.7005   38.3151 H   0  0  0  0  0  0  0  0  0  0  0  0
   48.9256   26.4560   36.7597 H   0  0  0  0  0  0  0  0  0  0  0  0
   47.1842   26.8967   36.7597 H   0  0  0  0  0  0  0  0  0  0  0  0
   47.6953   24.6856   39.4874 H   0  0  0  0  0  0  0  0  0  0  0  0
   47.9134   23.1472   38.6433 H   0  0  0  0  0  0  0  0  0  0  0  0
   49.9332   24.5165   39.5428 H   0  0  0  0  0  0  0  0  0  0  0  0
   50.0487   23.6831   38.0863 H   0  0  0  0  0  0  0  0  0  0  0  0
   41.9763   21.4121   37.1590 H   0  0  0  0  0  0  0  0  0  0  0  0
   42.0255   23.0181   38.0463 H   0  0  0  0  0  0  0  0  0  0  0  0
   40.0673   21.6194   35.1633 H   0  0  0  0  0  0  0  0  0  0  0  0
   37.7390   23.8553   38.8460 H   0  0  0  0  0  0  0  0  0  0  0  0
   35.8958   20.6166   36.1641 H   0  0  0  0  0  0  0  0  0  0  0  0
   34.6726   20.0655   33.8026 H   0  0  0  0  0  0  0  0  0  0  0  0
   36.1179   21.3386   31.9591 H   0  0  0  0  0  0  0  0  0  0  0  0
  1  2  1  0
  1 11  1  0
  2  3  2  0
  3  4  1  0
  5  7  1  0
  5  4  2  0
  6  2  1  0
  6  5  1  0
  7  9  1  0
  8  7  1  0
 10  9  1  0
 12 13  2  0
 12 17  1  0
 13 14  1  0
 14 11  1  0
 14 15  2  0
 16 15  1  0
 17 16  2  0
 18 19  2  0
 18 12  1  0
 20 19  1  0
 21 22  1  0
 21 20  2  0
 22 18  1  0
  1 23  1  0
  1 24  1  0
  3 25  1  0
  4 26  1  0
  7 27  1  6
  8 28  1  0
  8 29  1  0
  8 30  1  0
  9 31  1  0
  9 32  1  0
 10 33  1  0
 10 34  1  0
 11 35  1  0
 11 36  1  0
 13 37  1  0
 16 38  1  0
 19 39  1  0
 20 40  1  0
 21 41  1  0
M  ISO  8  23   8  24   8  25  14  26  14  27   8  28   8  29   8  30   8
M  ISO  8  31   8  32   8  33   5  34   5  35   8  36   8  37  14  38  14
M  ISO  3  39  14  40  14  41  14
M  END
>  <minimizedAffinity>  (1) 
-4.91227484

>  <minimizedRMSD>  (1) 
0.0329383798

$$$$
