
     RDKit          3D

 40 42  0  0  1  0  0  0  0  0999 V2000
   42.3590   22.9460   36.0280 C   0  0  0  0  0  0  0  0  0  0  0  0
   43.6480   23.6400   36.4050 C   0  0  0  0  0  0  0  0  0  0  0  0
   43.7730   24.7430   37.1470 C   0  0  0  0  0  0  0  0  0  0  0  0
   44.9780   25.2620   37.4160 C   0  0  0  0  0  0  0  0  0  0  0  0
   46.1140   24.5860   36.8740 C   0  0  0  0  0  0  0  0  0  0  0  0
   45.3280   23.1570   35.9580 S   0  0  0  0  0  0  0  0  0  0  0  0
   47.5470   24.8160   36.9360 C   0  0  1  0  0  0  0  0  0  0  0  0
   47.8780   26.2200   37.3510 C   0  0  0  0  0  0  0  0  0  0  0  0
   48.2690   23.8090   37.8620 C   0  0  0  0  0  0  0  0  0  0  0  0
   47.9680   24.2250   39.1710 O   0  0  0  0  0  0  0  0  0  0  0  0
   41.6070   22.5330   37.2800 C   0  0  0  0  0  0  0  0  0  0  0  0
   38.0790   22.2790   36.0020 C   0  0  0  0  0  0  0  0  0  0  0  0
   39.4590   22.1500   36.0760 C   0  0  0  0  0  0  0  0  0  0  0  0
   40.1470   22.6470   37.1590 C   0  0  0  0  0  0  0  0  0  0  0  0
   39.4350   23.2540   38.1310 N   0  0  0  0  0  0  0  0  0  0  0  0
   38.0960   23.3770   38.0540 C   0  0  0  0  0  0  0  0  0  0  0  0
   37.3940   22.9030   37.0090 N   0  0  0  0  0  0  0  0  0  0  0  0
   37.2660   21.7940   34.9120 C   0  0  0  0  0  0  0  0  0  0  0  0
   36.1530   20.9580   35.1790 C   0  0  0  0  0  0  0  0  0  0  0  0
   35.5610   20.6460   33.9610 C   0  0  0  0  0  0  0  0  0  0  0  0
   36.3290   21.2950   33.0550 C   0  0  0  0  0  0  0  0  0  0  0  0
   37.3290   21.9650   33.6390 O   0  0  0  0  0  0  0  0  0  0  0  0
   41.7345   23.6328   35.4378 H   0  0  0  0  0  0  0  0  0  0  0  0
   42.5915   22.0498   35.4340 H   0  0  0  0  0  0  0  0  0  0  0  0
   42.8718   25.2333   37.5437 H   0  0  0  0  0  0  0  0  0  0  0  0
   45.0883   26.1695   38.0278 H   0  0  0  0  0  0  0  0  0  0  0  0
   47.9153   24.6608   35.9112 H   0  0  0  0  0  0  0  0  0  0  0  0
   47.8931   26.2839   38.4490 H   0  0  0  0  0  0  0  0  0  0  0  0
   48.8659   26.4964   36.9540 H   0  0  0  0  0  0  0  0  0  0  0  0
   47.1176   26.9086   36.9540 H   0  0  0  0  0  0  0  0  0  0  0  0
   47.8962   22.7891   37.6868 H   0  0  0  0  0  0  0  0  0  0  0  0
   49.3533   23.7881   37.6780 H   0  0  0  0  0  0  0  0  0  0  0  0
   48.4067   23.6187   39.8191 H   0  0  0  0  0  0  0  0  0  0  0  0
   41.8557   21.4852   37.5043 H   0  0  0  0  0  0  0  0  0  0  0  0
   41.9169   23.2199   38.0814 H   0  0  0  0  0  0  0  0  0  0  0  0
   40.0057   21.6477   35.2643 H   0  0  0  0  0  0  0  0  0  0  0  0
   37.5595   23.8810   38.8714 H   0  0  0  0  0  0  0  0  0  0  0  0
   35.8186   20.6179   36.1702 H   0  0  0  0  0  0  0  0  0  0  0  0
   34.6762   20.0190   33.7766 H   0  0  0  0  0  0  0  0  0  0  0  0
   36.1523   21.2741   31.9695 H   0  0  0  0  0  0  0  0  0  0  0  0
  1  2  1  0
  1 11  1  0
  2  3  2  0
  3  4  1  0
  5  7  1  0
  5  4  2  0
  6  2  1  0
  6  5  1  0
  7  8  1  0
  7  9  1  0
  9 10  1  0
 12 13  2  0
 12 17  1  0
 13 14  1  0
 14 11  1  0
 14 15  2  0
 16 15  1  0
 17 16  2  0
 18 19  2  0
 18 12  1  0
 20 19  1  0
 21 22  1  0
 21 20  2  0
 22 18  1  0
  1 23  1  0
  1 24  1  0
  3 25  1  0
  4 26  1  0
  7 27  1  6
  8 28  1  0
  8 29  1  0
  8 30  1  0
  9 31  1  0
  9 32  1  0
 10 33  1  0
 11 34  1  0
 11 35  1  0
 13 36  1  0
 16 37  1  0
 19 38  1  0
 20 39  1  0
 21 40  1  0
M  ISO  8  23   8  24   8  25  14  26  14  27   8  28   8  29   8  30   8
M  ISO  8  31   8  32   8  33   3  34   8  35   8  36  14  37  14  38  14
M  ISO  2  39  14  40  14
M  END
>  <minimizedAffinity>  (1) 
-4.96637297

>  <minimizedRMSD>  (1) 
0.34323293

$$$$
