
     RDKit          3D

 40 41  0  0  1  0  0  0  0  0999 V2000
   37.9460   24.8380   35.7950 C   0  0  0  0  0  0  0  0  0  0  0  0
   39.1630   24.2980   36.3490 N   0  0  0  0  0  0  0  0  0  0  0  0
   39.8670   23.5360   35.2970 C   0  0  0  0  0  0  0  0  0  0  0  0
   40.9000   22.7880   36.1030 C   0  0  0  0  0  0  0  0  0  0  0  0
   40.3060   22.6660   37.5080 C   0  0  0  0  0  0  0  0  0  0  0  0
   38.9030   23.2210   37.2600 C   0  0  1  0  0  0  0  0  0  0  0  0
   38.3760   23.6570   38.5930 C   0  0  0  0  0  0  0  0  0  0  0  0
   39.2880   23.7500   39.5890 F   0  0  0  0  0  0  0  0  0  0  0  0
   37.3010   22.8470   38.9200 F   0  0  0  0  0  0  0  0  0  0  0  0
   37.8310   24.9450   38.4510 F   0  0  0  0  0  0  0  0  0  0  0  0
   38.0670   26.2640   35.4230 C   0  0  0  0  0  0  0  0  0  0  0  0
   36.7080   25.5330   32.0080 C   0  0  0  0  0  0  0  0  0  0  0  0
   37.3400   25.4310   33.2570 C   0  0  0  0  0  0  0  0  0  0  0  0
   37.3830   26.4780   34.1230 C   0  0  0  0  0  0  0  0  0  0  0  0
   36.7870   27.6520   33.7460 N   0  0  0  0  0  0  0  0  0  0  0  0
   36.1810   27.7510   32.5470 C   0  0  0  0  0  0  0  0  0  0  0  0
   36.1360   26.7360   31.7050 N   0  0  0  0  0  0  0  0  0  0  0  0
   35.5450   29.0460   32.1750 C   0  0  0  0  0  0  0  0  0  0  0  0
   36.2400   29.6270   30.9410 C   0  0  0  0  0  0  0  0  0  0  0  0
   35.6200   30.0720   33.2590 C   0  0  0  0  0  0  0  0  0  0  0  0
   37.6836   24.2616   34.8956 H   0  0  0  0  0  0  0  0  0  0  0  0
   37.1687   24.7635   36.5698 H   0  0  0  0  0  0  0  0  0  0  0  0
   40.3387   24.2064   34.5635 H   0  0  0  0  0  0  0  0  0  0  0  0
   39.2100   22.8869   34.6995 H   0  0  0  0  0  0  0  0  0  0  0  0
   41.0774   21.7916   35.6720 H   0  0  0  0  0  0  0  0  0  0  0  0
   41.8690   23.3086   36.1114 H   0  0  0  0  0  0  0  0  0  0  0  0
   40.2759   21.6202   37.8478 H   0  0  0  0  0  0  0  0  0  0  0  0
   40.8739   23.1841   38.2948 H   0  0  0  0  0  0  0  0  0  0  0  0
   38.1505   22.5372   36.8402 H   0  0  0  0  0  0  0  0  0  0  0  0
   37.5962   26.8891   36.1960 H   0  0  0  0  0  0  0  0  0  0  0  0
   39.1285   26.5395   35.3371 H   0  0  0  0  0  0  0  0  0  0  0  0
   36.6749   24.6857   31.3073 H   0  0  0  0  0  0  0  0  0  0  0  0
   37.8126   24.4796   33.5424 H   0  0  0  0  0  0  0  0  0  0  0  0
   34.4854   28.8219   31.9828 H   0  0  0  0  0  0  0  0  0  0  0  0
   37.0479   30.3024   31.2591 H   0  0  0  0  0  0  0  0  0  0  0  0
   36.6618   28.8090   30.3386 H   0  0  0  0  0  0  0  0  0  0  0  0
   35.5097   30.1871   30.3386 H   0  0  0  0  0  0  0  0  0  0  0  0
   35.5836   29.5735   34.2389 H   0  0  0  0  0  0  0  0  0  0  0  0
   36.5616   30.6334   33.1680 H   0  0  0  0  0  0  0  0  0  0  0  0
   34.7701   30.7643   33.1680 H   0  0  0  0  0  0  0  0  0  0  0  0
  1  2  1  0
  2  6  1  0
  3  4  1  0
  3  2  1  0
  4  5  1  0
  6  5  1  0
  6  7  1  0
  7  9  1  0
  7  8  1  0
 10  7  1  0
 11  1  1  0
 12 13  2  0
 13 14  1  0
 14 11  1  0
 15 14  2  0
 16 15  1  0
 17 12  1  0
 17 16  2  0
 18 16  1  0
 18 20  1  0
 19 18  1  0
  1 21  1  0
  1 22  1  0
  3 23  1  0
  3 24  1  0
  4 25  1  0
  4 26  1  0
  5 27  1  0
  5 28  1  0
  6 29  1  6
 11 30  1  0
 11 31  1  0
 12 32  1  0
 13 33  1  0
 18 34  1  0
 19 35  1  0
 19 36  1  0
 19 37  1  0
 20 38  1  0
 20 39  1  0
 20 40  1  0
M  ISO  8  21   8  22   8  23  13  24  13  25  13  26  13  27  13  28  13
M  ISO  8  29  13  30   8  31   8  32  14  33  14  34   8  35   8  36   8
M  ISO  4  37   8  38   8  39   8  40   8
M  END
>  <minimizedAffinity>  (1) 
-5.31287718

>  <minimizedRMSD>  (1) 
1.91507101

$$$$
