
     RDKit          3D

 26 28  0  0  0  0  0  0  0  0999 V2000
   39.6030   22.1040   34.1080 C   0  0  0  0  0  0  0  0  0  0  0  0
   40.9330   21.7670   33.9960 C   0  0  0  0  0  0  0  0  0  0  0  0
   41.0520   20.9540   32.9100 N   0  0  0  0  0  0  0  0  0  0  0  0
   39.8300   20.7810   32.3490 C   0  0  0  0  0  0  0  0  0  0  0  0
   38.9730   21.4940   33.1000 N   0  0  0  0  0  0  0  0  0  0  0  0
   38.1930   23.2820   37.2870 C   0  0  0  0  0  0  0  0  0  0  0  0
   37.8550   24.6070   36.9900 C   0  0  0  0  0  0  0  0  0  0  0  0
   38.1140   25.0760   35.7130 C   0  0  0  0  0  0  0  0  0  0  0  0
   38.6850   24.2370   34.7960 N   0  0  0  0  0  0  0  0  0  0  0  0
   39.0010   22.9530   35.1150 C   0  0  0  0  0  0  0  0  0  0  0  0
   38.7520   22.4920   36.3550 N   0  0  0  0  0  0  0  0  0  0  0  0
   37.5930   21.5130   32.7610 C   0  0  0  0  0  0  0  0  0  0  0  0
   37.1060   22.2400   31.6830 C   0  0  0  0  0  0  0  0  0  0  0  0
   35.7460   22.2070   31.4160 C   0  0  0  0  0  0  0  0  0  0  0  0
   34.8970   21.4540   32.2260 C   0  0  0  0  0  0  0  0  0  0  0  0
   35.4440   20.7420   33.2970 C   0  0  0  0  0  0  0  0  0  0  0  0
   36.7670   20.7770   33.5510 N   0  0  0  0  0  0  0  0  0  0  0  0
   41.7473   22.0934   34.6596 H   0  0  0  0  0  0  0  0  0  0  0  0
   39.5889   20.1795   31.4601 H   0  0  0  0  0  0  0  0  0  0  0  0
   37.9991   22.8832   38.2936 H   0  0  0  0  0  0  0  0  0  0  0  0
   37.3966   25.2576   37.7493 H   0  0  0  0  0  0  0  0  0  0  0  0
   37.8634   26.1115   35.4392 H   0  0  0  0  0  0  0  0  0  0  0  0
   37.7866   22.8311   31.0526 H   0  0  0  0  0  0  0  0  0  0  0  0
   35.3374   22.7740   30.5665 H   0  0  0  0  0  0  0  0  0  0  0  0
   33.8159   21.4209   32.0257 H   0  0  0  0  0  0  0  0  0  0  0  0
   34.7844   20.1437   33.9427 H   0  0  0  0  0  0  0  0  0  0  0  0
  1 10  1  0
  2  1  2  0
  3  2  1  0
  4  3  2  0
  4  5  1  0
  5  1  1  0
  7  6  2  0
  8  7  1  0
  9 10  1  0
  9  8  2  0
 10 11  2  0
 11  6  1  0
 12  5  1  0
 12 17  1  0
 13 12  2  0
 14 13  1  0
 14 15  2  0
 15 16  1  0
 16 17  2  0
  2 18  1  0
  4 19  1  0
  6 20  1  0
  7 21  1  0
  8 22  1  0
 13 23  1  0
 14 24  1  0
 15 25  1  0
 16 26  1  0
M  ISO  8  18  14  19  14  20  14  21  14  22  14  23  14  24  14  25  14
M  ISO  1  26  14
M  END
>  <minimizedAffinity>  (1) 
-3.881814

>  <minimizedRMSD>  (1) 
3.02041197

$$$$
