
     RDKit          3D

 24 26  0  0  0  0  0  0  0  0999 V2000
   38.3840   23.1540   36.4140 C   0  0  0  0  0  0  0  0  0  0  0  0
   37.3070   23.3800   37.2330 C   0  0  0  0  0  0  0  0  0  0  0  0
   37.7720   23.4670   38.5040 N   0  0  0  0  0  0  0  0  0  0  0  0
   39.1090   23.3010   38.4970 C   0  0  0  0  0  0  0  0  0  0  0  0
   39.4690   23.1110   37.2210 N   0  0  0  0  0  0  0  0  0  0  0  0
   38.3180   21.6630   33.0690 C   0  0  0  0  0  0  0  0  0  0  0  0
   38.3350   22.7880   32.2370 C   0  0  0  0  0  0  0  0  0  0  0  0
   38.3690   24.0360   32.8320 C   0  0  0  0  0  0  0  0  0  0  0  0
   38.3840   24.1170   34.2000 N   0  0  0  0  0  0  0  0  0  0  0  0
   38.3670   22.9930   34.9730 C   0  0  0  0  0  0  0  0  0  0  0  0
   38.3340   21.7650   34.4170 N   0  0  0  0  0  0  0  0  0  0  0  0
   40.8020   22.8860   36.6810 C   0  0  0  0  0  0  0  0  0  0  0  0
   41.6030   23.5880   35.8910 C   0  0  0  0  0  0  0  0  0  0  0  0
   42.8260   23.1300   35.5350 C   0  0  0  0  0  0  0  0  0  0  0  0
   43.1660   21.8460   36.0770 C   0  0  0  0  0  0  0  0  0  0  0  0
   41.6140   21.4240   37.0860 S   0  0  0  0  0  0  0  0  0  0  0  0
   36.2577   23.4736   36.9166 H   0  0  0  0  0  0  0  0  0  0  0  0
   39.7765   23.3182   39.3711 H   0  0  0  0  0  0  0  0  0  0  0  0
   38.2907   20.6631   32.6113 H   0  0  0  0  0  0  0  0  0  0  0  0
   38.3217   22.6828   31.1421 H   0  0  0  0  0  0  0  0  0  0  0  0
   38.3838   24.9483   32.2176 H   0  0  0  0  0  0  0  0  0  0  0  0
   41.2656   24.5656   35.5161 H   0  0  0  0  0  0  0  0  0  0  0  0
   43.5053   23.6974   34.8819 H   0  0  0  0  0  0  0  0  0  0  0  0
   44.0864   21.2587   35.9429 H   0  0  0  0  0  0  0  0  0  0  0  0
  1  5  1  0
  1  2  2  0
  2  3  1  0
  4  3  2  0
  5  4  1  0
  6 11  2  0
  7  8  2  0
  7  6  1  0
  8  9  1  0
  9 10  2  0
 10  1  1  0
 11 10  1  0
 12 16  1  0
 12  5  1  0
 13 12  2  0
 14 13  1  0
 14 15  2  0
 15 16  1  0
  2 17  1  0
  4 18  1  0
  6 19  1  0
  7 20  1  0
  8 21  1  0
 13 22  1  0
 14 23  1  0
 15 24  1  0
M  ISO  8  17  14  18  14  19  14  20  14  21  14  22  14  23  14  24  14
M  END
>  <minimizedAffinity>  (1) 
-3.82114887

>  <minimizedRMSD>  (1) 
5.69421005

$$$$
