
     RDKit          3D

 37 41  0  0  0  0  0  0  0  0999 V2000
   38.9430   23.4100   31.8500 C   0  0  0  0  0  0  0  0  0  0  0  0
   39.6850   23.7230   30.7300 C   0  0  0  0  0  0  0  0  0  0  0  0
   41.3670   23.9170   31.4430 S   0  0  0  0  0  0  0  0  0  0  0  0
   40.7200   23.5240   33.1810 C   0  0  0  0  0  0  0  0  0  0  0  0
   39.6280   23.3590   32.9570 N   0  0  0  0  0  0  0  0  0  0  0  0
   41.5660   23.4950   34.3380 N   0  0  0  0  0  0  0  0  0  0  0  0
   41.6860   22.5420   35.2900 C   0  0  0  0  0  0  0  0  0  0  0  0
   42.6010   22.9190   36.2010 N   0  0  0  0  0  0  0  0  0  0  0  0
   43.0440   24.1230   35.7940 C   0  0  0  0  0  0  0  0  0  0  0  0
   43.9820   24.9190   36.3890 C   0  0  0  0  0  0  0  0  0  0  0  0
   44.5590   24.5700   37.4500 O   0  0  0  0  0  0  0  0  0  0  0  0
   44.3150   26.1170   35.8380 N   0  0  0  0  0  0  0  0  0  0  0  0
   43.6620   26.4350   34.7020 C   0  0  0  0  0  0  0  0  0  0  0  0
   43.9670   27.6760   34.0780 N   0  0  0  0  0  0  0  0  0  0  0  0
   42.7300   25.6810   34.0800 N   0  0  0  0  0  0  0  0  0  0  0  0
   42.3970   24.4890   34.6240 C   0  0  0  0  0  0  0  0  0  0  0  0
   36.5360   24.0680   31.7580 C   0  0  0  0  0  0  0  0  0  0  0  0
   35.4040   23.3440   31.5220 C   0  0  0  0  0  0  0  0  0  0  0  0
   35.7410   22.0530   31.3110 N   0  0  0  0  0  0  0  0  0  0  0  0
   37.0850   21.9510   31.4120 C   0  0  0  0  0  0  0  0  0  0  0  0
   37.5390   23.1790   31.6820 N   0  0  0  0  0  0  0  0  0  0  0  0
   36.4950   27.7120   31.3190 C   0  0  0  0  0  0  0  0  0  0  0  0
   36.8700   28.1590   32.5860 C   0  0  0  0  0  0  0  0  0  0  0  0
   37.1330   27.2120   33.5750 C   0  0  0  0  0  0  0  0  0  0  0  0
   37.0110   25.8910   33.2580 N   0  0  0  0  0  0  0  0  0  0  0  0
   36.6480   25.4810   32.0320 C   0  0  0  0  0  0  0  0  0  0  0  0
   36.3930   26.3880   31.0690 N   0  0  0  0  0  0  0  0  0  0  0  0
   39.3563   23.8286   29.6856 H   0  0  0  0  0  0  0  0  0  0  0  0
   41.1198   21.5992   35.3155 H   0  0  0  0  0  0  0  0  0  0  0  0
   45.0187   26.7395   36.2601 H   0  0  0  0  0  0  0  0  0  0  0  0
   43.4852   27.9477   33.2091 H   0  0  0  0  0  0  0  0  0  0  0  0
   44.6697   28.3031   34.4950 H   0  0  0  0  0  0  0  0  0  0  0  0
   34.3806   23.7470   31.5061 H   0  0  0  0  0  0  0  0  0  0  0  0
   37.6866   21.0376   31.2951 H   0  0  0  0  0  0  0  0  0  0  0  0
   36.2818   28.4390   30.5215 H   0  0  0  0  0  0  0  0  0  0  0  0
   36.9563   29.2345   32.8001 H   0  0  0  0  0  0  0  0  0  0  0  0
   37.4318   27.5229   34.5870 H   0  0  0  0  0  0  0  0  0  0  0  0
  1  5  1  0
  2  3  1  0
  2  1  2  0
  3  4  1  0
  4  6  1  0
  5  4  2  0
  6 16  1  0
  6  7  1  0
  7  8  2  0
  9  8  1  0
  9 10  1  0
 10 11  2  0
 12 10  1  0
 13 12  1  0
 14 13  1  0
 15 16  1  0
 15 13  2  0
 16  9  2  0
 17 26  1  0
 18 17  2  0
 19 20  2  0
 19 18  1  0
 20 21  1  0
 21 17  1  0
 21  1  1  0
 22 23  2  0
 23 24  1  0
 25 24  2  0
 26 25  1  0
 27 22  1  0
 27 26  2  0
  2 28  1  0
  7 29  1  0
 12 30  1  0
 14 31  1  0
 14 32  1  0
 18 33  1  0
 20 34  1  0
 22 35  1  0
 23 36  1  0
 24 37  1  0
M  ISO  8  28  14  29  14  30   9  33  14  34  14  35  14  36  14  37  14
M  END
>  <minimizedAffinity>  (1) 
-5.41853142

>  <minimizedRMSD>  (1) 
4.65368891

$$$$
