
     RDKit          3D

 33 36  0  0  0  0  0  0  0  0999 V2000
   39.9750   23.6290   34.3520 C   0  0  0  0  0  0  0  0  0  0  0  0
   39.3040   22.5400   33.8770 C   0  0  0  0  0  0  0  0  0  0  0  0
   40.2050   21.6500   33.4060 N   0  0  0  0  0  0  0  0  0  0  0  0
   41.4450   22.1630   33.5760 C   0  0  0  0  0  0  0  0  0  0  0  0
   41.2780   23.3650   34.1530 N   0  0  0  0  0  0  0  0  0  0  0  0
   39.0320   27.1270   34.9000 C   0  0  0  0  0  0  0  0  0  0  0  0
   38.3310   27.0530   36.1200 C   0  0  0  0  0  0  0  0  0  0  0  0
   38.1950   25.8040   36.7330 C   0  0  0  0  0  0  0  0  0  0  0  0
   38.7460   24.7140   36.1230 N   0  0  0  0  0  0  0  0  0  0  0  0
   39.4140   24.8250   34.9480 C   0  0  0  0  0  0  0  0  0  0  0  0
   39.5520   26.0140   34.3510 N   0  0  0  0  0  0  0  0  0  0  0  0
   42.4100   24.1740   34.4700 C   0  0  0  0  0  0  0  0  0  0  0  0
   42.8280   25.1070   33.5310 C   0  0  0  0  0  0  0  0  0  0  0  0
   44.2630   25.8490   34.4070 S   0  0  0  0  0  0  0  0  0  0  0  0
   44.0100   24.7230   35.9070 C   0  0  0  0  0  0  0  0  0  0  0  0
   43.1220   24.1490   35.5590 N   0  0  0  0  0  0  0  0  0  0  0  0
   44.9610   24.8900   37.0280 C   0  0  0  0  0  0  0  0  0  0  0  0
   44.6960   25.6340   38.1540 C   0  0  0  0  0  0  0  0  0  0  0  0
   45.7040   25.6770   39.0980 C   0  0  0  0  0  0  0  0  0  0  0  0
   46.9010   25.0050   38.9060 C   0  0  0  0  0  0  0  0  0  0  0  0
   47.1370   24.2570   37.7490 C   0  0  0  0  0  0  0  0  0  0  0  0
   46.1160   24.2170   36.7990 C   0  0  0  0  0  0  0  0  0  0  0  0
   38.2119   22.4086   33.8774 H   0  0  0  0  0  0  0  0  0  0  0  0
   42.3988   21.6909   33.2977 H   0  0  0  0  0  0  0  0  0  0  0  0
   39.1544   28.0967   34.3953 H   0  0  0  0  0  0  0  0  0  0  0  0
   37.9014   27.9557   36.5788 H   0  0  0  0  0  0  0  0  0  0  0  0
   37.6557   25.7017   37.6862 H   0  0  0  0  0  0  0  0  0  0  0  0
   42.4149   25.3381   32.5381 H   0  0  0  0  0  0  0  0  0  0  0  0
   43.7412   26.1619   38.2943 H   0  0  0  0  0  0  0  0  0  0  0  0
   45.5535   26.2564   40.0208 H   0  0  0  0  0  0  0  0  0  0  0  0
   47.6809   25.0615   39.6797 H   0  0  0  0  0  0  0  0  0  0  0  0
   48.0863   23.7232   37.5943 H   0  0  0  0  0  0  0  0  0  0  0  0
   46.2470   23.6430   35.8698 H   0  0  0  0  0  0  0  0  0  0  0  0
  1 10  1  0
  2  1  2  0
  3  4  2  0
  3  2  1  0
  4  5  1  0
  5  1  1  0
  5 12  1  0
  6  7  2  0
  7  8  1  0
  9  8  2  0
 10  9  1  0
 11  6  1  0
 11 10  2  0
 12 16  1  0
 13 14  1  0
 13 12  2  0
 14 15  1  0
 15 17  1  0
 16 15  2  0
 17 18  2  0
 18 19  1  0
 20 19  2  0
 21 20  1  0
 22 17  1  0
 22 21  2  0
  2 23  1  0
  4 24  1  0
  6 25  1  0
  7 26  1  0
  8 27  1  0
 13 28  1  0
 18 29  1  0
 19 30  1  0
 20 31  1  0
 21 32  1  0
 22 33  1  0
M  ISO  8  23  14  24  14  25  14  26  14  27  14  28  14  29  14  30  14
M  ISO  3  31  14  32  14  33  14
M  END
>  <minimizedAffinity>  (1) 
-5.11996651

>  <minimizedRMSD>  (1) 
4.08929968

$$$$
