
     RDKit          3D

 30 33  0  0  0  0  0  0  0  0999 V2000
   38.5400   24.3920   36.7560 C   0  0  0  0  0  0  0  0  0  0  0  0
   37.8720   24.0060   37.8850 C   0  0  0  0  0  0  0  0  0  0  0  0
   38.5810   23.0270   38.4820 N   0  0  0  0  0  0  0  0  0  0  0  0
   39.6880   22.7870   37.7450 C   0  0  0  0  0  0  0  0  0  0  0  0
   39.6390   23.6330   36.6990 N   0  0  0  0  0  0  0  0  0  0  0  0
   40.6720   23.6340   35.7220 C   0  0  0  0  0  0  0  0  0  0  0  0
   40.7290   22.5680   34.8350 C   0  0  0  0  0  0  0  0  0  0  0  0
   42.1830   23.0180   33.8110 S   0  0  0  0  0  0  0  0  0  0  0  0
   42.4450   24.6090   34.8060 C   0  0  0  0  0  0  0  0  0  0  0  0
   41.5960   24.5320   35.5480 N   0  0  0  0  0  0  0  0  0  0  0  0
   43.5010   25.5490   34.5390 N   0  0  0  0  0  0  0  0  0  0  0  0
   44.4700   25.9990   35.3220 N   0  0  0  0  0  0  0  0  0  0  0  0
   45.2420   26.8710   34.6670 C   0  0  0  0  0  0  0  0  0  0  0  0
   44.6910   26.9480   33.3930 C   0  0  0  0  0  0  0  0  0  0  0  0
   43.5820   26.1030   33.3220 C   0  0  0  0  0  0  0  0  0  0  0  0
   37.3570   26.0350   33.6900 C   0  0  0  0  0  0  0  0  0  0  0  0
   37.3980   27.3790   34.0510 C   0  0  0  0  0  0  0  0  0  0  0  0
   37.8300   27.7200   35.3350 C   0  0  0  0  0  0  0  0  0  0  0  0
   38.1930   26.7140   36.1900 N   0  0  0  0  0  0  0  0  0  0  0  0
   38.1410   25.4160   35.8090 C   0  0  0  0  0  0  0  0  0  0  0  0
   37.7280   25.0840   34.5740 N   0  0  0  0  0  0  0  0  0  0  0  0
   36.9196   24.4228   38.2444 H   0  0  0  0  0  0  0  0  0  0  0  0
   40.4735   22.0469   37.9577 H   0  0  0  0  0  0  0  0  0  0  0  0
   40.0751   21.6863   34.7646 H   0  0  0  0  0  0  0  0  0  0  0  0
   46.1206   27.4097   35.0515 H   0  0  0  0  0  0  0  0  0  0  0  0
   45.0687   27.5748   32.5718 H   0  0  0  0  0  0  0  0  0  0  0  0
   42.9219   25.9306   32.4591 H   0  0  0  0  0  0  0  0  0  0  0  0
   37.0217   25.7472   32.6826 H   0  0  0  0  0  0  0  0  0  0  0  0
   37.0953   28.1593   33.3372 H   0  0  0  0  0  0  0  0  0  0  0  0
   37.8774   28.7723   35.6518 H   0  0  0  0  0  0  0  0  0  0  0  0
  1  2  2  0
  2  3  1  0
  4  3  2  0
  5  1  1  0
  5  4  1  0
  6  5  1  0
  7  6  2  0
  8  9  1  0
  8  7  1  0
  9 10  2  0
 10  6  1  0
 11  9  1  0
 11 12  1  0
 13 12  2  0
 14 13  1  0
 15 14  2  0
 15 11  1  0
 16 17  2  0
 16 21  1  0
 17 18  1  0
 18 19  2  0
 20 19  1  0
 20  1  1  0
 21 20  2  0
  2 22  1  0
  4 23  1  0
  7 24  1  0
 13 25  1  0
 14 26  1  0
 15 27  1  0
 16 28  1  0
 17 29  1  0
 18 30  1  0
M  ISO  8  22  14  23  14  24  14  25  14  26  14  27  14  28  14  29  14
M  ISO  1  30  14
M  END
>  <minimizedAffinity>  (1) 
-4.60201836

>  <minimizedRMSD>  (1) 
1.63107824

$$$$
