
     RDKit          3D

 30 33  0  0  0  0  0  0  0  0999 V2000
   38.9330   24.2860   36.3720 C   0  0  0  0  0  0  0  0  0  0  0  0
   38.3600   23.5890   37.3960 C   0  0  0  0  0  0  0  0  0  0  0  0
   39.2200   22.6530   37.8220 N   0  0  0  0  0  0  0  0  0  0  0  0
   40.3520   22.7370   37.0800 C   0  0  0  0  0  0  0  0  0  0  0  0
   40.1490   23.7430   36.2020 N   0  0  0  0  0  0  0  0  0  0  0  0
   37.2780   26.1810   33.7050 C   0  0  0  0  0  0  0  0  0  0  0  0
   37.2920   27.4820   34.2170 C   0  0  0  0  0  0  0  0  0  0  0  0
   37.8710   27.6870   35.4700 C   0  0  0  0  0  0  0  0  0  0  0  0
   38.3920   26.6230   36.1360 N   0  0  0  0  0  0  0  0  0  0  0  0
   38.3650   25.3790   35.6220 C   0  0  0  0  0  0  0  0  0  0  0  0
   37.8110   25.1600   34.4120 N   0  0  0  0  0  0  0  0  0  0  0  0
   41.1660   24.0930   35.2640 C   0  0  0  0  0  0  0  0  0  0  0  0
   41.0910   23.5550   33.9880 C   0  0  0  0  0  0  0  0  0  0  0  0
   42.5830   24.3020   33.2190 S   0  0  0  0  0  0  0  0  0  0  0  0
   43.0260   25.2200   34.8160 C   0  0  0  0  0  0  0  0  0  0  0  0
   42.1830   24.8800   35.4640 N   0  0  0  0  0  0  0  0  0  0  0  0
   44.2330   26.0390   34.7560 C   0  0  0  0  0  0  0  0  0  0  0  0
   45.5510   25.7580   34.9480 C   0  0  0  0  0  0  0  0  0  0  0  0
   46.2040   26.9400   34.7540 N   0  0  0  0  0  0  0  0  0  0  0  0
   45.2970   27.8930   34.4540 C   0  0  0  0  0  0  0  0  0  0  0  0
   44.0560   27.3360   34.4530 N   0  0  0  0  0  0  0  0  0  0  0  0
   37.3547   23.7666   37.8057 H   0  0  0  0  0  0  0  0  0  0  0  0
   41.2527   22.1126   37.1741 H   0  0  0  0  0  0  0  0  0  0  0  0
   36.8298   25.9871   32.7194 H   0  0  0  0  0  0  0  0  0  0  0  0
   36.8595   28.3189   33.6491 H   0  0  0  0  0  0  0  0  0  0  0  0
   37.9052   28.6938   35.9117 H   0  0  0  0  0  0  0  0  0  0  0  0
   40.3454   22.8711   33.5563 H   0  0  0  0  0  0  0  0  0  0  0  0
   45.9950   24.7850   35.2049 H   0  0  0  0  0  0  0  0  0  0  0  0
   45.5242   28.9487   34.2443 H   0  0  0  0  0  0  0  0  0  0  0  0
   43.1630   27.8114   34.2595 H   0  0  0  0  0  0  0  0  0  0  0  0
  1  2  2  0
  2  3  1  0
  4  3  2  0
  5  1  1  0
  5  4  1  0
  6  7  2  0
  6 11  1  0
  7  8  1  0
  8  9  2  0
 10  9  1  0
 10  1  1  0
 11 10  2  0
 12 16  1  0
 12  5  1  0
 13 12  2  0
 14 13  1  0
 14 15  1  0
 15 16  2  0
 17 15  1  0
 17 18  2  0
 19 18  1  0
 20 19  2  0
 21 20  1  0
 21 17  1  0
  2 22  1  0
  4 23  1  0
  6 24  1  0
  7 25  1  0
  8 26  1  0
 13 27  1  0
 18 28  1  0
 20 29  1  0
 21 30  1  0
M  ISO  8  22  14  23  14  24  14  25  14  26  14  27  14  28  14  29  14
M  ISO  1  30   9
M  END
>  <minimizedAffinity>  (1) 
-4.60213041

>  <minimizedRMSD>  (1) 
1.48250258

$$$$
