
     RDKit          3D

 30 32  0  0  0  0  0  0  0  0999 V2000
   38.3690   24.7050   35.7100 C   0  0  0  0  0  0  0  0  0  0  0  0
   37.7510   23.9760   36.6890 C   0  0  0  0  0  0  0  0  0  0  0  0
   38.6490   23.1320   37.2360 N   0  0  0  0  0  0  0  0  0  0  0  0
   39.8400   23.3190   36.6110 C   0  0  0  0  0  0  0  0  0  0  0  0
   39.6360   24.2750   35.6960 N   0  0  0  0  0  0  0  0  0  0  0  0
   40.7010   24.7110   34.8600 C   0  0  0  0  0  0  0  0  0  0  0  0
   41.0960   23.8790   33.8220 C   0  0  0  0  0  0  0  0  0  0  0  0
   42.4530   24.8560   33.0620 S   0  0  0  0  0  0  0  0  0  0  0  0
   42.2190   26.2400   34.3270 C   0  0  0  0  0  0  0  0  0  0  0  0
   41.3810   25.8170   34.9290 N   0  0  0  0  0  0  0  0  0  0  0  0
   43.1270   27.3940   34.1830 N   0  0  0  0  0  0  0  0  0  0  0  0
   44.4730   27.3490   34.5590 C   0  0  0  0  0  0  0  0  0  0  0  0
   44.8350   26.4630   35.4190 N   0  0  0  0  0  0  0  0  0  0  0  0
   45.2750   28.3500   33.8940 N   0  0  0  0  0  0  0  0  0  0  0  0
   45.7980   26.3290   35.7760 H   0  0  0  0  0  0  0  0  0  0  0  0
   36.9410   26.4110   32.7990 C   0  0  0  0  0  0  0  0  0  0  0  0
   36.6610   27.6820   33.3140 C   0  0  0  0  0  0  0  0  0  0  0  0
   36.9650   27.9390   34.6540 C   0  0  0  0  0  0  0  0  0  0  0  0
   37.5200   26.9460   35.4010 N   0  0  0  0  0  0  0  0  0  0  0  0
   37.7800   25.7240   34.8720 C   0  0  0  0  0  0  0  0  0  0  0  0
   37.4940   25.4600   33.5830 N   0  0  0  0  0  0  0  0  0  0  0  0
   36.6944   24.0640   36.9819 H   0  0  0  0  0  0  0  0  0  0  0  0
   40.7831   22.7910   36.8154 H   0  0  0  0  0  0  0  0  0  0  0  0
   40.7008   22.8945   33.5312 H   0  0  0  0  0  0  0  0  0  0  0  0
   42.7537   28.2694   33.7890 H   0  0  0  0  0  0  0  0  0  0  0  0
   46.2840   28.4153   34.0902 H   0  0  0  0  0  0  0  0  0  0  0  0
   44.8377   28.9984   33.2237 H   0  0  0  0  0  0  0  0  0  0  0  0
   36.7090   26.1848   31.7478 H   0  0  0  0  0  0  0  0  0  0  0  0
   36.2123   28.4603   32.6792 H   0  0  0  0  0  0  0  0  0  0  0  0
   36.7595   28.9250   35.0962 H   0  0  0  0  0  0  0  0  0  0  0  0
  1  2  2  0
  2  3  1  0
  4  3  2  0
  5  1  1  0
  5  4  1  0
  6 10  1  0
  6  5  1  0
  7  6  2  0
  8  7  1  0
  8  9  1  0
  9 10  2  0
 11  9  1  0
 11 12  1  0
 12 13  2  0
 13 15  1  0
 14 12  1  0
 16 17  2  0
 16 21  1  0
 17 18  1  0
 18 19  2  0
 20 19  1  0
 20  1  1  0
 21 20  2  0
  2 22  1  0
  4 23  1  0
  7 24  1  0
 11 25  1  0
 14 26  1  0
 14 27  1  0
 16 28  1  0
 17 29  1  0
 18 30  1  0
M  ISO  6  22  14  23  14  24  14  28  14  29  14  30  14
M  END
>  <minimizedAffinity>  (1) 
-5.0541482

>  <minimizedRMSD>  (1) 
0.0955966413

$$$$
