
     RDKit          3D

 26 28  0  0  0  0  0  0  0  0999 V2000
   38.2290   24.5700   36.0420 C   0  0  0  0  0  0  0  0  0  0  0  0
   37.5280   24.0020   37.0700 C   0  0  0  0  0  0  0  0  0  0  0  0
   38.3310   23.1310   37.7080 N   0  0  0  0  0  0  0  0  0  0  0  0
   39.5460   23.1370   37.0970 C   0  0  0  0  0  0  0  0  0  0  0  0
   39.4450   24.0180   36.0960 N   0  0  0  0  0  0  0  0  0  0  0  0
   37.1050   26.1330   32.9220 C   0  0  0  0  0  0  0  0  0  0  0  0
   36.8670   27.4440   33.3220 C   0  0  0  0  0  0  0  0  0  0  0  0
   37.0930   27.7770   34.6450 C   0  0  0  0  0  0  0  0  0  0  0  0
   37.5360   26.8150   35.5050 N   0  0  0  0  0  0  0  0  0  0  0  0
   37.7600   25.5540   35.1010 C   0  0  0  0  0  0  0  0  0  0  0  0
   37.5440   25.2180   33.8090 N   0  0  0  0  0  0  0  0  0  0  0  0
   40.5730   24.2640   35.2430 C   0  0  0  0  0  0  0  0  0  0  0  0
   41.2470   23.1670   34.7300 C   0  0  0  0  0  0  0  0  0  0  0  0
   42.5600   23.9730   33.7380 S   0  0  0  0  0  0  0  0  0  0  0  0
   41.9220   25.7060   34.2270 C   0  0  0  0  0  0  0  0  0  0  0  0
   41.0530   25.4170   34.8820 N   0  0  0  0  0  0  0  0  0  0  0  0
   42.4370   27.0740   33.8390 C   0  0  0  0  0  0  0  0  0  0  0  0
   41.8760   27.7780   32.9670 O   0  0  0  0  0  0  0  0  0  0  0  0
   43.5730   27.5440   34.4870 O   0  0  0  0  0  0  0  0  0  0  0  0
   36.4822   24.2208   37.3316 H   0  0  0  0  0  0  0  0  0  0  0  0
   40.4291   22.5406   37.3698 H   0  0  0  0  0  0  0  0  0  0  0  0
   36.9338   25.8413   31.8753 H   0  0  0  0  0  0  0  0  0  0  0  0
   36.5082   28.1964   32.6043 H   0  0  0  0  0  0  0  0  0  0  0  0
   36.9180   28.8036   34.9992 H   0  0  0  0  0  0  0  0  0  0  0  0
   41.0467   22.0957   34.8790 H   0  0  0  0  0  0  0  0  0  0  0  0
   43.9396   28.4351   34.2596 H   0  0  0  0  0  0  0  0  0  0  0  0
  1  5  1  0
  1  2  2  0
  2  3  1  0
  4  3  2  0
  5  4  1  0
  6  7  2  0
  6 11  1  0
  7  8  1  0
  8  9  2  0
 10  9  1  0
 10  1  1  0
 11 10  2  0
 12  5  1  0
 13 12  2  0
 14 15  1  0
 14 13  1  0
 15 16  2  0
 16 12  1  0
 17 15  1  0
 17 19  1  0
 18 17  2  0
  2 20  1  0
  4 21  1  0
  6 22  1  0
  7 23  1  0
  8 24  1  0
 13 25  1  0
 19 26  1  0
M  ISO  7  20  14  21  14  22  14  23  14  24  14  25  14  26   3
M  END
>  <minimizedAffinity>  (1) 
-4.52949286

>  <minimizedRMSD>  (1) 
0.76803124

$$$$
