
     RDKit          3D

 25 27  0  0  0  0  0  0  0  0999 V2000
   38.5230   24.4380   36.8180 C   0  0  0  0  0  0  0  0  0  0  0  0
   37.8950   24.1300   37.9890 C   0  0  0  0  0  0  0  0  0  0  0  0
   38.5750   23.1370   38.5990 N   0  0  0  0  0  0  0  0  0  0  0  0
   39.6400   22.8080   37.8230 C   0  0  0  0  0  0  0  0  0  0  0  0
   39.5820   23.6090   36.7550 N   0  0  0  0  0  0  0  0  0  0  0  0
   37.3630   26.0000   33.7070 C   0  0  0  0  0  0  0  0  0  0  0  0
   37.4110   27.3670   34.0380 C   0  0  0  0  0  0  0  0  0  0  0  0
   37.8340   27.7290   35.3060 C   0  0  0  0  0  0  0  0  0  0  0  0
   38.1910   26.7480   36.1900 N   0  0  0  0  0  0  0  0  0  0  0  0
   38.1350   25.4440   35.8480 C   0  0  0  0  0  0  0  0  0  0  0  0
   37.7260   25.0680   34.6180 N   0  0  0  0  0  0  0  0  0  0  0  0
   40.5670   23.5210   35.7280 C   0  0  0  0  0  0  0  0  0  0  0  0
   40.5750   22.3820   34.9360 C   0  0  0  0  0  0  0  0  0  0  0  0
   41.9780   22.7300   33.8010 S   0  0  0  0  0  0  0  0  0  0  0  0
   42.2880   24.3970   34.6460 C   0  0  0  0  0  0  0  0  0  0  0  0
   41.4890   24.3870   35.4230 N   0  0  0  0  0  0  0  0  0  0  0  0
   43.4630   25.2090   34.0540 C   0  0  0  0  0  0  0  0  0  0  0  0
   43.8900   26.2030   34.6610 O   0  0  0  0  0  0  0  0  0  0  0  0
   36.9838   24.6120   38.3730 H   0  0  0  0  0  0  0  0  0  0  0  0
   40.3972   22.0379   38.0315 H   0  0  0  0  0  0  0  0  0  0  0  0
   37.0298   25.6888   32.7059 H   0  0  0  0  0  0  0  0  0  0  0  0
   37.1184   28.1325   33.3043 H   0  0  0  0  0  0  0  0  0  0  0  0
   37.8822   28.7885   35.5977 H   0  0  0  0  0  0  0  0  0  0  0  0
   39.9155   21.5025   34.9766 H   0  0  0  0  0  0  0  0  0  0  0  0
   43.9181   24.9068   33.0993 H   0  0  0  0  0  0  0  0  0  0  0  0
  1  2  2  0
  2  3  1  0
  4  3  2  0
  5  1  1  0
  5  4  1  0
  6  7  2  0
  6 11  1  0
  7  8  1  0
  8  9  2  0
 10  9  1  0
 10  1  1  0
 11 10  2  0
 12  5  1  0
 13 12  2  0
 14 15  1  0
 14 13  1  0
 15 16  2  0
 16 12  1  0
 17 15  1  0
 17 18  2  0
  2 19  1  0
  4 20  1  0
  6 21  1  0
  7 22  1  0
  8 23  1  0
 13 24  1  0
 17 25  1  0
M  ISO  7  19  14  20  14  21  14  22  14  23  14  24  14  25   6
M  END
>  <minimizedAffinity>  (1) 
-4.04279995

>  <minimizedRMSD>  (1) 
1.5149188

$$$$
