
     RDKit          3D

 36 39  0  0  0  0  0  0  0  0999 V2000
   40.4050   23.6530   34.2390 C   0  0  0  0  0  0  0  0  0  0  0  0
   39.8460   22.7480   33.3740 C   0  0  0  0  0  0  0  0  0  0  0  0
   40.7840   21.8520   33.0160 N   0  0  0  0  0  0  0  0  0  0  0  0
   41.9450   22.1780   33.6480 C   0  0  0  0  0  0  0  0  0  0  0  0
   41.6800   23.2680   34.3750 N   0  0  0  0  0  0  0  0  0  0  0  0
   39.4670   27.1050   35.0720 C   0  0  0  0  0  0  0  0  0  0  0  0
   38.5160   26.9070   36.0860 C   0  0  0  0  0  0  0  0  0  0  0  0
   38.2130   25.6060   36.4670 C   0  0  0  0  0  0  0  0  0  0  0  0
   38.8510   24.5760   35.8380 N   0  0  0  0  0  0  0  0  0  0  0  0
   39.7580   24.7860   34.8700 C   0  0  0  0  0  0  0  0  0  0  0  0
   40.0610   26.0370   34.4940 N   0  0  0  0  0  0  0  0  0  0  0  0
   42.7000   23.8690   35.1670 C   0  0  0  0  0  0  0  0  0  0  0  0
   42.8390   23.4540   36.4840 C   0  0  0  0  0  0  0  0  0  0  0  0
   44.2410   24.4930   37.0590 S   0  0  0  0  0  0  0  0  0  0  0  0
   44.3760   25.3140   35.3600 C   0  0  0  0  0  0  0  0  0  0  0  0
   43.5500   24.7890   34.8120 N   0  0  0  0  0  0  0  0  0  0  0  0
   47.2510   28.2510   34.5690 C   0  0  0  0  0  0  0  0  0  0  0  0
   45.9570   28.4060   34.1120 C   0  0  0  0  0  0  0  0  0  0  0  0
   44.9830   27.4600   34.3550 C   0  0  0  0  0  0  0  0  0  0  0  0
   45.3970   26.3590   35.0780 C   0  0  0  0  0  0  0  0  0  0  0  0
   46.6850   26.2020   35.5330 C   0  0  0  0  0  0  0  0  0  0  0  0
   47.6370   27.1440   35.2880 C   0  0  0  0  0  0  0  0  0  0  0  0
   48.3830   29.5270   34.1920 S   0  0  0  0  0  0  0  0  0  0  0  0
   49.0550   29.9800   35.4560 O   0  0  0  0  0  0  0  0  0  0  0  0
   49.3920   29.0090   33.2040 O   0  0  0  0  0  0  0  0  0  0  0  0
   38.8015   22.7534   33.0290 H   0  0  0  0  0  0  0  0  0  0  0  0
   42.9075   21.6505   33.5750 H   0  0  0  0  0  0  0  0  0  0  0  0
   39.7273   28.1240   34.7496 H   0  0  0  0  0  0  0  0  0  0  0  0
   38.0218   27.7634   36.5681 H   0  0  0  0  0  0  0  0  0  0  0  0
   37.4748   25.4099   37.2586 H   0  0  0  0  0  0  0  0  0  0  0  0
   42.2610   22.7001   37.0386 H   0  0  0  0  0  0  0  0  0  0  0  0
   45.6961   29.3079   33.5389 H   0  0  0  0  0  0  0  0  0  0  0  0
   43.9489   27.5747   33.9978 H   0  0  0  0  0  0  0  0  0  0  0  0
   46.9507   25.3004   36.1044 H   0  0  0  0  0  0  0  0  0  0  0  0
   48.6692   27.0249   35.6491 H   0  0  0  0  0  0  0  0  0  0  0  0
   47.7319   30.5971   33.6372 H   0  0  0  0  0  0  0  0  0  0  0  0
  1  5  1  0
  1 10  1  0
  2  1  2  0
  3  2  1  0
  3  4  2  0
  4  5  1  0
  5 12  1  0
  6  7  2  0
  7  8  1  0
  9  8  2  0
 10  9  1  0
 11 10  2  0
 11  6  1  0
 12 13  2  0
 13 14  1  0
 15 14  1  0
 16 12  1  0
 16 15  2  0
 17 22  2  0
 18 19  2  0
 18 17  1  0
 19 20  1  0
 20 15  1  0
 20 21  2  0
 22 21  1  0
 23 17  1  0
 23 24  2  0
 25 23  2  0
  2 26  1  0
  4 27  1  0
  6 28  1  0
  7 29  1  0
  8 30  1  0
 13 31  1  0
 18 32  1  0
 19 33  1  0
 21 34  1  0
 22 35  1  0
 23 36  1  0
M  ISO  8  26  14  27  14  28  14  29  14  30  14  31  14  32  14  33  14
M  ISO  3  34  14  35  14  36  11
M  END
>  <minimizedAffinity>  (1) 
-4.18081808

>  <minimizedRMSD>  (1) 
3.55935454

$$$$
