
     RDKit          3D

 32 34  0  0  0  0  0  0  0  0999 V2000
   38.6640   24.3470   36.4200 C   0  0  0  0  0  0  0  0  0  0  0  0
   37.6600   24.3410   37.3520 C   0  0  0  0  0  0  0  0  0  0  0  0
   37.9690   23.4440   38.3070 N   0  0  0  0  0  0  0  0  0  0  0  0
   39.1670   22.8720   37.9970 C   0  0  0  0  0  0  0  0  0  0  0  0
   39.5520   23.4450   36.8510 N   0  0  0  0  0  0  0  0  0  0  0  0
   38.1370   25.5710   33.0010 C   0  0  0  0  0  0  0  0  0  0  0  0
   38.9310   26.7260   32.9730 C   0  0  0  0  0  0  0  0  0  0  0  0
   39.6370   27.0650   34.1320 C   0  0  0  0  0  0  0  0  0  0  0  0
   39.5260   26.2690   35.2330 N   0  0  0  0  0  0  0  0  0  0  0  0
   38.7460   25.1600   35.2180 C   0  0  0  0  0  0  0  0  0  0  0  0
   38.0640   24.8180   34.1210 N   0  0  0  0  0  0  0  0  0  0  0  0
   40.7870   23.0660   36.2350 C   0  0  0  0  0  0  0  0  0  0  0  0
   40.7380   22.1730   35.1790 C   0  0  0  0  0  0  0  0  0  0  0  0
   42.5190   22.0170   34.7570 S   0  0  0  0  0  0  0  0  0  0  0  0
   43.0030   23.2300   36.1390 C   0  0  0  0  0  0  0  0  0  0  0  0
   41.9890   23.4580   36.5440 N   0  0  0  0  0  0  0  0  0  0  0  0
   44.4320   23.6430   36.4400 C   0  0  0  0  0  0  0  0  0  0  0  0
   44.4750   24.9160   37.2400 C   0  0  0  0  0  0  0  0  0  0  0  0
   45.1860   23.7660   35.1390 C   0  0  0  0  0  0  0  0  0  0  0  0
   36.7540   24.9642   37.3246 H   0  0  0  0  0  0  0  0  0  0  0  0
   39.7043   22.1012   38.5690 H   0  0  0  0  0  0  0  0  0  0  0  0
   37.5699   25.2757   32.1059 H   0  0  0  0  0  0  0  0  0  0  0  0
   38.9968   27.3467   32.0673 H   0  0  0  0  0  0  0  0  0  0  0  0
   40.2733   27.9620   34.1547 H   0  0  0  0  0  0  0  0  0  0  0  0
   39.8664   21.6870   34.7164 H   0  0  0  0  0  0  0  0  0  0  0  0
   44.9165   22.8742   37.0599 H   0  0  0  0  0  0  0  0  0  0  0  0
   44.4669   24.6750   38.3133 H   0  0  0  0  0  0  0  0  0  0  0  0
   45.3924   25.4716   36.9959 H   0  0  0  0  0  0  0  0  0  0  0  0
   43.5972   25.5323   36.9959 H   0  0  0  0  0  0  0  0  0  0  0  0
   46.2519   23.9399   35.3480 H   0  0  0  0  0  0  0  0  0  0  0  0
   45.0725   22.8375   34.5602 H   0  0  0  0  0  0  0  0  0  0  0  0
   44.7833   24.6103   34.5602 H   0  0  0  0  0  0  0  0  0  0  0  0
  1  5  1  0
  1  2  2  0
  2  3  1  0
  4  3  2  0
  5  4  1  0
  6 11  2  0
  7  6  1  0
  7  8  2  0
  8  9  1  0
 10  9  2  0
 10  1  1  0
 11 10  1  0
 12 16  1  0
 12  5  1  0
 13 12  2  0
 14 13  1  0
 14 15  1  0
 15 17  1  0
 15 16  2  0
 17 18  1  0
 19 17  1  0
  2 20  1  0
  4 21  1  0
  6 22  1  0
  7 23  1  0
  8 24  1  0
 13 25  1  0
 17 26  1  0
 18 27  1  0
 18 28  1  0
 18 29  1  0
 19 30  1  0
 19 31  1  0
 19 32  1  0
M  ISO  8  20  14  21  14  22  14  23  14  24  14  25  14  26   8  27   8
M  ISO  5  28   8  29   8  30   8  31   8  32   8
M  END
>  <minimizedAffinity>  (1) 
-4.27489471

>  <minimizedRMSD>  (1) 
2.79566073

$$$$
