
     RDKit          3D

 24 26  0  0  0  0  0  0  0  0999 V2000
   38.1970   24.6440   35.6300 C   0  0  0  0  0  0  0  0  0  0  0  0
   38.0110   24.9620   36.9410 C   0  0  0  0  0  0  0  0  0  0  0  0
   37.9380   23.8320   37.6580 N   0  0  0  0  0  0  0  0  0  0  0  0
   38.0760   22.7740   36.8110 C   0  0  0  0  0  0  0  0  0  0  0  0
   38.2310   23.3130   35.5920 N   0  0  0  0  0  0  0  0  0  0  0  0
   37.3860   26.6990   32.7010 C   0  0  0  0  0  0  0  0  0  0  0  0
   38.6180   27.2730   32.3880 C   0  0  0  0  0  0  0  0  0  0  0  0
   39.7180   26.9450   33.1890 C   0  0  0  0  0  0  0  0  0  0  0  0
   39.5270   26.0880   34.2280 N   0  0  0  0  0  0  0  0  0  0  0  0
   38.3310   25.5510   34.5070 C   0  0  0  0  0  0  0  0  0  0  0  0
   37.2600   25.8520   33.7490 N   0  0  0  0  0  0  0  0  0  0  0  0
   38.4040   22.4530   34.4580 C   0  0  0  0  0  0  0  0  0  0  0  0
   37.2750   21.9680   33.8210 C   0  0  0  0  0  0  0  0  0  0  0  0
   38.0230   20.9590   32.4890 S   0  0  0  0  0  0  0  0  0  0  0  0
   39.7760   21.3950   33.0610 C   0  0  0  0  0  0  0  0  0  0  0  0
   39.5300   22.0520   33.9280 N   0  0  0  0  0  0  0  0  0  0  0  0
   41.2290   20.7700   32.2350 S   0  0  0  0  0  0  0  0  0  0  0  0
   37.9332   25.9817   37.3461 H   0  0  0  0  0  0  0  0  0  0  0  0
   38.0631   21.7053   37.0710 H   0  0  0  0  0  0  0  0  0  0  0  0
   36.5047   26.9380   32.0877 H   0  0  0  0  0  0  0  0  0  0  0  0
   38.7220   27.9626   31.5374 H   0  0  0  0  0  0  0  0  0  0  0  0
   40.7118   27.3695   32.9835 H   0  0  0  0  0  0  0  0  0  0  0  0
   36.2138   22.1420   34.0527 H   0  0  0  0  0  0  0  0  0  0  0  0
   42.1501   20.3738   33.1685 H   0  0  0  0  0  0  0  0  0  0  0  0
  1  2  2  0
  2  3  1  0
  4  3  2  0
  5  1  1  0
  5  4  1  0
  6 11  2  0
  7  6  1  0
  7  8  2  0
  8  9  1  0
  9 10  2  0
 10  1  1  0
 11 10  1  0
 12  5  1  0
 13 12  2  0
 14 15  1  0
 14 13  1  0
 15 16  2  0
 16 12  1  0
 17 15  1  0
  2 18  1  0
  4 19  1  0
  6 20  1  0
  7 21  1  0
  8 22  1  0
 13 23  1  0
 17 24  1  0
M  ISO  7  18  14  19  14  20  14  21  14  22  14  23  14  24  11
M  END
>  <minimizedAffinity>  (1) 
-3.56876445

>  <minimizedRMSD>  (1) 
3.4352448

$$$$
