
     RDKit          3D

 41 44  0  0  0  0  0  0  0  0999 V2000
   38.4570   23.4590   36.2880 C   0  0  0  0  0  0  0  0  0  0  0  0
   37.6510   23.4110   37.3990 C   0  0  0  0  0  0  0  0  0  0  0  0
   38.4090   23.1260   38.4810 N   0  0  0  0  0  0  0  0  0  0  0  0
   39.6930   22.9900   38.0830 C   0  0  0  0  0  0  0  0  0  0  0  0
   39.6810   23.1980   36.7480 N   0  0  0  0  0  0  0  0  0  0  0  0
   40.9100   23.1250   36.0030 C   0  0  0  0  0  0  0  0  0  0  0  0
   41.1250   22.0210   35.2070 C   0  0  0  0  0  0  0  0  0  0  0  0
   42.7700   22.3950   34.5010 S   0  0  0  0  0  0  0  0  0  0  0  0
   42.8560   24.0300   35.4490 C   0  0  0  0  0  0  0  0  0  0  0  0
   41.8740   23.9850   35.9810 N   0  0  0  0  0  0  0  0  0  0  0  0
   43.9310   25.0110   35.4370 N   0  0  0  0  0  0  0  0  0  0  0  0
   44.7360   25.5680   36.3480 C   0  0  0  0  0  0  0  0  0  0  0  0
   45.5470   26.4290   35.7120 N   0  0  0  0  0  0  0  0  0  0  0  0
   45.2510   26.4120   34.3940 C   0  0  0  0  0  0  0  0  0  0  0  0
   44.2450   25.5230   34.2540 N   0  0  0  0  0  0  0  0  0  0  0  0
   37.4460   22.9430   32.8090 C   0  0  0  0  0  0  0  0  0  0  0  0
   37.3130   24.2710   32.3470 C   0  0  0  0  0  0  0  0  0  0  0  0
   37.5720   25.2970   33.2350 C   0  0  0  0  0  0  0  0  0  0  0  0
   37.9470   25.0080   34.5250 N   0  0  0  0  0  0  0  0  0  0  0  0
   38.0640   23.7280   34.9340 C   0  0  0  0  0  0  0  0  0  0  0  0
   37.8170   22.7080   34.0850 N   0  0  0  0  0  0  0  0  0  0  0  0
   37.4720   26.7520   32.8880 C   0  0  0  0  0  0  0  0  0  0  0  0
   38.7350   27.3110   32.3360 C   0  0  0  0  0  0  0  0  0  0  0  0
   36.3230   26.9580   31.9070 C   0  0  0  0  0  0  0  0  0  0  0  0
   37.1270   27.5090   34.1530 C   0  0  0  0  0  0  0  0  0  0  0  0
   36.5637   23.5777   37.4069 H   0  0  0  0  0  0  0  0  0  0  0  0
   40.5645   22.7587   38.7131 H   0  0  0  0  0  0  0  0  0  0  0  0
   40.4786   21.1467   35.0404 H   0  0  0  0  0  0  0  0  0  0  0  0
   44.7342   25.3580   37.4278 H   0  0  0  0  0  0  0  0  0  0  0  0
   45.7309   27.0012   33.5987 H   0  0  0  0  0  0  0  0  0  0  0  0
   37.2474   22.1011   32.1294 H   0  0  0  0  0  0  0  0  0  0  0  0
   37.0119   24.4822   31.3103 H   0  0  0  0  0  0  0  0  0  0  0  0
   39.3983   27.6046   33.1630 H   0  0  0  0  0  0  0  0  0  0  0  0
   39.2339   26.5496   31.7184 H   0  0  0  0  0  0  0  0  0  0  0  0
   38.5069   28.1922   31.7184 H   0  0  0  0  0  0  0  0  0  0  0  0
   35.3899   27.1253   32.4651 H   0  0  0  0  0  0  0  0  0  0  0  0
   36.5336   27.8327   31.2741 H   0  0  0  0  0  0  0  0  0  0  0  0
   36.2166   26.0646   31.2741 H   0  0  0  0  0  0  0  0  0  0  0  0
   37.4028   26.9038   35.0292 H   0  0  0  0  0  0  0  0  0  0  0  0
   37.6810   28.4590   34.1744 H   0  0  0  0  0  0  0  0  0  0  0  0
   36.0465   27.7141   34.1744 H   0  0  0  0  0  0  0  0  0  0  0  0
  1  5  1  0
  1  2  2  0
  2  3  1  0
  4  3  2  0
  5  4  1  0
  6  5  1  0
  7  6  2  0
  8  7  1  0
  8  9  1  0
  9 10  2  0
 10  6  1  0
 11  9  1  0
 11 12  1  0
 13 12  2  0
 14 13  1  0
 15 14  2  0
 15 11  1  0
 16 21  2  0
 17 16  1  0
 17 18  2  0
 18 19  1  0
 19 20  2  0
 20  1  1  0
 21 20  1  0
 22 18  1  0
 22 25  1  0
 23 22  1  0
 24 22  1  0
  2 26  1  0
  4 27  1  0
  7 28  1  0
 12 29  1  0
 14 30  1  0
 16 31  1  0
 17 32  1  0
 23 33  1  0
 23 34  1  0
 23 35  1  0
 24 36  1  0
 24 37  1  0
 24 38  1  0
 25 39  1  0
 25 40  1  0
 25 41  1  0
M  ISO  8  26  14  27  14  28  14  29  14  30  14  31  14  32  14  33   8
M  ISO  8  34   8  35   8  36   8  37   8  38   8  39   8  40   8  41   8
M  END
>  <minimizedAffinity>  (1) 
-5.24027252

>  <minimizedRMSD>  (1) 
1.40761459

$$$$
