
     RDKit          3D

 30 33  0  0  0  0  0  0  0  0999 V2000
   38.3890   23.6260   36.2040 C   0  0  0  0  0  0  0  0  0  0  0  0
   37.5420   23.5560   37.2850 C   0  0  0  0  0  0  0  0  0  0  0  0
   38.2610   23.1790   38.3540 N   0  0  0  0  0  0  0  0  0  0  0  0
   39.5490   23.0070   37.9820 C   0  0  0  0  0  0  0  0  0  0  0  0
   39.5910   23.2860   36.6660 N   0  0  0  0  0  0  0  0  0  0  0  0
   40.8200   23.2010   35.9510 C   0  0  0  0  0  0  0  0  0  0  0  0
   41.0220   22.1250   35.1210 C   0  0  0  0  0  0  0  0  0  0  0  0
   42.7020   22.4790   34.4620 S   0  0  0  0  0  0  0  0  0  0  0  0
   42.8130   24.0660   35.4690 C   0  0  0  0  0  0  0  0  0  0  0  0
   41.8180   24.0200   35.9690 N   0  0  0  0  0  0  0  0  0  0  0  0
   43.9120   25.0170   35.5210 N   0  0  0  0  0  0  0  0  0  0  0  0
   44.7060   25.5250   36.4740 C   0  0  0  0  0  0  0  0  0  0  0  0
   45.5510   26.3810   35.8770 N   0  0  0  0  0  0  0  0  0  0  0  0
   45.3000   26.4180   34.5660 C   0  0  0  0  0  0  0  0  0  0  0  0
   44.2820   25.5660   34.3690 N   0  0  0  0  0  0  0  0  0  0  0  0
   37.4990   23.3450   32.6480 C   0  0  0  0  0  0  0  0  0  0  0  0
   37.3750   24.6950   32.2800 C   0  0  0  0  0  0  0  0  0  0  0  0
   37.5950   25.6750   33.2470 C   0  0  0  0  0  0  0  0  0  0  0  0
   37.9250   25.2870   34.5190 N   0  0  0  0  0  0  0  0  0  0  0  0
   38.0400   23.9920   34.8520 C   0  0  0  0  0  0  0  0  0  0  0  0
   37.8270   23.0190   33.9180 N   0  0  0  0  0  0  0  0  0  0  0  0
   37.4650   27.4090   32.8920 S   0  0  0  0  0  0  0  0  0  0  0  0
   36.4633   23.7714   37.2754 H   0  0  0  0  0  0  0  0  0  0  0  0
   40.3895   22.7019   38.6227 H   0  0  0  0  0  0  0  0  0  0  0  0
   40.3554   21.2765   34.9072 H   0  0  0  0  0  0  0  0  0  0  0  0
   44.6717   25.2850   37.5470 H   0  0  0  0  0  0  0  0  0  0  0  0
   45.8191   27.0208   33.8063 H   0  0  0  0  0  0  0  0  0  0  0  0
   37.3293   22.5537   31.9030 H   0  0  0  0  0  0  0  0  0  0  0  0
   37.1096   24.9734   31.2494 H   0  0  0  0  0  0  0  0  0  0  0  0
   37.4122   28.1128   34.0662 H   0  0  0  0  0  0  0  0  0  0  0  0
  1  5  1  0
  1  2  2  0
  2  3  1  0
  4  3  2  0
  5  4  1  0
  6 10  1  0
  6  5  1  0
  7  6  2  0
  8  7  1  0
  8  9  1  0
  9 11  1  0
  9 10  2  0
 11 12  1  0
 13 12  2  0
 14 13  1  0
 15 14  2  0
 15 11  1  0
 16 21  2  0
 17 16  1  0
 17 18  2  0
 18 19  1  0
 19 20  2  0
 20  1  1  0
 21 20  1  0
 22 18  1  0
  2 23  1  0
  4 24  1  0
  7 25  1  0
 12 26  1  0
 14 27  1  0
 16 28  1  0
 17 29  1  0
 22 30  1  0
M  ISO  8  23  14  24  14  25  14  26  14  27  14  28  14  29  14  30  11
M  END
>  <minimizedAffinity>  (1) 
-4.69326258

>  <minimizedRMSD>  (1) 
0.954010069

$$$$
