
     RDKit          3D

 36 40  0  0  0  0  0  0  0  0999 V2000
   38.5130   23.7340   36.3460 C   0  0  0  0  0  0  0  0  0  0  0  0
   37.7160   23.5950   37.4520 C   0  0  0  0  0  0  0  0  0  0  0  0
   38.4740   23.1030   38.4550 N   0  0  0  0  0  0  0  0  0  0  0  0
   39.7360   22.9320   37.9990 C   0  0  0  0  0  0  0  0  0  0  0  0
   39.7210   23.3240   36.7200 N   0  0  0  0  0  0  0  0  0  0  0  0
   40.9300   23.2650   35.9350 C   0  0  0  0  0  0  0  0  0  0  0  0
   41.1030   22.2010   35.0880 C   0  0  0  0  0  0  0  0  0  0  0  0
   42.7400   22.5820   34.3450 S   0  0  0  0  0  0  0  0  0  0  0  0
   42.8770   24.1690   35.3640 C   0  0  0  0  0  0  0  0  0  0  0  0
   41.9100   24.1150   35.9220 N   0  0  0  0  0  0  0  0  0  0  0  0
   43.9610   25.1380   35.3700 N   0  0  0  0  0  0  0  0  0  0  0  0
   44.8030   25.6460   36.2890 C   0  0  0  0  0  0  0  0  0  0  0  0
   45.5910   26.5200   35.6610 N   0  0  0  0  0  0  0  0  0  0  0  0
   45.2720   26.5800   34.3650 C   0  0  0  0  0  0  0  0  0  0  0  0
   44.2530   25.7070   34.2210 N   0  0  0  0  0  0  0  0  0  0  0  0
   37.5170   23.7990   32.8090 C   0  0  0  0  0  0  0  0  0  0  0  0
   37.3670   25.1760   32.5780 C   0  0  0  0  0  0  0  0  0  0  0  0
   37.6110   26.0420   33.6320 C   0  0  0  0  0  0  0  0  0  0  0  0
   37.9790   25.5520   34.8400 N   0  0  0  0  0  0  0  0  0  0  0  0
   38.1190   24.2250   35.0470 C   0  0  0  0  0  0  0  0  0  0  0  0
   37.8880   23.3510   34.0370 N   0  0  0  0  0  0  0  0  0  0  0  0
   37.4560   27.4890   33.3940 C   0  0  0  0  0  0  0  0  0  0  0  0
   36.2180   28.0670   32.8590 C   0  0  0  0  0  0  0  0  0  0  0  0
   36.5010   28.1650   34.3630 C   0  0  0  0  0  0  0  0  0  0  0  0
   36.6456   23.8413   37.5121 H   0  0  0  0  0  0  0  0  0  0  0  0
   40.5984   22.5489   38.5643 H   0  0  0  0  0  0  0  0  0  0  0  0
   40.4375   21.3451   34.9022 H   0  0  0  0  0  0  0  0  0  0  0  0
   44.8353   25.3886   37.3580 H   0  0  0  0  0  0  0  0  0  0  0  0
   45.7372   27.2033   33.5871 H   0  0  0  0  0  0  0  0  0  0  0  0
   37.3340   23.0822   31.9949 H   0  0  0  0  0  0  0  0  0  0  0  0
   37.0651   25.5556   31.5907 H   0  0  0  0  0  0  0  0  0  0  0  0
   38.4992   27.5976   33.0624 H   0  0  0  0  0  0  0  0  0  0  0  0
   36.2610   28.9708   32.2334 H   0  0  0  0  0  0  0  0  0  0  0  0
   35.3845   27.6831   32.2525 H   0  0  0  0  0  0  0  0  0  0  0  0
   35.9186   27.5670   35.0794 H   0  0  0  0  0  0  0  0  0  0  0  0
   36.5665   28.9735   35.1060 H   0  0  0  0  0  0  0  0  0  0  0  0
  1  5  1  0
  1  2  2  0
  2  3  1  0
  4  3  2  0
  5  4  1  0
  6  5  1  0
  7  6  2  0
  8  7  1  0
  8  9  1  0
  9 11  1  0
  9 10  2  0
 10  6  1  0
 11 12  1  0
 13 12  2  0
 14 13  1  0
 15 14  2  0
 15 11  1  0
 16 21  2  0
 17 16  1  0
 17 18  2  0
 18 19  1  0
 19 20  2  0
 20  1  1  0
 21 20  1  0
 22 18  1  0
 22 24  1  0
 23 22  1  0
 23 24  1  0
  2 25  1  0
  4 26  1  0
  7 27  1  0
 12 28  1  0
 14 29  1  0
 16 30  1  0
 17 31  1  0
 22 32  1  0
 23 33  1  0
 23 34  1  0
 24 35  1  0
 24 36  1  0
M  ISO  8  25  14  26  14  27  14  28  14  29  14  30  14  31  14  32  13
M  ISO  4  33  13  34  13  35  13  36  13
M  END
>  <minimizedAffinity>  (1) 
-5.14517784

>  <minimizedRMSD>  (1) 
0.994029641

$$$$
