
     RDKit          3D

 32 35  0  0  0  0  0  0  0  0999 V2000
   38.4650   23.6920   36.3470 C   0  0  0  0  0  0  0  0  0  0  0  0
   37.6940   23.6090   37.4770 C   0  0  0  0  0  0  0  0  0  0  0  0
   38.4540   23.1720   38.4920 N   0  0  0  0  0  0  0  0  0  0  0  0
   39.7200   22.9710   38.0280 C   0  0  0  0  0  0  0  0  0  0  0  0
   39.6840   23.2970   36.7250 N   0  0  0  0  0  0  0  0  0  0  0  0
   40.8800   23.1930   35.9340 C   0  0  0  0  0  0  0  0  0  0  0  0
   41.0790   22.0390   35.2130 C   0  0  0  0  0  0  0  0  0  0  0  0
   42.6900   22.3940   34.4050 S   0  0  0  0  0  0  0  0  0  0  0  0
   42.7830   24.0980   35.2290 C   0  0  0  0  0  0  0  0  0  0  0  0
   41.8190   24.0830   35.8160 N   0  0  0  0  0  0  0  0  0  0  0  0
   43.8250   25.0960   35.1040 N   0  0  0  0  0  0  0  0  0  0  0  0
   44.6570   25.7430   35.9440 C   0  0  0  0  0  0  0  0  0  0  0  0
   45.4090   26.5700   35.1890 N   0  0  0  0  0  0  0  0  0  0  0  0
   45.0650   26.4520   33.9090 C   0  0  0  0  0  0  0  0  0  0  0  0
   44.0790   25.5300   33.8770 N   0  0  0  0  0  0  0  0  0  0  0  0
   37.5370   23.5930   32.8050 C   0  0  0  0  0  0  0  0  0  0  0  0
   37.2820   24.9360   32.5240 C   0  0  0  0  0  0  0  0  0  0  0  0
   37.4340   25.8440   33.5520 C   0  0  0  0  0  0  0  0  0  0  0  0
   37.8210   25.4100   34.7840 N   0  0  0  0  0  0  0  0  0  0  0  0
   38.0570   24.1170   35.0250 C   0  0  0  0  0  0  0  0  0  0  0  0
   37.9180   23.2000   34.0410 N   0  0  0  0  0  0  0  0  0  0  0  0
   37.2170   27.2830   33.4570 C   0  0  0  0  0  0  0  0  0  0  0  0
   37.4900   27.9990   32.4570 O   0  0  0  0  0  0  0  0  0  0  0  0
   36.6790   28.0830   34.4460 O   0  0  0  0  0  0  0  0  0  0  0  0
   36.6250   23.8601   37.5411 H   0  0  0  0  0  0  0  0  0  0  0  0
   40.5895   22.6160   38.6007 H   0  0  0  0  0  0  0  0  0  0  0  0
   40.4440   21.1438   35.1398 H   0  0  0  0  0  0  0  0  0  0  0  0
   44.7122   25.6202   37.0357 H   0  0  0  0  0  0  0  0  0  0  0  0
   45.4950   26.9937   33.0536 H   0  0  0  0  0  0  0  0  0  0  0  0
   37.4262   22.8426   32.0084 H   0  0  0  0  0  0  0  0  0  0  0  0
   36.9711   25.2591   31.5195 H   0  0  0  0  0  0  0  0  0  0  0  0
   36.5687   29.0546   34.2914 H   0  0  0  0  0  0  0  0  0  0  0  0
  1  5  1  0
  1  2  2  0
  2  3  1  0
  4  3  2  0
  5  4  1  0
  6  5  1  0
  7  6  2  0
  8  7  1  0
  8  9  1  0
  9 10  2  0
 10  6  1  0
 11  9  1  0
 11 12  1  0
 13 12  2  0
 14 13  1  0
 15 14  2  0
 15 11  1  0
 16 21  2  0
 17 16  1  0
 17 18  2  0
 18 19  1  0
 19 20  2  0
 20  1  1  0
 21 20  1  0
 22 18  1  0
 22 24  1  0
 23 22  2  0
  2 25  1  0
  4 26  1  0
  7 27  1  0
 12 28  1  0
 14 29  1  0
 16 30  1  0
 17 31  1  0
 24 32  1  0
M  ISO  8  25  14  26  14  27  14  28  14  29  14  30  14  31  14  32   3
M  END
>  <minimizedAffinity>  (1) 
-4.86821556

>  <minimizedRMSD>  (1) 
1.1713959

$$$$
