
     RDKit          3D

 45 50  0  0  0  0  0  0  0  0999 V2000
   38.5840   23.5870   36.3050 C   0  0  0  0  0  0  0  0  0  0  0  0
   37.8380   23.4730   37.4630 C   0  0  0  0  0  0  0  0  0  0  0  0
   38.6460   23.0700   38.4470 N   0  0  0  0  0  0  0  0  0  0  0  0
   39.8930   22.9200   37.9600 C   0  0  0  0  0  0  0  0  0  0  0  0
   39.8210   23.2390   36.6640 N   0  0  0  0  0  0  0  0  0  0  0  0
   40.9900   23.1870   35.8360 C   0  0  0  0  0  0  0  0  0  0  0  0
   41.2140   22.0520   35.1000 C   0  0  0  0  0  0  0  0  0  0  0  0
   42.7880   22.4890   34.2450 S   0  0  0  0  0  0  0  0  0  0  0  0
   42.8400   24.1830   35.0800 C   0  0  0  0  0  0  0  0  0  0  0  0
   41.8960   24.1040   35.6870 N   0  0  0  0  0  0  0  0  0  0  0  0
   43.8360   25.2240   34.9330 N   0  0  0  0  0  0  0  0  0  0  0  0
   44.6680   25.8920   35.7610 C   0  0  0  0  0  0  0  0  0  0  0  0
   45.3620   26.7530   35.0190 N   0  0  0  0  0  0  0  0  0  0  0  0
   44.9860   26.6450   33.7330 C   0  0  0  0  0  0  0  0  0  0  0  0
   44.0380   25.6900   33.7110 N   0  0  0  0  0  0  0  0  0  0  0  0
   37.4810   23.4380   32.8140 C   0  0  0  0  0  0  0  0  0  0  0  0
   37.2150   24.7810   32.5260 C   0  0  0  0  0  0  0  0  0  0  0  0
   37.4190   25.7010   33.5320 C   0  0  0  0  0  0  0  0  0  0  0  0
   37.8620   25.2910   34.7450 N   0  0  0  0  0  0  0  0  0  0  0  0
   38.1120   23.9940   35.0010 C   0  0  0  0  0  0  0  0  0  0  0  0
   37.9240   23.0500   34.0350 N   0  0  0  0  0  0  0  0  0  0  0  0
   37.1640   27.1220   33.3130 C   0  0  0  0  0  0  0  0  0  0  0  0
   37.0360   27.9060   34.2760 O   0  0  0  0  0  0  0  0  0  0  0  0
   37.0260   27.8190   32.0590 C   0  0  0  0  0  0  0  0  0  0  0  0
   35.8550   28.4690   31.7140 C   0  0  0  0  0  0  0  0  0  0  0  0
   35.9990   29.0410   30.4830 N   0  0  0  0  0  0  0  0  0  0  0  0
   37.2530   28.7520   30.0580 C   0  0  0  0  0  0  0  0  0  0  0  0
   37.9180   29.0890   28.8750 C   0  0  0  0  0  0  0  0  0  0  0  0
   39.2150   28.6510   28.7050 C   0  0  0  0  0  0  0  0  0  0  0  0
   39.8600   27.8980   29.6700 C   0  0  0  0  0  0  0  0  0  0  0  0
   39.2060   27.5530   30.8600 C   0  0  0  0  0  0  0  0  0  0  0  0
   37.9010   28.0000   31.0150 C   0  0  0  0  0  0  0  0  0  0  0  0
   36.7617   23.6792   37.5580 H   0  0  0  0  0  0  0  0  0  0  0  0
   40.7873   22.6005   38.5151 H   0  0  0  0  0  0  0  0  0  0  0  0
   40.6166   21.1305   35.0368 H   0  0  0  0  0  0  0  0  0  0  0  0
   44.7562   25.7508   36.8483 H   0  0  0  0  0  0  0  0  0  0  0  0
   45.3725   27.2177   32.8771 H   0  0  0  0  0  0  0  0  0  0  0  0
   37.3272   22.6798   32.0320 H   0  0  0  0  0  0  0  0  0  0  0  0
   36.8563   25.0913   31.5335 H   0  0  0  0  0  0  0  0  0  0  0  0
   34.9484   28.5175   32.3351 H   0  0  0  0  0  0  0  0  0  0  0  0
   35.2899   29.5879   29.9742 H   0  0  0  0  0  0  0  0  0  0  0  0
   37.4193   29.6885   28.0992 H   0  0  0  0  0  0  0  0  0  0  0  0
   39.7501   28.9069   27.7786 H   0  0  0  0  0  0  0  0  0  0  0  0
   40.8955   27.5673   29.5014 H   0  0  0  0  0  0  0  0  0  0  0  0
   39.7044   26.9546   31.6368 H   0  0  0  0  0  0  0  0  0  0  0  0
  1  5  1  0
  1  2  2  0
  2  3  1  0
  4  3  2  0
  5  4  1  0
  6  5  1  0
  7  6  2  0
  8  9  1  0
  8  7  1  0
  9 10  2  0
 10  6  1  0
 11  9  1  0
 11 12  1  0
 13 12  2  0
 14 13  1  0
 15 14  2  0
 15 11  1  0
 16 21  2  0
 17 16  1  0
 17 18  2  0
 18 19  1  0
 19 20  2  0
 20  1  1  0
 21 20  1  0
 22 18  1  0
 22 23  2  0
 24 22  1  0
 25 24  2  0
 26 25  1  0
 27 26  1  0
 27 32  2  0
 28 27  1  0
 29 28  2  0
 29 30  1  0
 30 31  2  0
 31 32  1  0
 32 24  1  0
  2 33  1  0
  4 34  1  0
  7 35  1  0
 12 36  1  0
 14 37  1  0
 16 38  1  0
 17 39  1  0
 25 40  1  0
 26 41  1  0
 28 42  1  0
 29 43  1  0
 30 44  1  0
 31 45  1  0
M  ISO  8  33  14  34  14  35  14  36  14  37  14  38  14  39  14  40  14
M  ISO  5  41   9  42  14  43  14  44  14  45  14
M  END
>  <minimizedAffinity>  (1) 
-6.25955296

>  <minimizedRMSD>  (1) 
0.895334065

$$$$
