
     RDKit          3D

 38 42  0  0  0  0  0  0  0  0999 V2000
   38.4640   23.5750   36.2770 C   0  0  0  0  0  0  0  0  0  0  0  0
   37.6680   23.5400   37.4130 C   0  0  0  0  0  0  0  0  0  0  0  0
   38.4310   23.2160   38.4610 N   0  0  0  0  0  0  0  0  0  0  0  0
   39.7040   23.0400   38.0320 C   0  0  0  0  0  0  0  0  0  0  0  0
   39.6820   23.2640   36.7150 N   0  0  0  0  0  0  0  0  0  0  0  0
   40.8830   23.1610   35.9400 C   0  0  0  0  0  0  0  0  0  0  0  0
   41.1040   21.9940   35.2450 C   0  0  0  0  0  0  0  0  0  0  0  0
   42.7250   22.3580   34.4390 S   0  0  0  0  0  0  0  0  0  0  0  0
   42.7840   24.0790   35.2310 C   0  0  0  0  0  0  0  0  0  0  0  0
   41.8180   24.0420   35.7990 N   0  0  0  0  0  0  0  0  0  0  0  0
   43.8090   25.0770   35.0910 N   0  0  0  0  0  0  0  0  0  0  0  0
   44.6320   25.7560   35.9470 C   0  0  0  0  0  0  0  0  0  0  0  0
   45.3820   26.5670   35.2070 N   0  0  0  0  0  0  0  0  0  0  0  0
   45.0610   26.4230   33.9120 C   0  0  0  0  0  0  0  0  0  0  0  0
   44.0830   25.4940   33.8630 N   0  0  0  0  0  0  0  0  0  0  0  0
   37.4690   23.1620   32.7830 C   0  0  0  0  0  0  0  0  0  0  0  0
   37.2490   24.4870   32.3880 C   0  0  0  0  0  0  0  0  0  0  0  0
   37.4410   25.4960   33.3110 C   0  0  0  0  0  0  0  0  0  0  0  0
   37.8400   25.1710   34.5780 N   0  0  0  0  0  0  0  0  0  0  0  0
   38.0450   23.8810   34.9320 C   0  0  0  0  0  0  0  0  0  0  0  0
   37.8640   22.8640   34.0480 N   0  0  0  0  0  0  0  0  0  0  0  0
   37.2290   26.8840   32.9600 C   0  0  0  0  0  0  0  0  0  0  0  0
   36.9450   27.7110   33.8630 O   0  0  0  0  0  0  0  0  0  0  0  0
   36.6730   28.0360   29.6110 N   0  0  0  0  0  0  0  0  0  0  0  0
   36.2730   27.5220   30.7840 N   0  0  0  0  0  0  0  0  0  0  0  0
   37.3230   27.4090   31.6040 C   0  0  0  0  0  0  0  0  0  0  0  0
   38.3950   27.8810   30.8770 C   0  0  0  0  0  0  0  0  0  0  0  0
   37.9970   28.2800   29.6180 C   0  0  0  0  0  0  0  0  0  0  0  0
   36.5878   23.7450   37.4455 H   0  0  0  0  0  0  0  0  0  0  0  0
   40.5773   22.7682   38.6431 H   0  0  0  0  0  0  0  0  0  0  0  0
   40.4825   21.0884   35.1856 H   0  0  0  0  0  0  0  0  0  0  0  0
   44.6668   25.6509   37.0414 H   0  0  0  0  0  0  0  0  0  0  0  0
   45.5066   26.9564   33.0594 H   0  0  0  0  0  0  0  0  0  0  0  0
   37.3196   22.3491   32.0572 H   0  0  0  0  0  0  0  0  0  0  0  0
   36.9292   24.7199   31.3616 H   0  0  0  0  0  0  0  0  0  0  0  0
   36.0500   28.2195   28.8115 H   0  0  0  0  0  0  0  0  0  0  0  0
   39.4284   27.9325   31.2505 H   0  0  0  0  0  0  0  0  0  0  0  0
   38.6154   28.6987   28.8104 H   0  0  0  0  0  0  0  0  0  0  0  0
  1  5  1  0
  1  2  2  0
  2  3  1  0
  4  3  2  0
  5  4  1  0
  6  5  1  0
  7  6  2  0
  8  9  1  0
  8  7  1  0
  9 10  2  0
 10  6  1  0
 11  9  1  0
 11 12  1  0
 13 12  2  0
 14 13  1  0
 15 14  2  0
 15 11  1  0
 16 21  2  0
 17 16  1  0
 17 18  2  0
 18 19  1  0
 19 20  2  0
 20  1  1  0
 21 20  1  0
 22 18  1  0
 22 23  2  0
 24 28  1  0
 24 25  1  0
 25 26  2  0
 26 22  1  0
 27 26  1  0
 28 27  2  0
  2 29  1  0
  4 30  1  0
  7 31  1  0
 12 32  1  0
 14 33  1  0
 16 34  1  0
 17 35  1  0
 24 36  1  0
 27 37  1  0
 28 38  1  0
M  ISO  8  29  14  30  14  31  14  32  14  33  14  34  14  35  14  36   9
M  ISO  2  37  14  38  14
M  END
>  <minimizedAffinity>  (1) 
-5.72344589

>  <minimizedRMSD>  (1) 
1.07056451

$$$$
