
     RDKit          3D

 41 45  0  0  0  0  0  0  0  0999 V2000
   38.5080   23.7320   36.4080 C   0  0  0  0  0  0  0  0  0  0  0  0
   37.7470   23.6430   37.5540 C   0  0  0  0  0  0  0  0  0  0  0  0
   38.5210   23.1610   38.5370 N   0  0  0  0  0  0  0  0  0  0  0  0
   39.7660   22.9400   38.0400 C   0  0  0  0  0  0  0  0  0  0  0  0
   39.7130   23.2950   36.7620 N   0  0  0  0  0  0  0  0  0  0  0  0
   40.8770   23.1860   35.9300 C   0  0  0  0  0  0  0  0  0  0  0  0
   41.0940   22.0060   35.2500 C   0  0  0  0  0  0  0  0  0  0  0  0
   42.6570   22.3800   34.3710 S   0  0  0  0  0  0  0  0  0  0  0  0
   42.7300   24.1250   35.1130 C   0  0  0  0  0  0  0  0  0  0  0  0
   41.7880   24.0880   35.7280 N   0  0  0  0  0  0  0  0  0  0  0  0
   43.7310   25.1280   34.8930 N   0  0  0  0  0  0  0  0  0  0  0  0
   44.5900   25.8300   35.6760 C   0  0  0  0  0  0  0  0  0  0  0  0
   45.2920   26.6310   34.8820 N   0  0  0  0  0  0  0  0  0  0  0  0
   44.9020   26.4560   33.6080 C   0  0  0  0  0  0  0  0  0  0  0  0
   43.9340   25.5180   33.6440 N   0  0  0  0  0  0  0  0  0  0  0  0
   37.5100   23.7590   32.8750 C   0  0  0  0  0  0  0  0  0  0  0  0
   37.2300   25.1010   32.6550 C   0  0  0  0  0  0  0  0  0  0  0  0
   37.3860   25.9690   33.7140 C   0  0  0  0  0  0  0  0  0  0  0  0
   37.8040   25.5080   34.9310 N   0  0  0  0  0  0  0  0  0  0  0  0
   38.0680   24.2050   35.1180 C   0  0  0  0  0  0  0  0  0  0  0  0
   37.9270   23.3090   34.1000 N   0  0  0  0  0  0  0  0  0  0  0  0
   37.1180   27.4050   33.5700 C   0  0  0  0  0  0  0  0  0  0  0  0
   36.7760   28.0890   34.5530 O   0  0  0  0  0  0  0  0  0  0  0  0
   37.2600   28.0080   32.2550 C   0  0  0  0  0  0  0  0  0  0  0  0
   38.3480   27.8490   31.4080 C   0  0  0  0  0  0  0  0  0  0  0  0
   38.4140   28.4450   30.1630 C   0  0  0  0  0  0  0  0  0  0  0  0
   37.3540   29.2430   29.7180 C   0  0  0  0  0  0  0  0  0  0  0  0
   36.2500   29.4200   30.5450 C   0  0  0  0  0  0  0  0  0  0  0  0
   36.2190   28.8090   31.7820 C   0  0  0  0  0  0  0  0  0  0  0  0
   36.6864   23.9200   37.6462 H   0  0  0  0  0  0  0  0  0  0  0  0
   40.6378   22.5479   38.5842 H   0  0  0  0  0  0  0  0  0  0  0  0
   40.4903   21.0866   35.2385 H   0  0  0  0  0  0  0  0  0  0  0  0
   44.6870   25.7500   36.7688 H   0  0  0  0  0  0  0  0  0  0  0  0
   45.2923   26.9720   32.7184 H   0  0  0  0  0  0  0  0  0  0  0  0
   37.3946   23.0422   32.0486 H   0  0  0  0  0  0  0  0  0  0  0  0
   36.8954   25.4588   31.6701 H   0  0  0  0  0  0  0  0  0  0  0  0
   39.1902   27.2245   31.7406 H   0  0  0  0  0  0  0  0  0  0  0  0
   39.2964   28.2927   29.5241 H   0  0  0  0  0  0  0  0  0  0  0  0
   37.3934   29.7230   28.7290 H   0  0  0  0  0  0  0  0  0  0  0  0
   35.4061   30.0436   30.2149 H   0  0  0  0  0  0  0  0  0  0  0  0
   35.3372   28.9594   32.4221 H   0  0  0  0  0  0  0  0  0  0  0  0
  1  5  1  0
  1  2  2  0
  2  3  1  0
  4  3  2  0
  5  4  1  0
  6  5  1  0
  7  6  2  0
  8  9  1  0
  8  7  1  0
  9 10  2  0
 10  6  1  0
 11  9  1  0
 11 12  1  0
 13 12  2  0
 14 15  2  0
 14 13  1  0
 15 11  1  0
 16 21  2  0
 17 16  1  0
 17 18  2  0
 18 19  1  0
 19 20  2  0
 20  1  1  0
 21 20  1  0
 22 18  1  0
 22 23  2  0
 24 22  1  0
 25 24  2  0
 26 25  1  0
 27 26  2  0
 27 28  1  0
 28 29  2  0
 29 24  1  0
  2 30  1  0
  4 31  1  0
  7 32  1  0
 12 33  1  0
 14 34  1  0
 16 35  1  0
 17 36  1  0
 25 37  1  0
 26 38  1  0
 27 39  1  0
 28 40  1  0
 29 41  1  0
M  ISO  8  30  14  31  14  32  14  33  14  34  14  35  14  36  14  37  14
M  ISO  4  38  14  39  14  40  14  41  14
M  END
>  <minimizedAffinity>  (1) 
-5.88181782

>  <minimizedRMSD>  (1) 
0.780105829

$$$$
