
     RDKit          3D

 32 35  0  0  0  0  0  0  0  0999 V2000
   38.4880   23.7530   36.3650 C   0  0  0  0  0  0  0  0  0  0  0  0
   37.7130   23.6190   37.5000 C   0  0  0  0  0  0  0  0  0  0  0  0
   38.4900   23.1300   38.4850 N   0  0  0  0  0  0  0  0  0  0  0  0
   39.7350   22.9510   37.9970 C   0  0  0  0  0  0  0  0  0  0  0  0
   39.7130   23.3330   36.7130 N   0  0  0  0  0  0  0  0  0  0  0  0
   40.8880   23.2680   35.9020 C   0  0  0  0  0  0  0  0  0  0  0  0
   41.0480   22.1690   35.0830 C   0  0  0  0  0  0  0  0  0  0  0  0
   42.6600   22.5650   34.2860 S   0  0  0  0  0  0  0  0  0  0  0  0
   42.8010   24.1880   35.2520 C   0  0  0  0  0  0  0  0  0  0  0  0
   41.8430   24.1350   35.8420 N   0  0  0  0  0  0  0  0  0  0  0  0
   43.8670   25.1670   35.1910 N   0  0  0  0  0  0  0  0  0  0  0  0
   44.7250   25.7140   36.0950 C   0  0  0  0  0  0  0  0  0  0  0  0
   45.4910   26.5790   35.4000 N   0  0  0  0  0  0  0  0  0  0  0  0
   45.1370   26.5790   34.1160 C   0  0  0  0  0  0  0  0  0  0  0  0
   44.1310   25.7020   34.0010 N   0  0  0  0  0  0  0  0  0  0  0  0
   37.5410   23.8380   32.8200 C   0  0  0  0  0  0  0  0  0  0  0  0
   37.2450   25.1850   32.6360 C   0  0  0  0  0  0  0  0  0  0  0  0
   37.3730   26.0360   33.7210 C   0  0  0  0  0  0  0  0  0  0  0  0
   37.7760   25.5500   34.9160 N   0  0  0  0  0  0  0  0  0  0  0  0
   38.0580   24.2420   35.0720 C   0  0  0  0  0  0  0  0  0  0  0  0
   37.9480   23.3720   34.0400 N   0  0  0  0  0  0  0  0  0  0  0  0
   37.0740   27.4460   33.5710 C   0  0  0  0  0  0  0  0  0  0  0  0
   36.7030   28.1220   34.5750 O   0  0  0  0  0  0  0  0  0  0  0  0
   37.1090   28.2870   32.4650 O   0  0  0  0  0  0  0  0  0  0  0  0
   36.6451   23.8687   37.5848 H   0  0  0  0  0  0  0  0  0  0  0  0
   40.6042   22.5643   38.5492 H   0  0  0  0  0  0  0  0  0  0  0  0
   40.3928   21.2964   34.9444 H   0  0  0  0  0  0  0  0  0  0  0  0
   44.7818   25.4953   37.1715 H   0  0  0  0  0  0  0  0  0  0  0  0
   45.5825   27.1801   33.3097 H   0  0  0  0  0  0  0  0  0  0  0  0
   37.4467   23.1400   31.9750 H   0  0  0  0  0  0  0  0  0  0  0  0
   36.9184   25.5634   31.6561 H   0  0  0  0  0  0  0  0  0  0  0  0
   36.8651   29.2416   32.5611 H   0  0  0  0  0  0  0  0  0  0  0  0
  1  5  1  0
  1  2  2  0
  2  3  1  0
  4  3  2  0
  5  4  1  0
  6  5  1  0
  7  6  2  0
  8  7  1  0
  8  9  1  0
  9 10  2  0
 10  6  1  0
 11  9  1  0
 11 12  1  0
 13 12  2  0
 14 13  1  0
 15 14  2  0
 15 11  1  0
 16 21  2  0
 17 16  1  0
 17 18  2  0
 18 19  1  0
 19 20  2  0
 20  1  1  0
 21 20  1  0
 22 18  1  0
 22 23  2  0
 24 22  1  0
  2 25  1  0
  4 26  1  0
  7 27  1  0
 12 28  1  0
 14 29  1  0
 16 30  1  0
 17 31  1  0
 24 32  1  0
M  ISO  8  25  14  26  14  27  14  28  14  29  14  30  14  31  14  32   3
M  END
>  <minimizedAffinity>  (1) 
-4.93187809

>  <minimizedRMSD>  (1) 
0.133142054

$$$$
