
     RDKit          3D

 26 27  0  0  0  0  0  0  0  0999 V2000
   39.9720   22.7130   37.4310 C   0  0  0  0  0  0  0  0  0  0  0  0
   39.3260   23.4410   38.4490 C   0  0  0  0  0  0  0  0  0  0  0  0
   37.9350   23.6230   38.3330 C   0  0  0  0  0  0  0  0  0  0  0  0
   37.3120   23.0920   37.2580 N   0  0  0  0  0  0  0  0  0  0  0  0
   37.9800   22.4030   36.3110 C   0  0  0  0  0  0  0  0  0  0  0  0
   39.2950   22.2160   36.3980 N   0  0  0  0  0  0  0  0  0  0  0  0
   36.0240   20.7670   32.9070 C   0  0  0  0  0  0  0  0  0  0  0  0
   37.1490   21.5670   32.7910 C   0  0  0  0  0  0  0  0  0  0  0  0
   37.7930   22.1040   33.8920 C   0  0  0  0  0  0  0  0  0  0  0  0
   37.2920   21.8300   35.1490 C   0  0  0  0  0  0  0  0  0  0  0  0
   36.1730   21.0330   35.2650 C   0  0  0  0  0  0  0  0  0  0  0  0
   35.5450   20.5090   34.1830 C   0  0  0  0  0  0  0  0  0  0  0  0
   35.1640   20.0590   31.5710 S   0  0  0  0  0  0  0  0  0  0  0  0
   36.1200   19.8310   30.4460 O   0  0  0  0  0  0  0  0  0  0  0  0
   34.5770   18.7370   31.9660 O   0  0  0  0  0  0  0  0  0  0  0  0
   41.4360   22.4910   37.5050 C   0  0  0  0  0  0  0  0  0  0  0  0
   39.8867   23.8515   39.3017 H   0  0  0  0  0  0  0  0  0  0  0  0
   37.3716   24.1812   39.0952 H   0  0  0  0  0  0  0  0  0  0  0  0
   37.5447   21.7832   31.7877 H   0  0  0  0  0  0  0  0  0  0  0  0
   38.6850   22.7357   33.7682 H   0  0  0  0  0  0  0  0  0  0  0  0
   35.7766   20.8150   36.2677 H   0  0  0  0  0  0  0  0  0  0  0  0
   34.6540   19.8781   34.3176 H   0  0  0  0  0  0  0  0  0  0  0  0
   34.1577   20.9087   31.1939 H   0  0  0  0  0  0  0  0  0  0  0  0
   41.7469   22.4439   38.5591 H   0  0  0  0  0  0  0  0  0  0  0  0
   41.6890   21.5442   37.0054 H   0  0  0  0  0  0  0  0  0  0  0  0
   41.9583   23.3202   37.0054 H   0  0  0  0  0  0  0  0  0  0  0  0
  1 16  1  0
  1  2  2  0
  3  2  1  0
  4  3  2  0
  5  6  2  0
  5  4  1  0
  6  1  1  0
  7 12  2  0
  8  7  1  0
  8  9  2  0
  9 10  1  0
 10 11  2  0
 10  5  1  0
 12 11  1  0
 13 15  2  0
 13  7  1  0
 14 13  2  0
  2 17  1  0
  3 18  1  0
  8 19  1  0
  9 20  1  0
 11 21  1  0
 12 22  1  0
 13 23  1  0
 16 24  1  0
 16 25  1  0
 16 26  1  0
M  ISO  8  17  14  18  14  19  14  20  14  21  14  22  14  23  11  24   8
M  ISO  2  25   8  26   8
M  END
>  <minimizedAffinity>  (1) 
-4.58232307

>  <minimizedRMSD>  (1) 
1.23592186

$$$$
