
     RDKit          3D

 26 27  0  0  0  0  0  0  0  0999 V2000
   39.9130   22.6470   37.1740 C   0  0  0  0  0  0  0  0  0  0  0  0
   39.3050   23.3860   38.1930 C   0  0  0  0  0  0  0  0  0  0  0  0
   37.9140   23.5540   38.1680 C   0  0  0  0  0  0  0  0  0  0  0  0
   37.2350   22.9740   37.1300 N   0  0  0  0  0  0  0  0  0  0  0  0
   37.8690   22.2690   36.1720 C   0  0  0  0  0  0  0  0  0  0  0  0
   39.1880   22.0980   36.1760 N   0  0  0  0  0  0  0  0  0  0  0  0
   37.0630   21.6970   35.1210 N   0  0  0  0  0  0  0  0  0  0  0  0
   37.3870   21.9290   33.8340 C   0  0  0  0  0  0  0  0  0  0  0  0
   36.6840   21.4300   32.7830 C   0  0  0  0  0  0  0  0  0  0  0  0
   37.1280   21.7460   31.4020 C   0  0  0  0  0  0  0  0  0  0  0  0
   35.5980   20.6570   33.0710 C   0  0  0  0  0  0  0  0  0  0  0  0
   34.9120   20.1700   32.1300 O   0  0  0  0  0  0  0  0  0  0  0  0
   35.2720   20.4250   34.3610 N   0  0  0  0  0  0  0  0  0  0  0  0
   36.0020   20.9430   35.3830 C   0  0  0  0  0  0  0  0  0  0  0  0
   35.6830   20.7150   36.5700 O   0  0  0  0  0  0  0  0  0  0  0  0
   41.3750   22.4480   37.1680 C   0  0  0  0  0  0  0  0  0  0  0  0
   39.9078   23.8278   39.0001 H   0  0  0  0  0  0  0  0  0  0  0  0
   37.3906   24.1266   38.9479 H   0  0  0  0  0  0  0  0  0  0  0  0
   38.2665   22.5550   33.6226 H   0  0  0  0  0  0  0  0  0  0  0  0
   38.0236   22.3834   31.4416 H   0  0  0  0  0  0  0  0  0  0  0  0
   37.3655   20.8126   30.8706 H   0  0  0  0  0  0  0  0  0  0  0  0
   36.3239   22.2761   30.8706 H   0  0  0  0  0  0  0  0  0  0  0  0
   34.4506   19.8416   34.5750 H   0  0  0  0  0  0  0  0  0  0  0  0
   41.7425   22.3980   38.2036 H   0  0  0  0  0  0  0  0  0  0  0  0
   41.6151   21.5089   36.6480 H   0  0  0  0  0  0  0  0  0  0  0  0
   41.8574   23.2888   36.6480 H   0  0  0  0  0  0  0  0  0  0  0  0
  1  2  2  0
  3  2  1  0
  4  3  2  0
  5  6  2  0
  5  4  1  0
  6  1  1  0
  7 14  1  0
  7  5  1  0
  8  7  1  0
  9 11  1  0
  9  8  2  0
 10  9  1  0
 11 13  1  0
 12 11  2  0
 13 14  1  0
 14 15  2  0
 16  1  1  0
  2 17  1  0
  3 18  1  0
  8 19  1  0
 10 20  1  0
 10 21  1  0
 10 22  1  0
 13 23  1  0
 16 24  1  0
 16 25  1  0
 16 26  1  0
M  ISO  8  17  14  18  14  19  14  20   8  21   8  22   8  23   9  24   8
M  ISO  2  25   8  26   8
M  END
>  <minimizedAffinity>  (1) 
-5.37185621

>  <minimizedRMSD>  (1) 
0.99070698

$$$$
