
     RDKit          3D

 22 23  0  0  0  0  0  0  0  0999 V2000
   39.8870   22.5670   37.2010 C   0  0  0  0  0  0  0  0  0  0  0  0
   39.2190   23.2400   38.2300 C   0  0  0  0  0  0  0  0  0  0  0  0
   37.8400   23.4500   38.1080 C   0  0  0  0  0  0  0  0  0  0  0  0
   37.2420   22.9830   36.9900 N   0  0  0  0  0  0  0  0  0  0  0  0
   37.9130   22.3390   36.0170 C   0  0  0  0  0  0  0  0  0  0  0  0
   39.2310   22.1250   36.1090 N   0  0  0  0  0  0  0  0  0  0  0  0
   37.1730   21.8690   34.8390 C   0  0  0  0  0  0  0  0  0  0  0  0
   36.1790   20.9220   34.9900 C   0  0  0  0  0  0  0  0  0  0  0  0
   35.4670   20.4640   33.8790 C   0  0  0  0  0  0  0  0  0  0  0  0
   35.8550   21.0410   32.6880 C   0  0  0  0  0  0  0  0  0  0  0  0
   36.8410   21.9890   32.5030 C   0  0  0  0  0  0  0  0  0  0  0  0
   37.5020   22.3960   33.6270 N   0  0  0  0  0  0  0  0  0  0  0  0
   41.3360   22.3280   37.2950 C   0  0  0  0  0  0  0  0  0  0  0  0
   39.7654   23.5964   39.1157 H   0  0  0  0  0  0  0  0  0  0  0  0
   37.2681   23.9727   38.8888 H   0  0  0  0  0  0  0  0  0  0  0  0
   35.9470   20.5266   35.9899 H   0  0  0  0  0  0  0  0  0  0  0  0
   34.6684   19.7106   33.9479 H   0  0  0  0  0  0  0  0  0  0  0  0
   35.3197   20.7092   31.7861 H   0  0  0  0  0  0  0  0  0  0  0  0
   37.0805   22.3932   31.5084 H   0  0  0  0  0  0  0  0  0  0  0  0
   41.6317   22.2792   38.3534 H   0  0  0  0  0  0  0  0  0  0  0  0
   41.5836   21.3769   36.8009 H   0  0  0  0  0  0  0  0  0  0  0  0
   41.8759   23.1492   36.8009 H   0  0  0  0  0  0  0  0  0  0  0  0
  1 13  1  0
  1  2  2  0
  3  2  1  0
  4  3  2  0
  5  6  2  0
  5  4  1  0
  6  1  1  0
  7  8  2  0
  7  5  1  0
  9  8  1  0
 10  9  2  0
 11 10  1  0
 11 12  2  0
 12  7  1  0
  2 14  1  0
  3 15  1  0
  8 16  1  0
  9 17  1  0
 10 18  1  0
 11 19  1  0
 13 20  1  0
 13 21  1  0
 13 22  1  0
M  ISO  8  14  14  15  14  16  14  17  14  18  14  19  14  20   8  21   8
M  ISO  1  22   8
M  END
>  <minimizedAffinity>  (1) 
-4.32746649

>  <minimizedRMSD>  (1) 
0.639085114

$$$$
