
     RDKit          3D

 20 21  0  0  0  0  0  0  0  0999 V2000
   39.8550   22.6330   37.1490 C   0  0  0  0  0  0  0  0  0  0  0  0
   39.2940   23.3550   38.2030 C   0  0  0  0  0  0  0  0  0  0  0  0
   37.8870   23.5160   38.2330 C   0  0  0  0  0  0  0  0  0  0  0  0
   37.1800   22.9510   37.2190 N   0  0  0  0  0  0  0  0  0  0  0  0
   37.7820   22.2600   36.2190 C   0  0  0  0  0  0  0  0  0  0  0  0
   39.1050   22.1040   36.1860 N   0  0  0  0  0  0  0  0  0  0  0  0
   37.0090   21.6720   35.1610 N   0  0  0  0  0  0  0  0  0  0  0  0
   37.3410   21.8900   33.8790 N   0  0  0  0  0  0  0  0  0  0  0  0
   36.4820   21.2430   33.0770 C   0  0  0  0  0  0  0  0  0  0  0  0
   35.5710   20.5910   33.8840 C   0  0  0  0  0  0  0  0  0  0  0  0
   35.9240   20.8770   35.2060 C   0  0  0  0  0  0  0  0  0  0  0  0
   41.3140   22.4540   37.1000 C   0  0  0  0  0  0  0  0  0  0  0  0
   39.9282   23.7881   38.9905 H   0  0  0  0  0  0  0  0  0  0  0  0
   37.3891   24.0730   39.0404 H   0  0  0  0  0  0  0  0  0  0  0  0
   36.5001   21.2336   31.9772 H   0  0  0  0  0  0  0  0  0  0  0  0
   34.7291   19.9664   33.5507 H   0  0  0  0  0  0  0  0  0  0  0  0
   35.4119   20.5199   36.1117 H   0  0  0  0  0  0  0  0  0  0  0  0
   41.7120   22.4052   38.1243 H   0  0  0  0  0  0  0  0  0  0  0  0
   41.5512   21.5200   36.5695 H   0  0  0  0  0  0  0  0  0  0  0  0
   41.7700   23.3029   36.5695 H   0  0  0  0  0  0  0  0  0  0  0  0
  1  2  2  0
  2  3  1  0
  4  3  2  0
  5  4  1  0
  6  5  2  0
  6  1  1  0
  7 11  1  0
  7  5  1  0
  8  7  1  0
  9  8  2  0
  9 10  1  0
 10 11  2  0
 12  1  1  0
  2 13  1  0
  3 14  1  0
  9 15  1  0
 10 16  1  0
 11 17  1  0
 12 18  1  0
 12 19  1  0
 12 20  1  0
M  ISO  8  13  14  14  14  15  14  16  14  17  14  18   8  19   8  20   8
M  END
>  <minimizedAffinity>  (1) 
-4.23656559

>  <minimizedRMSD>  (1) 
0.785478175

$$$$
