
     RDKit          3D

 20 21  0  0  0  0  0  0  0  0999 V2000
   39.8520   22.6450   37.1450 C   0  0  0  0  0  0  0  0  0  0  0  0
   39.1980   23.2770   38.2140 C   0  0  0  0  0  0  0  0  0  0  0  0
   37.7970   23.3820   38.1560 C   0  0  0  0  0  0  0  0  0  0  0  0
   37.1670   22.8640   37.0690 N   0  0  0  0  0  0  0  0  0  0  0  0
   37.8510   22.2670   36.0700 C   0  0  0  0  0  0  0  0  0  0  0  0
   39.1820   22.1510   36.0940 N   0  0  0  0  0  0  0  0  0  0  0  0
   37.1900   21.7180   34.9180 N   0  0  0  0  0  0  0  0  0  0  0  0
   36.0530   21.0480   35.1850 C   0  0  0  0  0  0  0  0  0  0  0  0
   35.5770   20.6030   33.9520 C   0  0  0  0  0  0  0  0  0  0  0  0
   36.4270   21.0110   32.9920 N   0  0  0  0  0  0  0  0  0  0  0  0
   37.4100   21.6920   33.5960 C   0  0  0  0  0  0  0  0  0  0  0  0
   41.3240   22.5110   37.1600 C   0  0  0  0  0  0  0  0  0  0  0  0
   39.7628   23.6770   39.0690 H   0  0  0  0  0  0  0  0  0  0  0  0
   37.2297   23.8674   38.9638 H   0  0  0  0  0  0  0  0  0  0  0  0
   35.5945   20.8853   36.1715 H   0  0  0  0  0  0  0  0  0  0  0  0
   34.6603   20.0167   33.7912 H   0  0  0  0  0  0  0  0  0  0  0  0
   38.2658   22.1580   33.0857 H   0  0  0  0  0  0  0  0  0  0  0  0
   41.6787   22.4787   38.2008 H   0  0  0  0  0  0  0  0  0  0  0  0
   41.6130   21.5828   36.6452 H   0  0  0  0  0  0  0  0  0  0  0  0
   41.7758   23.3717   36.6452 H   0  0  0  0  0  0  0  0  0  0  0  0
  1 12  1  0
  1  2  2  0
  3  2  1  0
  4  3  2  0
  5  6  2  0
  5  4  1  0
  6  1  1  0
  7  8  1  0
  7  5  1  0
  9  8  2  0
 10 11  2  0
 10  9  1  0
 11  7  1  0
  2 13  1  0
  3 14  1  0
  8 15  1  0
  9 16  1  0
 11 17  1  0
 12 18  1  0
 12 19  1  0
 12 20  1  0
M  ISO  8  13  14  14  14  15  14  16  14  17  14  18   8  19   8  20   8
M  END
>  <minimizedAffinity>  (1) 
-4.09815741

>  <minimizedRMSD>  (1) 
0.715120971

$$$$
