
     RDKit          3D

 27 28  0  0  0  0  0  0  0  0999 V2000
   39.9960   22.3960   37.1800 C   0  0  0  0  0  0  0  0  0  0  0  0
   39.3460   23.1690   38.1490 C   0  0  0  0  0  0  0  0  0  0  0  0
   38.1510   23.8100   37.8040 C   0  0  0  0  0  0  0  0  0  0  0  0
   37.6990   23.6380   36.5430 N   0  0  0  0  0  0  0  0  0  0  0  0
   38.3580   22.8810   35.6300 C   0  0  0  0  0  0  0  0  0  0  0  0
   39.5040   22.2580   35.9420 N   0  0  0  0  0  0  0  0  0  0  0  0
   37.8040   22.7550   34.3180 N   0  0  0  0  0  0  0  0  0  0  0  0
   37.1330   21.5540   33.8620 C   0  0  0  0  0  0  0  0  0  0  0  0
   37.8640   21.1330   32.5930 C   0  0  0  0  0  0  0  0  0  0  0  0
   37.5220   22.1440   31.6100 N   0  0  0  0  0  0  0  0  0  0  0  0
   37.9850   23.4420   31.9540 C   0  0  0  0  0  0  0  0  0  0  0  0
   37.8870   23.8320   33.3720 C   0  0  0  0  0  0  0  0  0  0  0  0
   41.2640   21.7080   37.5250 C   0  0  0  0  0  0  0  0  0  0  0  0
   39.7658   23.2705   39.1607 H   0  0  0  0  0  0  0  0  0  0  0  0
   37.6025   24.4284   38.5298 H   0  0  0  0  0  0  0  0  0  0  0  0
   37.2003   20.7636   34.6241 H   0  0  0  0  0  0  0  0  0  0  0  0
   36.0634   21.7310   33.6759 H   0  0  0  0  0  0  0  0  0  0  0  0
   38.9507   21.1102   32.7622 H   0  0  0  0  0  0  0  0  0  0  0  0
   37.5752   20.1235   32.2653 H   0  0  0  0  0  0  0  0  0  0  0  0
   36.4967   22.1765   31.5177 H   0  0  0  0  0  0  0  0  0  0  0  0
   39.0445   23.5041   31.6650 H   0  0  0  0  0  0  0  0  0  0  0  0
   37.3181   24.1347   31.4198 H   0  0  0  0  0  0  0  0  0  0  0  0
   38.7775   24.4287   33.6190 H   0  0  0  0  0  0  0  0  0  0  0  0
   36.9376   24.3800   33.4633 H   0  0  0  0  0  0  0  0  0  0  0  0
   41.3654   21.6530   38.6189 H   0  0  0  0  0  0  0  0  0  0  0  0
   41.2551   20.6910   37.1060 H   0  0  0  0  0  0  0  0  0  0  0  0
   42.1118   22.2698   37.1060 H   0  0  0  0  0  0  0  0  0  0  0  0
  1 13  1  0
  1  2  2  0
  3  2  1  0
  4  3  2  0
  5  6  2  0
  5  4  1  0
  6  1  1  0
  7  5  1  0
  8  7  1  0
  9  8  1  0
 10 11  1  0
 10  9  1  0
 11 12  1  0
 12  7  1  0
  2 14  1  0
  3 15  1  0
  8 16  1  0
  8 17  1  0
  9 18  1  0
  9 19  1  0
 10 20  1  0
 11 21  1  0
 11 22  1  0
 12 23  1  0
 12 24  1  0
 13 25  1  0
 13 26  1  0
 13 27  1  0
M  ISO  8  14  14  15  14  16  13  17  13  18  13  19  13  20   5  21  13
M  ISO  6  22  13  23  13  24  13  25   8  26   8  27   8
M  END
>  <minimizedAffinity>  (1) 
-3.91950703

>  <minimizedRMSD>  (1) 
0.911239743

$$$$
