
     RDKit          3D

 25 26  0  0  0  0  0  0  0  0999 V2000
   39.8560   22.9190   37.3450 C   0  0  0  0  0  0  0  0  0  0  0  0
   38.9660   23.1970   38.4100 C   0  0  0  0  0  0  0  0  0  0  0  0
   37.9820   24.1720   38.2180 C   0  0  0  0  0  0  0  0  0  0  0  0
   37.9390   24.7940   37.0180 N   0  0  0  0  0  0  0  0  0  0  0  0
   38.8130   24.4940   36.0250 C   0  0  0  0  0  0  0  0  0  0  0  0
   39.7590   23.5700   36.1840 N   0  0  0  0  0  0  0  0  0  0  0  0
   38.7070   25.1860   34.7970 N   0  0  0  0  0  0  0  0  0  0  0  0
   37.5470   25.7540   34.1390 C   0  0  0  0  0  0  0  0  0  0  0  0
   37.9870   27.1840   33.9370 C   0  0  0  0  0  0  0  0  0  0  0  0
   39.4490   26.9890   33.5500 C   0  0  0  0  0  0  0  0  0  0  0  0
   39.7500   25.5210   33.8430 C   0  0  0  0  0  0  0  0  0  0  0  0
   40.9100   21.8940   37.5130 C   0  0  0  0  0  0  0  0  0  0  0  0
   39.0464   22.6589   39.3660 H   0  0  0  0  0  0  0  0  0  0  0  0
   37.2677   24.4242   39.0156 H   0  0  0  0  0  0  0  0  0  0  0  0
   37.3453   25.2560   33.1791 H   0  0  0  0  0  0  0  0  0  0  0  0
   36.6115   25.6483   34.7080 H   0  0  0  0  0  0  0  0  0  0  0  0
   37.4179   27.6715   33.1317 H   0  0  0  0  0  0  0  0  0  0  0  0
   37.8330   27.8328   34.8118 H   0  0  0  0  0  0  0  0  0  0  0  0
   40.0975   27.6430   34.1515 H   0  0  0  0  0  0  0  0  0  0  0  0
   39.6319   27.2430   32.4955 H   0  0  0  0  0  0  0  0  0  0  0  0
   39.6723   24.9074   32.9334 H   0  0  0  0  0  0  0  0  0  0  0  0
   40.7688   25.3422   34.2172 H   0  0  0  0  0  0  0  0  0  0  0  0
   41.0868   21.7221   38.5850 H   0  0  0  0  0  0  0  0  0  0  0  0
   40.5872   20.9551   37.0394 H   0  0  0  0  0  0  0  0  0  0  0  0
   41.8395   22.2429   37.0394 H   0  0  0  0  0  0  0  0  0  0  0  0
  1 12  1  0
  1  2  2  0
  3  2  1  0
  4  3  2  0
  5  6  2  0
  5  4  1  0
  6  1  1  0
  7  5  1  0
  8  7  1  0
  9  8  1  0
 10 11  1  0
 10  9  1  0
 11  7  1  0
  2 13  1  0
  3 14  1  0
  8 15  1  0
  8 16  1  0
  9 17  1  0
  9 18  1  0
 10 19  1  0
 10 20  1  0
 11 21  1  0
 11 22  1  0
 12 23  1  0
 12 24  1  0
 12 25  1  0
M  ISO  8  13  14  14  14  15  13  16  13  17  13  18  13  19  13  20  13
M  ISO  5  21  13  22  13  23   8  24   8  25   8
M  END
>  <minimizedAffinity>  (1) 
-4.11582756

>  <minimizedRMSD>  (1) 
2.80114079

$$$$
