
     RDKit          3D

 16 16  0  0  0  0  0  0  0  0999 V2000
   39.1280   23.1860   37.5400 C   0  0  0  0  0  0  0  0  0  0  0  0
   38.6730   23.3400   36.2290 C   0  0  0  0  0  0  0  0  0  0  0  0
   39.4080   22.7280   35.2030 C   0  0  0  0  0  0  0  0  0  0  0  0
   40.5130   22.0260   35.5440 N   0  0  0  0  0  0  0  0  0  0  0  0
   40.9120   21.9080   36.8340 C   0  0  0  0  0  0  0  0  0  0  0  0
   40.2250   22.4820   37.8200 N   0  0  0  0  0  0  0  0  0  0  0  0
   38.3720   23.8220   38.6440 C   0  0  0  0  0  0  0  0  0  0  0  0
   42.1000   21.1540   37.2170 C   0  0  0  0  0  0  0  0  0  0  0  0
   43.2140   21.2600   36.6390 O   0  0  0  0  0  0  0  0  0  0  0  0
   42.1720   20.2400   38.2430 O   0  0  0  0  0  0  0  0  0  0  0  0
   37.7667   23.9229   36.0077 H   0  0  0  0  0  0  0  0  0  0  0  0
   39.0951   22.8163   34.1521 H   0  0  0  0  0  0  0  0  0  0  0  0
   38.7763   23.4819   39.6088 H   0  0  0  0  0  0  0  0  0  0  0  0
   38.4674   24.9155   38.5714 H   0  0  0  0  0  0  0  0  0  0  0  0
   37.3110   23.5409   38.5714 H   0  0  0  0  0  0  0  0  0  0  0  0
   43.0247   19.7736   38.4315 H   0  0  0  0  0  0  0  0  0  0  0  0
  1  6  2  0
  1  7  1  0
  2  1  1  0
  3  4  1  0
  3  2  2  0
  4  5  2  0
  5  8  1  0
  5  6  1  0
  8 10  1  0
  9  8  2  0
  2 11  1  0
  3 12  1  0
  7 13  1  0
  7 14  1  0
  7 15  1  0
 10 16  1  0
M  ISO  6  11  14  12  14  13   8  14   8  15   8  16   3
M  END
>  <minimizedAffinity>  (1) 
-3.62365055

>  <minimizedRMSD>  (1) 
4.38174725

$$$$
