
     RDKit          3D

 19 20  0  0  0  0  0  0  0  0999 V2000
   39.8560   22.6140   37.1410 C   0  0  0  0  0  0  0  0  0  0  0  0
   39.1490   23.2520   38.1660 C   0  0  0  0  0  0  0  0  0  0  0  0
   37.7510   23.3910   38.0380 C   0  0  0  0  0  0  0  0  0  0  0  0
   37.1830   22.8910   36.9160 N   0  0  0  0  0  0  0  0  0  0  0  0
   37.9030   22.2840   35.9530 C   0  0  0  0  0  0  0  0  0  0  0  0
   39.2280   22.1420   36.0540 N   0  0  0  0  0  0  0  0  0  0  0  0
   37.2510   21.7470   34.7360 C   0  0  0  0  0  0  0  0  0  0  0  0
   37.8000   21.9850   33.4510 C   0  0  0  0  0  0  0  0  0  0  0  0
   36.6070   21.1100   32.3840 S   0  0  0  0  0  0  0  0  0  0  0  0
   35.5670   20.5750   33.9050 C   0  0  0  0  0  0  0  0  0  0  0  0
   36.1490   21.0320   34.7570 N   0  0  0  0  0  0  0  0  0  0  0  0
   41.3180   22.4470   37.2340 C   0  0  0  0  0  0  0  0  0  0  0  0
   39.6725   23.6373   39.0534 H   0  0  0  0  0  0  0  0  0  0  0  0
   37.1492   23.8840   38.8157 H   0  0  0  0  0  0  0  0  0  0  0  0
   38.7035   22.5469   33.1720 H   0  0  0  0  0  0  0  0  0  0  0  0
   34.6436   19.9781   33.9379 H   0  0  0  0  0  0  0  0  0  0  0  0
   41.6166   22.4129   38.2922 H   0  0  0  0  0  0  0  0  0  0  0  0
   41.6121   21.5094   36.7396 H   0  0  0  0  0  0  0  0  0  0  0  0
   41.8160   23.2941   36.7396 H   0  0  0  0  0  0  0  0  0  0  0  0
  1 12  1  0
  1  2  2  0
  3  2  1  0
  4  3  2  0
  5  6  2  0
  5  4  1  0
  6  1  1  0
  7 11  1  0
  7  5  1  0
  8  7  2  0
  9  8  1  0
  9 10  1  0
 10 11  2  0
  2 13  1  0
  3 14  1  0
  8 15  1  0
 10 16  1  0
 12 17  1  0
 12 18  1  0
 12 19  1  0
M  ISO  7  13  14  14  14  15  14  16  14  17   8  18   8  19   8
M  END
>  <minimizedAffinity>  (1) 
-3.82857323

>  <minimizedRMSD>  (1) 
0.826112032

$$$$
