
     RDKit          3D

 26 26  0  0  0  0  0  0  0  0999 V2000
   39.9520   22.4910   37.1560 C   0  0  0  0  0  0  0  0  0  0  0  0
   39.2150   23.1810   38.1460 C   0  0  0  0  0  0  0  0  0  0  0  0
   38.0530   23.8440   37.7630 C   0  0  0  0  0  0  0  0  0  0  0  0
   37.6960   23.7870   36.4650 N   0  0  0  0  0  0  0  0  0  0  0  0
   38.4230   23.1180   35.5430 C   0  0  0  0  0  0  0  0  0  0  0  0
   39.5600   22.4640   35.8870 N   0  0  0  0  0  0  0  0  0  0  0  0
   41.2000   21.7720   37.5310 C   0  0  0  0  0  0  0  0  0  0  0  0
   37.9590   23.1290   34.2390 O   0  0  0  0  0  0  0  0  0  0  0  0
   37.3850   22.0450   33.5760 C   0  0  0  0  0  0  0  0  0  0  0  0
   36.5360   22.5730   32.4130 C   0  0  0  0  0  0  0  0  0  0  0  0
   38.4930   21.2260   32.9530 C   0  0  0  0  0  0  0  0  0  0  0  0
   36.5110   21.1770   34.4540 C   0  0  0  0  0  0  0  0  0  0  0  0
   39.5519   23.1934   39.1931 H   0  0  0  0  0  0  0  0  0  0  0  0
   37.4461   24.3963   38.4956 H   0  0  0  0  0  0  0  0  0  0  0  0
   41.2810   21.7253   38.6270 H   0  0  0  0  0  0  0  0  0  0  0  0
   41.1723   20.7514   37.1216 H   0  0  0  0  0  0  0  0  0  0  0  0
   42.0690   22.3079   37.1216 H   0  0  0  0  0  0  0  0  0  0  0  0
   35.6652   23.1146   32.8110 H   0  0  0  0  0  0  0  0  0  0  0  0
   37.1413   23.2543   31.7969 H   0  0  0  0  0  0  0  0  0  0  0  0
   36.1926   21.7289   31.7969 H   0  0  0  0  0  0  0  0  0  0  0  0
   39.1053   20.7734   33.7469 H   0  0  0  0  0  0  0  0  0  0  0  0
   38.0560   20.4321   32.3294 H   0  0  0  0  0  0  0  0  0  0  0  0
   39.1237   21.8766   32.3294 H   0  0  0  0  0  0  0  0  0  0  0  0
   36.7263   21.3908   35.5113 H   0  0  0  0  0  0  0  0  0  0  0  0
   35.4527   21.3918   34.2446 H   0  0  0  0  0  0  0  0  0  0  0  0
   36.7185   20.1172   34.2446 H   0  0  0  0  0  0  0  0  0  0  0  0
  1  7  1  0
  1  2  2  0
  3  2  1  0
  4  3  2  0
  5  6  2  0
  5  4  1  0
  6  1  1  0
  8  5  1  0
  9  8  1  0
  9 12  1  0
 10  9  1  0
 11  9  1  0
  2 13  1  0
  3 14  1  0
  7 15  1  0
  7 16  1  0
  7 17  1  0
 10 18  1  0
 10 19  1  0
 10 20  1  0
 11 21  1  0
 11 22  1  0
 11 23  1  0
 12 24  1  0
 12 25  1  0
 12 26  1  0
M  ISO  8  13  14  14  14  15   8  16   8  17   8  18   8  19   8  20   8
M  ISO  6  21   8  22   8  23   8  24   8  25   8  26   8
M  END
>  <minimizedAffinity>  (1) 
-3.4261899

>  <minimizedRMSD>  (1) 
1.33729339

$$$$
