
     RDKit          3D

 17 17  0  0  0  0  0  0  0  0999 V2000
   39.7830   22.6040   37.0550 C   0  0  0  0  0  0  0  0  0  0  0  0
   39.1320   23.2690   38.1020 C   0  0  0  0  0  0  0  0  0  0  0  0
   37.7320   23.3820   38.0570 C   0  0  0  0  0  0  0  0  0  0  0  0
   37.1090   22.8300   36.9900 N   0  0  0  0  0  0  0  0  0  0  0  0
   37.7710   22.1960   35.9980 C   0  0  0  0  0  0  0  0  0  0  0  0
   39.1070   22.0860   36.0340 N   0  0  0  0  0  0  0  0  0  0  0  0
   41.2530   22.4800   37.0910 C   0  0  0  0  0  0  0  0  0  0  0  0
   37.0270   21.6690   34.9520 O   0  0  0  0  0  0  0  0  0  0  0  0
   35.8770   20.8930   35.2780 C   0  0  0  0  0  0  0  0  0  0  0  0
   39.7038   23.6932   38.9405 H   0  0  0  0  0  0  0  0  0  0  0  0
   37.1694   23.8947   38.8512 H   0  0  0  0  0  0  0  0  0  0  0  0
   41.5930   22.4513   38.1367 H   0  0  0  0  0  0  0  0  0  0  0  0
   41.5554   21.5532   36.5816 H   0  0  0  0  0  0  0  0  0  0  0  0
   41.7064   23.3431   36.5816 H   0  0  0  0  0  0  0  0  0  0  0  0
   35.7778   20.8260   36.3715 H   0  0  0  0  0  0  0  0  0  0  0  0
   34.9804   21.3715   34.8571 H   0  0  0  0  0  0  0  0  0  0  0  0
   35.9852   19.8825   34.8571 H   0  0  0  0  0  0  0  0  0  0  0  0
  1  7  1  0
  1  2  2  0
  3  2  1  0
  4  3  2  0
  5  6  2  0
  5  4  1  0
  6  1  1  0
  8  9  1  0
  8  5  1  0
  2 10  1  0
  3 11  1  0
  7 12  1  0
  7 13  1  0
  7 14  1  0
  9 15  1  0
  9 16  1  0
  9 17  1  0
M  ISO  8  10  14  11  14  12   8  13   8  14   8  15   8  16   8  17   8
M  END
>  <minimizedAffinity>  (1) 
-3.07517457

>  <minimizedRMSD>  (1) 
0.531546414

$$$$
