
     RDKit          3D

 46 49  0  0  1  0  0  0  0  0999 V2000
   36.6490   26.6830   32.8270 N   0  0  0  0  0  0  0  0  0  0  0  0
   35.9140   27.6250   32.0550 C   0  0  0  0  0  0  0  0  0  0  0  0
   36.4710   27.5370   30.6490 C   0  0  0  0  0  0  0  0  0  0  0  0
   37.9680   27.3630   30.9560 C   0  0  0  0  0  0  0  0  0  0  0  0
   37.8970   26.4370   32.1190 C   0  0  2  0  0  0  0  0  0  0  0  0
   37.8350   25.0500   31.6520 N   0  0  0  0  0  0  0  0  0  0  0  0
   36.7890   24.2880   32.0530 C   0  0  0  0  0  0  0  0  0  0  0  0
   36.6360   22.9710   31.6720 C   0  0  0  0  0  0  0  0  0  0  0  0
   35.4830   22.1290   32.1130 C   0  0  0  0  0  0  0  0  0  0  0  0
   37.5920   22.4170   30.8490 C   0  0  0  0  0  0  0  0  0  0  0  0
   37.4890   21.2200   30.4790 O   0  0  0  0  0  0  0  0  0  0  0  0
   38.6330   23.2100   30.4620 N   0  0  0  0  0  0  0  0  0  0  0  0
   38.7530   24.5000   30.8550 C   0  0  0  0  0  0  0  0  0  0  0  0
   39.7360   25.2040   30.4730 O   0  0  0  0  0  0  0  0  0  0  0  0
   39.1170   25.8900   34.1800 C   0  0  0  0  0  0  0  0  0  0  0  0
   40.3520   26.2580   34.6920 C   0  0  0  0  0  0  0  0  0  0  0  0
   40.9150   27.0820   33.7990 N   0  0  0  0  0  0  0  0  0  0  0  0
   40.1000   27.2580   32.7430 C   0  0  0  0  0  0  0  0  0  0  0  0
   39.0220   26.5290   32.9990 N   0  0  0  0  0  0  0  0  0  0  0  0
   38.2460   25.0360   34.8410 O   0  0  0  0  0  0  0  0  0  0  0  0
   39.7100   22.9240   37.3720 C   0  0  0  0  0  0  0  0  0  0  0  0
   38.9350   23.2530   38.4880 C   0  0  0  0  0  0  0  0  0  0  0  0
   37.9300   24.1970   38.3240 C   0  0  0  0  0  0  0  0  0  0  0  0
   37.7430   24.7520   37.1100 N   0  0  0  0  0  0  0  0  0  0  0  0
   38.5150   24.4130   36.0360 C   0  0  0  0  0  0  0  0  0  0  0  0
   39.4900   23.4970   36.1970 N   0  0  0  0  0  0  0  0  0  0  0  0
   40.7890   21.9350   37.4750 C   0  0  0  0  0  0  0  0  0  0  0  0
   36.8426   27.0665   33.7631 H   0  0  0  0  0  0  0  0  0  0  0  0
   34.8438   27.3705   32.0589 H   0  0  0  0  0  0  0  0  0  0  0  0
   36.0086   28.6421   32.4632 H   0  0  0  0  0  0  0  0  0  0  0  0
   36.2772   28.4560   30.0764 H   0  0  0  0  0  0  0  0  0  0  0  0
   36.0328   26.7407   30.0295 H   0  0  0  0  0  0  0  0  0  0  0  0
   38.5070   26.9123   30.1096 H   0  0  0  0  0  0  0  0  0  0  0  0
   38.5100   28.3008   31.1475 H   0  0  0  0  0  0  0  0  0  0  0  0
   36.0301   24.7383   32.7098 H   0  0  0  0  0  0  0  0  0  0  0  0
   35.4473   22.1029   33.2121 H   0  0  0  0  0  0  0  0  0  0  0  0
   34.5468   22.5575   31.7258 H   0  0  0  0  0  0  0  0  0  0  0  0
   35.6062   21.1068   31.7258 H   0  0  0  0  0  0  0  0  0  0  0  0
   39.3562   22.8113   29.8464 H   0  0  0  0  0  0  0  0  0  0  0  0
   40.7865   25.9346   35.6494 H   0  0  0  0  0  0  0  0  0  0  0  0
   40.2884   27.8770   31.8534 H   0  0  0  0  0  0  0  0  0  0  0  0
   39.1155   22.7794   39.4643 H   0  0  0  0  0  0  0  0  0  0  0  0
   37.2948   24.4881   39.1736 H   0  0  0  0  0  0  0  0  0  0  0  0
   41.0050   21.7371   38.5353 H   0  0  0  0  0  0  0  0  0  0  0  0
   40.4786   21.0012   36.9835 H   0  0  0  0  0  0  0  0  0  0  0  0
   41.6923   22.3254   36.9835 H   0  0  0  0  0  0  0  0  0  0  0  0
  2  1  1  0
  3  4  1  0
  3  2  1  0
  4  5  1  0
  5  6  1  6
  5  1  1  0
  5 19  1  0
  6  7  1  0
  8  7  2  0
  8  9  1  0
 10  8  1  0
 11 10  2  0
 12 10  1  0
 12 13  1  0
 13  6  1  0
 14 13  2  0
 15 16  2  0
 15 20  1  0
 17 16  1  0
 18 19  1  0
 18 17  2  0
 19 15  1  0
 20 25  1  0
 21 27  1  0
 21 22  2  0
 23 22  1  0
 24 23  2  0
 25 26  2  0
 25 24  1  0
 26 21  1  0
  1 28  1  0
  2 29  1  0
  2 30  1  0
  3 31  1  0
  3 32  1  0
  4 33  1  0
  4 34  1  0
  7 35  1  0
  9 36  1  0
  9 37  1  0
  9 38  1  0
 12 39  1  0
 16 40  1  0
 18 41  1  0
 22 42  1  0
 23 43  1  0
 27 44  1  0
 27 45  1  0
 27 46  1  0
M  ISO  8  28   5  29  13  30  13  31  13  32  13  33  13  34  13  35  14
M  ISO  8  36   8  37   8  38   8  39   9  40  14  41  14  42  14  43  14
M  ISO  3  44   8  45   8  46   8
M  END
>  <minimizedAffinity>  (1) 
-5.99494743

>  <minimizedRMSD>  (1) 
2.26169324

$$$$
