
     RDKit          3D

 41 44  0  0  1  0  0  0  0  0999 V2000
   38.8590   25.6270   34.2620 C   0  0  0  0  0  0  0  0  0  0  0  0
   40.2400   25.4210   34.2180 C   0  0  0  0  0  0  0  0  0  0  0  0
   40.7140   26.2010   33.2450 N   0  0  0  0  0  0  0  0  0  0  0  0
   39.7220   26.8980   32.6620 C   0  0  0  0  0  0  0  0  0  0  0  0
   38.6060   26.5300   33.2980 N   0  0  0  0  0  0  0  0  0  0  0  0
   36.5800   27.3890   34.1950 N   0  0  0  0  0  0  0  0  0  0  0  0
   36.0350   28.6910   34.0020 C   0  0  0  0  0  0  0  0  0  0  0  0
   36.0010   28.8940   32.4860 C   0  0  0  0  0  0  0  0  0  0  0  0
   37.3520   28.2670   32.1270 C   0  0  0  0  0  0  0  0  0  0  0  0
   37.3040   27.0390   32.9880 C   0  0  1  0  0  0  0  0  0  0  0  0
   36.5830   25.9530   32.2360 C   0  0  0  0  0  0  0  0  0  0  0  0
   35.5550   26.3030   31.3900 C   0  0  0  0  0  0  0  0  0  0  0  0
   34.8380   25.3730   30.6630 C   0  0  0  0  0  0  0  0  0  0  0  0
   35.2020   24.0690   30.8190 N   0  0  0  0  0  0  0  0  0  0  0  0
   36.2150   23.7300   31.6510 C   0  0  0  0  0  0  0  0  0  0  0  0
   36.9140   24.6440   32.3630 N   0  0  0  0  0  0  0  0  0  0  0  0
   38.0360   24.9750   35.1580 O   0  0  0  0  0  0  0  0  0  0  0  0
   39.8290   22.8790   37.4500 C   0  0  0  0  0  0  0  0  0  0  0  0
   39.2130   23.1990   38.6750 C   0  0  0  0  0  0  0  0  0  0  0  0
   38.1810   24.1460   38.6560 C   0  0  0  0  0  0  0  0  0  0  0  0
   37.8260   24.7030   37.4940 N   0  0  0  0  0  0  0  0  0  0  0  0
   38.4560   24.3620   36.3170 C   0  0  0  0  0  0  0  0  0  0  0  0
   39.4540   23.4460   36.3260 N   0  0  0  0  0  0  0  0  0  0  0  0
   40.9020   21.8880   37.4700 C   0  0  0  0  0  0  0  0  0  0  0  0
   40.8237   24.7461   34.8613 H   0  0  0  0  0  0  0  0  0  0  0  0
   39.8109   27.6189   31.8359 H   0  0  0  0  0  0  0  0  0  0  0  0
   37.2205   27.3914   35.0016 H   0  0  0  0  0  0  0  0  0  0  0  0
   35.0198   28.7498   34.4214 H   0  0  0  0  0  0  0  0  0  0  0  0
   36.6330   29.4646   34.5060 H   0  0  0  0  0  0  0  0  0  0  0  0
   35.1613   28.3597   32.0175 H   0  0  0  0  0  0  0  0  0  0  0  0
   35.8588   29.9323   32.1519 H   0  0  0  0  0  0  0  0  0  0  0  0
   37.4141   28.0144   31.0582 H   0  0  0  0  0  0  0  0  0  0  0  0
   38.2240   28.9166   32.2933 H   0  0  0  0  0  0  0  0  0  0  0  0
   35.2940   27.3668   31.2889 H   0  0  0  0  0  0  0  0  0  0  0  0
   34.0168   25.6691   29.9937 H   0  0  0  0  0  0  0  0  0  0  0  0
   36.4808   22.6674   31.7523 H   0  0  0  0  0  0  0  0  0  0  0  0
   39.5310   22.7221   39.6139 H   0  0  0  0  0  0  0  0  0  0  0  0
   37.6683   24.4282   39.5874 H   0  0  0  0  0  0  0  0  0  0  0  0
   41.1609   21.6489   38.5120 H   0  0  0  0  0  0  0  0  0  0  0  0
   40.5672   20.9746   36.9565 H   0  0  0  0  0  0  0  0  0  0  0  0
   41.7859   22.2942   36.9565 H   0  0  0  0  0  0  0  0  0  0  0  0
  1 17  1  0
  2  1  2  0
  3  2  1  0
  4  3  2  0
  4  5  1  0
  5  1  1  0
  7  6  1  0
  8  7  1  0
  9  8  1  0
  9 10  1  0
 10 11  1  0
 10  5  1  1
 10  6  1  0
 11 16  1  0
 12 11  2  0
 13 14  2  0
 13 12  1  0
 14 15  1  0
 15 16  2  0
 17 22  1  0
 18 24  1  0
 18 19  2  0
 20 19  1  0
 21 20  2  0
 22 23  2  0
 22 21  1  0
 23 18  1  0
  2 25  1  0
  4 26  1  0
  6 27  1  0
  7 28  1  0
  7 29  1  0
  8 30  1  0
  8 31  1  0
  9 32  1  0
  9 33  1  0
 12 34  1  0
 13 35  1  0
 15 36  1  0
 19 37  1  0
 20 38  1  0
 24 39  1  0
 24 40  1  0
 24 41  1  0
M  ISO  8  25  14  26  14  27   5  28  13  29  13  30  13  31  13  32  13
M  ISO  8  33  13  34  14  35  14  36  14  37  14  38  14  39   8  40   8
M  ISO  1  41   8
M  END
>  <minimizedAffinity>  (1) 
-5.65491152

>  <minimizedRMSD>  (1) 
0.697500944

$$$$
