
     RDKit          3D

 47 51  0  0  1  0  0  0  0  0999 V2000
   36.8930   26.1850   32.6880 N   0  0  0  0  0  0  0  0  0  0  0  0
   35.9990   27.0710   32.0150 C   0  0  0  0  0  0  0  0  0  0  0  0
   36.5980   27.3270   30.6520 C   0  0  0  0  0  0  0  0  0  0  0  0
   38.0840   27.4360   31.0490 C   0  0  0  0  0  0  0  0  0  0  0  0
   38.1790   26.2950   32.0140 C   0  0  2  0  0  0  0  0  0  0  0  0
   38.3630   25.0370   31.2290 C   0  0  0  0  0  0  0  0  0  0  0  0
   39.2470   24.8000   30.1720 C   0  0  0  0  0  0  0  0  0  0  0  0
   39.1140   23.5370   29.7250 N   0  0  0  0  0  0  0  0  0  0  0  0
   38.1610   22.9570   30.4770 C   0  0  0  0  0  0  0  0  0  0  0  0
   37.6660   21.6720   30.4090 C   0  0  0  0  0  0  0  0  0  0  0  0
   36.6770   21.2860   31.2900 C   0  0  0  0  0  0  0  0  0  0  0  0
   36.1620   22.1430   32.2410 C   0  0  0  0  0  0  0  0  0  0  0  0
   36.6960   23.4250   32.2660 C   0  0  0  0  0  0  0  0  0  0  0  0
   37.6770   23.8500   31.4120 C   0  0  0  0  0  0  0  0  0  0  0  0
   39.2540   25.9100   34.1990 C   0  0  0  0  0  0  0  0  0  0  0  0
   40.4260   26.3750   34.7970 C   0  0  0  0  0  0  0  0  0  0  0  0
   41.0210   27.1940   33.9210 N   0  0  0  0  0  0  0  0  0  0  0  0
   40.2920   27.2810   32.7930 C   0  0  0  0  0  0  0  0  0  0  0  0
   39.2360   26.5010   32.9830 N   0  0  0  0  0  0  0  0  0  0  0  0
   38.3810   25.0380   34.8160 O   0  0  0  0  0  0  0  0  0  0  0  0
   39.8040   22.8990   37.3340 C   0  0  0  0  0  0  0  0  0  0  0  0
   39.0050   23.2160   38.4460 C   0  0  0  0  0  0  0  0  0  0  0  0
   38.0010   24.1600   38.2860 C   0  0  0  0  0  0  0  0  0  0  0  0
   37.8310   24.7310   37.0830 N   0  0  0  0  0  0  0  0  0  0  0  0
   38.6240   24.4030   36.0160 C   0  0  0  0  0  0  0  0  0  0  0  0
   39.5990   23.4880   36.1720 N   0  0  0  0  0  0  0  0  0  0  0  0
   40.8650   21.9070   37.4910 C   0  0  0  0  0  0  0  0  0  0  0  0
   36.9861   26.4583   33.6767 H   0  0  0  0  0  0  0  0  0  0  0  0
   35.0073   26.6061   31.9135 H   0  0  0  0  0  0  0  0  0  0  0  0
   35.8689   28.0083   32.5759 H   0  0  0  0  0  0  0  0  0  0  0  0
   36.2220   28.2597   30.2063 H   0  0  0  0  0  0  0  0  0  0  0  0
   36.3699   26.5688   29.8884 H   0  0  0  0  0  0  0  0  0  0  0  0
   38.7491   27.2958   30.1841 H   0  0  0  0  0  0  0  0  0  0  0  0
   38.3848   28.4130   31.4552 H   0  0  0  0  0  0  0  0  0  0  0  0
   39.9510   25.5401   29.7637 H   0  0  0  0  0  0  0  0  0  0  0  0
   39.6404   23.0991   28.9555 H   0  0  0  0  0  0  0  0  0  0  0  0
   38.0545   20.9639   29.6622 H   0  0  0  0  0  0  0  0  0  0  0  0
   36.2855   20.2597   31.2324 H   0  0  0  0  0  0  0  0  0  0  0  0
   35.3730   21.8286   32.9400 H   0  0  0  0  0  0  0  0  0  0  0  0
   36.3100   24.1359   33.0114 H   0  0  0  0  0  0  0  0  0  0  0  0
   40.7927   26.1166   35.8014 H   0  0  0  0  0  0  0  0  0  0  0  0
   40.5241   27.8764   31.8977 H   0  0  0  0  0  0  0  0  0  0  0  0
   39.1714   22.7283   39.4178 H   0  0  0  0  0  0  0  0  0  0  0  0
   37.3543   24.4363   39.1318 H   0  0  0  0  0  0  0  0  0  0  0  0
   41.0499   21.7342   38.5615 H   0  0  0  0  0  0  0  0  0  0  0  0
   40.5586   20.9639   37.0149 H   0  0  0  0  0  0  0  0  0  0  0  0
   41.7854   22.2760   37.0149 H   0  0  0  0  0  0  0  0  0  0  0  0
  2  1  1  0
  3  4  1  0
  3  2  1  0
  4  5  1  0
  5  6  1  0
  5  1  1  0
  5 19  1  1
  6 14  1  0
  7  6  2  0
  8  7  1  0
  8  9  1  0
  9 14  2  0
 10  9  1  0
 10 11  2  0
 11 12  1  0
 12 13  2  0
 14 13  1  0
 15 16  2  0
 15 20  1  0
 17 16  1  0
 18 19  1  0
 18 17  2  0
 19 15  1  0
 20 25  1  0
 21 27  1  0
 21 22  2  0
 23 22  1  0
 24 23  2  0
 25 26  2  0
 25 24  1  0
 26 21  1  0
  1 28  1  0
  2 29  1  0
  2 30  1  0
  3 31  1  0
  3 32  1  0
  4 33  1  0
  4 34  1  0
  7 35  1  0
  8 36  1  0
 10 37  1  0
 11 38  1  0
 12 39  1  0
 13 40  1  0
 16 41  1  0
 18 42  1  0
 22 43  1  0
 23 44  1  0
 27 45  1  0
 27 46  1  0
 27 47  1  0
M  ISO  8  28   5  29  13  30  13  31  13  32  13  33  13  34  13  35  14
M  ISO  8  36   9  37  14  38  14  39  14  40  14  41  14  42  14  43  14
M  ISO  4  44  14  45   8  46   8  47   8
M  END
>  <minimizedAffinity>  (1) 
-5.82633686

>  <minimizedRMSD>  (1) 
3.13219786

$$$$
