
     RDKit          3D

 51 54  0  0  1  0  0  0  0  0999 V2000
   36.7890   25.4230   31.9840 C   0  0  0  0  0  0  0  0  0  0  0  0
   37.4060   25.3570   33.2300 C   0  0  0  0  0  0  0  0  0  0  0  0
   37.4010   26.4050   34.0790 C   0  0  0  0  0  0  0  0  0  0  0  0
   36.7680   27.5300   33.6530 N   0  0  0  0  0  0  0  0  0  0  0  0
   36.1710   27.6240   32.4650 C   0  0  0  0  0  0  0  0  0  0  0  0
   36.1800   26.5980   31.6550 N   0  0  0  0  0  0  0  0  0  0  0  0
   38.0470   26.1990   35.3880 C   0  0  0  0  0  0  0  0  0  0  0  0
   37.9190   24.7940   35.8030 C   0  0  0  0  0  0  0  0  0  0  0  0
   39.1460   24.2790   36.3650 N   0  0  0  0  0  0  0  0  0  0  0  0
   39.8900   23.5300   35.3230 C   0  0  0  0  0  0  0  0  0  0  0  0
   40.9090   22.7770   36.1270 C   0  0  0  0  0  0  0  0  0  0  0  0
   40.3290   22.6800   37.5350 C   0  0  0  0  0  0  0  0  0  0  0  0
   38.9210   23.2200   37.2850 C   0  0  1  0  0  0  0  0  0  0  0  0
   38.3910   23.6610   38.6050 C   0  0  0  0  0  0  0  0  0  0  0  0
   39.2910   23.7330   39.6090 F   0  0  0  0  0  0  0  0  0  0  0  0
   37.2990   22.8850   38.9260 F   0  0  0  0  0  0  0  0  0  0  0  0
   37.9090   24.9850   38.4690 F   0  0  0  0  0  0  0  0  0  0  0  0
   35.5610   28.9100   32.0720 C   0  0  2  0  0  0  0  0  0  0  0  0
   36.3960   29.5560   30.9280 C   0  0  0  0  0  0  0  0  0  0  0  0
   35.4670   29.9070   33.1540 C   0  0  0  0  0  0  0  0  0  0  0  0
   34.2670   29.9610   33.9180 N   0  0  0  0  0  0  0  0  0  0  0  0
   33.0190   29.4630   33.8730 C   0  0  0  0  0  0  0  0  0  0  0  0
   32.2700   29.8220   34.9030 N   0  0  0  0  0  0  0  0  0  0  0  0
   33.0100   30.6080   35.7170 C   0  0  0  0  0  0  0  0  0  0  0  0
   32.6920   31.2280   36.9030 C   0  0  0  0  0  0  0  0  0  0  0  0
   33.6470   31.9490   37.4840 N   0  0  0  0  0  0  0  0  0  0  0  0
   34.8480   32.0360   36.8990 C   0  0  0  0  0  0  0  0  0  0  0  0
   35.1570   31.4300   35.7400 N   0  0  0  0  0  0  0  0  0  0  0  0
   34.2350   30.6770   35.0870 C   0  0  0  0  0  0  0  0  0  0  0  0
   36.7925   24.5654   31.2952 H   0  0  0  0  0  0  0  0  0  0  0  0
   37.9104   24.4266   33.5298 H   0  0  0  0  0  0  0  0  0  0  0  0
   39.1130   26.4596   35.3119 H   0  0  0  0  0  0  0  0  0  0  0  0
   37.5557   26.8397   36.1351 H   0  0  0  0  0  0  0  0  0  0  0  0
   37.1236   24.7186   36.5591 H   0  0  0  0  0  0  0  0  0  0  0  0
   37.6791   24.1978   34.9102 H   0  0  0  0  0  0  0  0  0  0  0  0
   40.3732   24.2146   34.6104 H   0  0  0  0  0  0  0  0  0  0  0  0
   39.2490   22.8799   34.7094 H   0  0  0  0  0  0  0  0  0  0  0  0
   41.0651   21.7729   35.7058 H   0  0  0  0  0  0  0  0  0  0  0  0
   41.8860   23.2825   36.1227 H   0  0  0  0  0  0  0  0  0  0  0  0
   40.3088   21.6414   37.8967 H   0  0  0  0  0  0  0  0  0  0  0  0
   40.8991   23.2175   38.3070 H   0  0  0  0  0  0  0  0  0  0  0  0
   38.1817   22.5168   36.8739 H   0  0  0  0  0  0  0  0  0  0  0  0
   34.5359   28.6550   31.7651 H   0  0  0  0  0  0  0  0  0  0  0  0
   37.1955   30.1745   31.3619 H   0  0  0  0  0  0  0  0  0  0  0  0
   36.8409   28.7646   30.3069 H   0  0  0  0  0  0  0  0  0  0  0  0
   35.7417   30.1853   30.3069 H   0  0  0  0  0  0  0  0  0  0  0  0
   36.2908   29.7061   33.8548 H   0  0  0  0  0  0  0  0  0  0  0  0
   35.5028   30.8761   32.6348 H   0  0  0  0  0  0  0  0  0  0  0  0
   32.6556   28.8192   33.0585 H   0  0  0  0  0  0  0  0  0  0  0  0
   31.6921   31.1318   37.3512 H   0  0  0  0  0  0  0  0  0  0  0  0
   35.6249   32.6368   37.3944 H   0  0  0  0  0  0  0  0  0  0  0  0
  1  2  2  0
  2  3  1  0
  3  7  1  0
  4  3  2  0
  5  4  1  0
  6  1  1  0
  6  5  2  0
  7  8  1  0
  8  9  1  0
  9 13  1  0
 10 11  1  0
 10  9  1  0
 11 12  1  0
 13 12  1  0
 13 14  1  0
 14 16  1  0
 14 15  1  0
 17 14  1  0
 18  5  1  0
 18 20  1  0
 19 18  1  0
 20 21  1  0
 21 29  1  0
 22 21  1  0
 22 23  2  0
 23 24  1  0
 24 25  2  0
 25 26  1  0
 27 26  2  0
 28 27  1  0
 29 24  1  0
 29 28  2  0
  1 30  1  0
  2 31  1  0
  7 32  1  0
  7 33  1  0
  8 34  1  0
  8 35  1  0
 10 36  1  0
 10 37  1  0
 11 38  1  0
 11 39  1  0
 12 40  1  0
 12 41  1  0
 13 42  1  6
 18 43  1  6
 19 44  1  0
 19 45  1  0
 19 46  1  0
 20 47  1  0
 20 48  1  0
 22 49  1  0
 25 50  1  0
 27 51  1  0
M  ISO  8  30  14  31  14  32   8  33   8  34   8  35   8  36  13  37  13
M  ISO  8  38  13  39  13  40  13  41  13  42  13  43   8  44   8  45   8
M  ISO  6  46   8  47   8  48   8  49  14  50  14  51  14
M  END
>  <minimizedAffinity>  (1) 
-6.5251689

>  <minimizedRMSD>  (1) 
0.837212086

$$$$
