
     RDKit          3D

 40 43  0  0  1  0  0  0  0  0999 V2000
   38.9110   24.6470   33.5930 C   0  0  0  0  0  0  0  0  0  0  0  0
   40.2000   24.2340   33.2850 C   0  0  0  0  0  0  0  0  0  0  0  0
   40.6580   25.0590   32.3330 N   0  0  0  0  0  0  0  0  0  0  0  0
   39.7370   25.9810   32.0100 C   0  0  0  0  0  0  0  0  0  0  0  0
   38.6930   25.7110   32.7820 N   0  0  0  0  0  0  0  0  0  0  0  0
   36.9100   26.5670   34.1180 N   0  0  0  0  0  0  0  0  0  0  0  0
   36.5810   27.9470   34.3250 C   0  0  0  0  0  0  0  0  0  0  0  0
   36.4530   28.5450   32.9250 C   0  0  0  0  0  0  0  0  0  0  0  0
   37.6640   27.8560   32.2840 C   0  0  0  0  0  0  0  0  0  0  0  0
   37.4470   26.4500   32.7860 C   0  0  1  0  0  0  0  0  0  0  0  0
   36.4220   25.7280   31.9640 C   0  0  0  0  0  0  0  0  0  0  0  0
   36.3490   24.3560   31.8010 C   0  0  0  0  0  0  0  0  0  0  0  0
   35.2810   24.1180   30.9860 N   0  0  0  0  0  0  0  0  0  0  0  0
   34.6970   25.2870   30.6440 C   0  0  0  0  0  0  0  0  0  0  0  0
   35.3990   26.2620   31.2440 N   0  0  0  0  0  0  0  0  0  0  0  0
   38.1320   24.0210   34.5370 O   0  0  0  0  0  0  0  0  0  0  0  0
   39.9490   22.6670   37.3410 C   0  0  0  0  0  0  0  0  0  0  0  0
   39.2440   23.2170   38.4180 C   0  0  0  0  0  0  0  0  0  0  0  0
   38.1500   24.0480   38.1480 C   0  0  0  0  0  0  0  0  0  0  0  0
   37.8250   24.2820   36.8640 N   0  0  0  0  0  0  0  0  0  0  0  0
   38.5320   23.7310   35.8300 C   0  0  0  0  0  0  0  0  0  0  0  0
   39.5790   22.9350   36.1080 N   0  0  0  0  0  0  0  0  0  0  0  0
   41.0910   21.8000   37.6040 C   0  0  0  0  0  0  0  0  0  0  0  0
   40.7424   23.3902   33.7364 H   0  0  0  0  0  0  0  0  0  0  0  0
   39.8286   26.7861   31.2661 H   0  0  0  0  0  0  0  0  0  0  0  0
   37.6115   26.2644   34.8088 H   0  0  0  0  0  0  0  0  0  0  0  0
   35.6308   28.0388   34.8716 H   0  0  0  0  0  0  0  0  0  0  0  0
   37.3441   28.4652   34.9242 H   0  0  0  0  0  0  0  0  0  0  0  0
   35.5079   28.2641   32.4372 H   0  0  0  0  0  0  0  0  0  0  0  0
   36.4387   29.6435   32.8699 H   0  0  0  0  0  0  0  0  0  0  0  0
   38.6140   28.2779   32.6439 H   0  0  0  0  0  0  0  0  0  0  0  0
   37.7348   27.9565   31.1909 H   0  0  0  0  0  0  0  0  0  0  0  0
   37.0204   23.6045   32.2420 H   0  0  0  0  0  0  0  0  0  0  0  0
   33.8159   25.4156   29.9982 H   0  0  0  0  0  0  0  0  0  0  0  0
   35.1926   27.2684   31.1697 H   0  0  0  0  0  0  0  0  0  0  0  0
   39.5431   23.0009   39.4543 H   0  0  0  0  0  0  0  0  0  0  0  0
   37.5700   24.4989   38.9667 H   0  0  0  0  0  0  0  0  0  0  0  0
   41.2292   21.6951   38.6902 H   0  0  0  0  0  0  0  0  0  0  0  0
   40.9097   20.8100   37.1601 H   0  0  0  0  0  0  0  0  0  0  0  0
   41.9958   22.2407   37.1601 H   0  0  0  0  0  0  0  0  0  0  0  0
  1 16  1  0
  2  1  2  0
  3  2  1  0
  4  3  2  0
  4  5  1  0
 10  5  1  1
  5  1  1  0
  6  7  1  0
  8  7  1  0
  9 10  1  0
  9  8  1  0
 10 11  1  0
 10  6  1  0
 12 11  2  0
 13 12  1  0
 14 13  2  0
 14 15  1  0
 15 11  1  0
 16 21  1  0
 17 23  1  0
 17 18  2  0
 19 18  1  0
 20 19  2  0
 21 22  2  0
 21 20  1  0
 22 17  1  0
  2 24  1  0
  4 25  1  0
  6 26  1  0
  7 27  1  0
  7 28  1  0
  8 29  1  0
  8 30  1  0
  9 31  1  0
  9 32  1  0
 12 33  1  0
 14 34  1  0
 15 35  1  0
 18 36  1  0
 19 37  1  0
 23 38  1  0
 23 39  1  0
 23 40  1  0
M  ISO  8  24  14  25  14  26   5  27  13  28  13  29  13  30  13  31  13
M  ISO  8  32  13  33  14  34  14  35   9  36  14  37  14  38   8  39   8
M  ISO  1  40   8
M  END
>  <minimizedAffinity>  (1) 
-5.51775503

>  <minimizedRMSD>  (1) 
0.921212375

$$$$
