
     RDKit          3D

 39 42  0  0  1  0  0  0  0  0999 V2000
   38.7710   25.2600   34.0910 C   0  0  0  0  0  0  0  0  0  0  0  0
   40.0890   24.8600   33.9210 C   0  0  0  0  0  0  0  0  0  0  0  0
   40.5530   25.5270   32.8540 N   0  0  0  0  0  0  0  0  0  0  0  0
   39.6070   26.3260   32.3360 C   0  0  0  0  0  0  0  0  0  0  0  0
   38.5330   26.1450   33.1080 N   0  0  0  0  0  0  0  0  0  0  0  0
   36.6550   27.1320   34.1770 N   0  0  0  0  0  0  0  0  0  0  0  0
   36.2550   28.5010   34.1330 C   0  0  0  0  0  0  0  0  0  0  0  0
   36.1820   28.8470   32.6500 C   0  0  0  0  0  0  0  0  0  0  0  0
   37.4200   28.0980   32.1490 C   0  0  0  0  0  0  0  0  0  0  0  0
   37.2690   26.8100   32.9200 C   0  0  1  0  0  0  0  0  0  0  0  0
   36.4340   25.8620   32.0880 C   0  0  0  0  0  0  0  0  0  0  0  0
   36.8200   24.5140   32.2520 C   0  0  0  0  0  0  0  0  0  0  0  0
   35.6630   23.7020   31.1600 S   0  0  0  0  0  0  0  0  0  0  0  0
   34.8310   25.2490   30.6390 C   0  0  0  0  0  0  0  0  0  0  0  0
   35.4760   26.3350   31.3250 N   0  0  0  0  0  0  0  0  0  0  0  0
   37.9760   24.7700   35.1060 O   0  0  0  0  0  0  0  0  0  0  0  0
   39.8490   22.8340   37.4820 C   0  0  0  0  0  0  0  0  0  0  0  0
   39.2340   23.2090   38.6890 C   0  0  0  0  0  0  0  0  0  0  0  0
   38.1820   24.1250   38.6420 C   0  0  0  0  0  0  0  0  0  0  0  0
   37.8080   24.6050   37.4440 N   0  0  0  0  0  0  0  0  0  0  0  0
   38.4330   24.2180   36.2860 C   0  0  0  0  0  0  0  0  0  0  0  0
   39.4430   23.3360   36.3410 N   0  0  0  0  0  0  0  0  0  0  0  0
   40.9510   21.8730   37.5240 C   0  0  0  0  0  0  0  0  0  0  0  0
   40.6434   24.1386   34.5392 H   0  0  0  0  0  0  0  0  0  0  0  0
   39.6973   26.9882   31.4623 H   0  0  0  0  0  0  0  0  0  0  0  0
   37.3292   26.9890   34.9424 H   0  0  0  0  0  0  0  0  0  0  0  0
   35.2717   28.6313   34.6086 H   0  0  0  0  0  0  0  0  0  0  0  0
   36.9570   29.1527   34.6738 H   0  0  0  0  0  0  0  0  0  0  0  0
   35.2590   28.4688   32.1862 H   0  0  0  0  0  0  0  0  0  0  0  0
   36.1644   29.9231   32.4227 H   0  0  0  0  0  0  0  0  0  0  0  0
   37.3854   27.9310   31.0623 H   0  0  0  0  0  0  0  0  0  0  0  0
   38.3749   28.6225   32.3010 H   0  0  0  0  0  0  0  0  0  0  0  0
   37.6141   24.0827   32.8792 H   0  0  0  0  0  0  0  0  0  0  0  0
   33.9926   25.3315   29.9317 H   0  0  0  0  0  0  0  0  0  0  0  0
   39.5738   22.7905   39.6479 H   0  0  0  0  0  0  0  0  0  0  0  0
   37.6720   24.4458   39.5623 H   0  0  0  0  0  0  0  0  0  0  0  0
   41.2048   21.6517   38.5712 H   0  0  0  0  0  0  0  0  0  0  0  0
   40.6482   20.9454   37.0162 H   0  0  0  0  0  0  0  0  0  0  0  0
   41.8288   22.2992   37.0162 H   0  0  0  0  0  0  0  0  0  0  0  0
  1 16  1  0
  2  1  2  0
  3  2  1  0
  4  3  2  0
  4  5  1  0
  5  1  1  0
  7  6  1  0
  8  7  1  0
  9  8  1  0
  9 10  1  0
 10 11  1  0
 10  5  1  1
 10  6  1  0
 11 12  2  0
 13 12  1  0
 14 13  1  0
 14 15  2  0
 15 11  1  0
 16 21  1  0
 17 23  1  0
 17 18  2  0
 19 18  1  0
 20 19  2  0
 21 22  2  0
 21 20  1  0
 22 17  1  0
  2 24  1  0
  4 25  1  0
  6 26  1  0
  7 27  1  0
  7 28  1  0
  8 29  1  0
  8 30  1  0
  9 31  1  0
  9 32  1  0
 12 33  1  0
 14 34  1  0
 18 35  1  0
 19 36  1  0
 23 37  1  0
 23 38  1  0
 23 39  1  0
M  ISO  8  24  14  25  14  26   5  27  13  28  13  29  13  30  13  31  13
M  ISO  8  32  13  33  14  34  14  35  14  36  14  37   8  38   8  39   8
M  END
>  <minimizedAffinity>  (1) 
-5.50654554

>  <minimizedRMSD>  (1) 
0.717421949

$$$$
