
     RDKit          3D

 40 43  0  0  1  0  0  0  0  0999 V2000
   38.8390   24.9540   33.8910 C   0  0  0  0  0  0  0  0  0  0  0  0
   40.1480   24.5480   33.6400 C   0  0  0  0  0  0  0  0  0  0  0  0
   40.6160   25.3150   32.6460 N   0  0  0  0  0  0  0  0  0  0  0  0
   39.6790   26.1890   32.2490 C   0  0  0  0  0  0  0  0  0  0  0  0
   38.6220   25.9550   33.0100 N   0  0  0  0  0  0  0  0  0  0  0  0
   36.7910   26.8430   34.2560 N   0  0  0  0  0  0  0  0  0  0  0  0
   36.4180   28.2060   34.3910 C   0  0  0  0  0  0  0  0  0  0  0  0
   36.3470   28.7640   32.9790 C   0  0  0  0  0  0  0  0  0  0  0  0
   37.5500   28.0420   32.3530 C   0  0  0  0  0  0  0  0  0  0  0  0
   37.3600   26.6710   32.9280 C   0  0  1  0  0  0  0  0  0  0  0  0
   36.4280   25.9050   32.0600 C   0  0  0  0  0  0  0  0  0  0  0  0
   35.3980   26.1010   31.2420 C   0  0  0  0  0  0  0  0  0  0  0  0
   34.7770   25.0730   30.6000 C   0  0  0  0  0  0  0  0  0  0  0  0
   35.3300   23.7550   30.8820 C   0  0  0  0  0  0  0  0  0  0  0  0
   36.7320   24.1700   32.0850 S   0  0  0  0  0  0  0  0  0  0  0  0
   38.0440   24.3790   34.8590 O   0  0  0  0  0  0  0  0  0  0  0  0
   39.8950   22.7600   37.4770 C   0  0  0  0  0  0  0  0  0  0  0  0
   39.2280   23.2200   38.6200 C   0  0  0  0  0  0  0  0  0  0  0  0
   38.1580   24.0750   38.4430 C   0  0  0  0  0  0  0  0  0  0  0  0
   37.8090   24.4260   37.2010 N   0  0  0  0  0  0  0  0  0  0  0  0
   38.4770   23.9630   36.0960 C   0  0  0  0  0  0  0  0  0  0  0  0
   39.5140   23.1340   36.2650 N   0  0  0  0  0  0  0  0  0  0  0  0
   41.0470   21.8430   37.6050 C   0  0  0  0  0  0  0  0  0  0  0  0
   40.6947   23.7478   34.1603 H   0  0  0  0  0  0  0  0  0  0  0  0
   39.7704   26.9444   31.4547 H   0  0  0  0  0  0  0  0  0  0  0  0
   37.4898   26.5977   34.9718 H   0  0  0  0  0  0  0  0  0  0  0  0
   35.4377   28.2868   34.8834 H   0  0  0  0  0  0  0  0  0  0  0  0
   37.1400   28.7616   35.0074 H   0  0  0  0  0  0  0  0  0  0  0  0
   35.4040   28.4962   32.4800 H   0  0  0  0  0  0  0  0  0  0  0  0
   36.3750   29.8615   32.9100 H   0  0  0  0  0  0  0  0  0  0  0  0
   38.5040   28.4887   32.6697 H   0  0  0  0  0  0  0  0  0  0  0  0
   37.5933   28.0814   31.2546 H   0  0  0  0  0  0  0  0  0  0  0  0
   35.0359   27.1268   31.0786 H   0  0  0  0  0  0  0  0  0  0  0  0
   33.9246   25.2258   29.9217 H   0  0  0  0  0  0  0  0  0  0  0  0
   35.0150   22.7741   30.4964 H   0  0  0  0  0  0  0  0  0  0  0  0
   39.5464   22.9100   39.6263 H   0  0  0  0  0  0  0  0  0  0  0  0
   37.6018   24.4610   39.3100 H   0  0  0  0  0  0  0  0  0  0  0  0
   41.2625   21.6714   38.6699 H   0  0  0  0  0  0  0  0  0  0  0  0
   40.8086   20.8848   37.1202 H   0  0  0  0  0  0  0  0  0  0  0  0
   41.9273   22.2902   37.1202 H   0  0  0  0  0  0  0  0  0  0  0  0
  1 16  1  0
  2  1  2  0
  3  2  1  0
  4  3  2  0
  4  5  1  0
  5  1  1  0
  6  7  1  0
  8  7  1  0
  9 10  1  0
  9  8  1  0
 10 11  1  0
 10  5  1  1
 10  6  1  0
 11 15  1  0
 12 11  2  0
 13 14  2  0
 13 12  1  0
 14 15  1  0
 16 21  1  0
 17 23  1  0
 17 18  2  0
 19 18  1  0
 20 19  2  0
 21 22  2  0
 21 20  1  0
 22 17  1  0
  2 24  1  0
  4 25  1  0
  6 26  1  0
  7 27  1  0
  7 28  1  0
  8 29  1  0
  8 30  1  0
  9 31  1  0
  9 32  1  0
 12 33  1  0
 13 34  1  0
 14 35  1  0
 18 36  1  0
 19 37  1  0
 23 38  1  0
 23 39  1  0
 23 40  1  0
M  ISO  8  24  14  25  14  26   5  27  13  28  13  29  13  30  13  31  13
M  ISO  8  32  13  33  14  34  14  35  14  36  14  37  14  38   8  39   8
M  ISO  1  40   8
M  END
>  <minimizedAffinity>  (1) 
-5.39610958

>  <minimizedRMSD>  (1) 
0.764895678

$$$$
