
     RDKit          3D

 40 43  0  0  1  0  0  0  0  0999 V2000
   39.0110   25.3270   33.7240 C   0  0  0  0  0  0  0  0  0  0  0  0
   40.3890   25.2140   33.5400 C   0  0  0  0  0  0  0  0  0  0  0  0
   40.7670   26.2590   32.7810 N   0  0  0  0  0  0  0  0  0  0  0  0
   39.7030   27.0210   32.4770 C   0  0  0  0  0  0  0  0  0  0  0  0
   38.6650   26.4410   33.0550 N   0  0  0  0  0  0  0  0  0  0  0  0
   36.7550   27.1350   34.3150 N   0  0  0  0  0  0  0  0  0  0  0  0
   36.2040   28.4470   34.3440 C   0  0  0  0  0  0  0  0  0  0  0  0
   35.9700   28.8360   32.9080 C   0  0  0  0  0  0  0  0  0  0  0  0
   37.2060   28.2310   32.2420 C   0  0  0  0  0  0  0  0  0  0  0  0
   37.3170   26.9380   32.9820 C   0  0  1  0  0  0  0  0  0  0  0  0
   36.5050   25.8300   32.3440 C   0  0  0  0  0  0  0  0  0  0  0  0
   36.9320   25.2690   31.0010 C   0  0  0  0  0  0  0  0  0  0  0  0
   35.6230   26.0390   31.1910 C   0  0  0  0  0  0  0  0  0  0  0  0
   38.2860   24.4140   34.4610 O   0  0  0  0  0  0  0  0  0  0  0  0
   39.8160   22.8230   37.2910 C   0  0  0  0  0  0  0  0  0  0  0  0
   39.0250   23.3120   38.3530 C   0  0  0  0  0  0  0  0  0  0  0  0
   37.9890   24.1810   38.0340 C   0  0  0  0  0  0  0  0  0  0  0  0
   37.7860   24.5120   36.7440 N   0  0  0  0  0  0  0  0  0  0  0  0
   38.5680   24.0200   35.7470 C   0  0  0  0  0  0  0  0  0  0  0  0
   39.5750   23.1770   36.0520 N   0  0  0  0  0  0  0  0  0  0  0  0
   40.9130   21.9070   37.6020 C   0  0  0  0  0  0  0  0  0  0  0  0
   41.0412   24.4230   33.9386 H   0  0  0  0  0  0  0  0  0  0  0  0
   39.6968   27.9392   31.8713 H   0  0  0  0  0  0  0  0  0  0  0  0
   37.4937   27.0457   35.0272 H   0  0  0  0  0  0  0  0  0  0  0  0
   35.2545   28.4497   34.8994 H   0  0  0  0  0  0  0  0  0  0  0  0
   36.8800   29.1548   34.8461 H   0  0  0  0  0  0  0  0  0  0  0  0
   35.0419   28.3951   32.5153 H   0  0  0  0  0  0  0  0  0  0  0  0
   35.8470   29.9166   32.7432 H   0  0  0  0  0  0  0  0  0  0  0  0
   37.0477   28.0692   31.1655 H   0  0  0  0  0  0  0  0  0  0  0  0
   38.1052   28.8627   32.2908 H   0  0  0  0  0  0  0  0  0  0  0  0
   36.3308   25.4238   33.3513 H   0  0  0  0  0  0  0  0  0  0  0  0
   36.9185   24.1839   30.8212 H   0  0  0  0  0  0  0  0  0  0  0  0
   37.8150   25.3562   30.3508 H   0  0  0  0  0  0  0  0  0  0  0  0
   35.5121   27.0455   30.7614 H   0  0  0  0  0  0  0  0  0  0  0  0
   34.5643   25.8286   30.9791 H   0  0  0  0  0  0  0  0  0  0  0  0
   39.2215   23.0161   39.3941 H   0  0  0  0  0  0  0  0  0  0  0  0
   37.3435   24.5930   38.8237 H   0  0  0  0  0  0  0  0  0  0  0  0
   41.0187   21.8187   38.6933 H   0  0  0  0  0  0  0  0  0  0  0  0
   40.6970   20.9173   37.1733 H   0  0  0  0  0  0  0  0  0  0  0  0
   41.8483   22.2961   37.1733 H   0  0  0  0  0  0  0  0  0  0  0  0
  1 14  1  0
  2  1  2  0
  3  2  1  0
  4  3  2  0
  4  5  1  0
  5  1  1  0
  6  7  1  0
  8  7  1  0
  9  8  1  0
  9 10  1  0
 10 11  1  0
 10  5  1  1
 10  6  1  0
 12 13  1  0
 12 11  1  0
 13 11  1  0
 14 19  1  0
 15 21  1  0
 15 16  2  0
 17 16  1  0
 18 17  2  0
 19 20  2  0
 19 18  1  0
 20 15  1  0
  2 22  1  0
  4 23  1  0
  6 24  1  0
  7 25  1  0
  7 26  1  0
  8 27  1  0
  8 28  1  0
  9 29  1  0
  9 30  1  0
 11 31  1  0
 12 32  1  0
 12 33  1  0
 13 34  1  0
 13 35  1  0
 16 36  1  0
 17 37  1  0
 21 38  1  0
 21 39  1  0
 21 40  1  0
M  ISO  8  22  14  23  14  24   5  25  13  26  13  27  13  28  13  29  13
M  ISO  8  30  13  31  13  32  13  33  13  34  13  35  13  36  14  37  14
M  ISO  3  38   8  39   8  40   8
M  END
>  <minimizedAffinity>  (1) 
-5.02174139

>  <minimizedRMSD>  (1) 
0.427975833

$$$$
