
     RDKit          3D

 34 36  0  0  1  0  0  0  0  0999 V2000
   39.0500   25.3510   33.6890 C   0  0  0  0  0  0  0  0  0  0  0  0
   40.4340   25.2390   33.5850 C   0  0  0  0  0  0  0  0  0  0  0  0
   40.8510   26.2480   32.8120 N   0  0  0  0  0  0  0  0  0  0  0  0
   39.8070   26.9990   32.4160 C   0  0  0  0  0  0  0  0  0  0  0  0
   38.7330   26.4410   32.9560 N   0  0  0  0  0  0  0  0  0  0  0  0
   36.7410   27.1210   34.0650 N   0  0  0  0  0  0  0  0  0  0  0  0
   36.1650   28.4280   34.0530 C   0  0  0  0  0  0  0  0  0  0  0  0
   36.0080   28.7760   32.5760 C   0  0  0  0  0  0  0  0  0  0  0  0
   37.3580   28.2380   32.0620 C   0  0  0  0  0  0  0  0  0  0  0  0
   37.3940   26.9260   32.7880 C   0  0  1  0  0  0  0  0  0  0  0  0
   36.3970   25.7060   31.8700 S   0  0  0  0  0  0  0  0  0  0  0  0
   38.2810   24.4660   34.4200 O   0  0  0  0  0  0  0  0  0  0  0  0
   39.7890   22.8460   37.2440 C   0  0  0  0  0  0  0  0  0  0  0  0
   38.9990   23.3310   38.3100 C   0  0  0  0  0  0  0  0  0  0  0  0
   37.9620   24.2090   38.0080 C   0  0  0  0  0  0  0  0  0  0  0  0
   37.7630   24.5530   36.7220 N   0  0  0  0  0  0  0  0  0  0  0  0
   38.5510   24.0640   35.7110 C   0  0  0  0  0  0  0  0  0  0  0  0
   39.5540   23.2140   36.0060 N   0  0  0  0  0  0  0  0  0  0  0  0
   40.8750   21.9260   37.5640 C   0  0  0  0  0  0  0  0  0  0  0  0
   41.0648   24.4672   34.0502 H   0  0  0  0  0  0  0  0  0  0  0  0
   39.8385   27.8927   31.7755 H   0  0  0  0  0  0  0  0  0  0  0  0
   37.4292   27.0462   34.8277 H   0  0  0  0  0  0  0  0  0  0  0  0
   35.1865   28.4240   34.5555 H   0  0  0  0  0  0  0  0  0  0  0  0
   36.7895   29.1600   34.5861 H   0  0  0  0  0  0  0  0  0  0  0  0
   35.1542   28.2558   32.1173 H   0  0  0  0  0  0  0  0  0  0  0  0
   35.8039   29.8344   32.3565 H   0  0  0  0  0  0  0  0  0  0  0  0
   37.3571   28.1030   30.9703 H   0  0  0  0  0  0  0  0  0  0  0  0
   38.2221   28.8952   32.2393 H   0  0  0  0  0  0  0  0  0  0  0  0
   35.7358   24.8970   32.7561 H   0  0  0  0  0  0  0  0  0  0  0  0
   39.1974   23.0240   39.3475 H   0  0  0  0  0  0  0  0  0  0  0  0
   37.3187   24.6132   38.8035 H   0  0  0  0  0  0  0  0  0  0  0  0
   40.9744   21.8418   38.6563 H   0  0  0  0  0  0  0  0  0  0  0  0
   40.6542   20.9359   37.1385 H   0  0  0  0  0  0  0  0  0  0  0  0
   41.8153   22.3065   37.1385 H   0  0  0  0  0  0  0  0  0  0  0  0
  1 12  1  0
  2  1  2  0
  3  2  1  0
  4  3  2  0
  4  5  1  0
  5  1  1  0
  7  6  1  0
  8  7  1  0
  9  8  1  0
  9 10  1  0
 10 11  1  6
 10  5  1  0
 10  6  1  0
 12 17  1  0
 13 19  1  0
 13 14  2  0
 15 14  1  0
 16 15  2  0
 17 18  2  0
 17 16  1  0
 18 13  1  0
  2 20  1  0
  4 21  1  0
  6 22  1  0
  7 23  1  0
  7 24  1  0
  8 25  1  0
  8 26  1  0
  9 27  1  0
  9 28  1  0
 11 29  1  0
 14 30  1  0
 15 31  1  0
 19 32  1  0
 19 33  1  0
 19 34  1  0
M  ISO  8  20  14  21  14  22   5  23  13  24  13  25  13  26  13  27  13
M  ISO  7  28  13  29  11  30  14  31  14  32   8  33   8  34   8
M  END
>  <minimizedAffinity>  (1) 
-4.68694067

>  <minimizedRMSD>  (1) 
0.416269809

$$$$
