
     RDKit          3D

 48 50  0  0  1  0  0  0  0  0999 V2000
   36.6710   26.1420   32.1750 C   0  0  0  0  0  0  0  0  0  0  0  0
   37.3450   25.9320   33.3720 C   0  0  0  0  0  0  0  0  0  0  0  0
   37.3030   26.8320   34.3750 C   0  0  0  0  0  0  0  0  0  0  0  0
   36.5780   27.9680   34.1770 N   0  0  0  0  0  0  0  0  0  0  0  0
   35.9210   28.1910   33.0260 C   0  0  0  0  0  0  0  0  0  0  0  0
   35.9640   27.3060   32.0580 N   0  0  0  0  0  0  0  0  0  0  0  0
   38.0070   26.4700   35.6220 C   0  0  0  0  0  0  0  0  0  0  0  0
   37.8320   25.0400   35.9100 C   0  0  0  0  0  0  0  0  0  0  0  0
   39.0540   24.4300   36.3790 N   0  0  0  0  0  0  0  0  0  0  0  0
   39.7190   23.7270   35.2520 C   0  0  0  0  0  0  0  0  0  0  0  0
   40.7620   22.9100   35.9720 C   0  0  0  0  0  0  0  0  0  0  0  0
   40.2010   22.6940   37.3790 C   0  0  0  0  0  0  0  0  0  0  0  0
   38.8170   23.3090   37.2190 C   0  0  1  0  0  0  0  0  0  0  0  0
   38.3530   23.6820   38.6020 C   0  0  0  0  0  0  0  0  0  0  0  0
   39.3180   23.6960   39.5500 F   0  0  0  0  0  0  0  0  0  0  0  0
   37.2930   22.8770   38.9330 F   0  0  0  0  0  0  0  0  0  0  0  0
   37.8670   25.0040   38.5640 F   0  0  0  0  0  0  0  0  0  0  0  0
   35.1890   29.4760   32.8480 C   0  0  2  0  0  0  0  0  0  0  0  0
   35.4710   30.0260   31.4190 C   0  0  0  0  0  0  0  0  0  0  0  0
   35.6150   30.5250   33.7860 C   0  0  0  0  0  0  0  0  0  0  0  0
   34.7710   30.8340   34.9280 C   0  0  0  0  0  0  0  0  0  0  0  0
   33.4740   30.5010   35.2590 C   0  0  0  0  0  0  0  0  0  0  0  0
   32.8730   30.9310   36.4130 C   0  0  0  0  0  0  0  0  0  0  0  0
   33.5410   31.7060   37.2750 N   0  0  0  0  0  0  0  0  0  0  0  0
   34.8060   32.0380   36.9650 C   0  0  0  0  0  0  0  0  0  0  0  0
   35.4330   31.6270   35.8260 N   0  0  0  0  0  0  0  0  0  0  0  0
   36.7049   25.4052   31.3589 H   0  0  0  0  0  0  0  0  0  0  0  0
   37.9274   25.0083   33.5045 H   0  0  0  0  0  0  0  0  0  0  0  0
   39.0791   26.6890   35.5100 H   0  0  0  0  0  0  0  0  0  0  0  0
   37.5872   27.0562   36.4528 H   0  0  0  0  0  0  0  0  0  0  0  0
   37.0581   24.9254   36.6833 H   0  0  0  0  0  0  0  0  0  0  0  0
   37.5381   24.5384   34.9762 H   0  0  0  0  0  0  0  0  0  0  0  0
   40.1806   24.4390   34.5521 H   0  0  0  0  0  0  0  0  0  0  0  0
   39.0338   23.1295   34.6327 H   0  0  0  0  0  0  0  0  0  0  0  0
   40.9143   21.9457   35.4651 H   0  0  0  0  0  0  0  0  0  0  0  0
   41.7388   23.4154   35.9918 H   0  0  0  0  0  0  0  0  0  0  0  0
   40.1443   21.6256   37.6347 H   0  0  0  0  0  0  0  0  0  0  0  0
   40.8069   23.1290   38.1875 H   0  0  0  0  0  0  0  0  0  0  0  0
   38.0387   22.6671   36.7806 H   0  0  0  0  0  0  0  0  0  0  0  0
   34.1269   29.2508   33.0250 H   0  0  0  0  0  0  0  0  0  0  0  0
   35.9717   31.0025   31.4942 H   0  0  0  0  0  0  0  0  0  0  0  0
   36.1195   29.3222   30.8766 H   0  0  0  0  0  0  0  0  0  0  0  0
   34.5211   30.1418   30.8766 H   0  0  0  0  0  0  0  0  0  0  0  0
   36.5960   30.2241   34.1823 H   0  0  0  0  0  0  0  0  0  0  0  0
   35.5897   31.4445   33.1827 H   0  0  0  0  0  0  0  0  0  0  0  0
   32.8994   29.8652   34.5694 H   0  0  0  0  0  0  0  0  0  0  0  0
   31.8357   30.6374   36.6318 H   0  0  0  0  0  0  0  0  0  0  0  0
   35.3647   32.6746   37.6669 H   0  0  0  0  0  0  0  0  0  0  0  0
  1  2  2  0
  2  3  1  0
  3  7  1  0
  4  3  2  0
  5  4  1  0
  6  1  1  0
  6  5  2  0
  7  8  1  0
  8  9  1  0
  9 13  1  0
 10 11  1  0
 10  9  1  0
 11 12  1  0
 13 12  1  0
 13 14  1  0
 14 16  1  0
 14 15  1  0
 17 14  1  0
 18  5  1  0
 18 20  1  0
 19 18  1  0
 20 21  1  0
 21 22  2  0
 21 26  1  0
 22 23  1  0
 23 24  2  0
 25 24  1  0
 26 25  2  0
  1 27  1  0
  2 28  1  0
  7 29  1  0
  7 30  1  0
  8 31  1  0
  8 32  1  0
 10 33  1  0
 10 34  1  0
 11 35  1  0
 11 36  1  0
 12 37  1  0
 12 38  1  0
 13 39  1  6
 18 40  1  6
 19 41  1  0
 19 42  1  0
 19 43  1  0
 20 44  1  0
 20 45  1  0
 22 46  1  0
 23 47  1  0
 25 48  1  0
M  ISO  8  27  14  28  14  29   8  30   8  31   8  32   8  33  13  34  13
M  ISO  8  35  13  36  13  37  13  38  13  39  13  40   8  41   8  42   8
M  ISO  6  43   8  44   8  45   8  46  14  47  14  48  14
M  END
>  <minimizedAffinity>  (1) 
-6.13480902

>  <minimizedRMSD>  (1) 
0.92310369

$$$$
