
     RDKit          3D

 39 41  0  0  1  0  0  0  0  0999 V2000
   39.0520   25.3250   33.7170 C   0  0  0  0  0  0  0  0  0  0  0  0
   40.4240   25.2590   33.5160 C   0  0  0  0  0  0  0  0  0  0  0  0
   40.7580   26.3340   32.7970 N   0  0  0  0  0  0  0  0  0  0  0  0
   39.6790   27.0830   32.5280 C   0  0  0  0  0  0  0  0  0  0  0  0
   38.6390   26.4490   33.0990 N   0  0  0  0  0  0  0  0  0  0  0  0
   36.7780   27.1680   34.3890 N   0  0  0  0  0  0  0  0  0  0  0  0
   36.1930   28.4800   34.3780 C   0  0  0  0  0  0  0  0  0  0  0  0
   35.8720   28.7560   32.9200 C   0  0  0  0  0  0  0  0  0  0  0  0
   37.1550   28.1960   32.2860 C   0  0  0  0  0  0  0  0  0  0  0  0
   37.2820   26.9060   33.0580 C   0  0  1  0  0  0  0  0  0  0  0  0
   36.4490   25.8320   32.3840 C   0  0  0  0  0  0  0  0  0  0  0  0
   36.7070   25.8750   30.9130 C   0  0  0  0  0  0  0  0  0  0  0  0
   38.3460   24.3660   34.4300 O   0  0  0  0  0  0  0  0  0  0  0  0
   39.8400   22.7990   37.2900 C   0  0  0  0  0  0  0  0  0  0  0  0
   39.0370   23.2940   38.3370 C   0  0  0  0  0  0  0  0  0  0  0  0
   38.0000   24.1600   38.0070 C   0  0  0  0  0  0  0  0  0  0  0  0
   37.8160   24.4790   36.7140 N   0  0  0  0  0  0  0  0  0  0  0  0
   38.6080   23.9840   35.7270 C   0  0  0  0  0  0  0  0  0  0  0  0
   39.6170   23.1440   36.0410 N   0  0  0  0  0  0  0  0  0  0  0  0
   40.9460   21.8810   37.6070 C   0  0  0  0  0  0  0  0  0  0  0  0
   41.1040   24.4740   33.8784 H   0  0  0  0  0  0  0  0  0  0  0  0
   39.6501   28.0230   31.9575 H   0  0  0  0  0  0  0  0  0  0  0  0
   37.5494   27.1325   35.0706 H   0  0  0  0  0  0  0  0  0  0  0  0
   35.2764   28.4995   34.9859 H   0  0  0  0  0  0  0  0  0  0  0  0
   36.8690   29.2369   34.8023 H   0  0  0  0  0  0  0  0  0  0  0  0
   34.9751   28.2146   32.5847 H   0  0  0  0  0  0  0  0  0  0  0  0
   35.6392   29.8028   32.6750 H   0  0  0  0  0  0  0  0  0  0  0  0
   37.0337   28.0169   31.2075 H   0  0  0  0  0  0  0  0  0  0  0  0
   38.0300   28.8601   32.3431 H   0  0  0  0  0  0  0  0  0  0  0  0
   36.7287   24.8445   32.7797 H   0  0  0  0  0  0  0  0  0  0  0  0
   35.3813   26.0082   32.5815 H   0  0  0  0  0  0  0  0  0  0  0  0
   37.7775   26.0534   30.7336 H   0  0  0  0  0  0  0  0  0  0  0  0
   36.4144   24.9157   30.4612 H   0  0  0  0  0  0  0  0  0  0  0  0
   36.1191   26.6875   30.4612 H   0  0  0  0  0  0  0  0  0  0  0  0
   39.2244   23.0047   39.3816 H   0  0  0  0  0  0  0  0  0  0  0  0
   37.3446   24.5749   38.7869 H   0  0  0  0  0  0  0  0  0  0  0  0
   41.0496   21.7950   38.6987 H   0  0  0  0  0  0  0  0  0  0  0  0
   40.7338   20.8899   37.1796 H   0  0  0  0  0  0  0  0  0  0  0  0
   41.8811   22.2721   37.1796 H   0  0  0  0  0  0  0  0  0  0  0  0
  1 13  1  0
  2  1  2  0
  3  2  1  0
  4  3  2  0
  4  5  1  0
  5  1  1  0
  7  6  1  0
  8  7  1  0
  9  8  1  0
  9 10  1  0
 10 11  1  6
 10  5  1  0
 10  6  1  0
 12 11  1  0
 13 18  1  0
 14 20  1  0
 14 15  2  0
 16 15  1  0
 17 16  2  0
 18 19  2  0
 18 17  1  0
 19 14  1  0
  2 21  1  0
  4 22  1  0
  6 23  1  0
  7 24  1  0
  7 25  1  0
  8 26  1  0
  8 27  1  0
  9 28  1  0
  9 29  1  0
 11 30  1  0
 11 31  1  0
 12 32  1  0
 12 33  1  0
 12 34  1  0
 15 35  1  0
 16 36  1  0
 20 37  1  0
 20 38  1  0
 20 39  1  0
M  ISO  8  21  14  22  14  23   5  24  13  25  13  26  13  27  13  28  13
M  ISO  8  29  13  30   8  31   8  32   8  33   8  34   8  35  14  36  14
M  ISO  3  37   8  38   8  39   8
M  END
>  <minimizedAffinity>  (1) 
-4.62964821

>  <minimizedRMSD>  (1) 
0.259143174

$$$$
