
     RDKit          3D

 43 46  0  0  1  0  0  0  0  0999 V2000
   39.1790   25.5080   33.8070 C   0  0  0  0  0  0  0  0  0  0  0  0
   40.5650   25.4060   33.9140 C   0  0  0  0  0  0  0  0  0  0  0  0
   41.0900   26.3170   33.0640 N   0  0  0  0  0  0  0  0  0  0  0  0
   40.1100   26.9790   32.4360 C   0  0  0  0  0  0  0  0  0  0  0  0
   38.9790   26.4760   32.8990 N   0  0  0  0  0  0  0  0  0  0  0  0
   36.7830   27.0880   33.6210 N   0  0  0  0  0  0  0  0  0  0  0  0
   36.1560   28.3560   33.4750 C   0  0  0  0  0  0  0  0  0  0  0  0
   36.3000   28.7410   32.0240 C   0  0  0  0  0  0  0  0  0  0  0  0
   37.6900   28.1980   31.7140 C   0  0  0  0  0  0  0  0  0  0  0  0
   37.6770   26.9150   32.4770 C   0  0  1  0  0  0  0  0  0  0  0  0
   37.1110   25.8170   31.6270 C   0  0  0  0  0  0  0  0  0  0  0  0
   36.1320   25.1670   32.0890 O   0  0  0  0  0  0  0  0  0  0  0  0
   37.6060   25.4820   30.3670 O   0  0  0  0  0  0  0  0  0  0  0  0
   38.3110   24.7160   34.5420 O   0  0  0  0  0  0  0  0  0  0  0  0
   39.7810   22.8680   37.2630 C   0  0  0  0  0  0  0  0  0  0  0  0
   39.0100   23.2900   38.3440 C   0  0  0  0  0  0  0  0  0  0  0  0
   37.9930   24.2130   38.0970 C   0  0  0  0  0  0  0  0  0  0  0  0
   37.8000   24.6500   36.8470 N   0  0  0  0  0  0  0  0  0  0  0  0
   38.5700   24.2200   35.8020 C   0  0  0  0  0  0  0  0  0  0  0  0
   39.5580   23.3240   36.0410 N   0  0  0  0  0  0  0  0  0  0  0  0
   40.8580   21.8990   37.4860 C   0  0  0  0  0  0  0  0  0  0  0  0
   42.0030   22.2170   36.6400 N   0  0  0  0  0  0  0  0  0  0  0  0
   42.3920   21.4380   35.6420 N   0  0  0  0  0  0  0  0  0  0  0  0
   43.4670   22.0030   35.0620 C   0  0  0  0  0  0  0  0  0  0  0  0
   43.7950   23.1930   35.6990 C   0  0  0  0  0  0  0  0  0  0  0  0
   42.8340   23.2860   36.6960 C   0  0  0  0  0  0  0  0  0  0  0  0
   41.1239   24.7172   34.5645 H   0  0  0  0  0  0  0  0  0  0  0  0
   40.2231   27.7777   31.6881 H   0  0  0  0  0  0  0  0  0  0  0  0
   37.3223   27.0596   34.4981 H   0  0  0  0  0  0  0  0  0  0  0  0
   35.0921   28.2872   33.7460 H   0  0  0  0  0  0  0  0  0  0  0  0
   36.6184   29.1063   34.1332 H   0  0  0  0  0  0  0  0  0  0  0  0
   35.5309   28.2613   31.4008 H   0  0  0  0  0  0  0  0  0  0  0  0
   36.1795   29.8164   31.8267 H   0  0  0  0  0  0  0  0  0  0  0  0
   37.8238   28.0246   30.6360 H   0  0  0  0  0  0  0  0  0  0  0  0
   38.5112   28.8772   31.9868 H   0  0  0  0  0  0  0  0  0  0  0  0
   37.1904   24.7460   29.8515 H   0  0  0  0  0  0  0  0  0  0  0  0
   39.1968   22.9082   39.3586 H   0  0  0  0  0  0  0  0  0  0  0  0
   37.3585   24.5765   38.9188 H   0  0  0  0  0  0  0  0  0  0  0  0
   41.1652   21.9334   38.5417 H   0  0  0  0  0  0  0  0  0  0  0  0
   40.4936   20.8921   37.2342 H   0  0  0  0  0  0  0  0  0  0  0  0
   44.0101   21.5813   34.2034 H   0  0  0  0  0  0  0  0  0  0  0  0
   44.6145   23.8900   35.4697 H   0  0  0  0  0  0  0  0  0  0  0  0
   42.7580   24.1067   37.4245 H   0  0  0  0  0  0  0  0  0  0  0  0
  1  2  2  0
  1 14  1  0
  3  2  1  0
  4  5  1  0
  4  3  2  0
  5  1  1  0
  7  6  1  0
  8  7  1  0
  9  8  1  0
  9 10  1  0
 10 11  1  0
 10  5  1  1
 10  6  1  0
 11 12  2  0
 13 11  1  0
 14 19  1  0
 15 21  1  0
 15 16  2  0
 17 16  1  0
 18 17  2  0
 19 20  2  0
 19 18  1  0
 20 15  1  0
 22 26  1  0
 22 21  1  0
 23 22  1  0
 24 23  2  0
 24 25  1  0
 25 26  2  0
  2 27  1  0
  4 28  1  0
  6 29  1  0
  7 30  1  0
  7 31  1  0
  8 32  1  0
  8 33  1  0
  9 34  1  0
  9 35  1  0
 13 36  1  0
 16 37  1  0
 17 38  1  0
 21 39  1  0
 21 40  1  0
 24 41  1  0
 25 42  1  0
 26 43  1  0
M  ISO  8  27  14  28  14  29   5  30  13  31  13  32  13  33  13  34  13
M  ISO  8  35  13  36   3  37  14  38  14  39   8  40   8  41  14  42  14
M  ISO  1  43  14
M  END
>  <minimizedAffinity>  (1) 
-5.13323545

>  <minimizedRMSD>  (1) 
1.05982232

$$$$
