
     RDKit          3D

 51 54  0  0  1  0  0  0  0  0999 V2000
   39.0220   25.6610   33.7050 C   0  0  0  0  0  0  0  0  0  0  0  0
   40.4020   25.5390   33.7840 C   0  0  0  0  0  0  0  0  0  0  0  0
   40.9190   26.4170   32.9000 N   0  0  0  0  0  0  0  0  0  0  0  0
   39.9360   27.0780   32.2760 C   0  0  0  0  0  0  0  0  0  0  0  0
   38.8120   26.6070   32.7760 N   0  0  0  0  0  0  0  0  0  0  0  0
   36.6250   27.2220   33.5160 N   0  0  0  0  0  0  0  0  0  0  0  0
   36.0160   28.5050   33.3900 C   0  0  0  0  0  0  0  0  0  0  0  0
   36.1290   28.8790   31.9310 C   0  0  0  0  0  0  0  0  0  0  0  0
   37.5290   28.3380   31.6060 C   0  0  0  0  0  0  0  0  0  0  0  0
   37.5020   27.0540   32.3730 C   0  0  1  0  0  0  0  0  0  0  0  0
   36.9260   25.9660   31.5210 C   0  0  0  0  0  0  0  0  0  0  0  0
   35.9520   25.3120   31.9770 O   0  0  0  0  0  0  0  0  0  0  0  0
   37.4020   25.6330   30.2540 O   0  0  0  0  0  0  0  0  0  0  0  0
   38.1580   24.9030   34.4800 O   0  0  0  0  0  0  0  0  0  0  0  0
   39.6770   22.7820   36.9670 C   0  0  0  0  0  0  0  0  0  0  0  0
   39.0560   23.2390   38.1260 C   0  0  0  0  0  0  0  0  0  0  0  0
   38.1300   24.2640   38.0270 C   0  0  0  0  0  0  0  0  0  0  0  0
   37.8650   24.7820   36.8110 N   0  0  0  0  0  0  0  0  0  0  0  0
   38.4840   24.3210   35.6900 C   0  0  0  0  0  0  0  0  0  0  0  0
   39.3830   23.3250   35.7880 N   0  0  0  0  0  0  0  0  0  0  0  0
   40.6650   21.6940   37.0420 C   0  0  0  0  0  0  0  0  0  0  0  0
   42.0340   22.1130   37.0000 N   0  0  0  0  0  0  0  0  0  0  0  0
   42.1390   23.4410   36.4490 C   0  0  0  0  0  0  0  0  0  0  0  0
   43.5390   23.9590   36.4190 C   0  0  0  0  0  0  0  0  0  0  0  0
   44.3300   23.0360   35.4860 C   0  0  0  0  0  0  0  0  0  0  0  0
   44.2750   21.6740   36.0910 C   0  0  0  0  0  0  0  0  0  0  0  0
   42.9120   21.1640   36.3800 C   0  0  0  0  0  0  0  0  0  0  0  0
   40.9649   24.8586   34.4399 H   0  0  0  0  0  0  0  0  0  0  0  0
   40.0446   27.8546   31.5046 H   0  0  0  0  0  0  0  0  0  0  0  0
   37.1689   27.1730   34.3893 H   0  0  0  0  0  0  0  0  0  0  0  0
   34.9592   28.4575   33.6915 H   0  0  0  0  0  0  0  0  0  0  0  0
   36.5066   29.2486   34.0353 H   0  0  0  0  0  0  0  0  0  0  0  0
   35.3537   28.3871   31.3253 H   0  0  0  0  0  0  0  0  0  0  0  0
   35.9939   29.9506   31.7226 H   0  0  0  0  0  0  0  0  0  0  0  0
   37.6587   28.1655   30.5274 H   0  0  0  0  0  0  0  0  0  0  0  0
   38.3566   29.0139   31.8672 H   0  0  0  0  0  0  0  0  0  0  0  0
   36.9754   24.9013   29.7415 H   0  0  0  0  0  0  0  0  0  0  0  0
   39.2964   22.7940   39.1028 H   0  0  0  0  0  0  0  0  0  0  0  0
   37.6206   24.6480   38.9232 H   0  0  0  0  0  0  0  0  0  0  0  0
   40.5034   21.1513   37.9851 H   0  0  0  0  0  0  0  0  0  0  0  0
   40.5066   21.0740   36.1473 H   0  0  0  0  0  0  0  0  0  0  0  0
   41.7510   23.4237   35.4198 H   0  0  0  0  0  0  0  0  0  0  0  0
   41.5577   24.1107   37.0999 H   0  0  0  0  0  0  0  0  0  0  0  0
   43.5538   24.9896   36.0347 H   0  0  0  0  0  0  0  0  0  0  0  0
   43.9777   23.9723   37.4276 H   0  0  0  0  0  0  0  0  0  0  0  0
   45.3733   23.3761   35.4100 H   0  0  0  0  0  0  0  0  0  0  0  0
   43.9056   23.0378   34.4712 H   0  0  0  0  0  0  0  0  0  0  0  0
   44.7598   20.9732   35.3955 H   0  0  0  0  0  0  0  0  0  0  0  0
   44.7835   21.7519   37.0633 H   0  0  0  0  0  0  0  0  0  0  0  0
   42.4569   20.8464   35.4302 H   0  0  0  0  0  0  0  0  0  0  0  0
   43.0354   20.3406   37.0988 H   0  0  0  0  0  0  0  0  0  0  0  0
  1  2  2  0
  1 14  1  0
  3  2  1  0
  4  5  1  0
  4  3  2  0
  5  1  1  0
  7  6  1  0
  8  7  1  0
  9  8  1  0
  9 10  1  0
 10 11  1  0
 10  5  1  1
 10  6  1  0
 11 12  2  0
 13 11  1  0
 14 19  1  0
 15 21  1  0
 15 16  2  0
 17 16  1  0
 18 17  2  0
 19 20  2  0
 19 18  1  0
 20 15  1  0
 22 21  1  0
 23 22  1  0
 24 23  1  0
 25 26  1  0
 25 24  1  0
 26 27  1  0
 27 22  1  0
  2 28  1  0
  4 29  1  0
  6 30  1  0
  7 31  1  0
  7 32  1  0
  8 33  1  0
  8 34  1  0
  9 35  1  0
  9 36  1  0
 13 37  1  0
 16 38  1  0
 17 39  1  0
 21 40  1  0
 21 41  1  0
 23 42  1  0
 23 43  1  0
 24 44  1  0
 24 45  1  0
 25 46  1  0
 25 47  1  0
 26 48  1  0
 26 49  1  0
 27 50  1  0
 27 51  1  0
M  ISO  8  28  14  29  14  30   5  31  13  32  13  33  13  34  13  35  13
M  ISO  8  36  13  37   3  38  14  39  14  40   8  41   8  42  13  43  13
M  ISO  8  44  13  45  13  46  13  47  13  48  13  49  13  50  13  51  13
M  END
>  <minimizedAffinity>  (1) 
-5.26369905

>  <minimizedRMSD>  (1) 
0.7807163

$$$$
