
     RDKit          3D

 48 51  0  0  1  0  0  0  0  0999 V2000
   39.1250   26.5170   34.4150 C   0  0  0  0  0  0  0  0  0  0  0  0
   40.4790   26.5850   34.6750 C   0  0  0  0  0  0  0  0  0  0  0  0
   41.0600   27.1010   33.5740 N   0  0  0  0  0  0  0  0  0  0  0  0
   40.1370   27.3550   32.6420 C   0  0  0  0  0  0  0  0  0  0  0  0
   38.9700   26.9970   33.1660 N   0  0  0  0  0  0  0  0  0  0  0  0
   36.6330   27.3530   33.4250 N   0  0  0  0  0  0  0  0  0  0  0  0
   35.8710   28.4300   32.9090 C   0  0  0  0  0  0  0  0  0  0  0  0
   36.1940   28.5190   31.4420 C   0  0  0  0  0  0  0  0  0  0  0  0
   37.6980   28.1910   31.4580 C   0  0  0  0  0  0  0  0  0  0  0  0
   37.7190   27.1090   32.4870 C   0  0  1  0  0  0  0  0  0  0  0  0
   37.4630   25.7750   31.8390 C   0  0  0  0  0  0  0  0  0  0  0  0
   36.8680   24.9020   32.5160 O   0  0  0  0  0  0  0  0  0  0  0  0
   37.8510   25.4690   30.5390 O   0  0  0  0  0  0  0  0  0  0  0  0
   38.2050   26.0340   35.3300 O   0  0  0  0  0  0  0  0  0  0  0  0
   39.4990   23.0860   36.9470 C   0  0  0  0  0  0  0  0  0  0  0  0
   38.8920   23.1960   38.2110 C   0  0  0  0  0  0  0  0  0  0  0  0
   38.0580   24.2810   38.4700 C   0  0  0  0  0  0  0  0  0  0  0  0
   37.8650   25.1810   37.4930 N   0  0  0  0  0  0  0  0  0  0  0  0
   38.4630   25.0560   36.2730 C   0  0  0  0  0  0  0  0  0  0  0  0
   39.2650   24.0090   36.0350 N   0  0  0  0  0  0  0  0  0  0  0  0
   40.3720   21.9580   36.6730 C   0  0  0  0  0  0  0  0  0  0  0  0
   41.6600   21.9970   37.3400 N   0  0  0  0  0  0  0  0  0  0  0  0
   42.3100   20.7240   37.4200 C   0  0  0  0  0  0  0  0  0  0  0  0
   43.0700   20.5370   36.1270 C   0  0  0  0  0  0  0  0  0  0  0  0
   43.3770   21.9520   35.6840 C   0  0  0  0  0  0  0  0  0  0  0  0
   42.5970   22.8460   36.6210 C   0  0  0  0  0  0  0  0  0  0  0  0
   40.9857   26.2775   35.6017 H   0  0  0  0  0  0  0  0  0  0  0  0
   40.3091   27.7765   31.6406 H   0  0  0  0  0  0  0  0  0  0  0  0
   37.0136   27.6005   34.3495 H   0  0  0  0  0  0  0  0  0  0  0  0
   34.7972   28.2377   33.0505 H   0  0  0  0  0  0  0  0  0  0  0  0
   36.1111   29.3705   33.4265 H   0  0  0  0  0  0  0  0  0  0  0  0
   36.0037   29.5274   31.0459 H   0  0  0  0  0  0  0  0  0  0  0  0
   35.5905   27.8589   30.8017 H   0  0  0  0  0  0  0  0  0  0  0  0
   38.0471   27.8299   30.4794 H   0  0  0  0  0  0  0  0  0  0  0  0
   38.3555   29.0463   31.6729 H   0  0  0  0  0  0  0  0  0  0  0  0
   37.6569   24.5744   30.1621 H   0  0  0  0  0  0  0  0  0  0  0  0
   39.0735   22.4353   38.9846 H   0  0  0  0  0  0  0  0  0  0  0  0
   37.5704   24.3973   39.4492 H   0  0  0  0  0  0  0  0  0  0  0  0
   39.8528   21.0412   36.9891 H   0  0  0  0  0  0  0  0  0  0  0  0
   40.5857   21.9925   35.5945 H   0  0  0  0  0  0  0  0  0  0  0  0
   43.0045   20.7068   38.2729 H   0  0  0  0  0  0  0  0  0  0  0  0
   41.5776   19.9165   37.5665 H   0  0  0  0  0  0  0  0  0  0  0  0
   43.9967   19.9687   36.2952 H   0  0  0  0  0  0  0  0  0  0  0  0
   42.5011   19.9689   35.3762 H   0  0  0  0  0  0  0  0  0  0  0  0
   44.4548   22.1555   35.7666 H   0  0  0  0  0  0  0  0  0  0  0  0
   43.0990   22.1203   34.6331 H   0  0  0  0  0  0  0  0  0  0  0  0
   43.2800   23.3383   37.3289 H   0  0  0  0  0  0  0  0  0  0  0  0
   42.0656   23.6305   36.0623 H   0  0  0  0  0  0  0  0  0  0  0  0
  1  2  2  0
  1 14  1  0
  3  2  1  0
  4  5  1  0
  4  3  2  0
  5  1  1  0
  7  6  1  0
  8  9  1  0
  8  7  1  0
  9 10  1  0
 10 11  1  0
 10  5  1  1
 10  6  1  0
 11 12  2  0
 13 11  1  0
 14 19  1  0
 15 16  2  0
 16 17  1  0
 18 17  2  0
 19 18  1  0
 20 19  2  0
 20 15  1  0
 21 15  1  0
 21 22  1  0
 22 23  1  0
 24 23  1  0
 25 24  1  0
 25 26  1  0
 26 22  1  0
  2 27  1  0
  4 28  1  0
  6 29  1  0
  7 30  1  0
  7 31  1  0
  8 32  1  0
  8 33  1  0
  9 34  1  0
  9 35  1  0
 13 36  1  0
 16 37  1  0
 17 38  1  0
 21 39  1  0
 21 40  1  0
 23 41  1  0
 23 42  1  0
 24 43  1  0
 24 44  1  0
 25 45  1  0
 25 46  1  0
 26 47  1  0
 26 48  1  0
M  ISO  8  27  14  28  14  29   5  30  13  31  13  32  13  33  13  34  13
M  ISO  8  35  13  36   3  37  14  38  14  39   8  40   8  41  13  42  13
M  ISO  6  43  13  44  13  45  13  46  13  47  13  48  13
M  END
>  <minimizedAffinity>  (1) 
-5.23867464

>  <minimizedRMSD>  (1) 
1.36081672

$$$$
