
     RDKit          3D

 43 46  0  0  1  0  0  0  0  0999 V2000
   39.1820   25.3490   33.6420 C   0  0  0  0  0  0  0  0  0  0  0  0
   40.5590   25.2170   33.6800 C   0  0  0  0  0  0  0  0  0  0  0  0
   41.0690   26.1540   32.8510 N   0  0  0  0  0  0  0  0  0  0  0  0
   40.0800   26.8630   32.2980 C   0  0  0  0  0  0  0  0  0  0  0  0
   38.9460   26.3670   32.7830 N   0  0  0  0  0  0  0  0  0  0  0  0
   36.8020   26.9840   33.6240 N   0  0  0  0  0  0  0  0  0  0  0  0
   36.2120   28.2790   33.5600 C   0  0  0  0  0  0  0  0  0  0  0  0
   36.2930   28.7090   32.1100 C   0  0  0  0  0  0  0  0  0  0  0  0
   37.6710   28.1650   31.7350 C   0  0  0  0  0  0  0  0  0  0  0  0
   37.6310   26.8440   32.4460 C   0  0  1  0  0  0  0  0  0  0  0  0
   37.0070   25.7910   31.5780 C   0  0  0  0  0  0  0  0  0  0  0  0
   36.0510   25.1450   32.0440 O   0  0  0  0  0  0  0  0  0  0  0  0
   37.4470   25.5040   30.2800 O   0  0  0  0  0  0  0  0  0  0  0  0
   38.3260   24.5410   34.3800 O   0  0  0  0  0  0  0  0  0  0  0  0
   39.7060   22.8410   37.2310 C   0  0  0  0  0  0  0  0  0  0  0  0
   38.9350   23.3500   38.2710 C   0  0  0  0  0  0  0  0  0  0  0  0
   37.9430   24.2810   37.9530 C   0  0  0  0  0  0  0  0  0  0  0  0
   37.7820   24.6390   36.6680 N   0  0  0  0  0  0  0  0  0  0  0  0
   38.5560   24.1200   35.6750 C   0  0  0  0  0  0  0  0  0  0  0  0
   39.5020   23.2300   35.9860 N   0  0  0  0  0  0  0  0  0  0  0  0
   40.7610   21.8560   37.5300 C   0  0  0  0  0  0  0  0  0  0  0  0
   42.0490   22.2310   36.9270 C   0  0  0  0  0  0  0  0  0  0  0  0
   43.0400   21.4580   36.3490 C   0  0  0  0  0  0  0  0  0  0  0  0
   44.0860   22.2750   35.9130 C   0  0  0  0  0  0  0  0  0  0  0  0
   43.6450   23.5300   36.2680 C   0  0  0  0  0  0  0  0  0  0  0  0
   42.4730   23.4770   36.8470 O   0  0  0  0  0  0  0  0  0  0  0  0
   41.1301   24.4874   34.2729 H   0  0  0  0  0  0  0  0  0  0  0  0
   40.1839   27.6926   31.5832 H   0  0  0  0  0  0  0  0  0  0  0  0
   37.3767   26.8977   34.4744 H   0  0  0  0  0  0  0  0  0  0  0  0
   35.1626   28.2365   33.8871 H   0  0  0  0  0  0  0  0  0  0  0  0
   36.7327   28.9897   34.2186 H   0  0  0  0  0  0  0  0  0  0  0  0
   35.4969   28.2502   31.5052 H   0  0  0  0  0  0  0  0  0  0  0  0
   36.1658   29.7890   31.9443 H   0  0  0  0  0  0  0  0  0  0  0  0
   37.7787   28.0403   30.6474 H   0  0  0  0  0  0  0  0  0  0  0  0
   38.5159   28.8137   32.0093 H   0  0  0  0  0  0  0  0  0  0  0  0
   36.9987   24.7980   29.7501 H   0  0  0  0  0  0  0  0  0  0  0  0
   39.1010   23.0298   39.3102 H   0  0  0  0  0  0  0  0  0  0  0  0
   37.3062   24.7125   38.7393 H   0  0  0  0  0  0  0  0  0  0  0  0
   40.8854   21.7884   38.6208 H   0  0  0  0  0  0  0  0  0  0  0  0
   40.4545   20.8889   37.1048 H   0  0  0  0  0  0  0  0  0  0  0  0
   43.0090   20.3631   36.2478 H   0  0  0  0  0  0  0  0  0  0  0  0
   45.0232   21.9886   35.4134 H   0  0  0  0  0  0  0  0  0  0  0  0
   44.2064   24.4587   36.0878 H   0  0  0  0  0  0  0  0  0  0  0  0
  1  2  2  0
  1 14  1  0
  3  2  1  0
  4  5  1  0
  4  3  2  0
  5  1  1  0
  7  6  1  0
  8  7  1  0
  9  8  1  0
  9 10  1  0
 10 11  1  0
 10  5  1  1
 10  6  1  0
 11 12  2  0
 13 11  1  0
 14 19  1  0
 15 21  1  0
 15 16  2  0
 17 16  1  0
 18 17  2  0
 19 20  2  0
 19 18  1  0
 20 15  1  0
 22 21  1  0
 23 22  2  0
 24 25  2  0
 24 23  1  0
 25 26  1  0
 26 22  1  0
  2 27  1  0
  4 28  1  0
  6 29  1  0
  7 30  1  0
  7 31  1  0
  8 32  1  0
  8 33  1  0
  9 34  1  0
  9 35  1  0
 13 36  1  0
 16 37  1  0
 17 38  1  0
 21 39  1  0
 21 40  1  0
 23 41  1  0
 24 42  1  0
 25 43  1  0
M  ISO  8  27  14  28  14  29   5  30  13  31  13  32  13  33  13  34  13
M  ISO  8  35  13  36   3  37  14  38  14  39   8  40   8  41  14  42  14
M  ISO  1  43  14
M  END
>  <minimizedAffinity>  (1) 
-5.33827353

>  <minimizedRMSD>  (1) 
0.83596313

$$$$
