
     RDKit          3D

 42 45  0  0  1  0  0  0  0  0999 V2000
   39.1670   25.3590   33.6500 C   0  0  0  0  0  0  0  0  0  0  0  0
   40.5550   25.2380   33.6800 C   0  0  0  0  0  0  0  0  0  0  0  0
   41.0620   26.1660   32.8450 N   0  0  0  0  0  0  0  0  0  0  0  0
   40.0630   26.8740   32.2850 C   0  0  0  0  0  0  0  0  0  0  0  0
   38.9460   26.3750   32.7770 N   0  0  0  0  0  0  0  0  0  0  0  0
   36.7970   26.9910   33.6350 N   0  0  0  0  0  0  0  0  0  0  0  0
   36.2060   28.2900   33.5730 C   0  0  0  0  0  0  0  0  0  0  0  0
   36.2660   28.7190   32.1370 C   0  0  0  0  0  0  0  0  0  0  0  0
   37.6420   28.1650   31.7280 C   0  0  0  0  0  0  0  0  0  0  0  0
   37.6220   26.8430   32.4420 C   0  0  1  0  0  0  0  0  0  0  0  0
   36.9980   25.8050   31.5660 C   0  0  0  0  0  0  0  0  0  0  0  0
   36.0410   25.1470   32.0380 O   0  0  0  0  0  0  0  0  0  0  0  0
   37.4250   25.5350   30.2620 O   0  0  0  0  0  0  0  0  0  0  0  0
   38.3180   24.5620   34.3890 O   0  0  0  0  0  0  0  0  0  0  0  0
   39.7350   22.8610   37.2240 C   0  0  0  0  0  0  0  0  0  0  0  0
   38.9380   23.3550   38.2710 C   0  0  0  0  0  0  0  0  0  0  0  0
   37.9440   24.2560   37.9480 C   0  0  0  0  0  0  0  0  0  0  0  0
   37.7700   24.6280   36.6730 N   0  0  0  0  0  0  0  0  0  0  0  0
   38.5580   24.1330   35.6750 C   0  0  0  0  0  0  0  0  0  0  0  0
   39.5270   23.2550   35.9810 N   0  0  0  0  0  0  0  0  0  0  0  0
   40.8100   21.8940   37.5220 C   0  0  0  0  0  0  0  0  0  0  0  0
   42.0650   22.2240   36.8710 N   0  0  0  0  0  0  0  0  0  0  0  0
   42.7750   23.3540   36.6810 C   0  0  0  0  0  0  0  0  0  0  0  0
   43.8900   23.0970   35.9970 N   0  0  0  0  0  0  0  0  0  0  0  0
   43.9060   21.7760   35.7390 C   0  0  0  0  0  0  0  0  0  0  0  0
   42.7870   21.2850   36.2820 N   0  0  0  0  0  0  0  0  0  0  0  0
   41.1318   24.5161   34.2768 H   0  0  0  0  0  0  0  0  0  0  0  0
   40.1590   27.6997   31.5645 H   0  0  0  0  0  0  0  0  0  0  0  0
   37.3790   26.9068   34.4806 H   0  0  0  0  0  0  0  0  0  0  0  0
   35.1608   28.2483   33.9135 H   0  0  0  0  0  0  0  0  0  0  0  0
   36.7391   29.0002   34.2222 H   0  0  0  0  0  0  0  0  0  0  0  0
   35.4558   28.2677   31.5455 H   0  0  0  0  0  0  0  0  0  0  0  0
   36.1454   29.8010   31.9794 H   0  0  0  0  0  0  0  0  0  0  0  0
   37.7221   28.0379   30.6383 H   0  0  0  0  0  0  0  0  0  0  0  0
   38.4936   28.8131   31.9827 H   0  0  0  0  0  0  0  0  0  0  0  0
   36.9727   24.8347   29.7281 H   0  0  0  0  0  0  0  0  0  0  0  0
   39.1008   23.0348   39.3107 H   0  0  0  0  0  0  0  0  0  0  0  0
   37.2960   24.6678   38.7357 H   0  0  0  0  0  0  0  0  0  0  0  0
   40.9734   21.8753   38.6096 H   0  0  0  0  0  0  0  0  0  0  0  0
   40.4877   20.9146   37.1389 H   0  0  0  0  0  0  0  0  0  0  0  0
   42.4759   24.3497   37.0404 H   0  0  0  0  0  0  0  0  0  0  0  0
   44.6800   21.2159   35.1939 H   0  0  0  0  0  0  0  0  0  0  0  0
  1  2  2  0
  1 14  1  0
  3  2  1  0
  4  5  1  0
  4  3  2  0
  5  1  1  0
  7  6  1  0
  8  7  1  0
  9  8  1  0
  9 10  1  0
 10 11  1  0
 10  5  1  1
 10  6  1  0
 11 12  2  0
 13 11  1  0
 14 19  1  0
 15 21  1  0
 15 16  2  0
 17 16  1  0
 18 17  2  0
 19 20  2  0
 19 18  1  0
 20 15  1  0
 22 21  1  0
 23 22  1  0
 24 23  2  0
 25 24  1  0
 25 26  2  0
 26 22  1  0
  2 27  1  0
  4 28  1  0
  6 29  1  0
  7 30  1  0
  7 31  1  0
  8 32  1  0
  8 33  1  0
  9 34  1  0
  9 35  1  0
 13 36  1  0
 16 37  1  0
 17 38  1  0
 21 39  1  0
 21 40  1  0
 23 41  1  0
 25 42  1  0
M  ISO  8  27  14  28  14  29   5  30  13  31  13  32  13  33  13  34  13
M  ISO  8  35  13  36   3  37  14  38  14  39   8  40   8  41  14  42  14
M  END
>  <minimizedAffinity>  (1) 
-5.12226057

>  <minimizedRMSD>  (1) 
0.87325865

$$$$
