
     RDKit          3D

 37 39  0  0  1  0  0  0  0  0999 V2000
   39.1950   25.5100   33.7990 C   0  0  0  0  0  0  0  0  0  0  0  0
   40.5720   25.4160   33.9060 C   0  0  0  0  0  0  0  0  0  0  0  0
   41.0900   26.3310   33.0680 N   0  0  0  0  0  0  0  0  0  0  0  0
   40.1110   26.9910   32.4450 C   0  0  0  0  0  0  0  0  0  0  0  0
   38.9660   26.4820   32.8980 N   0  0  0  0  0  0  0  0  0  0  0  0
   36.7770   27.0840   33.6300 N   0  0  0  0  0  0  0  0  0  0  0  0
   36.1610   28.3550   33.4910 C   0  0  0  0  0  0  0  0  0  0  0  0
   36.2860   28.7330   32.0440 C   0  0  0  0  0  0  0  0  0  0  0  0
   37.6920   28.1960   31.7120 C   0  0  0  0  0  0  0  0  0  0  0  0
   37.6580   26.9120   32.4820 C   0  0  1  0  0  0  0  0  0  0  0  0
   37.0960   25.8190   31.6280 C   0  0  0  0  0  0  0  0  0  0  0  0
   36.1350   25.1660   32.0890 O   0  0  0  0  0  0  0  0  0  0  0  0
   37.5840   25.4970   30.3650 O   0  0  0  0  0  0  0  0  0  0  0  0
   38.3330   24.7070   34.5290 O   0  0  0  0  0  0  0  0  0  0  0  0
   39.7660   22.8860   37.2760 C   0  0  0  0  0  0  0  0  0  0  0  0
   38.9680   23.3010   38.3310 C   0  0  0  0  0  0  0  0  0  0  0  0
   37.9530   24.2040   38.0620 C   0  0  0  0  0  0  0  0  0  0  0  0
   37.7740   24.6420   36.8060 N   0  0  0  0  0  0  0  0  0  0  0  0
   38.5770   24.2120   35.7950 C   0  0  0  0  0  0  0  0  0  0  0  0
   39.5660   23.3370   36.0410 N   0  0  0  0  0  0  0  0  0  0  0  0
   40.8530   21.9290   37.5220 C   0  0  0  0  0  0  0  0  0  0  0  0
   42.2870   22.4620   36.5450 S   0  0  0  0  0  0  0  0  0  0  0  0
   41.1341   24.7257   34.5522 H   0  0  0  0  0  0  0  0  0  0  0  0
   40.2267   27.7959   31.7042 H   0  0  0  0  0  0  0  0  0  0  0  0
   37.3222   27.0483   34.5032 H   0  0  0  0  0  0  0  0  0  0  0  0
   35.1008   28.2970   33.7784 H   0  0  0  0  0  0  0  0  0  0  0  0
   36.6402   29.1025   34.1403 H   0  0  0  0  0  0  0  0  0  0  0  0
   35.5135   28.2445   31.4320 H   0  0  0  0  0  0  0  0  0  0  0  0
   36.1557   29.8072   31.8461 H   0  0  0  0  0  0  0  0  0  0  0  0
   37.8207   28.0236   30.6332 H   0  0  0  0  0  0  0  0  0  0  0  0
   38.5220   28.8714   31.9668 H   0  0  0  0  0  0  0  0  0  0  0  0
   37.1698   24.7621   29.8469 H   0  0  0  0  0  0  0  0  0  0  0  0
   39.1359   22.9245   39.3508 H   0  0  0  0  0  0  0  0  0  0  0  0
   37.2985   24.5595   38.8715 H   0  0  0  0  0  0  0  0  0  0  0  0
   41.1102   21.9206   38.5915 H   0  0  0  0  0  0  0  0  0  0  0  0
   40.5454   20.9131   37.2332 H   0  0  0  0  0  0  0  0  0  0  0  0
   43.2994   22.8383   37.3878 H   0  0  0  0  0  0  0  0  0  0  0  0
  1  2  2  0
  1 14  1  0
  3  2  1  0
  4  5  1  0
  4  3  2  0
  5  1  1  0
  7  6  1  0
  8  7  1  0
  9  8  1  0
  9 10  1  0
 10 11  1  0
 10  5  1  1
 10  6  1  0
 11 12  2  0
 13 11  1  0
 14 19  1  0
 15 21  1  0
 15 16  2  0
 17 16  1  0
 18 17  2  0
 19 20  2  0
 19 18  1  0
 20 15  1  0
 22 21  1  0
  2 23  1  0
  4 24  1  0
  6 25  1  0
  7 26  1  0
  7 27  1  0
  8 28  1  0
  8 29  1  0
  9 30  1  0
  9 31  1  0
 13 32  1  0
 16 33  1  0
 17 34  1  0
 21 35  1  0
 21 36  1  0
 22 37  1  0
M  ISO  8  23  14  24  14  25   5  26  13  27  13  28  13  29  13  30  13
M  ISO  7  31  13  32   3  33  14  34  14  35   8  36   8  37  11
M  END
>  <minimizedAffinity>  (1) 
-4.8332448

>  <minimizedRMSD>  (1) 
0.309809238

$$$$
