
     RDKit          3D

 44 47  0  0  1  0  0  0  0  0999 V2000
   39.1480   24.3900   32.2890 C   0  0  0  0  0  0  0  0  0  0  0  0
   40.3350   24.1800   31.5970 C   0  0  0  0  0  0  0  0  0  0  0  0
   40.5520   25.2820   30.8560 N   0  0  0  0  0  0  0  0  0  0  0  0
   39.5680   26.1650   31.0480 C   0  0  0  0  0  0  0  0  0  0  0  0
   38.7410   25.6080   31.9090 N   0  0  0  0  0  0  0  0  0  0  0  0
   37.2400   25.8300   33.7520 N   0  0  0  0  0  0  0  0  0  0  0  0
   36.9540   27.0140   34.4880 C   0  0  0  0  0  0  0  0  0  0  0  0
   36.5970   28.0680   33.4660 C   0  0  0  0  0  0  0  0  0  0  0  0
   37.5810   27.7210   32.3500 C   0  0  0  0  0  0  0  0  0  0  0  0
   37.5390   26.2280   32.3900 C   0  0  1  0  0  0  0  0  0  0  0  0
   36.4180   25.7270   31.5140 C   0  0  0  0  0  0  0  0  0  0  0  0
   35.7960   24.7080   31.9050 O   0  0  0  0  0  0  0  0  0  0  0  0
   36.0380   26.3190   30.3180 O   0  0  0  0  0  0  0  0  0  0  0  0
   38.6180   23.4510   33.1550 O   0  0  0  0  0  0  0  0  0  0  0  0
   40.4930   23.1440   36.2160 C   0  0  0  0  0  0  0  0  0  0  0  0
   39.4720   23.0460   37.1530 C   0  0  0  0  0  0  0  0  0  0  0  0
   38.1640   23.0890   36.7040 C   0  0  0  0  0  0  0  0  0  0  0  0
   37.9290   23.2220   35.3830 N   0  0  0  0  0  0  0  0  0  0  0  0
   38.9540   23.3160   34.4900 C   0  0  0  0  0  0  0  0  0  0  0  0
   40.2180   23.2750   34.9250 N   0  0  0  0  0  0  0  0  0  0  0  0
   41.8950   23.1030   36.6560 C   0  0  0  0  0  0  0  0  0  0  0  0
   42.5470   21.7970   36.4620 C   0  0  0  0  0  0  0  0  0  0  0  0
   42.4010   20.7300   37.3230 C   0  0  0  0  0  0  0  0  0  0  0  0
   43.0610   19.5270   37.0530 C   0  0  0  0  0  0  0  0  0  0  0  0
   43.8350   19.4030   35.9660 N   0  0  0  0  0  0  0  0  0  0  0  0
   43.9670   20.4530   35.1380 C   0  0  0  0  0  0  0  0  0  0  0  0
   43.3360   21.6380   35.3720 N   0  0  0  0  0  0  0  0  0  0  0  0
   40.9736   23.2857   31.6457 H   0  0  0  0  0  0  0  0  0  0  0  0
   39.4685   27.1563   30.5817 H   0  0  0  0  0  0  0  0  0  0  0  0
   38.0511   25.3468   34.1637 H   0  0  0  0  0  0  0  0  0  0  0  0
   36.1092   26.8437   35.1715 H   0  0  0  0  0  0  0  0  0  0  0  0
   37.8138   27.3235   35.1004 H   0  0  0  0  0  0  0  0  0  0  0  0
   35.5535   27.9718   33.1314 H   0  0  0  0  0  0  0  0  0  0  0  0
   36.6668   29.1029   33.8323 H   0  0  0  0  0  0  0  0  0  0  0  0
   38.5895   28.1031   32.5668 H   0  0  0  0  0  0  0  0  0  0  0  0
   37.3302   28.1565   31.3715 H   0  0  0  0  0  0  0  0  0  0  0  0
   35.2915   25.9370   29.7918 H   0  0  0  0  0  0  0  0  0  0  0  0
   39.6976   22.9370   38.2241 H   0  0  0  0  0  0  0  0  0  0  0  0
   37.3276   23.0157   37.4147 H   0  0  0  0  0  0  0  0  0  0  0  0
   42.4578   23.8581   36.0877 H   0  0  0  0  0  0  0  0  0  0  0  0
   41.8942   23.3000   37.7382 H   0  0  0  0  0  0  0  0  0  0  0  0
   41.7684   20.8246   38.2179 H   0  0  0  0  0  0  0  0  0  0  0  0
   42.9438   18.6750   37.7389 H   0  0  0  0  0  0  0  0  0  0  0  0
   44.6026   20.3532   34.2458 H   0  0  0  0  0  0  0  0  0  0  0  0
  1 14  1  0
  2  1  2  0
  3  4  2  0
  3  2  1  0
  4  5  1  0
  5  1  1  0
 10  5  1  6
  6  7  1  0
  8  7  1  0
  9 10  1  0
  9  8  1  0
 10 11  1  0
 10  6  1  0
 11 12  2  0
 13 11  1  0
 14 19  1  0
 15 21  1  0
 15 16  2  0
 17 16  1  0
 18 17  2  0
 19 20  2  0
 19 18  1  0
 20 15  1  0
 22 21  1  0
 22 23  2  0
 24 23  1  0
 25 24  2  0
 26 27  2  0
 26 25  1  0
 27 22  1  0
  2 28  1  0
  4 29  1  0
  6 30  1  0
  7 31  1  0
  7 32  1  0
  8 33  1  0
  8 34  1  0
  9 35  1  0
  9 36  1  0
 13 37  1  0
 16 38  1  0
 17 39  1  0
 21 40  1  0
 21 41  1  0
 23 42  1  0
 24 43  1  0
 26 44  1  0
M  ISO  8  28  14  29  14  30   5  31  13  32  13  33  13  34  13  35  13
M  ISO  8  36  13  37   3  38  14  39  14  40   8  41   8  42  14  43  14
M  ISO  1  44  14
M  END
>  <minimizedAffinity>  (1) 
-4.88755894

>  <minimizedRMSD>  (1) 
2.30136847

$$$$
