
     RDKit          3D

 31 34  0  0  0  0  0  0  0  0999 V2000
   38.3110   25.5890   35.4970 C   0  0  0  0  0  0  0  0  0  0  0  0
   38.1430   26.9260   35.9150 C   0  0  0  0  0  0  0  0  0  0  0  0
   37.6030   27.8230   35.0540 C   0  0  0  0  0  0  0  0  0  0  0  0
   37.2330   27.3300   33.7560 C   0  0  0  0  0  0  0  0  0  0  0  0
   37.7000   25.5230   33.8340 S   0  0  0  0  0  0  0  0  0  0  0  0
   36.6400   28.0640   32.6510 C   0  0  0  0  0  0  0  0  0  0  0  0
   36.7520   27.7650   31.3090 C   0  0  0  0  0  0  0  0  0  0  0  0
   36.0370   28.7270   30.7180 N   0  0  0  0  0  0  0  0  0  0  0  0
   35.4950   29.5890   31.5840 C   0  0  0  0  0  0  0  0  0  0  0  0
   34.7050   30.6910   31.3310 C   0  0  0  0  0  0  0  0  0  0  0  0
   34.2750   31.4170   32.4190 C   0  0  0  0  0  0  0  0  0  0  0  0
   34.6170   31.0590   33.6910 C   0  0  0  0  0  0  0  0  0  0  0  0
   35.4110   29.9460   33.8780 C   0  0  0  0  0  0  0  0  0  0  0  0
   35.8790   29.1700   32.8490 C   0  0  0  0  0  0  0  0  0  0  0  0
   38.3890   24.1080   37.5240 C   0  0  0  0  0  0  0  0  0  0  0  0
   38.8660   24.5330   36.2840 C   0  0  0  0  0  0  0  0  0  0  0  0
   39.9730   23.8970   35.7450 C   0  0  0  0  0  0  0  0  0  0  0  0
   40.5160   22.8880   36.4870 N   0  0  0  0  0  0  0  0  0  0  0  0
   40.0550   22.4890   37.6730 C   0  0  0  0  0  0  0  0  0  0  0  0
   38.9870   23.1120   38.1770 N   0  0  0  0  0  0  0  0  0  0  0  0
   38.4461   27.2363   36.9259 H   0  0  0  0  0  0  0  0  0  0  0  0
   37.4554   28.8762   35.3351 H   0  0  0  0  0  0  0  0  0  0  0  0
   37.2985   26.9344   30.8384 H   0  0  0  0  0  0  0  0  0  0  0  0
   35.9157   28.7972   29.6976 H   0  0  0  0  0  0  0  0  0  0  0  0
   34.4305   30.9773   30.3050 H   0  0  0  0  0  0  0  0  0  0  0  0
   33.6432   32.3033   32.2600 H   0  0  0  0  0  0  0  0  0  0  0  0
   34.2659   31.6472   34.5517 H   0  0  0  0  0  0  0  0  0  0  0  0
   35.6828   29.6666   34.9066 H   0  0  0  0  0  0  0  0  0  0  0  0
   37.5106   24.5998   37.9672 H   0  0  0  0  0  0  0  0  0  0  0  0
   40.3919   24.1897   34.7709 H   0  0  0  0  0  0  0  0  0  0  0  0
   40.5415   21.6688   38.2213 H   0  0  0  0  0  0  0  0  0  0  0  0
  1  2  2  0
  1 16  1  0
  3  2  1  0
  4  5  1  0
  4  3  2  0
  5  1  1  0
  6 14  1  0
  6  4  1  0
  7  6  2  0
  8  7  1  0
  8  9  1  0
  9 14  2  0
 10  9  1  0
 10 11  2  0
 11 12  1  0
 12 13  2  0
 14 13  1  0
 15 20  2  0
 16 15  1  0
 17 16  2  0
 17 18  1  0
 18 19  2  0
 19 20  1  0
  2 21  1  0
  3 22  1  0
  7 23  1  0
  8 24  1  0
 10 25  1  0
 11 26  1  0
 12 27  1  0
 13 28  1  0
 15 29  1  0
 17 30  1  0
 19 31  1  0
M  ISO  8  21  14  22  14  23  14  24   9  25  14  26  14  27  14  28  14
M  ISO  3  29  14  30  14  31  14
M  END
>  <minimizedAffinity>  (1) 
-5.41347647

>  <minimizedRMSD>  (1) 
0.377267808

$$$$
