
     RDKit          3D

 27 29  0  0  0  0  0  0  0  0999 V2000
   38.4140   25.5950   35.6170 C   0  0  0  0  0  0  0  0  0  0  0  0
   38.2740   26.9020   36.1340 C   0  0  0  0  0  0  0  0  0  0  0  0
   37.7320   27.8620   35.3430 C   0  0  0  0  0  0  0  0  0  0  0  0
   37.3370   27.4630   34.0210 C   0  0  0  0  0  0  0  0  0  0  0  0
   37.7790   25.6450   33.9640 S   0  0  0  0  0  0  0  0  0  0  0  0
   38.5200   23.9830   37.5430 C   0  0  0  0  0  0  0  0  0  0  0  0
   38.9660   24.4830   36.3220 C   0  0  0  0  0  0  0  0  0  0  0  0
   40.0450   23.8600   35.7280 C   0  0  0  0  0  0  0  0  0  0  0  0
   40.6220   22.8000   36.3440 N   0  0  0  0  0  0  0  0  0  0  0  0
   40.1650   22.3340   37.5330 C   0  0  0  0  0  0  0  0  0  0  0  0
   39.1080   22.9430   38.1160 N   0  0  0  0  0  0  0  0  0  0  0  0
   36.7470   28.2320   32.9770 C   0  0  0  0  0  0  0  0  0  0  0  0
   37.0710   28.0370   31.6500 C   0  0  0  0  0  0  0  0  0  0  0  0
   36.4250   28.8530   30.7460 C   0  0  0  0  0  0  0  0  0  0  0  0
   35.5100   29.8040   31.1420 C   0  0  0  0  0  0  0  0  0  0  0  0
   35.1950   29.9910   32.4590 C   0  0  0  0  0  0  0  0  0  0  0  0
   35.8320   29.1830   33.3810 C   0  0  0  0  0  0  0  0  0  0  0  0
   38.5982   27.1371   37.1585 H   0  0  0  0  0  0  0  0  0  0  0  0
   37.6015   28.8953   35.6969 H   0  0  0  0  0  0  0  0  0  0  0  0
   37.6634   24.4605   38.0411 H   0  0  0  0  0  0  0  0  0  0  0  0
   40.4327   24.2206   34.7638 H   0  0  0  0  0  0  0  0  0  0  0  0
   40.6479   21.4720   38.0165 H   0  0  0  0  0  0  0  0  0  0  0  0
   37.8002   27.2769   31.3329 H   0  0  0  0  0  0  0  0  0  0  0  0
   36.6471   28.7413   29.6745 H   0  0  0  0  0  0  0  0  0  0  0  0
   35.0209   30.4281   30.3796 H   0  0  0  0  0  0  0  0  0  0  0  0
   34.4653   30.7525   32.7714 H   0  0  0  0  0  0  0  0  0  0  0  0
   35.6069   29.2992   34.4514 H   0  0  0  0  0  0  0  0  0  0  0  0
  1  2  2  0
  1  7  1  0
  3  2  1  0
  4  3  2  0
  5  4  1  0
  5  1  1  0
  6 11  2  0
  7  6  1  0
  8  7  2  0
  8  9  1  0
  9 10  2  0
 10 11  1  0
 12 17  1  0
 12  4  1  0
 13 12  2  0
 14 15  2  0
 14 13  1  0
 15 16  1  0
 16 17  2  0
  2 18  1  0
  3 19  1  0
  6 20  1  0
  8 21  1  0
 10 22  1  0
 13 23  1  0
 14 24  1  0
 15 25  1  0
 16 26  1  0
 17 27  1  0
M  ISO  8  18  14  19  14  20  14  21  14  22  14  23  14  24  14  25  14
M  ISO  2  26  14  27  14
M  END
>  <minimizedAffinity>  (1) 
-4.89638472

>  <minimizedRMSD>  (1) 
0.99449122

$$$$
