
     RDKit          3D

 47 49  0  0  1  0  0  0  0  0999 V2000
   36.7050   25.5590   32.0000 C   0  0  0  0  0  0  0  0  0  0  0  0
   37.3690   25.4610   33.2230 C   0  0  0  0  0  0  0  0  0  0  0  0
   37.3980   26.4880   34.0970 C   0  0  0  0  0  0  0  0  0  0  0  0
   36.7560   27.6430   33.7480 N   0  0  0  0  0  0  0  0  0  0  0  0
   36.1110   27.7490   32.5640 C   0  0  0  0  0  0  0  0  0  0  0  0
   36.0860   26.7450   31.7250 N   0  0  0  0  0  0  0  0  0  0  0  0
   38.0940   26.2460   35.3730 C   0  0  0  0  0  0  0  0  0  0  0  0
   37.9480   24.8410   35.7770 C   0  0  0  0  0  0  0  0  0  0  0  0
   39.1650   24.3080   36.3380 N   0  0  0  0  0  0  0  0  0  0  0  0
   39.8950   23.5400   35.2920 C   0  0  0  0  0  0  0  0  0  0  0  0
   40.9540   22.8470   36.1170 C   0  0  0  0  0  0  0  0  0  0  0  0
   40.3250   22.6860   37.5010 C   0  0  0  0  0  0  0  0  0  0  0  0
   38.9210   23.2360   37.2440 C   0  0  1  0  0  0  0  0  0  0  0  0
   38.3980   23.6980   38.5790 C   0  0  0  0  0  0  0  0  0  0  0  0
   39.2990   23.7200   39.5890 F   0  0  0  0  0  0  0  0  0  0  0  0
   37.2860   22.9510   38.8760 F   0  0  0  0  0  0  0  0  0  0  0  0
   37.9710   25.0340   38.4530 F   0  0  0  0  0  0  0  0  0  0  0  0
   35.4630   29.0470   32.2240 C   0  0  2  0  0  0  0  0  0  0  0  0
   36.5160   29.9610   31.5230 C   0  0  0  0  0  0  0  0  0  0  0  0
   35.0130   29.8120   33.4040 C   0  0  0  0  0  0  0  0  0  0  0  0
   33.6540   29.4970   33.8630 C   0  0  0  0  0  0  0  0  0  0  0  0
   32.6720   29.2310   32.9230 C   0  0  0  0  0  0  0  0  0  0  0  0
   31.5030   28.9690   33.5830 C   0  0  0  0  0  0  0  0  0  0  0  0
   31.7560   29.0690   34.8980 N   0  0  0  0  0  0  0  0  0  0  0  0
   33.0310   29.3820   35.0490 N   0  0  0  0  0  0  0  0  0  0  0  0
   36.6811   24.7195   31.2896 H   0  0  0  0  0  0  0  0  0  0  0  0
   37.8818   24.5227   33.4811 H   0  0  0  0  0  0  0  0  0  0  0  0
   39.1622   26.4797   35.2533 H   0  0  0  0  0  0  0  0  0  0  0  0
   37.6514   26.8884   36.1486 H   0  0  0  0  0  0  0  0  0  0  0  0
   37.1494   24.7698   36.5301 H   0  0  0  0  0  0  0  0  0  0  0  0
   37.7038   24.2543   34.8792 H   0  0  0  0  0  0  0  0  0  0  0  0
   40.3427   24.2078   34.5412 H   0  0  0  0  0  0  0  0  0  0  0  0
   39.2595   22.8567   34.7096 H   0  0  0  0  0  0  0  0  0  0  0  0
   41.2002   21.8652   35.6864 H   0  0  0  0  0  0  0  0  0  0  0  0
   41.8940   23.4173   36.1511 H   0  0  0  0  0  0  0  0  0  0  0  0
   40.2959   21.6313   37.8121 H   0  0  0  0  0  0  0  0  0  0  0  0
   40.8710   23.1920   38.3109 H   0  0  0  0  0  0  0  0  0  0  0  0
   38.1805   22.5378   36.8266 H   0  0  0  0  0  0  0  0  0  0  0  0
   34.5933   28.7956   31.5992 H   0  0  0  0  0  0  0  0  0  0  0  0
   37.1152   30.4811   32.2849 H   0  0  0  0  0  0  0  0  0  0  0  0
   37.1762   29.3448   30.8950 H   0  0  0  0  0  0  0  0  0  0  0  0
   35.9988   30.7013   30.8950 H   0  0  0  0  0  0  0  0  0  0  0  0
   35.7092   29.6064   34.2305 H   0  0  0  0  0  0  0  0  0  0  0  0
   34.9989   30.8690   33.0997 H   0  0  0  0  0  0  0  0  0  0  0  0
   32.8090   29.2305   31.8316 H   0  0  0  0  0  0  0  0  0  0  0  0
   30.5352   28.7222   33.1221 H   0  0  0  0  0  0  0  0  0  0  0  0
   31.0746   28.9265   35.6571 H   0  0  0  0  0  0  0  0  0  0  0  0
  1  2  2  0
  2  3  1  0
  3  7  1  0
  4  3  2  0
  5  4  1  0
  6  1  1  0
  6  5  2  0
  7  8  1  0
  8  9  1  0
  9 13  1  0
 10 11  1  0
 10  9  1  0
 11 12  1  0
 13 12  1  0
 13 14  1  0
 14 16  1  0
 14 15  1  0
 17 14  1  0
 18  5  1  0
 18 20  1  0
 19 18  1  0
 20 21  1  0
 21 25  2  0
 22 23  2  0
 22 21  1  0
 23 24  1  0
 24 25  1  0
  1 26  1  0
  2 27  1  0
  7 28  1  0
  7 29  1  0
  8 30  1  0
  8 31  1  0
 10 32  1  0
 10 33  1  0
 11 34  1  0
 11 35  1  0
 12 36  1  0
 12 37  1  0
 13 38  1  6
 18 39  1  6
 19 40  1  0
 19 41  1  0
 19 42  1  0
 20 43  1  0
 20 44  1  0
 22 45  1  0
 23 46  1  0
 24 47  1  0
M  ISO  8  26  14  27  14  28   8  29   8  30   8  31   8  32  13  33  13
M  ISO  8  34  13  35  13  36  13  37  13  38  13  39   8  40   8  41   8
M  ISO  6  42   8  43   8  44   8  45  14  46  14  47   9
M  END
>  <minimizedAffinity>  (1) 
-5.76522684

>  <minimizedRMSD>  (1) 
1.15106273

$$$$
