
     RDKit          3D

 20 21  0  0  0  0  0  0  0  0999 V2000
   38.1050   25.5690   35.3540 C   0  0  0  0  0  0  0  0  0  0  0  0
   37.8200   26.9050   35.6970 C   0  0  0  0  0  0  0  0  0  0  0  0
   37.2880   27.7230   34.7590 C   0  0  0  0  0  0  0  0  0  0  0  0
   37.0560   27.1420   33.4620 C   0  0  0  0  0  0  0  0  0  0  0  0
   37.6350   25.3700   33.6560 S   0  0  0  0  0  0  0  0  0  0  0  0
   38.1930   24.2570   37.5000 C   0  0  0  0  0  0  0  0  0  0  0  0
   38.6670   24.5920   36.2350 C   0  0  0  0  0  0  0  0  0  0  0  0
   39.7860   23.9310   35.7680 C   0  0  0  0  0  0  0  0  0  0  0  0
   40.3790   22.9900   36.5470 N   0  0  0  0  0  0  0  0  0  0  0  0
   39.8970   22.6820   37.7750 C   0  0  0  0  0  0  0  0  0  0  0  0
   38.7990   23.3300   38.2330 N   0  0  0  0  0  0  0  0  0  0  0  0
   36.5030   27.7600   32.2700 C   0  0  0  0  0  0  0  0  0  0  0  0
   36.8410   28.9110   31.8820 O   0  0  0  0  0  0  0  0  0  0  0  0
   35.5830   26.9880   31.5980 O   0  0  0  0  0  0  0  0  0  0  0  0
   38.0265   27.2777   36.7111 H   0  0  0  0  0  0  0  0  0  0  0  0
   37.0461   28.7740   34.9756 H   0  0  0  0  0  0  0  0  0  0  0  0
   37.3037   24.7673   37.8984 H   0  0  0  0  0  0  0  0  0  0  0  0
   40.1935   24.1648   34.7734 H   0  0  0  0  0  0  0  0  0  0  0  0
   40.3903   21.9163   38.3917 H   0  0  0  0  0  0  0  0  0  0  0  0
   35.1556   27.3322   30.7740 H   0  0  0  0  0  0  0  0  0  0  0  0
  1  2  2  0
  1  7  1  0
  3  2  1  0
  4  5  1  0
  4  3  2  0
  5  1  1  0
  6 11  2  0
  7  6  1  0
  8  7  2  0
  8  9  1  0
  9 10  2  0
 10 11  1  0
 12  4  1  0
 13 12  2  0
 14 12  1  0
  2 15  1  0
  3 16  1  0
  6 17  1  0
  8 18  1  0
 10 19  1  0
 14 20  1  0
M  ISO  6  15  14  16  14  17  14  18  14  19  14  20   3
M  END
>  <minimizedAffinity>  (1) 
-4.04198408

>  <minimizedRMSD>  (1) 
0.253329188

$$$$
