
     RDKit          3D

 29 30  0  0  0  0  0  0  0  0999 V2000
   38.0750   25.5530   35.3050 C   0  0  0  0  0  0  0  0  0  0  0  0
   37.7520   26.8940   35.6130 C   0  0  0  0  0  0  0  0  0  0  0  0
   37.2330   27.6860   34.6290 C   0  0  0  0  0  0  0  0  0  0  0  0
   37.0570   27.0750   33.3500 C   0  0  0  0  0  0  0  0  0  0  0  0
   37.6550   25.3310   33.5820 S   0  0  0  0  0  0  0  0  0  0  0  0
   38.0900   24.3050   37.4830 C   0  0  0  0  0  0  0  0  0  0  0  0
   38.6230   24.5950   36.2080 C   0  0  0  0  0  0  0  0  0  0  0  0
   39.7560   23.9310   35.7800 C   0  0  0  0  0  0  0  0  0  0  0  0
   40.3040   23.0170   36.6300 N   0  0  0  0  0  0  0  0  0  0  0  0
   39.7800   22.7510   37.8520 C   0  0  0  0  0  0  0  0  0  0  0  0
   38.6840   23.3990   38.2540 N   0  0  0  0  0  0  0  0  0  0  0  0
   36.5420   27.6360   32.1330 C   0  0  0  0  0  0  0  0  0  0  0  0
   37.6850   28.1980   31.3440 C   0  0  0  0  0  0  0  0  0  0  0  0
   35.8170   26.5290   31.3640 C   0  0  0  0  0  0  0  0  0  0  0  0
   35.4980   28.6790   32.4640 C   0  0  0  0  0  0  0  0  0  0  0  0
   37.9154   27.2919   36.6254 H   0  0  0  0  0  0  0  0  0  0  0  0
   36.9651   28.7372   34.8114 H   0  0  0  0  0  0  0  0  0  0  0  0
   37.1880   24.8259   37.8366 H   0  0  0  0  0  0  0  0  0  0  0  0
   40.1983   24.1317   34.7930 H   0  0  0  0  0  0  0  0  0  0  0  0
   40.2547   22.0063   38.5078 H   0  0  0  0  0  0  0  0  0  0  0  0
   38.4548   28.5765   32.0326 H   0  0  0  0  0  0  0  0  0  0  0  0
   38.1160   27.4091   30.7101 H   0  0  0  0  0  0  0  0  0  0  0  0
   37.3234   29.0210   30.7101 H   0  0  0  0  0  0  0  0  0  0  0  0
   35.3578   25.8279   32.0764 H   0  0  0  0  0  0  0  0  0  0  0  0
   35.0347   26.9738   30.7314 H   0  0  0  0  0  0  0  0  0  0  0  0
   36.5374   25.9897   30.7314 H   0  0  0  0  0  0  0  0  0  0  0  0
   35.4055   28.7714   33.5562 H   0  0  0  0  0  0  0  0  0  0  0  0
   35.7994   29.6475   32.0383 H   0  0  0  0  0  0  0  0  0  0  0  0
   34.5298   28.3767   32.0383 H   0  0  0  0  0  0  0  0  0  0  0  0
  1  2  2  0
  1  7  1  0
  3  2  1  0
  4  5  1  0
  4  3  2  0
  5  1  1  0
  6 11  2  0
  7  6  1  0
  8  7  2  0
  8  9  1  0
  9 10  2  0
 10 11  1  0
 12 15  1  0
 12  4  1  0
 13 12  1  0
 14 12  1  0
  2 16  1  0
  3 17  1  0
  6 18  1  0
  8 19  1  0
 10 20  1  0
 13 21  1  0
 13 22  1  0
 13 23  1  0
 14 24  1  0
 14 25  1  0
 14 26  1  0
 15 27  1  0
 15 28  1  0
 15 29  1  0
M  ISO  8  16  14  17  14  18  14  19  14  20  14  21   8  22   8  23   8
M  ISO  6  24   8  25   8  26   8  27   8  28   8  29   8
M  END
>  <minimizedAffinity>  (1) 
-4.43501282

>  <minimizedRMSD>  (1) 
0.3257218

$$$$
