
     RDKit          3D

 23 25  0  0  0  0  0  0  0  0999 V2000
   38.4260   25.5880   35.6240 C   0  0  0  0  0  0  0  0  0  0  0  0
   38.2640   26.9100   36.0900 C   0  0  0  0  0  0  0  0  0  0  0  0
   37.7070   27.8480   35.2880 C   0  0  0  0  0  0  0  0  0  0  0  0
   37.3100   27.4090   33.9790 C   0  0  0  0  0  0  0  0  0  0  0  0
   37.7720   25.6100   33.9630 S   0  0  0  0  0  0  0  0  0  0  0  0
   38.5110   24.0250   37.5720 C   0  0  0  0  0  0  0  0  0  0  0  0
   38.9880   24.4870   36.3260 C   0  0  0  0  0  0  0  0  0  0  0  0
   40.0620   23.8640   35.7230 C   0  0  0  0  0  0  0  0  0  0  0  0
   40.6160   22.8090   36.3840 N   0  0  0  0  0  0  0  0  0  0  0  0
   40.1590   22.3650   37.5800 C   0  0  0  0  0  0  0  0  0  0  0  0
   39.1190   22.9810   38.1470 N   0  0  0  0  0  0  0  0  0  0  0  0
   36.6920   28.2110   32.9290 C   0  0  0  0  0  0  0  0  0  0  0  0
   37.3550   28.3680   31.6230 C   0  0  0  0  0  0  0  0  0  0  0  0
   36.0750   29.4460   30.8430 S   0  0  0  0  0  0  0  0  0  0  0  0
   34.9370   29.4820   32.3580 C   0  0  0  0  0  0  0  0  0  0  0  0
   35.5180   28.7640   33.2600 N   0  0  0  0  0  0  0  0  0  0  0  0
   38.5904   27.1787   37.1055 H   0  0  0  0  0  0  0  0  0  0  0  0
   37.5664   28.8873   35.6199 H   0  0  0  0  0  0  0  0  0  0  0  0
   37.6556   24.5142   38.0608 H   0  0  0  0  0  0  0  0  0  0  0  0
   40.4531   24.2038   34.7526 H   0  0  0  0  0  0  0  0  0  0  0  0
   40.6384   21.5087   38.0769 H   0  0  0  0  0  0  0  0  0  0  0  0
   38.3056   27.9712   31.2371 H   0  0  0  0  0  0  0  0  0  0  0  0
   33.9755   30.0084   32.4502 H   0  0  0  0  0  0  0  0  0  0  0  0
  1  2  2  0
  1  7  1  0
  3  2  1  0
  4  3  2  0
  5  4  1  0
  5  1  1  0
  6 11  2  0
  7  6  1  0
  8  7  2  0
  8  9  1  0
  9 10  2  0
 10 11  1  0
 12 16  1  0
 12  4  1  0
 13 12  2  0
 14 13  1  0
 14 15  1  0
 15 16  2  0
  2 17  1  0
  3 18  1  0
  6 19  1  0
  8 20  1  0
 10 21  1  0
 13 22  1  0
 15 23  1  0
M  ISO  7  17  14  18  14  19  14  20  14  21  14  22  14  23  14
M  END
>  <minimizedAffinity>  (1) 
-4.37847424

>  <minimizedRMSD>  (1) 
0.584598958

$$$$
