
     RDKit          3D

 26 27  0  0  0  0  0  0  0  0999 V2000
   38.3170   25.5730   35.5010 C   0  0  0  0  0  0  0  0  0  0  0  0
   38.1390   26.9010   35.9460 C   0  0  0  0  0  0  0  0  0  0  0  0
   37.5340   27.7980   35.1270 C   0  0  0  0  0  0  0  0  0  0  0  0
   37.1100   27.3130   33.8420 C   0  0  0  0  0  0  0  0  0  0  0  0
   37.6190   25.5100   33.8560 S   0  0  0  0  0  0  0  0  0  0  0  0
   38.4720   24.0190   37.4680 C   0  0  0  0  0  0  0  0  0  0  0  0
   38.9330   24.5170   36.2360 C   0  0  0  0  0  0  0  0  0  0  0  0
   40.0680   23.9680   35.6730 C   0  0  0  0  0  0  0  0  0  0  0  0
   40.6910   22.9620   36.3440 N   0  0  0  0  0  0  0  0  0  0  0  0
   40.2310   22.4970   37.5300 C   0  0  0  0  0  0  0  0  0  0  0  0
   39.1160   23.0410   38.0770 N   0  0  0  0  0  0  0  0  0  0  0  0
   36.4490   27.9850   32.7540 C   0  0  0  0  0  0  0  0  0  0  0  0
   35.8440   29.2640   33.2380 C   0  0  0  0  0  0  0  0  0  0  0  0
   37.3780   28.3370   31.5960 C   0  0  0  0  0  0  0  0  0  0  0  0
   38.4865   27.2048   36.9445 H   0  0  0  0  0  0  0  0  0  0  0  0
   37.3760   28.8433   35.4310 H   0  0  0  0  0  0  0  0  0  0  0  0
   37.5688   24.4474   37.9270 H   0  0  0  0  0  0  0  0  0  0  0  0
   40.4567   24.3331   34.7109 H   0  0  0  0  0  0  0  0  0  0  0  0
   40.7593   21.6822   38.0468 H   0  0  0  0  0  0  0  0  0  0  0  0
   35.6907   27.2773   32.3877 H   0  0  0  0  0  0  0  0  0  0  0  0
   35.8392   29.2742   34.3379 H   0  0  0  0  0  0  0  0  0  0  0  0
   36.4358   30.1134   32.8660 H   0  0  0  0  0  0  0  0  0  0  0  0
   34.8120   29.3453   32.8660 H   0  0  0  0  0  0  0  0  0  0  0  0
   38.3373   28.7005   31.9930 H   0  0  0  0  0  0  0  0  0  0  0  0
   37.5515   27.4423   30.9801 H   0  0  0  0  0  0  0  0  0  0  0  0
   36.9150   29.1220   30.9801 H   0  0  0  0  0  0  0  0  0  0  0  0
  1  2  2  0
  1  7  1  0
  3  2  1  0
  4  5  1  0
  4  3  2  0
  5  1  1  0
  6 11  2  0
  7  6  1  0
  8  7  2  0
  8  9  1  0
  9 10  2  0
 10 11  1  0
 12 13  1  0
 12  4  1  0
 14 12  1  0
  2 15  1  0
  3 16  1  0
  6 17  1  0
  8 18  1  0
 10 19  1  0
 12 20  1  0
 13 21  1  0
 13 22  1  0
 13 23  1  0
 14 24  1  0
 14 25  1  0
 14 26  1  0
M  ISO  8  15  14  16  14  17  14  18  14  19  14  20   8  21   8  22   8
M  ISO  4  23   8  24   8  25   8  26   8
M  END
>  <minimizedAffinity>  (1) 
-4.1885457

>  <minimizedRMSD>  (1) 
0.553665698

$$$$
