
     RDKit          3D

 24 26  0  0  0  0  0  0  0  0999 V2000
   38.3860   25.6330   35.5840 C   0  0  0  0  0  0  0  0  0  0  0  0
   38.2490   26.9520   36.0660 C   0  0  0  0  0  0  0  0  0  0  0  0
   37.6920   27.8990   35.2730 C   0  0  0  0  0  0  0  0  0  0  0  0
   37.2780   27.4700   33.9760 C   0  0  0  0  0  0  0  0  0  0  0  0
   37.7140   25.6610   33.9310 S   0  0  0  0  0  0  0  0  0  0  0  0
   38.4840   24.0160   37.4980 C   0  0  0  0  0  0  0  0  0  0  0  0
   38.9500   24.5260   36.2920 C   0  0  0  0  0  0  0  0  0  0  0  0
   40.0530   23.9320   35.7060 C   0  0  0  0  0  0  0  0  0  0  0  0
   40.6160   22.8780   36.3520 N   0  0  0  0  0  0  0  0  0  0  0  0
   40.1550   22.4000   37.5100 C   0  0  0  0  0  0  0  0  0  0  0  0
   39.0840   22.9810   38.0760 N   0  0  0  0  0  0  0  0  0  0  0  0
   36.6640   28.1460   32.8740 C   0  0  0  0  0  0  0  0  0  0  0  0
   35.5870   28.9620   32.9310 C   0  0  0  0  0  0  0  0  0  0  0  0
   35.3470   29.3810   31.6760 N   0  0  0  0  0  0  0  0  0  0  0  0
   36.2820   28.8100   30.8950 C   0  0  0  0  0  0  0  0  0  0  0  0
   37.1280   28.0250   31.6230 N   0  0  0  0  0  0  0  0  0  0  0  0
   38.5921   27.2098   37.0788 H   0  0  0  0  0  0  0  0  0  0  0  0
   37.5661   28.9387   35.6094 H   0  0  0  0  0  0  0  0  0  0  0  0
   37.6079   24.4747   37.9797 H   0  0  0  0  0  0  0  0  0  0  0  0
   40.4593   24.2995   34.7521 H   0  0  0  0  0  0  0  0  0  0  0  0
   40.6452   21.5424   37.9940 H   0  0  0  0  0  0  0  0  0  0  0  0
   35.0163   29.2315   33.8319 H   0  0  0  0  0  0  0  0  0  0  0  0
   36.3552   28.9573   29.8074 H   0  0  0  0  0  0  0  0  0  0  0  0
   37.9308   27.4720   31.2905 H   0  0  0  0  0  0  0  0  0  0  0  0
  1  2  2  0
  1  7  1  0
  3  2  1  0
  4  3  2  0
  5  4  1  0
  5  1  1  0
  6 11  2  0
  7  6  1  0
  8  7  2  0
  8  9  1  0
  9 10  2  0
 10 11  1  0
 12 13  2  0
 12  4  1  0
 14 13  1  0
 15 16  1  0
 15 14  2  0
 16 12  1  0
  2 17  1  0
  3 18  1  0
  6 19  1  0
  8 20  1  0
 10 21  1  0
 13 22  1  0
 15 23  1  0
 16 24  1  0
M  ISO  8  17  14  18  14  19  14  20  14  21  14  22  14  23  14  24   9
M  END
>  <minimizedAffinity>  (1) 
-4.37178183

>  <minimizedRMSD>  (1) 
0.681758165

$$$$
