
     RDKit          3D

 31 33  0  0  0  0  0  0  0  0999 V2000
   37.9760   25.6020   35.1400 C   0  0  0  0  0  0  0  0  0  0  0  0
   37.6190   26.9300   35.4730 C   0  0  0  0  0  0  0  0  0  0  0  0
   37.0510   27.7130   34.5220 C   0  0  0  0  0  0  0  0  0  0  0  0
   36.8540   27.1210   33.2260 C   0  0  0  0  0  0  0  0  0  0  0  0
   37.5210   25.3880   33.4340 S   0  0  0  0  0  0  0  0  0  0  0  0
   38.0520   24.2410   37.2420 C   0  0  0  0  0  0  0  0  0  0  0  0
   38.5750   24.6520   36.0150 C   0  0  0  0  0  0  0  0  0  0  0  0
   39.7700   24.1060   35.6010 C   0  0  0  0  0  0  0  0  0  0  0  0
   40.3710   23.1960   36.4130 N   0  0  0  0  0  0  0  0  0  0  0  0
   39.8580   22.8140   37.5850 C   0  0  0  0  0  0  0  0  0  0  0  0
   38.6820   23.3480   37.9980 N   0  0  0  0  0  0  0  0  0  0  0  0
   36.2830   27.7560   32.1320 N   0  0  0  0  0  0  0  0  0  0  0  0
   35.4060   28.9200   32.1250 C   0  0  0  0  0  0  0  0  0  0  0  0
   36.3430   30.0180   31.6120 C   0  0  0  0  0  0  0  0  0  0  0  0
   36.9260   29.7260   30.3690 N   0  0  0  0  0  0  0  0  0  0  0  0
   36.9630   28.4190   29.8660 C   0  0  0  0  0  0  0  0  0  0  0  0
   36.5160   27.3100   30.7570 C   0  0  0  0  0  0  0  0  0  0  0  0
   37.7989   27.3207   36.4854 H   0  0  0  0  0  0  0  0  0  0  0  0
   36.7551   28.7514   34.7320 H   0  0  0  0  0  0  0  0  0  0  0  0
   37.0987   24.6650   37.5904 H   0  0  0  0  0  0  0  0  0  0  0  0
   40.2243   24.3974   34.6425 H   0  0  0  0  0  0  0  0  0  0  0  0
   40.3830   22.0750   38.2080 H   0  0  0  0  0  0  0  0  0  0  0  0
   34.5522   28.7736   31.4471 H   0  0  0  0  0  0  0  0  0  0  0  0
   34.9542   29.1422   33.1030 H   0  0  0  0  0  0  0  0  0  0  0  0
   35.7662   30.9496   31.5149 H   0  0  0  0  0  0  0  0  0  0  0  0
   37.1634   30.1067   32.3394 H   0  0  0  0  0  0  0  0  0  0  0  0
   36.4213   30.2914   29.6715 H   0  0  0  0  0  0  0  0  0  0  0  0
   36.3248   28.3957   28.9704 H   0  0  0  0  0  0  0  0  0  0  0  0
   38.0319   28.2209   29.6981 H   0  0  0  0  0  0  0  0  0  0  0  0
   35.5799   26.8922   30.3580 H   0  0  0  0  0  0  0  0  0  0  0  0
   37.3169   26.5563   30.7808 H   0  0  0  0  0  0  0  0  0  0  0  0
  1  2  2  0
  1  7  1  0
  3  2  1  0
  4  5  1  0
  4  3  2  0
  5  1  1  0
  6 11  2  0
  7  6  1  0
  8  7  2  0
  8  9  1  0
  9 10  2  0
 10 11  1  0
 12  4  1  0
 13 12  1  0
 14 13  1  0
 15 14  1  0
 16 15  1  0
 16 17  1  0
 17 12  1  0
  2 18  1  0
  3 19  1  0
  6 20  1  0
  8 21  1  0
 10 22  1  0
 13 23  1  0
 13 24  1  0
 14 25  1  0
 14 26  1  0
 15 27  1  0
 16 28  1  0
 16 29  1  0
 17 30  1  0
 17 31  1  0
M  ISO  8  18  14  19  14  20  14  21  14  22  14  23  13  24  13  25  13
M  ISO  6  26  13  27   5  28  13  29  13  30  13  31  13
M  END
>  <minimizedAffinity>  (1) 
-4.63600349

>  <minimizedRMSD>  (1) 
0.994651914

$$$$
