
     RDKit          3D

 38 40  0  0  1  0  0  0  0  0999 V2000
   36.2700   27.8050   32.4760 N   0  0  0  0  0  0  0  0  0  0  0  0
   35.5190   29.0660   32.5050 C   0  0  0  0  0  0  0  0  0  0  0  0
   36.4870   30.0340   31.8330 C   0  0  0  0  0  0  0  0  0  0  0  0
   36.9010   29.6170   30.5580 N   0  0  0  0  0  0  0  0  0  0  0  0
   36.7190   28.2960   30.1260 C   0  0  0  0  0  0  0  0  0  0  0  0
   36.2910   27.2870   31.1210 C   0  0  1  0  0  0  0  0  0  0  0  0
   36.9660   26.0150   30.9980 N   0  0  0  0  0  0  0  0  0  0  0  0
   36.0830   24.9070   30.7260 C   0  0  0  0  0  0  0  0  0  0  0  0
   34.8210   25.0660   30.4980 N   0  0  0  0  0  0  0  0  0  0  0  0
   36.7010   23.6030   30.7240 N   0  0  0  0  0  0  0  0  0  0  0  0
   34.2640   24.2080   30.3120 H   0  0  0  0  0  0  0  0  0  0  0  0
   38.0260   25.6480   35.4280 C   0  0  0  0  0  0  0  0  0  0  0  0
   37.8820   27.0150   35.7070 C   0  0  0  0  0  0  0  0  0  0  0  0
   37.3030   27.8000   34.7630 C   0  0  0  0  0  0  0  0  0  0  0  0
   36.8820   27.1760   33.5530 C   0  0  0  0  0  0  0  0  0  0  0  0
   37.3480   25.3960   33.8120 S   0  0  0  0  0  0  0  0  0  0  0  0
   38.1520   24.3300   37.5580 C   0  0  0  0  0  0  0  0  0  0  0  0
   38.6150   24.6690   36.2960 C   0  0  0  0  0  0  0  0  0  0  0  0
   39.7370   24.0280   35.8170 C   0  0  0  0  0  0  0  0  0  0  0  0
   40.3200   23.0970   36.6180 N   0  0  0  0  0  0  0  0  0  0  0  0
   39.8610   22.7840   37.8290 C   0  0  0  0  0  0  0  0  0  0  0  0
   38.7670   23.4110   38.2960 N   0  0  0  0  0  0  0  0  0  0  0  0
   34.5798   28.9838   31.9384 H   0  0  0  0  0  0  0  0  0  0  0  0
   35.2159   29.3759   33.5160 H   0  0  0  0  0  0  0  0  0  0  0  0
   35.9910   31.0110   31.7358 H   0  0  0  0  0  0  0  0  0  0  0  0
   37.3860   30.0835   32.4650 H   0  0  0  0  0  0  0  0  0  0  0  0
   36.4058   30.2151   29.8813 H   0  0  0  0  0  0  0  0  0  0  0  0
   35.9578   28.3145   29.3322 H   0  0  0  0  0  0  0  0  0  0  0  0
   37.7237   27.9684   29.8207 H   0  0  0  0  0  0  0  0  0  0  0  0
   35.2434   27.0631   30.8714 H   0  0  0  0  0  0  0  0  0  0  0  0
   37.9859   25.9090   31.0958 H   0  0  0  0  0  0  0  0  0  0  0  0
   36.1331   22.7642   30.5374 H   0  0  0  0  0  0  0  0  0  0  0  0
   37.7100   23.5110   30.9092 H   0  0  0  0  0  0  0  0  0  0  0  0
   38.2277   27.4381   36.6617 H   0  0  0  0  0  0  0  0  0  0  0  0
   37.1638   28.8789   34.9262 H   0  0  0  0  0  0  0  0  0  0  0  0
   37.2578   24.8315   37.9567 H   0  0  0  0  0  0  0  0  0  0  0  0
   40.1459   24.2611   34.8228 H   0  0  0  0  0  0  0  0  0  0  0  0
   40.3701   22.0229   38.4385 H   0  0  0  0  0  0  0  0  0  0  0  0
  1  2  1  0
  1 15  1  0
  3  2  1  0
  4  3  1  0
  5  4  1  0
  5  6  1  0
  6  1  1  0
  7  6  1  0
  8  7  1  0
  9  8  2  0
 10  8  1  0
 11  9  1  0
 12 13  2  0
 12 18  1  0
 14 13  1  0
 15 16  1  0
 15 14  2  0
 16 12  1  0
 17 22  2  0
 18 17  1  0
 19 18  2  0
 19 20  1  0
 20 21  2  0
 21 22  1  0
  2 23  1  0
  2 24  1  0
  3 25  1  0
  3 26  1  0
  4 27  1  0
  5 28  1  0
  5 29  1  0
  6 30  1  6
  7 31  1  0
 10 32  1  0
 10 33  1  0
 13 34  1  0
 14 35  1  0
 17 36  1  0
 19 37  1  0
 21 38  1  0
M  ISO  8  23  13  24  13  25  13  26  13  27   5  28  13  29  13  30  13
M  ISO  5  34  14  35  14  36  14  37  14  38  14
M  END
>  <minimizedAffinity>  (1) 
-5.25661945

>  <minimizedRMSD>  (1) 
0.549705744

$$$$
