
     RDKit          3D

 42 45  0  0  1  0  0  0  0  0999 V2000
   36.3340   27.9990   32.8070 N   0  0  0  0  0  0  0  0  0  0  0  0
   35.1460   28.8590   32.9230 C   0  0  0  0  0  0  0  0  0  0  0  0
   35.7680   30.2540   32.7490 C   0  0  0  0  0  0  0  0  0  0  0  0
   36.4960   30.4170   31.5620 N   0  0  0  0  0  0  0  0  0  0  0  0
   36.8950   29.2900   30.8100 C   0  0  0  0  0  0  0  0  0  0  0  0
   36.7590   27.9430   31.4200 C   0  0  1  0  0  0  0  0  0  0  0  0
   37.9440   27.1180   31.2250 N   0  0  0  0  0  0  0  0  0  0  0  0
   39.2130   27.5630   31.4170 C   0  0  0  0  0  0  0  0  0  0  0  0
   40.3000   26.7320   31.2210 C   0  0  0  0  0  0  0  0  0  0  0  0
   40.1440   25.4220   30.8220 C   0  0  0  0  0  0  0  0  0  0  0  0
   41.3610   24.7050   30.6670 N   0  0  0  0  0  0  0  0  0  0  0  0
   38.8820   24.9830   30.6310 N   0  0  0  0  0  0  0  0  0  0  0  0
   37.8490   25.8310   30.8350 C   0  0  0  0  0  0  0  0  0  0  0  0
   36.7380   25.2900   30.6210 O   0  0  0  0  0  0  0  0  0  0  0  0
   38.1080   25.6920   35.6380 C   0  0  0  0  0  0  0  0  0  0  0  0
   38.1430   27.0700   35.8960 C   0  0  0  0  0  0  0  0  0  0  0  0
   37.5710   27.9150   35.0010 C   0  0  0  0  0  0  0  0  0  0  0  0
   36.9710   27.3340   33.8460 C   0  0  0  0  0  0  0  0  0  0  0  0
   37.2590   25.5040   34.0960 S   0  0  0  0  0  0  0  0  0  0  0  0
   38.1840   24.3190   37.7370 C   0  0  0  0  0  0  0  0  0  0  0  0
   38.6610   24.6570   36.4640 C   0  0  0  0  0  0  0  0  0  0  0  0
   39.7300   23.9700   35.9580 C   0  0  0  0  0  0  0  0  0  0  0  0
   40.2750   22.9870   36.7280 N   0  0  0  0  0  0  0  0  0  0  0  0
   39.8020   22.6770   37.9520 C   0  0  0  0  0  0  0  0  0  0  0  0
   38.7500   23.3540   38.4470 N   0  0  0  0  0  0  0  0  0  0  0  0
   34.4133   28.6429   32.1315 H   0  0  0  0  0  0  0  0  0  0  0  0
   34.5847   28.7290   33.8600 H   0  0  0  0  0  0  0  0  0  0  0  0
   34.9567   30.9968   32.7604 H   0  0  0  0  0  0  0  0  0  0  0  0
   36.4806   30.3866   33.5764 H   0  0  0  0  0  0  0  0  0  0  0  0
   35.9190   30.9996   30.9386 H   0  0  0  0  0  0  0  0  0  0  0  0
   37.9575   29.4268   30.5601 H   0  0  0  0  0  0  0  0  0  0  0  0
   36.1943   29.2720   29.9622 H   0  0  0  0  0  0  0  0  0  0  0  0
   35.9469   27.4396   30.8750 H   0  0  0  0  0  0  0  0  0  0  0  0
   39.3785   28.6032   31.7341 H   0  0  0  0  0  0  0  0  0  0  0  0
   41.3136   27.1255   31.3874 H   0  0  0  0  0  0  0  0  0  0  0  0
   41.3435   23.7185   30.3714 H   0  0  0  0  0  0  0  0  0  0  0  0
   42.2607   25.1718   30.8503 H   0  0  0  0  0  0  0  0  0  0  0  0
   38.6244   27.4583   36.8056 H   0  0  0  0  0  0  0  0  0  0  0  0
   37.5705   29.0034   35.1605 H   0  0  0  0  0  0  0  0  0  0  0  0
   37.3246   24.8642   38.1545 H   0  0  0  0  0  0  0  0  0  0  0  0
   40.1361   24.2033   34.9627 H   0  0  0  0  0  0  0  0  0  0  0  0
   40.2728   21.8765   38.5415 H   0  0  0  0  0  0  0  0  0  0  0  0
  1  2  1  0
  1 18  1  0
  3  2  1  0
  4  3  1  0
  5  6  1  0
  5  4  1  0
  6  1  1  0
  7  8  1  0
  7  6  1  0
  9  8  2  0
 10  9  1  0
 11 10  1  0
 12 10  2  0
 12 13  1  0
 13  7  1  0
 14 13  2  0
 15 16  2  0
 15 21  1  0
 17 16  1  0
 18 19  1  0
 18 17  2  0
 19 15  1  0
 20 25  2  0
 21 20  1  0
 22 21  2  0
 22 23  1  0
 23 24  2  0
 24 25  1  0
  2 26  1  0
  2 27  1  0
  3 28  1  0
  3 29  1  0
  4 30  1  0
  5 31  1  0
  5 32  1  0
  6 33  1  6
  8 34  1  0
  9 35  1  0
 11 36  1  0
 11 37  1  0
 16 38  1  0
 17 39  1  0
 20 40  1  0
 22 41  1  0
 24 42  1  0
M  ISO  8  26  13  27  13  28  13  29  13  30   5  31  13  32  13  33  13
M  ISO  7  34  14  35  14  38  14  39  14  40  14  41  14  42  14
M  END
>  <minimizedAffinity>  (1) 
-5.11399603

>  <minimizedRMSD>  (1) 
1.16496658

$$$$
