
     RDKit          3D

 46 48  0  0  1  0  0  0  0  0999 V2000
   38.0740   26.2440   35.3870 C   0  0  0  0  0  0  0  0  0  0  0  0
   36.7220   25.5620   31.9960 C   0  0  0  0  0  0  0  0  0  0  0  0
   37.3800   25.4640   33.2190 C   0  0  0  0  0  0  0  0  0  0  0  0
   37.3850   26.4830   34.1030 C   0  0  0  0  0  0  0  0  0  0  0  0
   36.7220   27.6130   33.7410 N   0  0  0  0  0  0  0  0  0  0  0  0
   36.0850   27.7360   32.5750 C   0  0  0  0  0  0  0  0  0  0  0  0
   36.0830   26.7400   31.7280 N   0  0  0  0  0  0  0  0  0  0  0  0
   35.4440   29.0280   32.2460 C   0  0  2  0  0  0  0  0  0  0  0  0
   36.4830   29.9590   31.5530 C   0  0  0  0  0  0  0  0  0  0  0  0
   34.9130   29.7660   33.4020 C   0  0  0  0  0  0  0  0  0  0  0  0
   33.5990   29.4800   33.8560 N   0  0  0  0  0  0  0  0  0  0  0  0
   32.8520   29.4100   34.9670 C   0  0  0  0  0  0  0  0  0  0  0  0
   31.5960   29.0310   34.7170 N   0  0  0  0  0  0  0  0  0  0  0  0
   31.5430   28.8530   33.3830 C   0  0  0  0  0  0  0  0  0  0  0  0
   32.7560   29.1280   32.8920 N   0  0  0  0  0  0  0  0  0  0  0  0
   37.9280   24.8380   35.7880 C   0  0  0  0  0  0  0  0  0  0  0  0
   39.1540   24.3030   36.3400 N   0  0  0  0  0  0  0  0  0  0  0  0
   39.8710   23.5370   35.2890 C   0  0  0  0  0  0  0  0  0  0  0  0
   40.9000   22.7880   36.0900 C   0  0  0  0  0  0  0  0  0  0  0  0
   40.3320   22.6950   37.4990 C   0  0  0  0  0  0  0  0  0  0  0  0
   38.9200   23.2410   37.2590 C   0  0  1  0  0  0  0  0  0  0  0  0
   38.4020   23.6910   38.5840 C   0  0  0  0  0  0  0  0  0  0  0  0
   39.3000   23.7140   39.5920 F   0  0  0  0  0  0  0  0  0  0  0  0
   37.2810   22.9460   38.8880 F   0  0  0  0  0  0  0  0  0  0  0  0
   37.9640   25.0300   38.4620 F   0  0  0  0  0  0  0  0  0  0  0  0
   37.6341   26.8900   36.1610 H   0  0  0  0  0  0  0  0  0  0  0  0
   39.1431   26.4740   35.2685 H   0  0  0  0  0  0  0  0  0  0  0  0
   36.7167   24.7289   31.2778 H   0  0  0  0  0  0  0  0  0  0  0  0
   37.9088   24.5328   33.4706 H   0  0  0  0  0  0  0  0  0  0  0  0
   34.5940   28.7680   31.5980 H   0  0  0  0  0  0  0  0  0  0  0  0
   37.0712   30.4860   32.3187 H   0  0  0  0  0  0  0  0  0  0  0  0
   37.1551   29.3553   30.9255 H   0  0  0  0  0  0  0  0  0  0  0  0
   35.9564   30.6931   30.9255 H   0  0  0  0  0  0  0  0  0  0  0  0
   35.5937   29.5774   34.2453 H   0  0  0  0  0  0  0  0  0  0  0  0
   34.8488   30.8046   33.0453 H   0  0  0  0  0  0  0  0  0  0  0  0
   33.2317   29.6394   35.9736 H   0  0  0  0  0  0  0  0  0  0  0  0
   30.6626   28.5388   32.8032 H   0  0  0  0  0  0  0  0  0  0  0  0
   37.1351   24.7654   36.5470 H   0  0  0  0  0  0  0  0  0  0  0  0
   37.6745   24.2530   34.8916 H   0  0  0  0  0  0  0  0  0  0  0  0
   40.3454   24.2092   34.5589 H   0  0  0  0  0  0  0  0  0  0  0  0
   39.2157   22.8858   34.6919 H   0  0  0  0  0  0  0  0  0  0  0  0
   41.0556   21.7827   35.6714 H   0  0  0  0  0  0  0  0  0  0  0  0
   41.8756   23.2959   36.0767 H   0  0  0  0  0  0  0  0  0  0  0  0
   40.3111   21.6569   37.8621 H   0  0  0  0  0  0  0  0  0  0  0  0
   40.9100   23.2316   38.2658 H   0  0  0  0  0  0  0  0  0  0  0  0
   38.1730   22.5417   36.8553 H   0  0  0  0  0  0  0  0  0  0  0  0
  1 16  1  0
  2  3  2  0
  3  4  1  0
  4  1  1  0
  5  4  2  0
  6  5  1  0
  7  2  1  0
  7  6  2  0
  8  6  1  0
  8 10  1  0
  9  8  1  0
 10 11  1  0
 11 12  1  0
 13 12  2  0
 14 13  1  0
 15 14  2  0
 15 11  1  0
 16 17  1  0
 17 21  1  0
 18 19  1  0
 18 17  1  0
 19 20  1  0
 21 20  1  0
 21 22  1  0
 22 24  1  0
 22 23  1  0
 25 22  1  0
  1 26  1  0
  1 27  1  0
  2 28  1  0
  3 29  1  0
  8 30  1  6
  9 31  1  0
  9 32  1  0
  9 33  1  0
 10 34  1  0
 10 35  1  0
 12 36  1  0
 14 37  1  0
 16 38  1  0
 16 39  1  0
 18 40  1  0
 18 41  1  0
 19 42  1  0
 19 43  1  0
 20 44  1  0
 20 45  1  0
 21 46  1  6
M  ISO  8  26   8  27   8  28  14  29  14  30   8  31   8  32   8  33   8
M  ISO  8  34   8  35   8  36  14  37  14  38   8  39   8  40  13  41  13
M  ISO  5  42  13  43  13  44  13  45  13  46  13
M  END
>  <minimizedAffinity>  (1) 
-5.72227001

>  <minimizedRMSD>  (1) 
1.28484225

$$$$
