
     RDKit          3D

 47 49  0  0  1  0  0  0  0  0999 V2000
   38.0580   26.2610   35.3910 C   0  0  0  0  0  0  0  0  0  0  0  0
   36.7180   25.5470   32.0030 C   0  0  0  0  0  0  0  0  0  0  0  0
   37.3660   25.4600   33.2300 C   0  0  0  0  0  0  0  0  0  0  0  0
   37.3810   26.4890   34.1000 C   0  0  0  0  0  0  0  0  0  0  0  0
   36.7320   27.6210   33.7110 N   0  0  0  0  0  0  0  0  0  0  0  0
   36.1050   27.7370   32.5420 C   0  0  0  0  0  0  0  0  0  0  0  0
   36.0960   26.7270   31.7120 N   0  0  0  0  0  0  0  0  0  0  0  0
   35.4820   29.0320   32.1930 C   0  0  2  0  0  0  0  0  0  0  0  0
   36.5330   29.9310   31.4760 C   0  0  0  0  0  0  0  0  0  0  0  0
   34.9810   29.8050   33.3390 C   0  0  0  0  0  0  0  0  0  0  0  0
   33.6810   29.5030   33.8470 N   0  0  0  0  0  0  0  0  0  0  0  0
   32.7260   29.1970   32.9130 C   0  0  0  0  0  0  0  0  0  0  0  0
   31.4970   28.9390   33.4790 C   0  0  0  0  0  0  0  0  0  0  0  0
   31.7150   29.0940   34.8090 N   0  0  0  0  0  0  0  0  0  0  0  0
   32.9960   29.4230   34.9960 C   0  0  0  0  0  0  0  0  0  0  0  0
   37.9250   24.8520   35.7880 C   0  0  0  0  0  0  0  0  0  0  0  0
   39.1470   24.3240   36.3400 N   0  0  0  0  0  0  0  0  0  0  0  0
   39.8830   23.5750   35.2890 C   0  0  0  0  0  0  0  0  0  0  0  0
   40.9310   22.8570   36.0970 C   0  0  0  0  0  0  0  0  0  0  0  0
   40.3320   22.7020   37.4820 C   0  0  0  0  0  0  0  0  0  0  0  0
   38.9330   23.2600   37.2520 C   0  0  1  0  0  0  0  0  0  0  0  0
   38.4050   23.6950   38.5790 C   0  0  0  0  0  0  0  0  0  0  0  0
   39.3010   23.7100   39.5900 F   0  0  0  0  0  0  0  0  0  0  0  0
   37.2810   22.9540   38.8770 F   0  0  0  0  0  0  0  0  0  0  0  0
   37.9740   25.0390   38.4670 F   0  0  0  0  0  0  0  0  0  0  0  0
   37.6003   26.9006   36.1600 H   0  0  0  0  0  0  0  0  0  0  0  0
   39.1251   26.5070   35.2869 H   0  0  0  0  0  0  0  0  0  0  0  0
   36.7070   24.7027   31.2980 H   0  0  0  0  0  0  0  0  0  0  0  0
   37.8806   24.5255   33.4980 H   0  0  0  0  0  0  0  0  0  0  0  0
   34.6206   28.7729   31.5598 H   0  0  0  0  0  0  0  0  0  0  0  0
   37.1431   30.4529   32.2280 H   0  0  0  0  0  0  0  0  0  0  0  0
   37.1828   29.3049   30.8469 H   0  0  0  0  0  0  0  0  0  0  0  0
   36.0152   30.6700   30.8469 H   0  0  0  0  0  0  0  0  0  0  0  0
   35.6939   29.6615   34.1644 H   0  0  0  0  0  0  0  0  0  0  0  0
   34.8883   30.8308   32.9528 H   0  0  0  0  0  0  0  0  0  0  0  0
   32.9195   29.1613   31.8307 H   0  0  0  0  0  0  0  0  0  0  0  0
   30.5588   28.6703   32.9716 H   0  0  0  0  0  0  0  0  0  0  0  0
   33.4402   29.6081   35.9852 H   0  0  0  0  0  0  0  0  0  0  0  0
   37.1305   24.7706   36.5444 H   0  0  0  0  0  0  0  0  0  0  0  0
   37.6818   24.2691   34.8874 H   0  0  0  0  0  0  0  0  0  0  0  0
   40.3398   24.2572   34.5569 H   0  0  0  0  0  0  0  0  0  0  0  0
   39.2465   22.9060   34.6912 H   0  0  0  0  0  0  0  0  0  0  0  0
   41.1476   21.8717   35.6584 H   0  0  0  0  0  0  0  0  0  0  0  0
   41.8812   23.4107   36.1207 H   0  0  0  0  0  0  0  0  0  0  0  0
   40.3011   21.6476   37.7940 H   0  0  0  0  0  0  0  0  0  0  0  0
   40.8969   23.2040   38.2813 H   0  0  0  0  0  0  0  0  0  0  0  0
   38.1912   22.5595   36.8410 H   0  0  0  0  0  0  0  0  0  0  0  0
  1 16  1  0
  2  3  2  0
  3  4  1  0
  4  1  1  0
  5  4  2  0
  6  5  1  0
  7  2  1  0
  7  6  2  0
  8  6  1  0
  8 10  1  0
  9  8  1  0
 10 11  1  0
 11 15  1  0
 12 13  2  0
 12 11  1  0
 13 14  1  0
 14 15  2  0
 16 17  1  0
 17 21  1  0
 18 19  1  0
 18 17  1  0
 19 20  1  0
 21 20  1  0
 21 22  1  0
 22 24  1  0
 22 23  1  0
 25 22  1  0
  1 26  1  0
  1 27  1  0
  2 28  1  0
  3 29  1  0
  8 30  1  6
  9 31  1  0
  9 32  1  0
  9 33  1  0
 10 34  1  0
 10 35  1  0
 12 36  1  0
 13 37  1  0
 15 38  1  0
 16 39  1  0
 16 40  1  0
 18 41  1  0
 18 42  1  0
 19 43  1  0
 19 44  1  0
 20 45  1  0
 20 46  1  0
 21 47  1  6
M  ISO  8  26   8  27   8  28  14  29  14  30   8  31   8  32   8  33   8
M  ISO  8  34   8  35   8  36  14  37  14  38  14  39   8  40   8  41  13
M  ISO  6  42  13  43  13  44  13  45  13  46  13  47  13
M  END
>  <minimizedAffinity>  (1) 
-5.70674849

>  <minimizedRMSD>  (1) 
1.30965579

$$$$
