
     RDKit          3D

 38 41  0  0  1  0  0  0  0  0999 V2000
   38.2170   25.1940   34.5080 N   0  0  0  0  0  0  0  0  0  0  0  0
   37.1900   25.9840   35.1890 C   0  0  0  0  0  0  0  0  0  0  0  0
   37.8370   27.3670   35.2440 C   0  0  0  0  0  0  0  0  0  0  0  0
   38.2230   27.8530   33.9950 N   0  0  0  0  0  0  0  0  0  0  0  0
   38.3610   27.0090   32.8710 C   0  0  0  0  0  0  0  0  0  0  0  0
   38.2500   25.5340   33.0970 C   0  0  2  0  0  0  0  0  0  0  0  0
   40.8320   22.3910   35.8450 C   0  0  0  0  0  0  0  0  0  0  0  0
   39.9420   22.8720   36.8180 C   0  0  0  0  0  0  0  0  0  0  0  0
   39.0350   23.8150   36.4450 C   0  0  0  0  0  0  0  0  0  0  0  0
   39.0580   24.2450   35.0880 C   0  0  0  0  0  0  0  0  0  0  0  0
   40.4370   23.2450   34.3480 S   0  0  0  0  0  0  0  0  0  0  0  0
   42.1910   20.8550   37.2940 C   0  0  0  0  0  0  0  0  0  0  0  0
   41.8540   21.4040   36.0450 C   0  0  0  0  0  0  0  0  0  0  0  0
   42.5320   20.9870   34.9340 C   0  0  0  0  0  0  0  0  0  0  0  0
   43.5080   20.0540   35.0930 N   0  0  0  0  0  0  0  0  0  0  0  0
   43.8260   19.5320   36.2880 C   0  0  0  0  0  0  0  0  0  0  0  0
   43.1570   19.9410   37.3940 N   0  0  0  0  0  0  0  0  0  0  0  0
   37.1140   24.8920   32.3750 C   0  0  0  0  0  0  0  0  0  0  0  0
   36.2460   25.7110   31.6800 C   0  0  0  0  0  0  0  0  0  0  0  0
   35.3210   24.9310   31.1220 N   0  0  0  0  0  0  0  0  0  0  0  0
   35.5520   23.6450   31.4240 C   0  0  0  0  0  0  0  0  0  0  0  0
   36.6550   23.6420   32.1930 N   0  0  0  0  0  0  0  0  0  0  0  0
   36.2533   26.0037   34.6126 H   0  0  0  0  0  0  0  0  0  0  0  0
   36.9070   25.5874   36.1752 H   0  0  0  0  0  0  0  0  0  0  0  0
   37.1153   28.0713   35.6833 H   0  0  0  0  0  0  0  0  0  0  0  0
   38.7504   27.2719   35.8495 H   0  0  0  0  0  0  0  0  0  0  0  0
   37.5263   28.5660   33.7357 H   0  0  0  0  0  0  0  0  0  0  0  0
   39.3519   27.2017   32.4339 H   0  0  0  0  0  0  0  0  0  0  0  0
   37.5056   27.2589   32.2261 H   0  0  0  0  0  0  0  0  0  0  0  0
   39.1702   25.1181   32.6608 H   0  0  0  0  0  0  0  0  0  0  0  0
   39.9768   22.4975   37.8517 H   0  0  0  0  0  0  0  0  0  0  0  0
   38.3123   24.2289   37.1636 H   0  0  0  0  0  0  0  0  0  0  0  0
   41.6536   21.1818   38.1965 H   0  0  0  0  0  0  0  0  0  0  0  0
   42.2949   21.3944   33.9401 H   0  0  0  0  0  0  0  0  0  0  0  0
   44.6231   18.7783   36.3693 H   0  0  0  0  0  0  0  0  0  0  0  0
   36.3071   26.8065   31.6015 H   0  0  0  0  0  0  0  0  0  0  0  0
   34.9611   22.7727   31.1079 H   0  0  0  0  0  0  0  0  0  0  0  0
   37.0894   22.7962   32.5890 H   0  0  0  0  0  0  0  0  0  0  0  0
  1 10  1  0
  1  2  1  0
  2  3  1  0
  4  3  1  0
  5  6  1  0
  5  4  1  0
  6  1  1  0
  7 13  1  0
  7  8  2  0
  9  8  1  0
 10  9  2  0
 11 10  1  0
 11  7  1  0
 12 17  2  0
 13 12  1  0
 14 15  1  0
 14 13  2  0
 15 16  2  0
 16 17  1  0
 18  6  1  0
 19 18  2  0
 20 21  2  0
 20 19  1  0
 21 22  1  0
 22 18  1  0
  2 23  1  0
  2 24  1  0
  3 25  1  0
  3 26  1  0
  4 27  1  0
  5 28  1  0
  5 29  1  0
  6 30  1  6
  8 31  1  0
  9 32  1  0
 12 33  1  0
 14 34  1  0
 16 35  1  0
 19 36  1  0
 21 37  1  0
 22 38  1  0
M  ISO  8  23  13  24  13  25  13  26  13  27   5  28  13  29  13  30  13
M  ISO  8  31  14  32  14  33  14  34  14  35  14  36  14  37  14  38   9
M  END
>  <minimizedAffinity>  (1) 
-4.16623735

>  <minimizedRMSD>  (1) 
4.24219847

$$$$
