
     RDKit          3D

 35 37  0  0  1  0  0  0  0  0999 V2000
   37.9520   26.1130   33.2660 C   0  0  0  0  0  0  0  0  0  0  0  0
   36.8840   25.9940   32.3880 C   0  0  0  0  0  0  0  0  0  0  0  0
   36.9740   26.6200   31.1850 C   0  0  0  0  0  0  0  0  0  0  0  0
   38.1500   27.3490   30.9100 C   0  0  0  0  0  0  0  0  0  0  0  0
   39.1660   27.1250   32.4470 S   0  0  0  0  0  0  0  0  0  0  0  0
   38.4630   28.0740   29.7430 N   0  0  0  0  0  0  0  0  0  0  0  0
   37.4770   28.7840   28.9050 C   0  0  0  0  0  0  0  0  0  0  0  0
   37.7770   30.2510   29.2850 C   0  0  0  0  0  0  0  0  0  0  0  0
   39.1140   30.6140   29.0790 N   0  0  0  0  0  0  0  0  0  0  0  0
   40.1310   29.6780   28.9820 C   0  0  0  0  0  0  0  0  0  0  0  0
   39.7880   28.2220   29.2090 C   0  0  2  0  0  0  0  0  0  0  0  0
   39.7760   27.3130   27.6260 S   0  0  0  0  0  0  0  0  0  0  0  0
   38.0350   26.2630   35.7690 C   0  0  0  0  0  0  0  0  0  0  0  0
   38.0520   25.5300   34.5860 C   0  0  0  0  0  0  0  0  0  0  0  0
   38.1730   24.1830   34.6520 C   0  0  0  0  0  0  0  0  0  0  0  0
   38.2720   23.5920   35.8700 N   0  0  0  0  0  0  0  0  0  0  0  0
   38.2520   24.3270   37.0090 C   0  0  0  0  0  0  0  0  0  0  0  0
   38.1300   25.6970   36.9480 N   0  0  0  0  0  0  0  0  0  0  0  0
   38.3610   23.6770   38.3370 C   0  0  0  0  0  0  0  0  0  0  0  0
   38.4340   24.6160   39.3580 F   0  0  0  0  0  0  0  0  0  0  0  0
   37.3020   22.8500   38.5680 F   0  0  0  0  0  0  0  0  0  0  0  0
   39.5440   22.9600   38.3690 F   0  0  0  0  0  0  0  0  0  0  0  0
   35.9913   25.4105   32.6576 H   0  0  0  0  0  0  0  0  0  0  0  0
   36.1573   26.5602   30.4505 H   0  0  0  0  0  0  0  0  0  0  0  0
   36.4463   28.5011   29.1651 H   0  0  0  0  0  0  0  0  0  0  0  0
   37.5536   28.5674   27.8293 H   0  0  0  0  0  0  0  0  0  0  0  0
   37.1390   30.9073   28.6749 H   0  0  0  0  0  0  0  0  0  0  0  0
   37.5723   30.3575   30.3605 H   0  0  0  0  0  0  0  0  0  0  0  0
   39.1331   31.1500   28.1996 H   0  0  0  0  0  0  0  0  0  0  0  0
   40.5534   29.7594   27.9696 H   0  0  0  0  0  0  0  0  0  0  0  0
   40.8118   29.9292   29.8087 H   0  0  0  0  0  0  0  0  0  0  0  0
   40.5455   27.8324   29.9050 H   0  0  0  0  0  0  0  0  0  0  0  0
   39.7582   25.9656   27.8732 H   0  0  0  0  0  0  0  0  0  0  0  0
   37.9383   27.3573   35.7129 H   0  0  0  0  0  0  0  0  0  0  0  0
   38.1908   23.5776   33.7337 H   0  0  0  0  0  0  0  0  0  0  0  0
  1 14  1  0
  2  1  2  0
  3  2  1  0
  4  3  2  0
  4  5  1  0
  5  1  1  0
  6  4  1  0
  7  8  1  0
  7  6  1  0
  9  8  1  0
 10  9  1  0
 10 11  1  0
 11  6  1  0
 12 11  1  0
 13 18  2  0
 14 15  2  0
 14 13  1  0
 15 16  1  0
 16 17  2  0
 17 19  1  0
 18 17  1  0
 19 22  1  0
 19 21  1  0
 19 20  1  0
  2 23  1  0
  3 24  1  0
  7 25  1  0
  7 26  1  0
  8 27  1  0
  8 28  1  0
  9 29  1  0
 10 30  1  0
 10 31  1  0
 11 32  1  1
 12 33  1  0
 13 34  1  0
 15 35  1  0
M  ISO  8  23  14  24  14  25  13  26  13  27  13  28  13  29   5  30  13
M  ISO  5  31  13  32  13  33  11  34  14  35  14
M  END
>  <minimizedAffinity>  (1) 
-5.1989646

>  <minimizedRMSD>  (1) 
3.72969389

$$$$
