
     RDKit          3D

 33 35  0  0  1  0  0  0  0  0999 V2000
   38.6410   24.7760   35.3100 C   0  0  0  0  0  0  0  0  0  0  0  0
   38.2720   26.0450   35.7340 C   0  0  0  0  0  0  0  0  0  0  0  0
   37.5650   26.8320   34.8800 C   0  0  0  0  0  0  0  0  0  0  0  0
   37.2540   26.2960   33.6100 C   0  0  0  0  0  0  0  0  0  0  0  0
   38.0110   24.6020   33.6650 S   0  0  0  0  0  0  0  0  0  0  0  0
   36.5390   26.9140   32.5660 N   0  0  0  0  0  0  0  0  0  0  0  0
   35.6180   28.0530   32.7350 C   0  0  0  0  0  0  0  0  0  0  0  0
   36.4600   29.2040   32.1500 C   0  0  0  0  0  0  0  0  0  0  0  0
   36.8950   28.9630   30.8430 N   0  0  0  0  0  0  0  0  0  0  0  0
   36.9380   27.6910   30.2930 C   0  0  0  0  0  0  0  0  0  0  0  0
   36.6140   26.5140   31.1870 C   0  0  2  0  0  0  0  0  0  0  0  0
   34.9580   25.8440   30.7930 S   0  0  0  0  0  0  0  0  0  0  0  0
   39.1160   23.4500   37.3850 C   0  0  0  0  0  0  0  0  0  0  0  0
   39.3920   23.8010   36.0690 C   0  0  0  0  0  0  0  0  0  0  0  0
   40.4360   23.2060   35.4270 C   0  0  0  0  0  0  0  0  0  0  0  0
   41.1620   22.2870   36.1230 N   0  0  0  0  0  0  0  0  0  0  0  0
   40.8820   21.9590   37.3960 C   0  0  0  0  0  0  0  0  0  0  0  0
   39.8290   22.5600   38.0410 N   0  0  0  0  0  0  0  0  0  0  0  0
   41.6200   21.0210   38.1110 O   0  0  0  0  0  0  0  0  0  0  0  0
   38.5450   26.4053   36.7368 H   0  0  0  0  0  0  0  0  0  0  0  0
   37.2477   27.8456   35.1663 H   0  0  0  0  0  0  0  0  0  0  0  0
   34.6864   27.9062   32.1688 H   0  0  0  0  0  0  0  0  0  0  0  0
   35.2854   28.2164   33.7707 H   0  0  0  0  0  0  0  0  0  0  0  0
   35.8493   30.1189   32.1515 H   0  0  0  0  0  0  0  0  0  0  0  0
   37.3572   29.3031   32.7786 H   0  0  0  0  0  0  0  0  0  0  0  0
   36.2808   29.5184   30.2305 H   0  0  0  0  0  0  0  0  0  0  0  0
   36.2227   27.6726   29.4575 H   0  0  0  0  0  0  0  0  0  0  0  0
   37.9947   27.5460   30.0239 H   0  0  0  0  0  0  0  0  0  0  0  0
   37.4113   25.7741   31.0230 H   0  0  0  0  0  0  0  0  0  0  0  0
   34.2867   25.5724   31.9560 H   0  0  0  0  0  0  0  0  0  0  0  0
   38.2709   23.9338   37.8966 H   0  0  0  0  0  0  0  0  0  0  0  0
   40.6836   23.4583   34.3853 H   0  0  0  0  0  0  0  0  0  0  0  0
   41.3779   20.8101   39.0475 H   0  0  0  0  0  0  0  0  0  0  0  0
  1  2  2  0
  1 14  1  0
  3  2  1  0
  4  5  1  0
  4  3  2  0
  5  1  1  0
  6  7  1  0
  6  4  1  0
  8  7  1  0
  9  8  1  0
 10  9  1  0
 10 11  1  0
 11  6  1  0
 12 11  1  0
 13 18  2  0
 14 13  1  0
 15 14  2  0
 15 16  1  0
 16 17  2  0
 17 18  1  0
 17 19  1  0
  2 20  1  0
  3 21  1  0
  7 22  1  0
  7 23  1  0
  8 24  1  0
  8 25  1  0
  9 26  1  0
 10 27  1  0
 10 28  1  0
 11 29  1  1
 12 30  1  0
 13 31  1  0
 15 32  1  0
 19 33  1  0
M  ISO  8  20  14  21  14  22  13  23  13  24  13  25  13  26   5  27  13
M  ISO  6  28  13  29  13  30  11  31  14  32  14  33   3
M  END
>  <minimizedAffinity>  (1) 
-4.77906942

>  <minimizedRMSD>  (1) 
0.275702119

$$$$
