
     RDKit          3D

 45 48  0  0  1  0  0  0  0  0999 V2000
   36.7990   26.2710   32.6880 C   0  0  0  0  0  0  0  0  0  0  0  0
   37.1490   26.7060   33.9600 C   0  0  0  0  0  0  0  0  0  0  0  0
   36.7330   27.9370   34.3540 C   0  0  0  0  0  0  0  0  0  0  0  0
   35.9700   28.6920   33.4380 C   0  0  0  0  0  0  0  0  0  0  0  0
   35.8510   27.5800   31.9560 S   0  0  0  0  0  0  0  0  0  0  0  0
   35.4330   29.9820   33.6210 N   0  0  0  0  0  0  0  0  0  0  0  0
   34.6700   30.4160   34.8070 C   0  0  0  0  0  0  0  0  0  0  0  0
   35.7150   31.3060   35.5160 C   0  0  0  0  0  0  0  0  0  0  0  0
   36.2120   32.3330   34.7030 N   0  0  0  0  0  0  0  0  0  0  0  0
   36.1050   32.3050   33.3200 C   0  0  0  0  0  0  0  0  0  0  0  0
   35.5580   31.0550   32.6710 C   0  0  2  0  0  0  0  0  0  0  0  0
   33.8490   31.3460   32.0650 S   0  0  0  0  0  0  0  0  0  0  0  0
   36.2600   23.9330   31.9560 C   0  0  0  0  0  0  0  0  0  0  0  0
   37.1440   25.0030   32.0820 C   0  0  0  0  0  0  0  0  0  0  0  0
   38.4080   24.8700   31.6180 C   0  0  0  0  0  0  0  0  0  0  0  0
   38.7520   23.6820   31.0470 N   0  0  0  0  0  0  0  0  0  0  0  0
   37.8950   22.6640   30.9320 C   0  0  0  0  0  0  0  0  0  0  0  0
   36.6070   22.7930   31.4030 N   0  0  0  0  0  0  0  0  0  0  0  0
   38.2210   21.4110   30.3420 N   0  0  0  0  0  0  0  0  0  0  0  0
   39.2030   21.2640   29.2840 C   0  0  0  0  0  0  0  0  0  0  0  0
   39.1000   19.8020   28.8340 C   0  0  0  0  0  0  0  0  0  0  0  0
   37.8100   19.4490   28.5080 O   0  0  0  0  0  0  0  0  0  0  0  0
   36.9000   19.6170   29.5330 C   0  0  0  0  0  0  0  0  0  0  0  0
   37.5650   20.1970   30.7880 C   0  0  0  0  0  0  0  0  0  0  0  0
   37.7469   26.0705   34.6298 H   0  0  0  0  0  0  0  0  0  0  0  0
   36.9816   28.3312   35.3504 H   0  0  0  0  0  0  0  0  0  0  0  0
   33.7750   30.9897   34.5245 H   0  0  0  0  0  0  0  0  0  0  0  0
   34.2807   29.5925   35.4236 H   0  0  0  0  0  0  0  0  0  0  0  0
   35.2448   31.7585   36.4016 H   0  0  0  0  0  0  0  0  0  0  0  0
   36.5654   30.6609   35.7818 H   0  0  0  0  0  0  0  0  0  0  0  0
   35.7389   33.1951   35.0094 H   0  0  0  0  0  0  0  0  0  0  0  0
   35.4495   33.1382   33.0267 H   0  0  0  0  0  0  0  0  0  0  0  0
   37.1445   32.3636   32.9651 H   0  0  0  0  0  0  0  0  0  0  0  0
   36.2568   30.7993   31.8609 H   0  0  0  0  0  0  0  0  0  0  0  0
   33.0039   31.4899   33.1336 H   0  0  0  0  0  0  0  0  0  0  0  0
   35.2332   24.0473   32.3337 H   0  0  0  0  0  0  0  0  0  0  0  0
   39.1332   25.6931   31.6991 H   0  0  0  0  0  0  0  0  0  0  0  0
   38.9728   21.9412   28.4483 H   0  0  0  0  0  0  0  0  0  0  0  0
   40.2168   21.5157   29.6287 H   0  0  0  0  0  0  0  0  0  0  0  0
   39.7409   19.6566   27.9519 H   0  0  0  0  0  0  0  0  0  0  0  0
   39.4230   19.1667   29.6719 H   0  0  0  0  0  0  0  0  0  0  0  0
   36.1082   20.3035   29.1987 H   0  0  0  0  0  0  0  0  0  0  0  0
   36.4830   18.6316   29.7883 H   0  0  0  0  0  0  0  0  0  0  0  0
   38.3004   19.4889   31.1975 H   0  0  0  0  0  0  0  0  0  0  0  0
   36.8354   20.3930   31.5875 H   0  0  0  0  0  0  0  0  0  0  0  0
  1  2  2  0
  2  3  1  0
  4  6  1  0
  4  3  2  0
  5  1  1  0
  5  4  1  0
  6  7  1  0
  7  8  1  0
  9  8  1  0
 10  9  1  0
 11 10  1  0
 11  6  1  0
 12 11  1  0
 13 14  2  0
 14  1  1  0
 15 14  1  0
 16 15  2  0
 17 16  1  0
 17 18  2  0
 18 13  1  0
 19 24  1  0
 19 17  1  0
 20 19  1  0
 21 20  1  0
 22 21  1  0
 22 23  1  0
 23 24  1  0
  2 25  1  0
  3 26  1  0
  7 27  1  0
  7 28  1  0
  8 29  1  0
  8 30  1  0
  9 31  1  0
 10 32  1  0
 10 33  1  0
 11 34  1  6
 12 35  1  0
 13 36  1  0
 15 37  1  0
 20 38  1  0
 20 39  1  0
 21 40  1  0
 21 41  1  0
 23 42  1  0
 23 43  1  0
 24 44  1  0
 24 45  1  0
M  ISO  8  25  14  26  14  27  13  28  13  29  13  30  13  31   5  32  13
M  ISO  8  33  13  34  13  35  11  36  14  37  14  38  13  39  13  40  13
M  ISO  5  41  13  42  13  43  13  44  13  45  13
M  END
>  <minimizedAffinity>  (1) 
-4.60481787

>  <minimizedRMSD>  (1) 
6.69834185

$$$$
