
     RDKit          3D

 38 41  0  0  1  0  0  0  0  0999 V2000
   38.2220   25.2290   33.4160 C   0  0  0  0  0  0  0  0  0  0  0  0
   38.3330   23.9600   32.8600 C   0  0  0  0  0  0  0  0  0  0  0  0
   39.2850   23.1230   33.3530 C   0  0  0  0  0  0  0  0  0  0  0  0
   40.0970   23.6060   34.3990 C   0  0  0  0  0  0  0  0  0  0  0  0
   39.4600   25.3280   34.6780 S   0  0  0  0  0  0  0  0  0  0  0  0
   41.1400   22.9320   35.0640 N   0  0  0  0  0  0  0  0  0  0  0  0
   41.9270   21.8230   34.4890 C   0  0  0  0  0  0  0  0  0  0  0  0
   43.2580   22.5200   34.1960 C   0  0  0  0  0  0  0  0  0  0  0  0
   43.8200   23.1390   35.3170 N   0  0  0  0  0  0  0  0  0  0  0  0
   43.0740   23.4530   36.4480 C   0  0  0  0  0  0  0  0  0  0  0  0
   41.5850   23.2300   36.3980 C   0  0  2  0  0  0  0  0  0  0  0  0
   41.1250   21.7490   37.3890 S   0  0  0  0  0  0  0  0  0  0  0  0
   36.5560   26.2430   31.8320 C   0  0  0  0  0  0  0  0  0  0  0  0
   37.2810   26.2560   33.0300 C   0  0  0  0  0  0  0  0  0  0  0  0
   37.1120   27.2880   33.8940 C   0  0  0  0  0  0  0  0  0  0  0  0
   36.2370   28.2730   33.5530 N   0  0  0  0  0  0  0  0  0  0  0  0
   35.5440   28.2440   32.3880 C   0  0  0  0  0  0  0  0  0  0  0  0
   35.7140   27.2080   31.5240 N   0  0  0  0  0  0  0  0  0  0  0  0
   34.6470   29.4080   32.2120 C   0  0  0  0  0  0  0  0  0  0  0  0
   34.9340   30.5170   31.4210 C   0  0  0  0  0  0  0  0  0  0  0  0
   33.4260   31.5460   31.6570 S   0  0  0  0  0  0  0  0  0  0  0  0
   32.6700   30.2420   32.8170 C   0  0  0  0  0  0  0  0  0  0  0  0
   33.4890   29.3600   32.8730 N   0  0  0  0  0  0  0  0  0  0  0  0
   37.6688   23.6412   32.0432 H   0  0  0  0  0  0  0  0  0  0  0  0
   39.4163   22.1077   32.9507 H   0  0  0  0  0  0  0  0  0  0  0  0
   42.0526   21.0021   35.2103 H   0  0  0  0  0  0  0  0  0  0  0  0
   41.4635   21.3497   33.6108 H   0  0  0  0  0  0  0  0  0  0  0  0
   43.9687   21.7698   33.8191 H   0  0  0  0  0  0  0  0  0  0  0  0
   43.0552   23.3092   33.4571 H   0  0  0  0  0  0  0  0  0  0  0  0
   44.5777   22.5189   35.6368 H   0  0  0  0  0  0  0  0  0  0  0  0
   43.4676   22.8476   37.2778 H   0  0  0  0  0  0  0  0  0  0  0  0
   43.1850   24.5420   36.5564 H   0  0  0  0  0  0  0  0  0  0  0  0
   41.1262   24.1542   36.7792 H   0  0  0  0  0  0  0  0  0  0  0  0
   41.2172   22.0457   38.7233 H   0  0  0  0  0  0  0  0  0  0  0  0
   36.6930   25.4064   31.1310 H   0  0  0  0  0  0  0  0  0  0  0  0
   37.6664   27.3276   34.8432 H   0  0  0  0  0  0  0  0  0  0  0  0
   35.8277   30.7241   30.8140 H   0  0  0  0  0  0  0  0  0  0  0  0
   31.6960   30.2840   33.3264 H   0  0  0  0  0  0  0  0  0  0  0  0
  1  5  1  0
  2  3  1  0
  2  1  2  0
  3  4  2  0
  4  5  1  0
  4  6  1  0
  6 11  1  0
  7  6  1  0
  8  7  1  0
  8  9  1  0
  9 10  1  0
 11 10  1  0
 11 12  1  0
 13 14  2  0
 14  1  1  0
 14 15  1  0
 16 15  2  0
 17 16  1  0
 18 13  1  0
 18 17  2  0
 19 17  1  0
 19 23  1  0
 20 21  1  0
 20 19  2  0
 21 22  1  0
 22 23  2  0
  2 24  1  0
  3 25  1  0
  7 26  1  0
  7 27  1  0
  8 28  1  0
  8 29  1  0
  9 30  1  0
 10 31  1  0
 10 32  1  0
 11 33  1  1
 12 34  1  0
 13 35  1  0
 15 36  1  0
 20 37  1  0
 22 38  1  0
M  ISO  8  24  14  25  14  26  13  27  13  28  13  29  13  30   5  31  13
M  ISO  7  32  13  33  13  34  11  35  14  36  14  37  14  38  14
M  END
>  <minimizedAffinity>  (1) 
-4.24490261

>  <minimizedRMSD>  (1) 
9.4182272

$$$$
