
     RDKit          3D

 35 37  0  0  1  0  0  0  0  0999 V2000
   38.8720   24.6770   35.1730 C   0  0  0  0  0  0  0  0  0  0  0  0
   38.4770   25.9170   35.6570 C   0  0  0  0  0  0  0  0  0  0  0  0
   37.7140   26.7060   34.8620 C   0  0  0  0  0  0  0  0  0  0  0  0
   37.3710   26.2090   33.5870 C   0  0  0  0  0  0  0  0  0  0  0  0
   38.1870   24.5370   33.5450 S   0  0  0  0  0  0  0  0  0  0  0  0
   36.5970   26.8370   32.5890 N   0  0  0  0  0  0  0  0  0  0  0  0
   35.6630   27.9540   32.8320 C   0  0  0  0  0  0  0  0  0  0  0  0
   36.4650   29.1340   32.2360 C   0  0  0  0  0  0  0  0  0  0  0  0
   36.8430   28.9320   30.8990 N   0  0  0  0  0  0  0  0  0  0  0  0
   36.8680   27.6750   30.3180 C   0  0  0  0  0  0  0  0  0  0  0  0
   36.6150   26.4720   31.1980 C   0  0  2  0  0  0  0  0  0  0  0  0
   34.9450   25.7870   30.8690 S   0  0  0  0  0  0  0  0  0  0  0  0
   39.3990   23.2200   37.1530 C   0  0  0  0  0  0  0  0  0  0  0  0
   39.6840   23.7000   35.8630 C   0  0  0  0  0  0  0  0  0  0  0  0
   40.7810   23.2360   35.2170 C   0  0  0  0  0  0  0  0  0  0  0  0
   41.5590   22.3230   35.8500 N   0  0  0  0  0  0  0  0  0  0  0  0
   41.2710   21.8690   37.0960 C   0  0  0  0  0  0  0  0  0  0  0  0
   40.1720   22.3350   37.7420 N   0  0  0  0  0  0  0  0  0  0  0  0
   42.2070   20.8660   37.6790 C   0  0  0  0  0  0  0  0  0  0  0  0
   38.7762   26.2509   36.6615 H   0  0  0  0  0  0  0  0  0  0  0  0
   37.3748   27.6969   35.1983 H   0  0  0  0  0  0  0  0  0  0  0  0
   34.7085   27.8059   32.3057 H   0  0  0  0  0  0  0  0  0  0  0  0
   35.3726   28.0852   33.8848 H   0  0  0  0  0  0  0  0  0  0  0  0
   35.8439   30.0403   32.2897 H   0  0  0  0  0  0  0  0  0  0  0  0
   37.3896   29.2284   32.8243 H   0  0  0  0  0  0  0  0  0  0  0  0
   36.1977   29.4982   30.3299 H   0  0  0  0  0  0  0  0  0  0  0  0
   36.1030   27.6666   29.5276 H   0  0  0  0  0  0  0  0  0  0  0  0
   37.9087   27.5519   29.9836 H   0  0  0  0  0  0  0  0  0  0  0  0
   37.4182   25.7530   30.9792 H   0  0  0  0  0  0  0  0  0  0  0  0
   34.3151   25.5286   32.0578 H   0  0  0  0  0  0  0  0  0  0  0  0
   38.5093   23.5933   37.6813 H   0  0  0  0  0  0  0  0  0  0  0  0
   41.0337   23.5902   34.2067 H   0  0  0  0  0  0  0  0  0  0  0  0
   42.1605   20.9158   38.7769 H   0  0  0  0  0  0  0  0  0  0  0  0
   41.9190   19.8582   37.3452 H   0  0  0  0  0  0  0  0  0  0  0  0
   43.2322   21.0838   37.3452 H   0  0  0  0  0  0  0  0  0  0  0  0
  1  2  2  0
  1 14  1  0
  3  2  1  0
  4  3  2  0
  5  4  1  0
  5  1  1  0
  6  7  1  0
  6  4  1  0
  8  7  1  0
  9  8  1  0
 10  9  1  0
 10 11  1  0
 11  6  1  0
 12 11  1  0
 13 18  2  0
 14 13  1  0
 15 16  1  0
 15 14  2  0
 16 17  2  0
 17 19  1  0
 17 18  1  0
  2 20  1  0
  3 21  1  0
  7 22  1  0
  7 23  1  0
  8 24  1  0
  8 25  1  0
  9 26  1  0
 10 27  1  0
 10 28  1  0
 11 29  1  1
 12 30  1  0
 13 31  1  0
 15 32  1  0
 19 33  1  0
 19 34  1  0
 19 35  1  0
M  ISO  8  20  14  21  14  22  13  23  13  24  13  25  13  26   5  27  13
M  ISO  8  28  13  29  13  30  11  31  14  32  14  33   8  34   8  35   8
M  END
>  <minimizedAffinity>  (1) 
-4.41204262

>  <minimizedRMSD>  (1) 
0.497314423

$$$$
