
     RDKit          3D

 33 35  0  0  1  0  0  0  0  0999 V2000
   38.8610   24.4990   35.0540 C   0  0  0  0  0  0  0  0  0  0  0  0
   38.3730   25.6670   35.6290 C   0  0  0  0  0  0  0  0  0  0  0  0
   37.5910   26.4820   34.8730 C   0  0  0  0  0  0  0  0  0  0  0  0
   37.3280   26.0770   33.5470 C   0  0  0  0  0  0  0  0  0  0  0  0
   38.2440   24.4670   33.3950 S   0  0  0  0  0  0  0  0  0  0  0  0
   36.5540   26.7460   32.5780 N   0  0  0  0  0  0  0  0  0  0  0  0
   35.6440   27.8730   32.8610 C   0  0  0  0  0  0  0  0  0  0  0  0
   36.4580   29.0560   32.2930 C   0  0  0  0  0  0  0  0  0  0  0  0
   36.8000   28.8950   30.9540 N   0  0  0  0  0  0  0  0  0  0  0  0
   36.8170   27.6460   30.3280 C   0  0  0  0  0  0  0  0  0  0  0  0
   36.5470   26.4220   31.1770 C   0  0  2  0  0  0  0  0  0  0  0  0
   34.8670   25.7710   30.8520 S   0  0  0  0  0  0  0  0  0  0  0  0
   39.5910   23.1320   37.0310 C   0  0  0  0  0  0  0  0  0  0  0  0
   39.7060   23.5270   35.7090 C   0  0  0  0  0  0  0  0  0  0  0  0
   40.6980   22.9730   34.9390 C   0  0  0  0  0  0  0  0  0  0  0  0
   41.5240   22.0620   35.5090 N   0  0  0  0  0  0  0  0  0  0  0  0
   41.3870   21.6970   36.8080 C   0  0  0  0  0  0  0  0  0  0  0  0
   40.3990   22.2490   37.5690 N   0  0  0  0  0  0  0  0  0  0  0  0
   42.4820   20.4940   37.5530 S   0  0  0  0  0  0  0  0  0  0  0  0
   38.6140   25.9253   36.6707 H   0  0  0  0  0  0  0  0  0  0  0  0
   37.1801   27.4186   35.2780 H   0  0  0  0  0  0  0  0  0  0  0  0
   34.6823   27.7568   32.3399 H   0  0  0  0  0  0  0  0  0  0  0  0
   35.3678   27.9788   33.9205 H   0  0  0  0  0  0  0  0  0  0  0  0
   35.8581   29.9726   32.3925 H   0  0  0  0  0  0  0  0  0  0  0  0
   37.3960   29.1110   32.8649 H   0  0  0  0  0  0  0  0  0  0  0  0
   36.1381   29.4744   30.4182 H   0  0  0  0  0  0  0  0  0  0  0  0
   36.0561   27.6677   29.5339 H   0  0  0  0  0  0  0  0  0  0  0  0
   37.8564   27.5221   29.9899 H   0  0  0  0  0  0  0  0  0  0  0  0
   37.3335   25.6957   30.9243 H   0  0  0  0  0  0  0  0  0  0  0  0
   34.2342   25.5258   32.0421 H   0  0  0  0  0  0  0  0  0  0  0  0
   38.7962   23.5728   37.6507 H   0  0  0  0  0  0  0  0  0  0  0  0
   40.8198   23.2615   33.8845 H   0  0  0  0  0  0  0  0  0  0  0  0
   42.3995   20.5847   38.9175 H   0  0  0  0  0  0  0  0  0  0  0  0
  1  2  2  0
  1 14  1  0
  3  2  1  0
  4  3  2  0
  5  4  1  0
  5  1  1  0
  6  7  1  0
  6  4  1  0
  8  7  1  0
  9  8  1  0
 10  9  1  0
 10 11  1  0
 11  6  1  0
 12 11  1  0
 13 18  2  0
 14 13  1  0
 15 16  1  0
 15 14  2  0
 16 17  2  0
 17 19  1  0
 17 18  1  0
  2 20  1  0
  3 21  1  0
  7 22  1  0
  7 23  1  0
  8 24  1  0
  8 25  1  0
  9 26  1  0
 10 27  1  0
 10 28  1  0
 11 29  1  1
 12 30  1  0
 13 31  1  0
 15 32  1  0
 19 33  1  0
M  ISO  8  20  14  21  14  22  13  23  13  24  13  25  13  26   5  27  13
M  ISO  6  28  13  29  13  30  11  31  14  32  14  33  11
M  END
>  <minimizedAffinity>  (1) 
-4.05938244

>  <minimizedRMSD>  (1) 
0.714247882

$$$$
