
     RDKit          3D

 51 54  0  0  1  0  0  0  0  0999 V2000
   37.2030   28.2460   32.0270 C   0  0  0  0  0  0  0  0  0  0  0  0
   38.2680   27.3560   32.2840 C   0  0  0  0  0  0  0  0  0  0  0  0
   39.2780   27.2420   31.4050 C   0  0  0  0  0  0  0  0  0  0  0  0
   39.2260   28.0080   30.2780 N   0  0  0  0  0  0  0  0  0  0  0  0
   38.1930   28.8650   30.0390 C   0  0  0  0  0  0  0  0  0  0  0  0
   37.1830   28.9720   30.9290 N   0  0  0  0  0  0  0  0  0  0  0  0
   38.3380   26.5310   33.4840 C   0  0  0  0  0  0  0  0  0  0  0  0
   38.5910   26.9610   34.7680 C   0  0  0  0  0  0  0  0  0  0  0  0
   38.6150   26.0380   35.7610 C   0  0  0  0  0  0  0  0  0  0  0  0
   38.3810   24.7050   35.4080 C   0  0  0  0  0  0  0  0  0  0  0  0
   38.1130   24.7730   33.5680 S   0  0  0  0  0  0  0  0  0  0  0  0
   38.3530   23.5590   36.2490 N   0  0  0  0  0  0  0  0  0  0  0  0
   39.3440   22.4820   36.2410 C   0  0  0  0  0  0  0  0  0  0  0  0
   40.1230   22.8070   37.5440 C   0  0  0  0  0  0  0  0  0  0  0  0
   39.3080   22.8740   38.6820 N   0  0  0  0  0  0  0  0  0  0  0  0
   37.9230   23.0520   38.5970 C   0  0  0  0  0  0  0  0  0  0  0  0
   37.3250   23.3180   37.2290 C   0  0  2  0  0  0  0  0  0  0  0  0
   36.4450   21.8310   36.6430 S   0  0  0  0  0  0  0  0  0  0  0  0
   38.1900   29.6770   28.7910 C   0  0  0  0  0  0  0  0  0  0  0  0
   38.1200   31.1440   29.2150 C   0  0  0  0  0  0  0  0  0  0  0  0
   37.2400   31.7910   28.2560 N   0  0  0  0  0  0  0  0  0  0  0  0
   37.3450   31.7360   26.9290 C   0  0  0  0  0  0  0  0  0  0  0  0
   36.4300   32.4050   26.1280 C   0  0  0  0  0  0  0  0  0  0  0  0
   36.5410   32.3490   24.6460 C   0  0  0  0  0  0  0  0  0  0  0  0
   35.4080   33.1300   26.7310 C   0  0  0  0  0  0  0  0  0  0  0  0
   34.6090   33.7170   25.9510 O   0  0  0  0  0  0  0  0  0  0  0  0
   35.3230   33.1700   28.0650 N   0  0  0  0  0  0  0  0  0  0  0  0
   36.2240   32.5120   28.8170 C   0  0  0  0  0  0  0  0  0  0  0  0
   36.0770   32.5970   30.0600 O   0  0  0  0  0  0  0  0  0  0  0  0
   36.3806   28.3339   32.7522 H   0  0  0  0  0  0  0  0  0  0  0  0
   40.1173   26.5549   31.5881 H   0  0  0  0  0  0  0  0  0  0  0  0
   38.7689   28.0252   34.9821 H   0  0  0  0  0  0  0  0  0  0  0  0
   38.8110   26.3265   36.8042 H   0  0  0  0  0  0  0  0  0  0  0  0
   38.8680   21.4914   36.2884 H   0  0  0  0  0  0  0  0  0  0  0  0
   39.9650   22.4363   35.3342 H   0  0  0  0  0  0  0  0  0  0  0  0
   40.8782   22.0231   37.7026 H   0  0  0  0  0  0  0  0  0  0  0  0
   40.5743   23.8013   37.4110 H   0  0  0  0  0  0  0  0  0  0  0  0
   39.4536   21.9912   39.1923 H   0  0  0  0  0  0  0  0  0  0  0  0
   37.4506   22.1393   38.9893 H   0  0  0  0  0  0  0  0  0  0  0  0
   37.7273   23.9719   39.1675 H   0  0  0  0  0  0  0  0  0  0  0  0
   36.6624   24.1897   37.3343 H   0  0  0  0  0  0  0  0  0  0  0  0
   36.0135   21.1018   37.7195 H   0  0  0  0  0  0  0  0  0  0  0  0
   37.3162   29.4195   28.1744 H   0  0  0  0  0  0  0  0  0  0  0  0
   39.0927   29.4829   28.1932 H   0  0  0  0  0  0  0  0  0  0  0  0
   37.7084   31.2299   30.2315 H   0  0  0  0  0  0  0  0  0  0  0  0
   39.1164   31.6097   29.2290 H   0  0  0  0  0  0  0  0  0  0  0  0
   38.1593   31.1587   26.4668 H   0  0  0  0  0  0  0  0  0  0  0  0
   37.4911   31.8697   24.3673 H   0  0  0  0  0  0  0  0  0  0  0  0
   35.7025   31.7661   24.2373 H   0  0  0  0  0  0  0  0  0  0  0  0
   36.5116   33.3698   24.2373 H   0  0  0  0  0  0  0  0  0  0  0  0
   34.5675   33.7047   28.5169 H   0  0  0  0  0  0  0  0  0  0  0  0
  1  2  2  0
  2  7  1  0
  3  2  1  0
  4  3  2  0
  5  4  1  0
  5  6  2  0
  6  1  1  0
  7 11  1  0
  7  8  2  0
  8  9  1  0
 10  9  2  0
 10 12  1  0
 11 10  1  0
 12 17  1  0
 13 12  1  0
 13 14  1  0
 14 15  1  0
 16 15  1  0
 17 16  1  0
 18 17  1  0
 19 20  1  0
 19  5  1  0
 21 28  1  0
 21 20  1  0
 22 21  1  0
 23 25  1  0
 23 22  2  0
 24 23  1  0
 25 27  1  0
 26 25  2  0
 27 28  1  0
 28 29  2  0
  1 30  1  0
  3 31  1  0
  8 32  1  0
  9 33  1  0
 13 34  1  0
 13 35  1  0
 14 36  1  0
 14 37  1  0
 15 38  1  0
 16 39  1  0
 16 40  1  0
 17 41  1  1
 18 42  1  0
 19 43  1  0
 19 44  1  0
 20 45  1  0
 20 46  1  0
 22 47  1  0
 24 48  1  0
 24 49  1  0
 24 50  1  0
 27 51  1  0
M  ISO  8  30  14  31  14  32  14  33  14  34  13  35  13  36  13  37  13
M  ISO  8  38   5  39  13  40  13  41  13  42  11  43   8  44   8  45   8
M  ISO  6  46   8  47  14  48   8  49   8  50   8  51   9
M  END
>  <minimizedAffinity>  (1) 
-5.39494705

>  <minimizedRMSD>  (1) 
1.22257352

$$$$
