
     RDKit          3D

 54 57  0  0  1  0  0  0  0  0999 V2000
   38.1110   26.6390   33.5580 C   0  0  0  0  0  0  0  0  0  0  0  0
   38.5490   27.0160   34.8080 C   0  0  0  0  0  0  0  0  0  0  0  0
   38.6640   26.0600   35.7680 C   0  0  0  0  0  0  0  0  0  0  0  0
   38.3270   24.7520   35.4100 C   0  0  0  0  0  0  0  0  0  0  0  0
   37.8210   24.9000   33.6200 S   0  0  0  0  0  0  0  0  0  0  0  0
   38.3570   23.5730   36.2050 N   0  0  0  0  0  0  0  0  0  0  0  0
   39.3630   22.5040   36.1010 C   0  0  0  0  0  0  0  0  0  0  0  0
   40.2040   22.7950   37.3740 C   0  0  0  0  0  0  0  0  0  0  0  0
   39.4520   22.8210   38.5530 N   0  0  0  0  0  0  0  0  0  0  0  0
   38.0590   22.9700   38.5430 C   0  0  0  0  0  0  0  0  0  0  0  0
   37.3980   23.2730   37.2230 C   0  0  2  0  0  0  0  0  0  0  0  0
   36.4970   21.8010   36.6280 S   0  0  0  0  0  0  0  0  0  0  0  0
   36.8090   28.3580   32.2500 C   0  0  0  0  0  0  0  0  0  0  0  0
   37.9240   27.5110   32.4050 C   0  0  0  0  0  0  0  0  0  0  0  0
   38.8790   27.4890   31.4590 C   0  0  0  0  0  0  0  0  0  0  0  0
   38.7150   28.3010   30.3830 N   0  0  0  0  0  0  0  0  0  0  0  0
   37.6350   29.1160   30.2430 C   0  0  0  0  0  0  0  0  0  0  0  0
   36.6820   29.1330   31.1940 N   0  0  0  0  0  0  0  0  0  0  0  0
   37.5220   29.9830   29.0300 C   0  0  0  0  0  0  0  0  0  0  0  0
   38.0070   31.3790   29.4660 C   0  0  0  0  0  0  0  0  0  0  0  0
   37.0060   32.4530   29.1720 C   0  0  0  0  0  0  0  0  0  0  0  0
   35.9810   32.4780   30.2790 C   0  0  0  0  0  0  0  0  0  0  0  0
   36.6520   32.7140   31.6020 C   0  0  0  0  0  0  0  0  0  0  0  0
   37.5520   33.9080   31.5970 C   0  0  0  0  0  0  0  0  0  0  0  0
   37.2770   34.6750   30.3200 C   0  0  0  0  0  0  0  0  0  0  0  0
   37.6310   33.8190   29.1020 C   0  0  0  0  0  0  0  0  0  0  0  0
   38.7997   28.0649   35.0245 H   0  0  0  0  0  0  0  0  0  0  0  0
   39.0078   26.3059   36.7836 H   0  0  0  0  0  0  0  0  0  0  0  0
   38.9022   21.5058   36.1363 H   0  0  0  0  0  0  0  0  0  0  0  0
   39.9347   22.4976   35.1612 H   0  0  0  0  0  0  0  0  0  0  0  0
   40.9714   22.0126   37.4692 H   0  0  0  0  0  0  0  0  0  0  0  0
   40.6387   23.7977   37.2488 H   0  0  0  0  0  0  0  0  0  0  0  0
   39.6432   21.9318   39.0363 H   0  0  0  0  0  0  0  0  0  0  0  0
   37.6252   22.0322   38.9204 H   0  0  0  0  0  0  0  0  0  0  0  0
   37.8694   23.8603   39.1606 H   0  0  0  0  0  0  0  0  0  0  0  0
   36.7345   24.1329   37.3973 H   0  0  0  0  0  0  0  0  0  0  0  0
   36.0518   21.0737   37.7003 H   0  0  0  0  0  0  0  0  0  0  0  0
   36.0298   28.3718   33.0263 H   0  0  0  0  0  0  0  0  0  0  0  0
   39.7603   26.8376   31.5531 H   0  0  0  0  0  0  0  0  0  0  0  0
   36.4774   30.0297   28.6884 H   0  0  0  0  0  0  0  0  0  0  0  0
   38.1188   29.5897   28.1938 H   0  0  0  0  0  0  0  0  0  0  0  0
   38.1991   31.3631   30.5490 H   0  0  0  0  0  0  0  0  0  0  0  0
   38.9194   31.6083   28.8960 H   0  0  0  0  0  0  0  0  0  0  0  0
   36.5579   32.2232   28.1941 H   0  0  0  0  0  0  0  0  0  0  0  0
   35.2597   33.2863   30.0881 H   0  0  0  0  0  0  0  0  0  0  0  0
   35.4606   31.5093   30.3082 H   0  0  0  0  0  0  0  0  0  0  0  0
   35.8757   32.8637   32.3668 H   0  0  0  0  0  0  0  0  0  0  0  0
   37.2755   31.8334   31.8159 H   0  0  0  0  0  0  0  0  0  0  0  0
   37.3401   34.5426   32.4702 H   0  0  0  0  0  0  0  0  0  0  0  0
   38.6069   33.6003   31.6466 H   0  0  0  0  0  0  0  0  0  0  0  0
   36.2106   34.9417   30.2790 H   0  0  0  0  0  0  0  0  0  0  0  0
   37.8930   35.5862   30.3092 H   0  0  0  0  0  0  0  0  0  0  0  0
   38.7242   33.7071   29.0523 H   0  0  0  0  0  0  0  0  0  0  0  0
   37.2414   34.3252   28.2064 H   0  0  0  0  0  0  0  0  0  0  0  0
  1  5  1  0
  1  2  2  0
  2  3  1  0
  4  3  2  0
  4  6  1  0
  5  4  1  0
  6 11  1  0
  7  6  1  0
  7  8  1  0
  8  9  1  0
 10  9  1  0
 11 10  1  0
 12 11  1  0
 13 14  2  0
 14  1  1  0
 15 14  1  0
 16 15  2  0
 17 16  1  0
 17 18  2  0
 18 13  1  0
 19 20  1  0
 19 17  1  0
 21 20  1  0
 21 22  1  0
 22 23  1  0
 24 23  1  0
 25 24  1  0
 26 21  1  0
 26 25  1  0
  2 27  1  0
  3 28  1  0
  7 29  1  0
  7 30  1  0
  8 31  1  0
  8 32  1  0
  9 33  1  0
 10 34  1  0
 10 35  1  0
 11 36  1  1
 12 37  1  0
 13 38  1  0
 15 39  1  0
 19 40  1  0
 19 41  1  0
 20 42  1  0
 20 43  1  0
 21 44  1  0
 22 45  1  0
 22 46  1  0
 23 47  1  0
 23 48  1  0
 24 49  1  0
 24 50  1  0
 25 51  1  0
 25 52  1  0
 26 53  1  0
 26 54  1  0
M  ISO  8  27  14  28  14  29  13  30  13  31  13  32  13  33   5  34  13
M  ISO  8  35  13  36  13  37  11  38  14  39  14  40   8  41   8  42   8
M  ISO  8  43   8  44  13  45  13  46  13  47  13  48  13  49  13  50  13
M  ISO  4  51  13  52  13  53  13  54  13
M  END
>  <minimizedAffinity>  (1) 
-5.01010323

>  <minimizedRMSD>  (1) 
0.896458924

$$$$
