
     RDKit          3D

 47 50  0  0  1  0  0  0  0  0999 V2000
   38.1520   26.6400   33.5260 C   0  0  0  0  0  0  0  0  0  0  0  0
   38.5570   27.0230   34.7860 C   0  0  0  0  0  0  0  0  0  0  0  0
   38.6590   26.0700   35.7440 C   0  0  0  0  0  0  0  0  0  0  0  0
   38.3430   24.7560   35.3840 C   0  0  0  0  0  0  0  0  0  0  0  0
   37.8780   24.8900   33.5870 S   0  0  0  0  0  0  0  0  0  0  0  0
   38.3680   23.5830   36.1870 N   0  0  0  0  0  0  0  0  0  0  0  0
   39.3630   22.5120   36.0930 C   0  0  0  0  0  0  0  0  0  0  0  0
   40.2090   22.8040   37.3640 C   0  0  0  0  0  0  0  0  0  0  0  0
   39.4580   22.8390   38.5420 N   0  0  0  0  0  0  0  0  0  0  0  0
   38.0710   23.0060   38.5380 C   0  0  0  0  0  0  0  0  0  0  0  0
   37.3920   23.3060   37.2150 C   0  0  2  0  0  0  0  0  0  0  0  0
   36.4910   21.8350   36.6360 S   0  0  0  0  0  0  0  0  0  0  0  0
   36.8690   28.3420   32.1800 C   0  0  0  0  0  0  0  0  0  0  0  0
   37.9780   27.5020   32.3630 C   0  0  0  0  0  0  0  0  0  0  0  0
   38.9480   27.4710   31.4320 C   0  0  0  0  0  0  0  0  0  0  0  0
   38.8160   28.2670   30.3350 N   0  0  0  0  0  0  0  0  0  0  0  0
   37.7490   29.0720   30.1630 C   0  0  0  0  0  0  0  0  0  0  0  0
   36.7690   29.1010   31.1060 N   0  0  0  0  0  0  0  0  0  0  0  0
   37.6000   29.9370   28.9740 C   0  0  0  0  0  0  0  0  0  0  0  0
   38.2480   31.2890   29.3040 C   0  0  0  0  0  0  0  0  0  0  0  0
   37.2620   32.2670   29.7650 C   0  0  0  0  0  0  0  0  0  0  0  0
   37.2720   32.8120   31.0410 C   0  0  0  0  0  0  0  0  0  0  0  0
   36.3380   33.7350   31.4700 C   0  0  0  0  0  0  0  0  0  0  0  0
   35.3620   34.1180   30.5710 C   0  0  0  0  0  0  0  0  0  0  0  0
   35.3490   33.5790   29.3000 C   0  0  0  0  0  0  0  0  0  0  0  0
   36.2900   32.6720   28.9230 N   0  0  0  0  0  0  0  0  0  0  0  0
   38.7913   28.0745   35.0084 H   0  0  0  0  0  0  0  0  0  0  0  0
   38.9783   26.3205   36.7664 H   0  0  0  0  0  0  0  0  0  0  0  0
   38.8952   21.5174   36.1355 H   0  0  0  0  0  0  0  0  0  0  0  0
   39.9349   22.4970   35.1535 H   0  0  0  0  0  0  0  0  0  0  0  0
   40.9720   22.0177   37.4617 H   0  0  0  0  0  0  0  0  0  0  0  0
   40.6506   23.8030   37.2341 H   0  0  0  0  0  0  0  0  0  0  0  0
   39.6383   21.9467   39.0239 H   0  0  0  0  0  0  0  0  0  0  0  0
   37.6290   22.0777   38.9291 H   0  0  0  0  0  0  0  0  0  0  0  0
   37.9020   23.9086   39.1436 H   0  0  0  0  0  0  0  0  0  0  0  0
   36.7279   24.1669   37.3819 H   0  0  0  0  0  0  0  0  0  0  0  0
   36.0502   21.1153   37.7152 H   0  0  0  0  0  0  0  0  0  0  0  0
   36.0746   28.3678   32.9404 H   0  0  0  0  0  0  0  0  0  0  0  0
   39.8257   26.8192   31.5535 H   0  0  0  0  0  0  0  0  0  0  0  0
   36.5338   30.0778   28.7430 H   0  0  0  0  0  0  0  0  0  0  0  0
   38.0829   29.4790   28.0982 H   0  0  0  0  0  0  0  0  0  0  0  0
   38.9984   31.1405   30.0944 H   0  0  0  0  0  0  0  0  0  0  0  0
   38.7120   31.6785   28.3859 H   0  0  0  0  0  0  0  0  0  0  0  0
   38.0583   32.4951   31.7419 H   0  0  0  0  0  0  0  0  0  0  0  0
   36.3704   34.1491   32.4886 H   0  0  0  0  0  0  0  0  0  0  0  0
   34.5968   34.8508   30.8669 H   0  0  0  0  0  0  0  0  0  0  0  0
   34.5707   33.8858   28.5858 H   0  0  0  0  0  0  0  0  0  0  0  0
  1  5  1  0
  1  2  2  0
  2  3  1  0
  4  3  2  0
  4  6  1  0
  5  4  1  0
  6 11  1  0
  7  6  1  0
  7  8  1  0
  8  9  1  0
 10  9  1  0
 11 10  1  0
 12 11  1  0
 13 14  2  0
 14  1  1  0
 15 14  1  0
 16 15  2  0
 17 16  1  0
 17 18  2  0
 18 13  1  0
 19 20  1  0
 19 17  1  0
 20 21  1  0
 21 22  2  0
 22 23  1  0
 24 23  2  0
 25 24  1  0
 26 25  2  0
 26 21  1  0
  2 27  1  0
  3 28  1  0
  7 29  1  0
  7 30  1  0
  8 31  1  0
  8 32  1  0
  9 33  1  0
 10 34  1  0
 10 35  1  0
 11 36  1  1
 12 37  1  0
 13 38  1  0
 15 39  1  0
 19 40  1  0
 19 41  1  0
 20 42  1  0
 20 43  1  0
 22 44  1  0
 23 45  1  0
 24 46  1  0
 25 47  1  0
M  ISO  8  27  14  28  14  29  13  30  13  31  13  32  13  33   5  34  13
M  ISO  8  35  13  36  13  37  11  38  14  39  14  40   8  41   8  42   8
M  ISO  5  43   8  44  14  45  14  46  14  47  14
M  END
>  <minimizedAffinity>  (1) 
-4.99316072

>  <minimizedRMSD>  (1) 
0.837422848

$$$$
