
     RDKit          3D

 44 47  0  0  1  0  0  0  0  0999 V2000
   38.0900   26.6780   33.5380 C   0  0  0  0  0  0  0  0  0  0  0  0
   38.5120   27.0520   34.7960 C   0  0  0  0  0  0  0  0  0  0  0  0
   38.6310   26.0900   35.7460 C   0  0  0  0  0  0  0  0  0  0  0  0
   38.3130   24.7790   35.3770 C   0  0  0  0  0  0  0  0  0  0  0  0
   37.8230   24.9350   33.5880 S   0  0  0  0  0  0  0  0  0  0  0  0
   38.3530   23.6000   36.1700 N   0  0  0  0  0  0  0  0  0  0  0  0
   39.3490   22.5340   36.0440 C   0  0  0  0  0  0  0  0  0  0  0  0
   40.2190   22.8110   37.3000 C   0  0  0  0  0  0  0  0  0  0  0  0
   39.4900   22.8380   38.4950 N   0  0  0  0  0  0  0  0  0  0  0  0
   38.1020   22.9980   38.5180 C   0  0  0  0  0  0  0  0  0  0  0  0
   37.3960   23.3160   37.2150 C   0  0  2  0  0  0  0  0  0  0  0  0
   36.4930   21.8430   36.6290 S   0  0  0  0  0  0  0  0  0  0  0  0
   36.8070   28.4260   32.2540 C   0  0  0  0  0  0  0  0  0  0  0  0
   37.9000   27.5520   32.3850 C   0  0  0  0  0  0  0  0  0  0  0  0
   38.8320   27.5030   31.4190 C   0  0  0  0  0  0  0  0  0  0  0  0
   38.6710   28.3160   30.3390 N   0  0  0  0  0  0  0  0  0  0  0  0
   37.6250   29.1520   30.2110 C   0  0  0  0  0  0  0  0  0  0  0  0
   36.6860   29.1990   31.1910 N   0  0  0  0  0  0  0  0  0  0  0  0
   37.4710   30.0330   29.0230 C   0  0  0  0  0  0  0  0  0  0  0  0
   38.6080   31.0710   29.1010 C   0  0  0  0  0  0  0  0  0  0  0  0
   39.6090   30.7440   28.1050 N   0  0  0  0  0  0  0  0  0  0  0  0
   40.9520   30.7070   28.1800 C   0  0  0  0  0  0  0  0  0  0  0  0
   41.4580   30.3440   26.9870 N   0  0  0  0  0  0  0  0  0  0  0  0
   40.4170   30.1490   26.1480 C   0  0  0  0  0  0  0  0  0  0  0  0
   39.2960   30.3980   26.8470 N   0  0  0  0  0  0  0  0  0  0  0  0
   38.7461   28.1024   35.0238 H   0  0  0  0  0  0  0  0  0  0  0  0
   38.9644   26.3319   36.7660 H   0  0  0  0  0  0  0  0  0  0  0  0
   38.8847   21.5375   36.0831 H   0  0  0  0  0  0  0  0  0  0  0  0
   39.9026   22.5335   35.0935 H   0  0  0  0  0  0  0  0  0  0  0  0
   40.9808   22.0212   37.3758 H   0  0  0  0  0  0  0  0  0  0  0  0
   40.6613   23.8098   37.1707 H   0  0  0  0  0  0  0  0  0  0  0  0
   39.6841   21.9450   38.9701 H   0  0  0  0  0  0  0  0  0  0  0  0
   37.6720   22.0611   38.9017 H   0  0  0  0  0  0  0  0  0  0  0  0
   37.9408   23.8907   39.1402 H   0  0  0  0  0  0  0  0  0  0  0  0
   36.7346   24.1735   37.4079 H   0  0  0  0  0  0  0  0  0  0  0  0
   36.0501   21.1206   37.7055 H   0  0  0  0  0  0  0  0  0  0  0  0
   36.0444   28.4662   33.0457 H   0  0  0  0  0  0  0  0  0  0  0  0
   39.6970   26.8281   31.4980 H   0  0  0  0  0  0  0  0  0  0  0  0
   36.4935   30.5369   29.0471 H   0  0  0  0  0  0  0  0  0  0  0  0
   37.5219   29.4550   28.0885 H   0  0  0  0  0  0  0  0  0  0  0  0
   38.2054   32.0756   28.9044 H   0  0  0  0  0  0  0  0  0  0  0  0
   39.0599   31.0553   30.1038 H   0  0  0  0  0  0  0  0  0  0  0  0
   41.5446   30.9378   29.0776 H   0  0  0  0  0  0  0  0  0  0  0  0
   40.4757   29.8442   25.0927 H   0  0  0  0  0  0  0  0  0  0  0  0
  1  5  1  0
  1  2  2  0
  2  3  1  0
  4  3  2  0
  4  6  1  0
  5  4  1  0
  6 11  1  0
  7  6  1  0
  7  8  1  0
  8  9  1  0
  9 10  1  0
 11 10  1  0
 12 11  1  0
 13 14  2  0
 14  1  1  0
 15 14  1  0
 16 15  2  0
 17 16  1  0
 17 18  2  0
 18 13  1  0
 19 20  1  0
 19 17  1  0
 21 22  1  0
 21 20  1  0
 23 22  2  0
 24 25  2  0
 24 23  1  0
 25 21  1  0
  2 26  1  0
  3 27  1  0
  7 28  1  0
  7 29  1  0
  8 30  1  0
  8 31  1  0
  9 32  1  0
 10 33  1  0
 10 34  1  0
 11 35  1  1
 12 36  1  0
 13 37  1  0
 15 38  1  0
 19 39  1  0
 19 40  1  0
 20 41  1  0
 20 42  1  0
 22 43  1  0
 24 44  1  0
M  ISO  8  26  14  27  14  28  13  29  13  30  13  31  13  32   5  33  13
M  ISO  8  34  13  35  13  36  11  37  14  38  14  39   8  40   8  41   8
M  ISO  3  42   8  43  14  44  14
M  END
>  <minimizedAffinity>  (1) 
-4.77908707

>  <minimizedRMSD>  (1) 
1.4931494

$$$$
