
     RDKit          3D

 45 48  0  0  1  0  0  0  0  0999 V2000
   38.0960   26.6800   33.5410 C   0  0  0  0  0  0  0  0  0  0  0  0
   38.5080   27.0560   34.8010 C   0  0  0  0  0  0  0  0  0  0  0  0
   38.6240   26.0940   35.7510 C   0  0  0  0  0  0  0  0  0  0  0  0
   38.3150   24.7810   35.3820 C   0  0  0  0  0  0  0  0  0  0  0  0
   37.8360   24.9320   33.5900 S   0  0  0  0  0  0  0  0  0  0  0  0
   38.3540   23.6010   36.1740 N   0  0  0  0  0  0  0  0  0  0  0  0
   39.3490   22.5340   36.0490 C   0  0  0  0  0  0  0  0  0  0  0  0
   40.2190   22.8110   37.3050 C   0  0  0  0  0  0  0  0  0  0  0  0
   39.4880   22.8350   38.4990 N   0  0  0  0  0  0  0  0  0  0  0  0
   38.0990   23.0030   38.5220 C   0  0  0  0  0  0  0  0  0  0  0  0
   37.3950   23.3150   37.2170 C   0  0  2  0  0  0  0  0  0  0  0  0
   36.4930   21.8420   36.6330 S   0  0  0  0  0  0  0  0  0  0  0  0
   36.8130   28.4170   32.2430 C   0  0  0  0  0  0  0  0  0  0  0  0
   37.9080   27.5490   32.3850 C   0  0  0  0  0  0  0  0  0  0  0  0
   38.8420   27.5020   31.4190 C   0  0  0  0  0  0  0  0  0  0  0  0
   38.6900   28.3040   30.3350 N   0  0  0  0  0  0  0  0  0  0  0  0
   37.6360   29.1380   30.2010 C   0  0  0  0  0  0  0  0  0  0  0  0
   36.6870   29.1860   31.1820 N   0  0  0  0  0  0  0  0  0  0  0  0
   37.4840   30.0130   29.0080 C   0  0  0  0  0  0  0  0  0  0  0  0
   38.6200   31.0500   29.0780 C   0  0  0  0  0  0  0  0  0  0  0  0
   39.6310   30.8530   27.9770 C   0  0  0  0  0  0  0  0  0  0  0  0
   40.6440   32.0070   27.8650 C   0  0  0  0  0  0  0  0  0  0  0  0
   41.0500   30.5940   28.2420 C   0  0  0  0  0  0  0  0  0  0  0  0
   38.7366   28.1072   35.0305 H   0  0  0  0  0  0  0  0  0  0  0  0
   38.9490   26.3379   36.7732 H   0  0  0  0  0  0  0  0  0  0  0  0
   38.8838   21.5380   36.0887 H   0  0  0  0  0  0  0  0  0  0  0  0
   39.9029   22.5323   35.0986 H   0  0  0  0  0  0  0  0  0  0  0  0
   40.9822   22.0224   37.3803 H   0  0  0  0  0  0  0  0  0  0  0  0
   40.6611   23.8101   37.1773 H   0  0  0  0  0  0  0  0  0  0  0  0
   39.6764   21.9380   38.9689 H   0  0  0  0  0  0  0  0  0  0  0  0
   37.6640   22.0714   38.9129 H   0  0  0  0  0  0  0  0  0  0  0  0
   37.9427   23.9008   39.1381 H   0  0  0  0  0  0  0  0  0  0  0  0
   36.7306   24.1709   37.4065 H   0  0  0  0  0  0  0  0  0  0  0  0
   36.0510   21.1203   37.7103 H   0  0  0  0  0  0  0  0  0  0  0  0
   36.0475   28.4549   33.0320 H   0  0  0  0  0  0  0  0  0  0  0  0
   39.7084   26.8297   31.5053 H   0  0  0  0  0  0  0  0  0  0  0  0
   36.5069   30.5179   29.0292 H   0  0  0  0  0  0  0  0  0  0  0  0
   37.5358   29.4288   28.0774 H   0  0  0  0  0  0  0  0  0  0  0  0
   38.1877   32.0574   28.9875 H   0  0  0  0  0  0  0  0  0  0  0  0
   39.1366   30.9246   30.0410 H   0  0  0  0  0  0  0  0  0  0  0  0
   38.9078   30.3201   27.3422 H   0  0  0  0  0  0  0  0  0  0  0  0
   40.9117   32.4200   26.8813 H   0  0  0  0  0  0  0  0  0  0  0  0
   40.7569   33.0088   28.3050 H   0  0  0  0  0  0  0  0  0  0  0  0
   41.3814   30.3786   29.2686 H   0  0  0  0  0  0  0  0  0  0  0  0
   41.7842   29.8771   27.8456 H   0  0  0  0  0  0  0  0  0  0  0  0
  1  5  1  0
  1  2  2  0
  2  3  1  0
  4  3  2  0
  4  6  1  0
  5  4  1  0
  6 11  1  0
  7  6  1  0
  7  8  1  0
  8  9  1  0
  9 10  1  0
 11 10  1  0
 12 11  1  0
 13 14  2  0
 14  1  1  0
 15 14  1  0
 16 15  2  0
 17 16  1  0
 17 18  2  0
 18 13  1  0
 19 20  1  0
 19 17  1  0
 21 23  1  0
 21 20  1  0
 22 21  1  0
 22 23  1  0
  2 24  1  0
  3 25  1  0
  7 26  1  0
  7 27  1  0
  8 28  1  0
  8 29  1  0
  9 30  1  0
 10 31  1  0
 10 32  1  0
 11 33  1  1
 12 34  1  0
 13 35  1  0
 15 36  1  0
 19 37  1  0
 19 38  1  0
 20 39  1  0
 20 40  1  0
 21 41  1  0
 22 42  1  0
 22 43  1  0
 23 44  1  0
 23 45  1  0
M  ISO  8  24  14  25  14  26  13  27  13  28  13  29  13  30   5  31  13
M  ISO  8  32  13  33  13  34  11  35  14  36  14  37   8  38   8  39   8
M  ISO  6  40   8  41  13  42  13  43  13  44  13  45  13
M  END
>  <minimizedAffinity>  (1) 
-4.7010479

>  <minimizedRMSD>  (1) 
1.1208781

$$$$
