
     RDKit          3D

 39 41  0  0  1  0  0  0  0  0999 V2000
   38.1180   26.6740   33.5140 C   0  0  0  0  0  0  0  0  0  0  0  0
   38.5280   27.0520   34.7740 C   0  0  0  0  0  0  0  0  0  0  0  0
   38.6340   26.0970   35.7280 C   0  0  0  0  0  0  0  0  0  0  0  0
   38.3180   24.7840   35.3650 C   0  0  0  0  0  0  0  0  0  0  0  0
   37.8460   24.9260   33.5690 S   0  0  0  0  0  0  0  0  0  0  0  0
   38.3480   23.6100   36.1670 N   0  0  0  0  0  0  0  0  0  0  0  0
   39.3510   22.5320   36.0410 C   0  0  0  0  0  0  0  0  0  0  0  0
   40.2200   22.8160   37.2970 C   0  0  0  0  0  0  0  0  0  0  0  0
   39.4910   22.8450   38.4910 N   0  0  0  0  0  0  0  0  0  0  0  0
   38.1060   23.0140   38.5120 C   0  0  0  0  0  0  0  0  0  0  0  0
   37.4030   23.3310   37.2030 C   0  0  2  0  0  0  0  0  0  0  0  0
   36.4880   21.8600   36.6300 S   0  0  0  0  0  0  0  0  0  0  0  0
   36.8460   28.4050   32.1940 C   0  0  0  0  0  0  0  0  0  0  0  0
   37.9390   27.5370   32.3520 C   0  0  0  0  0  0  0  0  0  0  0  0
   38.8840   27.4830   31.3960 C   0  0  0  0  0  0  0  0  0  0  0  0
   38.7330   28.2850   30.3050 N   0  0  0  0  0  0  0  0  0  0  0  0
   37.6700   29.1220   30.1650 C   0  0  0  0  0  0  0  0  0  0  0  0
   36.7230   29.1690   31.1310 N   0  0  0  0  0  0  0  0  0  0  0  0
   37.5360   29.9820   28.9640 C   0  0  0  0  0  0  0  0  0  0  0  0
   38.3920   31.2370   29.2200 C   0  0  0  0  0  0  0  0  0  0  0  0
   39.8600   31.2010   28.1860 S   0  0  0  0  0  0  0  0  0  0  0  0
   38.7632   28.1027   34.9991 H   0  0  0  0  0  0  0  0  0  0  0  0
   38.9565   26.3446   36.7501 H   0  0  0  0  0  0  0  0  0  0  0  0
   38.8861   21.5360   36.0841 H   0  0  0  0  0  0  0  0  0  0  0  0
   39.9035   22.5250   35.0899 H   0  0  0  0  0  0  0  0  0  0  0  0
   40.9841   22.0287   37.3758 H   0  0  0  0  0  0  0  0  0  0  0  0
   40.6593   23.8157   37.1644 H   0  0  0  0  0  0  0  0  0  0  0  0
   39.6786   21.9496   38.9642 H   0  0  0  0  0  0  0  0  0  0  0  0
   37.6692   22.0818   38.8997 H   0  0  0  0  0  0  0  0  0  0  0  0
   37.9494   23.9102   39.1303 H   0  0  0  0  0  0  0  0  0  0  0  0
   36.7475   24.1945   37.3895 H   0  0  0  0  0  0  0  0  0  0  0  0
   36.0448   21.1474   37.7129 H   0  0  0  0  0  0  0  0  0  0  0  0
   36.0752   28.4465   32.9777 H   0  0  0  0  0  0  0  0  0  0  0  0
   39.7509   26.8127   31.4921 H   0  0  0  0  0  0  0  0  0  0  0  0
   36.4834   30.2649   28.8159 H   0  0  0  0  0  0  0  0  0  0  0  0
   37.8704   29.4530   28.0594 H   0  0  0  0  0  0  0  0  0  0  0  0
   37.8019   32.1348   28.9837 H   0  0  0  0  0  0  0  0  0  0  0  0
   38.6955   31.2575   30.2771 H   0  0  0  0  0  0  0  0  0  0  0  0
   40.9767   31.1736   28.9792 H   0  0  0  0  0  0  0  0  0  0  0  0
  1  5  1  0
  1  2  2  0
  2  3  1  0
  4  3  2  0
  4  6  1  0
  5  4  1  0
  6 11  1  0
  7  6  1  0
  7  8  1  0
  8  9  1  0
  9 10  1  0
 11 10  1  0
 12 11  1  0
 13 14  2  0
 14  1  1  0
 15 14  1  0
 16 15  2  0
 17 16  1  0
 17 18  2  0
 18 13  1  0
 19 20  1  0
 19 17  1  0
 21 20  1  0
  2 22  1  0
  3 23  1  0
  7 24  1  0
  7 25  1  0
  8 26  1  0
  8 27  1  0
  9 28  1  0
 10 29  1  0
 10 30  1  0
 11 31  1  1
 12 32  1  0
 13 33  1  0
 15 34  1  0
 19 35  1  0
 19 36  1  0
 20 37  1  0
 20 38  1  0
 21 39  1  0
M  ISO  8  22  14  23  14  24  13  25  13  26  13  27  13  28   5  29  13
M  ISO  8  30  13  31  13  32  11  33  14  34  14  35   8  36   8  37   8
M  ISO  2  38   8  39  11
M  END
>  <minimizedAffinity>  (1) 
-4.68169641

>  <minimizedRMSD>  (1) 
0.408503205

$$$$
