
     RDKit          3D

 28 29  0  0  0  0  0  0  0  0999 V2000
   38.3570   23.5560   36.8560 C   0  0  0  0  0  0  0  0  0  0  0  0
   41.6620   21.7350   37.1090 C   0  0  0  0  0  0  0  0  0  0  0  0
   40.3140   22.0740   37.3600 C   0  0  0  0  0  0  0  0  0  0  0  0
   39.7560   23.1420   36.6530 C   0  0  0  0  0  0  0  0  0  0  0  0
   40.5530   23.8090   35.7450 N   0  0  0  0  0  0  0  0  0  0  0  0
   41.8450   23.4570   35.5280 C   0  0  0  0  0  0  0  0  0  0  0  0
   42.3940   22.4160   36.2150 N   0  0  0  0  0  0  0  0  0  0  0  0
   37.5360   22.5740   36.0760 C   0  0  0  0  0  0  0  0  0  0  0  0
   37.6720   22.2290   34.7510 C   0  0  0  0  0  0  0  0  0  0  0  0
   36.8110   21.3030   34.2030 C   0  0  0  0  0  0  0  0  0  0  0  0
   35.8070   20.6970   34.9270 C   0  0  0  0  0  0  0  0  0  0  0  0
   35.7060   21.0710   36.2520 C   0  0  0  0  0  0  0  0  0  0  0  0
   36.5550   21.9810   36.7790 N   0  0  0  0  0  0  0  0  0  0  0  0
   37.9720   23.4990   38.3390 C   0  0  0  0  0  0  0  0  0  0  0  0
   38.0350   24.9170   36.3440 C   0  0  0  0  0  0  0  0  0  0  0  0
   42.1195   20.8977   37.6564 H   0  0  0  0  0  0  0  0  0  0  0  0
   39.7184   21.5112   38.0938 H   0  0  0  0  0  0  0  0  0  0  0  0
   42.4503   24.0126   34.7966 H   0  0  0  0  0  0  0  0  0  0  0  0
   38.4599   22.6876   34.1355 H   0  0  0  0  0  0  0  0  0  0  0  0
   36.9302   21.0362   33.1425 H   0  0  0  0  0  0  0  0  0  0  0  0
   35.1268   19.9594   34.4760 H   0  0  0  0  0  0  0  0  0  0  0  0
   34.9261   20.6236   36.8857 H   0  0  0  0  0  0  0  0  0  0  0  0
   38.8722   23.6323   38.9569 H   0  0  0  0  0  0  0  0  0  0  0  0
   37.2522   24.3004   38.5620 H   0  0  0  0  0  0  0  0  0  0  0  0
   37.5153   22.5235   38.5620 H   0  0  0  0  0  0  0  0  0  0  0  0
   37.8736   25.5990   37.1918 H   0  0  0  0  0  0  0  0  0  0  0  0
   38.8708   25.2854   35.7310 H   0  0  0  0  0  0  0  0  0  0  0  0
   37.1228   24.8718   35.7310 H   0  0  0  0  0  0  0  0  0  0  0  0
  1 14  1  0
  2  3  2  0
  4  1  1  0
  4  3  1  0
  5  4  2  0
  6  5  1  0
  6  7  2  0
  7  2  1  0
  8 13  1  0
  8  1  1  0
  9  8  2  0
 10  9  1  0
 10 11  2  0
 11 12  1  0
 12 13  2  0
 15  1  1  0
  2 16  1  0
  3 17  1  0
  6 18  1  0
  9 19  1  0
 10 20  1  0
 11 21  1  0
 12 22  1  0
 14 23  1  0
 14 24  1  0
 14 25  1  0
 15 26  1  0
 15 27  1  0
 15 28  1  0
M  ISO  8  16  14  17  14  18  14  19  14  20  14  21  14  22  14  23   8
M  ISO  5  24   8  25   8  26   8  27   8  28   8
M  END
>  <minimizedAffinity>  (1) 
-4.29364777

>  <minimizedRMSD>  (1) 
1.36117184

$$$$
