
     RDKit          3D

 29 30  0  0  0  0  0  0  0  0999 V2000
   38.3780   23.2080   35.5780 C   0  0  0  0  0  0  0  0  0  0  0  0
   38.3630   26.9600   36.1340 C   0  0  0  0  0  0  0  0  0  0  0  0
   37.9470   25.6130   36.2270 C   0  0  0  0  0  0  0  0  0  0  0  0
   38.7270   24.6570   35.5410 C   0  0  0  0  0  0  0  0  0  0  0  0
   39.8310   25.0960   34.8350 N   0  0  0  0  0  0  0  0  0  0  0  0
   40.1800   26.3850   34.7800 C   0  0  0  0  0  0  0  0  0  0  0  0
   39.4550   27.3260   35.4250 N   0  0  0  0  0  0  0  0  0  0  0  0
   39.5720   22.5150   36.0720 N   0  0  0  0  0  0  0  0  0  0  0  0
   40.4880   21.9530   35.2780 C   0  0  0  0  0  0  0  0  0  0  0  0
   41.6080   21.3050   35.7710 C   0  0  0  0  0  0  0  0  0  0  0  0
   41.8110   21.2220   37.1440 C   0  0  0  0  0  0  0  0  0  0  0  0
   42.8180   20.6400   37.6180 O   0  0  0  0  0  0  0  0  0  0  0  0
   40.8660   21.8000   37.9130 N   0  0  0  0  0  0  0  0  0  0  0  0
   39.7870   22.4220   37.4110 C   0  0  0  0  0  0  0  0  0  0  0  0
   38.9950   22.9120   38.2570 O   0  0  0  0  0  0  0  0  0  0  0  0
   37.2550   22.9470   36.5650 C   0  0  0  0  0  0  0  0  0  0  0  0
   38.0310   22.6440   34.2410 C   0  0  0  0  0  0  0  0  0  0  0  0
   37.7808   27.7349   36.6542 H   0  0  0  0  0  0  0  0  0  0  0  0
   37.0579   25.3231   36.8062 H   0  0  0  0  0  0  0  0  0  0  0  0
   41.0677   26.6836   34.2031 H   0  0  0  0  0  0  0  0  0  0  0  0
   40.3466   22.0073   34.1885 H   0  0  0  0  0  0  0  0  0  0  0  0
   42.3354   20.8570   35.0781 H   0  0  0  0  0  0  0  0  0  0  0  0
   40.9774   21.7625   38.9363 H   0  0  0  0  0  0  0  0  0  0  0  0
   37.6406   23.0366   37.5913 H   0  0  0  0  0  0  0  0  0  0  0  0
   36.4519   23.6824   36.4095 H   0  0  0  0  0  0  0  0  0  0  0  0
   36.8585   21.9328   36.4095 H   0  0  0  0  0  0  0  0  0  0  0  0
   37.4587   21.7139   34.3727 H   0  0  0  0  0  0  0  0  0  0  0  0
   37.4243   23.3718   33.6823 H   0  0  0  0  0  0  0  0  0  0  0  0
   38.9542   22.4305   33.6823 H   0  0  0  0  0  0  0  0  0  0  0  0
  1  8  1  0
  1 16  1  0
  2  3  2  0
  4  1  1  0
  4  3  1  0
  5  4  2  0
  6  5  1  0
  6  7  2  0
  7  2  1  0
  8 14  1  0
  9 10  2  0
  9  8  1  0
 10 11  1  0
 11 12  2  0
 11 13  1  0
 14 13  1  0
 14 15  2  0
 17  1  1  0
  2 18  1  0
  3 19  1  0
  6 20  1  0
  9 21  1  0
 10 22  1  0
 13 23  1  0
 16 24  1  0
 16 25  1  0
 16 26  1  0
 17 27  1  0
 17 28  1  0
 17 29  1  0
M  ISO  8  18  14  19  14  20  14  21  14  22  14  23   9  24   8  25   8
M  ISO  4  26   8  27   8  28   8  29   8
M  END
>  <minimizedAffinity>  (1) 
-4.41984749

>  <minimizedRMSD>  (1) 
4.90540266

$$$$
