
     RDKit          3D

 24 25  0  0  0  0  0  0  0  0999 V2000
   38.3630   23.6620   36.9520 C   0  0  0  0  0  0  0  0  0  0  0  0
   41.6340   21.7720   37.2010 C   0  0  0  0  0  0  0  0  0  0  0  0
   40.3130   22.1600   37.4700 C   0  0  0  0  0  0  0  0  0  0  0  0
   39.7450   23.2140   36.7200 C   0  0  0  0  0  0  0  0  0  0  0  0
   40.5380   23.8050   35.7530 N   0  0  0  0  0  0  0  0  0  0  0  0
   41.8070   23.3960   35.5280 C   0  0  0  0  0  0  0  0  0  0  0  0
   42.3590   22.3820   36.2460 N   0  0  0  0  0  0  0  0  0  0  0  0
   37.4660   22.6100   36.3510 C   0  0  0  0  0  0  0  0  0  0  0  0
   37.5500   22.1250   35.0820 N   0  0  0  0  0  0  0  0  0  0  0  0
   36.6330   21.2310   34.8670 O   0  0  0  0  0  0  0  0  0  0  0  0
   35.9410   21.1220   35.9920 C   0  0  0  0  0  0  0  0  0  0  0  0
   36.4410   21.9640   36.9100 N   0  0  0  0  0  0  0  0  0  0  0  0
   38.0490   23.6960   38.4610 C   0  0  0  0  0  0  0  0  0  0  0  0
   38.0520   24.9990   36.3760 C   0  0  0  0  0  0  0  0  0  0  0  0
   42.0853   20.9539   37.7816 H   0  0  0  0  0  0  0  0  0  0  0  0
   39.7292   21.6521   38.2518 H   0  0  0  0  0  0  0  0  0  0  0  0
   42.4041   23.8931   34.7493 H   0  0  0  0  0  0  0  0  0  0  0  0
   35.0880   20.4455   36.1493 H   0  0  0  0  0  0  0  0  0  0  0  0
   38.9835   23.5948   39.0323 H   0  0  0  0  0  0  0  0  0  0  0  0
   37.5664   24.6517   38.7137 H   0  0  0  0  0  0  0  0  0  0  0  0
   37.3730   22.8658   38.7137 H   0  0  0  0  0  0  0  0  0  0  0  0
   37.8845   25.7192   37.1904 H   0  0  0  0  0  0  0  0  0  0  0  0
   38.8956   25.3364   35.7560 H   0  0  0  0  0  0  0  0  0  0  0  0
   37.1461   24.9294   35.7560 H   0  0  0  0  0  0  0  0  0  0  0  0
  1 13  1  0
  2  3  2  0
  4  1  1  0
  4  3  1  0
  5  4  2  0
  6  5  1  0
  6  7  2  0
  7  2  1  0
  8 12  1  0
  8  1  1  0
  9  8  2  0
 10  9  1  0
 10 11  1  0
 11 12  2  0
 14  1  1  0
  2 15  1  0
  3 16  1  0
  6 17  1  0
 11 18  1  0
 13 19  1  0
 13 20  1  0
 13 21  1  0
 14 22  1  0
 14 23  1  0
 14 24  1  0
M  ISO  8  15  14  16  14  17  14  18  14  19   8  20   8  21   8  22   8
M  ISO  2  23   8  24   8
M  END
>  <minimizedAffinity>  (1) 
-3.84089923

>  <minimizedRMSD>  (1) 
1.21253788

$$$$
