
     RDKit          3D

 26 26  0  0  0  0  0  0  0  0999 V2000
   38.6510   23.1490   37.1190 C   0  0  0  0  0  0  0  0  0  0  0  0
   39.8220   25.7060   34.5850 C   0  0  0  0  0  0  0  0  0  0  0  0
   39.8110   24.5900   35.4500 C   0  0  0  0  0  0  0  0  0  0  0  0
   38.6580   24.3160   36.2300 C   0  0  0  0  0  0  0  0  0  0  0  0
   37.5900   25.1540   36.1150 N   0  0  0  0  0  0  0  0  0  0  0  0
   37.6370   26.2250   35.2670 C   0  0  0  0  0  0  0  0  0  0  0  0
   38.7460   26.4980   34.5070 N   0  0  0  0  0  0  0  0  0  0  0  0
   37.3000   22.5950   37.0700 N   0  0  0  0  0  0  0  0  0  0  0  0
   36.8710   21.7310   35.9950 C   0  0  0  0  0  0  0  0  0  0  0  0
   37.4250   21.9610   34.8290 N   0  0  0  0  0  0  0  0  0  0  0  0
   35.8930   20.7000   36.2460 N   0  0  0  0  0  0  0  0  0  0  0  0
   37.1700   21.3810   33.9970 H   0  0  0  0  0  0  0  0  0  0  0  0
   39.5990   22.0550   36.6710 C   0  0  0  0  0  0  0  0  0  0  0  0
   39.0040   23.5170   38.5540 C   0  0  0  0  0  0  0  0  0  0  0  0
   40.7124   25.9238   33.9770 H   0  0  0  0  0  0  0  0  0  0  0  0
   40.6926   23.9358   35.5188 H   0  0  0  0  0  0  0  0  0  0  0  0
   36.7613   26.8864   35.1919 H   0  0  0  0  0  0  0  0  0  0  0  0
   36.6357   22.8268   37.8222 H   0  0  0  0  0  0  0  0  0  0  0  0
   35.5865   20.0834   35.4800 H   0  0  0  0  0  0  0  0  0  0  0  0
   35.5014   20.5807   37.1912 H   0  0  0  0  0  0  0  0  0  0  0  0
   40.0292   21.5586   37.5533 H   0  0  0  0  0  0  0  0  0  0  0  0
   39.0492   21.3180   36.0672 H   0  0  0  0  0  0  0  0  0  0  0  0
   40.4068   22.4943   36.0672 H   0  0  0  0  0  0  0  0  0  0  0  0
   38.4125   22.9004   39.2468 H   0  0  0  0  0  0  0  0  0  0  0  0
   40.0754   23.3365   38.7259 H   0  0  0  0  0  0  0  0  0  0  0  0
   38.7791   24.5800   38.7259 H   0  0  0  0  0  0  0  0  0  0  0  0
  1 14  1  0
  2  3  2  0
  3  4  1  0
  4  1  1  0
  5  4  2  0
  6  5  1  0
  7  2  1  0
  7  6  2  0
  8  1  1  0
  9 11  1  0
  9  8  1  0
 10  9  2  0
 12 10  1  0
 13  1  1  0
  2 15  1  0
  3 16  1  0
  6 17  1  0
  8 18  1  0
 11 19  1  0
 11 20  1  0
 13 21  1  0
 13 22  1  0
 13 23  1  0
 14 24  1  0
 14 25  1  0
 14 26  1  0
M  ISO  8  15  14  16  14  17  14  21   8  22   8  23   8  24   8  25   8
M  ISO  1  26   8
M  END
>  <minimizedAffinity>  (1) 
-3.83384514

>  <minimizedRMSD>  (1) 
3.1609273

$$$$
