
     RDKit          3D

 26 27  0  0  0  0  0  0  0  0999 V2000
   38.3310   23.5370   36.8800 C   0  0  0  0  0  0  0  0  0  0  0  0
   41.6540   21.7600   37.0980 C   0  0  0  0  0  0  0  0  0  0  0  0
   40.3140   22.0780   37.3640 C   0  0  0  0  0  0  0  0  0  0  0  0
   39.7440   23.1420   36.6520 C   0  0  0  0  0  0  0  0  0  0  0  0
   40.5450   23.7950   35.7440 N   0  0  0  0  0  0  0  0  0  0  0  0
   41.8260   23.4600   35.5170 C   0  0  0  0  0  0  0  0  0  0  0  0
   42.3810   22.4310   36.2030 N   0  0  0  0  0  0  0  0  0  0  0  0
   37.4590   22.5630   36.2790 C   0  0  0  0  0  0  0  0  0  0  0  0
   36.4000   21.8210   36.7750 C   0  0  0  0  0  0  0  0  0  0  0  0
   35.7470   20.9500   35.9410 C   0  0  0  0  0  0  0  0  0  0  0  0
   36.1590   20.8350   34.6290 C   0  0  0  0  0  0  0  0  0  0  0  0
   37.6110   22.0650   34.5390 S   0  0  0  0  0  0  0  0  0  0  0  0
   38.0050   23.5450   38.3790 C   0  0  0  0  0  0  0  0  0  0  0  0
   38.0170   24.9020   36.3390 C   0  0  0  0  0  0  0  0  0  0  0  0
   42.1215   20.9288   37.6462 H   0  0  0  0  0  0  0  0  0  0  0  0
   39.7310   21.5121   38.1055 H   0  0  0  0  0  0  0  0  0  0  0  0
   42.4211   24.0175   34.7787 H   0  0  0  0  0  0  0  0  0  0  0  0
   36.0868   21.9289   37.8239 H   0  0  0  0  0  0  0  0  0  0  0  0
   34.9040   20.3496   36.3138 H   0  0  0  0  0  0  0  0  0  0  0  0
   35.7510   20.1935   33.8340 H   0  0  0  0  0  0  0  0  0  0  0  0
   38.9402   23.5221   38.9577 H   0  0  0  0  0  0  0  0  0  0  0  0
   37.4426   24.4572   38.6271 H   0  0  0  0  0  0  0  0  0  0  0  0
   37.3985   22.6615   38.6271 H   0  0  0  0  0  0  0  0  0  0  0  0
   37.8566   25.5995   37.1743 H   0  0  0  0  0  0  0  0  0  0  0  0
   38.8575   25.2546   35.7232 H   0  0  0  0  0  0  0  0  0  0  0  0
   37.1069   24.8519   35.7232 H   0  0  0  0  0  0  0  0  0  0  0  0
  1 13  1  0
  2  3  2  0
  4  1  1  0
  4  3  1  0
  5  4  2  0
  6  5  1  0
  6  7  2  0
  7  2  1  0
  8  9  2  0
  8  1  1  0
 10  9  1  0
 11 10  2  0
 12 11  1  0
 12  8  1  0
 14  1  1  0
  2 15  1  0
  3 16  1  0
  6 17  1  0
  9 18  1  0
 10 19  1  0
 11 20  1  0
 13 21  1  0
 13 22  1  0
 13 23  1  0
 14 24  1  0
 14 25  1  0
 14 26  1  0
M  ISO  8  15  14  16  14  17  14  18  14  19  14  20  14  21   8  22   8
M  ISO  4  23   8  24   8  25   8  26   8
M  END
>  <minimizedAffinity>  (1) 
-3.87359238

>  <minimizedRMSD>  (1) 
1.47214282

$$$$
