
     RDKit          3D

 33 34  0  0  0  0  0  0  0  0999 V2000
   38.6600   23.1710   36.2410 C   0  0  0  0  0  0  0  0  0  0  0  0
   35.6390   20.8920   35.9330 C   0  0  0  0  0  0  0  0  0  0  0  0
   36.6310   21.7230   36.5010 C   0  0  0  0  0  0  0  0  0  0  0  0
   37.6180   22.3060   35.6610 C   0  0  0  0  0  0  0  0  0  0  0  0
   37.5660   22.0320   34.3250 N   0  0  0  0  0  0  0  0  0  0  0  0
   36.6000   21.2270   33.8130 C   0  0  0  0  0  0  0  0  0  0  0  0
   35.6400   20.6570   34.6020 N   0  0  0  0  0  0  0  0  0  0  0  0
   38.6020   24.4070   35.4820 N   0  0  0  0  0  0  0  0  0  0  0  0
   39.8700   24.8190   34.9780 C   0  0  0  0  0  0  0  0  0  0  0  0
   39.9680   26.3380   35.0580 C   0  0  0  0  0  0  0  0  0  0  0  0
   38.8120   26.9780   34.4870 N   0  0  0  0  0  0  0  0  0  0  0  0
   37.5580   26.4770   34.9700 C   0  0  0  0  0  0  0  0  0  0  0  0
   37.7870   25.4250   36.0490 C   0  0  0  0  0  0  0  0  0  0  0  0
   38.3900   23.5070   37.6920 C   0  0  0  0  0  0  0  0  0  0  0  0
   40.0460   22.5530   36.1400 C   0  0  0  0  0  0  0  0  0  0  0  0
   34.8680   20.4376   36.5725 H   0  0  0  0  0  0  0  0  0  0  0  0
   36.6391   21.9168   37.5838 H   0  0  0  0  0  0  0  0  0  0  0  0
   36.5895   21.0275   32.7313 H   0  0  0  0  0  0  0  0  0  0  0  0
   39.9724   24.4978   33.9309 H   0  0  0  0  0  0  0  0  0  0  0  0
   40.6728   24.3635   35.5764 H   0  0  0  0  0  0  0  0  0  0  0  0
   40.0542   26.6343   36.1138 H   0  0  0  0  0  0  0  0  0  0  0  0
   40.8524   26.6547   34.4856 H   0  0  0  0  0  0  0  0  0  0  0  0
   38.8408   26.8437   33.4662 H   0  0  0  0  0  0  0  0  0  0  0  0
   36.9739   27.3081   35.3920 H   0  0  0  0  0  0  0  0  0  0  0  0
   37.0110   26.0175   34.1336 H   0  0  0  0  0  0  0  0  0  0  0  0
   36.8246   25.0007   36.3711 H   0  0  0  0  0  0  0  0  0  0  0  0
   38.2755   25.8697   36.9285 H   0  0  0  0  0  0  0  0  0  0  0  0
   38.9473   22.8134   38.3388 H   0  0  0  0  0  0  0  0  0  0  0  0
   38.7133   24.5385   37.8958 H   0  0  0  0  0  0  0  0  0  0  0  0
   37.3131   23.4133   37.8958 H   0  0  0  0  0  0  0  0  0  0  0  0
   40.4430   22.3760   37.1505 H   0  0  0  0  0  0  0  0  0  0  0  0
   39.9829   21.5977   35.5982 H   0  0  0  0  0  0  0  0  0  0  0  0
   40.7145   23.2383   35.5982 H   0  0  0  0  0  0  0  0  0  0  0  0
  1 14  1  0
  2  3  2  0
  4  1  1  0
  4  3  1  0
  5  4  2  0
  6  5  1  0
  6  7  2  0
  7  2  1  0
  8 13  1  0
  8  1  1  0
  9 10  1  0
  9  8  1  0
 11 12  1  0
 11 10  1  0
 12 13  1  0
 15  1  1  0
  2 16  1  0
  3 17  1  0
  6 18  1  0
  9 19  1  0
  9 20  1  0
 10 21  1  0
 10 22  1  0
 11 23  1  0
 12 24  1  0
 12 25  1  0
 13 26  1  0
 13 27  1  0
 14 28  1  0
 14 29  1  0
 14 30  1  0
 15 31  1  0
 15 32  1  0
 15 33  1  0
M  ISO  8  16  14  17  14  18  14  19  13  20  13  21  13  22  13  23   5
M  ISO  8  24  13  25  13  26  13  27  13  28   8  29   8  30   8  31   8
M  ISO  2  32   8  33   8
M  END
>  <minimizedAffinity>  (1) 
-3.92189002

>  <minimizedRMSD>  (1) 
4.00951242

$$$$
