
     RDKit          3D

 25 26  0  0  0  0  0  0  0  0999 V2000
   38.4390   23.5280   36.7980 C   0  0  0  0  0  0  0  0  0  0  0  0
   41.7340   21.7180   37.1640 C   0  0  0  0  0  0  0  0  0  0  0  0
   40.3760   22.0190   37.3410 C   0  0  0  0  0  0  0  0  0  0  0  0
   39.8650   23.1350   36.6700 C   0  0  0  0  0  0  0  0  0  0  0  0
   40.7410   23.8390   35.8960 N   0  0  0  0  0  0  0  0  0  0  0  0
   42.0330   23.5360   35.7400 C   0  0  0  0  0  0  0  0  0  0  0  0
   42.5350   22.4520   36.3900 N   0  0  0  0  0  0  0  0  0  0  0  0
   37.6480   22.5920   35.9510 C   0  0  0  0  0  0  0  0  0  0  0  0
   37.9610   22.6110   34.5770 C   0  0  0  0  0  0  0  0  0  0  0  0
   36.8270   21.3920   33.9350 S   0  0  0  0  0  0  0  0  0  0  0  0
   36.0820   21.0220   35.6240 C   0  0  0  0  0  0  0  0  0  0  0  0
   36.7200   21.8060   36.4550 N   0  0  0  0  0  0  0  0  0  0  0  0
   37.9930   23.4920   38.2600 C   0  0  0  0  0  0  0  0  0  0  0  0
   38.1830   24.9220   36.2780 C   0  0  0  0  0  0  0  0  0  0  0  0
   42.1545   20.8439   37.6828 H   0  0  0  0  0  0  0  0  0  0  0  0
   39.7349   21.3992   37.9850 H   0  0  0  0  0  0  0  0  0  0  0  0
   42.6790   24.1523   35.0974 H   0  0  0  0  0  0  0  0  0  0  0  0
   38.7070   23.2170   34.0419 H   0  0  0  0  0  0  0  0  0  0  0  0
   35.2839   20.3030   35.8608 H   0  0  0  0  0  0  0  0  0  0  0  0
   38.8745   23.5632   38.9141 H   0  0  0  0  0  0  0  0  0  0  0  0
   37.3195   24.3387   38.4589 H   0  0  0  0  0  0  0  0  0  0  0  0
   37.4641   22.5482   38.4589 H   0  0  0  0  0  0  0  0  0  0  0  0
   38.0563   25.6119   37.1253 H   0  0  0  0  0  0  0  0  0  0  0  0
   39.0365   25.2471   35.6649 H   0  0  0  0  0  0  0  0  0  0  0  0
   37.2697   24.9227   35.6649 H   0  0  0  0  0  0  0  0  0  0  0  0
  1 13  1  0
  2  3  2  0
  4  1  1  0
  4  3  1  0
  5  4  2  0
  6  5  1  0
  6  7  2  0
  7  2  1  0
  8 12  1  0
  8  1  1  0
  9  8  2  0
 10  9  1  0
 10 11  1  0
 11 12  2  0
 14  1  1  0
  2 15  1  0
  3 16  1  0
  6 17  1  0
  9 18  1  0
 11 19  1  0
 13 20  1  0
 13 21  1  0
 13 22  1  0
 14 23  1  0
 14 24  1  0
 14 25  1  0
M  ISO  8  15  14  16  14  17  14  18  14  19  14  20   8  21   8  22   8
M  ISO  3  23   8  24   8  25   8
M  END
>  <minimizedAffinity>  (1) 
-3.65483356

>  <minimizedRMSD>  (1) 
1.53608716

$$$$
