
     RDKit          3D

 42 44  0  0  1  0  0  0  0  0999 V2000
   39.0220   24.8100   34.3850 C   0  0  2  0  0  0  0  0  0  0  0  0
   40.2960   25.5210   33.9970 C   0  0  0  0  0  0  0  0  0  0  0  0
   41.5580   25.0070   34.5810 C   0  0  0  0  0  0  0  0  0  0  0  0
   42.5400   26.1620   34.3440 C   0  0  0  0  0  0  0  0  0  0  0  0
   41.7420   27.2590   33.6790 C   0  0  0  0  0  0  0  0  0  0  0  0
   40.3580   26.9830   34.3180 C   0  0  0  0  0  0  0  0  0  0  0  0
   36.4150   25.1150   31.6760 C   0  0  0  0  0  0  0  0  0  0  0  0
   37.0950   25.2980   32.8750 C   0  0  0  0  0  0  0  0  0  0  0  0
   38.2810   24.6370   33.1450 C   0  0  0  0  0  0  0  0  0  0  0  0
   38.6390   23.8460   32.1240 N   0  0  0  0  0  0  0  0  0  0  0  0
   38.0390   23.6320   30.9690 C   0  0  0  0  0  0  0  0  0  0  0  0
   36.8950   24.2880   30.7440 N   0  0  0  0  0  0  0  0  0  0  0  0
   38.2700   25.8300   35.3060 C   0  0  0  0  0  0  0  0  0  0  0  0
   39.2340   23.5920   35.1640 C   0  0  0  0  0  0  0  0  0  0  0  0
   38.1210   22.8380   35.6410 N   0  0  0  0  0  0  0  0  0  0  0  0
   37.3600   21.9870   34.9330 C   0  0  0  0  0  0  0  0  0  0  0  0
   36.3000   21.2390   35.3890 C   0  0  0  0  0  0  0  0  0  0  0  0
   35.9630   21.3630   36.7310 C   0  0  0  0  0  0  0  0  0  0  0  0
   34.9980   20.6970   37.1920 O   0  0  0  0  0  0  0  0  0  0  0  0
   36.7020   22.2100   37.4940 N   0  0  0  0  0  0  0  0  0  0  0  0
   37.7050   22.8820   36.9420 C   0  0  0  0  0  0  0  0  0  0  0  0
   38.2590   23.6010   37.8130 O   0  0  0  0  0  0  0  0  0  0  0  0
   40.2351   25.3234   32.9166 H   0  0  0  0  0  0  0  0  0  0  0  0
   41.4418   24.8003   35.6551 H   0  0  0  0  0  0  0  0  0  0  0  0
   41.8882   24.0573   34.1349 H   0  0  0  0  0  0  0  0  0  0  0  0
   42.9519   26.5156   35.3007 H   0  0  0  0  0  0  0  0  0  0  0  0
   43.3888   25.8467   33.7194 H   0  0  0  0  0  0  0  0  0  0  0  0
   41.7198   27.1462   32.5850 H   0  0  0  0  0  0  0  0  0  0  0  0
   42.1318   28.2776   33.8225 H   0  0  0  0  0  0  0  0  0  0  0  0
   39.5507   27.5541   33.8361 H   0  0  0  0  0  0  0  0  0  0  0  0
   40.2406   27.2598   35.3761 H   0  0  0  0  0  0  0  0  0  0  0  0
   35.4745   25.6556   31.4939 H   0  0  0  0  0  0  0  0  0  0  0  0
   36.6803   25.9849   33.6275 H   0  0  0  0  0  0  0  0  0  0  0  0
   38.4614   22.9433   30.2224 H   0  0  0  0  0  0  0  0  0  0  0  0
   38.4558   25.5780   36.3605 H   0  0  0  0  0  0  0  0  0  0  0  0
   38.6360   26.8471   35.1021 H   0  0  0  0  0  0  0  0  0  0  0  0
   37.1902   25.7811   35.1021 H   0  0  0  0  0  0  0  0  0  0  0  0
   39.8282   22.9137   34.5340 H   0  0  0  0  0  0  0  0  0  0  0  0
   39.6961   23.9660   36.0895 H   0  0  0  0  0  0  0  0  0  0  0  0
   37.6134   21.8760   33.8683 H   0  0  0  0  0  0  0  0  0  0  0  0
   35.7415   20.5695   34.7183 H   0  0  0  0  0  0  0  0  0  0  0  0
   36.4856   22.3299   38.4938 H   0  0  0  0  0  0  0  0  0  0  0  0
  1 14  1  1
  1 13  1  0
  2  6  1  0
  2  1  1  0
  2  3  1  0
  4  3  1  0
  5  6  1  0
  5  4  1  0
  7  8  2  0
  8  9  1  0
  9  1  1  0
 10  9  2  0
 11 10  1  0
 12 11  2  0
 12  7  1  0
 14 15  1  0
 15 21  1  0
 16 17  2  0
 16 15  1  0
 17 18  1  0
 18 19  2  0
 18 20  1  0
 21 20  1  0
 21 22  2  0
  2 23  1  0
  3 24  1  0
  3 25  1  0
  4 26  1  0
  4 27  1  0
  5 28  1  0
  5 29  1  0
  6 30  1  0
  6 31  1  0
  7 32  1  0
  8 33  1  0
 11 34  1  0
 13 35  1  0
 13 36  1  0
 13 37  1  0
 14 38  1  0
 14 39  1  0
 16 40  1  0
 17 41  1  0
 20 42  1  0
M  ISO  8  23  13  24  13  25  13  26  13  27  13  28  13  29  13  30  13
M  ISO  8  31  13  32  14  33  14  34  14  35   8  36   8  37   8  38   8
M  ISO  4  39   8  40  14  41  14  42   9
M  END
>  <minimizedAffinity>  (1) 
-4.86580753

>  <minimizedRMSD>  (1) 
6.17109823

$$$$
