
     RDKit          3D

 43 46  0  0  1  0  0  0  0  0999 V2000
   40.0110   24.1790   34.8800 C   0  0  2  0  0  0  0  0  0  0  0  0
   41.3150   24.9190   34.9310 C   0  0  0  0  0  0  0  0  0  0  0  0
   41.8810   25.3410   33.6370 C   0  0  0  0  0  0  0  0  0  0  0  0
   43.3550   25.6280   33.9840 C   0  0  0  0  0  0  0  0  0  0  0  0
   43.4940   25.3400   35.4630 C   0  0  0  0  0  0  0  0  0  0  0  0
   42.4590   24.2030   35.5830 C   0  0  0  0  0  0  0  0  0  0  0  0
   37.5710   27.0090   35.3570 C   0  0  0  0  0  0  0  0  0  0  0  0
   38.5520   26.0460   35.6370 C   0  0  0  0  0  0  0  0  0  0  0  0
   38.9820   25.1770   34.6460 C   0  0  0  0  0  0  0  0  0  0  0  0
   38.3630   25.3760   33.4650 N   0  0  0  0  0  0  0  0  0  0  0  0
   37.4340   26.2690   33.1580 C   0  0  0  0  0  0  0  0  0  0  0  0
   37.0340   27.1070   34.1490 N   0  0  0  0  0  0  0  0  0  0  0  0
   39.8250   23.5710   36.3170 C   0  0  0  0  0  0  0  0  0  0  0  0
   40.0020   23.0250   33.9650 C   0  0  0  0  0  0  0  0  0  0  0  0
   38.7800   22.3810   33.6720 N   0  0  0  0  0  0  0  0  0  0  0  0
   38.5250   22.1410   32.3460 C   0  0  0  0  0  0  0  0  0  0  0  0
   37.3450   21.4930   32.1880 N   0  0  0  0  0  0  0  0  0  0  0  0
   36.7900   21.2880   33.3960 C   0  0  0  0  0  0  0  0  0  0  0  0
   35.6530   20.7300   33.9390 C   0  0  0  0  0  0  0  0  0  0  0  0
   35.4310   20.7280   35.2810 N   0  0  0  0  0  0  0  0  0  0  0  0
   36.3500   21.2880   36.1060 C   0  0  0  0  0  0  0  0  0  0  0  0
   37.4550   21.8300   35.5750 N   0  0  0  0  0  0  0  0  0  0  0  0
   37.7030   21.8480   34.2580 C   0  0  0  0  0  0  0  0  0  0  0  0
   40.9673   25.7754   35.5274 H   0  0  0  0  0  0  0  0  0  0  0  0
   41.3794   26.2451   33.2615 H   0  0  0  0  0  0  0  0  0  0  0  0
   41.7597   24.5889   32.8435 H   0  0  0  0  0  0  0  0  0  0  0  0
   44.0201   24.9730   33.4021 H   0  0  0  0  0  0  0  0  0  0  0  0
   43.6324   26.6654   33.7457 H   0  0  0  0  0  0  0  0  0  0  0  0
   44.5083   25.0043   35.7247 H   0  0  0  0  0  0  0  0  0  0  0  0
   43.3335   26.1995   36.1304 H   0  0  0  0  0  0  0  0  0  0  0  0
   42.2466   23.9374   36.6291 H   0  0  0  0  0  0  0  0  0  0  0  0
   42.7430   23.2339   35.1468 H   0  0  0  0  0  0  0  0  0  0  0  0
   37.2421   27.6937   36.1526 H   0  0  0  0  0  0  0  0  0  0  0  0
   38.9820   25.9801   36.6473 H   0  0  0  0  0  0  0  0  0  0  0  0
   37.0060   26.3290   32.1464 H   0  0  0  0  0  0  0  0  0  0  0  0
   40.0590   24.3360   37.0719 H   0  0  0  0  0  0  0  0  0  0  0  0
   38.7840   23.2384   36.4425 H   0  0  0  0  0  0  0  0  0  0  0  0
   40.5017   22.7129   36.4425 H   0  0  0  0  0  0  0  0  0  0  0  0
   40.4186   23.3720   33.0079 H   0  0  0  0  0  0  0  0  0  0  0  0
   40.5745   22.2590   34.5086 H   0  0  0  0  0  0  0  0  0  0  0  0
   39.1897   22.4353   31.5204 H   0  0  0  0  0  0  0  0  0  0  0  0
   34.9068   20.2751   33.2710 H   0  0  0  0  0  0  0  0  0  0  0  0
   36.1911   21.2973   37.1944 H   0  0  0  0  0  0  0  0  0  0  0  0
  1 14  1  6
  1  2  1  0
  1 13  1  0
  2  6  1  0
  3  4  1  0
  3  2  1  0
  4  5  1  0
  5  6  1  0
  7  8  2  0
  9  1  1  0
  9  8  1  0
 10  9  2  0
 11 10  1  0
 11 12  2  0
 12  7  1  0
 15 14  1  0
 15 23  1  0
 16 15  1  0
 17 16  2  0
 17 18  1  0
 18 19  2  0
 18 23  1  0
 19 20  1  0
 20 21  2  0
 22 21  1  0
 23 22  2  0
  2 24  1  0
  3 25  1  0
  3 26  1  0
  4 27  1  0
  4 28  1  0
  5 29  1  0
  5 30  1  0
  6 31  1  0
  6 32  1  0
  7 33  1  0
  8 34  1  0
 11 35  1  0
 13 36  1  0
 13 37  1  0
 13 38  1  0
 14 39  1  0
 14 40  1  0
 16 41  1  0
 19 42  1  0
 21 43  1  0
M  ISO  8  24  13  25  13  26  13  27  13  28  13  29  13  30  13  31  13
M  ISO  8  32  13  33  14  34  14  35  14  36   8  37   8  38   8  39   8
M  ISO  4  40   8  41  14  42  14  43  14
M  END
>  <minimizedAffinity>  (1) 
-4.45042372

>  <minimizedRMSD>  (1) 
6.458776

$$$$
