
     RDKit          3D

 44 47  0  0  1  0  0  0  0  0999 V2000
   36.1600   29.4930   32.4410 C   0  0  0  0  0  0  0  0  0  0  0  0
   36.8630   28.4950   31.8120 C   0  0  0  0  0  0  0  0  0  0  0  0
   37.2090   27.3740   32.5590 C   0  0  0  0  0  0  0  0  0  0  0  0
   36.8550   27.2730   33.8820 C   0  0  0  0  0  0  0  0  0  0  0  0
   36.1520   28.2670   34.5120 C   0  0  0  0  0  0  0  0  0  0  0  0
   35.8020   29.3840   33.7890 C   0  0  0  0  0  0  0  0  0  0  0  0
   37.3150   26.0080   34.4970 C   0  0  0  0  0  0  0  0  0  0  0  0
   38.7430   26.0290   34.9200 C   0  0  2  0  0  0  0  0  0  0  0  0
   40.7050   23.1760   36.1130 C   0  0  0  0  0  0  0  0  0  0  0  0
   39.9030   22.6430   37.1780 C   0  0  0  0  0  0  0  0  0  0  0  0
   38.6790   23.2870   37.4720 C   0  0  0  0  0  0  0  0  0  0  0  0
   38.3580   24.3770   36.7050 N   0  0  0  0  0  0  0  0  0  0  0  0
   39.1400   24.8460   35.7110 C   0  0  0  0  0  0  0  0  0  0  0  0
   40.3090   24.2570   35.4090 N   0  0  0  0  0  0  0  0  0  0  0  0
   38.9620   27.2720   35.7980 C   0  0  0  0  0  0  0  0  0  0  0  0
   35.7120   30.9160   31.5230 S   0  0  0  0  0  0  0  0  0  0  0  0
   36.2930   30.7500   30.1250 O   0  0  0  0  0  0  0  0  0  0  0  0
   36.3000   32.1530   32.1240 O   0  0  0  0  0  0  0  0  0  0  0  0
   33.9800   31.0700   31.4250 C   0  0  0  0  0  0  0  0  0  0  0  0
   32.9580   30.5420   32.1080 N   0  0  0  0  0  0  0  0  0  0  0  0
   31.8280   30.9850   31.6340 O   0  0  0  0  0  0  0  0  0  0  0  0
   32.0630   31.8060   30.6390 C   0  0  0  0  0  0  0  0  0  0  0  0
   33.3810   31.8560   30.5140 N   0  0  0  0  0  0  0  0  0  0  0  0
   31.0220   32.5000   29.8590 C   0  0  0  0  0  0  0  0  0  0  0  0
   30.7640   31.9850   28.4680 C   0  0  0  0  0  0  0  0  0  0  0  0
   29.7190   31.8650   29.5560 C   0  0  0  0  0  0  0  0  0  0  0  0
   37.1434   28.5795   30.7517 H   0  0  0  0  0  0  0  0  0  0  0  0
   37.7734   26.5580   32.0840 H   0  0  0  0  0  0  0  0  0  0  0  0
   35.8739   28.1736   35.5722 H   0  0  0  0  0  0  0  0  0  0  0  0
   35.2381   30.1950   34.2731 H   0  0  0  0  0  0  0  0  0  0  0  0
   36.6940   25.8071   35.3825 H   0  0  0  0  0  0  0  0  0  0  0  0
   37.2200   25.2258   33.7295 H   0  0  0  0  0  0  0  0  0  0  0  0
   39.3526   26.0361   34.0044 H   0  0  0  0  0  0  0  0  0  0  0  0
   41.6620   22.6932   35.8658 H   0  0  0  0  0  0  0  0  0  0  0  0
   40.2307   21.7609   37.7476 H   0  0  0  0  0  0  0  0  0  0  0  0
   38.0176   22.9313   38.2757 H   0  0  0  0  0  0  0  0  0  0  0  0
   38.9115   26.9852   36.8587 H   0  0  0  0  0  0  0  0  0  0  0  0
   39.9501   27.7042   35.5817 H   0  0  0  0  0  0  0  0  0  0  0  0
   38.1811   28.0159   35.5817 H   0  0  0  0  0  0  0  0  0  0  0  0
   31.2892   33.4609   30.3230 H   0  0  0  0  0  0  0  0  0  0  0  0
   31.2885   31.0896   28.1032 H   0  0  0  0  0  0  0  0  0  0  0  0
   30.7967   32.4111   27.4544 H   0  0  0  0  0  0  0  0  0  0  0  0
   28.8068   32.4780   29.5111 H   0  0  0  0  0  0  0  0  0  0  0  0
   29.1415   31.0348   29.9886 H   0  0  0  0  0  0  0  0  0  0  0  0
  1  6  1  0
  2  1  2  0
  2  3  1  0
  3  4  2  0
  4  7  1  0
  4  5  1  0
  6  5  2  0
  7  8  1  0
  8 13  1  0
  8 15  1  0
  9 10  2  0
 10 11  1  0
 12 11  2  0
 13 12  1  0
 14 13  2  0
 14  9  1  0
 16 18  2  0
 16  1  1  0
 17 16  2  0
 19 16  1  0
 19 20  2  0
 21 20  1  0
 22 21  1  0
 23 22  2  0
 23 19  1  0
 24 22  1  0
 25 26  1  0
 25 24  1  0
 26 24  1  0
  2 27  1  0
  3 28  1  0
  5 29  1  0
  6 30  1  0
  7 31  1  0
  7 32  1  0
  8 33  1  6
  9 34  1  0
 10 35  1  0
 11 36  1  0
 15 37  1  0
 15 38  1  0
 15 39  1  0
 24 40  1  0
 25 41  1  0
 25 42  1  0
 26 43  1  0
 26 44  1  0
M  ISO  8  27  14  28  14  29  14  30  14  31   8  32   8  33   8  34  14
M  ISO  8  35  14  36  14  37   8  38   8  39   8  40  13  41  13  42  13
M  ISO  2  43  13  44  13
M  END
>  <minimizedAffinity>  (1) 
-5.23221016

>  <minimizedRMSD>  (1) 
0.666764319

$$$$
