
     RDKit          3D

 46 48  0  0  1  0  0  0  0  0999 V2000
   38.9440   23.0550   35.9970 C   0  0  2  0  0  0  0  0  0  0  0  0
   37.9060   21.9900   35.7120 C   0  0  0  0  0  0  0  0  0  0  0  0
   37.4400   21.8060   34.3420 C   0  0  0  0  0  0  0  0  0  0  0  0
   36.0940   21.0900   34.5010 C   0  0  0  0  0  0  0  0  0  0  0  0
   35.9390   20.8490   36.0000 C   0  0  0  0  0  0  0  0  0  0  0  0
   36.6130   22.1530   36.4910 C   0  0  0  0  0  0  0  0  0  0  0  0
   41.8810   21.2800   37.6170 C   0  0  0  0  0  0  0  0  0  0  0  0
   40.6900   22.0050   37.4590 C   0  0  0  0  0  0  0  0  0  0  0  0
   40.2000   22.2940   36.1770 C   0  0  0  0  0  0  0  0  0  0  0  0
   40.9840   21.8100   35.1760 N   0  0  0  0  0  0  0  0  0  0  0  0
   42.1110   21.1250   35.3240 C   0  0  0  0  0  0  0  0  0  0  0  0
   42.5610   20.8590   36.5570 N   0  0  0  0  0  0  0  0  0  0  0  0
   38.5240   23.7060   37.3260 C   0  0  0  0  0  0  0  0  0  0  0  0
   39.0530   24.0650   34.9380 C   0  0  0  0  0  0  0  0  0  0  0  0
   40.1340   25.0000   34.9660 N   0  0  0  0  0  0  0  0  0  0  0  0
   40.8890   24.8710   33.6760 C   0  0  0  0  0  0  0  0  0  0  0  0
   42.2250   25.5580   33.8910 C   0  0  0  0  0  0  0  0  0  0  0  0
   41.9940   26.8540   34.5300 N   0  0  0  0  0  0  0  0  0  0  0  0
   40.6560   27.2960   34.1890 C   0  0  0  0  0  0  0  0  0  0  0  0
   39.6390   26.3890   34.8440 C   0  0  0  0  0  0  0  0  0  0  0  0
   38.5183   21.1268   36.0120 H   0  0  0  0  0  0  0  0  0  0  0  0
   38.1463   21.1878   33.7685 H   0  0  0  0  0  0  0  0  0  0  0  0
   37.3522   22.7555   33.7936 H   0  0  0  0  0  0  0  0  0  0  0  0
   35.2752   21.7216   34.1259 H   0  0  0  0  0  0  0  0  0  0  0  0
   36.0598   20.1507   33.9295 H   0  0  0  0  0  0  0  0  0  0  0  0
   34.8844   20.7830   36.3057 H   0  0  0  0  0  0  0  0  0  0  0  0
   36.3604   19.9094   36.3867 H   0  0  0  0  0  0  0  0  0  0  0  0
   36.7742   22.1607   37.5791 H   0  0  0  0  0  0  0  0  0  0  0  0
   36.0551   23.0878   36.3335 H   0  0  0  0  0  0  0  0  0  0  0  0
   42.2545   21.0585   38.6277 H   0  0  0  0  0  0  0  0  0  0  0  0
   40.1374   22.3487   38.3458 H   0  0  0  0  0  0  0  0  0  0  0  0
   42.6702   20.7790   34.4422 H   0  0  0  0  0  0  0  0  0  0  0  0
   38.9096   23.1083   38.1651 H   0  0  0  0  0  0  0  0  0  0  0  0
   38.9357   24.7245   37.3816 H   0  0  0  0  0  0  0  0  0  0  0  0
   37.4263   23.7507   37.3816 H   0  0  0  0  0  0  0  0  0  0  0  0
   39.1242   23.5220   33.9840 H   0  0  0  0  0  0  0  0  0  0  0  0
   38.1632   24.6941   35.0882 H   0  0  0  0  0  0  0  0  0  0  0  0
   40.3361   25.3609   32.8610 H   0  0  0  0  0  0  0  0  0  0  0  0
   41.0236   23.8156   33.3965 H   0  0  0  0  0  0  0  0  0  0  0  0
   42.8605   24.9354   34.5379 H   0  0  0  0  0  0  0  0  0  0  0  0
   42.7291   25.7037   32.9242 H   0  0  0  0  0  0  0  0  0  0  0  0
   42.0798   26.7589   35.5520 H   0  0  0  0  0  0  0  0  0  0  0  0
   40.5095   28.3267   34.5441 H   0  0  0  0  0  0  0  0  0  0  0  0
   40.5271   27.2605   33.0972 H   0  0  0  0  0  0  0  0  0  0  0  0
   39.4133   26.7754   35.8489 H   0  0  0  0  0  0  0  0  0  0  0  0
   38.7386   26.3751   34.2122 H   0  0  0  0  0  0  0  0  0  0  0  0
  1 14  1  6
  1  9  1  0
  1 13  1  0
  2  1  1  0
  2  6  1  0
  3  4  1  0
  3  2  1  0
  4  5  1  0
  5  6  1  0
  8  7  2  0
  9  8  1  0
 10 11  1  0
 10  9  2  0
 11 12  2  0
 12  7  1  0
 14 15  1  0
 16 17  1  0
 16 15  1  0
 17 18  1  0
 19 18  1  0
 19 20  1  0
 20 15  1  0
  2 21  1  0
  3 22  1  0
  3 23  1  0
  4 24  1  0
  4 25  1  0
  5 26  1  0
  5 27  1  0
  6 28  1  0
  6 29  1  0
  7 30  1  0
  8 31  1  0
 11 32  1  0
 13 33  1  0
 13 34  1  0
 13 35  1  0
 14 36  1  0
 14 37  1  0
 16 38  1  0
 16 39  1  0
 17 40  1  0
 17 41  1  0
 18 42  1  0
 19 43  1  0
 19 44  1  0
 20 45  1  0
 20 46  1  0
M  ISO  8  21  13  22  13  23  13  24  13  25  13  26  13  27  13  28  13
M  ISO  8  29  13  30  14  31  14  32  14  33   8  34   8  35   8  36   8
M  ISO  8  37   8  38  13  39  13  40  13  41  13  42   5  43  13  44  13
M  ISO  2  45  13  46  13
M  END
>  <minimizedAffinity>  (1) 
-4.31966972

>  <minimizedRMSD>  (1) 
2.23441124

$$$$
