
     RDKit          3D

 45 47  0  0  1  0  0  0  0  0999 V2000
   38.9710   23.0470   35.9640 C   0  0  2  0  0  0  0  0  0  0  0  0
   37.9250   21.9920   35.6950 C   0  0  0  0  0  0  0  0  0  0  0  0
   37.4370   21.8240   34.3230 C   0  0  0  0  0  0  0  0  0  0  0  0
   36.1020   21.0680   34.5200 C   0  0  0  0  0  0  0  0  0  0  0  0
   35.9520   20.8710   36.0130 C   0  0  0  0  0  0  0  0  0  0  0  0
   36.6410   22.1680   36.4810 C   0  0  0  0  0  0  0  0  0  0  0  0
   41.8740   21.2580   37.6220 C   0  0  0  0  0  0  0  0  0  0  0  0
   40.6950   21.9800   37.4370 C   0  0  0  0  0  0  0  0  0  0  0  0
   40.2180   22.2790   36.1630 C   0  0  0  0  0  0  0  0  0  0  0  0
   41.0130   21.8000   35.1660 N   0  0  0  0  0  0  0  0  0  0  0  0
   42.1380   21.1130   35.3320 C   0  0  0  0  0  0  0  0  0  0  0  0
   42.5700   20.8410   36.5760 N   0  0  0  0  0  0  0  0  0  0  0  0
   38.5530   23.7380   37.2800 C   0  0  0  0  0  0  0  0  0  0  0  0
   39.0900   24.0520   34.9030 C   0  0  0  0  0  0  0  0  0  0  0  0
   40.0050   25.1980   35.1170 C   0  0  0  0  0  0  0  0  0  0  0  0
   41.1140   25.0800   34.0440 C   0  0  0  0  0  0  0  0  0  0  0  0
   41.7970   26.4400   34.2380 C   0  0  0  0  0  0  0  0  0  0  0  0
   40.5850   27.3430   34.1060 C   0  0  0  0  0  0  0  0  0  0  0  0
   39.5060   26.5630   34.8470 C   0  0  0  0  0  0  0  0  0  0  0  0
   38.5299   21.1226   35.9920 H   0  0  0  0  0  0  0  0  0  0  0  0
   38.1423   21.2312   33.7221 H   0  0  0  0  0  0  0  0  0  0  0  0
   37.3212   22.7759   33.7840 H   0  0  0  0  0  0  0  0  0  0  0  0
   35.2642   21.6625   34.1266 H   0  0  0  0  0  0  0  0  0  0  0  0
   36.0995   20.1074   33.9841 H   0  0  0  0  0  0  0  0  0  0  0  0
   34.8972   20.8266   36.3219 H   0  0  0  0  0  0  0  0  0  0  0  0
   36.3666   19.9356   36.4169 H   0  0  0  0  0  0  0  0  0  0  0  0
   36.8121   22.1847   37.5675 H   0  0  0  0  0  0  0  0  0  0  0  0
   36.0886   23.1049   36.3164 H   0  0  0  0  0  0  0  0  0  0  0  0
   42.2264   21.0345   38.6398 H   0  0  0  0  0  0  0  0  0  0  0  0
   40.1294   22.3208   38.3167 H   0  0  0  0  0  0  0  0  0  0  0  0
   42.7116   20.7694   34.4586 H   0  0  0  0  0  0  0  0  0  0  0  0
   38.9112   23.1458   38.1349 H   0  0  0  0  0  0  0  0  0  0  0  0
   38.9935   24.7451   37.3213 H   0  0  0  0  0  0  0  0  0  0  0  0
   37.4565   23.8154   37.3213 H   0  0  0  0  0  0  0  0  0  0  0  0
   39.4298   23.5294   33.9967 H   0  0  0  0  0  0  0  0  0  0  0  0
   38.0911   24.5097   34.8509 H   0  0  0  0  0  0  0  0  0  0  0  0
   40.2546   25.1206   36.1855 H   0  0  0  0  0  0  0  0  0  0  0  0
   40.6965   24.9707   33.0322 H   0  0  0  0  0  0  0  0  0  0  0  0
   41.7734   24.2054   34.1454 H   0  0  0  0  0  0  0  0  0  0  0  0
   42.2682   26.5261   35.2282 H   0  0  0  0  0  0  0  0  0  0  0  0
   42.6222   26.6555   33.5433 H   0  0  0  0  0  0  0  0  0  0  0  0
   40.7643   28.3198   34.5791 H   0  0  0  0  0  0  0  0  0  0  0  0
   40.3212   27.5709   33.0627 H   0  0  0  0  0  0  0  0  0  0  0  0
   39.2729   27.0660   35.7971 H   0  0  0  0  0  0  0  0  0  0  0  0
   38.5938   26.5129   34.2343 H   0  0  0  0  0  0  0  0  0  0  0  0
  1 14  1  6
  1  9  1  0
  1 13  1  0
  2  1  1  0
  2  6  1  0
  3  4  1  0
  3  2  1  0
  4  5  1  0
  5  6  1  0
  8  7  2  0
  9  8  1  0
 10 11  1  0
 10  9  2  0
 11 12  2  0
 12  7  1  0
 14 15  1  0
 16 17  1  0
 16 15  1  0
 18 17  1  0
 18 19  1  0
 19 15  1  0
  2 20  1  0
  3 21  1  0
  3 22  1  0
  4 23  1  0
  4 24  1  0
  5 25  1  0
  5 26  1  0
  6 27  1  0
  6 28  1  0
  7 29  1  0
  8 30  1  0
 11 31  1  0
 13 32  1  0
 13 33  1  0
 13 34  1  0
 14 35  1  0
 14 36  1  0
 15 37  1  0
 16 38  1  0
 16 39  1  0
 17 40  1  0
 17 41  1  0
 18 42  1  0
 18 43  1  0
 19 44  1  0
 19 45  1  0
M  ISO  8  20  13  21  13  22  13  23  13  24  13  25  13  26  13  27  13
M  ISO  8  28  13  29  14  30  14  31  14  32   8  33   8  34   8  35   8
M  ISO  8  36   8  37  13  38  13  39  13  40  13  41  13  42  13  43  13
M  ISO  2  44  13  45  13
M  END
>  <minimizedAffinity>  (1) 
-4.32760286

>  <minimizedRMSD>  (1) 
1.51647592

$$$$
