
     RDKit          3D

 46 49  0  0  1  0  0  0  0  0999 V2000
   37.9650   22.3330   32.1480 C   0  0  2  0  0  0  0  0  0  0  0  0
   37.6950   21.3390   31.0450 C   0  0  0  0  0  0  0  0  0  0  0  0
   36.3020   20.8910   30.8720 C   0  0  0  0  0  0  0  0  0  0  0  0
   36.4480   19.5960   30.0560 C   0  0  0  0  0  0  0  0  0  0  0  0
   37.9500   19.4200   29.8330 C   0  0  0  0  0  0  0  0  0  0  0  0
   38.4630   20.0550   31.1250 C   0  0  0  0  0  0  0  0  0  0  0  0
   40.1670   24.3250   29.8330 C   0  0  0  0  0  0  0  0  0  0  0  0
   39.1660   23.4530   30.2750 C   0  0  0  0  0  0  0  0  0  0  0  0
   38.9950   23.2210   31.6340 C   0  0  0  0  0  0  0  0  0  0  0  0
   39.8680   23.9070   32.3930 N   0  0  0  0  0  0  0  0  0  0  0  0
   40.8250   24.7370   32.0110 C   0  0  0  0  0  0  0  0  0  0  0  0
   40.9690   24.9460   30.6830 N   0  0  0  0  0  0  0  0  0  0  0  0
   38.5390   21.4790   33.3320 C   0  0  0  0  0  0  0  0  0  0  0  0
   36.7540   22.9980   32.6570 C   0  0  0  0  0  0  0  0  0  0  0  0
   36.3760   24.2530   32.0670 N   0  0  0  0  0  0  0  0  0  0  0  0
   35.7240   24.5850   30.9410 C   0  0  0  0  0  0  0  0  0  0  0  0
   35.5600   25.8880   30.7680 N   0  0  0  0  0  0  0  0  0  0  0  0
   36.1310   26.5160   31.8390 C   0  0  0  0  0  0  0  0  0  0  0  0
   36.2410   27.8460   32.1600 C   0  0  0  0  0  0  0  0  0  0  0  0
   35.7590   28.7090   31.3820 O   0  0  0  0  0  0  0  0  0  0  0  0
   36.8600   28.1910   33.2960 N   0  0  0  0  0  0  0  0  0  0  0  0
   37.3500   27.2140   34.0780 C   0  0  0  0  0  0  0  0  0  0  0  0
   38.0160   27.5470   35.2950 N   0  0  0  0  0  0  0  0  0  0  0  0
   37.2250   25.9450   33.7320 N   0  0  0  0  0  0  0  0  0  0  0  0
   36.6190   25.4860   32.6100 C   0  0  0  0  0  0  0  0  0  0  0  0
   38.0150   21.9722   30.2044 H   0  0  0  0  0  0  0  0  0  0  0  0
   35.8277   20.6930   31.8445 H   0  0  0  0  0  0  0  0  0  0  0  0
   35.6656   21.6413   30.3801 H   0  0  0  0  0  0  0  0  0  0  0  0
   36.0398   18.7413   30.6153 H   0  0  0  0  0  0  0  0  0  0  0  0
   35.8980   19.6492   29.1048 H   0  0  0  0  0  0  0  0  0  0  0  0
   38.2333   18.3600   29.7542 H   0  0  0  0  0  0  0  0  0  0  0  0
   38.3435   19.8575   28.9036 H   0  0  0  0  0  0  0  0  0  0  0  0
   39.5507   20.2181   31.1059 H   0  0  0  0  0  0  0  0  0  0  0  0
   38.3223   19.4645   32.0423 H   0  0  0  0  0  0  0  0  0  0  0  0
   40.2902   24.4984   28.7538 H   0  0  0  0  0  0  0  0  0  0  0  0
   38.5137   22.9506   29.5456 H   0  0  0  0  0  0  0  0  0  0  0  0
   41.4764   25.2362   32.7434 H   0  0  0  0  0  0  0  0  0  0  0  0
   38.2365   21.9291   34.2890 H   0  0  0  0  0  0  0  0  0  0  0  0
   38.1461   20.4535   33.2686 H   0  0  0  0  0  0  0  0  0  0  0  0
   39.6369   21.4556   33.2686 H   0  0  0  0  0  0  0  0  0  0  0  0
   35.9139   22.3026   32.5135 H   0  0  0  0  0  0  0  0  0  0  0  0
   36.9946   23.2462   33.7013 H   0  0  0  0  0  0  0  0  0  0  0  0
   35.3568   23.8375   30.2224 H   0  0  0  0  0  0  0  0  0  0  0  0
   36.9582   29.1807   33.5639 H   0  0  0  0  0  0  0  0  0  0  0  0
   38.3928   26.8008   35.8967 H   0  0  0  0  0  0  0  0  0  0  0  0
   38.1200   28.5336   35.5718 H   0  0  0  0  0  0  0  0  0  0  0  0
  1 14  1  1
  1 13  1  0
  2  6  1  0
  2  1  1  0
  3  2  1  0
  4  3  1  0
  5  4  1  0
  5  6  1  0
  7  8  2  0
  7 12  1  0
  8  9  1  0
  9  1  1  0
  9 10  2  0
 11 10  1  0
 12 11  2  0
 15 25  1  0
 15 14  1  0
 16 15  1  0
 17 16  2  0
 17 18  1  0
 18 19  1  0
 18 25  2  0
 19 21  1  0
 20 19  2  0
 21 22  1  0
 22 23  1  0
 24 22  2  0
 25 24  1  0
  2 26  1  0
  3 27  1  0
  3 28  1  0
  4 29  1  0
  4 30  1  0
  5 31  1  0
  5 32  1  0
  6 33  1  0
  6 34  1  0
  7 35  1  0
  8 36  1  0
 11 37  1  0
 13 38  1  0
 13 39  1  0
 13 40  1  0
 14 41  1  0
 14 42  1  0
 16 43  1  0
 21 44  1  0
 23 45  1  0
 23 46  1  0
M  ISO  8  26  13  27  13  28  13  29  13  30  13  31  13  32  13  33  13
M  ISO  8  34  13  35  14  36  14  37  14  38   8  39   8  40   8  41   8
M  ISO  3  42   8  43  14  44   9
M  END
>  <minimizedAffinity>  (1) 
-4.36394596

>  <minimizedRMSD>  (1) 
6.0978055

$$$$
