
     RDKit          3D

 48 51  0  0  1  0  0  0  0  0999 V2000
   38.1190   22.1680   32.8770 C   0  0  2  0  0  0  0  0  0  0  0  0
   37.4410   21.4810   34.0450 C   0  0  0  0  0  0  0  0  0  0  0  0
   36.0530   21.0480   33.8330 C   0  0  0  0  0  0  0  0  0  0  0  0
   35.5390   20.8480   35.2780 C   0  0  0  0  0  0  0  0  0  0  0  0
   36.6920   21.1890   36.1830 C   0  0  0  0  0  0  0  0  0  0  0  0
   37.3790   22.2620   35.3250 C   0  0  0  0  0  0  0  0  0  0  0  0
   39.4240   19.0880   31.1480 C   0  0  0  0  0  0  0  0  0  0  0  0
   39.2400   20.0720   32.1270 C   0  0  0  0  0  0  0  0  0  0  0  0
   38.3670   21.1250   31.9040 C   0  0  0  0  0  0  0  0  0  0  0  0
   37.7900   21.0390   30.7060 N   0  0  0  0  0  0  0  0  0  0  0  0
   37.9080   20.1560   29.7400 C   0  0  0  0  0  0  0  0  0  0  0  0
   38.7630   19.1420   29.9790 N   0  0  0  0  0  0  0  0  0  0  0  0
   39.4910   22.6770   33.4530 C   0  0  0  0  0  0  0  0  0  0  0  0
   37.4140   23.3650   32.4110 C   0  0  0  0  0  0  0  0  0  0  0  0
   37.9450   24.6910   32.5630 C   0  0  0  0  0  0  0  0  0  0  0  0
   37.5780   25.3270   33.7690 C   0  0  0  0  0  0  0  0  0  0  0  0
   38.0690   26.5690   34.1740 C   0  0  0  0  0  0  0  0  0  0  0  0
   38.9800   27.2630   33.3700 C   0  0  0  0  0  0  0  0  0  0  0  0
   39.3620   26.6760   32.1790 C   0  0  0  0  0  0  0  0  0  0  0  0
   40.2120   27.3260   31.3090 C   0  0  0  0  0  0  0  0  0  0  0  0
   40.5600   26.7800   30.0850 C   0  0  0  0  0  0  0  0  0  0  0  0
   40.0310   25.5380   29.7250 C   0  0  0  0  0  0  0  0  0  0  0  0
   39.1920   24.9440   30.6360 C   0  0  0  0  0  0  0  0  0  0  0  0
   38.8300   25.4570   31.8620 C   0  0  0  0  0  0  0  0  0  0  0  0
   38.1227   20.6213   34.1238 H   0  0  0  0  0  0  0  0  0  0  0  0
   35.4717   21.8202   33.3078 H   0  0  0  0  0  0  0  0  0  0  0  0
   35.9659   20.1467   33.2084 H   0  0  0  0  0  0  0  0  0  0  0  0
   34.6878   21.5160   35.4761 H   0  0  0  0  0  0  0  0  0  0  0  0
   35.1915   19.8172   35.4415 H   0  0  0  0  0  0  0  0  0  0  0  0
   36.3509   21.5917   37.1481 H   0  0  0  0  0  0  0  0  0  0  0  0
   37.3295   20.3396   36.4694 H   0  0  0  0  0  0  0  0  0  0  0  0
   38.3777   22.5246   35.7038 H   0  0  0  0  0  0  0  0  0  0  0  0
   36.8781   23.2401   35.2750 H   0  0  0  0  0  0  0  0  0  0  0  0
   40.1203   18.2580   31.3386 H   0  0  0  0  0  0  0  0  0  0  0  0
   39.7907   20.0090   33.0771 H   0  0  0  0  0  0  0  0  0  0  0  0
   37.3458   20.2390   28.7981 H   0  0  0  0  0  0  0  0  0  0  0  0
   39.4548   22.6636   34.5523 H   0  0  0  0  0  0  0  0  0  0  0  0
   40.3013   22.0197   33.1048 H   0  0  0  0  0  0  0  0  0  0  0  0
   39.6766   23.7038   33.1048 H   0  0  0  0  0  0  0  0  0  0  0  0
   37.2554   23.2232   31.3318 H   0  0  0  0  0  0  0  0  0  0  0  0
   36.5506   23.3927   33.0919 H   0  0  0  0  0  0  0  0  0  0  0  0
   36.8629   24.8132   34.4282 H   0  0  0  0  0  0  0  0  0  0  0  0
   37.7386   27.0040   35.1288 H   0  0  0  0  0  0  0  0  0  0  0  0
   39.3782   28.2418   33.6755 H   0  0  0  0  0  0  0  0  0  0  0  0
   40.6247   28.3047   31.5951 H   0  0  0  0  0  0  0  0  0  0  0  0
   41.2415   27.3152   29.4074 H   0  0  0  0  0  0  0  0  0  0  0  0
   40.2734   25.0615   28.7637 H   0  0  0  0  0  0  0  0  0  0  0  0
   38.7694   23.9665   30.3605 H   0  0  0  0  0  0  0  0  0  0  0  0
  1 14  1  6
  1 13  1  0
  1  2  1  0
  2  6  1  0
  3  2  1  0
  3  4  1  0
  4  5  1  0
  6  5  1  0
  7  8  2  0
  9  8  1  0
  9  1  1  0
 10  9  2  0
 11 12  2  0
 11 10  1  0
 12  7  1  0
 14 15  1  0
 15 16  2  0
 16 17  1  0
 18 17  2  0
 19 18  1  0
 20 19  2  0
 21 20  1  0
 22 21  2  0
 22 23  1  0
 23 24  2  0
 24 19  1  0
 24 15  1  0
  2 25  1  0
  3 26  1  0
  3 27  1  0
  4 28  1  0
  4 29  1  0
  5 30  1  0
  5 31  1  0
  6 32  1  0
  6 33  1  0
  7 34  1  0
  8 35  1  0
 11 36  1  0
 13 37  1  0
 13 38  1  0
 13 39  1  0
 14 40  1  0
 14 41  1  0
 16 42  1  0
 17 43  1  0
 18 44  1  0
 20 45  1  0
 21 46  1  0
 22 47  1  0
 23 48  1  0
M  ISO  8  25  13  26  13  27  13  28  13  29  13  30  13  31  13  32  13
M  ISO  8  33  13  34  14  35  14  36  14  37   8  38   8  39   8  40   8
M  ISO  8  41   8  42  14  43  14  44  14  45  14  46  14  47  14  48  14
M  END
>  <minimizedAffinity>  (1) 
-3.61315036

>  <minimizedRMSD>  (1) 
5.96458435

$$$$
