
     RDKit          3D

 42 44  0  0  1  0  0  0  0  0999 V2000
   38.5960   23.0760   35.9370 C   0  0  2  0  0  0  0  0  0  0  0  0
   37.6030   21.9690   35.7690 C   0  0  0  0  0  0  0  0  0  0  0  0
   37.1050   21.7540   34.3830 C   0  0  0  0  0  0  0  0  0  0  0  0
   35.8830   20.8460   34.6380 C   0  0  0  0  0  0  0  0  0  0  0  0
   35.7000   20.7750   36.1340 C   0  0  0  0  0  0  0  0  0  0  0  0
   36.3220   22.1290   36.5310 C   0  0  0  0  0  0  0  0  0  0  0  0
   41.6670   21.4590   37.4530 C   0  0  0  0  0  0  0  0  0  0  0  0
   40.4170   22.0820   37.3450 C   0  0  0  0  0  0  0  0  0  0  0  0
   39.9100   22.4170   36.0970 C   0  0  0  0  0  0  0  0  0  0  0  0
   40.7220   22.0910   35.0310 N   0  0  0  0  0  0  0  0  0  0  0  0
   41.9090   21.4980   35.1490 C   0  0  0  0  0  0  0  0  0  0  0  0
   42.3820   21.1810   36.3700 N   0  0  0  0  0  0  0  0  0  0  0  0
   38.2160   23.8080   37.2650 C   0  0  0  0  0  0  0  0  0  0  0  0
   38.6170   24.1170   34.9070 C   0  0  0  0  0  0  0  0  0  0  0  0
   37.9660   25.6640   35.6370 S   0  0  0  0  0  0  0  0  0  0  0  0
   37.1880   26.5900   34.3160 C   0  0  0  0  0  0  0  0  0  0  0  0
   36.7430   27.8690   34.5950 C   0  0  0  0  0  0  0  0  0  0  0  0
   36.1460   28.5730   33.5730 C   0  0  0  0  0  0  0  0  0  0  0  0
   35.9600   28.1030   32.3040 C   0  0  0  0  0  0  0  0  0  0  0  0
   36.4280   26.8140   32.0960 C   0  0  0  0  0  0  0  0  0  0  0  0
   37.0160   26.0970   33.0690 N   0  0  0  0  0  0  0  0  0  0  0  0
   38.2245   21.1390   36.1363 H   0  0  0  0  0  0  0  0  0  0  0  0
   37.8575   21.2504   33.7583 H   0  0  0  0  0  0  0  0  0  0  0  0
   36.8715   22.6813   33.8394 H   0  0  0  0  0  0  0  0  0  0  0  0
   34.9867   21.2753   34.1664 H   0  0  0  0  0  0  0  0  0  0  0  0
   36.0383   19.8444   34.2105 H   0  0  0  0  0  0  0  0  0  0  0  0
   34.6383   20.7130   36.4151 H   0  0  0  0  0  0  0  0  0  0  0  0
   36.1465   19.8944   36.6190 H   0  0  0  0  0  0  0  0  0  0  0  0
   36.4849   22.2159   37.6154 H   0  0  0  0  0  0  0  0  0  0  0  0
   35.7271   23.0281   36.3126 H   0  0  0  0  0  0  0  0  0  0  0  0
   42.0603   21.1973   38.4464 H   0  0  0  0  0  0  0  0  0  0  0  0
   39.8357   22.3063   38.2515 H   0  0  0  0  0  0  0  0  0  0  0  0
   42.5017   21.2676   34.2514 H   0  0  0  0  0  0  0  0  0  0  0  0
   38.5328   23.1978   38.1236 H   0  0  0  0  0  0  0  0  0  0  0  0
   38.7210   24.7845   37.3029 H   0  0  0  0  0  0  0  0  0  0  0  0
   37.1268   23.9568   37.3029 H   0  0  0  0  0  0  0  0  0  0  0  0
   39.6486   24.2754   34.5597 H   0  0  0  0  0  0  0  0  0  0  0  0
   37.9980   23.8135   34.0498 H   0  0  0  0  0  0  0  0  0  0  0  0
   36.8615   28.3081   35.5966 H   0  0  0  0  0  0  0  0  0  0  0  0
   35.7922   29.5906   33.7954 H   0  0  0  0  0  0  0  0  0  0  0  0
   35.4792   28.6972   31.5130 H   0  0  0  0  0  0  0  0  0  0  0  0
   36.3139   26.3625   31.0994 H   0  0  0  0  0  0  0  0  0  0  0  0
  1 14  1  6
  1  9  1  0
  1 13  1  0
  2  1  1  0
  2  6  1  0
  3  4  1  0
  3  2  1  0
  4  5  1  0
  5  6  1  0
  8  7  2  0
  9  8  1  0
 10 11  1  0
 10  9  2  0
 11 12  2  0
 12  7  1  0
 14 15  1  0
 16 17  2  0
 16 15  1  0
 18 17  1  0
 19 18  2  0
 20 19  1  0
 20 21  2  0
 21 16  1  0
  2 22  1  0
  3 23  1  0
  3 24  1  0
  4 25  1  0
  4 26  1  0
  5 27  1  0
  5 28  1  0
  6 29  1  0
  6 30  1  0
  7 31  1  0
  8 32  1  0
 11 33  1  0
 13 34  1  0
 13 35  1  0
 13 36  1  0
 14 37  1  0
 14 38  1  0
 17 39  1  0
 18 40  1  0
 19 41  1  0
 20 42  1  0
M  ISO  8  22  13  23  13  24  13  25  13  26  13  27  13  28  13  29  13
M  ISO  8  30  13  31  14  32  14  33  14  34   8  35   8  36   8  37   8
M  ISO  5  38   8  39  14  40  14  41  14  42  14
M  END
>  <minimizedAffinity>  (1) 
-4.90326166

>  <minimizedRMSD>  (1) 
1.05690837

$$$$
