
     RDKit          3D

 26 27  0  0  1  0  0  0  0  0999 V2000
   38.8860   25.2840   34.6630 C   0  0  1  0  0  0  0  0  0  0  0  0
   37.5370   25.7450   34.2490 C   0  0  0  0  0  0  0  0  0  0  0  0
   37.8070   26.9250   33.3420 C   0  0  0  0  0  0  0  0  0  0  0  0
   39.2450   27.2740   33.4870 C   0  0  0  0  0  0  0  0  0  0  0  0
   39.7040   26.5350   34.7400 C   0  0  2  0  0  0  0  0  0  0  0  0
   39.6910   22.8080   37.2730 C   0  0  0  0  0  0  0  0  0  0  0  0
   38.8610   23.2260   38.3590 C   0  0  0  0  0  0  0  0  0  0  0  0
   38.0280   24.3500   38.1950 C   0  0  0  0  0  0  0  0  0  0  0  0
   38.0700   24.9760   36.9860 N   0  0  0  0  0  0  0  0  0  0  0  0
   38.8750   24.5470   35.9730 C   0  0  0  0  0  0  0  0  0  0  0  0
   39.6700   23.4790   36.1220 N   0  0  0  0  0  0  0  0  0  0  0  0
   41.1550   26.1930   34.4760 C   0  0  0  0  0  0  0  0  0  0  0  0
   41.2730   25.3040   33.4130 F   0  0  0  0  0  0  0  0  0  0  0  0
   41.8270   27.3510   34.0230 F   0  0  0  0  0  0  0  0  0  0  0  0
   41.7920   25.7590   35.6120 F   0  0  0  0  0  0  0  0  0  0  0  0
   39.2962   24.5557   33.9480 H   0  0  0  0  0  0  0  0  0  0  0  0
   37.0033   24.9507   33.7065 H   0  0  0  0  0  0  0  0  0  0  0  0
   36.9023   26.0112   35.1071 H   0  0  0  0  0  0  0  0  0  0  0  0
   37.1805   27.7791   33.6388 H   0  0  0  0  0  0  0  0  0  0  0  0
   37.5702   26.6754   32.2972 H   0  0  0  0  0  0  0  0  0  0  0  0
   39.8153   26.9377   32.6086 H   0  0  0  0  0  0  0  0  0  0  0  0
   39.4016   28.3599   33.5661 H   0  0  0  0  0  0  0  0  0  0  0  0
   39.6024   27.0638   35.6992 H   0  0  0  0  0  0  0  0  0  0  0  0
   40.3470   21.9325   37.3874 H   0  0  0  0  0  0  0  0  0  0  0  0
   38.8726   22.6763   39.3118 H   0  0  0  0  0  0  0  0  0  0  0  0
   37.3743   24.7055   39.0052 H   0  0  0  0  0  0  0  0  0  0  0  0
  1  5  1  0
  1 10  1  0
  2  1  1  0
  3  4  1  0
  3  2  1  0
  4  5  1  0
  6  7  2  0
  8  7  1  0
  9  8  2  0
 10 11  2  0
 10  9  1  0
 11  6  1  0
 12  5  1  0
 12 15  1  0
 13 12  1  0
 14 12  1  0
  1 16  1  6
  2 17  1  0
  2 18  1  0
  3 19  1  0
  3 20  1  0
  4 21  1  0
  4 22  1  0
  5 23  1  1
  6 24  1  0
  7 25  1  0
  8 26  1  0
M  ISO  8  16  13  17  13  18  13  19  13  20  13  21  13  22  13  23  13
M  ISO  3  24  14  25  14  26  14
M  END
>  <minimizedAffinity>  (1) 
-4.06547785

>  <minimizedRMSD>  (1) 
0.687743843

$$$$
