
     RDKit          3D

 24 25  0  0  1  0  0  0  0  0999 V2000
   37.8870   25.2610   34.6190 C   0  0  1  0  0  0  0  0  0  0  0  0
   37.1460   26.4990   34.9030 C   0  0  0  0  0  0  0  0  0  0  0  0
   37.4270   27.4030   33.7210 C   0  0  0  0  0  0  0  0  0  0  0  0
   38.4850   26.7360   32.8920 C   0  0  0  0  0  0  0  0  0  0  0  0
   39.1160   25.7420   33.8570 C   0  0  1  0  0  0  0  0  0  0  0  0
   39.5450   22.8470   36.8580 C   0  0  0  0  0  0  0  0  0  0  0  0
   39.0220   23.1940   38.1440 C   0  0  0  0  0  0  0  0  0  0  0  0
   38.1000   24.2560   38.2190 C   0  0  0  0  0  0  0  0  0  0  0  0
   37.7750   24.8780   37.0520 N   0  0  0  0  0  0  0  0  0  0  0  0
   38.2870   24.5220   35.8610 C   0  0  0  0  0  0  0  0  0  0  0  0
   39.1750   23.5030   35.7690 N   0  0  0  0  0  0  0  0  0  0  0  0
   40.2760   26.5900   34.9170 S   0  0  0  0  0  0  0  0  0  0  0  0
   37.2723   24.5432   34.0560 H   0  0  0  0  0  0  0  0  0  0  0  0
   36.0684   26.2944   34.9858 H   0  0  0  0  0  0  0  0  0  0  0  0
   37.4536   26.9558   35.8552 H   0  0  0  0  0  0  0  0  0  0  0  0
   36.5123   27.5395   33.1254 H   0  0  0  0  0  0  0  0  0  0  0  0
   37.7640   28.3939   34.0595 H   0  0  0  0  0  0  0  0  0  0  0  0
   38.0406   26.2186   32.0289 H   0  0  0  0  0  0  0  0  0  0  0  0
   39.2120   27.4464   32.4715 H   0  0  0  0  0  0  0  0  0  0  0  0
   39.6903   24.9255   33.3949 H   0  0  0  0  0  0  0  0  0  0  0  0
   40.2667   22.0212   36.7727 H   0  0  0  0  0  0  0  0  0  0  0  0
   39.3309   22.6475   39.0472 H   0  0  0  0  0  0  0  0  0  0  0  0
   37.6617   24.5692   39.1780 H   0  0  0  0  0  0  0  0  0  0  0  0
   39.9537   26.3544   36.2275 H   0  0  0  0  0  0  0  0  0  0  0  0
  1  2  1  0
  1 10  1  0
  3  2  1  0
  4  3  1  0
  4  5  1  0
  5  1  1  0
  5 12  1  0
  6  7  2  0
  7  8  1  0
  9  8  2  0
 10  9  1  0
 11 10  2  0
 11  6  1  0
  1 13  1  6
  2 14  1  0
  2 15  1  0
  3 16  1  0
  3 17  1  0
  4 18  1  0
  4 19  1  0
  5 20  1  6
  6 21  1  0
  7 22  1  0
  8 23  1  0
 12 24  1  0
M  ISO  8  13  13  14  13  15  13  16  13  17  13  18  13  19  13  20  13
M  ISO  4  21  14  22  14  23  14  24  11
M  END
>  <minimizedAffinity>  (1) 
-3.69636774

>  <minimizedRMSD>  (1) 
0.853218615

$$$$
