
     RDKit          3D

 45 47  0  0  1  0  0  0  0  0999 V2000
   38.3640   22.5950   34.4530 C   0  0  1  0  0  0  0  0  0  0  0  0
   37.2450   21.6950   34.1830 C   0  0  0  0  0  0  0  0  0  0  0  0
   36.7940   22.0560   32.7840 C   0  0  0  0  0  0  0  0  0  0  0  0
   37.4560   23.3680   32.4300 C   0  0  0  0  0  0  0  0  0  0  0  0
   37.9770   23.8920   33.7440 C   0  0  2  0  0  0  0  0  0  0  0  0
   39.1510   24.7890   33.5520 C   0  0  1  0  0  0  0  0  0  0  0  0
   39.8080   24.7660   32.2270 C   0  0  0  0  0  0  0  0  0  0  0  0
   41.0650   25.6560   32.3850 C   0  0  0  0  0  0  0  0  0  0  0  0
   40.6350   27.0850   32.4520 C   0  0  0  0  0  0  0  0  0  0  0  0
   39.1940   27.1900   32.8260 C   0  0  0  0  0  0  0  0  0  0  0  0
   38.7490   26.2070   33.8600 C   0  0  2  0  0  0  0  0  0  0  0  0
   39.4070   26.6080   35.1720 C   0  0  0  0  0  0  0  0  0  0  0  0
   38.4150   27.0550   36.1920 C   0  0  0  0  0  0  0  0  0  0  0  0
   39.9550   22.7250   37.7770 C   0  0  0  0  0  0  0  0  0  0  0  0
   38.9510   23.3620   38.5800 C   0  0  0  0  0  0  0  0  0  0  0  0
   37.7400   23.7410   37.9790 C   0  0  0  0  0  0  0  0  0  0  0  0
   37.6110   23.4670   36.6480 N   0  0  0  0  0  0  0  0  0  0  0  0
   38.5810   22.8630   35.9230 C   0  0  0  0  0  0  0  0  0  0  0  0
   39.7440   22.4990   36.4960 N   0  0  0  0  0  0  0  0  0  0  0  0
   39.3081   22.1524   34.1027 H   0  0  0  0  0  0  0  0  0  0  0  0
   37.5714   20.6455   34.2271 H   0  0  0  0  0  0  0  0  0  0  0  0
   36.4371   21.8003   34.9221 H   0  0  0  0  0  0  0  0  0  0  0  0
   37.1021   21.2740   32.0744 H   0  0  0  0  0  0  0  0  0  0  0  0
   35.6986   22.1438   32.7355 H   0  0  0  0  0  0  0  0  0  0  0  0
   38.2809   23.2086   31.7200 H   0  0  0  0  0  0  0  0  0  0  0  0
   36.7622   24.0699   31.9443 H   0  0  0  0  0  0  0  0  0  0  0  0
   37.2556   24.5084   34.3004 H   0  0  0  0  0  0  0  0  0  0  0  0
   39.9048   24.3890   34.2461 H   0  0  0  0  0  0  0  0  0  0  0  0
   39.1385   25.1764   31.4567 H   0  0  0  0  0  0  0  0  0  0  0  0
   40.0636   23.7438   31.9112 H   0  0  0  0  0  0  0  0  0  0  0  0
   41.5961   25.3856   33.3095 H   0  0  0  0  0  0  0  0  0  0  0  0
   41.7394   25.5074   31.5288 H   0  0  0  0  0  0  0  0  0  0  0  0
   41.2418   27.6089   33.2053 H   0  0  0  0  0  0  0  0  0  0  0  0
   40.7753   27.5413   31.4610 H   0  0  0  0  0  0  0  0  0  0  0  0
   39.0128   28.2030   33.2145 H   0  0  0  0  0  0  0  0  0  0  0  0
   38.6175   26.9690   31.9156 H   0  0  0  0  0  0  0  0  0  0  0  0
   37.6499   26.2295   33.8976 H   0  0  0  0  0  0  0  0  0  0  0  0
   39.9576   25.7429   35.5700 H   0  0  0  0  0  0  0  0  0  0  0  0
   40.0797   27.4534   34.9653 H   0  0  0  0  0  0  0  0  0  0  0  0
   38.8178   26.8735   37.1994 H   0  0  0  0  0  0  0  0  0  0  0  0
   38.2168   28.1294   36.0645 H   0  0  0  0  0  0  0  0  0  0  0  0
   37.4788   26.4917   36.0645 H   0  0  0  0  0  0  0  0  0  0  0  0
   40.9087   22.4228   38.2344 H   0  0  0  0  0  0  0  0  0  0  0  0
   39.1272   23.5504   39.6493 H   0  0  0  0  0  0  0  0  0  0  0  0
   36.9384   24.2323   38.5500 H   0  0  0  0  0  0  0  0  0  0  0  0
  1 18  1  0
  2  1  1  0
  3  2  1  0
  4  3  1  0
  4  5  1  0
  5  1  1  0
  6  5  1  0
  6 11  1  0
  7  8  1  0
  7  6  1  0
  8  9  1  0
  9 10  1  0
 10 11  1  0
 11 12  1  0
 12 13  1  0
 14 15  2  0
 16 15  1  0
 17 16  2  0
 18 19  2  0
 18 17  1  0
 19 14  1  0
  1 20  1  6
  2 21  1  0
  2 22  1  0
  3 23  1  0
  3 24  1  0
  4 25  1  0
  4 26  1  0
  5 27  1  1
  6 28  1  1
  7 29  1  0
  7 30  1  0
  8 31  1  0
  8 32  1  0
  9 33  1  0
  9 34  1  0
 10 35  1  0
 10 36  1  0
 11 37  1  1
 12 38  1  0
 12 39  1  0
 13 40  1  0
 13 41  1  0
 13 42  1  0
 14 43  1  0
 15 44  1  0
 16 45  1  0
M  ISO  8  20  13  21  13  22  13  23  13  24  13  25  13  26  13  27  13
M  ISO  8  28  13  29  13  30  13  31  13  32  13  33  13  34  13  35  13
M  ISO  8  36  13  37  13  38   8  39   8  40   8  41   8  42   8  43  14
M  ISO  2  44  14  45  14
M  END
>  <minimizedAffinity>  (1) 
-4.9332552

>  <minimizedRMSD>  (1) 
2.36059046

$$$$
