
     RDKit          3D

 42 44  0  0  1  0  0  0  0  0999 V2000
   38.3670   22.6080   34.4910 C   0  0  1  0  0  0  0  0  0  0  0  0
   37.2570   21.6970   34.2270 C   0  0  0  0  0  0  0  0  0  0  0  0
   36.7900   22.0610   32.8390 C   0  0  0  0  0  0  0  0  0  0  0  0
   37.4270   23.3920   32.4860 C   0  0  0  0  0  0  0  0  0  0  0  0
   37.9530   23.9080   33.8060 C   0  0  2  0  0  0  0  0  0  0  0  0
   39.1120   24.8230   33.6050 C   0  0  1  0  0  0  0  0  0  0  0  0
   39.7600   24.8110   32.2740 C   0  0  0  0  0  0  0  0  0  0  0  0
   41.0090   25.7120   32.4260 C   0  0  0  0  0  0  0  0  0  0  0  0
   40.5640   27.1340   32.5020 C   0  0  0  0  0  0  0  0  0  0  0  0
   39.1100   27.2140   32.8620 C   0  0  0  0  0  0  0  0  0  0  0  0
   38.6990   26.2330   33.9250 C   0  0  2  0  0  0  0  0  0  0  0  0
   39.4380   26.6580   35.1890 C   0  0  0  0  0  0  0  0  0  0  0  0
   39.9970   22.7070   37.7990 C   0  0  0  0  0  0  0  0  0  0  0  0
   38.9970   23.3380   38.6210 C   0  0  0  0  0  0  0  0  0  0  0  0
   37.7690   23.7240   38.0310 C   0  0  0  0  0  0  0  0  0  0  0  0
   37.6360   23.4580   36.7020 N   0  0  0  0  0  0  0  0  0  0  0  0
   38.5960   22.8630   35.9570 C   0  0  0  0  0  0  0  0  0  0  0  0
   39.7560   22.5010   36.5240 N   0  0  0  0  0  0  0  0  0  0  0  0
   39.3113   22.1817   34.1214 H   0  0  0  0  0  0  0  0  0  0  0  0
   37.5961   20.6511   34.2611 H   0  0  0  0  0  0  0  0  0  0  0  0
   36.4553   21.7874   34.9747 H   0  0  0  0  0  0  0  0  0  0  0  0
   37.1056   21.2899   32.1208 H   0  0  0  0  0  0  0  0  0  0  0  0
   35.6929   22.1311   32.8020 H   0  0  0  0  0  0  0  0  0  0  0  0
   38.2467   23.2542   31.7656 H   0  0  0  0  0  0  0  0  0  0  0  0
   36.7188   24.0874   32.0118 H   0  0  0  0  0  0  0  0  0  0  0  0
   37.2306   24.5046   34.3824 H   0  0  0  0  0  0  0  0  0  0  0  0
   39.8768   24.4303   34.2911 H   0  0  0  0  0  0  0  0  0  0  0  0
   39.0810   25.2178   31.5101 H   0  0  0  0  0  0  0  0  0  0  0  0
   40.0230   23.7924   31.9527 H   0  0  0  0  0  0  0  0  0  0  0  0
   41.5500   25.4434   33.3453 H   0  0  0  0  0  0  0  0  0  0  0  0
   41.6792   25.5736   31.5648 H   0  0  0  0  0  0  0  0  0  0  0  0
   41.1553   27.6573   33.2678 H   0  0  0  0  0  0  0  0  0  0  0  0
   40.7122   27.6049   31.5190 H   0  0  0  0  0  0  0  0  0  0  0  0
   38.8969   28.2302   33.2253 H   0  0  0  0  0  0  0  0  0  0  0  0
   38.5387   26.9659   31.9553 H   0  0  0  0  0  0  0  0  0  0  0  0
   37.6032   26.2400   34.0212 H   0  0  0  0  0  0  0  0  0  0  0  0
   38.8704   26.3316   36.0729 H   0  0  0  0  0  0  0  0  0  0  0  0
   40.4362   26.1960   35.2030 H   0  0  0  0  0  0  0  0  0  0  0  0
   39.5406   27.7531   35.2030 H   0  0  0  0  0  0  0  0  0  0  0  0
   40.9581   22.3989   38.2365 H   0  0  0  0  0  0  0  0  0  0  0  0
   39.1841   23.5173   39.6900 H   0  0  0  0  0  0  0  0  0  0  0  0
   36.9705   24.2095   38.6112 H   0  0  0  0  0  0  0  0  0  0  0  0
  1 17  1  0
  2  1  1  0
  3  2  1  0
  4  3  1  0
  4  5  1  0
  5  1  1  0
  6  5  1  0
  6 11  1  0
  7  8  1  0
  7  6  1  0
  8  9  1  0
  9 10  1  0
 10 11  1  0
 11 12  1  0
 13 14  2  0
 15 14  1  0
 16 15  2  0
 17 18  2  0
 17 16  1  0
 18 13  1  0
  1 19  1  6
  2 20  1  0
  2 21  1  0
  3 22  1  0
  3 23  1  0
  4 24  1  0
  4 25  1  0
  5 26  1  1
  6 27  1  1
  7 28  1  0
  7 29  1  0
  8 30  1  0
  8 31  1  0
  9 32  1  0
  9 33  1  0
 10 34  1  0
 10 35  1  0
 11 36  1  1
 12 37  1  0
 12 38  1  0
 12 39  1  0
 13 40  1  0
 14 41  1  0
 15 42  1  0
M  ISO  8  19  13  20  13  21  13  22  13  23  13  24  13  25  13  26  13
M  ISO  8  27  13  28  13  29  13  30  13  31  13  32  13  33  13  34  13
M  ISO  8  35  13  36  13  37   8  38   8  39   8  40  14  41  14  42  14
M  END
>  <minimizedAffinity>  (1) 
-4.67089558

>  <minimizedRMSD>  (1) 
2.37340355

$$$$
