
     RDKit          3D

 41 43  0  0  1  0  0  0  0  0999 V2000
   39.2560   23.7900   34.3650 C   0  0  1  0  0  0  0  0  0  0  0  0
   37.9880   23.8000   33.6410 C   0  0  0  0  0  0  0  0  0  0  0  0
   38.2910   24.5490   32.3540 C   0  0  0  0  0  0  0  0  0  0  0  0
   39.6510   25.1880   32.5240 C   0  0  0  0  0  0  0  0  0  0  0  0
   39.9050   25.1250   34.0100 C   0  0  2  0  0  0  0  0  0  0  0  0
   41.3650   25.1280   34.3130 C   0  0  1  0  0  0  0  0  0  0  0  0
   42.0960   23.8560   34.1310 C   0  0  0  0  0  0  0  0  0  0  0  0
   43.5180   24.1260   34.6750 C   0  0  0  0  0  0  0  0  0  0  0  0
   44.2410   25.0220   33.7110 C   0  0  0  0  0  0  0  0  0  0  0  0
   43.2900   25.7140   32.8130 C   0  0  0  0  0  0  0  0  0  0  0  0
   42.0400   26.1990   33.5000 C   0  0  2  0  0  0  0  0  0  0  0  0
   42.4220   27.2870   34.3970 N   0  0  0  0  0  0  0  0  0  0  0  0
   39.7420   22.7450   37.8720 C   0  0  0  0  0  0  0  0  0  0  0  0
   38.7700   23.5380   38.5770 C   0  0  0  0  0  0  0  0  0  0  0  0
   37.9540   24.4280   37.8340 C   0  0  0  0  0  0  0  0  0  0  0  0
   38.1580   24.4620   36.4920 N   0  0  0  0  0  0  0  0  0  0  0  0
   39.0810   23.7020   35.8580 C   0  0  0  0  0  0  0  0  0  0  0  0
   39.8690   22.8460   36.5610 N   0  0  0  0  0  0  0  0  0  0  0  0
   39.8538   22.9104   34.0839 H   0  0  0  0  0  0  0  0  0  0  0  0
   37.6556   22.7740   33.4248 H   0  0  0  0  0  0  0  0  0  0  0  0
   37.1798   24.2716   34.2192 H   0  0  0  0  0  0  0  0  0  0  0  0
   37.5292   25.3230   32.1790 H   0  0  0  0  0  0  0  0  0  0  0  0
   38.2830   23.8664   31.4914 H   0  0  0  0  0  0  0  0  0  0  0  0
   40.4185   24.6250   31.9726 H   0  0  0  0  0  0  0  0  0  0  0  0
   39.6861   26.2157   32.1332 H   0  0  0  0  0  0  0  0  0  0  0  0
   39.5079   25.9808   34.5755 H   0  0  0  0  0  0  0  0  0  0  0  0
   41.4100   25.3162   35.3959 H   0  0  0  0  0  0  0  0  0  0  0  0
   41.6122   23.0480   34.6995 H   0  0  0  0  0  0  0  0  0  0  0  0
   42.1115   23.5370   33.0784 H   0  0  0  0  0  0  0  0  0  0  0  0
   43.4514   24.6165   35.6573 H   0  0  0  0  0  0  0  0  0  0  0  0
   44.0632   23.1770   34.7852 H   0  0  0  0  0  0  0  0  0  0  0  0
   44.8121   25.7726   34.2770 H   0  0  0  0  0  0  0  0  0  0  0  0
   44.9152   24.4054   33.0984 H   0  0  0  0  0  0  0  0  0  0  0  0
   42.9973   25.0157   32.0151 H   0  0  0  0  0  0  0  0  0  0  0  0
   43.8073   26.6051   32.4277 H   0  0  0  0  0  0  0  0  0  0  0  0
   41.3275   26.5195   32.7256 H   0  0  0  0  0  0  0  0  0  0  0  0
   42.3142   26.9801   35.3743 H   0  0  0  0  0  0  0  0  0  0  0  0
   43.4040   27.5454   34.2246 H   0  0  0  0  0  0  0  0  0  0  0  0
   40.3851   22.0484   38.4298 H   0  0  0  0  0  0  0  0  0  0  0  0
   38.6624   23.4555   39.6686 H   0  0  0  0  0  0  0  0  0  0  0  0
   37.1947   25.0585   38.3197 H   0  0  0  0  0  0  0  0  0  0  0  0
  1 17  1  0
  2  1  1  0
  3  4  1  0
  3  2  1  0
  4  5  1  0
  5  6  1  0
  5  1  1  0
  7  6  1  0
  7  8  1  0
  9  8  1  0
 10 11  1  0
 10  9  1  0
 11  6  1  0
 11 12  1  0
 13 14  2  0
 15 14  1  0
 16 15  2  0
 17 16  1  0
 17 18  2  0
 18 13  1  0
  1 19  1  6
  2 20  1  0
  2 21  1  0
  3 22  1  0
  3 23  1  0
  4 24  1  0
  4 25  1  0
  5 26  1  1
  6 27  1  1
  7 28  1  0
  7 29  1  0
  8 30  1  0
  8 31  1  0
  9 32  1  0
  9 33  1  0
 10 34  1  0
 10 35  1  0
 11 36  1  6
 12 37  1  0
 12 38  1  0
 13 39  1  0
 14 40  1  0
 15 41  1  0
M  ISO  8  19  13  20  13  21  13  22  13  23  13  24  13  25  13  26  13
M  ISO  8  27  13  28  13  29  13  30  13  31  13  32  13  33  13  34  13
M  ISO  7  35  13  36  13  37   5  38   5  39  14  40  14  41  14
M  END
>  <minimizedAffinity>  (1) 
-4.05467701

>  <minimizedRMSD>  (1) 
0.99018997

$$$$
