
     RDKit          3D

 20 21  0  0  0  0  0  0  0  0999 V2000
   38.2080   23.7610   38.2710 C   0  0  0  0  0  0  0  0  0  0  0  0
   37.8320   24.4810   37.1210 C   0  0  0  0  0  0  0  0  0  0  0  0
   38.6510   24.3760   36.0110 C   0  0  0  0  0  0  0  0  0  0  0  0
   39.7540   23.6010   36.0780 N   0  0  0  0  0  0  0  0  0  0  0  0
   40.0890   22.9230   37.1870 C   0  0  0  0  0  0  0  0  0  0  0  0
   39.3120   23.0000   38.2960 N   0  0  0  0  0  0  0  0  0  0  0  0
   38.3340   25.0820   34.7970 N   0  0  0  0  0  0  0  0  0  0  0  0
   38.6130   26.4080   34.8050 C   0  0  0  0  0  0  0  0  0  0  0  0
   38.2470   26.9130   33.5730 C   0  0  0  0  0  0  0  0  0  0  0  0
   37.7560   25.8840   32.8480 N   0  0  0  0  0  0  0  0  0  0  0  0
   37.8050   24.7540   33.5890 C   0  0  0  0  0  0  0  0  0  0  0  0
   41.3500   22.1340   37.0200 C   0  0  0  0  0  0  0  0  0  0  0  0
   41.3250   21.4380   35.8110 F   0  0  0  0  0  0  0  0  0  0  0  0
   41.5030   21.2170   38.0400 F   0  0  0  0  0  0  0  0  0  0  0  0
   42.4360   22.9840   37.0650 F   0  0  0  0  0  0  0  0  0  0  0  0
   37.5802   23.8243   39.1720 H   0  0  0  0  0  0  0  0  0  0  0  0
   36.9240   25.1017   37.1057 H   0  0  0  0  0  0  0  0  0  0  0  0
   39.0502   26.9769   35.6388 H   0  0  0  0  0  0  0  0  0  0  0  0
   38.3382   27.9584   33.2432 H   0  0  0  0  0  0  0  0  0  0  0  0
   37.4769   23.7530   33.2722 H   0  0  0  0  0  0  0  0  0  0  0  0
  1  6  2  0
  2  1  1  0
  3  4  1  0
  3  2  2  0
  4  5  2  0
  5  6  1  0
  7  8  1  0
  7  3  1  0
  9  8  2  0
 10  9  1  0
 10 11  2  0
 11  7  1  0
 12 15  1  0
 12  5  1  0
 12 14  1  0
 13 12  1  0
  1 16  1  0
  2 17  1  0
  8 18  1  0
  9 19  1  0
 11 20  1  0
M  ISO  5  16  14  17  14  18  14  19  14  20  14
M  END
>  <minimizedAffinity>  (1) 
-4.36226368

>  <minimizedRMSD>  (1) 
4.61244917

$$$$
