
     RDKit          3D

 26 27  0  0  0  0  0  0  0  0999 V2000
   38.2090   23.8080   38.3230 C   0  0  0  0  0  0  0  0  0  0  0  0
   37.8790   24.6200   37.2250 C   0  0  0  0  0  0  0  0  0  0  0  0
   38.7110   24.5620   36.1170 C   0  0  0  0  0  0  0  0  0  0  0  0
   39.7950   23.7280   36.1510 N   0  0  0  0  0  0  0  0  0  0  0  0
   40.0740   22.9730   37.2150 C   0  0  0  0  0  0  0  0  0  0  0  0
   39.2860   22.9970   38.3250 N   0  0  0  0  0  0  0  0  0  0  0  0
   38.4190   25.3930   34.9260 C   0  0  0  0  0  0  0  0  0  0  0  0
   37.3220   26.4140   35.2070 C   0  0  0  0  0  0  0  0  0  0  0  0
   37.3680   27.1920   33.8900 C   0  0  0  0  0  0  0  0  0  0  0  0
   38.8390   27.1670   33.4770 C   0  0  0  0  0  0  0  0  0  0  0  0
   39.5310   26.3170   34.5250 C   0  0  0  0  0  0  0  0  0  0  0  0
   41.3040   22.1450   37.0230 C   0  0  0  0  0  0  0  0  0  0  0  0
   41.2310   21.4500   35.8140 F   0  0  0  0  0  0  0  0  0  0  0  0
   41.4580   21.2230   38.0310 F   0  0  0  0  0  0  0  0  0  0  0  0
   42.4150   22.9710   37.0240 F   0  0  0  0  0  0  0  0  0  0  0  0
   37.5647   23.8349   39.2142 H   0  0  0  0  0  0  0  0  0  0  0  0
   36.9959   25.2756   37.2434 H   0  0  0  0  0  0  0  0  0  0  0  0
   38.1888   24.6306   34.1672 H   0  0  0  0  0  0  0  0  0  0  0  0
   36.3451   25.9347   35.3679 H   0  0  0  0  0  0  0  0  0  0  0  0
   37.4621   27.0177   36.1158 H   0  0  0  0  0  0  0  0  0  0  0  0
   36.7427   26.7031   33.1284 H   0  0  0  0  0  0  0  0  0  0  0  0
   36.9830   28.2168   33.9979 H   0  0  0  0  0  0  0  0  0  0  0  0
   38.9521   26.7175   32.4794 H   0  0  0  0  0  0  0  0  0  0  0  0
   39.2674   28.1785   33.4192 H   0  0  0  0  0  0  0  0  0  0  0  0
   40.3815   25.7643   34.0994 H   0  0  0  0  0  0  0  0  0  0  0  0
   39.9665   26.8895   35.3572 H   0  0  0  0  0  0  0  0  0  0  0  0
  1  6  2  0
  2  1  1  0
  3  4  1  0
  3  2  2  0
  4  5  2  0
  5  6  1  0
  7  8  1  0
  7  3  1  0
  9  8  1  0
 10  9  1  0
 10 11  1  0
 11  7  1  0
 12 15  1  0
 12  5  1  0
 12 14  1  0
 13 12  1  0
  1 16  1  0
  2 17  1  0
  7 18  1  0
  8 19  1  0
  8 20  1  0
  9 21  1  0
  9 22  1  0
 10 23  1  0
 10 24  1  0
 11 25  1  0
 11 26  1  0
M  ISO  8  16  14  17  14  18  13  19  13  20  13  21  13  22  13  23  13
M  ISO  3  24  13  25  13  26  13
M  END
>  <minimizedAffinity>  (1) 
-4.54572821

>  <minimizedRMSD>  (1) 
4.79800177

$$$$
