
     RDKit          3D

 23 24  0  0  0  0  0  0  0  0999 V2000
   38.5840   23.4540   38.1930 C   0  0  0  0  0  0  0  0  0  0  0  0
   37.9370   23.6300   36.9610 C   0  0  0  0  0  0  0  0  0  0  0  0
   38.5740   23.1840   35.8150 C   0  0  0  0  0  0  0  0  0  0  0  0
   39.7840   22.6020   35.9460 N   0  0  0  0  0  0  0  0  0  0  0  0
   40.3920   22.4400   37.1460 C   0  0  0  0  0  0  0  0  0  0  0  0
   39.7850   22.8700   38.2720 N   0  0  0  0  0  0  0  0  0  0  0  0
   38.0000   23.3130   34.4790 C   0  0  0  0  0  0  0  0  0  0  0  0
   37.4710   22.1730   33.9130 C   0  0  0  0  0  0  0  0  0  0  0  0
   36.8950   22.1650   32.6410 C   0  0  0  0  0  0  0  0  0  0  0  0
   36.8650   23.3710   31.9350 C   0  0  0  0  0  0  0  0  0  0  0  0
   37.4050   24.4920   32.5400 C   0  0  0  0  0  0  0  0  0  0  0  0
   37.9690   24.4930   33.7870 C   0  0  0  0  0  0  0  0  0  0  0  0
   41.7200   21.7710   37.0280 C   0  0  0  0  0  0  0  0  0  0  0  0
   41.9340   20.8900   38.0930 F   0  0  0  0  0  0  0  0  0  0  0  0
   42.7400   22.6870   36.9950 F   0  0  0  0  0  0  0  0  0  0  0  0
   41.7690   21.0420   35.8380 F   0  0  0  0  0  0  0  0  0  0  0  0
   38.0936   23.8035   39.1135 H   0  0  0  0  0  0  0  0  0  0  0  0
   36.9488   24.1101   36.9064 H   0  0  0  0  0  0  0  0  0  0  0  0
   37.5038   21.2340   34.4850 H   0  0  0  0  0  0  0  0  0  0  0  0
   36.4795   21.2422   32.2098 H   0  0  0  0  0  0  0  0  0  0  0  0
   36.4251   23.4272   30.9283 H   0  0  0  0  0  0  0  0  0  0  0  0
   37.3794   25.4411   31.9844 H   0  0  0  0  0  0  0  0  0  0  0  0
   38.3849   25.4147   34.2199 H   0  0  0  0  0  0  0  0  0  0  0  0
  1  6  2  0
  2  1  1  0
  3  4  1  0
  3  2  2  0
  4  5  2  0
  5  6  1  0
  7  3  1  0
  8  7  2  0
  9  8  1  0
 10 11  1  0
 10  9  2  0
 11 12  2  0
 12  7  1  0
 13  5  1  0
 13 14  1  0
 15 13  1  0
 16 13  1  0
  1 17  1  0
  2 18  1  0
  8 19  1  0
  9 20  1  0
 10 21  1  0
 11 22  1  0
 12 23  1  0
M  ISO  7  17  14  18  14  19  14  20  14  21  14  22  14  23  14
M  END
>  <minimizedAffinity>  (1) 
-4.29567671

>  <minimizedRMSD>  (1) 
5.16103411

$$$$
