
     RDKit          3D

 20 21  0  0  0  0  0  0  0  0999 V2000
   42.7970   21.0660   36.6780 C   0  0  0  0  0  0  0  0  0  0  0  0
   41.4530   21.2830   36.9930 C   0  0  0  0  0  0  0  0  0  0  0  0
   41.0260   22.5980   37.0650 C   0  0  0  0  0  0  0  0  0  0  0  0
   41.9140   23.5870   36.8320 N   0  0  0  0  0  0  0  0  0  0  0  0
   43.1950   23.3520   36.5330 C   0  0  0  0  0  0  0  0  0  0  0  0
   43.6590   22.0760   36.4520 N   0  0  0  0  0  0  0  0  0  0  0  0
   39.6240   22.8960   37.3930 C   0  0  0  0  0  0  0  0  0  0  0  0
   38.6640   23.2300   36.4580 C   0  0  0  0  0  0  0  0  0  0  0  0
   37.5160   23.4310   37.1130 N   0  0  0  0  0  0  0  0  0  0  0  0
   37.8020   23.2140   38.4180 C   0  0  0  0  0  0  0  0  0  0  0  0
   39.0920   22.8840   38.6100 N   0  0  0  0  0  0  0  0  0  0  0  0
   43.9750   24.5950   36.3200 C   0  0  0  0  0  0  0  0  0  0  0  0
   43.2230   25.5400   35.6140 F   0  0  0  0  0  0  0  0  0  0  0  0
   45.1260   24.3530   35.5930 F   0  0  0  0  0  0  0  0  0  0  0  0
   44.3660   25.1200   37.5330 F   0  0  0  0  0  0  0  0  0  0  0  0
   43.1649   20.0314   36.6121 H   0  0  0  0  0  0  0  0  0  0  0  0
   40.7640   20.4452   37.1759 H   0  0  0  0  0  0  0  0  0  0  0  0
   38.8163   23.3152   35.3719 H   0  0  0  0  0  0  0  0  0  0  0  0
   37.0638   23.2979   39.2292 H   0  0  0  0  0  0  0  0  0  0  0  0
   39.5619   22.6700   39.5012 H   0  0  0  0  0  0  0  0  0  0  0  0
  1  2  2  0
  2  3  1  0
  3  7  1  0
  4  3  2  0
  5  4  1  0
  6  5  2  0
  6  1  1  0
  7 11  1  0
  8  9  1  0
  8  7  2  0
  9 10  2  0
 10 11  1  0
 12  5  1  0
 12 15  1  0
 13 12  1  0
 14 12  1  0
  1 16  1  0
  2 17  1  0
  8 18  1  0
 10 19  1  0
 11 20  1  0
M  ISO  5  16  14  17  14  18  14  19  14  20   9
M  END
>  <minimizedAffinity>  (1) 
-4.27325964

>  <minimizedRMSD>  (1) 
5.12031555

$$$$
