
     RDKit          3D

 20 21  0  0  0  0  0  0  0  0999 V2000
   38.2340   23.7380   38.5690 C   0  0  0  0  0  0  0  0  0  0  0  0
   37.7350   24.4380   37.4740 C   0  0  0  0  0  0  0  0  0  0  0  0
   38.4360   24.3510   36.2620 C   0  0  0  0  0  0  0  0  0  0  0  0
   39.5620   23.5900   36.2230 N   0  0  0  0  0  0  0  0  0  0  0  0
   40.0140   22.9240   37.3090 C   0  0  0  0  0  0  0  0  0  0  0  0
   39.3430   23.0030   38.4800 N   0  0  0  0  0  0  0  0  0  0  0  0
   37.9830   25.0580   35.0500 C   0  0  0  0  0  0  0  0  0  0  0  0
   37.4770   26.3340   35.0780 C   0  0  0  0  0  0  0  0  0  0  0  0
   37.1720   26.6330   33.7620 C   0  0  0  0  0  0  0  0  0  0  0  0
   37.4860   25.5710   32.9830 N   0  0  0  0  0  0  0  0  0  0  0  0
   37.9730   24.6350   33.7880 N   0  0  0  0  0  0  0  0  0  0  0  0
   41.2580   22.1620   37.0240 C   0  0  0  0  0  0  0  0  0  0  0  0
   41.1950   21.5210   35.8010 F   0  0  0  0  0  0  0  0  0  0  0  0
   41.5100   21.2200   37.9980 F   0  0  0  0  0  0  0  0  0  0  0  0
   42.3410   23.0470   37.0220 F   0  0  0  0  0  0  0  0  0  0  0  0
   37.7011   23.7925   39.5298 H   0  0  0  0  0  0  0  0  0  0  0  0
   36.8188   25.0411   37.5566 H   0  0  0  0  0  0  0  0  0  0  0  0
   37.3428   26.9801   35.9581 H   0  0  0  0  0  0  0  0  0  0  0  0
   36.7432   27.5813   33.4058 H   0  0  0  0  0  0  0  0  0  0  0  0
   37.3693   25.5027   31.9619 H   0  0  0  0  0  0  0  0  0  0  0  0
  2  1  2  0
  3  2  1  0
  4  3  2  0
  4  5  1  0
  5  6  2  0
  6  1  1  0
  7  8  1  0
  7  3  1  0
  9  8  2  0
 10  9  1  0
 10 11  1  0
 11  7  2  0
 12  5  1  0
 12 14  1  0
 13 12  1  0
 15 12  1  0
  1 16  1  0
  2 17  1  0
  8 18  1  0
  9 19  1  0
 10 20  1  0
M  ISO  5  16  14  17  14  18  14  19  14  20   9
M  END
>  <minimizedAffinity>  (1) 
-4.37382507

>  <minimizedRMSD>  (1) 
4.45913124

$$$$
