
     RDKit          3D

 20 21  0  0  0  0  0  0  0  0999 V2000
   41.3080   22.4460   36.8100 C   0  0  0  0  0  0  0  0  0  0  0  0
   41.4450   23.3800   35.7700 C   0  0  0  0  0  0  0  0  0  0  0  0
   40.4050   24.2880   35.5590 C   0  0  0  0  0  0  0  0  0  0  0  0
   39.3170   24.2200   36.3730 N   0  0  0  0  0  0  0  0  0  0  0  0
   39.2170   23.3110   37.3640 C   0  0  0  0  0  0  0  0  0  0  0  0
   40.2220   22.4210   37.5790 N   0  0  0  0  0  0  0  0  0  0  0  0
   40.4720   25.2930   34.4940 C   0  0  0  0  0  0  0  0  0  0  0  0
   40.5490   26.6390   34.7170 C   0  0  0  0  0  0  0  0  0  0  0  0
   40.5930   27.1870   33.4380 C   0  0  0  0  0  0  0  0  0  0  0  0
   40.5410   26.1570   32.5180 C   0  0  0  0  0  0  0  0  0  0  0  0
   40.4700   25.0490   33.2120 O   0  0  0  0  0  0  0  0  0  0  0  0
   37.9460   23.4260   38.1180 C   0  0  0  0  0  0  0  0  0  0  0  0
   37.7830   24.7140   38.6340 F   0  0  0  0  0  0  0  0  0  0  0  0
   37.8940   22.5490   39.1810 F   0  0  0  0  0  0  0  0  0  0  0  0
   36.8810   23.1190   37.2840 F   0  0  0  0  0  0  0  0  0  0  0  0
   42.1145   21.7206   36.9926 H   0  0  0  0  0  0  0  0  0  0  0  0
   42.3461   23.3959   35.1394 H   0  0  0  0  0  0  0  0  0  0  0  0
   40.5711   27.1665   35.6820 H   0  0  0  0  0  0  0  0  0  0  0  0
   40.6582   28.2589   33.1998 H   0  0  0  0  0  0  0  0  0  0  0  0
   40.5562   26.2495   31.4220 H   0  0  0  0  0  0  0  0  0  0  0  0
  1  6  2  0
  2  1  1  0
  3  2  2  0
  3  4  1  0
  4  5  2  0
  5  6  1  0
  5 12  1  0
  7  8  2  0
  7  3  1  0
  9  8  1  0
 10 11  1  0
 10  9  2  0
 11  7  1  0
 12 13  1  0
 12 14  1  0
 15 12  1  0
  1 16  1  0
  2 17  1  0
  8 18  1  0
  9 19  1  0
 10 20  1  0
M  ISO  5  16  14  17  14  18  14  19  14  20  14
M  END
>  <minimizedAffinity>  (1) 
-4.17643166

>  <minimizedRMSD>  (1) 
5.33786058

$$$$
