
     RDKit          3D

 16 16  0  0  0  0  0  0  0  0999 V2000
   38.1480   23.8000   38.4700 C   0  0  0  0  0  0  0  0  0  0  0  0
   37.6960   24.5270   37.3540 C   0  0  0  0  0  0  0  0  0  0  0  0
   38.4540   24.4230   36.2000 C   0  0  0  0  0  0  0  0  0  0  0  0
   39.5650   23.6550   36.1820 N   0  0  0  0  0  0  0  0  0  0  0  0
   39.9660   22.9710   37.2800 C   0  0  0  0  0  0  0  0  0  0  0  0
   39.2530   23.0440   38.4310 N   0  0  0  0  0  0  0  0  0  0  0  0
   41.2080   22.1970   37.0310 C   0  0  0  0  0  0  0  0  0  0  0  0
   41.1540   21.5340   35.8070 F   0  0  0  0  0  0  0  0  0  0  0  0
   41.4310   21.2620   38.0170 F   0  0  0  0  0  0  0  0  0  0  0  0
   42.3040   23.0670   37.0390 F   0  0  0  0  0  0  0  0  0  0  0  0
   38.0130   25.1650   35.0230 C   0  0  0  0  0  0  0  0  0  0  0  0
   37.2660   26.1570   35.2000 O   0  0  0  0  0  0  0  0  0  0  0  0
   38.4000   24.7920   33.7430 O   0  0  0  0  0  0  0  0  0  0  0  0
   37.5743   23.8542   39.4070 H   0  0  0  0  0  0  0  0  0  0  0  0
   36.7876   25.1459   37.3958 H   0  0  0  0  0  0  0  0  0  0  0  0
   38.9898   24.0076   33.6130 H   0  0  0  0  0  0  0  0  0  0  0  0
  2  1  2  0
  3  2  1  0
  4  3  2  0
  4  5  1  0
  5  6  2  0
  6  1  1  0
  7 10  1  0
  7  5  1  0
  7  9  1  0
  8  7  1  0
 11 12  2  0
 11  3  1  0
 13 11  1  0
  1 14  1  0
  2 15  1  0
 13 16  1  0
M  ISO  3  14  14  15  14  16   3
M  END
>  <minimizedAffinity>  (1) 
-3.83303857

>  <minimizedRMSD>  (1) 
3.92169261

$$$$
