
     RDKit          3D

 21 22  0  0  0  0  0  0  0  0999 V2000
   42.5420   20.6690   37.2770 C   0  0  0  0  0  0  0  0  0  0  0  0
   41.4490   21.4730   37.6100 C   0  0  0  0  0  0  0  0  0  0  0  0
   40.7820   22.0880   36.5640 C   0  0  0  0  0  0  0  0  0  0  0  0
   41.2180   21.8830   35.2990 N   0  0  0  0  0  0  0  0  0  0  0  0
   42.2710   21.1060   35.0170 C   0  0  0  0  0  0  0  0  0  0  0  0
   42.9500   20.4850   36.0170 N   0  0  0  0  0  0  0  0  0  0  0  0
   39.6260   22.9430   36.8710 C   0  0  0  0  0  0  0  0  0  0  0  0
   39.2400   23.0630   38.2050 C   0  0  0  0  0  0  0  0  0  0  0  0
   38.1480   23.8870   38.3660 C   0  0  0  0  0  0  0  0  0  0  0  0
   37.5190   24.5090   37.3650 N   0  0  0  0  0  0  0  0  0  0  0  0
   37.9650   24.3360   36.0880 C   0  0  0  0  0  0  0  0  0  0  0  0
   39.0250   23.5460   35.8470 N   0  0  0  0  0  0  0  0  0  0  0  0
   42.5480   21.0400   33.5570 C   0  0  0  0  0  0  0  0  0  0  0  0
   41.4360   20.6060   32.8520 F   0  0  0  0  0  0  0  0  0  0  0  0
   43.6070   20.2030   33.2840 F   0  0  0  0  0  0  0  0  0  0  0  0
   42.9290   22.3080   33.0980 F   0  0  0  0  0  0  0  0  0  0  0  0
   43.0907   20.1655   38.0865 H   0  0  0  0  0  0  0  0  0  0  0  0
   41.1330   21.6110   38.6546 H   0  0  0  0  0  0  0  0  0  0  0  0
   39.7508   22.5559   39.0369 H   0  0  0  0  0  0  0  0  0  0  0  0
   37.7687   24.0432   39.3866 H   0  0  0  0  0  0  0  0  0  0  0  0
   37.4568   24.8434   35.2548 H   0  0  0  0  0  0  0  0  0  0  0  0
  1  2  2  0
  3  7  1  0
  3  2  1  0
  4  3  2  0
  5  4  1  0
  5  6  2  0
  6  1  1  0
  7  8  2  0
  8  9  1  0
 10  9  2  0
 11 10  1  0
 12 11  2  0
 12  7  1  0
 13  5  1  0
 14 13  1  0
 15 13  1  0
 16 13  1  0
  1 17  1  0
  2 18  1  0
  8 19  1  0
  9 20  1  0
 11 21  1  0
M  ISO  5  17  14  18  14  19  14  20  14  21  14
M  END
>  <minimizedAffinity>  (1) 
-3.48375511

>  <minimizedRMSD>  (1) 
4.28348732

$$$$
