
     RDKit          3D

 15 15  0  0  0  0  0  0  0  0999 V2000
   38.1630   23.7750   38.3570 C   0  0  0  0  0  0  0  0  0  0  0  0
   37.7280   24.4530   37.2210 C   0  0  0  0  0  0  0  0  0  0  0  0
   38.4990   24.3390   36.0630 C   0  0  0  0  0  0  0  0  0  0  0  0
   39.6330   23.5710   36.1170 N   0  0  0  0  0  0  0  0  0  0  0  0
   40.0160   22.9350   37.2330 C   0  0  0  0  0  0  0  0  0  0  0  0
   39.2740   23.0420   38.3530 N   0  0  0  0  0  0  0  0  0  0  0  0
   41.2690   22.1780   37.0220 C   0  0  0  0  0  0  0  0  0  0  0  0
   41.2450   21.4860   35.8100 F   0  0  0  0  0  0  0  0  0  0  0  0
   41.4530   21.2360   38.0300 F   0  0  0  0  0  0  0  0  0  0  0  0
   42.3590   23.0260   37.0640 F   0  0  0  0  0  0  0  0  0  0  0  0
   38.1050   25.0280   34.8140 C   0  0  0  0  0  0  0  0  0  0  0  0
   37.3330   26.0150   34.9200 O   0  0  0  0  0  0  0  0  0  0  0  0
   37.5726   23.8472   39.2823 H   0  0  0  0  0  0  0  0  0  0  0  0
   36.8089   25.0573   37.2357 H   0  0  0  0  0  0  0  0  0  0  0  0
   38.4722   24.6908   33.8335 H   0  0  0  0  0  0  0  0  0  0  0  0
  2  1  2  0
  3  4  2  0
  3  2  1  0
  4  5  1  0
  5  6  2  0
  6  1  1  0
  7 10  1  0
  7  5  1  0
  7  9  1  0
  8  7  1  0
 11 12  2  0
 11  3  1  0
  1 13  1  0
  2 14  1  0
 11 15  1  0
M  ISO  3  13  14  14  14  15   6
M  END
>  <minimizedAffinity>  (1) 
-3.64235926

>  <minimizedRMSD>  (1) 
3.85873652

$$$$
