
     RDKit          3D

 27 29  0  0  0  0  0  0  0  0999 V2000
   40.8840   21.8270   37.6280 C   0  0  0  0  0  0  0  0  0  0  0  0
   39.9930   22.4190   36.7390 C   0  0  0  0  0  0  0  0  0  0  0  0
   40.3510   22.4600   35.3780 C   0  0  0  0  0  0  0  0  0  0  0  0
   41.5350   21.9100   35.1060 N   0  0  0  0  0  0  0  0  0  0  0  0
   42.3900   21.3470   35.9330 C   0  0  0  0  0  0  0  0  0  0  0  0
   42.0640   21.2990   37.2340 N   0  0  0  0  0  0  0  0  0  0  0  0
   39.3620   23.0950   34.5270 C   0  0  0  0  0  0  0  0  0  0  0  0
   38.4680   22.3700   33.8360 N   0  0  0  0  0  0  0  0  0  0  0  0
   37.5420   22.9070   33.0420 C   0  0  0  0  0  0  0  0  0  0  0  0
   37.4270   24.2530   32.8640 N   0  0  0  0  0  0  0  0  0  0  0  0
   38.2940   25.0770   33.5270 C   0  0  0  0  0  0  0  0  0  0  0  0
   38.2150   26.4410   33.3790 C   0  0  0  0  0  0  0  0  0  0  0  0
   39.0820   27.2740   34.0420 C   0  0  0  0  0  0  0  0  0  0  0  0
   40.0270   26.6780   34.8550 C   0  0  0  0  0  0  0  0  0  0  0  0
   40.0630   25.3140   34.9680 C   0  0  0  0  0  0  0  0  0  0  0  0
   39.2190   24.4470   34.3260 C   0  0  0  0  0  0  0  0  0  0  0  0
   43.6030   20.8470   35.2590 C   0  0  0  0  0  0  0  0  0  0  0  0
   43.4430   19.5820   34.7450 F   0  0  0  0  0  0  0  0  0  0  0  0
   44.6820   20.8430   36.1460 F   0  0  0  0  0  0  0  0  0  0  0  0
   43.9800   21.7250   34.2430 F   0  0  0  0  0  0  0  0  0  0  0  0
   40.6175   21.7870   38.6945 H   0  0  0  0  0  0  0  0  0  0  0  0
   39.0393   22.8416   37.0881 H   0  0  0  0  0  0  0  0  0  0  0  0
   36.8461   22.2402   32.5118 H   0  0  0  0  0  0  0  0  0  0  0  0
   37.4464   26.8714   32.7202 H   0  0  0  0  0  0  0  0  0  0  0  0
   39.0268   28.3670   33.9309 H   0  0  0  0  0  0  0  0  0  0  0  0
   40.7477   27.2971   35.4094 H   0  0  0  0  0  0  0  0  0  0  0  0
   40.8302   24.8802   35.6262 H   0  0  0  0  0  0  0  0  0  0  0  0
  2  1  2  0
  3  2  1  0
  4  3  2  0
  4  5  1  0
  5  6  2  0
  6  1  1  0
  7  3  1  0
  8  7  2  0
  9  8  1  0
 10  9  2  0
 10 11  1  0
 11 16  2  0
 12 11  1  0
 12 13  2  0
 13 14  1  0
 14 15  2  0
 16  7  1  0
 16 15  1  0
 17  5  1  0
 17 19  1  0
 18 17  1  0
 20 17  1  0
  1 21  1  0
  2 22  1  0
  9 23  1  0
 12 24  1  0
 13 25  1  0
 14 26  1  0
 15 27  1  0
M  ISO  7  21  14  22  14  23  14  24  14  25  14  26  14  27  14
M  END
>  <minimizedAffinity>  (1) 
-4.00803375

>  <minimizedRMSD>  (1) 
5.77970171

$$$$
