
     RDKit          3D

 35 38  0  0  0  0  0  0  0  0999 V2000
   38.0890   23.1870   35.5160 C   0  0  0  0  0  0  0  0  0  0  0  0
   38.2390   22.6930   36.7650 N   0  0  0  0  0  0  0  0  0  0  0  0
   38.3630   23.4570   37.8510 C   0  0  0  0  0  0  0  0  0  0  0  0
   38.3480   24.8140   37.7810 N   0  0  0  0  0  0  0  0  0  0  0  0
   38.2020   25.4030   36.5670 C   0  0  0  0  0  0  0  0  0  0  0  0
   38.1970   26.7700   36.4420 C   0  0  0  0  0  0  0  0  0  0  0  0
   38.0700   27.3750   35.2290 C   0  0  0  0  0  0  0  0  0  0  0  0
   37.9440   26.5420   34.1250 C   0  0  0  0  0  0  0  0  0  0  0  0
   37.9510   25.1720   34.2890 C   0  0  0  0  0  0  0  0  0  0  0  0
   38.0770   24.5510   35.4850 C   0  0  0  0  0  0  0  0  0  0  0  0
   39.1970   21.0690   32.7190 C   0  0  0  0  0  0  0  0  0  0  0  0
   39.2180   21.9200   33.8110 C   0  0  0  0  0  0  0  0  0  0  0  0
   37.9770   22.3010   34.3880 C   0  0  0  0  0  0  0  0  0  0  0  0
   36.8960   21.7690   33.7880 N   0  0  0  0  0  0  0  0  0  0  0  0
   36.8790   20.9570   32.7460 C   0  0  0  0  0  0  0  0  0  0  0  0
   38.0560   20.5960   32.1950 N   0  0  0  0  0  0  0  0  0  0  0  0
   35.5110   20.5910   32.3460 C   0  0  0  0  0  0  0  0  0  0  0  0
   35.0250   19.5180   33.0390 F   0  0  0  0  0  0  0  0  0  0  0  0
   35.4650   20.3130   30.9670 F   0  0  0  0  0  0  0  0  0  0  0  0
   34.6560   21.6960   32.4990 F   0  0  0  0  0  0  0  0  0  0  0  0
   37.8230   24.6870   32.9230 C   0  0  0  0  0  0  0  0  0  0  0  0
   39.0200   24.6450   32.1590 C   0  0  0  0  0  0  0  0  0  0  0  0
   39.2220   24.2140   30.8420 C   0  0  0  0  0  0  0  0  0  0  0  0
   38.1080   23.7850   30.2370 N   0  0  0  0  0  0  0  0  0  0  0  0
   36.9490   23.7970   30.8950 C   0  0  0  0  0  0  0  0  0  0  0  0
   36.8680   24.2220   32.1290 N   0  0  0  0  0  0  0  0  0  0  0  0
   38.4809   22.9744   38.8324 H   0  0  0  0  0  0  0  0  0  0  0  0
   38.2981   27.3917   37.3438 H   0  0  0  0  0  0  0  0  0  0  0  0
   38.0673   28.4704   35.1283 H   0  0  0  0  0  0  0  0  0  0  0  0
   37.8386   26.9746   33.1192 H   0  0  0  0  0  0  0  0  0  0  0  0
   40.1524   20.7692   32.2636 H   0  0  0  0  0  0  0  0  0  0  0  0
   40.1692   22.2908   34.2204 H   0  0  0  0  0  0  0  0  0  0  0  0
   39.9208   25.0039   32.6784 H   0  0  0  0  0  0  0  0  0  0  0  0
   40.2058   24.2269   30.3500 H   0  0  0  0  0  0  0  0  0  0  0  0
   36.0397   23.4412   30.3884 H   0  0  0  0  0  0  0  0  0  0  0  0
  1  2  2  0
  2  3  1  0
  4  3  2  0
  5  4  1  0
  6  5  2  0
  7  6  1  0
  8  9  1  0
  8  7  2  0
  9 10  2  0
 10  1  1  0
 10  5  1  0
 11 12  2  0
 12 13  1  0
 13  1  1  0
 14 13  2  0
 15 14  1  0
 16 11  1  0
 16 15  2  0
 17 20  1  0
 17 15  1  0
 17 18  1  0
 19 17  1  0
 21  9  1  0
 22 21  2  0
 23 22  1  0
 24 23  2  0
 24 25  1  0
 25 26  2  0
 26 21  1  0
  3 27  1  0
  6 28  1  0
  7 29  1  0
  8 30  1  0
 11 31  1  0
 12 32  1  0
 22 33  1  0
 23 34  1  0
 25 35  1  0
M  ISO  8  27  14  28  14  29  14  30  14  31  14  32  14  33  14  34  14
M  ISO  1  35  14
M  END
>  <minimizedAffinity>  (1) 
-6.05721092

>  <minimizedRMSD>  (1) 
5.92738152

$$$$
