
     RDKit          3D

 43 46  0  0  0  0  0  0  0  0999 V2000
   37.1870   21.9950   34.5180 C   0  0  0  0  0  0  0  0  0  0  0  0
   36.4180   20.9020   34.5850 N   0  0  0  0  0  0  0  0  0  0  0  0
   35.6150   20.5100   33.5830 C   0  0  0  0  0  0  0  0  0  0  0  0
   35.5300   21.2050   32.4180 N   0  0  0  0  0  0  0  0  0  0  0  0
   36.2840   22.3290   32.2750 C   0  0  0  0  0  0  0  0  0  0  0  0
   36.2130   23.0790   31.1400 C   0  0  0  0  0  0  0  0  0  0  0  0
   36.9330   24.2200   30.9910 C   0  0  0  0  0  0  0  0  0  0  0  0
   37.7350   24.5650   32.0480 C   0  0  0  0  0  0  0  0  0  0  0  0
   37.8230   23.8230   33.1920 C   0  0  0  0  0  0  0  0  0  0  0  0
   37.0960   22.6880   33.3380 C   0  0  0  0  0  0  0  0  0  0  0  0
   37.9410   23.4650   37.8020 C   0  0  0  0  0  0  0  0  0  0  0  0
   37.2650   23.0910   36.6640 C   0  0  0  0  0  0  0  0  0  0  0  0
   37.9760   22.3770   35.6400 C   0  0  0  0  0  0  0  0  0  0  0  0
   39.2550   22.1720   35.9830 N   0  0  0  0  0  0  0  0  0  0  0  0
   39.9110   22.5160   37.0470 C   0  0  0  0  0  0  0  0  0  0  0  0
   39.2470   23.1840   37.9920 N   0  0  0  0  0  0  0  0  0  0  0  0
   41.3280   22.1090   37.0010 C   0  0  0  0  0  0  0  0  0  0  0  0
   41.6470   21.2110   37.9770 F   0  0  0  0  0  0  0  0  0  0  0  0
   42.1590   23.2380   37.0980 F   0  0  0  0  0  0  0  0  0  0  0  0
   41.6310   21.5550   35.7470 F   0  0  0  0  0  0  0  0  0  0  0  0
   38.8510   24.3770   34.1080 C   0  0  0  0  0  0  0  0  0  0  0  0
   40.1670   24.4830   33.3730 C   0  0  0  0  0  0  0  0  0  0  0  0
   41.2770   25.0870   34.1460 C   0  0  0  0  0  0  0  0  0  0  0  0
   40.9950   26.5320   34.5850 C   0  0  0  0  0  0  0  0  0  0  0  0
   39.6400   26.4300   35.2840 C   0  0  0  0  0  0  0  0  0  0  0  0
   38.6200   25.9270   34.2740 C   0  0  0  0  0  0  0  0  0  0  0  0
   35.0088   19.6007   33.7084 H   0  0  0  0  0  0  0  0  0  0  0  0
   35.5544   22.7511   30.3222 H   0  0  0  0  0  0  0  0  0  0  0  0
   36.8764   24.8306   30.0778 H   0  0  0  0  0  0  0  0  0  0  0  0
   38.3363   25.4829   31.9715 H   0  0  0  0  0  0  0  0  0  0  0  0
   37.3972   24.0130   38.5856 H   0  0  0  0  0  0  0  0  0  0  0  0
   36.1994   23.3342   36.5402 H   0  0  0  0  0  0  0  0  0  0  0  0
   38.8222   23.7577   35.0166 H   0  0  0  0  0  0  0  0  0  0  0  0
   40.4726   23.4691   33.0752 H   0  0  0  0  0  0  0  0  0  0  0  0
   39.9869   25.1567   32.5223 H   0  0  0  0  0  0  0  0  0  0  0  0
   41.4497   24.4764   35.0445 H   0  0  0  0  0  0  0  0  0  0  0  0
   42.1574   25.1123   33.4870 H   0  0  0  0  0  0  0  0  0  0  0  0
   41.7698   26.8914   35.2782 H   0  0  0  0  0  0  0  0  0  0  0  0
   40.9938   27.2438   33.7463 H   0  0  0  0  0  0  0  0  0  0  0  0
   39.7079   25.7261   36.1266 H   0  0  0  0  0  0  0  0  0  0  0  0
   39.3375   27.4142   35.6711 H   0  0  0  0  0  0  0  0  0  0  0  0
   38.7639   26.4346   33.3088 H   0  0  0  0  0  0  0  0  0  0  0  0
   37.5959   26.1337   34.6183 H   0  0  0  0  0  0  0  0  0  0  0  0
  1  2  2  0
  1 13  1  0
  3  2  1  0
  4  3  2  0
  5  4  1  0
  5 10  2  0
  6  5  1  0
  7  6  2  0
  7  8  1  0
  8  9  2  0
  9 10  1  0
  9 21  1  0
 10  1  1  0
 11 16  2  0
 12 11  1  0
 13 14  1  0
 13 12  2  0
 14 15  2  0
 15 16  1  0
 17 15  1  0
 17 19  1  0
 17 18  1  0
 20 17  1  0
 21 26  1  0
 22 21  1  0
 22 23  1  0
 23 24  1  0
 24 25  1  0
 26 25  1  0
  3 27  1  0
  6 28  1  0
  7 29  1  0
  8 30  1  0
 11 31  1  0
 12 32  1  0
 21 33  1  0
 22 34  1  0
 22 35  1  0
 23 36  1  0
 23 37  1  0
 24 38  1  0
 24 39  1  0
 25 40  1  0
 25 41  1  0
 26 42  1  0
 26 43  1  0
M  ISO  8  27  14  28  14  29  14  30  14  31  14  32  14  33  13  34  13
M  ISO  8  35  13  36  13  37  13  38  13  39  13  40  13  41  13  42  13
M  ISO  1  43  13
M  END
>  <minimizedAffinity>  (1) 
-6.19781685

>  <minimizedRMSD>  (1) 
3.39509916

$$$$
