
     RDKit          3D

 34 37  0  0  0  0  0  0  0  0999 V2000
   38.0750   23.1690   35.4540 C   0  0  0  0  0  0  0  0  0  0  0  0
   38.2030   22.7060   36.7190 N   0  0  0  0  0  0  0  0  0  0  0  0
   38.3240   23.4980   37.7860 C   0  0  0  0  0  0  0  0  0  0  0  0
   38.3260   24.8560   37.6750 N   0  0  0  0  0  0  0  0  0  0  0  0
   38.2010   25.4170   36.4270 C   0  0  0  0  0  0  0  0  0  0  0  0
   38.1990   26.7740   36.2970 C   0  0  0  0  0  0  0  0  0  0  0  0
   38.0710   27.3450   35.0460 C   0  0  0  0  0  0  0  0  0  0  0  0
   37.9470   26.4850   33.9720 C   0  0  0  0  0  0  0  0  0  0  0  0
   37.9560   25.1220   34.1800 C   0  0  0  0  0  0  0  0  0  0  0  0
   38.0820   24.5330   35.3950 C   0  0  0  0  0  0  0  0  0  0  0  0
   39.2060   20.9980   32.7190 C   0  0  0  0  0  0  0  0  0  0  0  0
   39.2180   21.8830   33.7850 C   0  0  0  0  0  0  0  0  0  0  0  0
   37.9690   22.2500   34.3520 C   0  0  0  0  0  0  0  0  0  0  0  0
   36.9190   21.6690   33.7590 N   0  0  0  0  0  0  0  0  0  0  0  0
   36.8940   20.8360   32.7560 C   0  0  0  0  0  0  0  0  0  0  0  0
   38.0610   20.4800   32.2100 N   0  0  0  0  0  0  0  0  0  0  0  0
   35.5290   20.4210   32.3920 C   0  0  0  0  0  0  0  0  0  0  0  0
   35.0500   19.4090   33.1800 F   0  0  0  0  0  0  0  0  0  0  0  0
   35.4830   20.0220   31.0420 F   0  0  0  0  0  0  0  0  0  0  0  0
   34.6520   21.5170   32.4580 F   0  0  0  0  0  0  0  0  0  0  0  0
   37.7610   24.5600   32.8410 C   0  0  0  0  0  0  0  0  0  0  0  0
   38.9300   24.6560   32.0510 C   0  0  0  0  0  0  0  0  0  0  0  0
   38.6970   24.0990   30.7820 C   0  0  0  0  0  0  0  0  0  0  0  0
   37.3810   23.7030   30.9100 C   0  0  0  0  0  0  0  0  0  0  0  0
   36.8660   23.9700   32.0810 O   0  0  0  0  0  0  0  0  0  0  0  0
   38.4249   23.0423   38.7821 H   0  0  0  0  0  0  0  0  0  0  0  0
   38.2991   27.4130   37.1868 H   0  0  0  0  0  0  0  0  0  0  0  0
   38.0679   28.4366   34.9107 H   0  0  0  0  0  0  0  0  0  0  0  0
   37.8413   26.8866   32.9534 H   0  0  0  0  0  0  0  0  0  0  0  0
   40.1647   20.7036   32.2671 H   0  0  0  0  0  0  0  0  0  0  0  0
   40.1623   22.2873   34.1784 H   0  0  0  0  0  0  0  0  0  0  0  0
   39.8805   25.1006   32.3808 H   0  0  0  0  0  0  0  0  0  0  0  0
   39.3769   24.0045   29.9225 H   0  0  0  0  0  0  0  0  0  0  0  0
   36.8192   23.2096   30.1032 H   0  0  0  0  0  0  0  0  0  0  0  0
  1  2  2  0
  2  3  1  0
  4  3  2  0
  5  4  1  0
  6  5  2  0
  7  6  1  0
  8  9  1  0
  8  7  2  0
  9 10  2  0
 10  1  1  0
 10  5  1  0
 11 12  2  0
 12 13  1  0
 13  1  1  0
 14 13  2  0
 15 14  1  0
 16 11  1  0
 16 15  2  0
 17 20  1  0
 17 15  1  0
 17 18  1  0
 19 17  1  0
 21  9  1  0
 22 21  2  0
 23 24  2  0
 23 22  1  0
 24 25  1  0
 25 21  1  0
  3 26  1  0
  6 27  1  0
  7 28  1  0
  8 29  1  0
 11 30  1  0
 12 31  1  0
 22 32  1  0
 23 33  1  0
 24 34  1  0
M  ISO  8  26  14  27  14  28  14  29  14  30  14  31  14  32  14  33  14
M  ISO  1  34  14
M  END
>  <minimizedAffinity>  (1) 
-5.89400482

>  <minimizedRMSD>  (1) 
5.72298765

$$$$
