
     RDKit          3D

 40 44  0  0  0  0  0  0  0  0999 V2000
   38.1970   23.2250   36.0360 C   0  0  0  0  0  0  0  0  0  0  0  0
   37.9540   22.6130   37.2160 N   0  0  0  0  0  0  0  0  0  0  0  0
   37.8150   23.2640   38.3720 C   0  0  0  0  0  0  0  0  0  0  0  0
   37.9110   24.6240   38.4440 N   0  0  0  0  0  0  0  0  0  0  0  0
   38.1570   25.3180   37.2960 C   0  0  0  0  0  0  0  0  0  0  0  0
   38.2620   26.6870   37.3510 C   0  0  0  0  0  0  0  0  0  0  0  0
   38.5140   27.4050   36.1960 C   0  0  0  0  0  0  0  0  0  0  0  0
   38.6480   26.6840   35.0190 C   0  0  0  0  0  0  0  0  0  0  0  0
   38.5280   25.3110   35.0400 C   0  0  0  0  0  0  0  0  0  0  0  0
   38.2860   24.5790   36.1510 C   0  0  0  0  0  0  0  0  0  0  0  0
   38.6780   24.9690   33.6700 N   0  0  0  0  0  0  0  0  0  0  0  0
   39.9500   24.7240   33.2030 C   0  0  0  0  0  0  0  0  0  0  0  0
   39.9350   24.3520   31.8830 N   0  0  0  0  0  0  0  0  0  0  0  0
   38.6460   24.3550   31.4910 C   0  0  0  0  0  0  0  0  0  0  0  0
   37.8690   24.1010   30.3580 C   0  0  0  0  0  0  0  0  0  0  0  0
   36.5300   24.2190   30.3670 N   0  0  0  0  0  0  0  0  0  0  0  0
   35.8660   24.5890   31.4630 C   0  0  0  0  0  0  0  0  0  0  0  0
   36.5640   24.8500   32.5980 N   0  0  0  0  0  0  0  0  0  0  0  0
   37.9070   24.7300   32.5860 C   0  0  0  0  0  0  0  0  0  0  0  0
   38.6150   23.7060   29.1930 N   0  0  0  0  0  0  0  0  0  0  0  0
   39.9360   21.3860   33.3760 C   0  0  0  0  0  0  0  0  0  0  0  0
   39.6970   22.1340   34.5140 C   0  0  0  0  0  0  0  0  0  0  0  0
   38.3530   22.4510   34.8360 C   0  0  0  0  0  0  0  0  0  0  0  0
   37.4680   21.9580   33.9570 N   0  0  0  0  0  0  0  0  0  0  0  0
   37.6760   21.2500   32.8800 C   0  0  0  0  0  0  0  0  0  0  0  0
   38.9430   20.9490   32.5680 N   0  0  0  0  0  0  0  0  0  0  0  0
   36.4310   20.9000   32.1720 C   0  0  0  0  0  0  0  0  0  0  0  0
   36.0630   19.5960   32.3520 F   0  0  0  0  0  0  0  0  0  0  0  0
   36.5640   21.1650   30.7970 F   0  0  0  0  0  0  0  0  0  0  0  0
   35.3870   21.7420   32.5890 F   0  0  0  0  0  0  0  0  0  0  0  0
   37.6181   22.6909   39.2900 H   0  0  0  0  0  0  0  0  0  0  0  0
   38.1459   27.2107   38.3114 H   0  0  0  0  0  0  0  0  0  0  0  0
   38.6043   28.5012   36.2104 H   0  0  0  0  0  0  0  0  0  0  0  0
   38.8494   27.2060   34.0719 H   0  0  0  0  0  0  0  0  0  0  0  0
   40.8620   24.8150   33.8112 H   0  0  0  0  0  0  0  0  0  0  0  0
   34.7700   24.6813   31.4476 H   0  0  0  0  0  0  0  0  0  0  0  0
   39.6412   23.6308   29.2396 H   0  0  0  0  0  0  0  0  0  0  0  0
   38.1229   23.4984   28.3123 H   0  0  0  0  0  0  0  0  0  0  0  0
   40.9755   21.1362   33.1172 H   0  0  0  0  0  0  0  0  0  0  0  0
   40.5264   22.4737   35.1518 H   0  0  0  0  0  0  0  0  0  0  0  0
  1 10  1  0
  1  2  2  0
  2  3  1  0
  3  4  2  0
  5  6  2  0
  5  4  1  0
  7  6  1  0
  8  9  1  0
  8  7  2  0
  9 10  2  0
 10  5  1  0
 11  9  1  0
 12 11  1  0
 13 12  2  0
 14 13  1  0
 14 19  2  0
 15 16  2  0
 15 14  1  0
 16 17  1  0
 17 18  2  0
 19 18  1  0
 19 11  1  0
 20 15  1  0
 21 22  2  0
 22 23  1  0
 23  1  1  0
 24 23  2  0
 25 24  1  0
 26 25  2  0
 26 21  1  0
 27 28  1  0
 27 30  1  0
 27 25  1  0
 29 27  1  0
  3 31  1  0
  6 32  1  0
  7 33  1  0
  8 34  1  0
 12 35  1  0
 17 36  1  0
 20 37  1  0
 20 38  1  0
 21 39  1  0
 22 40  1  0
M  ISO  8  31  14  32  14  33  14  34  14  35  14  36  14  39  14  40  14
M  END
>  <minimizedAffinity>  (1) 
-5.32374334

>  <minimizedRMSD>  (1) 
6.10248566

$$$$
