
     RDKit          3D

 34 36  0  0  0  0  0  0  0  0999 V2000
   37.6930   22.5420   34.3350 C   0  0  0  0  0  0  0  0  0  0  0  0
   36.8990   21.4790   34.0800 N   0  0  0  0  0  0  0  0  0  0  0  0
   36.1800   21.3470   32.9650 C   0  0  0  0  0  0  0  0  0  0  0  0
   36.1890   22.2820   31.9870 N   0  0  0  0  0  0  0  0  0  0  0  0
   36.9690   23.4050   32.1560 C   0  0  0  0  0  0  0  0  0  0  0  0
   37.0030   24.3750   31.1940 C   0  0  0  0  0  0  0  0  0  0  0  0
   37.7670   25.4920   31.3450 C   0  0  0  0  0  0  0  0  0  0  0  0
   38.4920   25.5850   32.5030 C   0  0  0  0  0  0  0  0  0  0  0  0
   38.4440   24.6030   33.4470 C   0  0  0  0  0  0  0  0  0  0  0  0
   37.6900   23.4870   33.3230 C   0  0  0  0  0  0  0  0  0  0  0  0
   38.3420   23.3200   37.8640 C   0  0  0  0  0  0  0  0  0  0  0  0
   37.6930   23.2000   36.6490 C   0  0  0  0  0  0  0  0  0  0  0  0
   38.4270   22.6280   35.5700 C   0  0  0  0  0  0  0  0  0  0  0  0
   39.6920   22.2580   35.8660 N   0  0  0  0  0  0  0  0  0  0  0  0
   40.2940   22.3830   37.0410 C   0  0  0  0  0  0  0  0  0  0  0  0
   39.6170   22.9220   38.0640 N   0  0  0  0  0  0  0  0  0  0  0  0
   41.6790   21.8730   37.0020 C   0  0  0  0  0  0  0  0  0  0  0  0
   41.9520   21.0230   38.0470 F   0  0  0  0  0  0  0  0  0  0  0  0
   42.5910   22.9340   37.0220 F   0  0  0  0  0  0  0  0  0  0  0  0
   41.9200   21.2220   35.7860 F   0  0  0  0  0  0  0  0  0  0  0  0
   39.3120   24.8820   34.5250 N   0  0  0  0  0  0  0  0  0  0  0  0
   40.7560   25.0300   34.4120 C   0  0  0  0  0  0  0  0  0  0  0  0
   41.3430   24.0860   33.7070 N   0  0  0  0  0  0  0  0  0  0  0  0
   41.6170   26.0740   34.9770 N   0  0  0  0  0  0  0  0  0  0  0  0
   42.3680   24.1550   33.6020 H   0  0  0  0  0  0  0  0  0  0  0  0
   35.5590   20.4483   32.8359 H   0  0  0  0  0  0  0  0  0  0  0  0
   36.4022   24.2512   30.2809 H   0  0  0  0  0  0  0  0  0  0  0  0
   37.8001   26.2786   30.5768 H   0  0  0  0  0  0  0  0  0  0  0  0
   39.1247   26.4684   32.6745 H   0  0  0  0  0  0  0  0  0  0  0  0
   37.7930   23.7612   38.7090 H   0  0  0  0  0  0  0  0  0  0  0  0
   36.6524   23.5326   36.5206 H   0  0  0  0  0  0  0  0  0  0  0  0
   38.8930   24.9887   35.4599 H   0  0  0  0  0  0  0  0  0  0  0  0
   42.6333   26.0486   34.8118 H   0  0  0  0  0  0  0  0  0  0  0  0
   41.2054   26.8326   35.5391 H   0  0  0  0  0  0  0  0  0  0  0  0
  1 13  1  0
  2  1  2  0
  3  2  1  0
  4  5  1  0
  4  3  2  0
  5 10  2  0
  6  7  2  0
  6  5  1  0
  7  8  1  0
  8  9  2  0
  9 21  1  0
 10  9  1  0
 10  1  1  0
 11 16  2  0
 12 11  1  0
 13 14  1  0
 13 12  2  0
 14 15  2  0
 15 16  1  0
 17 19  1  0
 17 15  1  0
 17 18  1  0
 20 17  1  0
 22 21  1  0
 22 24  1  0
 23 22  2  0
 25 23  1  0
  3 26  1  0
  6 27  1  0
  7 28  1  0
  8 29  1  0
 11 30  1  0
 12 31  1  0
 21 32  1  0
 24 33  1  0
 24 34  1  0
M  ISO  6  26  14  27  14  28  14  29  14  30  14  31  14
M  END
>  <minimizedAffinity>  (1) 
-5.55689955

>  <minimizedRMSD>  (1) 
2.61410069

$$$$
