
     RDKit          3D

 46 48  0  0  1  0  0  0  0  0999 V2000
   36.1940   29.4780   32.4180 C   0  0  0  0  0  0  0  0  0  0  0  0
   36.9330   28.5090   31.7800 C   0  0  0  0  0  0  0  0  0  0  0  0
   37.2840   27.3770   32.5110 C   0  0  0  0  0  0  0  0  0  0  0  0
   36.8950   27.2460   33.8320 C   0  0  0  0  0  0  0  0  0  0  0  0
   36.1630   28.2090   34.4610 C   0  0  0  0  0  0  0  0  0  0  0  0
   35.8050   29.3380   33.7570 C   0  0  0  0  0  0  0  0  0  0  0  0
   37.3710   25.9730   34.4240 C   0  0  0  0  0  0  0  0  0  0  0  0
   38.7740   26.0240   34.9120 C   0  0  2  0  0  0  0  0  0  0  0  0
   40.7300   23.1740   36.1230 C   0  0  0  0  0  0  0  0  0  0  0  0
   39.9350   22.6480   37.1780 C   0  0  0  0  0  0  0  0  0  0  0  0
   38.7100   23.2910   37.4670 C   0  0  0  0  0  0  0  0  0  0  0  0
   38.3840   24.3800   36.7000 N   0  0  0  0  0  0  0  0  0  0  0  0
   39.1710   24.8470   35.7050 C   0  0  0  0  0  0  0  0  0  0  0  0
   40.3400   24.2530   35.4100 N   0  0  0  0  0  0  0  0  0  0  0  0
   38.9210   27.2640   35.8120 C   0  0  0  0  0  0  0  0  0  0  0  0
   35.7360   30.9180   31.5200 S   0  0  0  0  0  0  0  0  0  0  0  0
   36.2820   30.7510   30.1080 O   0  0  0  0  0  0  0  0  0  0  0  0
   36.3310   32.1390   32.1190 O   0  0  0  0  0  0  0  0  0  0  0  0
   33.9940   31.0700   31.4620 C   0  0  0  0  0  0  0  0  0  0  0  0
   32.9760   30.4970   32.1240 N   0  0  0  0  0  0  0  0  0  0  0  0
   31.8380   30.9640   31.6980 O   0  0  0  0  0  0  0  0  0  0  0  0
   32.0710   31.8590   30.7470 C   0  0  0  0  0  0  0  0  0  0  0  0
   33.3920   31.9220   30.6030 N   0  0  0  0  0  0  0  0  0  0  0  0
   31.1240   32.6640   29.9550 C   0  0  0  0  0  0  0  0  0  0  0  0
   29.8500   32.9150   30.7100 C   0  0  0  0  0  0  0  0  0  0  0  0
   30.7920   31.9450   28.6530 C   0  0  0  0  0  0  0  0  0  0  0  0
   37.2361   28.6243   30.7289 H   0  0  0  0  0  0  0  0  0  0  0  0
   37.8750   26.5810   32.0345 H   0  0  0  0  0  0  0  0  0  0  0  0
   35.8634   28.0867   35.5123 H   0  0  0  0  0  0  0  0  0  0  0  0
   35.2151   30.1278   34.2450 H   0  0  0  0  0  0  0  0  0  0  0  0
   36.7181   25.7199   35.2723 H   0  0  0  0  0  0  0  0  0  0  0  0
   37.3376   25.2171   33.6256 H   0  0  0  0  0  0  0  0  0  0  0  0
   39.4216   26.0546   34.0234 H   0  0  0  0  0  0  0  0  0  0  0  0
   41.6876   22.6897   35.8811 H   0  0  0  0  0  0  0  0  0  0  0  0
   40.2630   21.7683   37.7512 H   0  0  0  0  0  0  0  0  0  0  0  0
   38.0485   22.9343   38.2702 H   0  0  0  0  0  0  0  0  0  0  0  0
   38.8846   26.9572   36.8677 H   0  0  0  0  0  0  0  0  0  0  0  0
   39.8836   27.7547   35.6057 H   0  0  0  0  0  0  0  0  0  0  0  0
   38.0998   27.9662   35.6057 H   0  0  0  0  0  0  0  0  0  0  0  0
   31.6050   33.6305   29.7441 H   0  0  0  0  0  0  0  0  0  0  0  0
   30.0505   32.8755   31.7909 H   0  0  0  0  0  0  0  0  0  0  0  0
   29.4569   33.9079   30.4460 H   0  0  0  0  0  0  0  0  0  0  0  0
   29.1097   32.1455   30.4460 H   0  0  0  0  0  0  0  0  0  0  0  0
   30.3407   30.9676   28.8787 H   0  0  0  0  0  0  0  0  0  0  0  0
   30.0824   32.5507   28.0703 H   0  0  0  0  0  0  0  0  0  0  0  0
   31.7133   31.7977   28.0703 H   0  0  0  0  0  0  0  0  0  0  0  0
  1  6  1  0
  2  1  2  0
  2  3  1  0
  3  4  2  0
  4  7  1  0
  4  5  1  0
  6  5  2  0
  7  8  1  0
  8 13  1  0
  8 15  1  0
  9 10  2  0
 10 11  1  0
 12 11  2  0
 13 12  1  0
 14 13  2  0
 14  9  1  0
 16 18  2  0
 16  1  1  0
 17 16  2  0
 19 16  1  0
 19 20  2  0
 21 20  1  0
 22 21  1  0
 23 22  2  0
 23 19  1  0
 24 25  1  0
 24 22  1  0
 26 24  1  0
  2 27  1  0
  3 28  1  0
  5 29  1  0
  6 30  1  0
  7 31  1  0
  7 32  1  0
  8 33  1  6
  9 34  1  0
 10 35  1  0
 11 36  1  0
 15 37  1  0
 15 38  1  0
 15 39  1  0
 24 40  1  0
 25 41  1  0
 25 42  1  0
 25 43  1  0
 26 44  1  0
 26 45  1  0
 26 46  1  0
M  ISO  8  27  14  28  14  29  14  30  14  31   8  32   8  33   8  34  14
M  ISO  8  35  14  36  14  37   8  38   8  39   8  40   8  41   8  42   8
M  ISO  4  43   8  44   8  45   8  46   8
M  END
>  <minimizedAffinity>  (1) 
-5.16828775

>  <minimizedRMSD>  (1) 
0.534935534

$$$$
