
     RDKit          3D

 42 46  0  0  0  0  0  0  0  0999 V2000
   38.0270   23.1080   35.2230 C   0  0  0  0  0  0  0  0  0  0  0  0
   38.1550   22.5600   36.4550 N   0  0  0  0  0  0  0  0  0  0  0  0
   38.3070   23.2730   37.5730 C   0  0  0  0  0  0  0  0  0  0  0  0
   38.3450   24.6350   37.5520 N   0  0  0  0  0  0  0  0  0  0  0  0
   38.2220   25.2770   36.3400 C   0  0  0  0  0  0  0  0  0  0  0  0
   38.2590   26.6320   36.2960 C   0  0  0  0  0  0  0  0  0  0  0  0
   38.1390   27.2940   35.0960 C   0  0  0  0  0  0  0  0  0  0  0  0
   37.9840   26.5060   33.9650 C   0  0  0  0  0  0  0  0  0  0  0  0
   37.9550   25.1320   34.0690 C   0  0  0  0  0  0  0  0  0  0  0  0
   38.0700   24.4690   35.2440 C   0  0  0  0  0  0  0  0  0  0  0  0
   37.7960   24.6420   32.6600 C   0  0  0  0  0  0  0  0  0  0  0  0
   36.7800   24.2880   31.8830 N   0  0  0  0  0  0  0  0  0  0  0  0
   37.2580   23.9470   30.7420 O   0  0  0  0  0  0  0  0  0  0  0  0
   38.5630   24.0540   30.7170 C   0  0  0  0  0  0  0  0  0  0  0  0
   38.9560   24.4960   31.9180 N   0  0  0  0  0  0  0  0  0  0  0  0
   39.2950   23.7220   29.5400 N   0  0  0  0  0  0  0  0  0  0  0  0
   39.5430   22.4450   29.1940 C   0  0  0  0  0  0  0  0  0  0  0  0
   40.2590   22.1980   28.0420 C   0  0  0  0  0  0  0  0  0  0  0  0
   40.7190   23.2260   27.2480 C   0  0  0  0  0  0  0  0  0  0  0  0
   41.3680   23.0260   26.2000 O   0  0  0  0  0  0  0  0  0  0  0  0
   40.4160   24.4630   27.6840 N   0  0  0  0  0  0  0  0  0  0  0  0
   39.7250   24.7820   28.7940 C   0  0  0  0  0  0  0  0  0  0  0  0
   39.5020   25.9810   29.1020 O   0  0  0  0  0  0  0  0  0  0  0  0
   39.0140   20.9140   32.4450 C   0  0  0  0  0  0  0  0  0  0  0  0
   39.0830   21.7350   33.5610 C   0  0  0  0  0  0  0  0  0  0  0  0
   37.8660   22.2610   34.0700 C   0  0  0  0  0  0  0  0  0  0  0  0
   36.7650   21.8860   33.3870 N   0  0  0  0  0  0  0  0  0  0  0  0
   36.7130   21.1020   32.3240 C   0  0  0  0  0  0  0  0  0  0  0  0
   37.8600   20.6070   31.8450 N   0  0  0  0  0  0  0  0  0  0  0  0
   35.3340   20.9230   31.8480 C   0  0  0  0  0  0  0  0  0  0  0  0
   34.9600   19.6190   31.7500 F   0  0  0  0  0  0  0  0  0  0  0  0
   35.1780   21.5460   30.5870 F   0  0  0  0  0  0  0  0  0  0  0  0
   34.4440   21.6370   32.6590 F   0  0  0  0  0  0  0  0  0  0  0  0
   38.4040   22.7483   38.5349 H   0  0  0  0  0  0  0  0  0  0  0  0
   38.3858   27.2055   37.2260 H   0  0  0  0  0  0  0  0  0  0  0  0
   38.1647   28.3921   35.0364 H   0  0  0  0  0  0  0  0  0  0  0  0
   37.8835   26.9811   32.9780 H   0  0  0  0  0  0  0  0  0  0  0  0
   39.1814   21.6146   29.8183 H   0  0  0  0  0  0  0  0  0  0  0  0
   40.4675   21.1580   27.7504 H   0  0  0  0  0  0  0  0  0  0  0  0
   40.7483   25.2488   27.1069 H   0  0  0  0  0  0  0  0  0  0  0  0
   39.9474   20.4986   32.0372 H   0  0  0  0  0  0  0  0  0  0  0  0
   40.0471   21.9705   34.0354 H   0  0  0  0  0  0  0  0  0  0  0  0
  1 10  1  0
  1  2  2  0
  2  3  1  0
  4  3  2  0
  5  4  1  0
  6  5  2  0
  7  6  1  0
  8  9  1  0
  8  7  2  0
  9 10  2  0
 10  5  1  0
 11  9  1  0
 12 11  2  0
 13 12  1  0
 14 13  1  0
 14 15  2  0
 15 11  1  0
 16 14  1  0
 17 16  1  0
 18 17  2  0
 19 21  1  0
 19 18  1  0
 20 19  2  0
 21 22  1  0
 22 23  2  0
 22 16  1  0
 24 25  2  0
 25 26  1  0
 26  1  1  0
 27 26  2  0
 28 27  1  0
 29 28  2  0
 29 24  1  0
 30 28  1  0
 30 33  1  0
 31 30  1  0
 32 30  1  0
  3 34  1  0
  6 35  1  0
  7 36  1  0
  8 37  1  0
 17 38  1  0
 18 39  1  0
 21 40  1  0
 24 41  1  0
 25 42  1  0
M  ISO  8  34  14  35  14  36  14  37  14  38  14  39  14  40   9  41  14
M  ISO  1  42  14
M  END
>  <minimizedAffinity>  (1) 
-6.57322502

>  <minimizedRMSD>  (1) 
0.128711253

$$$$
