
     RDKit          3D

 43 47  0  0  0  0  0  0  0  0999 V2000
   38.0630   23.1280   35.1810 C   0  0  0  0  0  0  0  0  0  0  0  0
   38.2560   22.5660   36.3950 N   0  0  0  0  0  0  0  0  0  0  0  0
   38.4250   23.2670   37.5200 C   0  0  0  0  0  0  0  0  0  0  0  0
   38.4140   24.6210   37.5220 N   0  0  0  0  0  0  0  0  0  0  0  0
   38.2250   25.2750   36.3330 C   0  0  0  0  0  0  0  0  0  0  0  0
   38.2100   26.6380   36.3060 C   0  0  0  0  0  0  0  0  0  0  0  0
   38.0230   27.3170   35.1250 C   0  0  0  0  0  0  0  0  0  0  0  0
   37.8530   26.5440   33.9870 C   0  0  0  0  0  0  0  0  0  0  0  0
   37.8740   25.1670   34.0600 C   0  0  0  0  0  0  0  0  0  0  0  0
   38.0580   24.5040   35.2210 C   0  0  0  0  0  0  0  0  0  0  0  0
   37.6740   24.6960   32.6570 C   0  0  0  0  0  0  0  0  0  0  0  0
   36.6430   24.3190   31.9110 N   0  0  0  0  0  0  0  0  0  0  0  0
   37.0840   24.0130   30.7480 O   0  0  0  0  0  0  0  0  0  0  0  0
   38.3820   24.1670   30.6760 C   0  0  0  0  0  0  0  0  0  0  0  0
   38.8080   24.6030   31.8670 N   0  0  0  0  0  0  0  0  0  0  0  0
   39.2130   23.9190   29.5240 N   0  0  0  0  0  0  0  0  0  0  0  0
   39.4140   22.6680   29.0600 C   0  0  0  0  0  0  0  0  0  0  0  0
   40.2270   22.5250   27.9510 C   0  0  0  0  0  0  0  0  0  0  0  0
   40.8150   23.6100   27.3310 C   0  0  0  0  0  0  0  0  0  0  0  0
   41.6620   23.5460   26.1900 N   0  0  0  0  0  0  0  0  0  0  0  0
   40.5880   24.8420   27.8280 N   0  0  0  0  0  0  0  0  0  0  0  0
   39.7900   24.9610   28.9150 C   0  0  0  0  0  0  0  0  0  0  0  0
   39.5860   26.1300   29.3700 O   0  0  0  0  0  0  0  0  0  0  0  0
   39.0220   21.0060   32.3320 C   0  0  0  0  0  0  0  0  0  0  0  0
   39.1050   21.8100   33.4580 C   0  0  0  0  0  0  0  0  0  0  0  0
   37.8890   22.2950   34.0180 C   0  0  0  0  0  0  0  0  0  0  0  0
   36.7770   21.9040   33.3680 N   0  0  0  0  0  0  0  0  0  0  0  0
   36.7160   21.1340   32.2910 C   0  0  0  0  0  0  0  0  0  0  0  0
   37.8580   20.6780   31.7640 N   0  0  0  0  0  0  0  0  0  0  0  0
   35.3260   20.9200   31.8550 C   0  0  0  0  0  0  0  0  0  0  0  0
   34.9760   19.6120   31.7820 F   0  0  0  0  0  0  0  0  0  0  0  0
   35.1340   21.5200   30.5890 F   0  0  0  0  0  0  0  0  0  0  0  0
   34.4450   21.6310   32.6820 F   0  0  0  0  0  0  0  0  0  0  0  0
   38.5769   22.7306   38.4683 H   0  0  0  0  0  0  0  0  0  0  0  0
   38.3492   27.2014   37.2404 H   0  0  0  0  0  0  0  0  0  0  0  0
   38.0090   28.4162   35.0854 H   0  0  0  0  0  0  0  0  0  0  0  0
   37.6996   27.0346   33.0145 H   0  0  0  0  0  0  0  0  0  0  0  0
   38.9495   21.7967   29.5448 H   0  0  0  0  0  0  0  0  0  0  0  0
   40.4110   21.5171   27.5505 H   0  0  0  0  0  0  0  0  0  0  0  0
   41.8775   22.6357   25.7590 H   0  0  0  0  0  0  0  0  0  0  0  0
   42.0598   24.4100   25.7948 H   0  0  0  0  0  0  0  0  0  0  0  0
   39.9524   20.6223   31.8879 H   0  0  0  0  0  0  0  0  0  0  0  0
   40.0777   22.0648   33.9040 H   0  0  0  0  0  0  0  0  0  0  0  0
  1 10  1  0
  1  2  2  0
  2  3  1  0
  3  4  2  0
  5  4  1  0
  6  5  2  0
  7  6  1  0
  8  9  1  0
  8  7  2  0
  9 10  2  0
 10  5  1  0
 11  9  1  0
 12 11  2  0
 13 12  1  0
 14 13  1  0
 14 15  2  0
 15 11  1  0
 16 14  1  0
 17 16  1  0
 18 17  2  0
 19 21  2  0
 19 18  1  0
 20 19  1  0
 21 22  1  0
 22 23  2  0
 22 16  1  0
 24 25  2  0
 25 26  1  0
 26  1  1  0
 27 26  2  0
 28 27  1  0
 29 28  2  0
 29 24  1  0
 30 28  1  0
 30 33  1  0
 31 30  1  0
 32 30  1  0
  3 34  1  0
  6 35  1  0
  7 36  1  0
  8 37  1  0
 17 38  1  0
 18 39  1  0
 20 40  1  0
 20 41  1  0
 24 42  1  0
 25 43  1  0
M  ISO  8  34  14  35  14  36  14  37  14  38  14  39  14  42  14  43  14
M  END
>  <minimizedAffinity>  (1) 
-6.56854248

>  <minimizedRMSD>  (1) 
0.329001993

$$$$
