
     RDKit          3D

 38 42  0  0  0  0  0  0  0  0999 V2000
   38.1510   23.2010   34.9920 C   0  0  0  0  0  0  0  0  0  0  0  0
   38.4320   22.5710   36.1550 N   0  0  0  0  0  0  0  0  0  0  0  0
   38.6190   23.2040   37.3150 C   0  0  0  0  0  0  0  0  0  0  0  0
   38.5360   24.5580   37.4070 N   0  0  0  0  0  0  0  0  0  0  0  0
   38.2550   25.2790   36.2780 C   0  0  0  0  0  0  0  0  0  0  0  0
   38.1680   26.6340   36.3490 C   0  0  0  0  0  0  0  0  0  0  0  0
   37.8860   27.3730   35.2220 C   0  0  0  0  0  0  0  0  0  0  0  0
   37.7010   26.6690   34.0430 C   0  0  0  0  0  0  0  0  0  0  0  0
   37.8000   25.2950   34.0210 C   0  0  0  0  0  0  0  0  0  0  0  0
   38.0760   24.5640   35.1240 C   0  0  0  0  0  0  0  0  0  0  0  0
   37.5600   24.9090   32.6010 C   0  0  0  0  0  0  0  0  0  0  0  0
   36.5150   24.5430   31.8710 N   0  0  0  0  0  0  0  0  0  0  0  0
   36.9250   24.3270   30.6720 O   0  0  0  0  0  0  0  0  0  0  0  0
   38.2130   24.5330   30.5590 C   0  0  0  0  0  0  0  0  0  0  0  0
   38.6630   24.9050   31.7640 N   0  0  0  0  0  0  0  0  0  0  0  0
   39.1100   24.4260   29.4480 N   0  0  0  0  0  0  0  0  0  0  0  0
   39.4900   23.3510   28.7190 C   0  0  0  0  0  0  0  0  0  0  0  0
   40.3580   23.7560   27.7690 N   0  0  0  0  0  0  0  0  0  0  0  0
   40.5280   25.0970   27.9000 C   0  0  0  0  0  0  0  0  0  0  0  0
   39.7420   25.4730   28.9460 N   0  0  0  0  0  0  0  0  0  0  0  0
   39.0870   21.3420   31.9580 C   0  0  0  0  0  0  0  0  0  0  0  0
   39.1790   22.0720   33.1330 C   0  0  0  0  0  0  0  0  0  0  0  0
   37.9630   22.4380   33.7820 C   0  0  0  0  0  0  0  0  0  0  0  0
   36.8430   22.0190   33.1590 N   0  0  0  0  0  0  0  0  0  0  0  0
   36.7770   21.3190   32.0340 C   0  0  0  0  0  0  0  0  0  0  0  0
   37.9170   20.9780   31.4260 N   0  0  0  0  0  0  0  0  0  0  0  0
   35.3820   21.0470   31.6540 C   0  0  0  0  0  0  0  0  0  0  0  0
   35.1200   19.7350   31.4290 F   0  0  0  0  0  0  0  0  0  0  0  0
   35.0610   21.7850   30.4870 F   0  0  0  0  0  0  0  0  0  0  0  0
   34.5050   21.5690   32.6120 F   0  0  0  0  0  0  0  0  0  0  0  0
   38.8454   22.6169   38.2172 H   0  0  0  0  0  0  0  0  0  0  0  0
   38.3237   27.1425   37.3119 H   0  0  0  0  0  0  0  0  0  0  0  0
   37.8111   28.4699   35.2560 H   0  0  0  0  0  0  0  0  0  0  0  0
   37.4726   27.2130   33.1146 H   0  0  0  0  0  0  0  0  0  0  0  0
   39.1476   22.3174   28.8753 H   0  0  0  0  0  0  0  0  0  0  0  0
   41.1696   25.7465   27.2864 H   0  0  0  0  0  0  0  0  0  0  0  0
   40.0145   21.0509   31.4432 H   0  0  0  0  0  0  0  0  0  0  0  0
   40.1556   22.3588   33.5501 H   0  0  0  0  0  0  0  0  0  0  0  0
  1 10  1  0
  1  2  2  0
  2  3  1  0
  3  4  2  0
  5  6  2  0
  5  4  1  0
  7  6  1  0
  8  7  2  0
  9  8  1  0
  9 10  2  0
 10  5  1  0
 11  9  1  0
 12 11  2  0
 13 12  1  0
 14 13  1  0
 14 15  2  0
 15 11  1  0
 16 14  1  0
 17 16  1  0
 18 19  1  0
 18 17  2  0
 19 20  2  0
 20 16  1  0
 21 22  2  0
 22 23  1  0
 23  1  1  0
 24 23  2  0
 25 24  1  0
 26 21  1  0
 26 25  2  0
 27 25  1  0
 27 30  1  0
 28 27  1  0
 29 27  1  0
  3 31  1  0
  6 32  1  0
  7 33  1  0
  8 34  1  0
 17 35  1  0
 19 36  1  0
 21 37  1  0
 22 38  1  0
M  ISO  8  31  14  32  14  33  14  34  14  35  14  36  14  37  14  38  14
M  END
>  <minimizedAffinity>  (1) 
-6.3010664

>  <minimizedRMSD>  (1) 
0.60833323

$$$$
