
     RDKit          3D

 45 49  0  0  0  0  0  0  0  0999 V2000
   38.1710   23.2940   34.9790 C   0  0  0  0  0  0  0  0  0  0  0  0
   38.4100   22.6060   36.1260 N   0  0  0  0  0  0  0  0  0  0  0  0
   38.5660   23.1740   37.3090 C   0  0  0  0  0  0  0  0  0  0  0  0
   38.4960   24.5330   37.4730 N   0  0  0  0  0  0  0  0  0  0  0  0
   38.2580   25.3060   36.3690 C   0  0  0  0  0  0  0  0  0  0  0  0
   38.1830   26.6670   36.4940 C   0  0  0  0  0  0  0  0  0  0  0  0
   37.9490   27.4500   35.4030 C   0  0  0  0  0  0  0  0  0  0  0  0
   37.7930   26.8120   34.1850 C   0  0  0  0  0  0  0  0  0  0  0  0
   37.8770   25.4320   34.1100 C   0  0  0  0  0  0  0  0  0  0  0  0
   38.1070   24.6430   35.1760 C   0  0  0  0  0  0  0  0  0  0  0  0
   37.6850   25.1130   32.6570 C   0  0  0  0  0  0  0  0  0  0  0  0
   36.6880   24.6690   31.9010 N   0  0  0  0  0  0  0  0  0  0  0  0
   37.1170   24.5940   30.6830 O   0  0  0  0  0  0  0  0  0  0  0  0
   38.3470   24.9650   30.5980 C   0  0  0  0  0  0  0  0  0  0  0  0
   38.7770   25.3100   31.8220 N   0  0  0  0  0  0  0  0  0  0  0  0
   39.3330   25.1040   29.5900 N   0  0  0  0  0  0  0  0  0  0  0  0
   39.9540   23.8400   29.1630 C   0  0  0  0  0  0  0  0  0  0  0  0
   39.5170   23.7590   27.6870 C   0  0  0  0  0  0  0  0  0  0  0  0
   40.3040   24.6900   27.0500 O   0  0  0  0  0  0  0  0  0  0  0  0
   40.0880   25.9910   27.4260 C   0  0  0  0  0  0  0  0  0  0  0  0
   39.8590   26.2240   28.8930 C   0  0  0  0  0  0  0  0  0  0  0  0
   39.1810   21.6500   31.8460 C   0  0  0  0  0  0  0  0  0  0  0  0
   39.2360   22.3130   33.0620 C   0  0  0  0  0  0  0  0  0  0  0  0
   38.0120   22.5810   33.7290 C   0  0  0  0  0  0  0  0  0  0  0  0
   36.9080   22.1540   33.0940 N   0  0  0  0  0  0  0  0  0  0  0  0
   36.8760   21.5170   31.9210 C   0  0  0  0  0  0  0  0  0  0  0  0
   38.0250   21.2610   31.2890 N   0  0  0  0  0  0  0  0  0  0  0  0
   35.4730   21.2130   31.5260 C   0  0  0  0  0  0  0  0  0  0  0  0
   35.3020   19.9140   31.1520 F   0  0  0  0  0  0  0  0  0  0  0  0
   35.0890   22.0550   30.4750 F   0  0  0  0  0  0  0  0  0  0  0  0
   34.5940   21.5520   32.5590 F   0  0  0  0  0  0  0  0  0  0  0  0
   38.7573   22.5386   38.1863 H   0  0  0  0  0  0  0  0  0  0  0  0
   38.3125   27.1324   37.4823 H   0  0  0  0  0  0  0  0  0  0  0  0
   37.8867   28.5450   35.4874 H   0  0  0  0  0  0  0  0  0  0  0  0
   37.6022   27.4014   33.2761 H   0  0  0  0  0  0  0  0  0  0  0  0
   41.0494   23.8804   29.2551 H   0  0  0  0  0  0  0  0  0  0  0  0
   39.6543   22.9698   29.7654 H   0  0  0  0  0  0  0  0  0  0  0  0
   39.6976   22.7526   27.2814 H   0  0  0  0  0  0  0  0  0  0  0  0
   38.4426   23.9544   27.5546 H   0  0  0  0  0  0  0  0  0  0  0  0
   40.9679   26.5786   27.1253 H   0  0  0  0  0  0  0  0  0  0  0  0
   39.1541   26.2920   26.9288 H   0  0  0  0  0  0  0  0  0  0  0  0
   40.8211   26.4944   29.3527 H   0  0  0  0  0  0  0  0  0  0  0  0
   39.1071   27.0231   28.9702 H   0  0  0  0  0  0  0  0  0  0  0  0
   40.1216   21.4348   31.3178 H   0  0  0  0  0  0  0  0  0  0  0  0
   40.1982   22.6218   33.4966 H   0  0  0  0  0  0  0  0  0  0  0  0
  1 10  1  0
  1  2  2  0
  2  3  1  0
  3  4  2  0
  5  6  2  0
  5  4  1  0
  7  6  1  0
  8  7  2  0
  9  8  1  0
  9 10  2  0
 10  5  1  0
 11  9  1  0
 12 11  2  0
 13 12  1  0
 14 13  1  0
 14 15  2  0
 15 11  1  0
 16 14  1  0
 17 16  1  0
 18 17  1  0
 19 20  1  0
 19 18  1  0
 20 21  1  0
 21 16  1  0
 22 23  2  0
 23 24  1  0
 24  1  1  0
 25 24  2  0
 26 25  1  0
 27 22  1  0
 27 26  2  0
 28 26  1  0
 28 31  1  0
 29 28  1  0
 30 28  1  0
  3 32  1  0
  6 33  1  0
  7 34  1  0
  8 35  1  0
 17 36  1  0
 17 37  1  0
 18 38  1  0
 18 39  1  0
 20 40  1  0
 20 41  1  0
 21 42  1  0
 21 43  1  0
 22 44  1  0
 23 45  1  0
M  ISO  8  32  14  33  14  34  14  35  14  36  13  37  13  38  13  39  13
M  ISO  6  40  13  41  13  42  13  43  13  44  14  45  14
M  END
>  <minimizedAffinity>  (1) 
-6.44367123

>  <minimizedRMSD>  (1) 
0.944221616

$$$$
