
     RDKit          3D

 42 46  0  0  0  0  0  0  0  0999 V2000
   38.0760   23.1260   35.1520 C   0  0  0  0  0  0  0  0  0  0  0  0
   38.2880   22.5710   36.3680 N   0  0  0  0  0  0  0  0  0  0  0  0
   38.4680   23.2800   37.4870 C   0  0  0  0  0  0  0  0  0  0  0  0
   38.4510   24.6300   37.4780 N   0  0  0  0  0  0  0  0  0  0  0  0
   38.2430   25.2830   36.2860 C   0  0  0  0  0  0  0  0  0  0  0  0
   38.2250   26.6430   36.2530 C   0  0  0  0  0  0  0  0  0  0  0  0
   38.0230   27.3120   35.0700 C   0  0  0  0  0  0  0  0  0  0  0  0
   37.8420   26.5320   33.9390 C   0  0  0  0  0  0  0  0  0  0  0  0
   37.8690   25.1570   34.0260 C   0  0  0  0  0  0  0  0  0  0  0  0
   38.0660   24.4870   35.1860 C   0  0  0  0  0  0  0  0  0  0  0  0
   39.0140   20.9720   32.3210 C   0  0  0  0  0  0  0  0  0  0  0  0
   39.1050   21.7870   33.4410 C   0  0  0  0  0  0  0  0  0  0  0  0
   37.8910   22.2850   33.9960 C   0  0  0  0  0  0  0  0  0  0  0  0
   36.7770   21.8950   33.3490 N   0  0  0  0  0  0  0  0  0  0  0  0
   36.7070   21.1180   32.2840 C   0  0  0  0  0  0  0  0  0  0  0  0
   37.8460   20.6480   31.7590 N   0  0  0  0  0  0  0  0  0  0  0  0
   35.3150   20.9090   31.8510 C   0  0  0  0  0  0  0  0  0  0  0  0
   34.9530   19.5990   31.7940 F   0  0  0  0  0  0  0  0  0  0  0  0
   35.1150   21.5030   30.5820 F   0  0  0  0  0  0  0  0  0  0  0  0
   34.4400   21.6320   32.6760 F   0  0  0  0  0  0  0  0  0  0  0  0
   37.6560   24.6750   32.6220 C   0  0  0  0  0  0  0  0  0  0  0  0
   36.6160   24.3030   31.8870 N   0  0  0  0  0  0  0  0  0  0  0  0
   37.0510   23.9820   30.7220 O   0  0  0  0  0  0  0  0  0  0  0  0
   38.3490   24.1240   30.6410 C   0  0  0  0  0  0  0  0  0  0  0  0
   38.7860   24.5620   31.8250 N   0  0  0  0  0  0  0  0  0  0  0  0
   39.1800   23.8530   29.4760 C   0  0  0  0  0  0  0  0  0  0  0  0
   39.7370   24.8760   28.7380 C   0  0  0  0  0  0  0  0  0  0  0  0
   40.5230   24.5440   27.6320 C   0  0  0  0  0  0  0  0  0  0  0  0
   40.7610   23.2220   27.2550 C   0  0  0  0  0  0  0  0  0  0  0  0
   40.2010   22.1910   27.9980 C   0  0  0  0  0  0  0  0  0  0  0  0
   39.4340   22.5640   29.0770 C   0  0  0  0  0  0  0  0  0  0  0  0
   38.6338   22.7512   38.4372 H   0  0  0  0  0  0  0  0  0  0  0  0
   38.3736   27.2124   37.1823 H   0  0  0  0  0  0  0  0  0  0  0  0
   38.0058   28.4109   35.0231 H   0  0  0  0  0  0  0  0  0  0  0  0
   37.6755   27.0141   32.9644 H   0  0  0  0  0  0  0  0  0  0  0  0
   39.9405   20.5772   31.8785 H   0  0  0  0  0  0  0  0  0  0  0  0
   40.0796   22.0393   33.8842 H   0  0  0  0  0  0  0  0  0  0  0  0
   39.5666   25.9273   29.0133 H   0  0  0  0  0  0  0  0  0  0  0  0
   40.9703   25.3539   27.0370 H   0  0  0  0  0  0  0  0  0  0  0  0
   41.3861   22.9985   26.3779 H   0  0  0  0  0  0  0  0  0  0  0  0
   40.3620   21.1344   27.7379 H   0  0  0  0  0  0  0  0  0  0  0  0
   38.9836   21.7572   29.6739 H   0  0  0  0  0  0  0  0  0  0  0  0
  1 10  1  0
  1  2  2  0
  2  3  1  0
  4  3  2  0
  5  4  1  0
  6  5  2  0
  7  6  1  0
  8  9  1  0
  8  7  2  0
  9 10  2  0
 10  5  1  0
 11 12  2  0
 12 13  1  0
 13  1  1  0
 14 13  2  0
 15 14  1  0
 16 15  2  0
 16 11  1  0
 17 15  1  0
 17 20  1  0
 18 17  1  0
 19 17  1  0
 21  9  1  0
 22 21  2  0
 23 22  1  0
 24 23  1  0
 24 25  2  0
 25 21  1  0
 26 24  1  0
 27 26  2  0
 28 27  1  0
 29 28  2  0
 29 30  1  0
 30 31  2  0
 31 26  1  0
  3 32  1  0
  6 33  1  0
  7 34  1  0
  8 35  1  0
 11 36  1  0
 12 37  1  0
 27 38  1  0
 28 39  1  0
 29 40  1  0
 30 41  1  0
 31 42  1  0
M  ISO  8  32  14  33  14  34  14  35  14  36  14  37  14  38  14  39  14
M  ISO  3  40  14  41  14  42  14
M  END
>  <minimizedAffinity>  (1) 
-6.21129704

>  <minimizedRMSD>  (1) 
0.325860113

$$$$
