
     RDKit          3D

 39 43  0  0  0  0  0  0  0  0999 V2000
   38.0750   23.1310   35.1620 C   0  0  0  0  0  0  0  0  0  0  0  0
   38.2850   22.5690   36.3830 N   0  0  0  0  0  0  0  0  0  0  0  0
   38.4600   23.2740   37.5020 C   0  0  0  0  0  0  0  0  0  0  0  0
   38.4400   24.6230   37.5010 N   0  0  0  0  0  0  0  0  0  0  0  0
   38.2330   25.2860   36.3100 C   0  0  0  0  0  0  0  0  0  0  0  0
   38.2120   26.6420   36.2870 C   0  0  0  0  0  0  0  0  0  0  0  0
   38.0080   27.3180   35.1070 C   0  0  0  0  0  0  0  0  0  0  0  0
   37.8330   26.5450   33.9720 C   0  0  0  0  0  0  0  0  0  0  0  0
   37.8640   25.1670   34.0500 C   0  0  0  0  0  0  0  0  0  0  0  0
   38.0610   24.4930   35.2060 C   0  0  0  0  0  0  0  0  0  0  0  0
   39.0250   20.9990   32.3200 C   0  0  0  0  0  0  0  0  0  0  0  0
   39.1100   21.8060   33.4440 C   0  0  0  0  0  0  0  0  0  0  0  0
   37.8970   22.2950   34.0040 C   0  0  0  0  0  0  0  0  0  0  0  0
   36.7760   21.9040   33.3570 N   0  0  0  0  0  0  0  0  0  0  0  0
   36.7140   21.1300   32.2820 C   0  0  0  0  0  0  0  0  0  0  0  0
   37.8540   20.6710   31.7580 N   0  0  0  0  0  0  0  0  0  0  0  0
   35.3270   20.9200   31.8500 C   0  0  0  0  0  0  0  0  0  0  0  0
   34.9560   19.6150   31.7960 F   0  0  0  0  0  0  0  0  0  0  0  0
   35.1180   21.5170   30.5840 F   0  0  0  0  0  0  0  0  0  0  0  0
   34.4480   21.6470   32.6740 F   0  0  0  0  0  0  0  0  0  0  0  0
   37.6500   24.6920   32.6430 C   0  0  0  0  0  0  0  0  0  0  0  0
   36.6100   24.3430   31.8980 N   0  0  0  0  0  0  0  0  0  0  0  0
   37.0470   24.0160   30.7360 O   0  0  0  0  0  0  0  0  0  0  0  0
   38.3330   24.1320   30.6710 C   0  0  0  0  0  0  0  0  0  0  0  0
   38.7710   24.5570   31.8520 N   0  0  0  0  0  0  0  0  0  0  0  0
   39.1700   23.8450   29.5050 C   0  0  0  0  0  0  0  0  0  0  0  0
   39.4490   22.6550   28.9820 C   0  0  0  0  0  0  0  0  0  0  0  0
   40.2510   22.5270   27.8840 C   0  0  0  0  0  0  0  0  0  0  0  0
   40.7480   23.8630   27.3780 C   0  0  0  0  0  0  0  0  0  0  0  0
   39.9810   25.0540   28.5610 S   0  0  0  0  0  0  0  0  0  0  0  0
   38.6249   22.7415   38.4503 H   0  0  0  0  0  0  0  0  0  0  0  0
   38.3594   27.2057   37.2200 H   0  0  0  0  0  0  0  0  0  0  0  0
   37.9850   28.4170   35.0670 H   0  0  0  0  0  0  0  0  0  0  0  0
   37.6679   27.0327   33.0000 H   0  0  0  0  0  0  0  0  0  0  0  0
   39.9534   20.6138   31.8731 H   0  0  0  0  0  0  0  0  0  0  0  0
   40.0836   22.0600   33.8884 H   0  0  0  0  0  0  0  0  0  0  0  0
   39.0238   21.7521   29.4446 H   0  0  0  0  0  0  0  0  0  0  0  0
   40.5063   21.5626   27.4206 H   0  0  0  0  0  0  0  0  0  0  0  0
   41.4030   24.0724   26.5194 H   0  0  0  0  0  0  0  0  0  0  0  0
  1 10  1  0
  1  2  2  0
  2  3  1  0
  4  3  2  0
  5  4  1  0
  6  5  2  0
  7  6  1  0
  8  9  1  0
  8  7  2  0
  9 10  2  0
 10  5  1  0
 11 12  2  0
 12 13  1  0
 13  1  1  0
 14 13  2  0
 15 14  1  0
 16 15  2  0
 16 11  1  0
 17 15  1  0
 17 20  1  0
 18 17  1  0
 19 17  1  0
 21  9  1  0
 22 21  2  0
 23 22  1  0
 24 23  1  0
 24 25  2  0
 25 21  1  0
 26 24  1  0
 27 26  2  0
 28 27  1  0
 29 28  2  0
 29 30  1  0
 30 26  1  0
  3 31  1  0
  6 32  1  0
  7 33  1  0
  8 34  1  0
 11 35  1  0
 12 36  1  0
 27 37  1  0
 28 38  1  0
 29 39  1  0
M  ISO  8  31  14  32  14  33  14  34  14  35  14  36  14  37  14  38  14
M  ISO  1  39  14
M  END
>  <minimizedAffinity>  (1) 
-6.07209301

>  <minimizedRMSD>  (1) 
0.289928257

$$$$
