
     RDKit          3D

 45 49  0  0  0  0  0  0  0  0999 V2000
   37.9800   23.1020   35.2060 C   0  0  0  0  0  0  0  0  0  0  0  0
   38.0480   22.5800   36.4520 N   0  0  0  0  0  0  0  0  0  0  0  0
   38.1780   23.3200   37.5570 C   0  0  0  0  0  0  0  0  0  0  0  0
   38.2540   24.6660   37.5060 N   0  0  0  0  0  0  0  0  0  0  0  0
   38.1930   25.2840   36.2800 C   0  0  0  0  0  0  0  0  0  0  0  0
   38.2680   26.6430   36.2020 C   0  0  0  0  0  0  0  0  0  0  0  0
   38.2110   27.2750   34.9790 C   0  0  0  0  0  0  0  0  0  0  0  0
   38.0740   26.4660   33.8620 C   0  0  0  0  0  0  0  0  0  0  0  0
   38.0030   25.0960   33.9980 C   0  0  0  0  0  0  0  0  0  0  0  0
   38.0590   24.4610   35.1920 C   0  0  0  0  0  0  0  0  0  0  0  0
   39.0190   20.8320   32.5020 C   0  0  0  0  0  0  0  0  0  0  0  0
   39.0610   21.6770   33.5990 C   0  0  0  0  0  0  0  0  0  0  0  0
   37.8380   22.2290   34.0640 C   0  0  0  0  0  0  0  0  0  0  0  0
   36.7480   21.8530   33.3610 N   0  0  0  0  0  0  0  0  0  0  0  0
   36.7210   21.0460   32.3160 C   0  0  0  0  0  0  0  0  0  0  0  0
   37.8780   20.5250   31.8780 N   0  0  0  0  0  0  0  0  0  0  0  0
   35.3540   20.8670   31.8040 C   0  0  0  0  0  0  0  0  0  0  0  0
   35.0170   19.5640   31.6030 F   0  0  0  0  0  0  0  0  0  0  0  0
   35.2040   21.5820   30.5920 F   0  0  0  0  0  0  0  0  0  0  0  0
   34.4360   21.4910   32.6560 F   0  0  0  0  0  0  0  0  0  0  0  0
   37.8790   24.5760   32.5990 C   0  0  0  0  0  0  0  0  0  0  0  0
   36.8830   24.2540   31.7850 N   0  0  0  0  0  0  0  0  0  0  0  0
   37.3940   23.8540   30.6730 O   0  0  0  0  0  0  0  0  0  0  0  0
   38.7020   23.8920   30.7030 C   0  0  0  0  0  0  0  0  0  0  0  0
   39.0580   24.3470   31.9100 N   0  0  0  0  0  0  0  0  0  0  0  0
   39.6940   23.5290   29.6620 C   0  0  0  0  0  0  0  0  0  0  0  0
   39.5810   24.4270   28.4410 C   0  0  0  0  0  0  0  0  0  0  0  0
   40.5890   23.7430   27.5270 C   0  0  0  0  0  0  0  0  0  0  0  0
   40.4200   22.2680   27.8270 C   0  0  0  0  0  0  0  0  0  0  0  0
   39.4850   22.1860   29.0400 C   0  0  0  0  0  0  0  0  0  0  0  0
   38.2243   22.8181   38.5347 H   0  0  0  0  0  0  0  0  0  0  0  0
   38.3746   27.2384   37.1208 H   0  0  0  0  0  0  0  0  0  0  0  0
   38.2714   28.3700   34.8932 H   0  0  0  0  0  0  0  0  0  0  0  0
   38.0216   26.9197   32.8613 H   0  0  0  0  0  0  0  0  0  0  0  0
   39.9592   20.3979   32.1311 H   0  0  0  0  0  0  0  0  0  0  0  0
   40.0138   21.9134   34.0953 H   0  0  0  0  0  0  0  0  0  0  0  0
   40.6412   23.5965   30.2172 H   0  0  0  0  0  0  0  0  0  0  0  0
   38.5669   24.4138   28.0151 H   0  0  0  0  0  0  0  0  0  0  0  0
   39.7695   25.4945   28.6277 H   0  0  0  0  0  0  0  0  0  0  0  0
   41.6124   24.0735   27.7580 H   0  0  0  0  0  0  0  0  0  0  0  0
   40.4238   23.9791   26.4654 H   0  0  0  0  0  0  0  0  0  0  0  0
   39.9730   21.7516   26.9647 H   0  0  0  0  0  0  0  0  0  0  0  0
   41.3873   21.7857   28.0314 H   0  0  0  0  0  0  0  0  0  0  0  0
   38.4385   22.0429   28.7328 H   0  0  0  0  0  0  0  0  0  0  0  0
   39.6927   21.3407   29.7126 H   0  0  0  0  0  0  0  0  0  0  0  0
  1  2  2  0
  2  3  1  0
  4  3  2  0
  5  4  1  0
  6  5  2  0
  7  6  1  0
  8  9  1  0
  8  7  2  0
  9 10  2  0
 10  1  1  0
 10  5  1  0
 11 12  2  0
 12 13  1  0
 13  1  1  0
 14 13  2  0
 15 14  1  0
 16 15  2  0
 16 11  1  0
 17 15  1  0
 17 20  1  0
 18 17  1  0
 19 17  1  0
 21  9  1  0
 22 21  2  0
 23 24  1  0
 23 22  1  0
 24 25  2  0
 25 21  1  0
 26 24  1  0
 27 26  1  0
 28 29  1  0
 28 27  1  0
 29 30  1  0
 30 26  1  0
  3 31  1  0
  6 32  1  0
  7 33  1  0
  8 34  1  0
 11 35  1  0
 12 36  1  0
 26 37  1  0
 27 38  1  0
 27 39  1  0
 28 40  1  0
 28 41  1  0
 29 42  1  0
 29 43  1  0
 30 44  1  0
 30 45  1  0
M  ISO  8  31  14  32  14  33  14  34  14  35  14  36  14  37  13  38  13
M  ISO  7  39  13  40  13  41  13  42  13  43  13  44  13  45  13
M  END
>  <minimizedAffinity>  (1) 
-6.07867336

>  <minimizedRMSD>  (1) 
0.15436025

$$$$
