
     RDKit          3D

 29 32  0  0  0  0  0  0  0  0999 V2000
   38.6620   24.6250   34.7510 N   0  0  0  0  0  0  0  0  0  0  0  0
   39.6310   23.8560   34.1530 C   0  0  0  0  0  0  0  0  0  0  0  0
   40.1620   23.0360   35.1030 N   0  0  0  0  0  0  0  0  0  0  0  0
   39.5410   23.2880   36.2600 C   0  0  0  0  0  0  0  0  0  0  0  0
   39.6210   22.8080   37.5480 C   0  0  0  0  0  0  0  0  0  0  0  0
   38.8510   23.2530   38.5690 N   0  0  0  0  0  0  0  0  0  0  0  0
   37.9270   24.2420   38.3200 C   0  0  0  0  0  0  0  0  0  0  0  0
   37.8440   24.7150   37.0610 N   0  0  0  0  0  0  0  0  0  0  0  0
   38.6070   24.2710   36.0650 C   0  0  0  0  0  0  0  0  0  0  0  0
   37.7620   26.8720   34.6770 C   0  0  0  0  0  0  0  0  0  0  0  0
   37.8810   25.6110   34.0710 C   0  0  0  0  0  0  0  0  0  0  0  0
   37.2380   25.4070   32.8620 C   0  0  0  0  0  0  0  0  0  0  0  0
   36.5280   26.4360   32.3260 N   0  0  0  0  0  0  0  0  0  0  0  0
   36.4270   27.6260   32.9120 C   0  0  0  0  0  0  0  0  0  0  0  0
   37.0530   27.8320   34.0970 N   0  0  0  0  0  0  0  0  0  0  0  0
   35.6850   28.7660   32.3900 C   0  0  0  0  0  0  0  0  0  0  0  0
   34.3770   29.2500   32.8630 C   0  0  0  0  0  0  0  0  0  0  0  0
   34.1180   30.7010   31.7220 S   0  0  0  0  0  0  0  0  0  0  0  0
   35.7180   30.3920   30.8860 C   0  0  0  0  0  0  0  0  0  0  0  0
   36.2260   29.4440   31.3940 N   0  0  0  0  0  0  0  0  0  0  0  0
   40.5580   21.7840   37.8660 N   0  0  0  0  0  0  0  0  0  0  0  0
   39.9261   23.8954   33.0941 H   0  0  0  0  0  0  0  0  0  0  0  0
   37.2799   24.6321   39.1194 H   0  0  0  0  0  0  0  0  0  0  0  0
   38.2597   27.0653   35.6387 H   0  0  0  0  0  0  0  0  0  0  0  0
   37.2998   24.4367   32.3475 H   0  0  0  0  0  0  0  0  0  0  0  0
   33.7324   28.8630   33.6660 H   0  0  0  0  0  0  0  0  0  0  0  0
   36.1369   30.9814   30.0571 H   0  0  0  0  0  0  0  0  0  0  0  0
   40.6197   21.4233   38.8288 H   0  0  0  0  0  0  0  0  0  0  0  0
   41.1741   21.4040   37.1332 H   0  0  0  0  0  0  0  0  0  0  0  0
  1  9  1  0
  2  1  1  0
  2  3  2  0
  3  4  1  0
  4  5  2  0
  5 21  1  0
  5  6  1  0
  7  6  2  0
  8  7  1  0
  9  4  1  0
  9  8  2  0
 11 10  2  0
 11  1  1  0
 12 11  1  0
 13 12  2  0
 13 14  1  0
 14 15  2  0
 15 10  1  0
 16 17  2  0
 16 14  1  0
 18 17  1  0
 19 20  2  0
 19 18  1  0
 20 16  1  0
  2 22  1  0
  7 23  1  0
 10 24  1  0
 12 25  1  0
 17 26  1  0
 19 27  1  0
 21 28  1  0
 21 29  1  0
M  ISO  6  22  14  23  14  24  14  25  14  26  14  27  14
M  END
>  <minimizedAffinity>  (1) 
-5.78925753

>  <minimizedRMSD>  (1) 
0.54461199

$$$$
