
     RDKit          3D

 32 34  0  0  0  0  0  0  0  0999 V2000
   38.0960   24.6670   34.7810 C   0  0  0  0  0  0  0  0  0  0  0  0
   38.4160   23.8910   33.6070 C   0  0  0  0  0  0  0  0  0  0  0  0
   37.8060   24.9000   32.2390 S   0  0  0  0  0  0  0  0  0  0  0  0
   37.2090   26.2230   33.4770 C   0  0  0  0  0  0  0  0  0  0  0  0
   37.4970   25.7940   34.4790 N   0  0  0  0  0  0  0  0  0  0  0  0
   37.7420   24.5030   37.2310 C   0  0  0  0  0  0  0  0  0  0  0  0
   38.4640   24.1470   36.1020 C   0  0  0  0  0  0  0  0  0  0  0  0
   39.5490   23.2830   36.2800 C   0  0  0  0  0  0  0  0  0  0  0  0
   39.8290   22.8470   37.5420 N   0  0  0  0  0  0  0  0  0  0  0  0
   39.0970   23.2220   38.6110 C   0  0  0  0  0  0  0  0  0  0  0  0
   38.0500   24.0530   38.4470 N   0  0  0  0  0  0  0  0  0  0  0  0
   36.5280   27.4810   32.9620 C   0  0  0  0  0  0  0  0  0  0  0  0
   37.3530   28.1770   31.9300 C   0  0  0  0  0  0  0  0  0  0  0  0
   36.4320   29.2170   31.2960 C   0  0  0  0  0  0  0  0  0  0  0  0
   35.9190   30.1780   32.3200 C   0  0  0  0  0  0  0  0  0  0  0  0
   35.3570   29.5070   33.5420 C   0  0  0  0  0  0  0  0  0  0  0  0
   36.3210   28.4600   34.0970 C   0  0  0  0  0  0  0  0  0  0  0  0
   38.9155   22.9122   33.5570 H   0  0  0  0  0  0  0  0  0  0  0  0
   36.8836   25.1817   37.1188 H   0  0  0  0  0  0  0  0  0  0  0  0
   40.1613   22.9630   35.4240 H   0  0  0  0  0  0  0  0  0  0  0  0
   39.3544   22.8502   39.6137 H   0  0  0  0  0  0  0  0  0  0  0  0
   35.5711   27.1645   32.5213 H   0  0  0  0  0  0  0  0  0  0  0  0
   38.2195   28.6669   32.3983 H   0  0  0  0  0  0  0  0  0  0  0  0
   37.7454   27.4727   31.1817 H   0  0  0  0  0  0  0  0  0  0  0  0
   36.9921   29.7734   30.5300 H   0  0  0  0  0  0  0  0  0  0  0  0
   35.5744   28.6957   30.8458 H   0  0  0  0  0  0  0  0  0  0  0  0
   36.7478   30.8309   32.6311 H   0  0  0  0  0  0  0  0  0  0  0  0
   35.0977   30.7413   31.8530 H   0  0  0  0  0  0  0  0  0  0  0  0
   35.1716   30.2678   34.3145 H   0  0  0  0  0  0  0  0  0  0  0  0
   34.4220   29.0010   33.2596 H   0  0  0  0  0  0  0  0  0  0  0  0
   35.8822   27.9538   34.9695 H   0  0  0  0  0  0  0  0  0  0  0  0
   37.2672   28.9068   34.4362 H   0  0  0  0  0  0  0  0  0  0  0  0
  1  7  1  0
  2  1  2  0
  3  4  1  0
  3  2  1  0
  4  5  2  0
  5  1  1  0
  6 11  2  0
  7  8  2  0
  7  6  1  0
  8  9  1  0
  9 10  2  0
 11 10  1  0
 12  4  1  0
 12 17  1  0
 13 12  1  0
 14 13  1  0
 14 15  1  0
 15 16  1  0
 16 17  1  0
  2 18  1  0
  6 19  1  0
  8 20  1  0
 10 21  1  0
 12 22  1  0
 13 23  1  0
 13 24  1  0
 14 25  1  0
 14 26  1  0
 15 27  1  0
 15 28  1  0
 16 29  1  0
 16 30  1  0
 17 31  1  0
 17 32  1  0
M  ISO  8  18  14  19  14  20  14  21  14  22  13  23  13  24  13  25  13
M  ISO  7  26  13  27  13  28  13  29  13  30  13  31  13  32  13
M  END
>  <minimizedAffinity>  (1) 
-4.74850416

>  <minimizedRMSD>  (1) 
7.68002892

$$$$
