
     RDKit          3D

 27 30  0  0  0  0  0  0  0  0999 V2000
   38.2800   24.7460   35.8070 C   0  0  0  0  0  0  0  0  0  0  0  0
   37.4950   24.4470   36.9800 C   0  0  0  0  0  0  0  0  0  0  0  0
   38.5630   23.3200   37.9570 S   0  0  0  0  0  0  0  0  0  0  0  0
   39.8960   23.4380   36.6170 C   0  0  0  0  0  0  0  0  0  0  0  0
   39.4290   24.1240   35.8650 N   0  0  0  0  0  0  0  0  0  0  0  0
   41.1930   22.7710   36.6240 N   0  0  0  0  0  0  0  0  0  0  0  0
   41.3840   21.5660   37.1820 C   0  0  0  0  0  0  0  0  0  0  0  0
   42.6730   21.2060   37.0370 N   0  0  0  0  0  0  0  0  0  0  0  0
   43.3110   22.1960   36.3780 C   0  0  0  0  0  0  0  0  0  0  0  0
   44.6230   22.4070   35.9380 C   0  0  0  0  0  0  0  0  0  0  0  0
   44.9530   23.5540   35.2770 N   0  0  0  0  0  0  0  0  0  0  0  0
   43.9740   24.4710   35.0630 C   0  0  0  0  0  0  0  0  0  0  0  0
   42.7010   24.2870   35.4790 N   0  0  0  0  0  0  0  0  0  0  0  0
   42.3720   23.1750   36.1220 C   0  0  0  0  0  0  0  0  0  0  0  0
   37.6540   25.1940   33.4680 C   0  0  0  0  0  0  0  0  0  0  0  0
   37.7290   25.6330   34.7880 C   0  0  0  0  0  0  0  0  0  0  0  0
   37.2650   26.9170   35.0810 C   0  0  0  0  0  0  0  0  0  0  0  0
   36.7660   27.6790   34.0880 N   0  0  0  0  0  0  0  0  0  0  0  0
   36.7070   27.2230   32.8120 C   0  0  0  0  0  0  0  0  0  0  0  0
   37.1500   25.9910   32.5140 N   0  0  0  0  0  0  0  0  0  0  0  0
   36.4878   24.8111   37.2308 H   0  0  0  0  0  0  0  0  0  0  0  0
   40.6084   20.9658   37.6802 H   0  0  0  0  0  0  0  0  0  0  0  0
   45.3923   21.6437   36.1262 H   0  0  0  0  0  0  0  0  0  0  0  0
   44.2269   25.3996   34.5304 H   0  0  0  0  0  0  0  0  0  0  0  0
   38.0105   24.1868   33.2062 H   0  0  0  0  0  0  0  0  0  0  0  0
   37.3064   27.3020   36.1106 H   0  0  0  0  0  0  0  0  0  0  0  0
   36.2950   27.8644   32.0189 H   0  0  0  0  0  0  0  0  0  0  0  0
  1  5  1  0
  1  2  2  0
  2  3  1  0
  4  6  1  0
  4  3  1  0
  5  4  2  0
  6  7  1  0
  8  7  2  0
  9  8  1  0
 10  9  2  0
 11 10  1  0
 12 11  2  0
 12 13  1  0
 13 14  2  0
 14  9  1  0
 14  6  1  0
 15 16  2  0
 16 17  1  0
 16  1  1  0
 18 17  2  0
 19 18  1  0
 20 19  2  0
 20 15  1  0
  2 21  1  0
  7 22  1  0
 10 23  1  0
 12 24  1  0
 15 25  1  0
 17 26  1  0
 19 27  1  0
M  ISO  7  21  14  22  14  23  14  24  14  25  14  26  14  27  14
M  END
>  <minimizedAffinity>  (1) 
-4.71467447

>  <minimizedRMSD>  (1) 
1.36298883

$$$$
