
     RDKit          3D

 29 31  0  0  0  0  0  0  0  0999 V2000
   38.2890   24.7850   35.6870 C   0  0  0  0  0  0  0  0  0  0  0  0
   37.5500   24.4720   36.8770 C   0  0  0  0  0  0  0  0  0  0  0  0
   38.6660   23.3310   37.7870 S   0  0  0  0  0  0  0  0  0  0  0  0
   39.9390   23.4790   36.3940 C   0  0  0  0  0  0  0  0  0  0  0  0
   39.4480   24.1750   35.6680 N   0  0  0  0  0  0  0  0  0  0  0  0
   41.1920   22.7570   36.4780 N   0  0  0  0  0  0  0  0  0  0  0  0
   41.2660   21.7140   37.4500 C   0  0  0  0  0  0  0  0  0  0  0  0
   42.3900   20.7380   37.1940 C   0  0  0  0  0  0  0  0  0  0  0  0
   43.4750   21.3100   36.5280 O   0  0  0  0  0  0  0  0  0  0  0  0
   43.0080   21.7730   35.3000 C   0  0  0  0  0  0  0  0  0  0  0  0
   42.3060   23.0950   35.6050 C   0  0  0  0  0  0  0  0  0  0  0  0
   37.5870   25.3000   33.3640 C   0  0  0  0  0  0  0  0  0  0  0  0
   37.7080   25.6900   34.6910 C   0  0  0  0  0  0  0  0  0  0  0  0
   37.2530   26.9700   35.0210 C   0  0  0  0  0  0  0  0  0  0  0  0
   36.7260   27.7580   34.0490 N   0  0  0  0  0  0  0  0  0  0  0  0
   36.6340   27.3190   32.7580 C   0  0  0  0  0  0  0  0  0  0  0  0
   37.0630   26.1040   32.4380 N   0  0  0  0  0  0  0  0  0  0  0  0
   36.5530   24.8300   37.1735 H   0  0  0  0  0  0  0  0  0  0  0  0
   41.4174   22.1692   38.4399 H   0  0  0  0  0  0  0  0  0  0  0  0
   40.3241   21.1486   37.3938 H   0  0  0  0  0  0  0  0  0  0  0  0
   42.7401   20.3468   38.1607 H   0  0  0  0  0  0  0  0  0  0  0  0
   41.9912   19.9435   36.5462 H   0  0  0  0  0  0  0  0  0  0  0  0
   42.3006   21.0539   34.8614 H   0  0  0  0  0  0  0  0  0  0  0  0
   43.8244   21.9014   34.5740 H   0  0  0  0  0  0  0  0  0  0  0  0
   42.9946   23.7868   36.1122 H   0  0  0  0  0  0  0  0  0  0  0  0
   41.9648   23.5949   34.6865 H   0  0  0  0  0  0  0  0  0  0  0  0
   37.9334   24.2988   33.0679 H   0  0  0  0  0  0  0  0  0  0  0  0
   37.3212   27.3347   36.0565 H   0  0  0  0  0  0  0  0  0  0  0  0
   36.2046   27.9723   31.9841 H   0  0  0  0  0  0  0  0  0  0  0  0
  1  2  2  0
  2  3  1  0
  4  6  1  0
  4  3  1  0
  5  1  1  0
  5  4  2  0
  6  7  1  0
  8  7  1  0
  9  8  1  0
 10 11  1  0
 10  9  1  0
 11  6  1  0
 12 13  2  0
 13 14  1  0
 13  1  1  0
 15 14  2  0
 16 15  1  0
 17 16  2  0
 17 12  1  0
  2 18  1  0
  7 19  1  0
  7 20  1  0
  8 21  1  0
  8 22  1  0
 10 23  1  0
 10 24  1  0
 11 25  1  0
 11 26  1  0
 12 27  1  0
 14 28  1  0
 16 29  1  0
M  ISO  8  18  14  19  13  20  13  21  13  22  13  23  13  24  13  25  13
M  ISO  4  26  13  27  14  28  14  29  14
M  END
>  <minimizedAffinity>  (1) 
-4.27385092

>  <minimizedRMSD>  (1) 
1.18009222

$$$$
