
     RDKit          3D

 18 19  0  0  0  0  0  0  0  0999 V2000
   38.0230   24.6260   33.8060 C   0  0  0  0  0  0  0  0  0  0  0  0
   37.9590   25.1560   35.0880 C   0  0  0  0  0  0  0  0  0  0  0  0
   37.4520   26.4490   35.2310 C   0  0  0  0  0  0  0  0  0  0  0  0
   37.0530   27.1090   34.1040 N   0  0  0  0  0  0  0  0  0  0  0  0
   37.1350   26.5530   32.8770 C   0  0  0  0  0  0  0  0  0  0  0  0
   37.6190   25.3170   32.7480 N   0  0  0  0  0  0  0  0  0  0  0  0
   38.4070   24.3820   36.2500 C   0  0  0  0  0  0  0  0  0  0  0  0
   37.7690   24.5330   37.5140 C   0  0  0  0  0  0  0  0  0  0  0  0
   38.6620   23.3880   38.6210 S   0  0  0  0  0  0  0  0  0  0  0  0
   39.7700   22.8840   37.1710 C   0  0  0  0  0  0  0  0  0  0  0  0
   39.3820   23.5020   36.3200 N   0  0  0  0  0  0  0  0  0  0  0  0
   40.8640   21.9090   37.2120 N   0  0  0  0  0  0  0  0  0  0  0  0
   38.4180   23.6092   33.6644 H   0  0  0  0  0  0  0  0  0  0  0  0
   37.3762   26.9217   36.2214 H   0  0  0  0  0  0  0  0  0  0  0  0
   36.8053   27.1147   31.9906 H   0  0  0  0  0  0  0  0  0  0  0  0
   36.9259   25.1926   37.7672 H   0  0  0  0  0  0  0  0  0  0  0  0
   41.4069   21.7079   36.3601 H   0  0  0  0  0  0  0  0  0  0  0  0
   41.0898   21.4250   38.0927 H   0  0  0  0  0  0  0  0  0  0  0  0
  1  2  2  0
  2  3  1  0
  2  7  1  0
  4  3  2  0
  5  4  1  0
  6  5  2  0
  6  1  1  0
  7 11  1  0
  7  8  2  0
  8  9  1  0
 10 12  1  0
 10  9  1  0
 11 10  2  0
  1 13  1  0
  3 14  1  0
  5 15  1  0
  8 16  1  0
 12 17  1  0
 12 18  1  0
M  ISO  4  13  14  14  14  15  14  16  14
M  END
>  <minimizedAffinity>  (1) 
-3.42239261

>  <minimizedRMSD>  (1) 
0.161451653

$$$$
