
     RDKit          3D

 43 45  0  0  1  0  0  0  0  0999 V2000
   36.1960   29.4950   32.4120 C   0  0  0  0  0  0  0  0  0  0  0  0
   36.9430   28.5300   31.7810 C   0  0  0  0  0  0  0  0  0  0  0  0
   37.2940   27.3930   32.5100 C   0  0  0  0  0  0  0  0  0  0  0  0
   36.8900   27.2670   33.8290 C   0  0  0  0  0  0  0  0  0  0  0  0
   36.1490   28.2260   34.4530 C   0  0  0  0  0  0  0  0  0  0  0  0
   35.7950   29.3520   33.7470 C   0  0  0  0  0  0  0  0  0  0  0  0
   37.3630   25.9910   34.4270 C   0  0  0  0  0  0  0  0  0  0  0  0
   38.7670   26.0400   34.9170 C   0  0  2  0  0  0  0  0  0  0  0  0
   40.7200   23.1810   36.1100 C   0  0  0  0  0  0  0  0  0  0  0  0
   39.9130   22.6500   37.1680 C   0  0  0  0  0  0  0  0  0  0  0  0
   38.6890   23.2930   37.4580 C   0  0  0  0  0  0  0  0  0  0  0  0
   38.3620   24.3870   36.6990 N   0  0  0  0  0  0  0  0  0  0  0  0
   39.1500   24.8610   35.7070 C   0  0  0  0  0  0  0  0  0  0  0  0
   40.3300   24.2650   35.4050 N   0  0  0  0  0  0  0  0  0  0  0  0
   38.9150   27.2760   35.8210 C   0  0  0  0  0  0  0  0  0  0  0  0
   35.7430   30.9340   31.5140 S   0  0  0  0  0  0  0  0  0  0  0  0
   36.2920   30.7650   30.1000 O   0  0  0  0  0  0  0  0  0  0  0  0
   36.3430   32.1580   32.1080 O   0  0  0  0  0  0  0  0  0  0  0  0
   34.0100   31.0930   31.4440 C   0  0  0  0  0  0  0  0  0  0  0  0
   32.9880   30.5040   32.0800 N   0  0  0  0  0  0  0  0  0  0  0  0
   31.8570   30.9890   31.6560 O   0  0  0  0  0  0  0  0  0  0  0  0
   32.0880   31.9020   30.7390 C   0  0  0  0  0  0  0  0  0  0  0  0
   33.4020   31.9630   30.6120 N   0  0  0  0  0  0  0  0  0  0  0  0
   30.9700   32.6300   30.0750 C   0  0  0  0  0  0  0  0  0  0  0  0
   30.8110   31.9420   28.7130 C   0  0  0  0  0  0  0  0  0  0  0  0
   37.2550   28.6499   30.7330 H   0  0  0  0  0  0  0  0  0  0  0  0
   37.8904   26.5983   32.0381 H   0  0  0  0  0  0  0  0  0  0  0  0
   35.8400   28.1017   35.5014 H   0  0  0  0  0  0  0  0  0  0  0  0
   35.1977   30.1395   34.2298 H   0  0  0  0  0  0  0  0  0  0  0  0
   36.7084   25.7422   35.2753 H   0  0  0  0  0  0  0  0  0  0  0  0
   37.3284   25.2326   33.6310 H   0  0  0  0  0  0  0  0  0  0  0  0
   39.4196   26.0751   34.0322 H   0  0  0  0  0  0  0  0  0  0  0  0
   41.6769   22.6959   35.8669 H   0  0  0  0  0  0  0  0  0  0  0  0
   40.2372   21.7669   37.7382 H   0  0  0  0  0  0  0  0  0  0  0  0
   38.0267   22.9315   38.2584 H   0  0  0  0  0  0  0  0  0  0  0  0
   38.8778   26.9655   36.8756 H   0  0  0  0  0  0  0  0  0  0  0  0
   39.8783   27.7663   35.6169 H   0  0  0  0  0  0  0  0  0  0  0  0
   38.0947   27.9799   35.6169 H   0  0  0  0  0  0  0  0  0  0  0  0
   30.0455   32.5416   30.6644 H   0  0  0  0  0  0  0  0  0  0  0  0
   31.1751   33.7062   29.9760 H   0  0  0  0  0  0  0  0  0  0  0  0
   30.5657   30.8805   28.8648 H   0  0  0  0  0  0  0  0  0  0  0  0
   30.0016   32.4283   28.1488 H   0  0  0  0  0  0  0  0  0  0  0  0
   31.7517   32.0239   28.1488 H   0  0  0  0  0  0  0  0  0  0  0  0
  1  6  1  0
  2  1  2  0
  2  3  1  0
  3  4  2  0
  4  7  1  0
  4  5  1  0
  6  5  2  0
  7  8  1  0
  8 13  1  0
  8 15  1  0
  9 10  2  0
 10 11  1  0
 12 11  2  0
 13 12  1  0
 14 13  2  0
 14  9  1  0
 16 18  2  0
 16  1  1  0
 17 16  2  0
 19 16  1  0
 19 20  2  0
 21 20  1  0
 22 21  1  0
 23 22  2  0
 23 19  1  0
 24 22  1  0
 25 24  1  0
  2 26  1  0
  3 27  1  0
  5 28  1  0
  6 29  1  0
  7 30  1  0
  7 31  1  0
  8 32  1  6
  9 33  1  0
 10 34  1  0
 11 35  1  0
 15 36  1  0
 15 37  1  0
 15 38  1  0
 24 39  1  0
 24 40  1  0
 25 41  1  0
 25 42  1  0
 25 43  1  0
M  ISO  8  26  14  27  14  28  14  29  14  30   8  31   8  32   8  33  14
M  ISO  8  34  14  35  14  36   8  37   8  38   8  39   8  40   8  41   8
M  ISO  2  42   8  43   8
M  END
>  <minimizedAffinity>  (1) 
-5.08960485

>  <minimizedRMSD>  (1) 
0.432801694

$$$$
