
     RDKit          3D

 37 41  0  0  0  0  0  0  0  0999 V2000
   37.6420   25.3460   33.8480 C   0  0  0  0  0  0  0  0  0  0  0  0
   37.9570   25.6920   35.1670 C   0  0  0  0  0  0  0  0  0  0  0  0
   37.6630   26.9780   35.5970 C   0  0  0  0  0  0  0  0  0  0  0  0
   37.0820   27.8410   34.7090 N   0  0  0  0  0  0  0  0  0  0  0  0
   36.7910   27.4780   33.4460 C   0  0  0  0  0  0  0  0  0  0  0  0
   37.0770   26.2250   33.0280 N   0  0  0  0  0  0  0  0  0  0  0  0
   36.1820   28.4570   32.5950 N   0  0  0  0  0  0  0  0  0  0  0  0
   36.5860   28.7180   31.3320 C   0  0  0  0  0  0  0  0  0  0  0  0
   35.7750   29.6870   30.8730 N   0  0  0  0  0  0  0  0  0  0  0  0
   34.8810   30.0330   31.8170 C   0  0  0  0  0  0  0  0  0  0  0  0
   33.8580   30.9760   31.7990 C   0  0  0  0  0  0  0  0  0  0  0  0
   33.6030   31.7040   30.8050 O   0  0  0  0  0  0  0  0  0  0  0  0
   33.1540   31.0490   32.9440 N   0  0  0  0  0  0  0  0  0  0  0  0
   33.3680   30.3050   34.0430 C   0  0  0  0  0  0  0  0  0  0  0  0
   32.5690   30.4580   35.1990 N   0  0  0  0  0  0  0  0  0  0  0  0
   34.3790   29.3990   34.0100 N   0  0  0  0  0  0  0  0  0  0  0  0
   35.1450   29.2430   32.9190 C   0  0  0  0  0  0  0  0  0  0  0  0
   38.5760   24.7010   36.0410 C   0  0  0  0  0  0  0  0  0  0  0  0
   37.8860   24.2260   37.2010 C   0  0  0  0  0  0  0  0  0  0  0  0
   39.0170   23.0320   37.9650 S   0  0  0  0  0  0  0  0  0  0  0  0
   40.2810   23.3570   36.5790 C   0  0  0  0  0  0  0  0  0  0  0  0
   39.7420   24.1120   35.9660 N   0  0  0  0  0  0  0  0  0  0  0  0
   41.5910   22.7430   36.4280 N   0  0  0  0  0  0  0  0  0  0  0  0
   41.7780   21.4280   36.6300 C   0  0  0  0  0  0  0  0  0  0  0  0
   43.1380   21.1830   36.4020 C   0  0  0  0  0  0  0  0  0  0  0  0
   43.6890   22.3800   36.0730 N   0  0  0  0  0  0  0  0  0  0  0  0
   42.7520   23.3510   36.0840 C   0  0  0  0  0  0  0  0  0  0  0  0
   37.8655   24.3318   33.4853 H   0  0  0  0  0  0  0  0  0  0  0  0
   37.8912   27.2952   36.6252 H   0  0  0  0  0  0  0  0  0  0  0  0
   37.4118   28.2350   30.7891 H   0  0  0  0  0  0  0  0  0  0  0  0
   32.3854   31.7337   32.9813 H   0  0  0  0  0  0  0  0  0  0  0  0
   32.7499   29.8777   36.0306 H   0  0  0  0  0  0  0  0  0  0  0  0
   31.8059   31.1497   35.2098 H   0  0  0  0  0  0  0  0  0  0  0  0
   36.8865   24.5211   37.5529 H   0  0  0  0  0  0  0  0  0  0  0  0
   41.0145   20.6902   36.9174 H   0  0  0  0  0  0  0  0  0  0  0  0
   43.6559   20.2153   36.4748 H   0  0  0  0  0  0  0  0  0  0  0  0
   42.9003   24.4176   35.8597 H   0  0  0  0  0  0  0  0  0  0  0  0
  1  2  2  0
  2  3  1  0
  2 18  1  0
  4  3  2  0
  5  4  1  0
  6  5  2  0
  6  1  1  0
  7 17  1  0
  7  5  1  0
  8  7  1  0
  9  8  2  0
  9 10  1  0
 10 17  2  0
 11 10  1  0
 11 13  1  0
 12 11  2  0
 13 14  1  0
 14 15  1  0
 16 14  2  0
 17 16  1  0
 18 19  2  0
 19 20  1  0
 21 20  1  0
 22 18  1  0
 22 21  2  0
 23 21  1  0
 23 24  1  0
 25 24  2  0
 26 27  2  0
 26 25  1  0
 27 23  1  0
  1 28  1  0
  3 29  1  0
  8 30  1  0
 13 31  1  0
 15 32  1  0
 15 33  1  0
 19 34  1  0
 24 35  1  0
 25 36  1  0
 27 37  1  0
M  ISO  8  28  14  29  14  30  14  31   9  34  14  35  14  36  14  37  14
M  END
>  <minimizedAffinity>  (1) 
-6.0731926

>  <minimizedRMSD>  (1) 
1.02750719

$$$$
