
     RDKit          3D

 33 36  0  0  0  0  0  0  0  0999 V2000
   37.7060   25.3360   33.9980 C   0  0  0  0  0  0  0  0  0  0  0  0
   38.0220   25.6870   35.3070 C   0  0  0  0  0  0  0  0  0  0  0  0
   37.8170   27.0130   35.6720 C   0  0  0  0  0  0  0  0  0  0  0  0
   37.3270   27.8950   34.7560 N   0  0  0  0  0  0  0  0  0  0  0  0
   37.0350   27.4890   33.4850 C   0  0  0  0  0  0  0  0  0  0  0  0
   37.2310   26.2040   33.1220 N   0  0  0  0  0  0  0  0  0  0  0  0
   38.5420   24.7090   36.2420 C   0  0  0  0  0  0  0  0  0  0  0  0
   37.8180   24.3550   37.4140 C   0  0  0  0  0  0  0  0  0  0  0  0
   38.8520   23.1170   38.2520 S   0  0  0  0  0  0  0  0  0  0  0  0
   40.1320   23.2670   36.8670 C   0  0  0  0  0  0  0  0  0  0  0  0
   39.6620   24.0250   36.2050 N   0  0  0  0  0  0  0  0  0  0  0  0
   41.4050   22.5430   36.7480 N   0  0  0  0  0  0  0  0  0  0  0  0
   41.4750   21.2180   37.0190 C   0  0  0  0  0  0  0  0  0  0  0  0
   42.8170   20.8660   36.8050 C   0  0  0  0  0  0  0  0  0  0  0  0
   43.4590   21.9900   36.4230 N   0  0  0  0  0  0  0  0  0  0  0  0
   42.5980   23.0240   36.3860 C   0  0  0  0  0  0  0  0  0  0  0  0
   36.5120   28.4910   32.5590 C   0  0  0  0  0  0  0  0  0  0  0  0
   36.9970   28.5200   31.2800 C   0  0  0  0  0  0  0  0  0  0  0  0
   36.4710   29.4820   30.4510 C   0  0  0  0  0  0  0  0  0  0  0  0
   35.5010   30.3740   30.8920 C   0  0  0  0  0  0  0  0  0  0  0  0
   35.0290   30.3260   32.1770 C   0  0  0  0  0  0  0  0  0  0  0  0
   35.5530   29.3530   33.0370 C   0  0  0  0  0  0  0  0  0  0  0  0
   37.8577   24.2941   33.6796 H   0  0  0  0  0  0  0  0  0  0  0  0
   38.0489   27.3479   36.6938 H   0  0  0  0  0  0  0  0  0  0  0  0
   36.8435   24.7457   37.7422 H   0  0  0  0  0  0  0  0  0  0  0  0
   40.6550   20.5582   37.3387 H   0  0  0  0  0  0  0  0  0  0  0  0
   43.2601   19.8664   36.9255 H   0  0  0  0  0  0  0  0  0  0  0  0
   42.8312   24.0633   36.1111 H   0  0  0  0  0  0  0  0  0  0  0  0
   37.7653   27.8127   30.9343 H   0  0  0  0  0  0  0  0  0  0  0  0
   36.8269   29.5474   29.4122 H   0  0  0  0  0  0  0  0  0  0  0  0
   35.1059   31.1306   30.1982 H   0  0  0  0  0  0  0  0  0  0  0  0
   34.2599   31.0320   32.5236 H   0  0  0  0  0  0  0  0  0  0  0  0
   35.2034   29.2794   34.0774 H   0  0  0  0  0  0  0  0  0  0  0  0
  1  2  2  0
  2  3  1  0
  2  7  1  0
  4  3  2  0
  5  4  1  0
  6  5  2  0
  6  1  1  0
  7  8  2  0
  8  9  1  0
 10  9  1  0
 11  7  1  0
 11 10  2  0
 12 10  1  0
 12 13  1  0
 14 13  2  0
 15 14  1  0
 16 15  2  0
 16 12  1  0
 17 22  1  0
 17  5  1  0
 18 17  2  0
 19 20  2  0
 19 18  1  0
 20 21  1  0
 21 22  2  0
  1 23  1  0
  3 24  1  0
  8 25  1  0
 13 26  1  0
 14 27  1  0
 16 28  1  0
 18 29  1  0
 19 30  1  0
 20 31  1  0
 21 32  1  0
 22 33  1  0
M  ISO  8  23  14  24  14  25  14  26  14  27  14  28  14  29  14  30  14
M  ISO  3  31  14  32  14  33  14
M  END
>  <minimizedAffinity>  (1) 
-5.29480267

>  <minimizedRMSD>  (1) 
0.851339102

$$$$
