
     RDKit          3D

 24 26  0  0  0  0  0  0  0  0999 V2000
   38.6630   24.7390   34.8740 N   0  0  0  0  0  0  0  0  0  0  0  0
   39.6310   24.0020   34.2510 C   0  0  0  0  0  0  0  0  0  0  0  0
   40.1690   23.1480   35.1680 N   0  0  0  0  0  0  0  0  0  0  0  0
   39.5540   23.3470   36.3240 C   0  0  0  0  0  0  0  0  0  0  0  0
   39.6360   22.8150   37.6040 C   0  0  0  0  0  0  0  0  0  0  0  0
   38.8630   23.2130   38.6440 N   0  0  0  0  0  0  0  0  0  0  0  0
   37.9470   24.1960   38.4240 C   0  0  0  0  0  0  0  0  0  0  0  0
   37.8400   24.7350   37.1930 N   0  0  0  0  0  0  0  0  0  0  0  0
   38.6090   24.3340   36.1750 C   0  0  0  0  0  0  0  0  0  0  0  0
   37.6770   26.9520   34.9250 C   0  0  0  0  0  0  0  0  0  0  0  0
   37.8770   25.7400   34.2380 C   0  0  0  0  0  0  0  0  0  0  0  0
   37.2970   25.5980   32.9880 C   0  0  0  0  0  0  0  0  0  0  0  0
   36.5610   26.6410   32.4860 N   0  0  0  0  0  0  0  0  0  0  0  0
   36.3920   27.7770   33.1650 C   0  0  0  0  0  0  0  0  0  0  0  0
   36.9500   27.9220   34.3730 N   0  0  0  0  0  0  0  0  0  0  0  0
   35.3910   28.9590   32.2700 S   0  0  0  0  0  0  0  0  0  0  0  0
   40.5880   21.7840   37.8620 N   0  0  0  0  0  0  0  0  0  0  0  0
   39.9248   24.0835   33.1941 H   0  0  0  0  0  0  0  0  0  0  0  0
   37.3009   24.5468   39.2423 H   0  0  0  0  0  0  0  0  0  0  0  0
   38.1221   27.0985   35.9202 H   0  0  0  0  0  0  0  0  0  0  0  0
   37.4238   24.6700   32.4112 H   0  0  0  0  0  0  0  0  0  0  0  0
   34.7178   29.7539   33.1599 H   0  0  0  0  0  0  0  0  0  0  0  0
   40.6635   21.3771   38.8052 H   0  0  0  0  0  0  0  0  0  0  0  0
   41.1997   21.4467   37.1051 H   0  0  0  0  0  0  0  0  0  0  0  0
  1  9  1  0
  2  1  1  0
  2  3  2  0
  3  4  1  0
  4  5  2  0
  5 17  1  0
  5  6  1  0
  7  6  2  0
  8  7  1  0
  9  4  1  0
  9  8  2  0
 11  1  1  0
 11 10  2  0
 12 11  1  0
 13 12  2  0
 13 14  1  0
 14 15  2  0
 15 10  1  0
 16 14  1  0
  2 18  1  0
  7 19  1  0
 10 20  1  0
 12 21  1  0
 16 22  1  0
 17 23  1  0
 17 24  1  0
M  ISO  5  18  14  19  14  20  14  21  14  22  11
M  END
>  <minimizedAffinity>  (1) 
-5.25829887

>  <minimizedRMSD>  (1) 
0.580582857

$$$$
