
     RDKit          3D

 30 33  0  0  0  0  0  0  0  0999 V2000
   37.7130   25.4150   33.8560 C   0  0  0  0  0  0  0  0  0  0  0  0
   37.9500   25.7720   35.1870 C   0  0  0  0  0  0  0  0  0  0  0  0
   37.6970   27.0880   35.5490 C   0  0  0  0  0  0  0  0  0  0  0  0
   37.2370   27.9560   34.6040 N   0  0  0  0  0  0  0  0  0  0  0  0
   37.0220   27.5670   33.3300 C   0  0  0  0  0  0  0  0  0  0  0  0
   37.2640   26.2970   32.9700 N   0  0  0  0  0  0  0  0  0  0  0  0
   36.5430   28.4490   32.3260 N   0  0  0  0  0  0  0  0  0  0  0  0
   35.5570   29.3300   32.2750 N   0  0  0  0  0  0  0  0  0  0  0  0
   35.5270   29.9180   31.0610 C   0  0  0  0  0  0  0  0  0  0  0  0
   36.5530   29.3760   30.3070 C   0  0  0  0  0  0  0  0  0  0  0  0
   37.1720   28.4590   31.1250 C   0  0  0  0  0  0  0  0  0  0  0  0
   38.4430   24.7840   36.1400 C   0  0  0  0  0  0  0  0  0  0  0  0
   37.6740   24.4170   37.2690 C   0  0  0  0  0  0  0  0  0  0  0  0
   38.6770   23.1840   38.1430 S   0  0  0  0  0  0  0  0  0  0  0  0
   40.0270   23.3520   36.8130 C   0  0  0  0  0  0  0  0  0  0  0  0
   39.5800   24.1160   36.1280 N   0  0  0  0  0  0  0  0  0  0  0  0
   41.2990   22.6400   36.7510 N   0  0  0  0  0  0  0  0  0  0  0  0
   41.3740   21.3290   37.0150 C   0  0  0  0  0  0  0  0  0  0  0  0
   42.7190   20.9740   36.8660 C   0  0  0  0  0  0  0  0  0  0  0  0
   43.3710   22.0940   36.5230 N   0  0  0  0  0  0  0  0  0  0  0  0
   42.5150   23.1470   36.4440 C   0  0  0  0  0  0  0  0  0  0  0  0
   37.9027   24.3800   33.5353 H   0  0  0  0  0  0  0  0  0  0  0  0
   37.8651   27.4252   36.5825 H   0  0  0  0  0  0  0  0  0  0  0  0
   34.8155   30.6890   30.7303 H   0  0  0  0  0  0  0  0  0  0  0  0
   36.8185   29.6263   29.2693 H   0  0  0  0  0  0  0  0  0  0  0  0
   38.0358   27.8360   30.8496 H   0  0  0  0  0  0  0  0  0  0  0  0
   36.6822   24.7971   37.5551 H   0  0  0  0  0  0  0  0  0  0  0  0
   40.5434   20.6638   37.2935 H   0  0  0  0  0  0  0  0  0  0  0  0
   43.1553   19.9736   37.0032 H   0  0  0  0  0  0  0  0  0  0  0  0
   42.7588   24.1881   36.1858 H   0  0  0  0  0  0  0  0  0  0  0  0
  1  2  2  0
  2  3  1  0
  2 12  1  0
  4  3  2  0
  5  4  1  0
  6  5  2  0
  6  1  1  0
  7  5  1  0
  8  7  1  0
  9  8  2  0
 10  9  1  0
 10 11  2  0
 11  7  1  0
 12 13  2  0
 13 14  1  0
 15 14  1  0
 16 12  1  0
 16 15  2  0
 17 15  1  0
 17 18  1  0
 19 18  2  0
 20 19  1  0
 21 20  2  0
 21 17  1  0
  1 22  1  0
  3 23  1  0
  9 24  1  0
 10 25  1  0
 11 26  1  0
 13 27  1  0
 18 28  1  0
 19 29  1  0
 21 30  1  0
M  ISO  8  22  14  23  14  24  14  25  14  26  14  27  14  28  14  29  14
M  ISO  1  30  14
M  END
>  <minimizedAffinity>  (1) 
-5.1789465

>  <minimizedRMSD>  (1) 
0.610598505

$$$$
