
     RDKit          3D

 30 33  0  0  0  0  0  0  0  0999 V2000
   38.4330   24.7350   36.0470 C   0  0  0  0  0  0  0  0  0  0  0  0
   37.6660   24.3790   37.2020 C   0  0  0  0  0  0  0  0  0  0  0  0
   38.7000   23.1840   38.0910 S   0  0  0  0  0  0  0  0  0  0  0  0
   40.0360   23.3510   36.7450 C   0  0  0  0  0  0  0  0  0  0  0  0
   39.5710   24.0910   36.0480 N   0  0  0  0  0  0  0  0  0  0  0  0
   41.3180   22.6640   36.6900 N   0  0  0  0  0  0  0  0  0  0  0  0
   41.4200   21.3460   36.9700 C   0  0  0  0  0  0  0  0  0  0  0  0
   42.7810   21.0300   36.8180 C   0  0  0  0  0  0  0  0  0  0  0  0
   43.4100   22.1800   36.4560 N   0  0  0  0  0  0  0  0  0  0  0  0
   42.5230   23.1970   36.3720 C   0  0  0  0  0  0  0  0  0  0  0  0
   37.6970   25.2960   33.7540 C   0  0  0  0  0  0  0  0  0  0  0  0
   37.9010   25.6990   35.0790 C   0  0  0  0  0  0  0  0  0  0  0  0
   37.5890   27.0050   35.4280 C   0  0  0  0  0  0  0  0  0  0  0  0
   37.0980   27.8340   34.4630 N   0  0  0  0  0  0  0  0  0  0  0  0
   36.9110   27.4160   33.1920 C   0  0  0  0  0  0  0  0  0  0  0  0
   37.2130   26.1580   32.8600 N   0  0  0  0  0  0  0  0  0  0  0  0
   36.3770   28.4670   32.3310 C   0  0  0  0  0  0  0  0  0  0  0  0
   35.2970   29.3310   32.2670 C   0  0  0  0  0  0  0  0  0  0  0  0
   35.4460   30.0930   31.1050 C   0  0  0  0  0  0  0  0  0  0  0  0
   36.6140   29.6420   30.5310 C   0  0  0  0  0  0  0  0  0  0  0  0
   37.1330   28.6950   31.2720 O   0  0  0  0  0  0  0  0  0  0  0  0
   36.6699   24.7486   37.4871 H   0  0  0  0  0  0  0  0  0  0  0  0
   40.6071   20.6627   37.2571 H   0  0  0  0  0  0  0  0  0  0  0  0
   43.2468   20.0442   36.9636 H   0  0  0  0  0  0  0  0  0  0  0  0
   42.7355   24.2418   36.1013 H   0  0  0  0  0  0  0  0  0  0  0  0
   37.9365   24.2663   33.4502 H   0  0  0  0  0  0  0  0  0  0  0  0
   37.7341   27.3630   36.4579 H   0  0  0  0  0  0  0  0  0  0  0  0
   34.4753   29.4040   32.9947 H   0  0  0  0  0  0  0  0  0  0  0  0
   34.7764   30.8812   30.7304 H   0  0  0  0  0  0  0  0  0  0  0  0
   37.0455   30.0199   29.5924 H   0  0  0  0  0  0  0  0  0  0  0  0
  1  5  1  0
  1  2  2  0
  2  3  1  0
  4  3  1  0
  5  4  2  0
  6  4  1  0
  6  7  1  0
  8  7  2  0
  9  8  1  0
 10  9  2  0
 10  6  1  0
 11 12  2  0
 12 13  1  0
 12  1  1  0
 14 13  2  0
 15 14  1  0
 16 15  2  0
 16 11  1  0
 17 15  1  0
 18 17  2  0
 19 18  1  0
 20 19  2  0
 20 21  1  0
 21 17  1  0
  2 22  1  0
  7 23  1  0
  8 24  1  0
 10 25  1  0
 11 26  1  0
 13 27  1  0
 18 28  1  0
 19 29  1  0
 20 30  1  0
M  ISO  8  22  14  23  14  24  14  25  14  26  14  27  14  28  14  29  14
M  ISO  1  30  14
M  END
>  <minimizedAffinity>  (1) 
-5.03435993

>  <minimizedRMSD>  (1) 
0.441233993

$$$$
