
     RDKit          3D

 30 33  0  0  0  0  0  0  0  0999 V2000
   38.4450   24.7650   36.1280 C   0  0  0  0  0  0  0  0  0  0  0  0
   37.6650   24.4080   37.2760 C   0  0  0  0  0  0  0  0  0  0  0  0
   38.6830   23.1840   38.1570 S   0  0  0  0  0  0  0  0  0  0  0  0
   40.0240   23.3450   36.8210 C   0  0  0  0  0  0  0  0  0  0  0  0
   39.5670   24.0960   36.1410 N   0  0  0  0  0  0  0  0  0  0  0  0
   41.2980   22.6420   36.7570 N   0  0  0  0  0  0  0  0  0  0  0  0
   41.3750   21.3270   37.0290 C   0  0  0  0  0  0  0  0  0  0  0  0
   42.7210   20.9640   36.8790 C   0  0  0  0  0  0  0  0  0  0  0  0
   43.3670   22.0970   36.5230 N   0  0  0  0  0  0  0  0  0  0  0  0
   42.5080   23.1400   36.4440 C   0  0  0  0  0  0  0  0  0  0  0  0
   37.6830   25.3720   33.8590 C   0  0  0  0  0  0  0  0  0  0  0  0
   37.9410   25.7470   35.1610 C   0  0  0  0  0  0  0  0  0  0  0  0
   37.7120   27.0770   35.5410 C   0  0  0  0  0  0  0  0  0  0  0  0
   37.2390   27.9310   34.5790 N   0  0  0  0  0  0  0  0  0  0  0  0
   37.0010   27.5200   33.3190 C   0  0  0  0  0  0  0  0  0  0  0  0
   37.2240   26.2540   32.9710 N   0  0  0  0  0  0  0  0  0  0  0  0
   36.5050   28.5120   32.3870 C   0  0  0  0  0  0  0  0  0  0  0  0
   36.8950   28.9690   31.2000 C   0  0  0  0  0  0  0  0  0  0  0  0
   36.2160   29.9360   30.5300 C   0  0  0  0  0  0  0  0  0  0  0  0
   35.0110   30.4120   31.2680 C   0  0  0  0  0  0  0  0  0  0  0  0
   35.0660   29.3590   32.8360 S   0  0  0  0  0  0  0  0  0  0  0  0
   36.6730   24.7887   37.5608 H   0  0  0  0  0  0  0  0  0  0  0  0
   40.5438   20.6652   37.3137 H   0  0  0  0  0  0  0  0  0  0  0  0
   43.1599   19.9654   37.0213 H   0  0  0  0  0  0  0  0  0  0  0  0
   42.7493   24.1799   36.1787 H   0  0  0  0  0  0  0  0  0  0  0  0
   37.8583   24.3312   33.5492 H   0  0  0  0  0  0  0  0  0  0  0  0
   37.9039   27.4207   36.5682 H   0  0  0  0  0  0  0  0  0  0  0  0
   37.8026   28.5474   30.7434 H   0  0  0  0  0  0  0  0  0  0  0  0
   36.5223   30.3261   29.5482 H   0  0  0  0  0  0  0  0  0  0  0  0
   34.2786   31.1787   30.9751 H   0  0  0  0  0  0  0  0  0  0  0  0
  1  5  1  0
  1  2  2  0
  2  3  1  0
  4  3  1  0
  5  4  2  0
  6  4  1  0
  6  7  1  0
  8  7  2  0
  9  8  1  0
 10  9  2  0
 10  6  1  0
 11 12  2  0
 12 13  1  0
 12  1  1  0
 14 13  2  0
 15 14  1  0
 16 15  2  0
 16 11  1  0
 17 21  1  0
 17 15  1  0
 18 17  2  0
 19 18  1  0
 19 20  2  0
 20 21  1  0
  2 22  1  0
  7 23  1  0
  8 24  1  0
 10 25  1  0
 11 26  1  0
 13 27  1  0
 18 28  1  0
 19 29  1  0
 20 30  1  0
M  ISO  8  22  14  23  14  24  14  25  14  26  14  27  14  28  14  29  14
M  ISO  1  30  14
M  END
>  <minimizedAffinity>  (1) 
-5.01287889

>  <minimizedRMSD>  (1) 
0.850995243

$$$$
