
     RDKit          3D

 26 28  0  0  0  0  0  0  0  0999 V2000
   38.2900   24.6920   35.8680 C   0  0  0  0  0  0  0  0  0  0  0  0
   37.5340   24.4340   37.0550 C   0  0  0  0  0  0  0  0  0  0  0  0
   38.5860   23.3350   38.0420 S   0  0  0  0  0  0  0  0  0  0  0  0
   39.9120   23.3910   36.6780 C   0  0  0  0  0  0  0  0  0  0  0  0
   39.4370   24.0640   35.9140 N   0  0  0  0  0  0  0  0  0  0  0  0
   41.2010   22.7200   36.6690 N   0  0  0  0  0  0  0  0  0  0  0  0
   41.3280   21.4460   37.0790 C   0  0  0  0  0  0  0  0  0  0  0  0
   42.6660   21.1020   36.9490 C   0  0  0  0  0  0  0  0  0  0  0  0
   43.2760   22.1910   36.4660 N   0  0  0  0  0  0  0  0  0  0  0  0
   42.3900   23.2050   36.2850 C   0  0  0  0  0  0  0  0  0  0  0  0
   37.6870   25.1120   33.4990 C   0  0  0  0  0  0  0  0  0  0  0  0
   37.7490   25.5590   34.8140 C   0  0  0  0  0  0  0  0  0  0  0  0
   37.2870   26.8400   35.0910 C   0  0  0  0  0  0  0  0  0  0  0  0
   36.7960   27.5970   34.0720 N   0  0  0  0  0  0  0  0  0  0  0  0
   36.7490   27.1320   32.8090 C   0  0  0  0  0  0  0  0  0  0  0  0
   37.1960   25.8990   32.5450 N   0  0  0  0  0  0  0  0  0  0  0  0
   36.1990   28.0140   31.7380 C   0  0  0  0  0  0  0  0  0  0  0  0
   34.9550   28.4490   32.1470 F   0  0  0  0  0  0  0  0  0  0  0  0
   36.2140   27.4470   30.4980 F   0  0  0  0  0  0  0  0  0  0  0  0
   37.0210   29.1450   31.6900 F   0  0  0  0  0  0  0  0  0  0  0  0
   36.5355   24.8174   37.3120 H   0  0  0  0  0  0  0  0  0  0  0  0
   40.5209   20.7966   37.4490 H   0  0  0  0  0  0  0  0  0  0  0  0
   43.1294   20.1345   37.1925 H   0  0  0  0  0  0  0  0  0  0  0  0
   42.6040   24.2140   35.9028 H   0  0  0  0  0  0  0  0  0  0  0  0
   38.0454   24.1033   33.2461 H   0  0  0  0  0  0  0  0  0  0  0  0
   37.3176   27.2357   36.1169 H   0  0  0  0  0  0  0  0  0  0  0  0
  1  5  1  0
  1  2  2  0
  2  3  1  0
  4  3  1  0
  5  4  2  0
  6  4  1  0
  6  7  1  0
  8  7  2  0
  9  8  1  0
 10  9  2  0
 10  6  1  0
 11 12  2  0
 12 13  1  0
 12  1  1  0
 14 13  2  0
 15 14  1  0
 16 15  2  0
 16 11  1  0
 17 18  1  0
 17 15  1  0
 19 17  1  0
 20 17  1  0
  2 21  1  0
  7 22  1  0
  8 23  1  0
 10 24  1  0
 11 25  1  0
 13 26  1  0
M  ISO  6  21  14  22  14  23  14  24  14  25  14  26  14
M  END
>  <minimizedAffinity>  (1) 
-4.93308067

>  <minimizedRMSD>  (1) 
0.0802942961

$$$$
