
     RDKit          3D

 35 38  0  0  0  0  0  0  0  0999 V2000
   38.2990   24.6850   35.8900 C   0  0  0  0  0  0  0  0  0  0  0  0
   37.5520   24.4240   37.0660 C   0  0  0  0  0  0  0  0  0  0  0  0
   38.5900   23.3160   38.0580 S   0  0  0  0  0  0  0  0  0  0  0  0
   39.9160   23.3720   36.6990 C   0  0  0  0  0  0  0  0  0  0  0  0
   39.4480   24.0470   35.9380 N   0  0  0  0  0  0  0  0  0  0  0  0
   41.2050   22.6900   36.6930 N   0  0  0  0  0  0  0  0  0  0  0  0
   41.3310   21.4230   37.1060 C   0  0  0  0  0  0  0  0  0  0  0  0
   42.6810   21.0790   36.9720 C   0  0  0  0  0  0  0  0  0  0  0  0
   43.2930   22.1710   36.4800 N   0  0  0  0  0  0  0  0  0  0  0  0
   42.4010   23.1700   36.3020 C   0  0  0  0  0  0  0  0  0  0  0  0
   37.6970   25.1110   33.5220 C   0  0  0  0  0  0  0  0  0  0  0  0
   37.7700   25.5560   34.8390 C   0  0  0  0  0  0  0  0  0  0  0  0
   37.3270   26.8540   35.1350 C   0  0  0  0  0  0  0  0  0  0  0  0
   36.8440   27.6120   34.1050 N   0  0  0  0  0  0  0  0  0  0  0  0
   36.7930   27.1380   32.8450 C   0  0  0  0  0  0  0  0  0  0  0  0
   37.2140   25.9060   32.5610 N   0  0  0  0  0  0  0  0  0  0  0  0
   36.2750   28.0050   31.8410 N   0  0  0  0  0  0  0  0  0  0  0  0
   35.2740   29.0340   32.0620 C   0  0  0  0  0  0  0  0  0  0  0  0
   35.8240   30.1620   31.1860 C   0  0  0  0  0  0  0  0  0  0  0  0
   36.8930   29.5660   30.3160 C   0  0  0  0  0  0  0  0  0  0  0  0
   36.5990   28.0700   30.4270 C   0  0  0  0  0  0  0  0  0  0  0  0
   36.5548   24.8111   37.3224 H   0  0  0  0  0  0  0  0  0  0  0  0
   40.5253   20.7743   37.4802 H   0  0  0  0  0  0  0  0  0  0  0  0
   43.1463   20.1132   37.2186 H   0  0  0  0  0  0  0  0  0  0  0  0
   42.6105   24.1777   35.9139 H   0  0  0  0  0  0  0  0  0  0  0  0
   38.0396   24.0967   33.2695 H   0  0  0  0  0  0  0  0  0  0  0  0
   37.3670   27.2483   36.1611 H   0  0  0  0  0  0  0  0  0  0  0  0
   34.2783   28.7091   31.7257 H   0  0  0  0  0  0  0  0  0  0  0  0
   35.1271   29.3073   33.1173 H   0  0  0  0  0  0  0  0  0  0  0  0
   35.0205   30.5811   30.5625 H   0  0  0  0  0  0  0  0  0  0  0  0
   36.2318   30.9745   31.8053 H   0  0  0  0  0  0  0  0  0  0  0  0
   37.8970   29.8049   30.6967 H   0  0  0  0  0  0  0  0  0  0  0  0
   36.8842   29.9433   29.2828 H   0  0  0  0  0  0  0  0  0  0  0  0
   35.7503   27.7687   29.7954 H   0  0  0  0  0  0  0  0  0  0  0  0
   37.4093   27.4034   30.0968 H   0  0  0  0  0  0  0  0  0  0  0  0
  1  5  1  0
  1  2  2  0
  2  3  1  0
  4  3  1  0
  5  4  2  0
  6  4  1  0
  6  7  1  0
  8  7  2  0
  9  8  1  0
 10  9  2  0
 10  6  1  0
 11 12  2  0
 12 13  1  0
 12  1  1  0
 14 13  2  0
 15 14  1  0
 16 15  2  0
 16 11  1  0
 17 18  1  0
 17 15  1  0
 19 18  1  0
 20 21  1  0
 20 19  1  0
 21 17  1  0
  2 22  1  0
  7 23  1  0
  8 24  1  0
 10 25  1  0
 11 26  1  0
 13 27  1  0
 18 28  1  0
 18 29  1  0
 19 30  1  0
 19 31  1  0
 20 32  1  0
 20 33  1  0
 21 34  1  0
 21 35  1  0
M  ISO  8  22  14  23  14  24  14  25  14  26  14  27  14  28  13  29  13
M  ISO  6  30  13  31  13  32  13  33  13  34  13  35  13
M  END
>  <minimizedAffinity>  (1) 
-5.45609951

>  <minimizedRMSD>  (1) 
0.0454822443

$$$$
