
     RDKit          3D

 47 51  0  0  1  0  0  0  0  0999 V2000
   37.9420   25.0290   33.7150 C   0  0  0  0  0  0  0  0  0  0  0  0
   37.8710   25.4340   35.0440 C   0  0  0  0  0  0  0  0  0  0  0  0
   37.2650   26.6520   35.3390 C   0  0  0  0  0  0  0  0  0  0  0  0
   36.7700   27.3880   34.3010 N   0  0  0  0  0  0  0  0  0  0  0  0
   36.8550   26.9710   33.0340 C   0  0  0  0  0  0  0  0  0  0  0  0
   37.4300   25.8140   32.7600 N   0  0  0  0  0  0  0  0  0  0  0  0
   36.3200   27.7850   31.9940 N   0  0  0  0  0  0  0  0  0  0  0  0
   35.1890   28.7000   32.1910 C   0  0  0  0  0  0  0  0  0  0  0  0
   35.6560   29.9150   31.3980 C   0  0  0  0  0  0  0  0  0  0  0  0
   36.8460   29.4790   30.5990 C   0  0  0  0  0  0  0  0  0  0  0  0
   36.6750   27.9380   30.6160 C   0  0  1  0  0  0  0  0  0  0  0  0
   38.4260   24.5890   36.1020 C   0  0  0  0  0  0  0  0  0  0  0  0
   37.7510   24.4000   37.3240 C   0  0  0  0  0  0  0  0  0  0  0  0
   38.7960   23.2950   38.2940 S   0  0  0  0  0  0  0  0  0  0  0  0
   40.0520   23.2360   36.8590 C   0  0  0  0  0  0  0  0  0  0  0  0
   39.5600   23.9010   36.1040 N   0  0  0  0  0  0  0  0  0  0  0  0
   41.3000   22.5050   36.8200 N   0  0  0  0  0  0  0  0  0  0  0  0
   41.3970   21.2450   37.2730 C   0  0  0  0  0  0  0  0  0  0  0  0
   42.7380   20.8530   37.0830 C   0  0  0  0  0  0  0  0  0  0  0  0
   43.3650   21.9160   36.5230 N   0  0  0  0  0  0  0  0  0  0  0  0
   42.4970   22.9400   36.3540 C   0  0  0  0  0  0  0  0  0  0  0  0
   37.9070   27.3000   30.2130 N   0  0  0  0  0  0  0  0  0  0  0  0
   37.8280   25.8510   30.5650 C   0  0  0  0  0  0  0  0  0  0  0  0
   39.2730   25.4490   30.7850 C   0  0  0  0  0  0  0  0  0  0  0  0
   40.0250   26.7450   31.0990 C   0  0  0  0  0  0  0  0  0  0  0  0
   38.8720   27.6890   31.2770 C   0  0  0  0  0  0  0  0  0  0  0  0
   38.4151   24.0715   33.4515 H   0  0  0  0  0  0  0  0  0  0  0  0
   37.1874   27.0103   36.3761 H   0  0  0  0  0  0  0  0  0  0  0  0
   34.2568   28.2841   31.7811 H   0  0  0  0  0  0  0  0  0  0  0  0
   34.9537   28.9096   33.2449 H   0  0  0  0  0  0  0  0  0  0  0  0
   34.8553   30.2601   30.7273 H   0  0  0  0  0  0  0  0  0  0  0  0
   35.9142   30.7483   32.0681 H   0  0  0  0  0  0  0  0  0  0  0  0
   37.7873   29.7851   31.0788 H   0  0  0  0  0  0  0  0  0  0  0  0
   36.8962   29.9157   29.5906 H   0  0  0  0  0  0  0  0  0  0  0  0
   35.9455   27.4836   29.9294 H   0  0  0  0  0  0  0  0  0  0  0  0
   36.7867   24.8358   37.6244 H   0  0  0  0  0  0  0  0  0  0  0  0
   40.5891   20.6377   37.7071 H   0  0  0  0  0  0  0  0  0  0  0  0
   43.1850   19.8808   37.3378 H   0  0  0  0  0  0  0  0  0  0  0  0
   42.7181   23.9282   35.9244 H   0  0  0  0  0  0  0  0  0  0  0  0
   37.2369   25.7025   31.4807 H   0  0  0  0  0  0  0  0  0  0  0  0
   37.3353   25.2516   29.7852 H   0  0  0  0  0  0  0  0  0  0  0  0
   39.3509   24.7473   31.6285 H   0  0  0  0  0  0  0  0  0  0  0  0
   39.6907   24.9431   29.9021 H   0  0  0  0  0  0  0  0  0  0  0  0
   40.6233   26.6558   32.0178 H   0  0  0  0  0  0  0  0  0  0  0  0
   40.7553   27.0498   30.3349 H   0  0  0  0  0  0  0  0  0  0  0  0
   39.1982   28.7311   31.1445 H   0  0  0  0  0  0  0  0  0  0  0  0
   38.4327   27.6289   32.2837 H   0  0  0  0  0  0  0  0  0  0  0  0
  1  2  2  0
  2  3  1  0
  2 12  1  0
  4  3  2  0
  5  4  1  0
  6  5  2  0
  6  1  1  0
  7  8  1  0
  7  5  1  0
  9  8  1  0
 10 11  1  0
 10  9  1  0
 11  7  1  0
 12 16  1  0
 12 13  2  0
 13 14  1  0
 15 14  1  0
 16 15  2  0
 17 15  1  0
 17 18  1  0
 19 18  2  0
 20 19  1  0
 21 20  2  0
 21 17  1  0
 22 23  1  0
 22 11  1  0
 22 26  1  0
 23 24  1  0
 24 25  1  0
 25 26  1  0
  1 27  1  0
  3 28  1  0
  8 29  1  0
  8 30  1  0
  9 31  1  0
  9 32  1  0
 10 33  1  0
 10 34  1  0
 11 35  1  6
 13 36  1  0
 18 37  1  0
 19 38  1  0
 21 39  1  0
 23 40  1  0
 23 41  1  0
 24 42  1  0
 24 43  1  0
 25 44  1  0
 25 45  1  0
 26 46  1  0
 26 47  1  0
M  ISO  8  27  14  28  14  29  13  30  13  31  13  32  13  33  13  34  13
M  ISO  8  35  13  36  14  37  14  38  14  39  14  40  13  41  13  42  13
M  ISO  5  43  13  44  13  45  13  46  13  47  13
M  END
>  <minimizedAffinity>  (1) 
-5.7673645

>  <minimizedRMSD>  (1) 
0.379280508

$$$$
