
     RDKit          3D

 43 47  0  0  1  0  0  0  0  0999 V2000
   38.2830   24.9890   33.7170 C   0  0  0  0  0  0  0  0  0  0  0  0
   38.0450   25.3500   35.0520 C   0  0  0  0  0  0  0  0  0  0  0  0
   37.2960   26.4880   35.3310 C   0  0  0  0  0  0  0  0  0  0  0  0
   36.8250   27.2050   34.2620 N   0  0  0  0  0  0  0  0  0  0  0  0
   37.0650   26.8410   32.9980 C   0  0  0  0  0  0  0  0  0  0  0  0
   37.7770   25.7570   32.7380 N   0  0  0  0  0  0  0  0  0  0  0  0
   36.5340   27.6490   31.9530 N   0  0  0  0  0  0  0  0  0  0  0  0
   35.3210   28.4510   32.0730 C   0  0  0  0  0  0  0  0  0  0  0  0
   35.7470   29.7240   31.3360 C   0  0  0  0  0  0  0  0  0  0  0  0
   37.0240   29.4100   30.6290 C   0  0  0  0  0  0  0  0  0  0  0  0
   37.0070   27.8720   30.6140 C   0  0  1  0  0  0  0  0  0  0  0  0
   38.5940   24.5100   36.1210 C   0  0  0  0  0  0  0  0  0  0  0  0
   37.9110   24.3780   37.3620 C   0  0  0  0  0  0  0  0  0  0  0  0
   38.9320   23.2660   38.3480 S   0  0  0  0  0  0  0  0  0  0  0  0
   40.1640   23.1310   36.9190 C   0  0  0  0  0  0  0  0  0  0  0  0
   39.6820   23.7890   36.1660 N   0  0  0  0  0  0  0  0  0  0  0  0
   41.3890   22.3600   36.8820 N   0  0  0  0  0  0  0  0  0  0  0  0
   41.4730   21.1360   37.3880 C   0  0  0  0  0  0  0  0  0  0  0  0
   42.7750   20.6760   37.1930 C   0  0  0  0  0  0  0  0  0  0  0  0
   43.4250   21.6770   36.5610 N   0  0  0  0  0  0  0  0  0  0  0  0
   42.5920   22.7100   36.3650 C   0  0  0  0  0  0  0  0  0  0  0  0
   38.3500   27.3290   30.3310 C   0  0  0  0  0  0  0  0  0  0  0  0
   39.5090   28.0140   30.5620 C   0  0  0  0  0  0  0  0  0  0  0  0
   40.7240   27.3930   30.2530 C   0  0  0  0  0  0  0  0  0  0  0  0
   40.7630   26.1510   29.7410 N   0  0  0  0  0  0  0  0  0  0  0  0
   39.6170   25.4820   29.5180 C   0  0  0  0  0  0  0  0  0  0  0  0
   38.4590   26.0880   29.8180 N   0  0  0  0  0  0  0  0  0  0  0  0
   38.8736   24.0927   33.4764 H   0  0  0  0  0  0  0  0  0  0  0  0
   37.0903   26.7995   36.3657 H   0  0  0  0  0  0  0  0  0  0  0  0
   34.4644   27.9660   31.5820 H   0  0  0  0  0  0  0  0  0  0  0  0
   34.9824   28.6141   33.1068 H   0  0  0  0  0  0  0  0  0  0  0  0
   34.9747   30.0167   30.6095 H   0  0  0  0  0  0  0  0  0  0  0  0
   35.8816   30.5592   32.0390 H   0  0  0  0  0  0  0  0  0  0  0  0
   37.0278   29.8202   29.6084 H   0  0  0  0  0  0  0  0  0  0  0  0
   37.9155   29.8405   31.1085 H   0  0  0  0  0  0  0  0  0  0  0  0
   36.3971   27.3806   29.8417 H   0  0  0  0  0  0  0  0  0  0  0  0
   36.9634   24.8525   37.6568 H   0  0  0  0  0  0  0  0  0  0  0  0
   40.6580   20.5812   37.8760 H   0  0  0  0  0  0  0  0  0  0  0  0
   43.1869   19.7008   37.4918 H   0  0  0  0  0  0  0  0  0  0  0  0
   42.8392   23.6637   35.8757 H   0  0  0  0  0  0  0  0  0  0  0  0
   39.4875   29.0307   30.9814 H   0  0  0  0  0  0  0  0  0  0  0  0
   41.6660   27.9319   30.4327 H   0  0  0  0  0  0  0  0  0  0  0  0
   39.6297   24.4644   29.1004 H   0  0  0  0  0  0  0  0  0  0  0  0
  1  2  2  0
  2  3  1  0
  2 12  1  0
  4  3  2  0
  5  4  1  0
  6  5  2  0
  6  1  1  0
  7  8  1  0
  7  5  1  0
  9  8  1  0
 10  9  1  0
 11 10  1  0
 11  7  1  0
 12 16  1  0
 12 13  2  0
 13 14  1  0
 15 14  1  0
 16 15  2  0
 17 15  1  0
 17 18  1  0
 19 18  2  0
 20 19  1  0
 21 20  2  0
 21 17  1  0
 22 23  2  0
 22 11  1  0
 24 23  1  0
 25 24  2  0
 26 25  1  0
 26 27  2  0
 27 22  1  0
  1 28  1  0
  3 29  1  0
  8 30  1  0
  8 31  1  0
  9 32  1  0
  9 33  1  0
 10 34  1  0
 10 35  1  0
 11 36  1  6
 13 37  1  0
 18 38  1  0
 19 39  1  0
 21 40  1  0
 23 41  1  0
 24 42  1  0
 26 43  1  0
M  ISO  8  28  14  29  14  30  13  31  13  32  13  33  13  34  13  35  13
M  ISO  8  36  13  37  14  38  14  39  14  40  14  41  14  42  14  43  14
M  END
>  <minimizedAffinity>  (1) 
-5.53665686

>  <minimizedRMSD>  (1) 
0.670669734

$$$$
