
     RDKit          3D

 45 49  0  0  1  0  0  0  0  0999 V2000
   38.2990   24.9780   33.7020 C   0  0  0  0  0  0  0  0  0  0  0  0
   38.0630   25.3250   35.0370 C   0  0  0  0  0  0  0  0  0  0  0  0
   37.3110   26.4660   35.3090 C   0  0  0  0  0  0  0  0  0  0  0  0
   36.8390   27.1930   34.2550 N   0  0  0  0  0  0  0  0  0  0  0  0
   37.0830   26.8320   32.9890 C   0  0  0  0  0  0  0  0  0  0  0  0
   37.8060   25.7350   32.7110 N   0  0  0  0  0  0  0  0  0  0  0  0
   36.5600   27.6360   31.9420 N   0  0  0  0  0  0  0  0  0  0  0  0
   35.3340   28.4280   32.0560 C   0  0  0  0  0  0  0  0  0  0  0  0
   35.7360   29.7050   31.3330 C   0  0  0  0  0  0  0  0  0  0  0  0
   37.0350   29.4160   30.6300 C   0  0  0  0  0  0  0  0  0  0  0  0
   37.0370   27.8770   30.6080 C   0  0  1  0  0  0  0  0  0  0  0  0
   38.6030   24.4950   36.1180 C   0  0  0  0  0  0  0  0  0  0  0  0
   37.9220   24.3810   37.3520 C   0  0  0  0  0  0  0  0  0  0  0  0
   38.9480   23.2720   38.3570 S   0  0  0  0  0  0  0  0  0  0  0  0
   40.1800   23.1270   36.9150 C   0  0  0  0  0  0  0  0  0  0  0  0
   39.6950   23.7790   36.1520 N   0  0  0  0  0  0  0  0  0  0  0  0
   41.4050   22.3510   36.8900 N   0  0  0  0  0  0  0  0  0  0  0  0
   41.4730   21.1080   37.3970 C   0  0  0  0  0  0  0  0  0  0  0  0
   42.7920   20.6780   37.2000 C   0  0  0  0  0  0  0  0  0  0  0  0
   43.4450   21.6780   36.5900 N   0  0  0  0  0  0  0  0  0  0  0  0
   42.6100   22.7190   36.3890 C   0  0  0  0  0  0  0  0  0  0  0  0
   38.3640   27.3460   30.3030 C   0  0  0  0  0  0  0  0  0  0  0  0
   39.4580   28.1450   30.5690 C   0  0  0  0  0  0  0  0  0  0  0  0
   40.7530   27.7420   30.3190 C   0  0  0  0  0  0  0  0  0  0  0  0
   40.9070   26.4710   29.7760 C   0  0  0  0  0  0  0  0  0  0  0  0
   39.8130   25.6510   29.5010 C   0  0  0  0  0  0  0  0  0  0  0  0
   38.5140   26.0940   29.7680 C   0  0  0  0  0  0  0  0  0  0  0  0
   38.8907   24.0815   33.4648 H   0  0  0  0  0  0  0  0  0  0  0  0
   37.1035   26.7724   36.3449 H   0  0  0  0  0  0  0  0  0  0  0  0
   34.4871   27.9330   31.5583 H   0  0  0  0  0  0  0  0  0  0  0  0
   34.9929   28.5840   33.0901 H   0  0  0  0  0  0  0  0  0  0  0  0
   34.9637   29.9852   30.6015 H   0  0  0  0  0  0  0  0  0  0  0  0
   35.8470   30.5405   32.0398 H   0  0  0  0  0  0  0  0  0  0  0  0
   37.0420   29.8323   29.6119 H   0  0  0  0  0  0  0  0  0  0  0  0
   37.9164   29.8585   31.1172 H   0  0  0  0  0  0  0  0  0  0  0  0
   36.4311   27.3827   29.8343 H   0  0  0  0  0  0  0  0  0  0  0  0
   36.9751   24.8608   37.6403 H   0  0  0  0  0  0  0  0  0  0  0  0
   40.6574   20.5422   37.8711 H   0  0  0  0  0  0  0  0  0  0  0  0
   43.2125   19.7040   37.4908 H   0  0  0  0  0  0  0  0  0  0  0  0
   42.8584   23.6785   35.9119 H   0  0  0  0  0  0  0  0  0  0  0  0
   39.2899   29.1439   30.9979 H   0  0  0  0  0  0  0  0  0  0  0  0
   41.6153   28.3893   30.5368 H   0  0  0  0  0  0  0  0  0  0  0  0
   41.9200   26.1022   29.5573 H   0  0  0  0  0  0  0  0  0  0  0  0
   39.9728   24.6508   29.0719 H   0  0  0  0  0  0  0  0  0  0  0  0
   37.6417   25.4584   29.5555 H   0  0  0  0  0  0  0  0  0  0  0  0
  1  2  2  0
  2  3  1  0
  2 12  1  0
  4  3  2  0
  5  4  1  0
  6  5  2  0
  6  1  1  0
  7  8  1  0
  7  5  1  0
  9  8  1  0
 10  9  1  0
 11 10  1  0
 11  7  1  0
 12 16  1  0
 12 13  2  0
 13 14  1  0
 15 14  1  0
 16 15  2  0
 17 15  1  0
 17 18  1  0
 19 18  2  0
 20 19  1  0
 21 20  2  0
 21 17  1  0
 22 23  2  0
 22 11  1  0
 24 23  1  0
 25 24  2  0
 26 27  2  0
 26 25  1  0
 27 22  1  0
  1 28  1  0
  3 29  1  0
  8 30  1  0
  8 31  1  0
  9 32  1  0
  9 33  1  0
 10 34  1  0
 10 35  1  0
 11 36  1  6
 13 37  1  0
 18 38  1  0
 19 39  1  0
 21 40  1  0
 23 41  1  0
 24 42  1  0
 25 43  1  0
 26 44  1  0
 27 45  1  0
M  ISO  8  28  14  29  14  30  13  31  13  32  13  33  13  34  13  35  13
M  ISO  8  36  13  37  14  38  14  39  14  40  14  41  14  42  14  43  14
M  ISO  2  44  14  45  14
M  END
>  <minimizedAffinity>  (1) 
-5.44141436

>  <minimizedRMSD>  (1) 
0.686399877

$$$$
