
     RDKit          3D

 46 50  0  0  1  0  0  0  0  0999 V2000
   38.3240   25.5330   33.5280 C   0  0  0  0  0  0  0  0  0  0  0  0
   37.9410   25.6660   34.8590 C   0  0  0  0  0  0  0  0  0  0  0  0
   37.0830   26.7100   35.2140 C   0  0  0  0  0  0  0  0  0  0  0  0
   36.6630   27.5500   34.2270 N   0  0  0  0  0  0  0  0  0  0  0  0
   37.0580   27.3870   32.9470 C   0  0  0  0  0  0  0  0  0  0  0  0
   37.8700   26.3970   32.6120 N   0  0  0  0  0  0  0  0  0  0  0  0
   36.5710   28.3090   31.9820 N   0  0  0  0  0  0  0  0  0  0  0  0
   35.2990   29.0140   32.0760 C   0  0  0  0  0  0  0  0  0  0  0  0
   35.7040   30.4100   31.5850 C   0  0  0  0  0  0  0  0  0  0  0  0
   37.0560   30.2730   30.9610 C   0  0  0  0  0  0  0  0  0  0  0  0
   37.1410   28.7690   30.7480 C   0  0  1  0  0  0  0  0  0  0  0  0
   38.4380   24.7160   35.8700 C   0  0  0  0  0  0  0  0  0  0  0  0
   37.6470   24.3750   36.9830 C   0  0  0  0  0  0  0  0  0  0  0  0
   38.6570   23.1960   37.9330 S   0  0  0  0  0  0  0  0  0  0  0  0
   40.0310   23.3520   36.6400 C   0  0  0  0  0  0  0  0  0  0  0  0
   39.5890   24.0840   35.9070 N   0  0  0  0  0  0  0  0  0  0  0  0
   41.3280   22.6800   36.6210 N   0  0  0  0  0  0  0  0  0  0  0  0
   41.4430   21.3900   36.9520 C   0  0  0  0  0  0  0  0  0  0  0  0
   42.7880   21.0550   36.8370 C   0  0  0  0  0  0  0  0  0  0  0  0
   43.4090   22.1690   36.4410 N   0  0  0  0  0  0  0  0  0  0  0  0
   42.5240   23.1810   36.3030 C   0  0  0  0  0  0  0  0  0  0  0  0
   38.4220   28.2850   30.4120 N   0  0  0  0  0  0  0  0  0  0  0  0
   39.4110   27.9820   31.2740 C   0  0  0  0  0  0  0  0  0  0  0  0
   40.6320   27.5170   30.8900 C   0  0  0  0  0  0  0  0  0  0  0  0
   40.8800   27.3420   29.5460 C   0  0  0  0  0  0  0  0  0  0  0  0
   42.1240   26.8620   29.0540 N   0  0  0  0  0  0  0  0  0  0  0  0
   39.9000   27.6410   28.6640 N   0  0  0  0  0  0  0  0  0  0  0  0
   38.6900   28.1050   29.0920 C   0  0  0  0  0  0  0  0  0  0  0  0
   37.8920   28.3330   28.1460 O   0  0  0  0  0  0  0  0  0  0  0  0
   38.9996   24.7182   33.2286 H   0  0  0  0  0  0  0  0  0  0  0  0
   36.7575   26.8491   36.2555 H   0  0  0  0  0  0  0  0  0  0  0  0
   34.5368   28.5616   31.4246 H   0  0  0  0  0  0  0  0  0  0  0  0
   34.8439   28.9988   33.0773 H   0  0  0  0  0  0  0  0  0  0  0  0
   34.9794   30.7752   30.8423 H   0  0  0  0  0  0  0  0  0  0  0  0
   35.7240   31.1303   32.4161 H   0  0  0  0  0  0  0  0  0  0  0  0
   37.1154   30.8179   30.0073 H   0  0  0  0  0  0  0  0  0  0  0  0
   37.8743   30.6868   31.5686 H   0  0  0  0  0  0  0  0  0  0  0  0
   36.6109   28.3910   29.8614 H   0  0  0  0  0  0  0  0  0  0  0  0
   36.6385   24.7411   37.2258 H   0  0  0  0  0  0  0  0  0  0  0  0
   40.6268   20.7191   37.2580 H   0  0  0  0  0  0  0  0  0  0  0  0
   43.2461   20.0741   37.0321 H   0  0  0  0  0  0  0  0  0  0  0  0
   42.7451   24.2123   35.9908 H   0  0  0  0  0  0  0  0  0  0  0  0
   39.2220   28.1177   32.3491 H   0  0  0  0  0  0  0  0  0  0  0  0
   41.4048   27.2857   31.6378 H   0  0  0  0  0  0  0  0  0  0  0  0
   42.2668   26.7460   28.0406 H   0  0  0  0  0  0  0  0  0  0  0  0
   42.8827   26.6302   29.7109 H   0  0  0  0  0  0  0  0  0  0  0  0
  1  2  2  0
  2  3  1  0
  2 12  1  0
  4  3  2  0
  5  4  1  0
  6  5  2  0
  6  1  1  0
  7  8  1  0
  7  5  1  0
  9  8  1  0
 10  9  1  0
 11 10  1  0
 11  7  1  0
 12 16  1  0
 12 13  2  0
 13 14  1  0
 15 14  1  0
 16 15  2  0
 17 15  1  0
 17 18  1  0
 19 18  2  0
 20 19  1  0
 21 20  2  0
 21 17  1  0
 22 11  1  0
 22 23  1  0
 24 23  2  0
 25 24  1  0
 26 25  1  0
 27 28  1  0
 27 25  2  0
 28 22  1  0
 29 28  2  0
  1 30  1  0
  3 31  1  0
  8 32  1  0
  8 33  1  0
  9 34  1  0
  9 35  1  0
 10 36  1  0
 10 37  1  0
 11 38  1  6
 13 39  1  0
 18 40  1  0
 19 41  1  0
 21 42  1  0
 23 43  1  0
 24 44  1  0
 26 45  1  0
 26 46  1  0
M  ISO  8  30  14  31  14  32  13  33  13  34  13  35  13  36  13  37  13
M  ISO  7  38  13  39  14  40  14  41  14  42  14  43  14  44  14
M  END
>  <minimizedAffinity>  (1) 
-5.5644989

>  <minimizedRMSD>  (1) 
1.17290914

$$$$
