
     RDKit          3D

 42 46  0  0  1  0  0  0  0  0999 V2000
   40.1920   25.2050   33.7370 C   0  0  0  0  0  0  0  0  0  0  0  0
   39.5510   24.3650   34.6560 C   0  0  0  0  0  0  0  0  0  0  0  0
   38.1610   24.4020   34.7410 C   0  0  0  0  0  0  0  0  0  0  0  0
   37.4830   25.2620   33.9170 N   0  0  0  0  0  0  0  0  0  0  0  0
   38.1460   26.0570   33.0410 C   0  0  0  0  0  0  0  0  0  0  0  0
   39.4780   26.0280   32.9540 N   0  0  0  0  0  0  0  0  0  0  0  0
   37.3510   26.9100   32.2340 N   0  0  0  0  0  0  0  0  0  0  0  0
   36.0140   26.6140   31.7600 C   0  0  0  0  0  0  0  0  0  0  0  0
   35.3430   27.9850   31.9240 C   0  0  0  0  0  0  0  0  0  0  0  0
   36.4520   28.9830   32.1170 C   0  0  0  0  0  0  0  0  0  0  0  0
   37.6880   28.2240   31.7220 C   0  0  2  0  0  0  0  0  0  0  0  0
   40.3420   23.4680   35.5090 C   0  0  0  0  0  0  0  0  0  0  0  0
   39.7360   22.7440   36.5540 C   0  0  0  0  0  0  0  0  0  0  0  0
   41.0770   21.7920   37.3140 S   0  0  0  0  0  0  0  0  0  0  0  0
   42.2940   22.5400   36.0660 C   0  0  0  0  0  0  0  0  0  0  0  0
   41.6200   23.2020   35.4620 N   0  0  0  0  0  0  0  0  0  0  0  0
   43.7320   22.2860   35.9570 N   0  0  0  0  0  0  0  0  0  0  0  0
   44.2200   21.0460   36.0690 C   0  0  0  0  0  0  0  0  0  0  0  0
   45.6120   21.1660   35.9160 C   0  0  0  0  0  0  0  0  0  0  0  0
   45.8700   22.4690   35.7240 N   0  0  0  0  0  0  0  0  0  0  0  0
   44.7150   23.1820   35.7450 C   0  0  0  0  0  0  0  0  0  0  0  0
   38.0170   28.2470   30.3070 C   0  0  0  0  0  0  0  0  0  0  0  0
   37.6540   29.2390   29.3910 C   0  0  0  0  0  0  0  0  0  0  0  0
   38.1760   28.8490   28.1770 C   0  0  0  0  0  0  0  0  0  0  0  0
   38.8230   27.6780   28.3540 N   0  0  0  0  0  0  0  0  0  0  0  0
   38.7110   27.3440   29.6310 N   0  0  0  0  0  0  0  0  0  0  0  0
   41.2889   25.1900   33.6565 H   0  0  0  0  0  0  0  0  0  0  0  0
   37.6217   23.7577   35.4510 H   0  0  0  0  0  0  0  0  0  0  0  0
   35.5253   25.8471   32.3788 H   0  0  0  0  0  0  0  0  0  0  0  0
   35.9718   26.2044   30.7400 H   0  0  0  0  0  0  0  0  0  0  0  0
   34.7608   28.2332   31.0243 H   0  0  0  0  0  0  0  0  0  0  0  0
   34.6507   27.9893   32.7788 H   0  0  0  0  0  0  0  0  0  0  0  0
   36.3070   29.8604   31.4696 H   0  0  0  0  0  0  0  0  0  0  0  0
   36.5011   29.3719   33.1448 H   0  0  0  0  0  0  0  0  0  0  0  0
   38.6165   28.6562   32.1234 H   0  0  0  0  0  0  0  0  0  0  0  0
   38.6756   22.7543   36.8462 H   0  0  0  0  0  0  0  0  0  0  0  0
   43.6494   20.1221   36.2447 H   0  0  0  0  0  0  0  0  0  0  0  0
   46.3482   20.3493   35.9475 H   0  0  0  0  0  0  0  0  0  0  0  0
   44.6046   24.2687   35.6154 H   0  0  0  0  0  0  0  0  0  0  0  0
   37.0695   30.1476   29.5979 H   0  0  0  0  0  0  0  0  0  0  0  0
   38.0817   29.3971   27.2280 H   0  0  0  0  0  0  0  0  0  0  0  0
   39.3156   27.1403   27.6266 H   0  0  0  0  0  0  0  0  0  0  0  0
  1  2  2  0
  2  3  1  0
  2 12  1  0
  4  3  2  0
  5  4  1  0
  6  5  2  0
  6  1  1  0
  7  5  1  0
  8  9  1  0
  8  7  1  0
  9 10  1  0
 11 10  1  0
 11  7  1  0
 12 13  2  0
 13 14  1  0
 15 14  1  0
 16 12  1  0
 16 15  2  0
 17 15  1  0
 17 18  1  0
 19 18  2  0
 20 21  2  0
 20 19  1  0
 21 17  1  0
 22 11  1  0
 23 22  1  0
 24 25  1  0
 24 23  2  0
 25 26  1  0
 26 22  2  0
  1 27  1  0
  3 28  1  0
  8 29  1  0
  8 30  1  0
  9 31  1  0
  9 32  1  0
 10 33  1  0
 10 34  1  0
 11 35  1  1
 13 36  1  0
 18 37  1  0
 19 38  1  0
 21 39  1  0
 23 40  1  0
 24 41  1  0
 25 42  1  0
M  ISO  8  27  14  28  14  29  13  30  13  31  13  32  13  33  13  34  13
M  ISO  8  35  13  36  14  37  14  38  14  39  14  40  14  41  14  42   9
M  END
>  <minimizedAffinity>  (1) 
-5.03344822

>  <minimizedRMSD>  (1) 
2.80688477

$$$$
