
     RDKit          3D

 29 30  0  0  1  0  0  0  0  0999 V2000
   37.0860   21.6400   33.9140 N   0  0  0  0  0  0  0  0  0  0  0  0
   36.8760   21.6920   35.3640 C   0  0  0  0  0  0  0  0  0  0  0  0
   38.1970   22.3190   35.8170 C   0  0  1  0  0  0  0  0  0  0  0  0
   38.9200   22.7720   34.5770 C   0  0  0  0  0  0  0  0  0  0  0  0
   37.7400   22.9130   33.6230 C   0  0  0  0  0  0  0  0  0  0  0  0
   36.7400   20.6060   33.0080 C   0  0  0  0  0  0  0  0  0  0  0  0
   37.4940   20.3460   31.8420 C   0  0  0  0  0  0  0  0  0  0  0  0
   37.0980   19.3140   30.9980 C   0  0  0  0  0  0  0  0  0  0  0  0
   35.9740   18.5990   31.3570 N   0  0  0  0  0  0  0  0  0  0  0  0
   35.2830   18.8760   32.4750 C   0  0  0  0  0  0  0  0  0  0  0  0
   35.6550   19.8660   33.2930 N   0  0  0  0  0  0  0  0  0  0  0  0
   37.9090   23.4010   36.7280 N   0  0  0  0  0  0  0  0  0  0  0  0
   38.5090   23.4990   38.0350 C   0  0  0  0  0  0  0  0  0  0  0  0
   39.3990   22.6140   38.3430 N   0  0  0  0  0  0  0  0  0  0  0  0
   38.0720   24.5700   38.8950 N   0  0  0  0  0  0  0  0  0  0  0  0
   39.8000   22.7420   39.3180 H   0  0  0  0  0  0  0  0  0  0  0  0
   36.0154   22.3246   35.6269 H   0  0  0  0  0  0  0  0  0  0  0  0
   36.6472   20.7214   35.8283 H   0  0  0  0  0  0  0  0  0  0  0  0
   38.8411   21.6098   36.3576 H   0  0  0  0  0  0  0  0  0  0  0  0
   39.4368   23.7305   34.7324 H   0  0  0  0  0  0  0  0  0  0  0  0
   39.7180   22.0979   34.2323 H   0  0  0  0  0  0  0  0  0  0  0  0
   38.0601   22.9860   32.5731 H   0  0  0  0  0  0  0  0  0  0  0  0
   37.1210   23.8130   33.7525 H   0  0  0  0  0  0  0  0  0  0  0  0
   38.3815   20.9511   31.6050 H   0  0  0  0  0  0  0  0  0  0  0  0
   37.6582   19.0774   30.0814 H   0  0  0  0  0  0  0  0  0  0  0  0
   34.3942   18.2770   32.7223 H   0  0  0  0  0  0  0  0  0  0  0  0
   37.2477   24.1331   36.4320 H   0  0  0  0  0  0  0  0  0  0  0  0
   38.4775   24.6728   39.8362 H   0  0  0  0  0  0  0  0  0  0  0  0
   37.3542   25.2326   38.5683 H   0  0  0  0  0  0  0  0  0  0  0  0
  1  2  1  0
  2  3  1  0
  3 12  1  0
  4  3  1  0
  5  1  1  0
  5  4  1  0
  6 11  1  0
  6  1  1  0
  7  6  2  0
  8  9  2  0
  8  7  1  0
  9 10  1  0
 10 11  2  0
 12 13  1  0
 13 14  2  0
 13 15  1  0
 14 16  1  0
  2 17  1  0
  2 18  1  0
  3 19  1  1
  4 20  1  0
  4 21  1  0
  5 22  1  0
  5 23  1  0
  7 24  1  0
  8 25  1  0
 10 26  1  0
 12 27  1  0
 15 28  1  0
 15 29  1  0
M  ISO  8  17  13  18  13  19  13  20  13  21  13  22  13  23  13  24  14
M  ISO  2  25  14  26  14
M  END
>  <minimizedAffinity>  (1) 
-4.20017242

>  <minimizedRMSD>  (1) 
3.3916378

$$$$
