
     RDKit          3D

 29 31  0  0  1  0  0  0  0  0999 V2000
   37.5090   22.1320   34.2830 N   0  0  0  0  0  0  0  0  0  0  0  0
   37.4900   22.0510   35.7290 C   0  0  0  0  0  0  0  0  0  0  0  0
   38.9450   22.2530   36.0950 C   0  0  1  0  0  0  0  0  0  0  0  0
   39.6450   22.6460   34.7940 C   0  0  0  0  0  0  0  0  0  0  0  0
   38.4280   23.2360   34.0650 C   0  0  0  0  0  0  0  0  0  0  0  0
   36.8130   21.3440   33.3260 C   0  0  0  0  0  0  0  0  0  0  0  0
   35.7280   20.5340   33.6790 C   0  0  0  0  0  0  0  0  0  0  0  0
   35.0910   19.7870   32.6920 C   0  0  0  0  0  0  0  0  0  0  0  0
   35.5830   19.8990   31.4060 N   0  0  0  0  0  0  0  0  0  0  0  0
   36.6250   20.6840   31.1020 C   0  0  0  0  0  0  0  0  0  0  0  0
   37.2380   21.4020   32.0480 N   0  0  0  0  0  0  0  0  0  0  0  0
   39.0280   23.4510   36.9950 C   0  0  0  0  0  0  0  0  0  0  0  0
   38.8260   23.3410   38.4540 C   0  0  0  0  0  0  0  0  0  0  0  0
   37.6870   23.8860   37.5840 C   0  0  0  0  0  0  0  0  0  0  0  0
   36.8591   22.8413   36.1619 H   0  0  0  0  0  0  0  0  0  0  0  0
   37.0729   21.1059   36.1069 H   0  0  0  0  0  0  0  0  0  0  0  0
   39.3782   21.3614   36.5719 H   0  0  0  0  0  0  0  0  0  0  0  0
   40.4360   23.3930   34.9559 H   0  0  0  0  0  0  0  0  0  0  0  0
   40.1768   21.8385   34.2694 H   0  0  0  0  0  0  0  0  0  0  0  0
   38.6255   23.4094   32.9969 H   0  0  0  0  0  0  0  0  0  0  0  0
   38.0886   24.2232   34.4118 H   0  0  0  0  0  0  0  0  0  0  0  0
   35.3830   20.4881   34.7225 H   0  0  0  0  0  0  0  0  0  0  0  0
   34.2348   19.1371   32.9255 H   0  0  0  0  0  0  0  0  0  0  0  0
   36.9800   20.7383   30.0623 H   0  0  0  0  0  0  0  0  0  0  0  0
   39.8422   23.8986   36.4062 H   0  0  0  0  0  0  0  0  0  0  0  0
   38.7321   22.3492   38.9203 H   0  0  0  0  0  0  0  0  0  0  0  0
   39.3665   23.7098   39.3383 H   0  0  0  0  0  0  0  0  0  0  0  0
   37.4168   24.9515   37.6248 H   0  0  0  0  0  0  0  0  0  0  0  0
   36.6297   23.6334   37.4156 H   0  0  0  0  0  0  0  0  0  0  0  0
  1  2  1  0
  2  3  1  0
  3 12  1  0
  4  3  1  0
  5  1  1  0
  5  4  1  0
  6  7  2  0
  6  1  1  0
  8  7  1  0
  9  8  2  0
 10  9  1  0
 10 11  2  0
 11  6  1  0
 12 14  1  0
 12 13  1  0
 14 13  1  0
  2 15  1  0
  2 16  1  0
  3 17  1  1
  4 18  1  0
  4 19  1  0
  5 20  1  0
  5 21  1  0
  7 22  1  0
  8 23  1  0
 10 24  1  0
 12 25  1  0
 13 26  1  0
 13 27  1  0
 14 28  1  0
 14 29  1  0
M  ISO  8  15  13  16  13  17  13  18  13  19  13  20  13  21  13  22  14
M  ISO  7  23  14  24  14  25  13  26  13  27  13  28  13  29  13
M  END
>  <minimizedAffinity>  (1) 
-4.08302736

>  <minimizedRMSD>  (1) 
2.61555123

$$$$
