
     RDKit          3D

 36 39  0  0  1  0  0  0  0  0999 V2000
   37.6110   21.8300   33.8010 N   0  0  0  0  0  0  0  0  0  0  0  0
   37.4300   22.0810   35.2290 C   0  0  0  0  0  0  0  0  0  0  0  0
   38.8530   22.1310   35.7090 C   0  0  1  0  0  0  0  0  0  0  0  0
   39.7260   22.1150   34.4650 C   0  0  0  0  0  0  0  0  0  0  0  0
   38.7070   22.7110   33.4980 C   0  0  0  0  0  0  0  0  0  0  0  0
   36.8710   20.9550   32.9510 C   0  0  0  0  0  0  0  0  0  0  0  0
   35.7180   20.2830   33.4010 C   0  0  0  0  0  0  0  0  0  0  0  0
   35.0380   19.4540   32.5150 C   0  0  0  0  0  0  0  0  0  0  0  0
   35.5460   19.3480   31.2460 N   0  0  0  0  0  0  0  0  0  0  0  0
   36.6440   20.0020   30.8550 C   0  0  0  0  0  0  0  0  0  0  0  0
   37.3100   20.8040   31.6980 N   0  0  0  0  0  0  0  0  0  0  0  0
   39.0370   23.4800   36.3450 C   0  0  2  0  0  0  0  0  0  0  0  0
   38.4530   23.7840   37.6540 C   0  0  0  0  0  0  0  0  0  0  0  0
   37.7980   24.2980   36.3660 C   0  0  1  0  0  0  0  0  0  0  0  0
   37.8960   25.7580   36.0900 C   0  0  0  0  0  0  0  0  0  0  0  0
   37.2640   26.3670   34.9990 C   0  0  0  0  0  0  0  0  0  0  0  0
   37.5490   27.7140   35.0260 C   0  0  0  0  0  0  0  0  0  0  0  0
   38.3290   27.8820   36.1100 N   0  0  0  0  0  0  0  0  0  0  0  0
   38.5310   26.7200   36.7370 N   0  0  0  0  0  0  0  0  0  0  0  0
   36.9126   23.0354   35.4065 H   0  0  0  0  0  0  0  0  0  0  0  0
   36.8110   21.3294   35.7408 H   0  0  0  0  0  0  0  0  0  0  0  0
   39.0941   21.3080   36.3979 H   0  0  0  0  0  0  0  0  0  0  0  0
   40.6201   22.7467   34.5728 H   0  0  0  0  0  0  0  0  0  0  0  0
   40.1544   21.1419   34.1828 H   0  0  0  0  0  0  0  0  0  0  0  0
   39.0298   22.6304   32.4495 H   0  0  0  0  0  0  0  0  0  0  0  0
   38.5077   23.7873   33.6068 H   0  0  0  0  0  0  0  0  0  0  0  0
   35.3619   20.4113   34.4338 H   0  0  0  0  0  0  0  0  0  0  0  0
   34.1329   18.9077   32.8189 H   0  0  0  0  0  0  0  0  0  0  0  0
   37.0075   19.8802   29.8240 H   0  0  0  0  0  0  0  0  0  0  0  0
   40.0681   23.5860   35.9766 H   0  0  0  0  0  0  0  0  0  0  0  0
   37.9687   22.9892   38.2403 H   0  0  0  0  0  0  0  0  0  0  0  0
   38.8164   24.2451   38.5843 H   0  0  0  0  0  0  0  0  0  0  0  0
   36.8093   24.2277   35.8890 H   0  0  0  0  0  0  0  0  0  0  0  0
   36.6445   25.8558   34.2474 H   0  0  0  0  0  0  0  0  0  0  0  0
   37.2126   28.4844   34.3166 H   0  0  0  0  0  0  0  0  0  0  0  0
   38.7180   28.7856   36.4152 H   0  0  0  0  0  0  0  0  0  0  0  0
  1  2  1  0
  2  3  1  0
  3 12  1  0
  4  3  1  0
  5  1  1  0
  5  4  1  0
  6  7  2  0
  6  1  1  0
  8  7  1  0
  9  8  2  0
 10  9  1  0
 10 11  2  0
 11  6  1  0
 12 14  1  0
 12 13  1  0
 14 13  1  0
 15 14  1  0
 15 19  2  0
 16 17  2  0
 16 15  1  0
 17 18  1  0
 18 19  1  0
  2 20  1  0
  2 21  1  0
  3 22  1  1
  4 23  1  0
  4 24  1  0
  5 25  1  0
  5 26  1  0
  7 27  1  0
  8 28  1  0
 10 29  1  0
 12 30  1  1
 13 31  1  0
 13 32  1  0
 14 33  1  6
 16 34  1  0
 17 35  1  0
 18 36  1  0
M  ISO  8  20  13  21  13  22  13  23  13  24  13  25  13  26  13  27  14
M  ISO  8  28  14  29  14  30  13  31  13  32  13  33  13  34  14  35  14
M  ISO  1  36   9
M  END
>  <minimizedAffinity>  (1) 
-4.99893761

>  <minimizedRMSD>  (1) 
1.62334013

$$$$
