
     RDKit          3D

 34 36  0  0  0  0  0  0  0  0999 V2000
   39.9050   22.7090   37.3690 C   0  0  0  0  0  0  0  0  0  0  0  0
   39.1500   23.2080   38.4390 C   0  0  0  0  0  0  0  0  0  0  0  0
   37.7760   23.3050   38.2980 C   0  0  0  0  0  0  0  0  0  0  0  0
   37.2020   22.9120   37.1210 N   0  0  0  0  0  0  0  0  0  0  0  0
   37.9660   22.4350   36.1080 C   0  0  0  0  0  0  0  0  0  0  0  0
   39.3110   22.3320   36.2260 N   0  0  0  0  0  0  0  0  0  0  0  0
   37.3720   22.0210   34.8720 N   0  0  0  0  0  0  0  0  0  0  0  0
   37.9960   22.4880   33.7750 C   0  0  0  0  0  0  0  0  0  0  0  0
   37.4640   22.1200   32.5490 C   0  0  0  0  0  0  0  0  0  0  0  0
   36.3570   21.3170   32.5670 C   0  0  0  0  0  0  0  0  0  0  0  0
   35.7450   20.8910   31.3670 N   0  0  0  0  0  0  0  0  0  0  0  0
   35.7670   20.8760   33.6880 N   0  0  0  0  0  0  0  0  0  0  0  0
   36.2900   21.2380   34.8830 C   0  0  0  0  0  0  0  0  0  0  0  0
   35.8180   20.8810   35.9960 O   0  0  0  0  0  0  0  0  0  0  0  0
   38.0590   22.5650   31.3350 N   0  0  0  0  0  0  0  0  0  0  0  0
   38.9710   21.8800   30.6150 C   0  0  0  0  0  0  0  0  0  0  0  0
   39.4790   22.4150   29.4520 C   0  0  0  0  0  0  0  0  0  0  0  0
   40.4870   21.6470   28.6650 C   0  0  0  0  0  0  0  0  0  0  0  0
   39.0530   23.6610   29.0170 C   0  0  0  0  0  0  0  0  0  0  0  0
   39.5280   24.1410   27.9460 O   0  0  0  0  0  0  0  0  0  0  0  0
   38.1330   24.3250   29.7690 N   0  0  0  0  0  0  0  0  0  0  0  0
   37.6470   23.7760   30.9110 C   0  0  0  0  0  0  0  0  0  0  0  0
   36.8120   24.5260   31.4700 O   0  0  0  0  0  0  0  0  0  0  0  0
   40.9974   22.6253   37.4671 H   0  0  0  0  0  0  0  0  0  0  0  0
   39.6401   23.5170   39.3740 H   0  0  0  0  0  0  0  0  0  0  0  0
   37.1560   23.6922   39.1200 H   0  0  0  0  0  0  0  0  0  0  0  0
   38.8856   23.1309   33.8477 H   0  0  0  0  0  0  0  0  0  0  0  0
   34.9118   20.2863   31.4002 H   0  0  0  0  0  0  0  0  0  0  0  0
   36.1320   21.1851   30.4589 H   0  0  0  0  0  0  0  0  0  0  0  0
   39.3100   20.8912   30.9577 H   0  0  0  0  0  0  0  0  0  0  0  0
   41.1700   21.1266   29.3526 H   0  0  0  0  0  0  0  0  0  0  0  0
   39.9728   20.9096   28.0310 H   0  0  0  0  0  0  0  0  0  0  0  0
   41.0615   22.3384   28.0310 H   0  0  0  0  0  0  0  0  0  0  0  0
   37.8025   25.2531   29.4684 H   0  0  0  0  0  0  0  0  0  0  0  0
  1  2  2  0
  3  2  1  0
  4  3  2  0
  5  6  2  0
  5  4  1  0
  6  1  1  0
  7 13  1  0
  7  5  1  0
  8  7  1  0
  9 10  1  0
  9  8  2  0
 10 12  2  0
 11 10  1  0
 12 13  1  0
 13 14  2  0
 15  9  1  0
 16 15  1  0
 17 16  2  0
 18 17  1  0
 19 17  1  0
 19 21  1  0
 20 19  2  0
 21 22  1  0
 22 15  1  0
 22 23  2  0
  1 24  1  0
  2 25  1  0
  3 26  1  0
  8 27  1  0
 11 28  1  0
 11 29  1  0
 16 30  1  0
 18 31  1  0
 18 32  1  0
 18 33  1  0
 21 34  1  0
M  ISO  8  24  14  25  14  26  14  27  14  30  14  31   8  32   8  33   8
M  ISO  1  34   9
M  END
>  <minimizedAffinity>  (1) 
-5.74559975

>  <minimizedRMSD>  (1) 
1.49817502

$$$$
