
     RDKit          3D

 42 45  0  0  1  0  0  0  0  0999 V2000
   38.2190   22.7150   34.0380 N   0  0  0  0  0  0  0  0  0  0  0  0
   37.7910   24.0850   34.1850 C   0  0  0  0  0  0  0  0  0  0  0  0
   38.3490   24.4820   35.5250 C   0  0  1  0  0  0  0  0  0  0  0  0
   39.2730   23.3310   35.9160 C   0  0  0  0  0  0  0  0  0  0  0  0
   39.5730   22.8200   34.5090 C   0  0  0  0  0  0  0  0  0  0  0  0
   37.4850   21.5980   33.5520 C   0  0  0  0  0  0  0  0  0  0  0  0
   36.2640   21.1900   34.1150 C   0  0  0  0  0  0  0  0  0  0  0  0
   35.6110   20.0950   33.5780 C   0  0  0  0  0  0  0  0  0  0  0  0
   36.2070   19.4630   32.5090 N   0  0  0  0  0  0  0  0  0  0  0  0
   37.3700   19.8780   31.9990 C   0  0  0  0  0  0  0  0  0  0  0  0
   38.0240   20.9390   32.5030 N   0  0  0  0  0  0  0  0  0  0  0  0
   39.1940   25.6930   35.2280 C   0  0  2  0  0  0  0  0  0  0  0  0
   38.8960   26.9860   35.7530 C   0  0  0  0  0  0  0  0  0  0  0  0
   38.7420   26.6250   34.2300 C   0  0  2  0  0  0  0  0  0  0  0  0
   37.7670   27.5610   33.7810 C   0  0  0  0  0  0  0  0  0  0  0  0
   37.4200   27.5420   32.2680 C   0  0  0  0  0  0  0  0  0  0  0  0
   36.5990   28.8100   32.2020 C   0  0  0  0  0  0  0  0  0  0  0  0
   35.9910   29.0040   33.5740 C   0  0  0  0  0  0  0  0  0  0  0  0
   36.4320   27.7720   34.3530 C   0  0  0  0  0  0  0  0  0  0  0  0
   38.2049   24.7149   33.3838 H   0  0  0  0  0  0  0  0  0  0  0  0
   36.6992   24.2033   34.1220 H   0  0  0  0  0  0  0  0  0  0  0  0
   37.6015   24.6828   36.3066 H   0  0  0  0  0  0  0  0  0  0  0  0
   40.1778   23.6798   36.4354 H   0  0  0  0  0  0  0  0  0  0  0  0
   38.8593   22.5951   36.6212 H   0  0  0  0  0  0  0  0  0  0  0  0
   40.0863   21.8472   34.5202 H   0  0  0  0  0  0  0  0  0  0  0  0
   40.2465   23.4442   33.9034 H   0  0  0  0  0  0  0  0  0  0  0  0
   35.8340   21.7329   34.9696 H   0  0  0  0  0  0  0  0  0  0  0  0
   34.6532   19.7428   33.9886 H   0  0  0  0  0  0  0  0  0  0  0  0
   37.8037   19.3376   31.1446 H   0  0  0  0  0  0  0  0  0  0  0  0
   40.0943   25.0701   35.3349 H   0  0  0  0  0  0  0  0  0  0  0  0
   38.0072   27.1415   36.3822 H   0  0  0  0  0  0  0  0  0  0  0  0
   39.4304   27.7483   36.3389 H   0  0  0  0  0  0  0  0  0  0  0  0
   38.9569   26.4367   33.1678 H   0  0  0  0  0  0  0  0  0  0  0  0
   38.4322   28.3405   34.1808 H   0  0  0  0  0  0  0  0  0  0  0  0
   38.3193   27.5988   31.6371 H   0  0  0  0  0  0  0  0  0  0  0  0
   36.9178   26.6321   31.9076 H   0  0  0  0  0  0  0  0  0  0  0  0
   37.2419   29.6655   31.9475 H   0  0  0  0  0  0  0  0  0  0  0  0
   35.8193   28.7377   31.4295 H   0  0  0  0  0  0  0  0  0  0  0  0
   36.3740   29.9215   34.0447 H   0  0  0  0  0  0  0  0  0  0  0  0
   34.8969   29.1126   33.5395 H   0  0  0  0  0  0  0  0  0  0  0  0
   35.7694   26.9141   34.1661 H   0  0  0  0  0  0  0  0  0  0  0  0
   36.4140   27.8891   35.4466 H   0  0  0  0  0  0  0  0  0  0  0  0
  1  2  1  0
  1  5  1  0
  2  3  1  0
  3  4  1  0
  5  4  1  0
  6  1  1  0
  6  7  2  0
  8  7  1  0
  9  8  2  0
 10 11  2  0
 10  9  1  0
 11  6  1  0
 12  3  1  0
 12 13  1  0
 14 12  1  0
 14 13  1  0
 15 14  1  0
 15 19  1  0
 16 15  1  0
 17 16  1  0
 17 18  1  0
 18 19  1  0
  2 20  1  0
  2 21  1  0
  3 22  1  1
  4 23  1  0
  4 24  1  0
  5 25  1  0
  5 26  1  0
  7 27  1  0
  8 28  1  0
 10 29  1  0
 12 30  1  6
 13 31  1  0
 13 32  1  0
 14 33  1  6
 15 34  1  0
 16 35  1  0
 16 36  1  0
 17 37  1  0
 17 38  1  0
 18 39  1  0
 18 40  1  0
 19 41  1  0
 19 42  1  0
M  ISO  8  20  13  21  13  22  13  23  13  24  13  25  13  26  13  27  14
M  ISO  8  28  14  29  14  30  13  31  13  32  13  33  13  34  13  35  13
M  ISO  7  36  13  37  13  38  13  39  13  40  13  41  13  42  13
M  END
>  <minimizedAffinity>  (1) 
-4.57582188

>  <minimizedRMSD>  (1) 
4.57894182

$$$$
