
     RDKit          3D

 41 44  0  0  1  0  0  0  0  0999 V2000
   37.6320   21.7800   33.9250 N   0  0  0  0  0  0  0  0  0  0  0  0
   37.4180   22.0030   35.3530 C   0  0  0  0  0  0  0  0  0  0  0  0
   38.8240   21.9860   35.8790 C   0  0  1  0  0  0  0  0  0  0  0  0
   39.7320   21.9560   34.6600 C   0  0  0  0  0  0  0  0  0  0  0  0
   38.7720   22.6200   33.6770 C   0  0  0  0  0  0  0  0  0  0  0  0
   36.8720   20.9560   33.0380 C   0  0  0  0  0  0  0  0  0  0  0  0
   35.6990   20.3070   33.4410 C   0  0  0  0  0  0  0  0  0  0  0  0
   35.0100   19.5300   32.5200 C   0  0  0  0  0  0  0  0  0  0  0  0
   35.5460   19.4550   31.2440 N   0  0  0  0  0  0  0  0  0  0  0  0
   36.6670   20.0890   30.8980 C   0  0  0  0  0  0  0  0  0  0  0  0
   37.3320   20.8370   31.7830 N   0  0  0  0  0  0  0  0  0  0  0  0
   39.0440   23.3210   36.5520 C   0  0  2  0  0  0  0  0  0  0  0  0
   38.3510   23.6650   37.7920 C   0  0  0  0  0  0  0  0  0  0  0  0
   37.8960   24.2500   36.4590 C   0  0  1  0  0  0  0  0  0  0  0  0
   38.1630   25.6420   36.1950 N   0  0  0  0  0  0  0  0  0  0  0  0
   39.3260   25.8210   35.3870 C   0  0  0  0  0  0  0  0  0  0  0  0
   39.3490   27.3330   35.1900 C   0  0  0  0  0  0  0  0  0  0  0  0
   37.8600   27.6690   35.2000 C   0  0  0  0  0  0  0  0  0  0  0  0
   37.1540   26.3220   35.4300 C   0  0  0  0  0  0  0  0  0  0  0  0
   36.9322   22.9723   35.5389 H   0  0  0  0  0  0  0  0  0  0  0  0
   36.7559   21.2627   35.8258 H   0  0  0  0  0  0  0  0  0  0  0  0
   39.0107   21.1427   36.5602 H   0  0  0  0  0  0  0  0  0  0  0  0
   40.6508   22.5424   34.8082 H   0  0  0  0  0  0  0  0  0  0  0  0
   40.1223   20.9699   34.3681 H   0  0  0  0  0  0  0  0  0  0  0  0
   39.1241   22.5505   32.6372 H   0  0  0  0  0  0  0  0  0  0  0  0
   38.6160   23.7013   33.8054 H   0  0  0  0  0  0  0  0  0  0  0  0
   35.3290   20.4112   34.4716 H   0  0  0  0  0  0  0  0  0  0  0  0
   34.0845   19.0000   32.7894 H   0  0  0  0  0  0  0  0  0  0  0  0
   37.0491   19.9949   29.8708 H   0  0  0  0  0  0  0  0  0  0  0  0
   40.1126   23.3365   36.2915 H   0  0  0  0  0  0  0  0  0  0  0  0
   37.7323   22.9140   38.3049 H   0  0  0  0  0  0  0  0  0  0  0  0
   38.6508   24.0794   38.7658 H   0  0  0  0  0  0  0  0  0  0  0  0
   36.9526   24.2844   35.8944 H   0  0  0  0  0  0  0  0  0  0  0  0
   40.2307   25.4723   35.9066 H   0  0  0  0  0  0  0  0  0  0  0  0
   39.3025   25.2525   34.4456 H   0  0  0  0  0  0  0  0  0  0  0  0
   39.8151   27.6055   34.2316 H   0  0  0  0  0  0  0  0  0  0  0  0
   39.9338   27.8734   35.9489 H   0  0  0  0  0  0  0  0  0  0  0  0
   37.6270   28.3723   36.0131 H   0  0  0  0  0  0  0  0  0  0  0  0
   37.5374   28.1524   34.2660 H   0  0  0  0  0  0  0  0  0  0  0  0
   36.2206   26.4418   35.9997 H   0  0  0  0  0  0  0  0  0  0  0  0
   36.8362   25.8019   34.5143 H   0  0  0  0  0  0  0  0  0  0  0  0
  1  2  1  0
  2  3  1  0
  3 12  1  0
  4  3  1  0
  5  1  1  0
  5  4  1  0
  6  7  2  0
  6  1  1  0
  8  7  1  0
  9  8  2  0
 10  9  1  0
 10 11  2  0
 11  6  1  0
 12 13  1  0
 14 12  1  0
 14 13  1  0
 15 16  1  0
 15 14  1  0
 17 18  1  0
 17 16  1  0
 18 19  1  0
 19 15  1  0
  2 20  1  0
  2 21  1  0
  3 22  1  1
  4 23  1  0
  4 24  1  0
  5 25  1  0
  5 26  1  0
  7 27  1  0
  8 28  1  0
 10 29  1  0
 12 30  1  1
 13 31  1  0
 13 32  1  0
 14 33  1  6
 16 34  1  0
 16 35  1  0
 17 36  1  0
 17 37  1  0
 18 38  1  0
 18 39  1  0
 19 40  1  0
 19 41  1  0
M  ISO  8  20  13  21  13  22  13  23  13  24  13  25  13  26  13  27  14
M  ISO  8  28  14  29  14  30  13  31  13  32  13  33  13  34  13  35  13
M  ISO  6  36  13  37  13  38  13  39  13  40  13  41  13
M  END
>  <minimizedAffinity>  (1) 
-4.703022

>  <minimizedRMSD>  (1) 
1.33792651

$$$$
