
     RDKit          3D

 40 44  0  0  1  0  0  0  0  0999 V2000
   37.7740   21.5110   33.2290 N   0  0  0  0  0  0  0  0  0  0  0  0
   37.6940   21.9860   34.6090 C   0  0  0  0  0  0  0  0  0  0  0  0
   39.1420   22.1450   34.9640 C   0  0  1  0  0  0  0  0  0  0  0  0
   39.9230   21.9020   33.6830 C   0  0  0  0  0  0  0  0  0  0  0  0
   38.8360   22.3310   32.7050 C   0  0  0  0  0  0  0  0  0  0  0  0
   36.9850   20.5150   32.5850 C   0  0  0  0  0  0  0  0  0  0  0  0
   35.7800   20.0380   33.1410 C   0  0  0  0  0  0  0  0  0  0  0  0
   35.0560   19.0750   32.4480 C   0  0  0  0  0  0  0  0  0  0  0  0
   35.5750   18.6510   31.2490 N   0  0  0  0  0  0  0  0  0  0  0  0
   36.7180   19.1270   30.7580 C   0  0  0  0  0  0  0  0  0  0  0  0
   37.4330   20.0550   31.4100 N   0  0  0  0  0  0  0  0  0  0  0  0
   39.3420   23.5840   35.3360 C   0  0  2  0  0  0  0  0  0  0  0  0
   39.3080   24.0150   36.7290 C   0  0  0  0  0  0  0  0  0  0  0  0
   38.1180   24.2710   35.7950 C   0  0  1  0  0  0  0  0  0  0  0  0
   37.8930   25.6770   35.4170 N   0  0  0  0  0  0  0  0  0  0  0  0
   38.1130   26.7770   36.1230 C   0  0  0  0  0  0  0  0  0  0  0  0
   37.7740   27.8530   35.4110 N   0  0  0  0  0  0  0  0  0  0  0  0
   37.3270   27.4230   34.2230 C   0  0  0  0  0  0  0  0  0  0  0  0
   36.8530   28.1170   33.1210 C   0  0  0  0  0  0  0  0  0  0  0  0
   36.4490   27.4720   32.0160 N   0  0  0  0  0  0  0  0  0  0  0  0
   36.5270   26.1120   32.0280 C   0  0  0  0  0  0  0  0  0  0  0  0
   36.9900   25.4040   33.1000 N   0  0  0  0  0  0  0  0  0  0  0  0
   37.4010   26.0330   34.2240 C   0  0  0  0  0  0  0  0  0  0  0  0
   37.1587   22.9449   34.6720 H   0  0  0  0  0  0  0  0  0  0  0  0
   37.1425   21.3116   35.2806 H   0  0  0  0  0  0  0  0  0  0  0  0
   39.4524   21.4691   35.7744 H   0  0  0  0  0  0  0  0  0  0  0  0
   40.8215   22.5328   33.6140 H   0  0  0  0  0  0  0  0  0  0  0  0
   40.3321   20.8903   33.5451 H   0  0  0  0  0  0  0  0  0  0  0  0
   39.0858   22.0773   31.6642 H   0  0  0  0  0  0  0  0  0  0  0  0
   38.6332   23.4105   32.6457 H   0  0  0  0  0  0  0  0  0  0  0  0
   35.4192   20.4216   34.1068 H   0  0  0  0  0  0  0  0  0  0  0  0
   34.1114   18.6712   32.8414 H   0  0  0  0  0  0  0  0  0  0  0  0
   37.0849   18.7489   29.7924 H   0  0  0  0  0  0  0  0  0  0  0  0
   40.0997   23.7369   34.5534 H   0  0  0  0  0  0  0  0  0  0  0  0
   39.2274   23.2715   37.5356 H   0  0  0  0  0  0  0  0  0  0  0  0
   39.9472   24.6379   37.3720 H   0  0  0  0  0  0  0  0  0  0  0  0
   37.0446   24.0327   35.7644 H   0  0  0  0  0  0  0  0  0  0  0  0
   38.5161   26.7994   37.1462 H   0  0  0  0  0  0  0  0  0  0  0  0
   36.8072   29.2156   33.1528 H   0  0  0  0  0  0  0  0  0  0  0  0
   36.2024   25.5593   31.1340 H   0  0  0  0  0  0  0  0  0  0  0  0
  1  2  1  0
  2  3  1  0
  3 12  1  0
  4  3  1  0
  5  1  1  0
  5  4  1  0
  6  7  2  0
  6  1  1  0
  8  7  1  0
  9  8  2  0
 10  9  1  0
 10 11  2  0
 11  6  1  0
 12 14  1  0
 12 13  1  0
 14 13  1  0
 15 14  1  0
 15 16  1  0
 17 16  2  0
 18 23  2  0
 18 17  1  0
 19 18  1  0
 20 21  1  0
 20 19  2  0
 21 22  2  0
 22 23  1  0
 23 15  1  0
  2 24  1  0
  2 25  1  0
  3 26  1  1
  4 27  1  0
  4 28  1  0
  5 29  1  0
  5 30  1  0
  7 31  1  0
  8 32  1  0
 10 33  1  0
 12 34  1  6
 13 35  1  0
 13 36  1  0
 14 37  1  1
 16 38  1  0
 19 39  1  0
 21 40  1  0
M  ISO  8  24  13  25  13  26  13  27  13  28  13  29  13  30  13  31  14
M  ISO  8  32  14  33  14  34  13  35  13  36  13  37  13  38  14  39  14
M  ISO  1  40  14
M  END
>  <minimizedAffinity>  (1) 
-4.77616262

>  <minimizedRMSD>  (1) 
2.09709048

$$$$
