
     RDKit          3D

 31 33  0  0  0  0  0  0  0  0999 V2000
   39.8970   22.6880   37.3880 C   0  0  0  0  0  0  0  0  0  0  0  0
   39.1320   23.2110   38.4460 C   0  0  0  0  0  0  0  0  0  0  0  0
   37.7560   23.3280   38.2730 C   0  0  0  0  0  0  0  0  0  0  0  0
   37.2190   22.9270   37.0840 N   0  0  0  0  0  0  0  0  0  0  0  0
   37.9720   22.4330   36.0950 C   0  0  0  0  0  0  0  0  0  0  0  0
   39.3140   22.3120   36.2450 N   0  0  0  0  0  0  0  0  0  0  0  0
   37.4090   22.0150   34.8530 N   0  0  0  0  0  0  0  0  0  0  0  0
   38.0600   22.4610   33.7710 C   0  0  0  0  0  0  0  0  0  0  0  0
   37.5450   22.0770   32.5410 C   0  0  0  0  0  0  0  0  0  0  0  0
   36.4310   21.2860   32.5390 C   0  0  0  0  0  0  0  0  0  0  0  0
   35.8290   20.8410   31.3400 N   0  0  0  0  0  0  0  0  0  0  0  0
   35.8160   20.8650   33.6510 N   0  0  0  0  0  0  0  0  0  0  0  0
   36.3120   21.2350   34.8570 C   0  0  0  0  0  0  0  0  0  0  0  0
   35.8130   20.8970   35.9550 O   0  0  0  0  0  0  0  0  0  0  0  0
   38.1500   22.4900   31.3190 N   0  0  0  0  0  0  0  0  0  0  0  0
   39.0490   21.8490   30.5590 C   0  0  0  0  0  0  0  0  0  0  0  0
   39.5060   22.4390   29.4010 C   0  0  0  0  0  0  0  0  0  0  0  0
   39.0570   23.6780   29.0030 C   0  0  0  0  0  0  0  0  0  0  0  0
   39.5030   24.1900   27.9250 O   0  0  0  0  0  0  0  0  0  0  0  0
   38.1560   24.2970   29.7840 N   0  0  0  0  0  0  0  0  0  0  0  0
   37.7030   23.7160   30.9300 C   0  0  0  0  0  0  0  0  0  0  0  0
   36.8580   24.4300   31.5480 O   0  0  0  0  0  0  0  0  0  0  0  0
   40.9864   22.5872   37.5021 H   0  0  0  0  0  0  0  0  0  0  0  0
   39.6097   23.5201   39.3874 H   0  0  0  0  0  0  0  0  0  0  0  0
   37.1185   23.7327   39.0729 H   0  0  0  0  0  0  0  0  0  0  0  0
   38.9539   23.0968   33.8528 H   0  0  0  0  0  0  0  0  0  0  0  0
   34.9894   20.2454   31.3755 H   0  0  0  0  0  0  0  0  0  0  0  0
   36.2299   21.1123   30.4309 H   0  0  0  0  0  0  0  0  0  0  0  0
   39.4197   20.8575   30.8582 H   0  0  0  0  0  0  0  0  0  0  0  0
   40.2448   21.9092   28.7817 H   0  0  0  0  0  0  0  0  0  0  0  0
   37.8022   25.2253   29.5121 H   0  0  0  0  0  0  0  0  0  0  0  0
  1  2  2  0
  3  2  1  0
  4  3  2  0
  5  6  2  0
  5  4  1  0
  6  1  1  0
  7 13  1  0
  7  5  1  0
  8  7  1  0
  9  8  2  0
 10  9  1  0
 10 12  2  0
 11 10  1  0
 12 13  1  0
 13 14  2  0
 15  9  1  0
 16 15  1  0
 17 16  2  0
 18 17  1  0
 18 20  1  0
 19 18  2  0
 20 21  1  0
 21 15  1  0
 21 22  2  0
  1 23  1  0
  2 24  1  0
  3 25  1  0
  8 26  1  0
 11 27  1  0
 11 28  1  0
 16 29  1  0
 17 30  1  0
 20 31  1  0
M  ISO  7  23  14  24  14  25  14  26  14  29  14  30  14  31   9
M  END
>  <minimizedAffinity>  (1) 
-5.64198589

>  <minimizedRMSD>  (1) 
1.30926871

$$$$
