
     RDKit          3D

 32 34  0  0  1  0  0  0  0  0999 V2000
   37.4750   22.3010   34.2260 N   0  0  0  0  0  0  0  0  0  0  0  0
   37.7930   21.9750   35.6130 C   0  0  0  0  0  0  0  0  0  0  0  0
   39.2650   22.2690   35.6660 C   0  0  1  0  0  0  0  0  0  0  0  0
   39.6130   22.9510   34.3530 C   0  0  0  0  0  0  0  0  0  0  0  0
   38.2300   23.5110   34.0420 C   0  0  0  0  0  0  0  0  0  0  0  0
   36.6280   21.6220   33.3080 C   0  0  0  0  0  0  0  0  0  0  0  0
   35.8440   20.5240   33.7150 C   0  0  0  0  0  0  0  0  0  0  0  0
   35.0130   19.9020   32.7860 C   0  0  0  0  0  0  0  0  0  0  0  0
   35.0210   20.4170   31.5140 N   0  0  0  0  0  0  0  0  0  0  0  0
   35.7850   21.4700   31.1610 C   0  0  0  0  0  0  0  0  0  0  0  0
   36.5830   22.0690   32.0480 N   0  0  0  0  0  0  0  0  0  0  0  0
   39.4550   23.2890   36.7470 C   0  0  2  0  0  0  0  0  0  0  0  0
   39.9930   22.9100   38.0570 C   0  0  0  0  0  0  0  0  0  0  0  0
   38.4920   23.1770   37.8640 C   0  0  1  0  0  0  0  0  0  0  0  0
   37.9340   24.4540   38.4890 C   0  0  0  0  0  0  0  0  0  0  0  0
   37.2317   22.6112   36.3131 H   0  0  0  0  0  0  0  0  0  0  0  0
   37.5330   20.9455   35.9003 H   0  0  0  0  0  0  0  0  0  0  0  0
   39.8689   21.3658   35.8379 H   0  0  0  0  0  0  0  0  0  0  0  0
   40.3658   23.7429   34.4799 H   0  0  0  0  0  0  0  0  0  0  0  0
   40.0644   22.3132   33.5788 H   0  0  0  0  0  0  0  0  0  0  0  0
   38.1578   23.8942   33.0135 H   0  0  0  0  0  0  0  0  0  0  0  0
   37.9125   24.3735   34.6465 H   0  0  0  0  0  0  0  0  0  0  0  0
   35.8877   20.1627   34.7531 H   0  0  0  0  0  0  0  0  0  0  0  0
   34.3829   19.0424   33.0580 H   0  0  0  0  0  0  0  0  0  0  0  0
   35.7504   21.8414   30.1262 H   0  0  0  0  0  0  0  0  0  0  0  0
   39.7700   24.0671   36.0361 H   0  0  0  0  0  0  0  0  0  0  0  0
   40.3545   21.8857   38.2309 H   0  0  0  0  0  0  0  0  0  0  0  0
   40.7785   23.2960   38.7233 H   0  0  0  0  0  0  0  0  0  0  0  0
   37.5530   22.6280   38.0279 H   0  0  0  0  0  0  0  0  0  0  0  0
   37.9700   24.3717   39.5853 H   0  0  0  0  0  0  0  0  0  0  0  0
   38.5381   25.3146   38.1659 H   0  0  0  0  0  0  0  0  0  0  0  0
   36.8921   24.5954   38.1659 H   0  0  0  0  0  0  0  0  0  0  0  0
  1  2  1  0
  2  3  1  0
  3 12  1  0
  4  3  1  0
  5  1  1  0
  5  4  1  0
  6  7  2  0
  6  1  1  0
  8  7  1  0
  9  8  2  0
 10  9  1  0
 10 11  2  0
 11  6  1  0
 12 14  1  0
 12 13  1  0
 14 13  1  0
 14 15  1  0
  2 16  1  0
  2 17  1  0
  3 18  1  1
  4 19  1  0
  4 20  1  0
  5 21  1  0
  5 22  1  0
  7 23  1  0
  8 24  1  0
 10 25  1  0
 12 26  1  6
 13 27  1  0
 13 28  1  0
 14 29  1  6
 15 30  1  0
 15 31  1  0
 15 32  1  0
M  ISO  8  16  13  17  13  18  13  19  13  20  13  21  13  22  13  23  14
M  ISO  8  24  14  25  14  26  13  27  13  28  13  29  13  30   8  31   8
M  ISO  1  32   8
M  END
>  <minimizedAffinity>  (1) 
-4.32667494

>  <minimizedRMSD>  (1) 
0.754775047

$$$$
