
     RDKit          3D

 36 39  0  0  1  0  0  0  0  0999 V2000
   37.5980   22.1130   33.3660 N   0  0  0  0  0  0  0  0  0  0  0  0
   36.5200   21.1380   33.5160 C   0  0  0  0  0  0  0  0  0  0  0  0
   35.4530   21.7300   32.6390 C   0  0  1  0  0  0  0  0  0  0  0  0
   36.1090   22.8710   31.8800 C   0  0  0  0  0  0  0  0  0  0  0  0
   37.5430   22.3590   31.9510 C   0  0  0  0  0  0  0  0  0  0  0  0
   38.4670   22.6450   34.3500 C   0  0  0  0  0  0  0  0  0  0  0  0
   38.3660   22.2710   35.7050 C   0  0  0  0  0  0  0  0  0  0  0  0
   39.2590   22.8150   36.6310 C   0  0  0  0  0  0  0  0  0  0  0  0
   40.1910   23.6960   36.1440 N   0  0  0  0  0  0  0  0  0  0  0  0
   40.2560   24.0280   34.8490 C   0  0  0  0  0  0  0  0  0  0  0  0
   39.4070   23.5120   33.9590 N   0  0  0  0  0  0  0  0  0  0  0  0
   35.1110   20.6800   31.6240 C   0  0  2  0  0  0  0  0  0  0  0  0
   34.3590   19.4830   31.9860 C   0  0  0  0  0  0  0  0  0  0  0  0
   35.8790   19.4140   31.8270 C   0  0  1  0  0  0  0  0  0  0  0  0
   36.3810   18.6790   30.6080 C   0  0  0  0  0  0  0  0  0  0  0  0
   36.8960   19.3210   29.4980 C   0  0  0  0  0  0  0  0  0  0  0  0
   37.2310   18.3610   28.6410 N   0  0  0  0  0  0  0  0  0  0  0  0
   36.9380   17.1760   29.1960 C   0  0  0  0  0  0  0  0  0  0  0  0
   36.4050   17.3460   30.4270 N   0  0  0  0  0  0  0  0  0  0  0  0
   36.8261   20.1432   33.1599 H   0  0  0  0  0  0  0  0  0  0  0  0
   36.2046   20.9762   34.5573 H   0  0  0  0  0  0  0  0  0  0  0  0
   34.5727   22.0604   33.2099 H   0  0  0  0  0  0  0  0  0  0  0  0
   35.9842   23.8385   32.3884 H   0  0  0  0  0  0  0  0  0  0  0  0
   35.7145   23.0779   30.8742 H   0  0  0  0  0  0  0  0  0  0  0  0
   37.6872   21.4408   31.3626 H   0  0  0  0  0  0  0  0  0  0  0  0
   38.3156   23.0300   31.5474 H   0  0  0  0  0  0  0  0  0  0  0  0
   37.5929   21.5590   36.0296 H   0  0  0  0  0  0  0  0  0  0  0  0
   39.2171   22.5502   37.6978 H   0  0  0  0  0  0  0  0  0  0  0  0
   41.0241   24.7398   34.5123 H   0  0  0  0  0  0  0  0  0  0  0  0
   34.9395   21.4122   30.8212 H   0  0  0  0  0  0  0  0  0  0  0  0
   33.9060   19.3990   32.9848 H   0  0  0  0  0  0  0  0  0  0  0  0
   33.5059   18.9396   31.5536 H   0  0  0  0  0  0  0  0  0  0  0  0
   36.7407   19.1168   32.4428 H   0  0  0  0  0  0  0  0  0  0  0  0
   37.0064   20.4058   29.3528 H   0  0  0  0  0  0  0  0  0  0  0  0
   37.1077   16.2008   28.7163 H   0  0  0  0  0  0  0  0  0  0  0  0
   36.0876   16.6165   31.0813 H   0  0  0  0  0  0  0  0  0  0  0  0
  1  2  1  0
  1  6  1  0
  3  2  1  0
  4  5  1  0
  4  3  1  0
  5  1  1  0
  6  7  2  0
  7  8  1  0
  9  8  2  0
 10  9  1  0
 11  6  1  0
 11 10  2  0
 12 14  1  0
 12 13  1  0
 12  3  1  0
 14 13  1  0
 15 14  1  0
 16 15  2  0
 17 18  2  0
 17 16  1  0
 18 19  1  0
 19 15  1  0
  2 20  1  0
  2 21  1  0
  3 22  1  1
  4 23  1  0
  4 24  1  0
  5 25  1  0
  5 26  1  0
  7 27  1  0
  8 28  1  0
 10 29  1  0
 12 30  1  6
 13 31  1  0
 13 32  1  0
 14 33  1  1
 16 34  1  0
 18 35  1  0
 19 36  1  0
M  ISO  8  20  13  21  13  22  13  23  13  24  13  25  13  26  13  27  14
M  ISO  8  28  14  29  14  30  13  31  13  32  13  33  13  34  14  35  14
M  ISO  1  36   9
M  END
>  <minimizedAffinity>  (1) 
-4.28110743

>  <minimizedRMSD>  (1) 
7.58421469

$$$$
