
     RDKit          3D

 32 34  0  0  1  0  0  0  0  0999 V2000
   37.7470   22.1340   34.0460 N   0  0  0  0  0  0  0  0  0  0  0  0
   37.4400   22.5230   35.4210 C   0  0  0  0  0  0  0  0  0  0  0  0
   38.7790   22.4220   36.0830 C   0  0  1  0  0  0  0  0  0  0  0  0
   39.7800   22.1310   34.9750 C   0  0  0  0  0  0  0  0  0  0  0  0
   39.0110   22.7920   33.8340 C   0  0  0  0  0  0  0  0  0  0  0  0
   36.9730   21.3210   33.1660 C   0  0  0  0  0  0  0  0  0  0  0  0
   35.8110   20.6600   33.5890 C   0  0  0  0  0  0  0  0  0  0  0  0
   35.1050   19.8910   32.6780 C   0  0  0  0  0  0  0  0  0  0  0  0
   35.6060   19.8290   31.3930 N   0  0  0  0  0  0  0  0  0  0  0  0
   36.7140   20.4710   31.0260 C   0  0  0  0  0  0  0  0  0  0  0  0
   37.4030   21.2170   31.9000 N   0  0  0  0  0  0  0  0  0  0  0  0
   39.1000   23.7960   36.6120 C   0  0  2  0  0  0  0  0  0  0  0  0
   38.2270   24.4460   37.5830 C   0  0  0  0  0  0  0  0  0  0  0  0
   38.2190   24.8640   36.1120 C   0  0  1  0  0  0  0  0  0  0  0  0
   38.7970   26.2330   35.8490 C   0  0  0  0  0  0  0  0  0  0  0  0
   39.8100   26.3870   35.1590 O   0  0  0  0  0  0  0  0  0  0  0  0
   38.1460   27.3450   36.4160 O   0  0  0  0  0  0  0  0  0  0  0  0
   37.0483   23.5499   35.4673 H   0  0  0  0  0  0  0  0  0  0  0  0
   36.6650   21.9018   35.8937 H   0  0  0  0  0  0  0  0  0  0  0  0
   38.8016   21.6597   36.8757 H   0  0  0  0  0  0  0  0  0  0  0  0
   40.7546   22.6083   35.1550 H   0  0  0  0  0  0  0  0  0  0  0  0
   40.0550   21.0757   34.8309 H   0  0  0  0  0  0  0  0  0  0  0  0
   39.4430   22.5599   32.8494 H   0  0  0  0  0  0  0  0  0  0  0  0
   38.9919   23.8918   33.8345 H   0  0  0  0  0  0  0  0  0  0  0  0
   35.4649   20.7507   34.6292 H   0  0  0  0  0  0  0  0  0  0  0  0
   34.1883   19.3550   32.9651 H   0  0  0  0  0  0  0  0  0  0  0  0
   37.0691   20.3873   29.9883 H   0  0  0  0  0  0  0  0  0  0  0  0
   40.1817   23.5970   36.6312 H   0  0  0  0  0  0  0  0  0  0  0  0
   37.3706   23.9018   38.0077 H   0  0  0  0  0  0  0  0  0  0  0  0
   38.3704   24.9622   38.5437 H   0  0  0  0  0  0  0  0  0  0  0  0
   37.4959   24.9312   35.2858 H   0  0  0  0  0  0  0  0  0  0  0  0
   38.4996   28.2569   36.2627 H   0  0  0  0  0  0  0  0  0  0  0  0
  1  2  1  0
  2  3  1  0
  3 12  1  0
  4  3  1  0
  5  1  1  0
  5  4  1  0
  6  7  2  0
  6  1  1  0
  8  7  1  0
  9  8  2  0
 10  9  1  0
 10 11  2  0
 11  6  1  0
 12 13  1  0
 14 12  1  0
 14 13  1  0
 15 14  1  0
 15 17  1  0
 16 15  2  0
  2 18  1  0
  2 19  1  0
  3 20  1  1
  4 21  1  0
  4 22  1  0
  5 23  1  0
  5 24  1  0
  7 25  1  0
  8 26  1  0
 10 27  1  0
 12 28  1  1
 13 29  1  0
 13 30  1  0
 14 31  1  6
 17 32  1  0
M  ISO  8  18  13  19  13  20  13  21  13  22  13  23  13  24  13  25  14
M  ISO  7  26  14  27  14  28  13  29  13  30  13  31  13  32   3
M  END
>  <minimizedAffinity>  (1) 
-4.2377224

>  <minimizedRMSD>  (1) 
1.52503073

$$$$
