
     RDKit          3D

 36 39  0  0  1  0  0  0  0  0999 V2000
   37.9520   21.6010   33.4540 N   0  0  0  0  0  0  0  0  0  0  0  0
   37.9040   21.8610   34.8910 C   0  0  0  0  0  0  0  0  0  0  0  0
   39.3590   21.8080   35.2600 C   0  0  1  0  0  0  0  0  0  0  0  0
   40.1290   21.7260   33.9520 C   0  0  0  0  0  0  0  0  0  0  0  0
   39.0860   22.3940   33.0620 C   0  0  0  0  0  0  0  0  0  0  0  0
   37.0970   20.8000   32.6590 C   0  0  0  0  0  0  0  0  0  0  0  0
   35.8940   20.2730   33.1730 C   0  0  0  0  0  0  0  0  0  0  0  0
   35.0780   19.5040   32.3500 C   0  0  0  0  0  0  0  0  0  0  0  0
   35.5180   19.3070   31.0580 N   0  0  0  0  0  0  0  0  0  0  0  0
   36.6620   19.8200   30.6070 C   0  0  0  0  0  0  0  0  0  0  0  0
   37.4430   20.5580   31.3920 N   0  0  0  0  0  0  0  0  0  0  0  0
   39.6880   23.1340   35.8780 C   0  0  2  0  0  0  0  0  0  0  0  0
   39.3150   23.4510   37.2530 C   0  0  0  0  0  0  0  0  0  0  0  0
   38.5050   24.0090   36.0780 C   0  0  1  0  0  0  0  0  0  0  0  0
   38.6480   25.4550   35.8350 N   0  0  0  0  0  0  0  0  0  0  0  0
   37.9830   26.4520   36.4050 C   0  0  0  0  0  0  0  0  0  0  0  0
   38.4170   27.6670   35.8980 C   0  0  0  0  0  0  0  0  0  0  0  0
   39.3790   27.3730   34.9910 N   0  0  0  0  0  0  0  0  0  0  0  0
   39.5120   26.0400   34.9590 C   0  0  0  0  0  0  0  0  0  0  0  0
   37.4720   22.8497   35.1052 H   0  0  0  0  0  0  0  0  0  0  0  0
   37.2756   21.1533   35.4516 H   0  0  0  0  0  0  0  0  0  0  0  0
   39.5941   20.9696   35.9322 H   0  0  0  0  0  0  0  0  0  0  0  0
   41.0728   22.2899   33.9861 H   0  0  0  0  0  0  0  0  0  0  0  0
   40.4608   20.7233   33.6446 H   0  0  0  0  0  0  0  0  0  0  0  0
   39.3202   22.2864   31.9926 H   0  0  0  0  0  0  0  0  0  0  0  0
   38.9776   23.4825   33.1782 H   0  0  0  0  0  0  0  0  0  0  0  0
   35.6036   20.4685   34.2158 H   0  0  0  0  0  0  0  0  0  0  0  0
   34.1313   19.0754   32.7108 H   0  0  0  0  0  0  0  0  0  0  0  0
   36.9663   19.6301   29.5671 H   0  0  0  0  0  0  0  0  0  0  0  0
   40.6614   23.1936   35.3692 H   0  0  0  0  0  0  0  0  0  0  0  0
   38.8834   22.6736   37.9006 H   0  0  0  0  0  0  0  0  0  0  0  0
   39.8311   23.8852   38.1219 H   0  0  0  0  0  0  0  0  0  0  0  0
   37.4601   23.9883   35.7348 H   0  0  0  0  0  0  0  0  0  0  0  0
   37.2008   26.3317   37.1690 H   0  0  0  0  0  0  0  0  0  0  0  0
   38.0537   28.6674   36.1760 H   0  0  0  0  0  0  0  0  0  0  0  0
   40.2190   25.4950   34.3162 H   0  0  0  0  0  0  0  0  0  0  0  0
  1  2  1  0
  2  3  1  0
  3 12  1  0
  4  3  1  0
  5  1  1  0
  5  4  1  0
  6  7  2  0
  6  1  1  0
  8  7  1  0
  9  8  2  0
 10  9  1  0
 10 11  2  0
 11  6  1  0
 12 14  1  0
 12 13  1  0
 14 13  1  0
 15 14  1  0
 15 16  1  0
 17 16  2  0
 18 17  1  0
 19 18  2  0
 19 15  1  0
  2 20  1  0
  2 21  1  0
  3 22  1  1
  4 23  1  0
  4 24  1  0
  5 25  1  0
  5 26  1  0
  7 27  1  0
  8 28  1  0
 10 29  1  0
 12 30  1  6
 13 31  1  0
 13 32  1  0
 14 33  1  1
 16 34  1  0
 17 35  1  0
 19 36  1  0
M  ISO  8  20  13  21  13  22  13  23  13  24  13  25  13  26  13  27  14
M  ISO  8  28  14  29  14  30  13  31  13  32  13  33  13  34  14  35  14
M  ISO  1  36  14
M  END
>  <minimizedAffinity>  (1) 
-3.67798328

>  <minimizedRMSD>  (1) 
1.83042729

$$$$
