
     RDKit          3D

 30 32  0  0  1  0  0  0  0  0999 V2000
   37.4680   22.3020   34.1810 N   0  0  0  0  0  0  0  0  0  0  0  0
   37.8940   21.9060   35.5210 C   0  0  0  0  0  0  0  0  0  0  0  0
   39.3410   22.3100   35.5160 C   0  0  1  0  0  0  0  0  0  0  0  0
   39.5580   23.0890   34.2310 C   0  0  0  0  0  0  0  0  0  0  0  0
   38.1250   23.5780   34.0440 C   0  0  0  0  0  0  0  0  0  0  0  0
   36.6130   21.5860   33.2880 C   0  0  0  0  0  0  0  0  0  0  0  0
   35.8280   20.5110   33.6880 C   0  0  0  0  0  0  0  0  0  0  0  0
   35.0190   19.8780   32.7470 C   0  0  0  0  0  0  0  0  0  0  0  0
   35.0540   20.3710   31.4630 N   0  0  0  0  0  0  0  0  0  0  0  0
   35.8200   21.4070   31.1100 C   0  0  0  0  0  0  0  0  0  0  0  0
   36.5980   22.0190   32.0060 N   0  0  0  0  0  0  0  0  0  0  0  0
   39.5140   23.2740   36.6530 C   0  0  2  0  0  0  0  0  0  0  0  0
   40.0610   22.8410   37.9420 C   0  0  0  0  0  0  0  0  0  0  0  0
   38.5600   23.1130   37.7660 C   0  0  1  0  0  0  0  0  0  0  0  0
   37.9750   24.6190   38.6400 S   0  0  0  0  0  0  0  0  0  0  0  0
   37.3303   22.4457   36.2962 H   0  0  0  0  0  0  0  0  0  0  0  0
   37.7297   20.8414   35.7440 H   0  0  0  0  0  0  0  0  0  0  0  0
   40.0237   21.4515   35.5987 H   0  0  0  0  0  0  0  0  0  0  0  0
   40.2691   23.9183   34.3600 H   0  0  0  0  0  0  0  0  0  0  0  0
   39.9933   22.5282   33.3908 H   0  0  0  0  0  0  0  0  0  0  0  0
   37.9625   24.0278   33.0534 H   0  0  0  0  0  0  0  0  0  0  0  0
   37.7897   24.3734   34.7259 H   0  0  0  0  0  0  0  0  0  0  0  0
   35.8453   20.1652   34.7321 H   0  0  0  0  0  0  0  0  0  0  0  0
   34.3816   19.0234   33.0180 H   0  0  0  0  0  0  0  0  0  0  0  0
   35.8096   21.7602   30.0683 H   0  0  0  0  0  0  0  0  0  0  0  0
   39.8154   24.0852   35.9739 H   0  0  0  0  0  0  0  0  0  0  0  0
   40.4253   21.8111   38.0705 H   0  0  0  0  0  0  0  0  0  0  0  0
   40.8493   23.1996   38.6203 H   0  0  0  0  0  0  0  0  0  0  0  0
   37.6123   22.5674   37.8852 H   0  0  0  0  0  0  0  0  0  0  0  0
   38.0521   24.4205   39.9934 H   0  0  0  0  0  0  0  0  0  0  0  0
  1  2  1  0
  3  2  1  0
  3 12  1  0
  4  3  1  0
  5  1  1  0
  5  4  1  0
  6  7  2  0
  6  1  1  0
  8  7  1  0
  9  8  2  0
 10  9  1  0
 10 11  2  0
 11  6  1  0
 12 14  1  0
 12 13  1  0
 14 13  1  0
 14 15  1  0
  2 16  1  0
  2 17  1  0
  3 18  1  1
  4 19  1  0
  4 20  1  0
  5 21  1  0
  5 22  1  0
  7 23  1  0
  8 24  1  0
 10 25  1  0
 12 26  1  6
 13 27  1  0
 13 28  1  0
 14 29  1  6
 15 30  1  0
M  ISO  8  16  13  17  13  18  13  19  13  20  13  21  13  22  13  23  14
M  ISO  7  24  14  25  14  26  13  27  13  28  13  29  13  30  11
M  END
>  <minimizedAffinity>  (1) 
-3.90219665

>  <minimizedRMSD>  (1) 
0.812979877

$$$$
