
     RDKit          3D

 38 41  0  0  1  0  0  0  0  0999 V2000
   36.4320   22.1820   32.0850 N   0  0  0  0  0  0  0  0  0  0  0  0
   37.4790   22.8170   32.8910 C   0  0  0  0  0  0  0  0  0  0  0  0
   37.6910   24.1080   32.1580 C   0  0  1  0  0  0  0  0  0  0  0  0
   36.6100   24.1830   31.0840 C   0  0  0  0  0  0  0  0  0  0  0  0
   35.5760   23.3010   31.7930 C   0  0  0  0  0  0  0  0  0  0  0  0
   36.3120   20.8250   31.7070 C   0  0  0  0  0  0  0  0  0  0  0  0
   35.7390   19.8590   32.5420 C   0  0  0  0  0  0  0  0  0  0  0  0
   35.6470   18.5420   32.1190 C   0  0  0  0  0  0  0  0  0  0  0  0
   36.1430   18.2690   30.8690 N   0  0  0  0  0  0  0  0  0  0  0  0
   36.6830   19.2030   30.0930 C   0  0  0  0  0  0  0  0  0  0  0  0
   36.7650   20.4650   30.5110 N   0  0  0  0  0  0  0  0  0  0  0  0
   37.4320   25.2110   33.1270 C   0  0  2  0  0  0  0  0  0  0  0  0
   38.3710   26.3120   33.2930 C   0  0  0  0  0  0  0  0  0  0  0  0
   38.3090   25.1690   34.3210 C   0  0  1  0  0  0  0  0  0  0  0  0
   37.7370   25.4900   35.6230 N   0  0  0  0  0  0  0  0  0  0  0  0
   37.7810   24.5220   36.6650 C   0  0  0  0  0  0  0  0  0  0  0  0
   38.1280   24.7290   37.9840 C   0  0  0  0  0  0  0  0  0  0  0  0
   38.0530   23.5430   38.7000 C   0  0  0  0  0  0  0  0  0  0  0  0
   37.6520   22.6230   37.7750 N   0  0  0  0  0  0  0  0  0  0  0  0
   37.5000   23.2120   36.6010 N   0  0  0  0  0  0  0  0  0  0  0  0
   37.1389   22.9932   33.9222 H   0  0  0  0  0  0  0  0  0  0  0  0
   38.3902   22.2096   32.9955 H   0  0  0  0  0  0  0  0  0  0  0  0
   38.7013   24.1789   31.7289 H   0  0  0  0  0  0  0  0  0  0  0  0
   36.9397   23.7562   30.1253 H   0  0  0  0  0  0  0  0  0  0  0  0
   36.2781   25.1899   30.7907 H   0  0  0  0  0  0  0  0  0  0  0  0
   35.1816   23.7728   32.7051 H   0  0  0  0  0  0  0  0  0  0  0  0
   34.6634   23.0740   31.2224 H   0  0  0  0  0  0  0  0  0  0  0  0
   35.3613   20.1450   33.5348 H   0  0  0  0  0  0  0  0  0  0  0  0
   35.2012   17.7593   32.7503 H   0  0  0  0  0  0  0  0  0  0  0  0
   37.0652   18.9318   29.0978 H   0  0  0  0  0  0  0  0  0  0  0  0
   36.3516   25.2204   32.9204 H   0  0  0  0  0  0  0  0  0  0  0  0
   39.2376   26.4045   32.6218 H   0  0  0  0  0  0  0  0  0  0  0  0
   38.2913   27.4083   33.3364 H   0  0  0  0  0  0  0  0  0  0  0  0
   39.0072   24.4356   34.7506 H   0  0  0  0  0  0  0  0  0  0  0  0
   37.3044   26.4102   35.7873 H   0  0  0  0  0  0  0  0  0  0  0  0
   38.4232   25.6997   38.4091 H   0  0  0  0  0  0  0  0  0  0  0  0
   38.2672   23.3815   39.7668 H   0  0  0  0  0  0  0  0  0  0  0  0
   37.4922   21.6229   37.9627 H   0  0  0  0  0  0  0  0  0  0  0  0
  1  2  1  0
  3  2  1  0
  3 12  1  0
  4  5  1  0
  4  3  1  0
  5  1  1  0
  6  1  1  0
  6  7  2  0
  8  7  1  0
  9  8  2  0
 10 11  2  0
 10  9  1  0
 11  6  1  0
 12 13  1  0
 12 14  1  0
 13 14  1  0
 14 15  1  0
 15 16  1  0
 16 17  1  0
 17 18  2  0
 19 18  1  0
 20 16  2  0
 20 19  1  0
  2 21  1  0
  2 22  1  0
  3 23  1  6
  4 24  1  0
  4 25  1  0
  5 26  1  0
  5 27  1  0
  7 28  1  0
  8 29  1  0
 10 30  1  0
 12 31  1  1
 13 32  1  0
 13 33  1  0
 14 34  1  1
 15 35  1  0
 17 36  1  0
 18 37  1  0
 19 38  1  0
M  ISO  8  21  13  22  13  23  13  24  13  25  13  26  13  27  13  28  14
M  ISO  8  29  14  30  14  31  13  32  13  33  13  34  13  36  14  37  14
M  ISO  1  38   9
M  END
>  <minimizedAffinity>  (1) 
-4.95302963

>  <minimizedRMSD>  (1) 
3.46918964

$$$$
