
     RDKit          3D

 38 41  0  0  1  0  0  0  0  0999 V2000
   38.6110   23.9020   33.9900 N   0  0  0  0  0  0  0  0  0  0  0  0
   39.1400   22.7200   34.6750 C   0  0  0  0  0  0  0  0  0  0  0  0
   40.5990   23.0220   34.7310 C   0  0  1  0  0  0  0  0  0  0  0  0
   40.7650   24.4420   34.2300 C   0  0  0  0  0  0  0  0  0  0  0  0
   39.3850   24.9440   34.5980 C   0  0  0  0  0  0  0  0  0  0  0  0
   37.6010   23.9760   32.9920 C   0  0  0  0  0  0  0  0  0  0  0  0
   37.0840   22.8280   32.3710 C   0  0  0  0  0  0  0  0  0  0  0  0
   36.0950   22.9410   31.3980 C   0  0  0  0  0  0  0  0  0  0  0  0
   35.6820   24.2270   31.1070 N   0  0  0  0  0  0  0  0  0  0  0  0
   36.1930   25.2940   31.7140 C   0  0  0  0  0  0  0  0  0  0  0  0
   37.1500   25.1840   32.6550 N   0  0  0  0  0  0  0  0  0  0  0  0
   40.9820   23.0050   36.1800 C   0  0  2  0  0  0  0  0  0  0  0  0
   41.4680   21.7890   36.8250 C   0  0  0  0  0  0  0  0  0  0  0  0
   40.0180   22.2560   37.0400 C   0  0  1  0  0  0  0  0  0  0  0  0
   39.6930   22.7840   38.3500 N   0  0  0  0  0  0  0  0  0  0  0  0
   38.3470   23.2040   38.5170 C   0  0  0  0  0  0  0  0  0  0  0  0
   38.0290   24.6550   38.8120 C   0  0  0  0  0  0  0  0  0  0  0  0
   37.5810   23.9720   37.5240 C   0  0  0  0  0  0  0  0  0  0  0  0
   38.7137   22.6185   35.6840 H   0  0  0  0  0  0  0  0  0  0  0  0
   38.9022   21.7716   34.1711 H   0  0  0  0  0  0  0  0  0  0  0  0
   41.2007   22.3124   34.1440 H   0  0  0  0  0  0  0  0  0  0  0  0
   40.9510   24.4848   33.1467 H   0  0  0  0  0  0  0  0  0  0  0  0
   41.6148   25.0074   34.6400 H   0  0  0  0  0  0  0  0  0  0  0  0
   39.1715   25.9294   34.1582 H   0  0  0  0  0  0  0  0  0  0  0  0
   39.2066   25.1077   35.6710 H   0  0  0  0  0  0  0  0  0  0  0  0
   37.4621   21.8347   32.6546 H   0  0  0  0  0  0  0  0  0  0  0  0
   35.6690   22.0618   30.8926 H   0  0  0  0  0  0  0  0  0  0  0  0
   35.8241   26.2934   31.4401 H   0  0  0  0  0  0  0  0  0  0  0  0
   41.4157   24.0151   36.1410 H   0  0  0  0  0  0  0  0  0  0  0  0
   41.6742   20.8912   36.2238 H   0  0  0  0  0  0  0  0  0  0  0  0
   42.3129   21.5402   37.4840 H   0  0  0  0  0  0  0  0  0  0  0  0
   39.0092   21.8401   36.9008 H   0  0  0  0  0  0  0  0  0  0  0  0
   39.8861   22.0498   39.0461 H   0  0  0  0  0  0  0  0  0  0  0  0
   38.1694   22.2349   39.0063 H   0  0  0  0  0  0  0  0  0  0  0  0
   37.2938   24.9164   39.5873 H   0  0  0  0  0  0  0  0  0  0  0  0
   38.6079   25.5542   39.0694 H   0  0  0  0  0  0  0  0  0  0  0  0
   38.0469   24.2481   36.5666 H   0  0  0  0  0  0  0  0  0  0  0  0
   36.6145   23.8341   37.0171 H   0  0  0  0  0  0  0  0  0  0  0  0
  1  5  1  0
  1  2  1  0
  2  3  1  0
  3 12  1  0
  4  5  1  0
  4  3  1  0
  6  1  1  0
  7  6  2  0
  8  7  1  0
  9  8  2  0
  9 10  1  0
 10 11  2  0
 11  6  1  0
 12 13  1  0
 12 14  1  0
 13 14  1  0
 14 15  1  0
 15 16  1  0
 16 17  1  0
 18 16  1  0
 18 17  1  0
  2 19  1  0
  2 20  1  0
  3 21  1  6
  4 22  1  0
  4 23  1  0
  5 24  1  0
  5 25  1  0
  7 26  1  0
  8 27  1  0
 10 28  1  0
 12 29  1  1
 13 30  1  0
 13 31  1  0
 14 32  1  6
 15 33  1  0
 16 34  1  0
 17 35  1  0
 17 36  1  0
 18 37  1  0
 18 38  1  0
M  ISO  8  19  13  20  13  21  13  22  13  23  13  24  13  25  13  26  14
M  ISO  8  27  14  28  14  29  13  30  13  31  13  32  13  33   5  34  13
M  ISO  4  35  13  36  13  37  13  38  13
M  END
>  <minimizedAffinity>  (1) 
-4.77231455

>  <minimizedRMSD>  (1) 
2.64179063

$$$$
