
     RDKit          3D

 35 37  0  0  1  0  0  0  0  0999 V2000
   39.8860   22.6700   37.1870 C   0  0  0  0  0  0  0  0  0  0  0  0
   39.2740   23.2750   38.2840 C   0  0  0  0  0  0  0  0  0  0  0  0
   37.8930   23.3780   38.2900 C   0  0  0  0  0  0  0  0  0  0  0  0
   37.1920   22.8870   37.2270 N   0  0  0  0  0  0  0  0  0  0  0  0
   37.8210   22.3040   36.1740 C   0  0  0  0  0  0  0  0  0  0  0  0
   39.1610   22.2030   36.1680 N   0  0  0  0  0  0  0  0  0  0  0  0
   37.0920   21.7930   35.0700 N   0  0  0  0  0  0  0  0  0  0  0  0
   37.5820   22.1290   33.8750 C   0  0  0  0  0  0  0  0  0  0  0  0
   36.9410   21.6800   32.7450 C   0  0  0  0  0  0  0  0  0  0  0  0
   35.8170   20.8990   32.9680 C   0  0  0  0  0  0  0  0  0  0  0  0
   35.0650   20.3730   31.8940 N   0  0  0  0  0  0  0  0  0  0  0  0
   35.3530   20.5810   34.1810 N   0  0  0  0  0  0  0  0  0  0  0  0
   36.0000   21.0350   35.2750 C   0  0  0  0  0  0  0  0  0  0  0  0
   35.6470   20.7930   36.4600 O   0  0  0  0  0  0  0  0  0  0  0  0
   37.3820   21.9820   31.3560 C   0  0  1  0  0  0  0  0  0  0  0  0
   37.9470   23.4080   31.3360 C   0  0  0  0  0  0  0  0  0  0  0  0
   38.3440   23.6430   29.9040 C   0  0  0  0  0  0  0  0  0  0  0  0
   39.6100   22.8510   29.6920 C   0  0  0  0  0  0  0  0  0  0  0  0
   39.5780   21.4640   30.2140 C   0  0  0  0  0  0  0  0  0  0  0  0
   38.2880   20.9790   30.7580 C   0  0  0  0  0  0  0  0  0  0  0  0
   40.9817   22.5762   37.1608 H   0  0  0  0  0  0  0  0  0  0  0  0
   39.8724   23.6604   39.1227 H   0  0  0  0  0  0  0  0  0  0  0  0
   37.3704   23.8472   39.1366 H   0  0  0  0  0  0  0  0  0  0  0  0
   38.4834   22.7545   33.7957 H   0  0  0  0  0  0  0  0  0  0  0  0
   34.2333   19.7952   32.0819 H   0  0  0  0  0  0  0  0  0  0  0  0
   35.3484   20.5673   30.9230 H   0  0  0  0  0  0  0  0  0  0  0  0
   36.5045   21.9204   30.6955 H   0  0  0  0  0  0  0  0  0  0  0  0
   37.1814   24.1328   31.6500 H   0  0  0  0  0  0  0  0  0  0  0  0
   38.7940   23.5292   32.0273 H   0  0  0  0  0  0  0  0  0  0  0  0
   37.5537   23.2906   29.2249 H   0  0  0  0  0  0  0  0  0  0  0  0
   38.4967   24.7125   29.6970 H   0  0  0  0  0  0  0  0  0  0  0  0
   40.4921   23.2717   29.1872 H   0  0  0  0  0  0  0  0  0  0  0  0
   40.4721   20.8234   30.1982 H   0  0  0  0  0  0  0  0  0  0  0  0
   37.7445   20.4929   29.9344 H   0  0  0  0  0  0  0  0  0  0  0  0
   38.5653   20.3176   31.5921 H   0  0  0  0  0  0  0  0  0  0  0  0
  1  2  2  0
  2  3  1  0
  4  3  2  0
  5  4  1  0
  6  5  2  0
  6  1  1  0
  7 13  1  0
  7  5  1  0
  8  7  1  0
  9 10  1  0
  9  8  2  0
 10 12  2  0
 11 10  1  0
 12 13  1  0
 13 14  2  0
 15  9  1  0
 16 15  1  0
 17 16  1  0
 18 17  1  0
 18 19  2  0
 19 20  1  0
 20 15  1  0
  1 21  1  0
  2 22  1  0
  3 23  1  0
  8 24  1  0
 11 25  1  0
 11 26  1  0
 15 27  1  6
 16 28  1  0
 16 29  1  0
 17 30  1  0
 17 31  1  0
 18 32  1  0
 19 33  1  0
 20 34  1  0
 20 35  1  0
M  ISO  8  21  14  22  14  23  14  24  14  27  13  28  13  29  13  30  13
M  ISO  5  31  13  32  13  33  13  34  13  35  13
M  END
>  <minimizedAffinity>  (1) 
-5.37862778

>  <minimizedRMSD>  (1) 
1.33278108

$$$$
