
     RDKit          3D

 43 46  0  0  1  0  0  0  0  0999 V2000
   37.8200   21.6870   33.5750 N   0  0  0  0  0  0  0  0  0  0  0  0
   36.4520   21.1590   33.6760 C   0  0  0  0  0  0  0  0  0  0  0  0
   35.8130   21.7270   32.4510 C   0  0  1  0  0  0  0  0  0  0  0  0
   36.9150   22.3970   31.6530 C   0  0  0  0  0  0  0  0  0  0  0  0
   38.0710   21.5400   32.1590 C   0  0  0  0  0  0  0  0  0  0  0  0
   38.6580   22.1970   34.5940 C   0  0  0  0  0  0  0  0  0  0  0  0
   38.1970   22.3790   35.9110 C   0  0  0  0  0  0  0  0  0  0  0  0
   39.0500   22.8830   36.8830 C   0  0  0  0  0  0  0  0  0  0  0  0
   40.3210   23.1770   36.4730 N   0  0  0  0  0  0  0  0  0  0  0  0
   40.7360   22.9980   35.2210 C   0  0  0  0  0  0  0  0  0  0  0  0
   39.9150   22.5080   34.2690 N   0  0  0  0  0  0  0  0  0  0  0  0
   35.3090   20.5650   31.6510 C   0  0  2  0  0  0  0  0  0  0  0  0
   33.9490   20.0540   31.8330 C   0  0  0  0  0  0  0  0  0  0  0  0
   35.1630   19.3170   32.4300 C   0  0  1  0  0  0  0  0  0  0  0  0
   35.5280   18.0630   31.8160 N   0  0  0  0  0  0  0  0  0  0  0  0
   36.8870   16.1400   32.3000 N   0  0  0  0  0  0  0  0  0  0  0  0
   38.2860   15.7890   32.2080 C   0  0  0  0  0  0  0  0  0  0  0  0
   39.0470   17.0910   31.9270 C   0  0  0  0  0  0  0  0  0  0  0  0
   37.9420   17.8810   31.2430 C   0  0  0  0  0  0  0  0  0  0  0  0
   36.8060   17.5670   32.1600 C   0  0  1  0  0  0  0  0  0  0  0  0
   36.4450   20.0592   33.6579 H   0  0  0  0  0  0  0  0  0  0  0  0
   35.9390   21.4280   34.6111 H   0  0  0  0  0  0  0  0  0  0  0  0
   35.0039   22.4334   32.6886 H   0  0  0  0  0  0  0  0  0  0  0  0
   37.0350   23.4590   31.9133 H   0  0  0  0  0  0  0  0  0  0  0  0
   36.7752   22.4350   30.5626 H   0  0  0  0  0  0  0  0  0  0  0  0
   37.9916   20.4942   31.8274 H   0  0  0  0  0  0  0  0  0  0  0  0
   39.0747   21.8272   31.8126 H   0  0  0  0  0  0  0  0  0  0  0  0
   37.1595   22.1216   36.1704 H   0  0  0  0  0  0  0  0  0  0  0  0
   38.7229   23.0369   37.9219 H   0  0  0  0  0  0  0  0  0  0  0  0
   41.7722   23.2555   34.9564 H   0  0  0  0  0  0  0  0  0  0  0  0
   35.8391   20.8852   30.7419 H   0  0  0  0  0  0  0  0  0  0  0  0
   33.2435   20.5816   32.4917 H   0  0  0  0  0  0  0  0  0  0  0  0
   33.1171   19.7831   31.1662 H   0  0  0  0  0  0  0  0  0  0  0  0
   35.4872   18.9799   33.4256 H   0  0  0  0  0  0  0  0  0  0  0  0
   34.8291   17.3588   32.0927 H   0  0  0  0  0  0  0  0  0  0  0  0
   36.3558   15.6793   31.5473 H   0  0  0  0  0  0  0  0  0  0  0  0
   38.6291   15.3456   33.1544 H   0  0  0  0  0  0  0  0  0  0  0  0
   38.4579   15.0494   31.4121 H   0  0  0  0  0  0  0  0  0  0  0  0
   39.3862   17.5769   32.8538 H   0  0  0  0  0  0  0  0  0  0  0  0
   39.9727   16.9772   31.3438 H   0  0  0  0  0  0  0  0  0  0  0  0
   38.1632   18.9582   31.2186 H   0  0  0  0  0  0  0  0  0  0  0  0
   37.7726   17.6277   30.1860 H   0  0  0  0  0  0  0  0  0  0  0  0
   36.9150   18.1083   33.1114 H   0  0  0  0  0  0  0  0  0  0  0  0
  1  2  1  0
  1  6  1  0
  3  2  1  0
  4  5  1  0
  4  3  1  0
  5  1  1  0
  6  7  2  0
  7  8  1  0
  9  8  2  0
 10  9  1  0
 11  6  1  0
 11 10  2  0
 12 13  1  0
 12 14  1  0
 12  3  1  0
 13 14  1  0
 15 14  1  0
 17 16  1  0
 18 17  1  0
 19 18  1  0
 19 20  1  0
 20 15  1  0
 20 16  1  0
  2 21  1  0
  2 22  1  0
  3 23  1  1
  4 24  1  0
  4 25  1  0
  5 26  1  0
  5 27  1  0
  7 28  1  0
  8 29  1  0
 10 30  1  0
 12 31  1  6
 13 32  1  0
 13 33  1  0
 14 34  1  1
 15 35  1  0
 16 36  1  0
 17 37  1  0
 17 38  1  0
 18 39  1  0
 18 40  1  0
 19 41  1  0
 19 42  1  0
 20 43  1  1
M  ISO  8  21  13  22  13  23  13  24  13  25  13  26  13  27  13  28  14
M  ISO  8  29  14  30  14  31  13  32  13  33  13  34  13  35   5  36   5
M  ISO  7  37  13  38  13  39  13  40  13  41  13  42  13  43  13
M  END
>  <minimizedAffinity>  (1) 
-4.05754042

>  <minimizedRMSD>  (1) 
7.49014187

$$$$
