
     RDKit          3D

 35 38  0  0  0  0  0  0  0  0999 V2000
   39.9080   22.5680   37.5070 C   0  0  0  0  0  0  0  0  0  0  0  0
   39.1600   23.3130   38.4160 C   0  0  0  0  0  0  0  0  0  0  0  0
   37.8090   23.5640   38.1300 C   0  0  0  0  0  0  0  0  0  0  0  0
   37.3120   23.0600   36.9740 N   0  0  0  0  0  0  0  0  0  0  0  0
   38.0500   22.3460   36.1140 C   0  0  0  0  0  0  0  0  0  0  0  0
   39.3530   22.1010   36.3830 N   0  0  0  0  0  0  0  0  0  0  0  0
   37.5120   21.8290   34.9090 N   0  0  0  0  0  0  0  0  0  0  0  0
   38.2370   22.0050   33.8220 C   0  0  0  0  0  0  0  0  0  0  0  0
   37.8690   21.5750   32.6020 C   0  0  0  0  0  0  0  0  0  0  0  0
   36.6430   20.9280   32.6120 C   0  0  0  0  0  0  0  0  0  0  0  0
   36.0080   20.3530   31.4660 N   0  0  0  0  0  0  0  0  0  0  0  0
   35.8950   20.7440   33.7170 N   0  0  0  0  0  0  0  0  0  0  0  0
   36.3370   21.2070   34.9070 C   0  0  0  0  0  0  0  0  0  0  0  0
   35.7160   21.0900   36.0010 O   0  0  0  0  0  0  0  0  0  0  0  0
   38.4290   21.6240   31.2870 C   0  0  0  0  0  0  0  0  0  0  0  0
   38.7090   20.4750   30.6560 N   0  0  0  0  0  0  0  0  0  0  0  0
   39.2260   20.3210   29.4460 C   0  0  0  0  0  0  0  0  0  0  0  0
   39.5320   21.3810   28.7030 N   0  0  0  0  0  0  0  0  0  0  0  0
   39.3030   22.6080   29.2130 C   0  0  0  0  0  0  0  0  0  0  0  0
   39.6120   23.7200   28.4650 C   0  0  0  0  0  0  0  0  0  0  0  0
   39.3840   24.9970   28.9730 C   0  0  0  0  0  0  0  0  0  0  0  0
   38.8400   25.0650   30.2480 C   0  0  0  0  0  0  0  0  0  0  0  0
   38.5670   23.9190   30.9130 C   0  0  0  0  0  0  0  0  0  0  0  0
   38.7660   22.6560   30.4700 C   0  0  0  0  0  0  0  0  0  0  0  0
   40.9680   22.3612   37.7161 H   0  0  0  0  0  0  0  0  0  0  0  0
   39.6189   23.6967   39.3391 H   0  0  0  0  0  0  0  0  0  0  0  0
   37.1781   24.1470   38.8171 H   0  0  0  0  0  0  0  0  0  0  0  0
   39.1970   22.5333   33.9183 H   0  0  0  0  0  0  0  0  0  0  0  0
   35.0935   19.8890   31.5626 H   0  0  0  0  0  0  0  0  0  0  0  0
   36.4653   20.4031   30.5445 H   0  0  0  0  0  0  0  0  0  0  0  0
   39.4035   19.3091   29.0529 H   0  0  0  0  0  0  0  0  0  0  0  0
   40.0418   23.6003   27.4595 H   0  0  0  0  0  0  0  0  0  0  0  0
   39.6222   25.9021   28.3950 H   0  0  0  0  0  0  0  0  0  0  0  0
   38.6330   26.0403   30.7128 H   0  0  0  0  0  0  0  0  0  0  0  0
   38.1379   24.0251   31.9203 H   0  0  0  0  0  0  0  0  0  0  0  0
  1  2  2  0
  3  2  1  0
  4  3  2  0
  5  6  2  0
  5  4  1  0
  6  1  1  0
  7  5  1  0
  8  7  1  0
  9 10  1  0
  9  8  2  0
 10 12  2  0
 11 10  1  0
 12 13  1  0
 13  7  1  0
 13 14  2  0
 15  9  1  0
 16 15  2  0
 17 16  1  0
 18 19  1  0
 18 17  2  0
 19 24  2  0
 20 21  2  0
 20 19  1  0
 21 22  1  0
 22 23  2  0
 24 23  1  0
 24 15  1  0
  1 25  1  0
  2 26  1  0
  3 27  1  0
  8 28  1  0
 11 29  1  0
 11 30  1  0
 17 31  1  0
 20 32  1  0
 21 33  1  0
 22 34  1  0
 23 35  1  0
M  ISO  8  25  14  26  14  27  14  28  14  31  14  32  14  33  14  34  14
M  ISO  1  35  14
M  END
>  <minimizedAffinity>  (1) 
-5.33211231

>  <minimizedRMSD>  (1) 
1.41758716

$$$$
