
     RDKit          3D

 30 32  0  0  0  0  0  0  0  0999 V2000
   38.3920   26.8430   35.4150 C   0  0  0  0  0  0  0  0  0  0  0  0
   38.1710   27.1380   33.9650 C   0  0  0  0  0  0  0  0  0  0  0  0
   38.8270   26.7840   32.8030 C   0  0  0  0  0  0  0  0  0  0  0  0
   38.1660   27.3510   31.7950 N   0  0  0  0  0  0  0  0  0  0  0  0
   37.1140   28.0570   32.2110 C   0  0  0  0  0  0  0  0  0  0  0  0
   36.1510   28.8030   31.5670 C   0  0  0  0  0  0  0  0  0  0  0  0
   35.1420   29.4560   32.2470 C   0  0  0  0  0  0  0  0  0  0  0  0
   35.1160   29.3420   33.6230 C   0  0  0  0  0  0  0  0  0  0  0  0
   36.0760   28.5980   34.2750 C   0  0  0  0  0  0  0  0  0  0  0  0
   37.0960   27.9390   33.5780 C   0  0  0  0  0  0  0  0  0  0  0  0
   37.5540   25.6840   35.8820 C   0  0  0  0  0  0  0  0  0  0  0  0
   38.0930   24.2050   37.8910 C   0  0  0  0  0  0  0  0  0  0  0  0
   38.3450   24.6600   36.5790 C   0  0  0  0  0  0  0  0  0  0  0  0
   39.4320   24.0920   35.8850 C   0  0  0  0  0  0  0  0  0  0  0  0
   40.1740   23.1450   36.5120 N   0  0  0  0  0  0  0  0  0  0  0  0
   39.8870   22.7430   37.7820 C   0  0  0  0  0  0  0  0  0  0  0  0
   38.8630   23.2630   38.4650 N   0  0  0  0  0  0  0  0  0  0  0  0
   38.1281   27.7337   36.0041 H   0  0  0  0  0  0  0  0  0  0  0  0
   39.4506   26.5779   35.5531 H   0  0  0  0  0  0  0  0  0  0  0  0
   39.7249   26.1535   32.7244 H   0  0  0  0  0  0  0  0  0  0  0  0
   38.4369   27.2549   30.8059 H   0  0  0  0  0  0  0  0  0  0  0  0
   36.1873   28.8813   30.4704 H   0  0  0  0  0  0  0  0  0  0  0  0
   34.3847   30.0469   31.7109 H   0  0  0  0  0  0  0  0  0  0  0  0
   34.3271   29.8463   34.2003 H   0  0  0  0  0  0  0  0  0  0  0  0
   36.0398   28.5200   35.3716 H   0  0  0  0  0  0  0  0  0  0  0  0
   36.7823   26.0613   36.5691 H   0  0  0  0  0  0  0  0  0  0  0  0
   37.1098   25.2138   34.9923 H   0  0  0  0  0  0  0  0  0  0  0  0
   37.2498   24.6293   38.4558 H   0  0  0  0  0  0  0  0  0  0  0  0
   39.6731   24.4088   34.8596 H   0  0  0  0  0  0  0  0  0  0  0  0
   40.5129   21.9725   38.2560 H   0  0  0  0  0  0  0  0  0  0  0  0
  1 11  1  0
  2  1  1  0
  3  2  2  0
  4  5  1  0
  4  3  1  0
  5 10  2  0
  6  5  1  0
  6  7  2  0
  7  8  1  0
  8  9  2  0
 10  2  1  0
 10  9  1  0
 11 13  1  0
 12 17  2  0
 13 12  1  0
 14 15  1  0
 14 13  2  0
 15 16  2  0
 16 17  1  0
  1 18  1  0
  1 19  1  0
  3 20  1  0
  4 21  1  0
  6 22  1  0
  7 23  1  0
  8 24  1  0
  9 25  1  0
 11 26  1  0
 11 27  1  0
 12 28  1  0
 14 29  1  0
 16 30  1  0
M  ISO  8  18   8  19   8  20  14  21   9  22  14  23  14  24  14  25  14
M  ISO  5  26   8  27   8  28  14  29  14  30  14
M  END
>  <minimizedAffinity>  (1) 
-4.74951029

>  <minimizedRMSD>  (1) 
1.96696591

$$$$
