
     RDKit          3D

 27 28  0  0  0  0  0  0  0  0999 V2000
   37.5760   25.5110   36.2060 C   0  0  0  0  0  0  0  0  0  0  0  0
   38.5250   24.4420   36.5060 N   0  0  0  0  0  0  0  0  0  0  0  0
   39.3990   23.9230   35.6370 C   0  0  0  0  0  0  0  0  0  0  0  0
   40.2510   22.9090   36.0410 C   0  0  0  0  0  0  0  0  0  0  0  0
   40.2260   22.4090   37.3330 C   0  0  0  0  0  0  0  0  0  0  0  0
   41.0690   21.3700   37.8170 N   0  0  0  0  0  0  0  0  0  0  0  0
   39.3280   22.9490   38.2060 N   0  0  0  0  0  0  0  0  0  0  0  0
   38.5150   23.9410   37.7640 C   0  0  0  0  0  0  0  0  0  0  0  0
   37.7180   24.3850   38.6310 O   0  0  0  0  0  0  0  0  0  0  0  0
   38.2740   26.5010   35.3020 C   0  0  0  0  0  0  0  0  0  0  0  0
   36.5680   28.1560   34.4030 C   0  0  0  0  0  0  0  0  0  0  0  0
   37.4080   27.0420   34.2520 C   0  0  0  0  0  0  0  0  0  0  0  0
   37.4280   26.3910   33.0150 C   0  0  0  0  0  0  0  0  0  0  0  0
   36.6210   26.8840   32.0180 N   0  0  0  0  0  0  0  0  0  0  0  0
   35.8310   27.9520   32.1980 C   0  0  0  0  0  0  0  0  0  0  0  0
   35.8050   28.5820   33.3790 N   0  0  0  0  0  0  0  0  0  0  0  0
   36.6928   25.0968   35.6977 H   0  0  0  0  0  0  0  0  0  0  0  0
   37.2418   26.0021   37.1318 H   0  0  0  0  0  0  0  0  0  0  0  0
   39.4409   24.3004   34.6046 H   0  0  0  0  0  0  0  0  0  0  0  0
   40.9659   22.4897   35.3178 H   0  0  0  0  0  0  0  0  0  0  0  0
   40.9879   21.0541   38.7940 H   0  0  0  0  0  0  0  0  0  0  0  0
   41.7604   20.9338   37.1904 H   0  0  0  0  0  0  0  0  0  0  0  0
   38.6399   27.3365   35.9168 H   0  0  0  0  0  0  0  0  0  0  0  0
   39.0925   25.9625   34.8019 H   0  0  0  0  0  0  0  0  0  0  0  0
   36.5327   28.6857   35.3664 H   0  0  0  0  0  0  0  0  0  0  0  0
   38.0686   25.5130   32.8454 H   0  0  0  0  0  0  0  0  0  0  0  0
   35.2011   28.3124   31.3714 H   0  0  0  0  0  0  0  0  0  0  0  0
  1  2  1  0
  2  8  1  0
  3  4  2  0
  3  2  1  0
  4  5  1  0
  5  6  1  0
  5  7  2  0
  8  7  1  0
  8  9  2  0
 10  1  1  0
 12 11  2  0
 12 10  1  0
 13 12  1  0
 14 15  1  0
 14 13  2  0
 15 16  2  0
 16 11  1  0
  1 17  1  0
  1 18  1  0
  3 19  1  0
  4 20  1  0
  6 21  1  0
  6 22  1  0
 10 23  1  0
 10 24  1  0
 11 25  1  0
 13 26  1  0
 15 27  1  0
M  ISO  8  17   8  18   8  19  14  20  14  23   8  24   8  25  14  26  14
M  ISO  1  27  14
M  END
>  <minimizedAffinity>  (1) 
-4.63636971

>  <minimizedRMSD>  (1) 
6.77570868

$$$$
