
     RDKit          3D

 34 36  0  0  0  0  0  0  0  0999 V2000
   39.8810   22.6650   37.3600 C   0  0  0  0  0  0  0  0  0  0  0  0
   39.1260   23.2050   38.4050 C   0  0  0  0  0  0  0  0  0  0  0  0
   37.7490   23.3210   38.2320 C   0  0  0  0  0  0  0  0  0  0  0  0
   37.2180   22.9020   37.0540 N   0  0  0  0  0  0  0  0  0  0  0  0
   37.9760   22.3840   36.0610 C   0  0  0  0  0  0  0  0  0  0  0  0
   39.3040   22.2660   36.2150 N   0  0  0  0  0  0  0  0  0  0  0  0
   37.4010   21.9530   34.8380 N   0  0  0  0  0  0  0  0  0  0  0  0
   38.0590   22.3530   33.7370 C   0  0  0  0  0  0  0  0  0  0  0  0
   37.5820   21.9860   32.5020 C   0  0  0  0  0  0  0  0  0  0  0  0
   36.4330   21.2160   32.5150 C   0  0  0  0  0  0  0  0  0  0  0  0
   35.8160   20.7570   31.3220 N   0  0  0  0  0  0  0  0  0  0  0  0
   35.7820   20.8220   33.6390 N   0  0  0  0  0  0  0  0  0  0  0  0
   36.2910   21.2080   34.8420 C   0  0  0  0  0  0  0  0  0  0  0  0
   35.7750   20.9050   35.9430 O   0  0  0  0  0  0  0  0  0  0  0  0
   39.2560   23.3890   28.9090 C   0  0  0  0  0  0  0  0  0  0  0  0
   39.4380   22.0530   29.2230 C   0  0  0  0  0  0  0  0  0  0  0  0
   38.9100   21.5440   30.3880 C   0  0  0  0  0  0  0  0  0  0  0  0
   38.1970   22.3520   31.2530 C   0  0  0  0  0  0  0  0  0  0  0  0
   38.0290   23.6890   30.9150 C   0  0  0  0  0  0  0  0  0  0  0  0
   38.5550   24.2260   29.7410 C   0  0  0  0  0  0  0  0  0  0  0  0
   39.9500   23.9840   27.4130 S   0  0  0  0  0  0  0  0  0  0  0  0
   41.4120   23.6370   27.3020 O   0  0  0  0  0  0  0  0  0  0  0  0
   39.2470   23.3850   26.2230 O   0  0  0  0  0  0  0  0  0  0  0  0
   40.9701   22.5648   37.4780 H   0  0  0  0  0  0  0  0  0  0  0  0
   39.6068   23.5298   39.3395 H   0  0  0  0  0  0  0  0  0  0  0  0
   37.1111   23.7390   39.0247 H   0  0  0  0  0  0  0  0  0  0  0  0
   38.9680   22.9665   33.8233 H   0  0  0  0  0  0  0  0  0  0  0  0
   34.9607   20.1853   31.3716 H   0  0  0  0  0  0  0  0  0  0  0  0
   36.2236   20.9956   30.4067 H   0  0  0  0  0  0  0  0  0  0  0  0
   40.0036   21.3993   28.5427 H   0  0  0  0  0  0  0  0  0  0  0  0
   39.0574   20.4818   30.6331 H   0  0  0  0  0  0  0  0  0  0  0  0
   37.4637   24.3438   31.5944 H   0  0  0  0  0  0  0  0  0  0  0  0
   38.4127   25.2873   29.4892 H   0  0  0  0  0  0  0  0  0  0  0  0
   39.7983   25.3455   27.4276 H   0  0  0  0  0  0  0  0  0  0  0  0
  1  2  2  0
  3  2  1  0
  4  3  2  0
  5  6  2  0
  5  4  1  0
  6  1  1  0
  7 13  1  0
  7  5  1  0
  8  7  1  0
  9 10  1  0
  9  8  2  0
 10 12  2  0
 11 10  1  0
 12 13  1  0
 13 14  2  0
 15 16  2  0
 15 20  1  0
 16 17  1  0
 17 18  2  0
 18  9  1  0
 19 18  1  0
 20 19  2  0
 21 15  1  0
 22 21  2  0
 23 21  2  0
  1 24  1  0
  2 25  1  0
  3 26  1  0
  8 27  1  0
 11 28  1  0
 11 29  1  0
 16 30  1  0
 17 31  1  0
 19 32  1  0
 20 33  1  0
 21 34  1  0
M  ISO  8  24  14  25  14  26  14  27  14  30  14  31  14  32  14  33  14
M  ISO  1  34  11
M  END
>  <minimizedAffinity>  (1) 
-5.31883097

>  <minimizedRMSD>  (1) 
0.976693273

$$$$
