
     RDKit          3D

 25 26  0  0  0  0  0  0  0  0999 V2000
   37.5610   25.3340   35.8960 C   0  0  0  0  0  0  0  0  0  0  0  0
   38.3320   23.8900   37.8440 C   0  0  0  0  0  0  0  0  0  0  0  0
   38.4920   24.3940   36.5380 C   0  0  0  0  0  0  0  0  0  0  0  0
   39.6130   23.9760   35.7960 C   0  0  0  0  0  0  0  0  0  0  0  0
   40.4740   23.0980   36.4060 N   0  0  0  0  0  0  0  0  0  0  0  0
   40.2780   22.6450   37.6550 C   0  0  0  0  0  0  0  0  0  0  0  0
   39.2100   23.0410   38.3680 N   0  0  0  0  0  0  0  0  0  0  0  0
   38.1610   26.6840   35.6460 C   0  0  0  0  0  0  0  0  0  0  0  0
   37.5640   27.3910   34.4860 C   0  0  0  0  0  0  0  0  0  0  0  0
   36.4710   28.2300   34.4930 C   0  0  0  0  0  0  0  0  0  0  0  0
   36.0370   28.8150   33.3180 C   0  0  0  0  0  0  0  0  0  0  0  0
   36.7500   28.5110   32.1790 C   0  0  0  0  0  0  0  0  0  0  0  0
   37.8480   27.6710   32.1550 C   0  0  0  0  0  0  0  0  0  0  0  0
   38.1920   27.1530   33.3430 N   0  0  0  0  0  0  0  0  0  0  0  0
   37.2445   24.9086   34.9322 H   0  0  0  0  0  0  0  0  0  0  0  0
   36.7147   25.4758   36.5842 H   0  0  0  0  0  0  0  0  0  0  0  0
   37.4638   24.2053   38.4413 H   0  0  0  0  0  0  0  0  0  0  0  0
   39.7911   24.3371   34.7723 H   0  0  0  0  0  0  0  0  0  0  0  0
   40.9990   21.9427   38.0989 H   0  0  0  0  0  0  0  0  0  0  0  0
   38.0139   27.3022   36.5439 H   0  0  0  0  0  0  0  0  0  0  0  0
   39.2255   26.5278   35.4171 H   0  0  0  0  0  0  0  0  0  0  0  0
   35.9425   28.4348   35.4357 H   0  0  0  0  0  0  0  0  0  0  0  0
   35.1675   29.4883   33.2937 H   0  0  0  0  0  0  0  0  0  0  0  0
   36.4259   28.9643   31.2306 H   0  0  0  0  0  0  0  0  0  0  0  0
   38.3985   27.4445   31.2300 H   0  0  0  0  0  0  0  0  0  0  0  0
  1  3  1  0
  2  7  2  0
  3  2  1  0
  4  5  1  0
  4  3  2  0
  5  6  2  0
  6  7  1  0
  8  1  1  0
  9 10  2  0
  9  8  1  0
 11 10  1  0
 12 11  2  0
 13 12  1  0
 13 14  2  0
 14  9  1  0
  1 15  1  0
  1 16  1  0
  2 17  1  0
  4 18  1  0
  6 19  1  0
  8 20  1  0
  8 21  1  0
 10 22  1  0
 11 23  1  0
 12 24  1  0
 13 25  1  0
M  ISO  8  15   8  16   8  17  14  18  14  19  14  20   8  21   8  22  14
M  ISO  3  23  14  24  14  25  14
M  END
>  <minimizedAffinity>  (1) 
-4.06473207

>  <minimizedRMSD>  (1) 
1.17121959

$$$$
