
     RDKit          3D

 21 22  0  0  0  0  0  0  0  0999 V2000
   37.5650   25.3490   35.8360 C   0  0  0  0  0  0  0  0  0  0  0  0
   38.3070   23.9130   37.8240 C   0  0  0  0  0  0  0  0  0  0  0  0
   38.4810   24.4120   36.5050 C   0  0  0  0  0  0  0  0  0  0  0  0
   39.6120   23.9770   35.7910 C   0  0  0  0  0  0  0  0  0  0  0  0
   40.4650   23.1040   36.4150 N   0  0  0  0  0  0  0  0  0  0  0  0
   40.2530   22.6570   37.6760 C   0  0  0  0  0  0  0  0  0  0  0  0
   39.1860   23.0640   38.3590 N   0  0  0  0  0  0  0  0  0  0  0  0
   38.1630   26.7010   35.6370 C   0  0  0  0  0  0  0  0  0  0  0  0
   37.4670   27.4370   34.5610 C   0  0  0  0  0  0  0  0  0  0  0  0
   37.7930   27.3740   33.2400 N   0  0  0  0  0  0  0  0  0  0  0  0
   36.9840   28.1390   32.5660 O   0  0  0  0  0  0  0  0  0  0  0  0
   36.1210   28.7190   33.3810 C   0  0  0  0  0  0  0  0  0  0  0  0
   36.4190   28.2840   34.6200 N   0  0  0  0  0  0  0  0  0  0  0  0
   37.2962   24.9356   34.8527 H   0  0  0  0  0  0  0  0  0  0  0  0
   36.6839   25.4692   36.4835 H   0  0  0  0  0  0  0  0  0  0  0  0
   37.4342   24.2316   38.4129 H   0  0  0  0  0  0  0  0  0  0  0  0
   39.8056   24.3258   34.7659 H   0  0  0  0  0  0  0  0  0  0  0  0
   40.9646   21.9559   38.1365 H   0  0  0  0  0  0  0  0  0  0  0  0
   38.0810   27.2716   36.5738 H   0  0  0  0  0  0  0  0  0  0  0  0
   39.2179   26.5779   35.3506 H   0  0  0  0  0  0  0  0  0  0  0  0
   35.3187   29.4182   33.1028 H   0  0  0  0  0  0  0  0  0  0  0  0
  1  3  1  0
  2  7  2  0
  3  2  1  0
  4  5  1  0
  4  3  2  0
  5  6  2  0
  6  7  1  0
  8  1  1  0
  9 13  1  0
  9  8  1  0
 10  9  2  0
 11 10  1  0
 11 12  1  0
 12 13  2  0
  1 14  1  0
  1 15  1  0
  2 16  1  0
  4 17  1  0
  6 18  1  0
  8 19  1  0
  8 20  1  0
 12 21  1  0
M  ISO  8  14   8  15   8  16  14  17  14  18  14  19   8  20   8  21  14
M  END
>  <minimizedAffinity>  (1) 
-3.62000418

>  <minimizedRMSD>  (1) 
0.888983071

$$$$
