
     RDKit          3D

 29 30  0  0  0  0  0  0  0  0999 V2000
   37.5760   25.7610   35.8220 C   0  0  0  0  0  0  0  0  0  0  0  0
   38.0360   24.2770   37.8550 C   0  0  0  0  0  0  0  0  0  0  0  0
   38.3310   24.7070   36.5500 C   0  0  0  0  0  0  0  0  0  0  0  0
   39.3890   24.1220   35.8660 C   0  0  0  0  0  0  0  0  0  0  0  0
   40.1040   23.1430   36.5090 N   0  0  0  0  0  0  0  0  0  0  0  0
   39.8000   22.7470   37.7710 C   0  0  0  0  0  0  0  0  0  0  0  0
   38.7720   23.3240   38.4170 N   0  0  0  0  0  0  0  0  0  0  0  0
   38.2400   26.2210   34.5740 C   0  0  0  0  0  0  0  0  0  0  0  0
   37.2970   26.3760   33.5130 N   0  0  0  0  0  0  0  0  0  0  0  0
   37.5550   27.4990   32.6600 C   0  0  0  0  0  0  0  0  0  0  0  0
   38.8640   27.3590   31.8940 C   0  0  0  0  0  0  0  0  0  0  0  0
   39.1460   26.0160   31.6720 O   0  0  0  0  0  0  0  0  0  0  0  0
   38.0000   25.2720   31.4650 C   0  0  0  0  0  0  0  0  0  0  0  0
   37.1510   25.1580   32.7200 C   0  0  0  0  0  0  0  0  0  0  0  0
   36.5856   25.3602   35.5604 H   0  0  0  0  0  0  0  0  0  0  0  0
   37.5144   26.6314   36.4917 H   0  0  0  0  0  0  0  0  0  0  0  0
   37.1992   24.7275   38.4090 H   0  0  0  0  0  0  0  0  0  0  0  0
   39.6453   24.4333   34.8426 H   0  0  0  0  0  0  0  0  0  0  0  0
   40.3906   21.9594   38.2618 H   0  0  0  0  0  0  0  0  0  0  0  0
   38.7289   27.1880   34.7634 H   0  0  0  0  0  0  0  0  0  0  0  0
   38.9796   25.4640   34.2742 H   0  0  0  0  0  0  0  0  0  0  0  0
   36.7309   27.5900   31.9371 H   0  0  0  0  0  0  0  0  0  0  0  0
   37.6336   28.3924   33.2970 H   0  0  0  0  0  0  0  0  0  0  0  0
   38.7773   27.8772   30.9276 H   0  0  0  0  0  0  0  0  0  0  0  0
   39.6771   27.8047   32.4859 H   0  0  0  0  0  0  0  0  0  0  0  0
   37.4030   25.7541   30.6768 H   0  0  0  0  0  0  0  0  0  0  0  0
   38.3065   24.2567   31.1731 H   0  0  0  0  0  0  0  0  0  0  0  0
   36.0956   25.0265   32.4391 H   0  0  0  0  0  0  0  0  0  0  0  0
   37.4813   24.2912   33.3112 H   0  0  0  0  0  0  0  0  0  0  0  0
  1  3  1  0
  2  7  2  0
  3  2  1  0
  4  5  1  0
  4  3  2  0
  5  6  2  0
  6  7  1  0
  8  1  1  0
  9  8  1  0
 10  9  1  0
 11 10  1  0
 12 11  1  0
 13 12  1  0
 13 14  1  0
 14  9  1  0
  1 15  1  0
  1 16  1  0
  2 17  1  0
  4 18  1  0
  6 19  1  0
  8 20  1  0
  8 21  1  0
 10 22  1  0
 10 23  1  0
 11 24  1  0
 11 25  1  0
 13 26  1  0
 13 27  1  0
 14 28  1  0
 14 29  1  0
M  ISO  8  15   8  16   8  17  14  18  14  19  14  20   8  21   8  22  13
M  ISO  7  23  13  24  13  25  13  26  13  27  13  28  13  29  13
M  END
>  <minimizedAffinity>  (1) 
-3.52869439

>  <minimizedRMSD>  (1) 
2.72945762

$$$$
