
     RDKit          3D

 18 18  0  0  0  0  0  0  0  0999 V2000
   38.0640   24.2730   37.8320 C   0  0  0  0  0  0  0  0  0  0  0  0
   38.3930   24.6740   36.5270 C   0  0  0  0  0  0  0  0  0  0  0  0
   39.4830   24.0350   35.9220 C   0  0  0  0  0  0  0  0  0  0  0  0
   40.1420   23.0800   36.6350 N   0  0  0  0  0  0  0  0  0  0  0  0
   39.7930   22.7290   37.8820 C   0  0  0  0  0  0  0  0  0  0  0  0
   38.7570   23.3300   38.4660 N   0  0  0  0  0  0  0  0  0  0  0  0
   37.6970   25.7010   35.7410 C   0  0  0  0  0  0  0  0  0  0  0  0
   38.2970   27.0620   35.8820 C   0  0  0  0  0  0  0  0  0  0  0  0
   37.4320   28.0090   35.1900 N   0  0  0  0  0  0  0  0  0  0  0  0
   37.2138   24.7493   38.3421 H   0  0  0  0  0  0  0  0  0  0  0  0
   39.7974   24.2969   34.9010 H   0  0  0  0  0  0  0  0  0  0  0  0
   40.3574   21.9516   38.4178 H   0  0  0  0  0  0  0  0  0  0  0  0
   36.6496   25.7452   36.0742 H   0  0  0  0  0  0  0  0  0  0  0  0
   37.7841   25.4151   34.6824 H   0  0  0  0  0  0  0  0  0  0  0  0
   38.3682   27.3302   36.9464 H   0  0  0  0  0  0  0  0  0  0  0  0
   39.3080   27.0808   35.4490 H   0  0  0  0  0  0  0  0  0  0  0  0
   36.9172   28.5726   35.8816 H   0  0  0  0  0  0  0  0  0  0  0  0
   38.0047   28.6291   34.5997 H   0  0  0  0  0  0  0  0  0  0  0  0
  1  6  2  0
  2  1  1  0
  3  2  2  0
  3  4  1  0
  4  5  2  0
  5  6  1  0
  7  8  1  0
  7  2  1  0
  9  8  1  0
  1 10  1  0
  3 11  1  0
  5 12  1  0
  7 13  1  0
  7 14  1  0
  8 15  1  0
  8 16  1  0
  9 17  1  0
  9 18  1  0
M  ISO  8  10  14  11  14  12  14  13   8  14   8  15   8  16   8  17   5
M  ISO  1  18   5
M  END
>  <minimizedAffinity>  (1) 
-2.93897915

>  <minimizedRMSD>  (1) 
0.109138876

$$$$
