
     RDKit          3D

 23 24  0  0  0  0  0  0  0  0999 V2000
   38.3900   23.8890   37.8330 C   0  0  0  0  0  0  0  0  0  0  0  0
   38.5700   24.4070   36.5380 C   0  0  0  0  0  0  0  0  0  0  0  0
   39.6840   23.9500   35.8110 C   0  0  0  0  0  0  0  0  0  0  0  0
   40.5100   23.0360   36.4070 N   0  0  0  0  0  0  0  0  0  0  0  0
   40.2890   22.5730   37.6520 C   0  0  0  0  0  0  0  0  0  0  0  0
   39.2310   22.9960   38.3680 N   0  0  0  0  0  0  0  0  0  0  0  0
   37.6910   25.3860   35.8900 C   0  0  0  0  0  0  0  0  0  0  0  0
   38.2150   26.8000   35.9970 C   0  0  0  0  0  0  0  0  0  0  0  0
   37.9990   27.5980   34.7600 C   0  0  0  0  0  0  0  0  0  0  0  0
   37.1490   26.9830   33.6730 C   0  0  0  0  0  0  0  0  0  0  0  0
   36.6040   28.0930   34.5140 C   0  0  0  0  0  0  0  0  0  0  0  0
   37.5286   24.2294   38.4264 H   0  0  0  0  0  0  0  0  0  0  0  0
   39.8853   24.3164   34.7935 H   0  0  0  0  0  0  0  0  0  0  0  0
   40.9823   21.8395   38.0894 H   0  0  0  0  0  0  0  0  0  0  0  0
   36.7009   25.3404   36.3672 H   0  0  0  0  0  0  0  0  0  0  0  0
   37.6392   25.1304   34.8214 H   0  0  0  0  0  0  0  0  0  0  0  0
   37.7019   27.3013   36.8310 H   0  0  0  0  0  0  0  0  0  0  0  0
   39.3009   26.7357   36.1602 H   0  0  0  0  0  0  0  0  0  0  0  0
   38.9994   28.0537   34.7987 H   0  0  0  0  0  0  0  0  0  0  0  0
   36.7596   25.9610   33.7909 H   0  0  0  0  0  0  0  0  0  0  0  0
   37.2701   26.8118   32.5932 H   0  0  0  0  0  0  0  0  0  0  0  0
   36.4450   29.0880   34.0729 H   0  0  0  0  0  0  0  0  0  0  0  0
   35.7073   28.2237   35.1376 H   0  0  0  0  0  0  0  0  0  0  0  0
  1  6  2  0
  2  1  1  0
  3  4  1  0
  3  2  2  0
  4  5  2  0
  5  6  1  0
  7  8  1  0
  7  2  1  0
  9  8  1  0
 10 11  1  0
 10  9  1  0
 11  9  1  0
  1 12  1  0
  3 13  1  0
  5 14  1  0
  7 15  1  0
  7 16  1  0
  8 17  1  0
  8 18  1  0
  9 19  1  0
 10 20  1  0
 10 21  1  0
 11 22  1  0
 11 23  1  0
M  ISO  8  12  14  13  14  14  14  15   8  16   8  17   8  18   8  19  13
M  ISO  4  20  13  21  13  22  13  23  13
M  END
>  <minimizedAffinity>  (1) 
-3.47132802

>  <minimizedRMSD>  (1) 
0.890648842

$$$$
