
     RDKit          3D

 32 33  0  0  0  0  0  0  0  0999 V2000
   37.5070   25.6720   35.9540 C   0  0  0  0  0  0  0  0  0  0  0  0
   38.1080   24.1680   37.9360 C   0  0  0  0  0  0  0  0  0  0  0  0
   38.3360   24.6370   36.6190 C   0  0  0  0  0  0  0  0  0  0  0  0
   39.4090   24.1010   35.8850 C   0  0  0  0  0  0  0  0  0  0  0  0
   40.1700   23.1430   36.5100 N   0  0  0  0  0  0  0  0  0  0  0  0
   39.9170   22.7280   37.7630 C   0  0  0  0  0  0  0  0  0  0  0  0
   38.9010   23.2370   38.4580 N   0  0  0  0  0  0  0  0  0  0  0  0
   38.3220   26.7390   35.3050 C   0  0  0  0  0  0  0  0  0  0  0  0
   37.6500   27.3560   34.1260 C   0  0  0  0  0  0  0  0  0  0  0  0
   36.4930   28.2340   34.4750 C   0  0  0  0  0  0  0  0  0  0  0  0
   35.8830   28.7960   33.2080 C   0  0  0  0  0  0  0  0  0  0  0  0
   36.7930   28.5710   32.0130 C   0  0  0  0  0  0  0  0  0  0  0  0
   37.1020   27.1320   31.7590 C   0  0  0  0  0  0  0  0  0  0  0  0
   37.2420   26.3790   33.0630 C   0  0  0  0  0  0  0  0  0  0  0  0
   36.8887   25.1859   35.1850 H   0  0  0  0  0  0  0  0  0  0  0  0
   36.8925   26.1518   36.7300 H   0  0  0  0  0  0  0  0  0  0  0  0
   37.2742   24.5743   38.5274 H   0  0  0  0  0  0  0  0  0  0  0  0
   39.6285   24.4329   34.8595 H   0  0  0  0  0  0  0  0  0  0  0  0
   40.5567   21.9587   38.2202 H   0  0  0  0  0  0  0  0  0  0  0  0
   38.5204   27.5270   36.0464 H   0  0  0  0  0  0  0  0  0  0  0  0
   39.2485   26.2686   34.9440 H   0  0  0  0  0  0  0  0  0  0  0  0
   38.4432   27.9915   33.7053 H   0  0  0  0  0  0  0  0  0  0  0  0
   35.7370   27.6459   35.0159 H   0  0  0  0  0  0  0  0  0  0  0  0
   36.8403   29.0609   35.1118 H   0  0  0  0  0  0  0  0  0  0  0  0
   34.9189   28.2996   33.0232 H   0  0  0  0  0  0  0  0  0  0  0  0
   35.7429   29.8791   33.3398 H   0  0  0  0  0  0  0  0  0  0  0  0
   36.3022   28.9842   31.1195 H   0  0  0  0  0  0  0  0  0  0  0  0
   37.7471   29.0713   32.2355 H   0  0  0  0  0  0  0  0  0  0  0  0
   36.2873   26.6859   31.1697 H   0  0  0  0  0  0  0  0  0  0  0  0
   38.0514   27.0653   31.2075 H   0  0  0  0  0  0  0  0  0  0  0  0
   36.2806   25.9166   33.3312 H   0  0  0  0  0  0  0  0  0  0  0  0
   37.9979   25.5859   32.9650 H   0  0  0  0  0  0  0  0  0  0  0  0
  1  3  1  0
  2  7  2  0
  3  2  1  0
  4  5  1  0
  4  3  2  0
  5  6  2  0
  6  7  1  0
  8  1  1  0
  9 10  1  0
  9  8  1  0
 11 10  1  0
 12 11  1  0
 13 12  1  0
 13 14  1  0
 14  9  1  0
  1 15  1  0
  1 16  1  0
  2 17  1  0
  4 18  1  0
  6 19  1  0
  8 20  1  0
  8 21  1  0
  9 22  1  0
 10 23  1  0
 10 24  1  0
 11 25  1  0
 11 26  1  0
 12 27  1  0
 12 28  1  0
 13 29  1  0
 13 30  1  0
 14 31  1  0
 14 32  1  0
M  ISO  8  15   8  16   8  17  14  18  14  19  14  20   8  21   8  22  13
M  ISO  8  23  13  24  13  25  13  26  13  27  13  28  13  29  13  30  13
M  ISO  2  31  13  32  13
M  END
>  <minimizedAffinity>  (1) 
-4.16372824

>  <minimizedRMSD>  (1) 
1.62760437

$$$$
