
     RDKit          3D

 48 51  0  0  1  0  0  0  0  0999 V2000
   37.5500   27.0130   33.4840 C   0  0  2  0  0  0  0  0  0  0  0  0
   36.6390   27.8780   34.3260 C   0  0  0  0  0  0  0  0  0  0  0  0
   35.9030   28.8600   33.4510 C   0  0  0  0  0  0  0  0  0  0  0  0
   36.5040   28.9110   32.0730 C   0  0  0  0  0  0  0  0  0  0  0  0
   36.4760   27.5810   31.3730 C   0  0  0  0  0  0  0  0  0  0  0  0
   36.7450   26.4600   32.3390 C   0  0  1  0  0  0  0  0  0  0  0  0
   37.4740   25.4530   31.5210 C   0  0  0  0  0  0  0  0  0  0  0  0
   38.5160   26.0690   30.8070 C   0  0  0  0  0  0  0  0  0  0  0  0
   39.3000   25.2750   29.9610 C   0  0  0  0  0  0  0  0  0  0  0  0
   39.0510   23.9070   29.8290 C   0  0  0  0  0  0  0  0  0  0  0  0
   38.0260   23.3360   30.5390 C   0  0  0  0  0  0  0  0  0  0  0  0
   37.6820   22.0010   30.4920 C   0  0  0  0  0  0  0  0  0  0  0  0
   36.6330   21.4640   31.2270 C   0  0  0  0  0  0  0  0  0  0  0  0
   35.8880   22.2860   32.0490 C   0  0  0  0  0  0  0  0  0  0  0  0
   36.2080   23.6250   32.1170 C   0  0  0  0  0  0  0  0  0  0  0  0
   37.2480   24.1070   31.3760 C   0  0  0  0  0  0  0  0  0  0  0  0
   38.2450   25.9770   34.2970 C   0  0  0  0  0  0  0  0  0  0  0  0
   37.6040   25.6910   35.6090 C   0  0  0  0  0  0  0  0  0  0  0  0
   37.9920   24.2990   37.7300 C   0  0  0  0  0  0  0  0  0  0  0  0
   38.3150   24.6920   36.4190 C   0  0  0  0  0  0  0  0  0  0  0  0
   39.4020   24.0930   35.8130 C   0  0  0  0  0  0  0  0  0  0  0  0
   40.1220   23.1420   36.5090 N   0  0  0  0  0  0  0  0  0  0  0  0
   39.7560   22.8110   37.7730 C   0  0  0  0  0  0  0  0  0  0  0  0
   38.7160   23.3790   38.3590 N   0  0  0  0  0  0  0  0  0  0  0  0
   38.3707   27.6142   33.0655 H   0  0  0  0  0  0  0  0  0  0  0  0
   35.9113   27.2394   34.8482 H   0  0  0  0  0  0  0  0  0  0  0  0
   37.2444   28.4319   35.0586 H   0  0  0  0  0  0  0  0  0  0  0  0
   34.8497   28.5527   33.3728 H   0  0  0  0  0  0  0  0  0  0  0  0
   35.9807   29.8593   33.9041 H   0  0  0  0  0  0  0  0  0  0  0  0
   35.9386   29.6369   31.4701 H   0  0  0  0  0  0  0  0  0  0  0  0
   37.5586   29.2038   32.1834 H   0  0  0  0  0  0  0  0  0  0  0  0
   35.4853   27.4343   30.9180 H   0  0  0  0  0  0  0  0  0  0  0  0
   37.2587   27.5742   30.6001 H   0  0  0  0  0  0  0  0  0  0  0  0
   35.8544   26.0009   32.7929 H   0  0  0  0  0  0  0  0  0  0  0  0
   38.7106   27.1467   30.9100 H   0  0  0  0  0  0  0  0  0  0  0  0
   40.1224   25.7345   29.3932 H   0  0  0  0  0  0  0  0  0  0  0  0
   39.6722   23.2924   29.1608 H   0  0  0  0  0  0  0  0  0  0  0  0
   38.2651   21.3312   29.8428 H   0  0  0  0  0  0  0  0  0  0  0  0
   36.3975   20.3919   31.1548 H   0  0  0  0  0  0  0  0  0  0  0  0
   35.0536   21.8794   32.6393 H   0  0  0  0  0  0  0  0  0  0  0  0
   35.6292   24.3005   32.7640 H   0  0  0  0  0  0  0  0  0  0  0  0
   38.2698   25.0434   33.7158 H   0  0  0  0  0  0  0  0  0  0  0  0
   39.2475   26.3724   34.5177 H   0  0  0  0  0  0  0  0  0  0  0  0
   37.5556   26.6290   36.1816 H   0  0  0  0  0  0  0  0  0  0  0  0
   36.6095   25.2739   35.3920 H   0  0  0  0  0  0  0  0  0  0  0  0
   37.1318   24.7575   38.2398 H   0  0  0  0  0  0  0  0  0  0  0  0
   39.6907   24.3701   34.7884 H   0  0  0  0  0  0  0  0  0  0  0  0
   40.3366   22.0545   38.3213 H   0  0  0  0  0  0  0  0  0  0  0  0
  1 17  1  0
  1  2  1  0
  3  2  1  0
  4  3  1  0
  5  4  1  0
  5  6  1  0
  6  1  1  0
  7  6  1  0
  8  7  2  0
  9  8  1  0
 10  9  2  0
 10 11  1  0
 11 16  2  0
 12 11  1  0
 12 13  2  0
 13 14  1  0
 14 15  2  0
 16  7  1  0
 16 15  1  0
 17 18  1  0
 18 20  1  0
 19 24  2  0
 20 19  1  0
 21 20  2  0
 21 22  1  0
 22 23  2  0
 23 24  1  0
  1 25  1  6
  2 26  1  0
  2 27  1  0
  3 28  1  0
  3 29  1  0
  4 30  1  0
  4 31  1  0
  5 32  1  0
  5 33  1  0
  6 34  1  1
  8 35  1  0
  9 36  1  0
 10 37  1  0
 12 38  1  0
 13 39  1  0
 14 40  1  0
 15 41  1  0
 17 42  1  0
 17 43  1  0
 18 44  1  0
 18 45  1  0
 19 46  1  0
 21 47  1  0
 23 48  1  0
M  ISO  8  25  13  26  13  27  13  28  13  29  13  30  13  31  13  32  13
M  ISO  8  33  13  34  13  35  14  36  14  37  14  38  14  39  14  40  14
M  ISO  8  41  14  42   8  43   8  44   8  45   8  46  14  47  14  48  14
M  END
>  <minimizedAffinity>  (1) 
-5.7652483

>  <minimizedRMSD>  (1) 
1.58700013

$$$$
