
     RDKit          3D

 34 36  0  0  0  0  0  0  0  0999 V2000
   39.8540   22.6570   37.2260 C   0  0  0  0  0  0  0  0  0  0  0  0
   39.1830   23.2340   38.3090 C   0  0  0  0  0  0  0  0  0  0  0  0
   37.8030   23.3410   38.2370 C   0  0  0  0  0  0  0  0  0  0  0  0
   37.1720   22.8800   37.1160 N   0  0  0  0  0  0  0  0  0  0  0  0
   37.8510   22.3250   36.0840 C   0  0  0  0  0  0  0  0  0  0  0  0
   39.2030   22.2100   36.1320 N   0  0  0  0  0  0  0  0  0  0  0  0
   37.1900   21.8450   34.9170 N   0  0  0  0  0  0  0  0  0  0  0  0
   37.7570   22.2190   33.7680 C   0  0  0  0  0  0  0  0  0  0  0  0
   37.1910   21.8050   32.5920 C   0  0  0  0  0  0  0  0  0  0  0  0
   36.0550   21.0180   32.7200 C   0  0  0  0  0  0  0  0  0  0  0  0
   35.3610   20.5150   31.5840 N   0  0  0  0  0  0  0  0  0  0  0  0
   35.5090   20.6590   33.8990 N   0  0  0  0  0  0  0  0  0  0  0  0
   36.0950   21.0850   35.0490 C   0  0  0  0  0  0  0  0  0  0  0  0
   35.6780   20.8150   36.1960 O   0  0  0  0  0  0  0  0  0  0  0  0
   37.6510   22.1020   31.2420 C   0  0  0  0  0  0  0  0  0  0  0  0
   38.2280   23.4910   31.0590 C   0  0  0  0  0  0  0  0  0  0  0  0
   38.6770   23.4090   29.6030 C   0  0  0  0  0  0  0  0  0  0  0  0
   39.3610   22.0530   29.5700 C   0  0  0  0  0  0  0  0  0  0  0  0
   38.7630   21.2500   30.7230 C   0  0  0  0  0  0  0  0  0  0  0  0
   40.9493   22.5645   37.2675 H   0  0  0  0  0  0  0  0  0  0  0  0
   39.7338   23.5921   39.1913 H   0  0  0  0  0  0  0  0  0  0  0  0
   37.2291   23.7866   39.0629 H   0  0  0  0  0  0  0  0  0  0  0  0
   38.6603   22.8468   33.7659 H   0  0  0  0  0  0  0  0  0  0  0  0
   34.5204   19.9332   31.7100 H   0  0  0  0  0  0  0  0  0  0  0  0
   35.6993   20.7327   30.6358 H   0  0  0  0  0  0  0  0  0  0  0  0
   36.7049   21.9354   30.7061 H   0  0  0  0  0  0  0  0  0  0  0  0
   37.4665   24.2709   31.2069 H   0  0  0  0  0  0  0  0  0  0  0  0
   39.0222   23.7576   31.7718 H   0  0  0  0  0  0  0  0  0  0  0  0
   37.8187   23.4424   28.9158 H   0  0  0  0  0  0  0  0  0  0  0  0
   39.3207   24.2427   29.2857 H   0  0  0  0  0  0  0  0  0  0  0  0
   39.1649   21.5495   28.6118 H   0  0  0  0  0  0  0  0  0  0  0  0
   40.4520   22.1502   29.6708 H   0  0  0  0  0  0  0  0  0  0  0  0
   38.3769   20.2845   30.3641 H   0  0  0  0  0  0  0  0  0  0  0  0
   39.5073   21.0189   31.4993 H   0  0  0  0  0  0  0  0  0  0  0  0
  1  2  2  0
  3  2  1  0
  4  3  2  0
  5  6  2  0
  5  4  1  0
  6  1  1  0
  7 13  1  0
  7  5  1  0
  8  7  1  0
  9 10  1  0
  9  8  2  0
 10 12  2  0
 11 10  1  0
 12 13  1  0
 13 14  2  0
 15  9  1  0
 16 15  1  0
 17 16  1  0
 18 17  1  0
 18 19  1  0
 19 15  1  0
  1 20  1  0
  2 21  1  0
  3 22  1  0
  8 23  1  0
 11 24  1  0
 11 25  1  0
 15 26  1  0
 16 27  1  0
 16 28  1  0
 17 29  1  0
 17 30  1  0
 18 31  1  0
 18 32  1  0
 19 33  1  0
 19 34  1  0
M  ISO  8  20  14  21  14  22  14  23  14  26  13  27  13  28  13  29  13
M  ISO  5  30  13  31  13  32  13  33  13  34  13
M  END
>  <minimizedAffinity>  (1) 
-5.13944197

>  <minimizedRMSD>  (1) 
1.09026897

$$$$
