
     RDKit          3D

 39 41  0  0  1  0  0  0  0  0999 V2000
   37.3080   27.1760   33.5020 C   0  0  2  0  0  0  0  0  0  0  0  0
   36.5820   28.0880   34.4620 C   0  0  0  0  0  0  0  0  0  0  0  0
   35.8150   29.1220   33.6920 C   0  0  0  0  0  0  0  0  0  0  0  0
   36.2430   29.1410   32.2280 C   0  0  0  0  0  0  0  0  0  0  0  0
   35.9470   27.8200   31.5890 C   0  0  0  0  0  0  0  0  0  0  0  0
   36.3850   26.6740   32.4560 C   0  0  1  0  0  0  0  0  0  0  0  0
   37.1510   25.8040   31.5180 C   0  0  0  0  0  0  0  0  0  0  0  0
   36.7810   24.4590   31.3910 C   0  0  0  0  0  0  0  0  0  0  0  0
   37.6290   23.8470   30.4590 C   0  0  0  0  0  0  0  0  0  0  0  0
   38.4590   24.8630   30.0800 N   0  0  0  0  0  0  0  0  0  0  0  0
   38.1900   26.0250   30.6960 N   0  0  0  0  0  0  0  0  0  0  0  0
   38.0740   26.1050   34.2150 C   0  0  0  0  0  0  0  0  0  0  0  0
   37.6410   25.8920   35.6150 C   0  0  0  0  0  0  0  0  0  0  0  0
   38.0440   24.3090   37.5900 C   0  0  0  0  0  0  0  0  0  0  0  0
   38.3630   24.8250   36.3230 C   0  0  0  0  0  0  0  0  0  0  0  0
   39.4650   24.2930   35.6540 C   0  0  0  0  0  0  0  0  0  0  0  0
   40.1820   23.2920   36.2670 N   0  0  0  0  0  0  0  0  0  0  0  0
   39.8240   22.8360   37.4910 C   0  0  0  0  0  0  0  0  0  0  0  0
   38.7640   23.3480   38.1360 N   0  0  0  0  0  0  0  0  0  0  0  0
   38.0764   27.7602   32.9744 H   0  0  0  0  0  0  0  0  0  0  0  0
   35.8854   27.4957   35.0736 H   0  0  0  0  0  0  0  0  0  0  0  0
   37.3131   28.5870   35.1151 H   0  0  0  0  0  0  0  0  0  0  0  0
   34.7411   28.8908   33.7500 H   0  0  0  0  0  0  0  0  0  0  0  0
   36.0203   30.1098   34.1304 H   0  0  0  0  0  0  0  0  0  0  0  0
   35.6931   29.9329   31.6983 H   0  0  0  0  0  0  0  0  0  0  0  0
   37.3244   29.3345   32.1712 H   0  0  0  0  0  0  0  0  0  0  0  0
   34.8635   27.7424   31.4158 H   0  0  0  0  0  0  0  0  0  0  0  0
   36.5022   27.7651   30.6410 H   0  0  0  0  0  0  0  0  0  0  0  0
   35.5480   26.1608   32.9521 H   0  0  0  0  0  0  0  0  0  0  0  0
   35.9609   23.9654   31.9330 H   0  0  0  0  0  0  0  0  0  0  0  0
   37.6268   22.8019   30.1158 H   0  0  0  0  0  0  0  0  0  0  0  0
   39.2157   24.7492   29.3905 H   0  0  0  0  0  0  0  0  0  0  0  0
   37.9449   25.1614   33.6646 H   0  0  0  0  0  0  0  0  0  0  0  0
   39.1239   26.4314   34.2504 H   0  0  0  0  0  0  0  0  0  0  0  0
   37.7899   26.8318   36.1670 H   0  0  0  0  0  0  0  0  0  0  0  0
   36.5872   25.5797   35.5714 H   0  0  0  0  0  0  0  0  0  0  0  0
   37.1790   24.7132   38.1362 H   0  0  0  0  0  0  0  0  0  0  0  0
   39.7539   24.6650   34.6599 H   0  0  0  0  0  0  0  0  0  0  0  0
   40.4105   22.0343   37.9635 H   0  0  0  0  0  0  0  0  0  0  0  0
  1 12  1  0
  1  2  1  0
  3  2  1  0
  4  3  1  0
  5  4  1  0
  5  6  1  0
  6  1  1  0
  7  6  1  0
  8  7  1  0
  9  8  2  0
 10  9  1  0
 10 11  1  0
 11  7  2  0
 12 13  1  0
 13 15  1  0
 14 19  2  0
 15 14  1  0
 16 17  1  0
 16 15  2  0
 17 18  2  0
 18 19  1  0
  1 20  1  6
  2 21  1  0
  2 22  1  0
  3 23  1  0
  3 24  1  0
  4 25  1  0
  4 26  1  0
  5 27  1  0
  5 28  1  0
  6 29  1  1
  8 30  1  0
  9 31  1  0
 10 32  1  0
 12 33  1  0
 12 34  1  0
 13 35  1  0
 13 36  1  0
 14 37  1  0
 16 38  1  0
 18 39  1  0
M  ISO  8  20  13  21  13  22  13  23  13  24  13  25  13  26  13  27  13
M  ISO  8  28  13  29  13  30  14  31  14  32   9  33   8  34   8  35   8
M  ISO  4  36   8  37  14  38  14  39  14
M  END
>  <minimizedAffinity>  (1) 
-4.91243982

>  <minimizedRMSD>  (1) 
1.38701022

$$$$
