
     RDKit          3D

 45 47  0  0  1  0  0  0  0  0999 V2000
   37.6310   27.2790   33.8220 C   0  0  2  0  0  0  0  0  0  0  0  0
   36.5820   28.0680   34.5580 C   0  0  0  0  0  0  0  0  0  0  0  0
   35.7420   28.8560   33.5770 C   0  0  0  0  0  0  0  0  0  0  0  0
   36.4750   28.9410   32.2360 C   0  0  0  0  0  0  0  0  0  0  0  0
   36.6070   27.5730   31.6360 C   0  0  0  0  0  0  0  0  0  0  0  0
   37.0310   26.5600   32.6650 C   0  0  1  0  0  0  0  0  0  0  0  0
   37.8930   25.5520   32.0870 N   0  0  0  0  0  0  0  0  0  0  0  0
   37.0450   24.8440   31.1090 C   0  0  0  0  0  0  0  0  0  0  0  0
   37.8070   23.6420   30.5910 C   0  0  0  0  0  0  0  0  0  0  0  0
   39.0110   24.0940   30.1010 O   0  0  0  0  0  0  0  0  0  0  0  0
   39.1020   25.4550   29.9620 C   0  0  0  0  0  0  0  0  0  0  0  0
   38.9730   26.1240   31.3120 C   0  0  0  0  0  0  0  0  0  0  0  0
   38.4210   26.4100   34.7460 C   0  0  0  0  0  0  0  0  0  0  0  0
   37.6030   25.7350   35.7840 C   0  0  0  0  0  0  0  0  0  0  0  0
   38.0370   24.2670   37.8470 C   0  0  0  0  0  0  0  0  0  0  0  0
   38.3330   24.6990   36.5350 C   0  0  0  0  0  0  0  0  0  0  0  0
   39.4000   24.1090   35.8780 C   0  0  0  0  0  0  0  0  0  0  0  0
   40.1240   23.1320   36.5270 N   0  0  0  0  0  0  0  0  0  0  0  0
   39.7880   22.7620   37.7880 C   0  0  0  0  0  0  0  0  0  0  0  0
   38.7690   23.3240   38.4200 N   0  0  0  0  0  0  0  0  0  0  0  0
   38.3681   27.9758   33.3963 H   0  0  0  0  0  0  0  0  0  0  0  0
   35.9348   27.3781   35.1194 H   0  0  0  0  0  0  0  0  0  0  0  0
   37.0756   28.7651   35.2512 H   0  0  0  0  0  0  0  0  0  0  0  0
   34.7741   28.3529   33.4353 H   0  0  0  0  0  0  0  0  0  0  0  0
   35.5726   29.8698   33.9688 H   0  0  0  0  0  0  0  0  0  0  0  0
   35.9063   29.5862   31.5502 H   0  0  0  0  0  0  0  0  0  0  0  0
   37.4780   29.3622   32.3988 H   0  0  0  0  0  0  0  0  0  0  0  0
   35.6362   27.2714   31.2159 H   0  0  0  0  0  0  0  0  0  0  0  0
   37.3770   27.6122   30.8514 H   0  0  0  0  0  0  0  0  0  0  0  0
   36.1593   26.0016   33.0369 H   0  0  0  0  0  0  0  0  0  0  0  0
   36.1158   24.5125   31.5954 H   0  0  0  0  0  0  0  0  0  0  0  0
   36.7905   25.5157   30.2759 H   0  0  0  0  0  0  0  0  0  0  0  0
   37.9793   22.9261   31.4082 H   0  0  0  0  0  0  0  0  0  0  0  0
   37.2350   23.1318   29.8019 H   0  0  0  0  0  0  0  0  0  0  0  0
   40.0762   25.7115   29.5203 H   0  0  0  0  0  0  0  0  0  0  0  0
   38.2907   25.8055   29.3070 H   0  0  0  0  0  0  0  0  0  0  0  0
   39.9155   25.9976   31.8649 H   0  0  0  0  0  0  0  0  0  0  0  0
   38.7539   27.1896   31.1493 H   0  0  0  0  0  0  0  0  0  0  0  0
   38.9267   25.6380   34.1475 H   0  0  0  0  0  0  0  0  0  0  0  0
   39.1285   27.0662   35.2741 H   0  0  0  0  0  0  0  0  0  0  0  0
   37.2497   26.4954   36.4960 H   0  0  0  0  0  0  0  0  0  0  0  0
   36.7763   25.2303   35.2626 H   0  0  0  0  0  0  0  0  0  0  0  0
   37.1952   24.7157   38.3947 H   0  0  0  0  0  0  0  0  0  0  0  0
   39.6652   24.4150   34.8553 H   0  0  0  0  0  0  0  0  0  0  0  0
   40.3729   21.9805   38.2951 H   0  0  0  0  0  0  0  0  0  0  0  0
  1  2  1  0
  1 13  1  0
  3  2  1  0
  4  3  1  0
  5  4  1  0
  5  6  1  0
  6  1  1  0
  7  6  1  0
  8  7  1  0
  9  8  1  0
 10  9  1  0
 11 10  1  0
 11 12  1  0
 12  7  1  0
 13 14  1  0
 14 16  1  0
 15 20  2  0
 16 15  1  0
 17 18  1  0
 17 16  2  0
 18 19  2  0
 19 20  1  0
  1 21  1  6
  2 22  1  0
  2 23  1  0
  3 24  1  0
  3 25  1  0
  4 26  1  0
  4 27  1  0
  5 28  1  0
  5 29  1  0
  6 30  1  1
  8 31  1  0
  8 32  1  0
  9 33  1  0
  9 34  1  0
 11 35  1  0
 11 36  1  0
 12 37  1  0
 12 38  1  0
 13 39  1  0
 13 40  1  0
 14 41  1  0
 14 42  1  0
 15 43  1  0
 17 44  1  0
 19 45  1  0
M  ISO  8  21  13  22  13  23  13  24  13  25  13  26  13  27  13  28  13
M  ISO  8  29  13  30  13  31  13  32  13  33  13  34  13  35  13  36  13
M  ISO  8  37  13  38  13  39   8  40   8  41   8  42   8  43  14  44  14
M  ISO  1  45  14
M  END
>  <minimizedAffinity>  (1) 
-4.8915453

>  <minimizedRMSD>  (1) 
1.08171964

$$$$
