
     RDKit          3D

 47 49  0  0  1  0  0  0  0  0999 V2000
   37.6540   27.3170   34.0170 C   0  0  2  0  0  0  0  0  0  0  0  0
   36.4830   28.1320   34.5090 C   0  0  0  0  0  0  0  0  0  0  0  0
   36.0300   28.9010   33.3210 C   0  0  0  0  0  0  0  0  0  0  0  0
   36.0810   28.2010   32.0520 C   0  0  0  0  0  0  0  0  0  0  0  0
   37.1460   27.2400   31.7330 C   0  0  0  0  0  0  0  0  0  0  0  0
   37.2300   26.3660   32.9760 C   0  0  1  0  0  0  0  0  0  0  0  0
   38.1230   25.3070   32.6260 N   0  0  0  0  0  0  0  0  0  0  0  0
   39.0250   25.5580   31.5530 C   0  0  0  0  0  0  0  0  0  0  0  0
   38.6690   24.8890   30.2450 C   0  0  0  0  0  0  0  0  0  0  0  0
   38.2560   23.4650   30.3660 C   0  0  0  0  0  0  0  0  0  0  0  0
   38.0060   23.0100   31.7730 C   0  0  0  0  0  0  0  0  0  0  0  0
   37.3850   24.0950   32.5890 C   0  0  0  0  0  0  0  0  0  0  0  0
   38.3700   26.6660   35.1580 C   0  0  0  0  0  0  0  0  0  0  0  0
   37.5190   25.7590   35.9880 C   0  0  0  0  0  0  0  0  0  0  0  0
   38.0850   24.2000   37.9500 C   0  0  0  0  0  0  0  0  0  0  0  0
   38.2930   24.7000   36.6520 C   0  0  0  0  0  0  0  0  0  0  0  0
   39.3370   24.1500   35.9110 C   0  0  0  0  0  0  0  0  0  0  0  0
   40.0900   23.1600   36.4990 N   0  0  0  0  0  0  0  0  0  0  0  0
   39.8460   22.7240   37.7370 C   0  0  0  0  0  0  0  0  0  0  0  0
   38.8560   23.2430   38.4450 N   0  0  0  0  0  0  0  0  0  0  0  0
   38.3826   27.9904   33.5420 H   0  0  0  0  0  0  0  0  0  0  0  0
   35.6800   27.4751   34.8746 H   0  0  0  0  0  0  0  0  0  0  0  0
   36.7570   28.7879   35.3485 H   0  0  0  0  0  0  0  0  0  0  0  0
   34.9876   29.2060   33.4952 H   0  0  0  0  0  0  0  0  0  0  0  0
   36.7350   29.7399   33.2249 H   0  0  0  0  0  0  0  0  0  0  0  0
   35.1333   27.6492   31.9669 H   0  0  0  0  0  0  0  0  0  0  0  0
   36.2900   29.0186   31.3465 H   0  0  0  0  0  0  0  0  0  0  0  0
   36.8813   26.6405   30.8495 H   0  0  0  0  0  0  0  0  0  0  0  0
   38.1014   27.7284   31.4909 H   0  0  0  0  0  0  0  0  0  0  0  0
   36.3267   25.8615   33.3495 H   0  0  0  0  0  0  0  0  0  0  0  0
   39.0574   26.6442   31.3823 H   0  0  0  0  0  0  0  0  0  0  0  0
   39.9920   25.1334   31.8606 H   0  0  0  0  0  0  0  0  0  0  0  0
   39.5485   24.9356   29.5860 H   0  0  0  0  0  0  0  0  0  0  0  0
   37.7992   25.4314   29.8459 H   0  0  0  0  0  0  0  0  0  0  0  0
   37.3297   23.3252   29.7895 H   0  0  0  0  0  0  0  0  0  0  0  0
   39.0932   22.8618   29.9850 H   0  0  0  0  0  0  0  0  0  0  0  0
   37.3295   22.1428   31.7548 H   0  0  0  0  0  0  0  0  0  0  0  0
   38.9703   22.7402   32.2284 H   0  0  0  0  0  0  0  0  0  0  0  0
   36.3911   24.3119   32.1706 H   0  0  0  0  0  0  0  0  0  0  0  0
   37.3479   23.7227   33.6234 H   0  0  0  0  0  0  0  0  0  0  0  0
   39.2033   26.0760   34.7488 H   0  0  0  0  0  0  0  0  0  0  0  0
   38.7025   27.4773   35.8222 H   0  0  0  0  0  0  0  0  0  0  0  0
   37.0127   26.3596   36.7581 H   0  0  0  0  0  0  0  0  0  0  0  0
   36.8006   25.2703   35.3134 H   0  0  0  0  0  0  0  0  0  0  0  0
   37.2694   24.6099   38.5638 H   0  0  0  0  0  0  0  0  0  0  0  0
   39.5521   24.4960   34.8892 H   0  0  0  0  0  0  0  0  0  0  0  0
   40.4710   21.9294   38.1706 H   0  0  0  0  0  0  0  0  0  0  0  0
  1  2  1  0
  1 13  1  0
  3  2  1  0
  4  3  1  0
  5  4  1  0
  5  6  1  0
  6  1  1  0
  7  6  1  0
  8  7  1  0
  9 10  1  0
  9  8  1  0
 10 11  1  0
 11 12  1  0
 12  7  1  0
 13 14  1  0
 14 16  1  0
 15 20  2  0
 16 15  1  0
 17 18  1  0
 17 16  2  0
 18 19  2  0
 19 20  1  0
  1 21  1  6
  2 22  1  0
  2 23  1  0
  3 24  1  0
  3 25  1  0
  4 26  1  0
  4 27  1  0
  5 28  1  0
  5 29  1  0
  6 30  1  1
  8 31  1  0
  8 32  1  0
  9 33  1  0
  9 34  1  0
 10 35  1  0
 10 36  1  0
 11 37  1  0
 11 38  1  0
 12 39  1  0
 12 40  1  0
 13 41  1  0
 13 42  1  0
 14 43  1  0
 14 44  1  0
 15 45  1  0
 17 46  1  0
 19 47  1  0
M  ISO  8  21  13  22  13  23  13  24  13  25  13  26  13  27  13  28  13
M  ISO  8  29  13  30  13  31  13  32  13  33  13  34  13  35  13  36  13
M  ISO  8  37  13  38  13  39  13  40  13  41   8  42   8  43   8  44   8
M  ISO  3  45  14  46  14  47  14
M  END
>  <minimizedAffinity>  (1) 
-4.86562634

>  <minimizedRMSD>  (1) 
0.894986391

$$$$
