
     RDKit          3D

 28 30  0  0  0  0  0  0  0  0999 V2000
   39.8930   22.8060   37.3100 C   0  0  0  0  0  0  0  0  0  0  0  0
   39.1480   23.2050   38.4240 C   0  0  0  0  0  0  0  0  0  0  0  0
   37.7680   23.2350   38.3300 C   0  0  0  0  0  0  0  0  0  0  0  0
   37.1950   22.8700   37.1450 N   0  0  0  0  0  0  0  0  0  0  0  0
   37.9430   22.4850   36.0780 C   0  0  0  0  0  0  0  0  0  0  0  0
   39.3000   22.4510   36.1560 N   0  0  0  0  0  0  0  0  0  0  0  0
   37.3480   22.1050   34.8490 N   0  0  0  0  0  0  0  0  0  0  0  0
   37.9060   22.6290   33.7660 C   0  0  0  0  0  0  0  0  0  0  0  0
   37.3970   22.3230   32.5280 C   0  0  0  0  0  0  0  0  0  0  0  0
   36.3090   21.4620   32.5300 C   0  0  0  0  0  0  0  0  0  0  0  0
   35.6870   21.0640   31.3260 N   0  0  0  0  0  0  0  0  0  0  0  0
   35.7630   20.9430   33.6500 N   0  0  0  0  0  0  0  0  0  0  0  0
   36.2990   21.2750   34.8470 C   0  0  0  0  0  0  0  0  0  0  0  0
   35.8660   20.8460   35.9520 O   0  0  0  0  0  0  0  0  0  0  0  0
   37.9780   22.8760   31.3110 C   0  0  0  0  0  0  0  0  0  0  0  0
   39.0500   22.5060   30.5610 C   0  0  0  0  0  0  0  0  0  0  0  0
   39.2300   23.3390   29.4730 C   0  0  0  0  0  0  0  0  0  0  0  0
   38.2160   24.2080   29.6280 N   0  0  0  0  0  0  0  0  0  0  0  0
   37.4760   23.9570   30.6900 N   0  0  0  0  0  0  0  0  0  0  0  0
   40.9906   22.7818   37.3790 H   0  0  0  0  0  0  0  0  0  0  0  0
   39.6509   23.4904   39.3598 H   0  0  0  0  0  0  0  0  0  0  0  0
   37.1496   23.5441   39.1856 H   0  0  0  0  0  0  0  0  0  0  0  0
   38.7699   23.3036   33.8588 H   0  0  0  0  0  0  0  0  0  0  0  0
   34.8804   20.4239   31.3501 H   0  0  0  0  0  0  0  0  0  0  0  0
   36.0400   21.4138   30.4238 H   0  0  0  0  0  0  0  0  0  0  0  0
   39.6965   21.6467   30.7924 H   0  0  0  0  0  0  0  0  0  0  0  0
   39.9995   23.3010   28.6878 H   0  0  0  0  0  0  0  0  0  0  0  0
   38.0356   24.9903   28.9828 H   0  0  0  0  0  0  0  0  0  0  0  0
  1  2  2  0
  3  2  1  0
  4  3  2  0
  5  6  2  0
  5  4  1  0
  6  1  1  0
  7  5  1  0
  8  7  1  0
  9 10  1  0
  9  8  2  0
 10 12  2  0
 11 10  1  0
 12 13  1  0
 13  7  1  0
 13 14  2  0
 15  9  1  0
 16 15  1  0
 17 18  1  0
 17 16  2  0
 18 19  1  0
 19 15  2  0
  1 20  1  0
  2 21  1  0
  3 22  1  0
  8 23  1  0
 11 24  1  0
 11 25  1  0
 16 26  1  0
 17 27  1  0
 18 28  1  0
M  ISO  7  20  14  21  14  22  14  23  14  26  14  27  14  28   9
M  END
>  <minimizedAffinity>  (1) 
-5.1179471

>  <minimizedRMSD>  (1) 
0.960176766

$$$$
