
     RDKit          3D

 33 34  0  0  1  0  0  0  0  0999 V2000
   38.2290   27.3160   33.8780 C   0  0  2  0  0  0  0  0  0  0  0  0
   36.7470   27.5260   33.8560 C   0  0  0  0  0  0  0  0  0  0  0  0
   36.3410   27.9310   32.4560 C   0  0  0  0  0  0  0  0  0  0  0  0
   37.5380   28.2870   31.5990 C   0  0  0  0  0  0  0  0  0  0  0  0
   38.5620   27.2170   31.4930 C   0  0  0  0  0  0  0  0  0  0  0  0
   38.6010   26.3790   32.7660 C   0  0  2  0  0  0  0  0  0  0  0  0
   38.7290   26.9320   35.2330 C   0  0  0  0  0  0  0  0  0  0  0  0
   37.7820   26.1000   36.0030 C   0  0  0  0  0  0  0  0  0  0  0  0
   38.0880   24.3960   37.8950 C   0  0  0  0  0  0  0  0  0  0  0  0
   38.4170   24.9250   36.6290 C   0  0  0  0  0  0  0  0  0  0  0  0
   39.4200   24.2770   35.8850 C   0  0  0  0  0  0  0  0  0  0  0  0
   40.0140   23.1690   36.4380 N   0  0  0  0  0  0  0  0  0  0  0  0
   39.6680   22.7060   37.6400 C   0  0  0  0  0  0  0  0  0  0  0  0
   38.7260   23.3080   38.3480 N   0  0  0  0  0  0  0  0  0  0  0  0
   37.1720   25.2430   32.5580 S   0  0  0  0  0  0  0  0  0  0  0  0
   38.7509   28.2648   33.6845 H   0  0  0  0  0  0  0  0  0  0  0  0
   36.2357   26.5930   34.1355 H   0  0  0  0  0  0  0  0  0  0  0  0
   36.4668   28.3123   34.5723 H   0  0  0  0  0  0  0  0  0  0  0  0
   35.8039   27.0941   31.9858 H   0  0  0  0  0  0  0  0  0  0  0  0
   35.7005   28.8220   32.5322 H   0  0  0  0  0  0  0  0  0  0  0  0
   37.1779   28.5189   30.5858 H   0  0  0  0  0  0  0  0  0  0  0  0
   38.0289   29.1412   32.0883 H   0  0  0  0  0  0  0  0  0  0  0  0
   38.3175   26.5667   30.6402 H   0  0  0  0  0  0  0  0  0  0  0  0
   39.5472   27.6841   31.3473 H   0  0  0  0  0  0  0  0  0  0  0  0
   39.5590   25.8726   32.9550 H   0  0  0  0  0  0  0  0  0  0  0  0
   39.6657   26.3685   35.1104 H   0  0  0  0  0  0  0  0  0  0  0  0
   38.8704   27.8645   35.7990 H   0  0  0  0  0  0  0  0  0  0  0  0
   37.3360   26.7197   36.7949 H   0  0  0  0  0  0  0  0  0  0  0  0
   37.0265   25.7257   35.2965 H   0  0  0  0  0  0  0  0  0  0  0  0
   37.3104   24.8750   38.5081 H   0  0  0  0  0  0  0  0  0  0  0  0
   39.7187   24.6458   34.8927 H   0  0  0  0  0  0  0  0  0  0  0  0
   40.1702   21.8157   38.0464 H   0  0  0  0  0  0  0  0  0  0  0  0
   36.7024   24.8697   33.7896 H   0  0  0  0  0  0  0  0  0  0  0  0
  1  7  1  0
  2  1  1  0
  3  2  1  0
  4  3  1  0
  5  4  1  0
  5  6  1  0
  6  1  1  0
  7  8  1  0
  8 10  1  0
  9 14  2  0
 10  9  1  0
 11 12  1  0
 11 10  2  0
 12 13  2  0
 13 14  1  0
 15  6  1  0
  1 16  1  6
  2 17  1  0
  2 18  1  0
  3 19  1  0
  3 20  1  0
  4 21  1  0
  4 22  1  0
  5 23  1  0
  5 24  1  0
  6 25  1  1
  7 26  1  0
  7 27  1  0
  8 28  1  0
  8 29  1  0
  9 30  1  0
 11 31  1  0
 13 32  1  0
 15 33  1  0
M  ISO  8  16  13  17  13  18  13  19  13  20  13  21  13  22  13  23  13
M  ISO  8  24  13  25  13  26   8  27   8  28   8  29   8  30  14  31  14
M  ISO  2  32  14  33  11
M  END
>  <minimizedAffinity>  (1) 
-4.16343212

>  <minimizedRMSD>  (1) 
0.94721365

$$$$
