
     RDKit          3D

 33 34  0  0  1  0  0  0  0  0999 V2000
   37.7010   27.3560   33.9700 C   0  0  2  0  0  0  0  0  0  0  0  0
   36.5210   28.1310   34.4980 C   0  0  0  0  0  0  0  0  0  0  0  0
   35.8220   28.8280   33.3580 C   0  0  0  0  0  0  0  0  0  0  0  0
   36.6220   28.7570   32.0810 C   0  0  0  0  0  0  0  0  0  0  0  0
   36.9610   27.3770   31.6540 C   0  0  0  0  0  0  0  0  0  0  0  0
   37.2540   26.4950   32.8410 C   0  0  1  0  0  0  0  0  0  0  0  0
   38.4460   26.6440   35.0560 C   0  0  0  0  0  0  0  0  0  0  0  0
   37.6030   25.7400   35.8680 C   0  0  0  0  0  0  0  0  0  0  0  0
   38.0780   24.2380   37.8810 C   0  0  0  0  0  0  0  0  0  0  0  0
   38.3560   24.6930   36.5750 C   0  0  0  0  0  0  0  0  0  0  0  0
   39.4170   24.1060   35.9040 C   0  0  0  0  0  0  0  0  0  0  0  0
   40.1450   23.1190   36.5310 N   0  0  0  0  0  0  0  0  0  0  0  0
   39.8390   22.7230   37.7730 C   0  0  0  0  0  0  0  0  0  0  0  0
   38.8240   23.2760   38.4290 N   0  0  0  0  0  0  0  0  0  0  0  0
   38.2910   25.6550   32.4470 O   0  0  0  0  0  0  0  0  0  0  0  0
   38.4523   28.0487   33.5629 H   0  0  0  0  0  0  0  0  0  0  0  0
   35.8200   27.4405   34.9898 H   0  0  0  0  0  0  0  0  0  0  0  0
   36.8711   28.8796   35.2240 H   0  0  0  0  0  0  0  0  0  0  0  0
   34.8456   28.3490   33.1932 H   0  0  0  0  0  0  0  0  0  0  0  0
   35.7029   29.8878   33.6276 H   0  0  0  0  0  0  0  0  0  0  0  0
   36.0369   29.2325   31.2800 H   0  0  0  0  0  0  0  0  0  0  0  0
   37.5745   29.2720   32.2746 H   0  0  0  0  0  0  0  0  0  0  0  0
   36.1124   26.9558   31.0949 H   0  0  0  0  0  0  0  0  0  0  0  0
   37.8599   27.4193   31.0214 H   0  0  0  0  0  0  0  0  0  0  0  0
   36.3752   25.9171   33.1632 H   0  0  0  0  0  0  0  0  0  0  0  0
   39.2468   26.0483   34.5935 H   0  0  0  0  0  0  0  0  0  0  0  0
   38.8334   27.4164   35.7367 H   0  0  0  0  0  0  0  0  0  0  0  0
   37.0673   26.3446   36.6147 H   0  0  0  0  0  0  0  0  0  0  0  0
   36.9237   25.2274   35.1710 H   0  0  0  0  0  0  0  0  0  0  0  0
   37.2446   24.6769   38.4492 H   0  0  0  0  0  0  0  0  0  0  0  0
   39.6747   24.4244   34.8831 H   0  0  0  0  0  0  0  0  0  0  0  0
   40.4332   21.9326   38.2548 H   0  0  0  0  0  0  0  0  0  0  0  0
   38.7423   25.2894   33.2487 H   0  0  0  0  0  0  0  0  0  0  0  0
  1  2  1  0
  1  7  1  0
  3  2  1  0
  4  3  1  0
  5  4  1  0
  5  6  1  0
  6  1  1  0
  7  8  1  0
  8 10  1  0
  9 14  2  0
 10  9  1  0
 11 12  1  0
 11 10  2  0
 12 13  2  0
 13 14  1  0
 15  6  1  0
  1 16  1  6
  2 17  1  0
  2 18  1  0
  3 19  1  0
  3 20  1  0
  4 21  1  0
  4 22  1  0
  5 23  1  0
  5 24  1  0
  6 25  1  1
  7 26  1  0
  7 27  1  0
  8 28  1  0
  8 29  1  0
  9 30  1  0
 11 31  1  0
 13 32  1  0
 15 33  1  0
M  ISO  8  16  13  17  13  18  13  19  13  20  13  21  13  22  13  23  13
M  ISO  8  24  13  25  13  26   8  27   8  28   8  29   8  30  14  31  14
M  ISO  2  32  14  33   3
M  END
>  <minimizedAffinity>  (1) 
-4.32752228

>  <minimizedRMSD>  (1) 
0.201504916

$$$$
