
     RDKit          3D

 35 36  0  0  1  0  0  0  0  0999 V2000
   38.0110   27.3930   33.5000 C   0  0  2  0  0  0  0  0  0  0  0  0
   36.5830   27.7310   33.7230 C   0  0  0  0  0  0  0  0  0  0  0  0
   36.0870   28.4650   32.4990 C   0  0  0  0  0  0  0  0  0  0  0  0
   37.1510   28.7660   31.5020 C   0  0  0  0  0  0  0  0  0  0  0  0
   38.0390   27.6320   31.1050 C   0  0  0  0  0  0  0  0  0  0  0  0
   38.2130   26.6520   32.2540 C   0  0  2  0  0  0  0  0  0  0  0  0
   38.7350   26.8360   34.6910 C   0  0  0  0  0  0  0  0  0  0  0  0
   37.8520   26.1400   35.6150 C   0  0  0  0  0  0  0  0  0  0  0  0
   38.0070   24.4390   37.5030 C   0  0  0  0  0  0  0  0  0  0  0  0
   38.4480   24.9530   36.2720 C   0  0  0  0  0  0  0  0  0  0  0  0
   39.5040   24.3230   35.6260 C   0  0  0  0  0  0  0  0  0  0  0  0
   40.0490   23.2240   36.2480 N   0  0  0  0  0  0  0  0  0  0  0  0
   39.6020   22.7660   37.4180 C   0  0  0  0  0  0  0  0  0  0  0  0
   38.5970   23.3690   38.0290 N   0  0  0  0  0  0  0  0  0  0  0  0
   37.4380   25.4880   31.9160 C   0  0  0  0  0  0  0  0  0  0  0  0
   37.2390   24.4340   32.6190 O   0  0  0  0  0  0  0  0  0  0  0  0
   36.7610   25.3240   30.7340 O   0  0  0  0  0  0  0  0  0  0  0  0
   38.5191   28.3589   33.3625 H   0  0  0  0  0  0  0  0  0  0  0  0
   35.9989   26.8106   33.8700 H   0  0  0  0  0  0  0  0  0  0  0  0
   36.4715   28.3586   34.6195 H   0  0  0  0  0  0  0  0  0  0  0  0
   35.3205   27.8452   32.0107 H   0  0  0  0  0  0  0  0  0  0  0  0
   35.6921   29.4315   32.8452 H   0  0  0  0  0  0  0  0  0  0  0  0
   36.6588   29.1384   30.5915 H   0  0  0  0  0  0  0  0  0  0  0  0
   37.8131   29.4921   31.9963 H   0  0  0  0  0  0  0  0  0  0  0  0
   37.5915   27.1069   30.2483 H   0  0  0  0  0  0  0  0  0  0  0  0
   39.0258   28.0360   30.8349 H   0  0  0  0  0  0  0  0  0  0  0  0
   39.2098   26.2213   32.4298 H   0  0  0  0  0  0  0  0  0  0  0  0
   39.5007   26.1297   34.3377 H   0  0  0  0  0  0  0  0  0  0  0  0
   39.1795   27.6834   35.2336 H   0  0  0  0  0  0  0  0  0  0  0  0
   37.5503   26.8495   36.3996 H   0  0  0  0  0  0  0  0  0  0  0  0
   37.0075   25.7696   35.0153 H   0  0  0  0  0  0  0  0  0  0  0  0
   37.1726   24.9221   38.0326 H   0  0  0  0  0  0  0  0  0  0  0  0
   39.8869   24.6865   34.6610 H   0  0  0  0  0  0  0  0  0  0  0  0
   40.0715   21.8831   37.8763 H   0  0  0  0  0  0  0  0  0  0  0  0
   36.2467   24.4943   30.5691 H   0  0  0  0  0  0  0  0  0  0  0  0
  1  2  1  0
  1  7  1  0
  3  2  1  0
  4  3  1  0
  5  4  1  0
  5  6  1  0
  6  1  1  0
  7  8  1  0
  8 10  1  0
  9 14  2  0
 10  9  1  0
 11 12  1  0
 11 10  2  0
 12 13  2  0
 13 14  1  0
 15  6  1  0
 15 16  2  0
 17 15  1  0
  1 18  1  6
  2 19  1  0
  2 20  1  0
  3 21  1  0
  3 22  1  0
  4 23  1  0
  4 24  1  0
  5 25  1  0
  5 26  1  0
  6 27  1  1
  7 28  1  0
  7 29  1  0
  8 30  1  0
  8 31  1  0
  9 32  1  0
 11 33  1  0
 13 34  1  0
 17 35  1  0
M  ISO  8  18  13  19  13  20  13  21  13  22  13  23  13  24  13  25  13
M  ISO  8  26  13  27  13  28   8  29   8  30   8  31   8  32  14  33  14
M  ISO  2  34  14  35   3
M  END
>  <minimizedAffinity>  (1) 
-4.39937544

>  <minimizedRMSD>  (1) 
1.09335256

$$$$
