
     RDKit          3D

 33 35  0  0  0  0  0  0  0  0999 V2000
   39.8940   22.6640   37.3710 C   0  0  0  0  0  0  0  0  0  0  0  0
   39.2270   23.3490   38.4100 C   0  0  0  0  0  0  0  0  0  0  0  0
   37.8500   23.5070   38.3320 C   0  0  0  0  0  0  0  0  0  0  0  0
   37.2140   22.9850   37.2390 N   0  0  0  0  0  0  0  0  0  0  0  0
   37.8820   22.3360   36.2650 C   0  0  0  0  0  0  0  0  0  0  0  0
   39.2170   22.1720   36.3220 N   0  0  0  0  0  0  0  0  0  0  0  0
   37.2040   21.7960   35.1290 N   0  0  0  0  0  0  0  0  0  0  0  0
   37.7770   22.0610   33.9540 C   0  0  0  0  0  0  0  0  0  0  0  0
   37.1650   21.5610   32.8110 C   0  0  0  0  0  0  0  0  0  0  0  0
   36.0210   20.8370   32.9940 C   0  0  0  0  0  0  0  0  0  0  0  0
   35.3250   20.2880   31.8940 N   0  0  0  0  0  0  0  0  0  0  0  0
   35.4760   20.5920   34.1910 N   0  0  0  0  0  0  0  0  0  0  0  0
   36.0740   21.0800   35.3040 C   0  0  0  0  0  0  0  0  0  0  0  0
   35.6460   20.9080   36.4730 O   0  0  0  0  0  0  0  0  0  0  0  0
   37.7120   21.7990   31.5200 N   0  0  0  0  0  0  0  0  0  0  0  0
   37.5320   22.9630   30.6410 C   0  0  0  0  0  0  0  0  0  0  0  0
   38.9480   23.0330   30.0510 C   0  0  0  0  0  0  0  0  0  0  0  0
   39.0750   21.5900   29.6100 C   0  0  0  0  0  0  0  0  0  0  0  0
   38.5870   20.8610   30.8430 C   0  0  0  0  0  0  0  0  0  0  0  0
   40.9848   22.5317   37.4222 H   0  0  0  0  0  0  0  0  0  0  0  0
   39.7887   23.7505   39.2663 H   0  0  0  0  0  0  0  0  0  0  0  0
   37.2908   24.0326   39.1201 H   0  0  0  0  0  0  0  0  0  0  0  0
   38.7012   22.6543   33.8920 H   0  0  0  0  0  0  0  0  0  0  0  0
   34.4638   19.7445   32.0487 H   0  0  0  0  0  0  0  0  0  0  0  0
   35.6787   20.4312   30.9373 H   0  0  0  0  0  0  0  0  0  0  0  0
   36.7705   22.7832   29.8678 H   0  0  0  0  0  0  0  0  0  0  0  0
   37.1769   23.8800   31.1339 H   0  0  0  0  0  0  0  0  0  0  0  0
   39.0108   23.7327   29.2046 H   0  0  0  0  0  0  0  0  0  0  0  0
   39.7326   23.3971   30.7305 H   0  0  0  0  0  0  0  0  0  0  0  0
   38.4389   21.3776   28.7381 H   0  0  0  0  0  0  0  0  0  0  0  0
   40.0872   21.3041   29.2878 H   0  0  0  0  0  0  0  0  0  0  0  0
   38.0340   19.9531   30.5604 H   0  0  0  0  0  0  0  0  0  0  0  0
   39.4195   20.5390   31.4858 H   0  0  0  0  0  0  0  0  0  0  0  0
  1  2  2  0
  3  2  1  0
  4  3  2  0
  5  6  2  0
  5  4  1  0
  6  1  1  0
  7 13  1  0
  7  5  1  0
  8  7  1  0
  9 10  1  0
  9  8  2  0
 10 12  2  0
 11 10  1  0
 12 13  1  0
 13 14  2  0
 15  9  1  0
 16 15  1  0
 17 16  1  0
 18 17  1  0
 18 19  1  0
 19 15  1  0
  1 20  1  0
  2 21  1  0
  3 22  1  0
  8 23  1  0
 11 24  1  0
 11 25  1  0
 16 26  1  0
 16 27  1  0
 17 28  1  0
 17 29  1  0
 18 30  1  0
 18 31  1  0
 19 32  1  0
 19 33  1  0
M  ISO  8  20  14  21  14  22  14  23  14  26  13  27  13  28  13  29  13
M  ISO  4  30  13  31  13  32  13  33  13
M  END
>  <minimizedAffinity>  (1) 
-5.06861925

>  <minimizedRMSD>  (1) 
0.3989124

$$$$
