
     RDKit          3D

 38 40  0  0  1  0  0  0  0  0999 V2000
   37.3860   26.9680   33.5800 C   0  0  2  0  0  0  0  0  0  0  0  0
   36.7130   27.9580   34.4980 C   0  0  0  0  0  0  0  0  0  0  0  0
   35.9340   28.9650   33.6840 C   0  0  0  0  0  0  0  0  0  0  0  0
   36.3710   28.9090   32.2250 C   0  0  0  0  0  0  0  0  0  0  0  0
   36.1490   27.5770   31.5990 C   0  0  0  0  0  0  0  0  0  0  0  0
   36.4060   26.4560   32.5900 C   0  0  1  0  0  0  0  0  0  0  0  0
   36.8140   25.3210   31.8010 N   0  0  0  0  0  0  0  0  0  0  0  0
   37.7880   25.2450   30.8460 C   0  0  0  0  0  0  0  0  0  0  0  0
   37.8380   23.9630   30.3910 N   0  0  0  0  0  0  0  0  0  0  0  0
   36.9060   23.2420   31.0540 C   0  0  0  0  0  0  0  0  0  0  0  0
   36.3050   24.0960   31.8980 N   0  0  0  0  0  0  0  0  0  0  0  0
   38.1320   25.9240   34.3620 C   0  0  0  0  0  0  0  0  0  0  0  0
   37.6250   25.7200   35.7310 C   0  0  0  0  0  0  0  0  0  0  0  0
   38.0250   24.2960   37.8070 C   0  0  0  0  0  0  0  0  0  0  0  0
   38.3540   24.6980   36.5010 C   0  0  0  0  0  0  0  0  0  0  0  0
   39.4300   24.0830   35.8830 C   0  0  0  0  0  0  0  0  0  0  0  0
   40.1400   23.1100   36.5490 N   0  0  0  0  0  0  0  0  0  0  0  0
   39.7750   22.7640   37.8070 C   0  0  0  0  0  0  0  0  0  0  0  0
   38.7340   23.3520   38.4200 N   0  0  0  0  0  0  0  0  0  0  0  0
   38.1700   27.4609   32.9864 H   0  0  0  0  0  0  0  0  0  0  0  0
   36.0266   27.4234   35.1711 H   0  0  0  0  0  0  0  0  0  0  0  0
   37.4781   28.4831   35.0887 H   0  0  0  0  0  0  0  0  0  0  0  0
   34.8604   28.7350   33.7514 H   0  0  0  0  0  0  0  0  0  0  0  0
   36.1261   29.9735   34.0791 H   0  0  0  0  0  0  0  0  0  0  0  0
   35.8006   29.6608   31.6597 H   0  0  0  0  0  0  0  0  0  0  0  0
   37.4527   29.1071   32.1991 H   0  0  0  0  0  0  0  0  0  0  0  0
   35.1084   27.5143   31.2480 H   0  0  0  0  0  0  0  0  0  0  0  0
   36.8490   27.4660   30.7577 H   0  0  0  0  0  0  0  0  0  0  0  0
   35.5419   26.1257   33.1851 H   0  0  0  0  0  0  0  0  0  0  0  0
   38.4222   26.0761   30.5039 H   0  0  0  0  0  0  0  0  0  0  0  0
   36.6848   22.1719   30.9275 H   0  0  0  0  0  0  0  0  0  0  0  0
   38.0587   24.9692   33.8208 H   0  0  0  0  0  0  0  0  0  0  0  0
   39.1684   26.2801   34.4577 H   0  0  0  0  0  0  0  0  0  0  0  0
   37.6977   26.6754   36.2713 H   0  0  0  0  0  0  0  0  0  0  0  0
   36.5895   25.3619   35.6334 H   0  0  0  0  0  0  0  0  0  0  0  0
   37.1758   24.7650   38.3255 H   0  0  0  0  0  0  0  0  0  0  0  0
   39.7169   24.3718   34.8611 H   0  0  0  0  0  0  0  0  0  0  0  0
   40.3428   21.9855   38.3376 H   0  0  0  0  0  0  0  0  0  0  0  0
  1 12  1  0
  1  2  1  0
  3  2  1  0
  4  3  1  0
  5  4  1  0
  5  6  1  0
  6  1  1  0
  7 11  1  0
  7  6  1  0
  8  7  1  0
  9  8  2  0
  9 10  1  0
 10 11  2  0
 12 13  1  0
 13 15  1  0
 14 19  2  0
 15 14  1  0
 16 15  2  0
 16 17  1  0
 17 18  2  0
 18 19  1  0
  1 20  1  6
  2 21  1  0
  2 22  1  0
  3 23  1  0
  3 24  1  0
  4 25  1  0
  4 26  1  0
  5 27  1  0
  5 28  1  0
  6 29  1  1
  8 30  1  0
 10 31  1  0
 12 32  1  0
 12 33  1  0
 13 34  1  0
 13 35  1  0
 14 36  1  0
 16 37  1  0
 18 38  1  0
M  ISO  8  20  13  21  13  22  13  23  13  24  13  25  13  26  13  27  13
M  ISO  8  28  13  29  13  30  14  31  14  32   8  33   8  34   8  35   8
M  ISO  3  36  14  37  14  38  14
M  END
>  <minimizedAffinity>  (1) 
-4.84915829

>  <minimizedRMSD>  (1) 
1.35548997

$$$$
