
     RDKit          3D

 52 56  0  0  1  0  0  0  0  0999 V2000
   37.4140   24.2340   32.2260 C   0  0  0  0  0  0  0  0  0  0  0  0
   37.0380   22.8030   31.9640 C   0  0  2  0  0  0  0  0  0  0  0  0
   35.7410   22.7300   31.1900 C   0  0  0  0  0  0  0  0  0  0  0  0
   35.3620   21.2890   30.9720 C   0  0  0  0  0  0  0  0  0  0  0  0
   36.5350   20.3730   31.2760 C   0  0  0  0  0  0  0  0  0  0  0  0
   37.0560   20.4990   32.6590 C   0  0  0  0  0  0  0  0  0  0  0  0
   36.9460   21.9210   33.1580 C   0  0  1  0  0  0  0  0  0  0  0  0
   37.9780   22.0800   34.1440 N   0  0  0  0  0  0  0  0  0  0  0  0
   39.3210   21.9330   34.0120 C   0  0  0  0  0  0  0  0  0  0  0  0
   39.9070   22.1860   35.2150 N   0  0  0  0  0  0  0  0  0  0  0  0
   38.9340   22.4890   36.0990 C   0  0  0  0  0  0  0  0  0  0  0  0
   37.7910   22.4140   35.4160 N   0  0  0  0  0  0  0  0  0  0  0  0
   37.6120   25.0440   31.0210 C   0  0  0  0  0  0  0  0  0  0  0  0
   37.6880   27.5520   30.5390 C   0  0  0  0  0  0  0  0  0  0  0  0
   37.0840   26.4200   31.1130 C   0  0  0  0  0  0  0  0  0  0  0  0
   35.9150   26.6040   31.8130 C   0  0  0  0  0  0  0  0  0  0  0  0
   35.3700   27.8610   31.9350 N   0  0  0  0  0  0  0  0  0  0  0  0
   36.0020   28.9190   31.3560 C   0  0  0  0  0  0  0  0  0  0  0  0
   37.1420   28.7510   30.6720 N   0  0  0  0  0  0  0  0  0  0  0  0
   35.3390   30.1680   31.5550 N   0  0  0  0  0  0  0  0  0  0  0  0
   35.3930   31.3620   30.9370 C   0  0  0  0  0  0  0  0  0  0  0  0
   34.5500   32.2280   31.5220 N   0  0  0  0  0  0  0  0  0  0  0  0
   33.9450   31.5760   32.5300 C   0  0  0  0  0  0  0  0  0  0  0  0
   32.9890   32.0640   33.4210 C   0  0  0  0  0  0  0  0  0  0  0  0
   32.5560   33.2440   33.3800 O   0  0  0  0  0  0  0  0  0  0  0  0
   32.5050   31.2380   34.3680 N   0  0  0  0  0  0  0  0  0  0  0  0
   33.0190   29.9970   34.3420 C   0  0  0  0  0  0  0  0  0  0  0  0
   32.5620   29.0670   35.3060 N   0  0  0  0  0  0  0  0  0  0  0  0
   33.9390   29.4840   33.5060 N   0  0  0  0  0  0  0  0  0  0  0  0
   34.4370   30.2970   32.5470 C   0  0  0  0  0  0  0  0  0  0  0  0
   36.6127   24.6956   32.8216 H   0  0  0  0  0  0  0  0  0  0  0  0
   38.3819   24.2110   32.7482 H   0  0  0  0  0  0  0  0  0  0  0  0
   37.8818   22.4108   31.3774 H   0  0  0  0  0  0  0  0  0  0  0  0
   34.9465   23.2353   31.7588 H   0  0  0  0  0  0  0  0  0  0  0  0
   35.8690   23.2250   30.2160 H   0  0  0  0  0  0  0  0  0  0  0  0
   34.5223   21.0323   31.6346 H   0  0  0  0  0  0  0  0  0  0  0  0
   35.0724   21.1550   29.9193 H   0  0  0  0  0  0  0  0  0  0  0  0
   36.2109   19.3332   31.1218 H   0  0  0  0  0  0  0  0  0  0  0  0
   37.3517   20.6667   30.6002 H   0  0  0  0  0  0  0  0  0  0  0  0
   36.4759   19.8404   33.3221 H   0  0  0  0  0  0  0  0  0  0  0  0
   38.1178   20.2117   32.6583 H   0  0  0  0  0  0  0  0  0  0  0  0
   35.9997   22.1842   33.6532 H   0  0  0  0  0  0  0  0  0  0  0  0
   39.8482   21.6557   33.0873 H   0  0  0  0  0  0  0  0  0  0  0  0
   39.0576   22.7447   37.1617 H   0  0  0  0  0  0  0  0  0  0  0  0
   37.1108   24.5393   30.1819 H   0  0  0  0  0  0  0  0  0  0  0  0
   38.6993   25.1354   30.8814 H   0  0  0  0  0  0  0  0  0  0  0  0
   38.6246   27.4406   29.9730 H   0  0  0  0  0  0  0  0  0  0  0  0
   35.4134   25.7422   32.2775 H   0  0  0  0  0  0  0  0  0  0  0  0
   36.0360   31.5953   30.0755 H   0  0  0  0  0  0  0  0  0  0  0  0
   31.7981   31.5336   35.0564 H   0  0  0  0  0  0  0  0  0  0  0  0
   32.9359   28.1073   35.3135 H   0  0  0  0  0  0  0  0  0  0  0  0
   31.8555   29.3499   36.0001 H   0  0  0  0  0  0  0  0  0  0  0  0
  2  1  1  0
  2  7  1  0
  3  2  1  0
  4  3  1  0
  4  5  1  0
  5  6  1  0
  6  7  1  0
  7  8  1  0
  8 12  1  0
  9  8  1  0
  9 10  2  0
 10 11  1  0
 12 11  2  0
 13 15  1  0
 13  1  1  0
 14 19  2  0
 14 15  1  0
 15 16  2  0
 16 17  1  0
 18 20  1  0
 18 17  2  0
 19 18  1  0
 20 30  1  0
 21 22  2  0
 21 20  1  0
 22 23  1  0
 23 30  2  0
 23 24  1  0
 24 26  1  0
 25 24  2  0
 27 26  1  0
 27 28  1  0
 29 27  2  0
 30 29  1  0
  1 31  1  0
  1 32  1  0
  2 33  1  6
  3 34  1  0
  3 35  1  0
  4 36  1  0
  4 37  1  0
  5 38  1  0
  5 39  1  0
  6 40  1  0
  6 41  1  0
  7 42  1  1
  9 43  1  0
 11 44  1  0
 13 45  1  0
 13 46  1  0
 14 47  1  0
 16 48  1  0
 21 49  1  0
 26 50  1  0
 28 51  1  0
 28 52  1  0
M  ISO  8  31   8  32   8  33  13  34  13  35  13  36  13  37  13  38  13
M  ISO  8  39  13  40  13  41  13  42  13  43  14  44  14  45   8  46   8
M  ISO  4  47  14  48  14  49  14  50   9
M  END
>  <minimizedAffinity>  (1) 
-5.47008228

>  <minimizedRMSD>  (1) 
10.4166956

$$$$
