
     RDKit          3D

 39 41  0  0  1  0  0  0  0  0999 V2000
   37.4000   27.0690   33.5970 C   0  0  2  0  0  0  0  0  0  0  0  0
   36.7220   28.0190   34.5410 C   0  0  0  0  0  0  0  0  0  0  0  0
   35.8720   28.9980   33.7550 C   0  0  0  0  0  0  0  0  0  0  0  0
   36.2600   28.9550   32.2830 C   0  0  0  0  0  0  0  0  0  0  0  0
   36.0720   27.6220   31.6680 C   0  0  0  0  0  0  0  0  0  0  0  0
   36.3980   26.5120   32.6450 C   0  0  1  0  0  0  0  0  0  0  0  0
   36.8370   25.3890   31.8460 N   0  0  0  0  0  0  0  0  0  0  0  0
   37.7760   25.3410   30.8710 C   0  0  0  0  0  0  0  0  0  0  0  0
   37.8380   24.0630   30.4090 N   0  0  0  0  0  0  0  0  0  0  0  0
   36.9450   23.3080   31.0890 C   0  0  0  0  0  0  0  0  0  0  0  0
   36.3580   24.1430   31.9470 N   0  0  0  0  0  0  0  0  0  0  0  0
   38.2320   26.0590   34.3400 C   0  0  0  0  0  0  0  0  0  0  0  0
   37.7140   25.7450   35.6910 C   0  0  0  0  0  0  0  0  0  0  0  0
   38.1490   24.2100   37.6760 C   0  0  0  0  0  0  0  0  0  0  0  0
   38.4390   24.6640   36.3860 C   0  0  0  0  0  0  0  0  0  0  0  0
   39.4870   24.0620   35.7000 C   0  0  0  0  0  0  0  0  0  0  0  0
   40.1970   23.0470   36.3050 N   0  0  0  0  0  0  0  0  0  0  0  0
   39.8680   22.6500   37.5560 C   0  0  0  0  0  0  0  0  0  0  0  0
   38.8640   23.2230   38.2220 N   0  0  0  0  0  0  0  0  0  0  0  0
   40.6590   21.6130   38.0640 O   0  0  0  0  0  0  0  0  0  0  0  0
   38.1353   27.5995   32.9742 H   0  0  0  0  0  0  0  0  0  0  0  0
   36.0820   27.4525   35.2334 H   0  0  0  0  0  0  0  0  0  0  0  0
   37.4828   28.5721   35.1113 H   0  0  0  0  0  0  0  0  0  0  0  0
   34.8112   28.7269   33.8607 H   0  0  0  0  0  0  0  0  0  0  0  0
   36.0364   30.0139   34.1435 H   0  0  0  0  0  0  0  0  0  0  0  0
   35.6409   29.6821   31.7371 H   0  0  0  0  0  0  0  0  0  0  0  0
   37.3317   29.1949   32.2208 H   0  0  0  0  0  0  0  0  0  0  0  0
   35.0247   27.5203   31.3472 H   0  0  0  0  0  0  0  0  0  0  0  0
   36.7534   27.5380   30.8085 H   0  0  0  0  0  0  0  0  0  0  0  0
   35.5613   26.1485   33.2596 H   0  0  0  0  0  0  0  0  0  0  0  0
   38.3822   26.1871   30.5151 H   0  0  0  0  0  0  0  0  0  0  0  0
   36.7455   22.2338   30.9613 H   0  0  0  0  0  0  0  0  0  0  0  0
   38.2577   25.1294   33.7524 H   0  0  0  0  0  0  0  0  0  0  0  0
   39.2321   26.4979   34.4713 H   0  0  0  0  0  0  0  0  0  0  0  0
   37.7816   26.6549   36.3054 H   0  0  0  0  0  0  0  0  0  0  0  0
   36.6802   25.3938   35.5569 H   0  0  0  0  0  0  0  0  0  0  0  0
   37.3268   24.6686   38.2449 H   0  0  0  0  0  0  0  0  0  0  0  0
   39.7476   24.3924   34.6837 H   0  0  0  0  0  0  0  0  0  0  0  0
   40.4882   21.2599   38.9730 H   0  0  0  0  0  0  0  0  0  0  0  0
  1 12  1  0
  1  2  1  0
  3  2  1  0
  4  3  1  0
  5  4  1  0
  5  6  1  0
  6  1  1  0
  7 11  1  0
  7  6  1  0
  8  7  1  0
  9  8  2  0
  9 10  1  0
 10 11  2  0
 12 13  1  0
 13 15  1  0
 14 19  2  0
 15 14  1  0
 16 17  1  0
 16 15  2  0
 17 18  2  0
 18 20  1  0
 18 19  1  0
  1 21  1  6
  2 22  1  0
  2 23  1  0
  3 24  1  0
  3 25  1  0
  4 26  1  0
  4 27  1  0
  5 28  1  0
  5 29  1  0
  6 30  1  1
  8 31  1  0
 10 32  1  0
 12 33  1  0
 12 34  1  0
 13 35  1  0
 13 36  1  0
 14 37  1  0
 16 38  1  0
 20 39  1  0
M  ISO  8  21  13  22  13  23  13  24  13  25  13  26  13  27  13  28  13
M  ISO  8  29  13  30  13  31  14  32  14  33   8  34   8  35   8  36   8
M  ISO  3  37  14  38  14  39   3
M  END
>  <minimizedAffinity>  (1) 
-5.48945856

>  <minimizedRMSD>  (1) 
0.17302905

$$$$
