
     RDKit          3D

 40 42  0  0  1  0  0  0  0  0999 V2000
   37.3470   27.2720   33.5340 C   0  0  2  0  0  0  0  0  0  0  0  0
   36.6030   28.1970   34.4660 C   0  0  0  0  0  0  0  0  0  0  0  0
   35.7290   29.1310   33.6660 C   0  0  0  0  0  0  0  0  0  0  0  0
   36.1480   29.1200   32.2000 C   0  0  0  0  0  0  0  0  0  0  0  0
   36.0730   27.7830   31.5630 C   0  0  0  0  0  0  0  0  0  0  0  0
   36.3960   26.6780   32.5540 C   0  0  1  0  0  0  0  0  0  0  0  0
   36.8970   25.5750   31.7710 N   0  0  0  0  0  0  0  0  0  0  0  0
   37.8820   25.5730   30.8400 C   0  0  0  0  0  0  0  0  0  0  0  0
   38.0090   24.2950   30.3620 N   0  0  0  0  0  0  0  0  0  0  0  0
   37.0970   23.5180   31.0030 C   0  0  0  0  0  0  0  0  0  0  0  0
   36.4470   24.3230   31.8430 N   0  0  0  0  0  0  0  0  0  0  0  0
   38.2020   26.3090   34.2990 C   0  0  0  0  0  0  0  0  0  0  0  0
   37.6550   25.9340   35.6260 C   0  0  0  0  0  0  0  0  0  0  0  0
   38.0310   24.2890   37.5200 C   0  0  0  0  0  0  0  0  0  0  0  0
   38.3810   24.8310   36.2830 C   0  0  0  0  0  0  0  0  0  0  0  0
   39.4750   24.3040   35.6280 C   0  0  0  0  0  0  0  0  0  0  0  0
   40.1830   23.2770   36.2010 N   0  0  0  0  0  0  0  0  0  0  0  0
   39.7930   22.7880   37.4130 C   0  0  0  0  0  0  0  0  0  0  0  0
   38.7340   23.2950   38.0490 N   0  0  0  0  0  0  0  0  0  0  0  0
   40.6210   21.7130   37.8970 N   0  0  0  0  0  0  0  0  0  0  0  0
   38.0742   27.8282   32.9243 H   0  0  0  0  0  0  0  0  0  0  0  0
   35.9758   27.6029   35.1469 H   0  0  0  0  0  0  0  0  0  0  0  0
   37.3267   28.7856   35.0489 H   0  0  0  0  0  0  0  0  0  0  0  0
   34.6812   28.8061   33.7466 H   0  0  0  0  0  0  0  0  0  0  0  0
   35.8380   30.1513   34.0623 H   0  0  0  0  0  0  0  0  0  0  0  0
   35.4888   29.8048   31.6464 H   0  0  0  0  0  0  0  0  0  0  0  0
   37.2029   29.4302   32.1674 H   0  0  0  0  0  0  0  0  0  0  0  0
   35.0558   27.6286   31.1738 H   0  0  0  0  0  0  0  0  0  0  0  0
   36.8122   27.7452   30.7493 H   0  0  0  0  0  0  0  0  0  0  0  0
   35.5526   26.2836   33.1398 H   0  0  0  0  0  0  0  0  0  0  0  0
   38.4750   26.4438   30.5238 H   0  0  0  0  0  0  0  0  0  0  0  0
   36.9289   22.4407   30.8577 H   0  0  0  0  0  0  0  0  0  0  0  0
   38.3118   25.3933   33.6995 H   0  0  0  0  0  0  0  0  0  0  0  0
   39.1615   26.8145   34.4832 H   0  0  0  0  0  0  0  0  0  0  0  0
   37.7001   26.8166   36.2809 H   0  0  0  0  0  0  0  0  0  0  0  0
   36.6258   25.5834   35.4590 H   0  0  0  0  0  0  0  0  0  0  0  0
   37.1625   24.6899   38.0632 H   0  0  0  0  0  0  0  0  0  0  0  0
   39.7788   24.7054   34.6500 H   0  0  0  0  0  0  0  0  0  0  0  0
   40.4136   21.2715   38.8041 H   0  0  0  0  0  0  0  0  0  0  0  0
   41.4204   21.3859   37.3359 H   0  0  0  0  0  0  0  0  0  0  0  0
  1 12  1  0
  1  2  1  0
  3  2  1  0
  4  3  1  0
  5  4  1  0
  5  6  1  0
  6  1  1  0
  7 11  1  0
  7  6  1  0
  8  7  1  0
  9  8  2  0
  9 10  1  0
 10 11  2  0
 12 13  1  0
 13 15  1  0
 14 19  2  0
 15 14  1  0
 16 17  1  0
 16 15  2  0
 17 18  2  0
 18 20  1  0
 18 19  1  0
  1 21  1  6
  2 22  1  0
  2 23  1  0
  3 24  1  0
  3 25  1  0
  4 26  1  0
  4 27  1  0
  5 28  1  0
  5 29  1  0
  6 30  1  1
  8 31  1  0
 10 32  1  0
 12 33  1  0
 12 34  1  0
 13 35  1  0
 13 36  1  0
 14 37  1  0
 16 38  1  0
 20 39  1  0
 20 40  1  0
M  ISO  8  21  13  22  13  23  13  24  13  25  13  26  13  27  13  28  13
M  ISO  8  29  13  30  13  31  14  32  14  33   8  34   8  35   8  36   8
M  ISO  2  37  14  38  14
M  END
>  <minimizedAffinity>  (1) 
-5.49048328

>  <minimizedRMSD>  (1) 
0.327024281

$$$$
