
     RDKit          3D

 47 50  0  0  1  0  0  0  0  0999 V2000
   38.8450   26.6170   33.4880 C   0  0  2  0  0  0  0  0  0  0  0  0
   39.6380   26.5110   34.7730 C   0  0  0  0  0  0  0  0  0  0  0  0
   38.8760   27.1590   35.9010 C   0  0  0  0  0  0  0  0  0  0  0  0
   37.7240   27.9900   35.3570 C   0  0  0  0  0  0  0  0  0  0  0  0
   36.7520   27.2030   34.5490 C   0  0  0  0  0  0  0  0  0  0  0  0
   37.4620   26.1230   33.7530 C   0  0  1  0  0  0  0  0  0  0  0  0
   36.6430   25.8850   32.5840 N   0  0  0  0  0  0  0  0  0  0  0  0
   36.1100   26.7840   31.7230 C   0  0  0  0  0  0  0  0  0  0  0  0
   35.4100   26.1000   30.7680 N   0  0  0  0  0  0  0  0  0  0  0  0
   35.5150   24.7780   31.0430 C   0  0  0  0  0  0  0  0  0  0  0  0
   36.2650   24.7010   32.1420 N   0  0  0  0  0  0  0  0  0  0  0  0
   39.5700   25.9620   32.3450 C   0  0  0  0  0  0  0  0  0  0  0  0
   40.3150   24.7560   32.7170 C   0  0  0  0  0  0  0  0  0  0  0  0
   39.0690   22.8190   33.8220 C   0  0  0  0  0  0  0  0  0  0  0  0
   39.5270   23.5070   32.6750 C   0  0  0  0  0  0  0  0  0  0  0  0
   39.2290   22.9920   31.4250 C   0  0  0  0  0  0  0  0  0  0  0  0
   38.4990   21.8330   31.3280 N   0  0  0  0  0  0  0  0  0  0  0  0
   38.0850   21.2140   32.4490 C   0  0  0  0  0  0  0  0  0  0  0  0
   38.3620   21.6940   33.6840 N   0  0  0  0  0  0  0  0  0  0  0  0
   37.3110   19.9840   32.3190 C   0  0  0  0  0  0  0  0  0  0  0  0
   37.8540   18.8770   31.6870 C   0  0  0  0  0  0  0  0  0  0  0  0
   37.0740   17.7270   31.5890 C   0  0  0  0  0  0  0  0  0  0  0  0
   35.8040   17.6810   32.1000 C   0  0  0  0  0  0  0  0  0  0  0  0
   35.2860   18.8070   32.7300 C   0  0  0  0  0  0  0  0  0  0  0  0
   36.0720   19.8960   32.8030 N   0  0  0  0  0  0  0  0  0  0  0  0
   38.7461   27.6609   33.1557 H   0  0  0  0  0  0  0  0  0  0  0  0
   39.8085   25.4504   35.0099 H   0  0  0  0  0  0  0  0  0  0  0  0
   40.6030   27.0235   34.6464 H   0  0  0  0  0  0  0  0  0  0  0  0
   38.4770   26.3775   36.5643 H   0  0  0  0  0  0  0  0  0  0  0  0
   39.5578   27.8179   36.4587 H   0  0  0  0  0  0  0  0  0  0  0  0
   37.1877   28.4391   36.2059 H   0  0  0  0  0  0  0  0  0  0  0  0
   38.1596   28.7482   34.6897 H   0  0  0  0  0  0  0  0  0  0  0  0
   36.0206   26.7325   35.2226 H   0  0  0  0  0  0  0  0  0  0  0  0
   36.2452   27.8822   33.8476 H   0  0  0  0  0  0  0  0  0  0  0  0
   37.5800   25.1547   34.2614 H   0  0  0  0  0  0  0  0  0  0  0  0
   36.2210   27.8768   31.7817 H   0  0  0  0  0  0  0  0  0  0  0  0
   35.0740   23.9434   30.4781 H   0  0  0  0  0  0  0  0  0  0  0  0
   40.2797   26.6897   31.9246 H   0  0  0  0  0  0  0  0  0  0  0  0
   38.8022   25.6484   31.6225 H   0  0  0  0  0  0  0  0  0  0  0  0
   41.1631   24.6497   32.0245 H   0  0  0  0  0  0  0  0  0  0  0  0
   40.6257   24.8927   33.7633 H   0  0  0  0  0  0  0  0  0  0  0  0
   39.2942   23.2091   34.8255 H   0  0  0  0  0  0  0  0  0  0  0  0
   39.5743   23.5072   30.5165 H   0  0  0  0  0  0  0  0  0  0  0  0
   38.8731   18.9055   31.2739 H   0  0  0  0  0  0  0  0  0  0  0  0
   37.4866   16.8373   31.0908 H   0  0  0  0  0  0  0  0  0  0  0  0
   35.2015   16.7648   32.0130 H   0  0  0  0  0  0  0  0  0  0  0  0
   34.2707   18.8072   33.1532 H   0  0  0  0  0  0  0  0  0  0  0  0
  1  6  1  0
  1  2  1  0
  2  3  1  0
  4  3  1  0
  5  4  1  0
  6  5  1  0
  7  6  1  0
  8  7  1  0
  9 10  1  0
  9  8  2  0
 10 11  2  0
 11  7  1  0
 12 13  1  0
 12  1  1  0
 15 13  1  0
 15 14  2  0
 16 15  1  0
 17 16  2  0
 17 18  1  0
 18 19  2  0
 19 14  1  0
 20 18  1  0
 20 25  1  0
 21 20  2  0
 22 21  1  0
 22 23  2  0
 23 24  1  0
 24 25  2  0
  1 26  1  6
  2 27  1  0
  2 28  1  0
  3 29  1  0
  3 30  1  0
  4 31  1  0
  4 32  1  0
  5 33  1  0
  5 34  1  0
  6 35  1  1
  8 36  1  0
 10 37  1  0
 12 38  1  0
 12 39  1  0
 13 40  1  0
 13 41  1  0
 14 42  1  0
 16 43  1  0
 21 44  1  0
 22 45  1  0
 23 46  1  0
 24 47  1  0
M  ISO  8  26  13  27  13  28  13  29  13  30  13  31  13  32  13  33  13
M  ISO  8  34  13  35  13  36  14  37  14  38   8  39   8  40   8  41   8
M  ISO  6  42  14  43  14  44  14  45  14  46  14  47  14
M  END
>  <minimizedAffinity>  (1) 
-5.06756401

>  <minimizedRMSD>  (1) 
5.28845739

$$$$
