
     RDKit          3D

 44 46  0  0  1  0  0  0  0  0999 V2000
   37.2970   27.4970   33.5070 C   0  0  2  0  0  0  0  0  0  0  0  0
   36.5150   28.3890   34.4370 C   0  0  0  0  0  0  0  0  0  0  0  0
   35.5550   29.2340   33.6350 C   0  0  0  0  0  0  0  0  0  0  0  0
   35.9190   29.2120   32.1640 C   0  0  0  0  0  0  0  0  0  0  0  0
   35.9090   27.8450   31.5620 C   0  0  0  0  0  0  0  0  0  0  0  0
   36.3730   26.8010   32.5670 C   0  0  1  0  0  0  0  0  0  0  0  0
   36.9480   25.7390   31.7880 N   0  0  0  0  0  0  0  0  0  0  0  0
   37.9210   25.7810   30.8450 C   0  0  0  0  0  0  0  0  0  0  0  0
   38.1270   24.5110   30.3830 N   0  0  0  0  0  0  0  0  0  0  0  0
   37.2890   23.6820   31.0300 C   0  0  0  0  0  0  0  0  0  0  0  0
   36.5960   24.4560   31.8660 N   0  0  0  0  0  0  0  0  0  0  0  0
   38.2460   26.6150   34.2680 C   0  0  0  0  0  0  0  0  0  0  0  0
   37.6380   25.9240   35.4120 C   0  0  0  0  0  0  0  0  0  0  0  0
   38.1440   24.1240   37.1510 C   0  0  0  0  0  0  0  0  0  0  0  0
   38.4620   24.8550   36.0040 C   0  0  0  0  0  0  0  0  0  0  0  0
   39.6510   24.5590   35.3580 C   0  0  0  0  0  0  0  0  0  0  0  0
   40.4700   23.5720   35.8560 N   0  0  0  0  0  0  0  0  0  0  0  0
   40.1040   22.9030   36.9680 C   0  0  0  0  0  0  0  0  0  0  0  0
   38.9610   23.1830   37.5970 N   0  0  0  0  0  0  0  0  0  0  0  0
   40.9250   21.8200   37.5810 C   0  0  0  0  0  0  0  0  0  0  0  0
   42.2340   21.6200   36.8190 C   0  0  0  0  0  0  0  0  0  0  0  0
   37.9573   28.0988   32.8653 H   0  0  0  0  0  0  0  0  0  0  0  0
   35.9509   27.7703   35.1504 H   0  0  0  0  0  0  0  0  0  0  0  0
   37.2080   29.0430   34.9867 H   0  0  0  0  0  0  0  0  0  0  0  0
   34.5358   28.8395   33.7603 H   0  0  0  0  0  0  0  0  0  0  0  0
   35.6110   30.2713   33.9968 H   0  0  0  0  0  0  0  0  0  0  0  0
   35.1965   29.8368   31.6184 H   0  0  0  0  0  0  0  0  0  0  0  0
   36.9484   29.5910   32.0825 H   0  0  0  0  0  0  0  0  0  0  0  0
   34.8861   27.6024   31.2382 H   0  0  0  0  0  0  0  0  0  0  0  0
   36.5981   27.8355   30.7047 H   0  0  0  0  0  0  0  0  0  0  0  0
   35.5903   26.3477   33.1930 H   0  0  0  0  0  0  0  0  0  0  0  0
   38.4537   26.6828   30.5090 H   0  0  0  0  0  0  0  0  0  0  0  0
   37.1949   22.5941   30.8975 H   0  0  0  0  0  0  0  0  0  0  0  0
   38.6414   25.8561   33.5768 H   0  0  0  0  0  0  0  0  0  0  0  0
   39.0303   27.2705   34.6745 H   0  0  0  0  0  0  0  0  0  0  0  0
   37.4355   26.6711   36.1935 H   0  0  0  0  0  0  0  0  0  0  0  0
   36.7300   25.4355   35.0288 H   0  0  0  0  0  0  0  0  0  0  0  0
   37.2068   24.3321   37.6881 H   0  0  0  0  0  0  0  0  0  0  0  0
   39.9391   25.1106   34.4509 H   0  0  0  0  0  0  0  0  0  0  0  0
   41.1538   22.0893   38.6227 H   0  0  0  0  0  0  0  0  0  0  0  0
   40.3513   20.8824   37.5396 H   0  0  0  0  0  0  0  0  0  0  0  0
   43.0595   21.4939   37.5350 H   0  0  0  0  0  0  0  0  0  0  0  0
   42.1568   20.7232   36.1867 H   0  0  0  0  0  0  0  0  0  0  0  0
   42.4281   22.4989   36.1867 H   0  0  0  0  0  0  0  0  0  0  0  0
  1 12  1  0
  1  2  1  0
  3  2  1  0
  4  3  1  0
  5  4  1  0
  5  6  1  0
  6  1  1  0
  7 11  1  0
  7  6  1  0
  8  7  1  0
  9  8  2  0
  9 10  1  0
 10 11  2  0
 12 13  1  0
 13 15  1  0
 14 19  2  0
 15 14  1  0
 16 17  1  0
 16 15  2  0
 17 18  2  0
 18 20  1  0
 18 19  1  0
 21 20  1  0
  1 22  1  6
  2 23  1  0
  2 24  1  0
  3 25  1  0
  3 26  1  0
  4 27  1  0
  4 28  1  0
  5 29  1  0
  5 30  1  0
  6 31  1  1
  8 32  1  0
 10 33  1  0
 12 34  1  0
 12 35  1  0
 13 36  1  0
 13 37  1  0
 14 38  1  0
 16 39  1  0
 20 40  1  0
 20 41  1  0
 21 42  1  0
 21 43  1  0
 21 44  1  0
M  ISO  8  22  13  23  13  24  13  25  13  26  13  27  13  28  13  29  13
M  ISO  8  30  13  31  13  32  14  33  14  34   8  35   8  36   8  37   8
M  ISO  7  38  14  39  14  40   8  41   8  42   8  43   8  44   8
M  END
>  <minimizedAffinity>  (1) 
-4.99148083

>  <minimizedRMSD>  (1) 
0.685982406

$$$$
