
     RDKit          3D

 28 30  0  0  0  0  0  0  0  0999 V2000
   39.8890   22.6280   37.3010 C   0  0  0  0  0  0  0  0  0  0  0  0
   39.1390   23.1910   38.3320 C   0  0  0  0  0  0  0  0  0  0  0  0
   37.7590   23.3310   38.1680 C   0  0  0  0  0  0  0  0  0  0  0  0
   37.2010   22.9080   36.9960 N   0  0  0  0  0  0  0  0  0  0  0  0
   37.9470   22.3700   36.0200 C   0  0  0  0  0  0  0  0  0  0  0  0
   39.2870   22.2300   36.1710 N   0  0  0  0  0  0  0  0  0  0  0  0
   37.3690   21.9270   34.7950 N   0  0  0  0  0  0  0  0  0  0  0  0
   38.0230   22.3230   33.6880 C   0  0  0  0  0  0  0  0  0  0  0  0
   37.5200   21.9300   32.4670 C   0  0  0  0  0  0  0  0  0  0  0  0
   36.3930   21.1670   32.4790 C   0  0  0  0  0  0  0  0  0  0  0  0
   35.7790   20.7010   31.2970 N   0  0  0  0  0  0  0  0  0  0  0  0
   35.7780   20.7990   33.6050 N   0  0  0  0  0  0  0  0  0  0  0  0
   36.2640   21.1780   34.8040 C   0  0  0  0  0  0  0  0  0  0  0  0
   35.7610   20.8850   35.9210 O   0  0  0  0  0  0  0  0  0  0  0  0
   38.1640   22.3150   31.2640 C   0  0  0  0  0  0  0  0  0  0  0  0
   39.0080   21.6840   30.4140 C   0  0  0  0  0  0  0  0  0  0  0  0
   39.5010   22.2670   29.3070 C   0  0  0  0  0  0  0  0  0  0  0  0
   39.0660   23.6250   29.0830 C   0  0  0  0  0  0  0  0  0  0  0  0
   37.9470   23.9400   30.5430 S   0  0  0  0  0  0  0  0  0  0  0  0
   40.9767   22.5100   37.4145 H   0  0  0  0  0  0  0  0  0  0  0  0
   39.6268   23.5203   39.2613 H   0  0  0  0  0  0  0  0  0  0  0  0
   37.1380   23.7706   38.9624 H   0  0  0  0  0  0  0  0  0  0  0  0
   38.9305   22.9409   33.7556 H   0  0  0  0  0  0  0  0  0  0  0  0
   34.9264   20.1257   31.3519 H   0  0  0  0  0  0  0  0  0  0  0  0
   36.1834   20.9361   30.3794 H   0  0  0  0  0  0  0  0  0  0  0  0
   39.3036   20.6486   30.6389 H   0  0  0  0  0  0  0  0  0  0  0  0
   40.1863   21.7466   28.6217 H   0  0  0  0  0  0  0  0  0  0  0  0
   39.3283   24.3041   28.2584 H   0  0  0  0  0  0  0  0  0  0  0  0
  1  2  2  0
  3  2  1  0
  4  3  2  0
  5  6  2  0
  5  4  1  0
  6  1  1  0
  7 13  1  0
  7  5  1  0
  8  7  1  0
  9 10  1  0
  9  8  2  0
 10 12  2  0
 11 10  1  0
 12 13  1  0
 13 14  2  0
 15  9  1  0
 16 15  2  0
 17 16  1  0
 18 17  2  0
 18 19  1  0
 19 15  1  0
  1 20  1  0
  2 21  1  0
  3 22  1  0
  8 23  1  0
 11 24  1  0
 11 25  1  0
 16 26  1  0
 17 27  1  0
 18 28  1  0
M  ISO  7  20  14  21  14  22  14  23  14  26  14  27  14  28  14
M  END
>  <minimizedAffinity>  (1) 
-4.98757935

>  <minimizedRMSD>  (1) 
0.993195236

$$$$
