
     RDKit          3D

 39 41  0  0  1  0  0  0  0  0999 V2000
   37.5620   27.1130   33.6450 C   0  0  2  0  0  0  0  0  0  0  0  0
   36.9000   27.9630   34.6960 C   0  0  0  0  0  0  0  0  0  0  0  0
   35.8510   28.8500   34.0580 C   0  0  0  0  0  0  0  0  0  0  0  0
   36.0820   28.9050   32.5450 C   0  0  0  0  0  0  0  0  0  0  0  0
   35.9820   27.5720   31.8920 C   0  0  0  0  0  0  0  0  0  0  0  0
   36.5270   26.4700   32.7880 C   0  0  1  0  0  0  0  0  0  0  0  0
   36.9920   25.4310   31.9070 N   0  0  0  0  0  0  0  0  0  0  0  0
   37.8570   25.5170   30.8680 C   0  0  0  0  0  0  0  0  0  0  0  0
   37.9870   24.2620   30.3360 N   0  0  0  0  0  0  0  0  0  0  0  0
   37.2140   23.4130   31.0350 C   0  0  0  0  0  0  0  0  0  0  0  0
   36.6210   24.1490   31.9820 N   0  0  0  0  0  0  0  0  0  0  0  0
   38.5660   26.1870   34.2640 C   0  0  0  0  0  0  0  0  0  0  0  0
   38.0890   25.5110   35.4830 C   0  0  0  0  0  0  0  0  0  0  0  0
   38.7260   23.6560   37.1110 C   0  0  0  0  0  0  0  0  0  0  0  0
   38.9830   24.4470   35.9900 C   0  0  0  0  0  0  0  0  0  0  0  0
   40.1520   24.2290   35.2960 C   0  0  0  0  0  0  0  0  0  0  0  0
   41.0320   23.2580   35.7090 N   0  0  0  0  0  0  0  0  0  0  0  0
   40.7390   22.5200   36.7970 C   0  0  0  0  0  0  0  0  0  0  0  0
   39.6100   22.7210   37.4780 N   0  0  0  0  0  0  0  0  0  0  0  0
   41.8470   21.2440   37.3770 S   0  0  0  0  0  0  0  0  0  0  0  0
   38.1575   27.7333   32.9590 H   0  0  0  0  0  0  0  0  0  0  0  0
   36.4218   27.3124   35.4430 H   0  0  0  0  0  0  0  0  0  0  0  0
   37.6592   28.5932   35.1824 H   0  0  0  0  0  0  0  0  0  0  0  0
   34.8508   28.4401   34.2617 H   0  0  0  0  0  0  0  0  0  0  0  0
   35.9235   29.8643   34.4775 H   0  0  0  0  0  0  0  0  0  0  0  0
   35.3282   29.5708   32.0995 H   0  0  0  0  0  0  0  0  0  0  0  0
   37.1050   29.2749   32.3820 H   0  0  0  0  0  0  0  0  0  0  0  0
   34.9256   27.3616   31.6689 H   0  0  0  0  0  0  0  0  0  0  0  0
   36.5802   27.5940   30.9692 H   0  0  0  0  0  0  0  0  0  0  0  0
   35.8069   25.9959   33.4712 H   0  0  0  0  0  0  0  0  0  0  0  0
   38.3625   26.4284   30.5161 H   0  0  0  0  0  0  0  0  0  0  0  0
   37.0935   22.3332   30.8634 H   0  0  0  0  0  0  0  0  0  0  0  0
   38.8295   25.4179   33.5230 H   0  0  0  0  0  0  0  0  0  0  0  0
   39.4270   26.8044   34.5598 H   0  0  0  0  0  0  0  0  0  0  0  0
   37.9756   26.2683   36.2727 H   0  0  0  0  0  0  0  0  0  0  0  0
   37.1420   25.0196   35.2153 H   0  0  0  0  0  0  0  0  0  0  0  0
   37.8017   23.8005   37.6896 H   0  0  0  0  0  0  0  0  0  0  0  0
   40.3824   24.8347   34.4072 H   0  0  0  0  0  0  0  0  0  0  0  0
   41.8553   21.2345   38.7469 H   0  0  0  0  0  0  0  0  0  0  0  0
  1 12  1  0
  1  2  1  0
  3  2  1  0
  4  3  1  0
  5  4  1  0
  5  6  1  0
  6  1  1  0
  7 11  1  0
  7  6  1  0
  8  7  1  0
  9  8  2  0
  9 10  1  0
 10 11  2  0
 12 13  1  0
 13 15  1  0
 14 19  2  0
 15 14  1  0
 16 17  1  0
 16 15  2  0
 17 18  2  0
 18 20  1  0
 18 19  1  0
  1 21  1  6
  2 22  1  0
  2 23  1  0
  3 24  1  0
  3 25  1  0
  4 26  1  0
  4 27  1  0
  5 28  1  0
  5 29  1  0
  6 30  1  1
  8 31  1  0
 10 32  1  0
 12 33  1  0
 12 34  1  0
 13 35  1  0
 13 36  1  0
 14 37  1  0
 16 38  1  0
 20 39  1  0
M  ISO  8  21  13  22  13  23  13  24  13  25  13  26  13  27  13  28  13
M  ISO  8  29  13  30  13  31  14  32  14  33   8  34   8  35   8  36   8
M  ISO  3  37  14  38  14  39  11
M  END
>  <minimizedAffinity>  (1) 
-4.65093756

>  <minimizedRMSD>  (1) 
0.822838902

$$$$
