
     RDKit          3D

 40 42  0  0  1  0  0  0  0  0999 V2000
   37.2840   27.5260   33.5020 C   0  0  2  0  0  0  0  0  0  0  0  0
   36.4920   28.4070   34.4250 C   0  0  0  0  0  0  0  0  0  0  0  0
   35.5340   29.2540   33.6200 C   0  0  0  0  0  0  0  0  0  0  0  0
   35.9160   29.2330   32.1510 C   0  0  0  0  0  0  0  0  0  0  0  0
   35.9030   27.8760   31.5630 C   0  0  0  0  0  0  0  0  0  0  0  0
   36.3670   26.8270   32.5660 C   0  0  1  0  0  0  0  0  0  0  0  0
   36.9390   25.7580   31.7930 N   0  0  0  0  0  0  0  0  0  0  0  0
   37.9110   25.8030   30.8500 C   0  0  0  0  0  0  0  0  0  0  0  0
   38.1140   24.5320   30.3990 N   0  0  0  0  0  0  0  0  0  0  0  0
   37.2800   23.7060   31.0520 C   0  0  0  0  0  0  0  0  0  0  0  0
   36.5810   24.4740   31.8880 N   0  0  0  0  0  0  0  0  0  0  0  0
   38.2270   26.6450   34.2720 C   0  0  0  0  0  0  0  0  0  0  0  0
   37.5990   25.9480   35.4230 C   0  0  0  0  0  0  0  0  0  0  0  0
   38.1250   24.1500   37.1390 C   0  0  0  0  0  0  0  0  0  0  0  0
   38.4410   24.8820   35.9950 C   0  0  0  0  0  0  0  0  0  0  0  0
   39.6270   24.5740   35.3690 C   0  0  0  0  0  0  0  0  0  0  0  0
   40.4550   23.5980   35.8460 N   0  0  0  0  0  0  0  0  0  0  0  0
   40.0860   22.9200   36.9680 C   0  0  0  0  0  0  0  0  0  0  0  0
   38.9240   23.2050   37.6020 N   0  0  0  0  0  0  0  0  0  0  0  0
   40.8910   21.8590   37.5660 C   0  0  0  0  0  0  0  0  0  0  0  0
   41.6770   21.1160   36.9260 O   0  0  0  0  0  0  0  0  0  0  0  0
   37.9475   28.1292   32.8649 H   0  0  0  0  0  0  0  0  0  0  0  0
   35.9243   27.7819   35.1300 H   0  0  0  0  0  0  0  0  0  0  0  0
   37.1779   29.0616   34.9828 H   0  0  0  0  0  0  0  0  0  0  0  0
   34.5145   28.8572   33.7352 H   0  0  0  0  0  0  0  0  0  0  0  0
   35.5796   30.2903   33.9860 H   0  0  0  0  0  0  0  0  0  0  0  0
   35.2036   29.8610   31.5959 H   0  0  0  0  0  0  0  0  0  0  0  0
   36.9465   29.6107   32.0767 H   0  0  0  0  0  0  0  0  0  0  0  0
   34.8786   27.6353   31.2426 H   0  0  0  0  0  0  0  0  0  0  0  0
   36.5945   27.8645   30.7076 H   0  0  0  0  0  0  0  0  0  0  0  0
   35.5843   26.3693   33.1888 H   0  0  0  0  0  0  0  0  0  0  0  0
   38.4418   26.7041   30.5090 H   0  0  0  0  0  0  0  0  0  0  0  0
   37.1917   22.6171   30.9232 H   0  0  0  0  0  0  0  0  0  0  0  0
   38.6292   25.8855   33.5854 H   0  0  0  0  0  0  0  0  0  0  0  0
   39.0087   27.2997   34.6846 H   0  0  0  0  0  0  0  0  0  0  0  0
   37.3939   26.6894   36.2093 H   0  0  0  0  0  0  0  0  0  0  0  0
   36.6808   25.4704   35.0504 H   0  0  0  0  0  0  0  0  0  0  0  0
   37.1859   24.3649   37.6699 H   0  0  0  0  0  0  0  0  0  0  0  0
   39.9152   25.1270   34.4628 H   0  0  0  0  0  0  0  0  0  0  0  0
   40.8036   21.6990   38.6508 H   0  0  0  0  0  0  0  0  0  0  0  0
  1 12  1  0
  1  2  1  0
  3  2  1  0
  4  3  1  0
  5  4  1  0
  5  6  1  0
  6  1  1  0
  7 11  1  0
  7  6  1  0
  8  7  1  0
  9  8  2  0
  9 10  1  0
 10 11  2  0
 12 13  1  0
 13 15  1  0
 14 19  2  0
 15 14  1  0
 16 17  1  0
 16 15  2  0
 17 18  2  0
 18 20  1  0
 18 19  1  0
 21 20  2  0
  1 22  1  6
  2 23  1  0
  2 24  1  0
  3 25  1  0
  3 26  1  0
  4 27  1  0
  4 28  1  0
  5 29  1  0
  5 30  1  0
  6 31  1  1
  8 32  1  0
 10 33  1  0
 12 34  1  0
 12 35  1  0
 13 36  1  0
 13 37  1  0
 14 38  1  0
 16 39  1  0
 20 40  1  0
M  ISO  8  22  13  23  13  24  13  25  13  26  13  27  13  28  13  29  13
M  ISO  8  30  13  31  13  32  14  33  14  34   8  35   8  36   8  37   8
M  ISO  3  38  14  39  14  40   6
M  END
>  <minimizedAffinity>  (1) 
-4.84859514

>  <minimizedRMSD>  (1) 
0.903796554

$$$$
