
     RDKit          3D

 52 55  0  0  1  0  0  0  0  0999 V2000
   37.1840   27.7970   33.4550 C   0  0  2  0  0  0  0  0  0  0  0  0
   36.1930   28.4580   34.3720 C   0  0  0  0  0  0  0  0  0  0  0  0
   35.1110   29.1270   33.5600 C   0  0  0  0  0  0  0  0  0  0  0  0
   35.5440   29.2510   32.1040 C   0  0  0  0  0  0  0  0  0  0  0  0
   35.8470   27.9530   31.4620 C   0  0  0  0  0  0  0  0  0  0  0  0
   36.4700   26.9660   32.4450 C   0  0  1  0  0  0  0  0  0  0  0  0
   37.2850   26.0860   31.6570 N   0  0  0  0  0  0  0  0  0  0  0  0
   38.2430   26.3820   30.7450 C   0  0  0  0  0  0  0  0  0  0  0  0
   38.7340   25.1950   30.2630 N   0  0  0  0  0  0  0  0  0  0  0  0
   38.0930   24.1830   30.8660 C   0  0  0  0  0  0  0  0  0  0  0  0
   37.2260   24.7520   31.7020 N   0  0  0  0  0  0  0  0  0  0  0  0
   38.2650   27.0910   34.2290 C   0  0  0  0  0  0  0  0  0  0  0  0
   37.7710   25.9600   35.0340 C   0  0  0  0  0  0  0  0  0  0  0  0
   38.7180   24.1830   36.5930 C   0  0  0  0  0  0  0  0  0  0  0  0
   38.8280   25.0220   35.4810 C   0  0  0  0  0  0  0  0  0  0  0  0
   40.0010   24.9860   34.7340 C   0  0  0  0  0  0  0  0  0  0  0  0
   41.0120   24.1280   35.1150 N   0  0  0  0  0  0  0  0  0  0  0  0
   40.8410   23.3470   36.1950 C   0  0  0  0  0  0  0  0  0  0  0  0
   39.7230   23.3660   36.9240 N   0  0  0  0  0  0  0  0  0  0  0  0
   41.8900   22.4660   36.5770 N   0  0  0  0  0  0  0  0  0  0  0  0
   43.2830   22.8720   36.6250 C   0  0  0  0  0  0  0  0  0  0  0  0
   43.9890   21.9990   35.6090 C   0  0  0  0  0  0  0  0  0  0  0  0
   43.6680   20.6130   35.7460 N   0  0  0  0  0  0  0  0  0  0  0  0
   42.8910   20.2630   36.8910 C   0  0  0  0  0  0  0  0  0  0  0  0
   41.6250   21.0880   36.9470 C   0  0  0  0  0  0  0  0  0  0  0  0
   37.7287   28.5577   32.8765 H   0  0  0  0  0  0  0  0  0  0  0  0
   35.7408   27.6998   35.0283 H   0  0  0  0  0  0  0  0  0  0  0  0
   36.7102   29.2145   34.9804 H   0  0  0  0  0  0  0  0  0  0  0  0
   34.1914   28.5259   33.6154 H   0  0  0  0  0  0  0  0  0  0  0  0
   34.9282   30.1327   33.9663 H   0  0  0  0  0  0  0  0  0  0  0  0
   34.7335   29.7365   31.5406 H   0  0  0  0  0  0  0  0  0  0  0  0
   36.4730   29.8399   32.0935 H   0  0  0  0  0  0  0  0  0  0  0  0
   34.9135   27.5234   31.0696 H   0  0  0  0  0  0  0  0  0  0  0  0
   36.5705   28.1324   30.6531 H   0  0  0  0  0  0  0  0  0  0  0  0
   35.7754   26.3231   33.0055 H   0  0  0  0  0  0  0  0  0  0  0  0
   38.5675   27.3896   30.4460 H   0  0  0  0  0  0  0  0  0  0  0  0
   38.2505   23.1065   30.7039 H   0  0  0  0  0  0  0  0  0  0  0  0
   39.0114   26.7107   33.5161 H   0  0  0  0  0  0  0  0  0  0  0  0
   38.6914   27.8239   34.9297 H   0  0  0  0  0  0  0  0  0  0  0  0
   37.2699   26.3647   35.9257 H   0  0  0  0  0  0  0  0  0  0  0  0
   37.0927   25.3849   34.3865 H   0  0  0  0  0  0  0  0  0  0  0  0
   37.8000   24.1949   37.1989 H   0  0  0  0  0  0  0  0  0  0  0  0
   40.1207   25.6324   33.8521 H   0  0  0  0  0  0  0  0  0  0  0  0
   43.3842   23.9340   36.3570 H   0  0  0  0  0  0  0  0  0  0  0  0
   43.7095   22.7558   37.6323 H   0  0  0  0  0  0  0  0  0  0  0  0
   45.0748   22.1217   35.7354 H   0  0  0  0  0  0  0  0  0  0  0  0
   43.6537   22.3178   34.6110 H   0  0  0  0  0  0  0  0  0  0  0  0
   43.1419   20.3267   34.9081 H   0  0  0  0  0  0  0  0  0  0  0  0
   42.6257   19.1969   36.8358 H   0  0  0  0  0  0  0  0  0  0  0  0
   43.4839   20.4610   37.7961 H   0  0  0  0  0  0  0  0  0  0  0  0
   41.2219   21.0606   37.9701 H   0  0  0  0  0  0  0  0  0  0  0  0
   40.8982   20.6663   36.2372 H   0  0  0  0  0  0  0  0  0  0  0  0
  1 12  1  0
  1  2  1  0
  3  2  1  0
  4  3  1  0
  5  4  1  0
  5  6  1  0
  6  1  1  0
  7 11  1  0
  7  6  1  0
  8  7  1  0
  9  8  2  0
  9 10  1  0
 10 11  2  0
 12 13  1  0
 13 15  1  0
 14 19  2  0
 15 14  1  0
 16 17  1  0
 16 15  2  0
 17 18  2  0
 18 20  1  0
 18 19  1  0
 20 21  1  0
 20 25  1  0
 22 23  1  0
 22 21  1  0
 23 24  1  0
 24 25  1  0
  1 26  1  6
  2 27  1  0
  2 28  1  0
  3 29  1  0
  3 30  1  0
  4 31  1  0
  4 32  1  0
  5 33  1  0
  5 34  1  0
  6 35  1  1
  8 36  1  0
 10 37  1  0
 12 38  1  0
 12 39  1  0
 13 40  1  0
 13 41  1  0
 14 42  1  0
 16 43  1  0
 21 44  1  0
 21 45  1  0
 22 46  1  0
 22 47  1  0
 23 48  1  0
 24 49  1  0
 24 50  1  0
 25 51  1  0
 25 52  1  0
M  ISO  8  26  13  27  13  28  13  29  13  30  13  31  13  32  13  33  13
M  ISO  8  34  13  35  13  36  14  37  14  38   8  39   8  40   8  41   8
M  ISO  8  42  14  43  14  44  13  45  13  46  13  47  13  48   5  49  13
M  ISO  3  50  13  51  13  52  13
M  END
>  <minimizedAffinity>  (1) 
-4.86068773

>  <minimizedRMSD>  (1) 
1.86865938

$$$$
