
     RDKit          3D

 32 34  0  0  1  0  0  0  0  0999 V2000
   36.4790   21.3490   33.0690 C   0  0  2  0  0  0  0  0  0  0  0  0
   36.1580   19.8550   32.9750 C   0  0  0  0  0  0  0  0  0  0  0  0
   34.8800   19.9250   32.1280 C   0  0  0  0  0  0  0  0  0  0  0  0
   34.8450   21.3430   31.5420 C   0  0  0  0  0  0  0  0  0  0  0  0
   36.3400   21.6920   31.6220 C   0  0  1  0  0  0  0  0  0  0  0  0
   36.5940   23.0830   31.3390 N   0  0  0  0  0  0  0  0  0  0  0  0
   37.6810   23.6970   30.8910 N   0  0  0  0  0  0  0  0  0  0  0  0
   37.4140   25.0200   30.7910 C   0  0  0  0  0  0  0  0  0  0  0  0
   36.0920   25.2170   31.2000 C   0  0  0  0  0  0  0  0  0  0  0  0
   35.5990   23.9550   31.5450 C   0  0  0  0  0  0  0  0  0  0  0  0
   37.7700   21.6340   33.6610 C   0  0  0  0  0  0  0  0  0  0  0  0
   38.8030   21.0930   33.1450 O   0  0  0  0  0  0  0  0  0  0  0  0
   38.2640   24.6920   35.6010 C   0  0  0  0  0  0  0  0  0  0  0  0
   38.2280   23.7940   34.5230 C   0  0  0  0  0  0  0  0  0  0  0  0
   37.7880   22.5230   34.8040 C   0  0  0  0  0  0  0  0  0  0  0  0
   37.4180   22.2000   36.0730 N   0  0  0  0  0  0  0  0  0  0  0  0
   37.4590   23.0670   37.0830 C   0  0  0  0  0  0  0  0  0  0  0  0
   37.8870   24.3310   36.8540 N   0  0  0  0  0  0  0  0  0  0  0  0
   35.8426   21.9432   33.7412 H   0  0  0  0  0  0  0  0  0  0  0  0
   36.9569   19.2945   32.4674 H   0  0  0  0  0  0  0  0  0  0  0  0
   36.0534   19.3364   33.9394 H   0  0  0  0  0  0  0  0  0  0  0  0
   34.9134   19.1778   31.3214 H   0  0  0  0  0  0  0  0  0  0  0  0
   33.9835   19.7126   32.7289 H   0  0  0  0  0  0  0  0  0  0  0  0
   34.2323   22.0233   32.1518 H   0  0  0  0  0  0  0  0  0  0  0  0
   34.4002   21.4227   30.5391 H   0  0  0  0  0  0  0  0  0  0  0  0
   37.0260   21.1966   30.9192 H   0  0  0  0  0  0  0  0  0  0  0  0
   38.1112   25.7993   30.4496 H   0  0  0  0  0  0  0  0  0  0  0  0
   35.5488   26.1726   31.2420 H   0  0  0  0  0  0  0  0  0  0  0  0
   34.5891   23.7233   31.9142 H   0  0  0  0  0  0  0  0  0  0  0  0
   38.6089   25.7216   35.4248 H   0  0  0  0  0  0  0  0  0  0  0  0
   38.5350   24.0912   33.5094 H   0  0  0  0  0  0  0  0  0  0  0  0
   37.1485   22.7596   38.0925 H   0  0  0  0  0  0  0  0  0  0  0  0
  1 11  1  0
  2  1  1  0
  3  2  1  0
  4  5  1  0
  4  3  1  0
  5  1  1  0
  6 10  1  0
  6  5  1  0
  7  6  1  0
  8  7  2  0
  8  9  1  0
  9 10  2  0
 11 15  1  0
 12 11  2  0
 13 18  2  0
 14 15  2  0
 14 13  1  0
 15 16  1  0
 16 17  2  0
 18 17  1  0
  1 19  1  1
  2 20  1  0
  2 21  1  0
  3 22  1  0
  3 23  1  0
  4 24  1  0
  4 25  1  0
  5 26  1  6
  8 27  1  0
  9 28  1  0
 10 29  1  0
 13 30  1  0
 14 31  1  0
 17 32  1  0
M  ISO  8  19  13  20  13  21  13  22  13  23  13  24  13  25  13  26  13
M  ISO  6  27  14  28  14  29  14  30  14  31  14  32  14
M  END
>  <minimizedAffinity>  (1) 
-4.357728

>  <minimizedRMSD>  (1) 
3.50038314

$$$$
