
     RDKit          3D

 39 42  0  0  1  0  0  0  0  0999 V2000
   37.5470   22.6060   35.0010 C   0  0  2  0  0  0  0  0  0  0  0  0
   36.8980   21.7220   36.0830 C   0  0  0  0  0  0  0  0  0  0  0  0
   35.9470   20.9040   35.2220 C   0  0  0  0  0  0  0  0  0  0  0  0
   36.4200   21.0770   33.7940 C   0  0  0  0  0  0  0  0  0  0  0  0
   37.8670   21.5710   34.0240 C   0  0  1  0  0  0  0  0  0  0  0  0
   38.2900   21.9810   32.7180 N   0  0  0  0  0  0  0  0  0  0  0  0
   39.1710   21.2430   32.0110 C   0  0  0  0  0  0  0  0  0  0  0  0
   39.3550   21.8910   30.8470 N   0  0  0  0  0  0  0  0  0  0  0  0
   38.6000   23.0160   30.8330 C   0  0  0  0  0  0  0  0  0  0  0  0
   38.4720   23.9720   29.8640 C   0  0  0  0  0  0  0  0  0  0  0  0
   39.0900   23.9320   28.7630 O   0  0  0  0  0  0  0  0  0  0  0  0
   37.6270   24.9820   30.1610 N   0  0  0  0  0  0  0  0  0  0  0  0
   36.9520   25.0480   31.3370 C   0  0  0  0  0  0  0  0  0  0  0  0
   36.0590   26.1090   31.6610 N   0  0  0  0  0  0  0  0  0  0  0  0
   37.1200   24.0790   32.2500 N   0  0  0  0  0  0  0  0  0  0  0  0
   37.9390   23.0500   32.0210 C   0  0  0  0  0  0  0  0  0  0  0  0
   38.6420   23.3880   35.5540 C   0  0  0  0  0  0  0  0  0  0  0  0
   38.4750   24.6290   35.7270 O   0  0  0  0  0  0  0  0  0  0  0  0
   41.1850   21.6910   37.5710 C   0  0  0  0  0  0  0  0  0  0  0  0
   40.0140   22.3950   37.2040 C   0  0  0  0  0  0  0  0  0  0  0  0
   39.8580   22.6640   35.8690 C   0  0  0  0  0  0  0  0  0  0  0  0
   40.8000   22.2550   34.9800 N   0  0  0  0  0  0  0  0  0  0  0  0
   41.8950   21.5930   35.3430 C   0  0  0  0  0  0  0  0  0  0  0  0
   42.0900   21.3080   36.6520 N   0  0  0  0  0  0  0  0  0  0  0  0
   36.9500   23.4143   34.5536 H   0  0  0  0  0  0  0  0  0  0  0  0
   37.6393   21.0863   36.5892 H   0  0  0  0  0  0  0  0  0  0  0  0
   36.4194   22.2736   36.9056 H   0  0  0  0  0  0  0  0  0  0  0  0
   35.9863   19.8435   35.5114 H   0  0  0  0  0  0  0  0  0  0  0  0
   34.9060   21.2380   35.3440 H   0  0  0  0  0  0  0  0  0  0  0  0
   35.8181   21.8243   33.2562 H   0  0  0  0  0  0  0  0  0  0  0  0
   36.3418   20.1703   33.1761 H   0  0  0  0  0  0  0  0  0  0  0  0
   38.6814   20.9307   34.3939 H   0  0  0  0  0  0  0  0  0  0  0  0
   39.6439   20.3004   32.3239 H   0  0  0  0  0  0  0  0  0  0  0  0
   37.4890   25.7318   29.4684 H   0  0  0  0  0  0  0  0  0  0  0  0
   35.5707   26.1123   32.5679 H   0  0  0  0  0  0  0  0  0  0  0  0
   35.9014   26.8730   30.9884 H   0  0  0  0  0  0  0  0  0  0  0  0
   41.3593   21.4516   38.6304 H   0  0  0  0  0  0  0  0  0  0  0  0
   39.2690   22.7095   37.9497 H   0  0  0  0  0  0  0  0  0  0  0  0
   42.6328   21.2810   34.5891 H   0  0  0  0  0  0  0  0  0  0  0  0
  1 17  1  0
  1  2  1  0
  3  2  1  0
  4  5  1  0
  4  3  1  0
  5  1  1  0
  6  5  1  0
  7  6  1  0
  8  7  2  0
  9  8  1  0
  9 16  2  0
 10 12  1  0
 10  9  1  0
 11 10  2  0
 12 13  1  0
 13 14  1  0
 13 15  2  0
 16 15  1  0
 16  6  1  0
 17 18  2  0
 17 21  1  0
 20 19  2  0
 21 20  1  0
 22 23  1  0
 22 21  2  0
 23 24  2  0
 24 19  1  0
  1 25  1  6
  2 26  1  0
  2 27  1  0
  3 28  1  0
  3 29  1  0
  4 30  1  0
  4 31  1  0
  5 32  1  1
  7 33  1  0
 12 34  1  0
 14 35  1  0
 14 36  1  0
 19 37  1  0
 20 38  1  0
 23 39  1  0
M  ISO  8  25  13  26  13  27  13  28  13  29  13  30  13  31  13  32  13
M  ISO  5  33  14  34   9  37  14  38  14  39  14
M  END
>  <minimizedAffinity>  (1) 
-4.69172525

>  <minimizedRMSD>  (1) 
0.254133731

$$$$
