
     RDKit          3D

 34 36  0  0  1  0  0  0  0  0999 V2000
   37.7300   23.5020   34.6280 C   0  0  2  0  0  0  0  0  0  0  0  0
   37.8580   21.9750   34.6460 C   0  0  0  0  0  0  0  0  0  0  0  0
   37.2000   21.6490   33.3190 C   0  0  0  0  0  0  0  0  0  0  0  0
   37.1810   22.9380   32.5220 C   0  0  0  0  0  0  0  0  0  0  0  0
   38.2700   23.7640   33.2580 C   0  0  1  0  0  0  0  0  0  0  0  0
   38.1750   25.1840   32.8310 C   0  0  0  0  0  0  0  0  0  0  0  0
   39.1880   26.0670   32.5390 C   0  0  0  0  0  0  0  0  0  0  0  0
   38.9110   27.3550   32.1570 C   0  0  0  0  0  0  0  0  0  0  0  0
   37.6040   27.7940   32.0560 C   0  0  0  0  0  0  0  0  0  0  0  0
   36.6140   26.8680   32.3600 C   0  0  0  0  0  0  0  0  0  0  0  0
   36.8980   25.6020   32.7360 N   0  0  0  0  0  0  0  0  0  0  0  0
   38.4380   24.1660   35.7160 C   0  0  0  0  0  0  0  0  0  0  0  0
   37.8910   25.1650   36.2680 O   0  0  0  0  0  0  0  0  0  0  0  0
   40.9170   22.2150   37.5910 C   0  0  0  0  0  0  0  0  0  0  0  0
   39.6900   22.7900   37.1740 C   0  0  0  0  0  0  0  0  0  0  0  0
   39.7260   23.6190   36.0790 C   0  0  0  0  0  0  0  0  0  0  0  0
   40.9090   23.8450   35.4560 N   0  0  0  0  0  0  0  0  0  0  0  0
   42.0600   23.3070   35.8460 C   0  0  0  0  0  0  0  0  0  0  0  0
   42.0640   22.4790   36.9290 N   0  0  0  0  0  0  0  0  0  0  0  0
   36.7189   23.8997   34.7998 H   0  0  0  0  0  0  0  0  0  0  0  0
   38.9093   21.6523   34.6723 H   0  0  0  0  0  0  0  0  0  0  0  0
   37.4132   21.4797   35.5217 H   0  0  0  0  0  0  0  0  0  0  0  0
   37.7792   20.8807   32.7859 H   0  0  0  0  0  0  0  0  0  0  0  0
   36.1832   21.2553   33.4644 H   0  0  0  0  0  0  0  0  0  0  0  0
   36.1984   23.4296   32.5741 H   0  0  0  0  0  0  0  0  0  0  0  0
   37.3653   22.8059   31.4456 H   0  0  0  0  0  0  0  0  0  0  0  0
   39.3347   23.5292   33.1120 H   0  0  0  0  0  0  0  0  0  0  0  0
   40.2344   25.7360   32.6127 H   0  0  0  0  0  0  0  0  0  0  0  0
   39.7367   28.0451   31.9289 H   0  0  0  0  0  0  0  0  0  0  0  0
   37.3607   28.8225   31.7510 H   0  0  0  0  0  0  0  0  0  0  0  0
   35.5605   27.1770   32.2921 H   0  0  0  0  0  0  0  0  0  0  0  0
   40.9349   21.5460   38.4640 H   0  0  0  0  0  0  0  0  0  0  0  0
   38.7493   22.5813   37.7046 H   0  0  0  0  0  0  0  0  0  0  0  0
   42.9923   23.5258   35.3048 H   0  0  0  0  0  0  0  0  0  0  0  0
  1  2  1  0
  1 12  1  0
  3  2  1  0
  4  5  1  0
  4  3  1  0
  5  1  1  0
  6  5  1  0
  7  6  2  0
  8  7  1  0
  9  8  2  0
  9 10  1  0
 10 11  2  0
 11  6  1  0
 12 16  1  0
 12 13  2  0
 15 14  2  0
 16 15  1  0
 17 18  1  0
 17 16  2  0
 18 19  2  0
 19 14  1  0
  1 20  1  6
  2 21  1  0
  2 22  1  0
  3 23  1  0
  3 24  1  0
  4 25  1  0
  4 26  1  0
  5 27  1  1
  7 28  1  0
  8 29  1  0
  9 30  1  0
 10 31  1  0
 14 32  1  0
 15 33  1  0
 18 34  1  0
M  ISO  8  20  13  21  13  22  13  23  13  24  13  25  13  26  13  27  13
M  ISO  7  28  14  29  14  30  14  31  14  32  14  33  14  34  14
M  END
>  <minimizedAffinity>  (1) 
-4.20951891

>  <minimizedRMSD>  (1) 
2.60668635

$$$$
