
     RDKit          3D

 38 40  0  0  1  0  0  0  0  0999 V2000
   37.0240   22.0940   32.7540 C   0  0  2  0  0  0  0  0  0  0  0  0
   37.0350   20.5640   32.6810 C   0  0  0  0  0  0  0  0  0  0  0  0
   35.7330   20.3340   31.9330 C   0  0  0  0  0  0  0  0  0  0  0  0
   35.4220   21.6560   31.2280 C   0  0  0  0  0  0  0  0  0  0  0  0
   36.7840   22.3580   31.3110 C   0  0  1  0  0  0  0  0  0  0  0  0
   36.7760   23.6800   30.8550 N   0  0  0  0  0  0  0  0  0  0  0  0
   37.9790   24.2190   30.3470 C   0  0  0  0  0  0  0  0  0  0  0  0
   38.5450   25.3610   31.1650 C   0  0  0  0  0  0  0  0  0  0  0  0
   37.5090   26.3020   31.2880 O   0  0  0  0  0  0  0  0  0  0  0  0
   36.6240   25.7410   32.2060 C   0  0  0  0  0  0  0  0  0  0  0  0
   35.9740   24.5050   31.6920 C   0  0  0  0  0  0  0  0  0  0  0  0
   38.2350   22.6690   33.3060 C   0  0  0  0  0  0  0  0  0  0  0  0
   39.3010   22.6150   32.6180 O   0  0  0  0  0  0  0  0  0  0  0  0
   38.5190   25.1950   35.9530 C   0  0  0  0  0  0  0  0  0  0  0  0
   38.5960   24.5660   34.6840 C   0  0  0  0  0  0  0  0  0  0  0  0
   38.1340   23.2720   34.6230 C   0  0  0  0  0  0  0  0  0  0  0  0
   37.6390   22.6730   35.7390 N   0  0  0  0  0  0  0  0  0  0  0  0
   37.5760   23.2850   36.9210 C   0  0  0  0  0  0  0  0  0  0  0  0
   38.0210   24.5590   37.0270 N   0  0  0  0  0  0  0  0  0  0  0  0
   36.2932   22.5497   33.4383 H   0  0  0  0  0  0  0  0  0  0  0  0
   37.9022   20.1871   32.1190 H   0  0  0  0  0  0  0  0  0  0  0  0
   37.1121   20.0515   33.6513 H   0  0  0  0  0  0  0  0  0  0  0  0
   35.8512   19.5252   31.1969 H   0  0  0  0  0  0  0  0  0  0  0  0
   34.9213   20.0354   32.6127 H   0  0  0  0  0  0  0  0  0  0  0  0
   34.6422   22.2228   31.7577 H   0  0  0  0  0  0  0  0  0  0  0  0
   35.0303   21.5444   30.2062 H   0  0  0  0  0  0  0  0  0  0  0  0
   37.5969   22.0134   30.6550 H   0  0  0  0  0  0  0  0  0  0  0  0
   38.7291   23.4151   30.3125 H   0  0  0  0  0  0  0  0  0  0  0  0
   37.7455   24.6289   29.3533 H   0  0  0  0  0  0  0  0  0  0  0  0
   38.8553   25.0027   32.1576 H   0  0  0  0  0  0  0  0  0  0  0  0
   39.4317   25.7996   30.6839 H   0  0  0  0  0  0  0  0  0  0  0  0
   37.1782   25.4924   33.1231 H   0  0  0  0  0  0  0  0  0  0  0  0
   35.8314   26.4790   32.3986 H   0  0  0  0  0  0  0  0  0  0  0  0
   35.0862   24.8061   31.1165 H   0  0  0  0  0  0  0  0  0  0  0  0
   35.7497   23.8966   32.5806 H   0  0  0  0  0  0  0  0  0  0  0  0
   38.8760   26.2298   36.0608 H   0  0  0  0  0  0  0  0  0  0  0  0
   39.0011   25.0824   33.8012 H   0  0  0  0  0  0  0  0  0  0  0  0
   37.1680   22.7621   37.7986 H   0  0  0  0  0  0  0  0  0  0  0  0
  1 12  1  0
  2  1  1  0
  3  2  1  0
  4  5  1  0
  4  3  1  0
  5  1  1  0
  6  5  1  0
  6 11  1  0
  7  6  1  0
  7  8  1  0
  8  9  1  0
  9 10  1  0
 11 10  1  0
 12 16  1  0
 13 12  2  0
 14 19  2  0
 15 14  1  0
 16 15  2  0
 16 17  1  0
 17 18  2  0
 18 19  1  0
  1 20  1  1
  2 21  1  0
  2 22  1  0
  3 23  1  0
  3 24  1  0
  4 25  1  0
  4 26  1  0
  5 27  1  6
  7 28  1  0
  7 29  1  0
  8 30  1  0
  8 31  1  0
 10 32  1  0
 10 33  1  0
 11 34  1  0
 11 35  1  0
 14 36  1  0
 15 37  1  0
 18 38  1  0
M  ISO  8  20  13  21  13  22  13  23  13  24  13  25  13  26  13  27  13
M  ISO  8  28  13  29  13  30  13  31  13  32  13  33  13  34  13  35  13
M  ISO  3  36  14  37  14  38  14
M  END
>  <minimizedAffinity>  (1) 
-4.25727987

>  <minimizedRMSD>  (1) 
3.78546166

$$$$
