
     RDKit          3D

 28 30  0  0  0  0  0  0  0  0999 V2000
   39.8870   22.6480   37.4270 C   0  0  0  0  0  0  0  0  0  0  0  0
   39.2010   23.4160   38.3960 C   0  0  0  0  0  0  0  0  0  0  0  0
   37.8350   23.6120   38.2520 C   0  0  0  0  0  0  0  0  0  0  0  0
   37.2150   23.0490   37.1750 N   0  0  0  0  0  0  0  0  0  0  0  0
   37.8970   22.3150   36.2600 C   0  0  0  0  0  0  0  0  0  0  0  0
   39.2140   22.1290   36.4010 N   0  0  0  0  0  0  0  0  0  0  0  0
   37.2420   21.7320   35.1410 N   0  0  0  0  0  0  0  0  0  0  0  0
   37.8710   21.8950   33.9850 C   0  0  0  0  0  0  0  0  0  0  0  0
   37.3150   21.3670   32.8390 C   0  0  0  0  0  0  0  0  0  0  0  0
   36.1260   20.7040   33.0120 C   0  0  0  0  0  0  0  0  0  0  0  0
   35.4210   20.1030   31.9420 N   0  0  0  0  0  0  0  0  0  0  0  0
   35.5020   20.5520   34.2080 N   0  0  0  0  0  0  0  0  0  0  0  0
   36.0780   21.0830   35.3100 C   0  0  0  0  0  0  0  0  0  0  0  0
   35.5980   21.0080   36.4680 O   0  0  0  0  0  0  0  0  0  0  0  0
   37.9410   21.5120   31.5930 N   0  0  0  0  0  0  0  0  0  0  0  0
   38.1110   20.5210   30.7460 N   0  0  0  0  0  0  0  0  0  0  0  0
   38.7240   20.8730   29.6300 C   0  0  0  0  0  0  0  0  0  0  0  0
   38.9900   22.2090   29.7320 C   0  0  0  0  0  0  0  0  0  0  0  0
   38.4850   22.5600   30.9680 C   0  0  0  0  0  0  0  0  0  0  0  0
   40.9701   22.4800   37.5198 H   0  0  0  0  0  0  0  0  0  0  0  0
   39.7413   23.8508   39.2498 H   0  0  0  0  0  0  0  0  0  0  0  0
   37.2681   24.2044   38.9853 H   0  0  0  0  0  0  0  0  0  0  0  0
   38.8232   22.4439   33.9409 H   0  0  0  0  0  0  0  0  0  0  0  0
   34.5314   19.6157   32.1207 H   0  0  0  0  0  0  0  0  0  0  0  0
   35.7976   20.1530   30.9846 H   0  0  0  0  0  0  0  0  0  0  0  0
   38.9722   20.2171   28.7825 H   0  0  0  0  0  0  0  0  0  0  0  0
   39.4915   22.8566   28.9978 H   0  0  0  0  0  0  0  0  0  0  0  0
   38.5255   23.5765   31.3864 H   0  0  0  0  0  0  0  0  0  0  0  0
  1  2  2  0
  3  2  1  0
  4  3  2  0
  5  6  2  0
  5  4  1  0
  6  1  1  0
  7 13  1  0
  7  5  1  0
  8  7  1  0
  9 10  1  0
  9  8  2  0
 10 12  2  0
 11 10  1  0
 12 13  1  0
 13 14  2  0
 15  9  1  0
 16 15  1  0
 17 18  1  0
 17 16  2  0
 18 19  2  0
 19 15  1  0
  1 20  1  0
  2 21  1  0
  3 22  1  0
  8 23  1  0
 11 24  1  0
 11 25  1  0
 17 26  1  0
 18 27  1  0
 19 28  1  0
M  ISO  7  20  14  21  14  22  14  23  14  26  14  27  14  28  14
M  END
>  <minimizedAffinity>  (1) 
-4.96687651

>  <minimizedRMSD>  (1) 
0.324549049

$$$$
