
     RDKit          3D

 33 35  0  0  1  0  0  0  0  0999 V2000
   37.3320   22.2590   34.3240 C   0  0  2  0  0  0  0  0  0  0  0  0
   36.8310   21.1120   35.2060 C   0  0  0  0  0  0  0  0  0  0  0  0
   35.6250   20.6930   34.3840 C   0  0  0  0  0  0  0  0  0  0  0  0
   35.8930   21.1530   32.9660 C   0  0  0  0  0  0  0  0  0  0  0  0
   37.3900   21.5300   33.0200 C   0  0  1  0  0  0  0  0  0  0  0  0
   37.7290   22.3910   31.8600 C   0  0  0  0  0  0  0  0  0  0  0  0
   38.6360   21.7950   30.9980 C   0  0  0  0  0  0  0  0  0  0  0  0
   39.0520   22.4900   29.8600 C   0  0  0  0  0  0  0  0  0  0  0  0
   38.5840   23.7200   29.5980 N   0  0  0  0  0  0  0  0  0  0  0  0
   37.6920   24.2710   30.4710 C   0  0  0  0  0  0  0  0  0  0  0  0
   37.2840   23.6240   31.5610 N   0  0  0  0  0  0  0  0  0  0  0  0
   38.5920   22.8290   34.7680 C   0  0  0  0  0  0  0  0  0  0  0  0
   39.4930   23.0460   33.8870 O   0  0  0  0  0  0  0  0  0  0  0  0
   37.8810   24.3100   38.0460 C   0  0  0  0  0  0  0  0  0  0  0  0
   37.8000   23.9960   36.6680 C   0  0  0  0  0  0  0  0  0  0  0  0
   38.7270   23.1080   36.1830 C   0  0  0  0  0  0  0  0  0  0  0  0
   39.6560   22.5850   37.0250 N   0  0  0  0  0  0  0  0  0  0  0  0
   39.7220   22.8870   38.3190 C   0  0  0  0  0  0  0  0  0  0  0  0
   38.8220   23.7600   38.8300 N   0  0  0  0  0  0  0  0  0  0  0  0
   36.7098   23.1661   34.3138 H   0  0  0  0  0  0  0  0  0  0  0  0
   37.5723   20.3040   35.2930 H   0  0  0  0  0  0  0  0  0  0  0  0
   36.6223   21.3757   36.2533 H   0  0  0  0  0  0  0  0  0  0  0  0
   35.5059   19.5999   34.4132 H   0  0  0  0  0  0  0  0  0  0  0  0
   34.6994   21.1372   34.7790 H   0  0  0  0  0  0  0  0  0  0  0  0
   35.2722   22.0229   32.7053 H   0  0  0  0  0  0  0  0  0  0  0  0
   35.6567   20.3949   32.2048 H   0  0  0  0  0  0  0  0  0  0  0  0
   38.1451   20.7319   32.9662 H   0  0  0  0  0  0  0  0  0  0  0  0
   39.0235   20.7870   31.2075 H   0  0  0  0  0  0  0  0  0  0  0  0
   39.7714   22.0237   29.1708 H   0  0  0  0  0  0  0  0  0  0  0  0
   37.2987   25.2782   30.2687 H   0  0  0  0  0  0  0  0  0  0  0  0
   37.1602   25.0172   38.4822 H   0  0  0  0  0  0  0  0  0  0  0  0
   37.0322   24.4416   36.0184 H   0  0  0  0  0  0  0  0  0  0  0  0
   40.4928   22.4362   38.9613 H   0  0  0  0  0  0  0  0  0  0  0  0
  1 12  1  0
  1  2  1  0
  3  2  1  0
  4  5  1  0
  4  3  1  0
  5  1  1  0
  6  5  1  0
  7  6  2  0
  8  7  1  0
  9  8  2  0
  9 10  1  0
 10 11  2  0
 11  6  1  0
 12 16  1  0
 13 12  2  0
 14 19  2  0
 15 14  1  0
 16 15  2  0
 16 17  1  0
 17 18  2  0
 18 19  1  0
  1 20  1  6
  2 21  1  0
  2 22  1  0
  3 23  1  0
  3 24  1  0
  4 25  1  0
  4 26  1  0
  5 27  1  1
  7 28  1  0
  8 29  1  0
 10 30  1  0
 14 31  1  0
 15 32  1  0
 18 33  1  0
M  ISO  8  20  13  21  13  22  13  23  13  24  13  25  13  26  13  27  13
M  ISO  6  28  14  29  14  30  14  31  14  32  14  33  14
M  END
>  <minimizedAffinity>  (1) 
-4.0993371

>  <minimizedRMSD>  (1) 
2.28596807

$$$$
