
     RDKit          3D

 32 34  0  0  1  0  0  0  0  0999 V2000
   37.5200   22.3550   34.7240 C   0  0  2  0  0  0  0  0  0  0  0  0
   36.9700   21.3710   35.7420 C   0  0  0  0  0  0  0  0  0  0  0  0
   35.7330   20.8940   34.9900 C   0  0  0  0  0  0  0  0  0  0  0  0
   35.9820   21.2020   33.5330 C   0  0  0  0  0  0  0  0  0  0  0  0
   37.4860   21.5160   33.4980 C   0  0  1  0  0  0  0  0  0  0  0  0
   37.6850   22.3670   32.3270 C   0  0  0  0  0  0  0  0  0  0  0  0
   37.0600   23.4140   31.7930 C   0  0  0  0  0  0  0  0  0  0  0  0
   37.4850   24.0300   30.6540 C   0  0  0  0  0  0  0  0  0  0  0  0
   38.7110   23.3980   30.0970 C   0  0  0  0  0  0  0  0  0  0  0  0
   39.1000   21.9850   31.2930 S   0  0  0  0  0  0  0  0  0  0  0  0
   38.8200   22.9020   35.0540 C   0  0  0  0  0  0  0  0  0  0  0  0
   39.8140   22.1170   35.1430 O   0  0  0  0  0  0  0  0  0  0  0  0
   39.9740   26.3720   34.6920 C   0  0  0  0  0  0  0  0  0  0  0  0
   39.8580   24.9750   34.5320 C   0  0  0  0  0  0  0  0  0  0  0  0
   38.8870   24.3370   35.2610 C   0  0  0  0  0  0  0  0  0  0  0  0
   38.0930   25.0680   36.0920 N   0  0  0  0  0  0  0  0  0  0  0  0
   38.2120   26.3870   36.2360 C   0  0  0  0  0  0  0  0  0  0  0  0
   39.1640   27.0450   35.5260 N   0  0  0  0  0  0  0  0  0  0  0  0
   36.9461   23.2898   34.6423 H   0  0  0  0  0  0  0  0  0  0  0  0
   37.6731   20.5482   35.9385 H   0  0  0  0  0  0  0  0  0  0  0  0
   36.7776   21.7899   36.7408 H   0  0  0  0  0  0  0  0  0  0  0  0
   35.5933   19.8123   35.1328 H   0  0  0  0  0  0  0  0  0  0  0  0
   34.8237   21.3933   35.3559 H   0  0  0  0  0  0  0  0  0  0  0  0
   35.7444   20.3348   32.8994 H   0  0  0  0  0  0  0  0  0  0  0  0
   35.3586   22.0239   33.1511 H   0  0  0  0  0  0  0  0  0  0  0  0
   38.2072   20.6864   33.4572 H   0  0  0  0  0  0  0  0  0  0  0  0
   36.1597   23.7995   32.2938 H   0  0  0  0  0  0  0  0  0  0  0  0
   36.9797   24.8947   30.1991 H   0  0  0  0  0  0  0  0  0  0  0  0
   39.2666   23.6873   29.1928 H   0  0  0  0  0  0  0  0  0  0  0  0
   40.7408   26.9194   34.1242 H   0  0  0  0  0  0  0  0  0  0  0  0
   40.5194   24.4201   33.8503 H   0  0  0  0  0  0  0  0  0  0  0  0
   37.5482   26.9354   36.9206 H   0  0  0  0  0  0  0  0  0  0  0  0
  1 11  1  0
  1  2  1  0
  3  2  1  0
  4  3  1  0
  5  4  1  0
  5  1  1  0
  6  5  1  0
  7  6  2  0
  8  7  1  0
  9  8  2  0
  9 10  1  0
 10  6  1  0
 11 12  2  0
 11 15  1  0
 13 18  2  0
 14 13  1  0
 14 15  2  0
 15 16  1  0
 16 17  2  0
 18 17  1  0
  1 19  1  6
  2 20  1  0
  2 21  1  0
  3 22  1  0
  3 23  1  0
  4 24  1  0
  4 25  1  0
  5 26  1  1
  7 27  1  0
  8 28  1  0
  9 29  1  0
 13 30  1  0
 14 31  1  0
 17 32  1  0
M  ISO  8  19  13  20  13  21  13  22  13  23  13  24  13  25  13  26  13
M  ISO  6  27  14  28  14  29  14  30  14  31  14  32  14
M  END
>  <minimizedAffinity>  (1) 
-3.86665249

>  <minimizedRMSD>  (1) 
3.02566481

$$$$
