
     RDKit          3D

 31 33  0  0  1  0  0  0  0  0999 V2000
   37.1250   22.6040   34.6780 C   0  0  2  0  0  0  0  0  0  0  0  0
   36.8670   21.4710   35.6640 C   0  0  0  0  0  0  0  0  0  0  0  0
   35.8330   20.6770   34.8640 C   0  0  0  0  0  0  0  0  0  0  0  0
   36.0180   21.0780   33.4170 C   0  0  0  0  0  0  0  0  0  0  0  0
   37.3630   21.8180   33.4410 C   0  0  1  0  0  0  0  0  0  0  0  0
   37.3140   22.6830   32.2550 N   0  0  0  0  0  0  0  0  0  0  0  0
   36.2700   23.3990   31.8050 C   0  0  0  0  0  0  0  0  0  0  0  0
   36.6130   24.0680   30.6860 N   0  0  0  0  0  0  0  0  0  0  0  0
   37.8980   23.7540   30.4480 C   0  0  0  0  0  0  0  0  0  0  0  0
   38.3120   22.9230   31.3930 N   0  0  0  0  0  0  0  0  0  0  0  0
   38.2000   23.4960   35.0620 C   0  0  0  0  0  0  0  0  0  0  0  0
   38.1140   24.7260   34.7590 O   0  0  0  0  0  0  0  0  0  0  0  0
   40.3610   22.5530   37.8760 C   0  0  0  0  0  0  0  0  0  0  0  0
   39.2990   23.1080   37.1320 C   0  0  0  0  0  0  0  0  0  0  0  0
   39.3140   22.9020   35.7770 C   0  0  0  0  0  0  0  0  0  0  0  0
   40.3310   22.1870   35.2240 N   0  0  0  0  0  0  0  0  0  0  0  0
   41.3280   21.6690   35.9380 C   0  0  0  0  0  0  0  0  0  0  0  0
   41.3410   21.8550   37.2800 N   0  0  0  0  0  0  0  0  0  0  0  0
   36.3085   23.3359   34.5901 H   0  0  0  0  0  0  0  0  0  0  0  0
   37.7752   20.8823   35.8605 H   0  0  0  0  0  0  0  0  0  0  0  0
   36.5442   21.7856   36.6674 H   0  0  0  0  0  0  0  0  0  0  0  0
   36.0047   19.5973   34.9851 H   0  0  0  0  0  0  0  0  0  0  0  0
   34.8106   20.8885   35.2103 H   0  0  0  0  0  0  0  0  0  0  0  0
   35.2065   21.7409   33.0823 H   0  0  0  0  0  0  0  0  0  0  0  0
   36.0013   20.2253   32.7222 H   0  0  0  0  0  0  0  0  0  0  0  0
   38.3083   21.2556   33.4322 H   0  0  0  0  0  0  0  0  0  0  0  0
   35.2788   23.4342   32.2808 H   0  0  0  0  0  0  0  0  0  0  0  0
   38.5046   24.1250   29.6087 H   0  0  0  0  0  0  0  0  0  0  0  0
   40.3869   22.6949   38.9665 H   0  0  0  0  0  0  0  0  0  0  0  0
   38.4948   23.6805   37.6174 H   0  0  0  0  0  0  0  0  0  0  0  0
   42.1294   21.0984   35.4458 H   0  0  0  0  0  0  0  0  0  0  0  0
  1 11  1  0
  1  2  1  0
  3  2  1  0
  4  5  1  0
  4  3  1  0
  5  1  1  0
  6  5  1  0
  7  6  1  0
  8  7  2  0
  9  8  1  0
  9 10  2  0
 10  6  1  0
 11 15  1  0
 12 11  2  0
 14 13  2  0
 15 14  1  0
 16 15  2  0
 16 17  1  0
 17 18  2  0
 18 13  1  0
  1 19  1  6
  2 20  1  0
  2 21  1  0
  3 22  1  0
  3 23  1  0
  4 24  1  0
  4 25  1  0
  5 26  1  1
  7 27  1  0
  9 28  1  0
 13 29  1  0
 14 30  1  0
 17 31  1  0
M  ISO  8  19  13  20  13  21  13  22  13  23  13  24  13  25  13  26  13
M  ISO  5  27  14  28  14  29  14  30  14  31  14
M  END
>  <minimizedAffinity>  (1) 
-3.76886058

>  <minimizedRMSD>  (1) 
1.11790991

$$$$
