
     RDKit          3D

 38 40  0  0  1  0  0  0  0  0999 V2000
   37.1870   22.5600   34.7010 C   0  0  2  0  0  0  0  0  0  0  0  0
   36.8710   21.5110   35.7750 C   0  0  0  0  0  0  0  0  0  0  0  0
   35.8650   20.6500   35.0210 C   0  0  0  0  0  0  0  0  0  0  0  0
   36.0140   21.0390   33.5500 C   0  0  0  0  0  0  0  0  0  0  0  0
   37.4370   21.6560   33.5510 C   0  0  1  0  0  0  0  0  0  0  0  0
   37.5650   22.2680   32.2030 C   0  0  0  0  0  0  0  0  0  0  0  0
   36.6650   23.5000   32.0040 C   0  0  0  0  0  0  0  0  0  0  0  0
   37.1130   23.9280   30.6120 C   0  0  0  0  0  0  0  0  0  0  0  0
   38.5500   23.4090   30.4690 C   0  0  0  0  0  0  0  0  0  0  0  0
   38.8850   22.9030   31.8820 C   0  0  0  0  0  0  0  0  0  0  0  0
   38.2840   23.4350   35.0720 C   0  0  0  0  0  0  0  0  0  0  0  0
   38.1690   24.6820   34.8250 O   0  0  0  0  0  0  0  0  0  0  0  0
   40.5750   22.3740   37.7330 C   0  0  0  0  0  0  0  0  0  0  0  0
   39.4720   22.9600   37.0650 C   0  0  0  0  0  0  0  0  0  0  0  0
   39.4360   22.8140   35.7000 C   0  0  0  0  0  0  0  0  0  0  0  0
   40.4260   22.1350   35.0630 N   0  0  0  0  0  0  0  0  0  0  0  0
   41.4600   21.5880   35.7090 C   0  0  0  0  0  0  0  0  0  0  0  0
   41.5320   21.7120   37.0560 N   0  0  0  0  0  0  0  0  0  0  0  0
   36.4065   23.3098   34.5046 H   0  0  0  0  0  0  0  0  0  0  0  0
   37.7653   20.9376   36.0604 H   0  0  0  0  0  0  0  0  0  0  0  0
   36.5055   21.9211   36.7280 H   0  0  0  0  0  0  0  0  0  0  0  0
   36.0915   19.5827   35.1610 H   0  0  0  0  0  0  0  0  0  0  0  0
   34.8388   20.8106   35.3831 H   0  0  0  0  0  0  0  0  0  0  0  0
   35.2545   21.7751   33.2477 H   0  0  0  0  0  0  0  0  0  0  0  0
   35.8811   20.2057   32.8444 H   0  0  0  0  0  0  0  0  0  0  0  0
   38.3646   21.0778   33.6743 H   0  0  0  0  0  0  0  0  0  0  0  0
   37.3373   21.3839   31.5894 H   0  0  0  0  0  0  0  0  0  0  0  0
   35.5977   23.2346   32.0264 H   0  0  0  0  0  0  0  0  0  0  0  0
   36.7578   24.2736   32.7805 H   0  0  0  0  0  0  0  0  0  0  0  0
   36.4642   23.4809   29.8444 H   0  0  0  0  0  0  0  0  0  0  0  0
   37.0571   25.0188   30.4816 H   0  0  0  0  0  0  0  0  0  0  0  0
   38.6026   22.5915   29.7348 H   0  0  0  0  0  0  0  0  0  0  0  0
   39.2512   24.1762   30.1088 H   0  0  0  0  0  0  0  0  0  0  0  0
   39.7073   22.1724   31.8775 H   0  0  0  0  0  0  0  0  0  0  0  0
   39.2369   23.6645   32.5935 H   0  0  0  0  0  0  0  0  0  0  0  0
   40.6512   22.4616   38.8269 H   0  0  0  0  0  0  0  0  0  0  0  0
   38.6862   23.5031   37.6105 H   0  0  0  0  0  0  0  0  0  0  0  0
   42.2406   21.0454   35.1555 H   0  0  0  0  0  0  0  0  0  0  0  0
  1 11  1  0
  1  2  1  0
  3  2  1  0
  4  5  1  0
  4  3  1  0
  5  1  1  0
  6  5  1  0
  7  6  1  0
  8  7  1  0
  9  8  1  0
  9 10  1  0
 10  6  1  0
 11 15  1  0
 12 11  2  0
 14 13  2  0
 15 14  1  0
 16 15  2  0
 16 17  1  0
 17 18  2  0
 18 13  1  0
  1 19  1  6
  2 20  1  0
  2 21  1  0
  3 22  1  0
  3 23  1  0
  4 24  1  0
  4 25  1  0
  5 26  1  1
  6 27  1  0
  7 28  1  0
  7 29  1  0
  8 30  1  0
  8 31  1  0
  9 32  1  0
  9 33  1  0
 10 34  1  0
 10 35  1  0
 13 36  1  0
 14 37  1  0
 17 38  1  0
M  ISO  8  19  13  20  13  21  13  22  13  23  13  24  13  25  13  26  13
M  ISO  8  27  13  28  13  29  13  30  13  31  13  32  13  33  13  34  13
M  ISO  4  35  13  36  14  37  14  38  14
M  END
>  <minimizedAffinity>  (1) 
-3.72734213

>  <minimizedRMSD>  (1) 
0.805725038

$$$$
