
     RDKit          3D

 32 34  0  0  1  0  0  0  0  0999 V2000
   37.4880   22.3530   34.9640 C   0  0  2  0  0  0  0  0  0  0  0  0
   36.7390   21.3170   35.8110 C   0  0  0  0  0  0  0  0  0  0  0  0
   35.7060   20.8630   34.7880 C   0  0  0  0  0  0  0  0  0  0  0  0
   36.2800   21.2480   33.4150 C   0  0  0  0  0  0  0  0  0  0  0  0
   37.7620   21.4950   33.7660 C   0  0  1  0  0  0  0  0  0  0  0  0
   38.4600   22.2010   32.6380 C   0  0  0  0  0  0  0  0  0  0  0  0
   39.6970   21.5060   32.1000 C   0  0  0  0  0  0  0  0  0  0  0  0
   38.4890   21.6400   31.2620 C   0  0  0  0  0  0  0  0  0  0  0  0
   38.6700   22.8940   35.6130 C   0  0  0  0  0  0  0  0  0  0  0  0
   39.4880   22.0660   36.1370 O   0  0  0  0  0  0  0  0  0  0  0  0
   40.1290   26.1750   34.8920 C   0  0  0  0  0  0  0  0  0  0  0  0
   39.9310   24.7730   34.9270 C   0  0  0  0  0  0  0  0  0  0  0  0
   38.8240   24.3370   35.6090 C   0  0  0  0  0  0  0  0  0  0  0  0
   38.0010   25.2400   36.1980 N   0  0  0  0  0  0  0  0  0  0  0  0
   38.1980   26.5540   36.1580 C   0  0  0  0  0  0  0  0  0  0  0  0
   39.2790   27.0260   35.4940 N   0  0  0  0  0  0  0  0  0  0  0  0
   36.9465   23.2865   34.7511 H   0  0  0  0  0  0  0  0  0  0  0  0
   37.3949   20.4924   36.1268 H   0  0  0  0  0  0  0  0  0  0  0  0
   36.3277   21.6937   36.7591 H   0  0  0  0  0  0  0  0  0  0  0  0
   35.5580   19.7748   34.8499 H   0  0  0  0  0  0  0  0  0  0  0  0
   34.7274   21.3333   34.9643 H   0  0  0  0  0  0  0  0  0  0  0  0
   35.8029   22.1568   33.0194 H   0  0  0  0  0  0  0  0  0  0  0  0
   36.1223   20.4913   32.6323 H   0  0  0  0  0  0  0  0  0  0  0  0
   38.4243   20.6343   33.9405 H   0  0  0  0  0  0  0  0  0  0  0  0
   38.1804   23.1868   33.0380 H   0  0  0  0  0  0  0  0  0  0  0  0
   40.5990   22.0899   31.8645 H   0  0  0  0  0  0  0  0  0  0  0  0
   40.3282   20.6683   32.4315 H   0  0  0  0  0  0  0  0  0  0  0  0
   38.4982   22.3186   30.3963 H   0  0  0  0  0  0  0  0  0  0  0  0
   37.8560   20.9313   30.7079 H   0  0  0  0  0  0  0  0  0  0  0  0
   41.0017   26.5789   34.3579 H   0  0  0  0  0  0  0  0  0  0  0  0
   40.6246   24.0747   34.4358 H   0  0  0  0  0  0  0  0  0  0  0  0
   37.4979   27.2427   36.6536 H   0  0  0  0  0  0  0  0  0  0  0  0
  1  9  1  0
  1  2  1  0
  3  2  1  0
  4  5  1  0
  4  3  1  0
  5  1  1  0
  6  5  1  0
  7  6  1  0
  8  7  1  0
  8  6  1  0
  9 10  2  0
 11 12  2  0
 11 16  1  0
 12 13  1  0
 13  9  1  0
 13 14  2  0
 15 14  1  0
 16 15  2  0
  1 17  1  6
  2 18  1  0
  2 19  1  0
  3 20  1  0
  3 21  1  0
  4 22  1  0
  4 23  1  0
  5 24  1  1
  6 25  1  0
  7 26  1  0
  7 27  1  0
  8 28  1  0
  8 29  1  0
 11 30  1  0
 12 31  1  0
 15 32  1  0
M  ISO  8  17  13  18  13  19  13  20  13  21  13  22  13  23  13  24  13
M  ISO  8  25  13  26  13  27  13  28  13  29  13  30  14  31  14  32  14
M  END
>  <minimizedAffinity>  (1) 
-3.52397346

>  <minimizedRMSD>  (1) 
3.20260715

$$$$
