
     RDKit          3D

 28 29  0  0  1  0  0  0  0  0999 V2000
   37.1010   22.3510   34.1640 C   0  0  2  0  0  0  0  0  0  0  0  0
   36.6480   21.4530   35.3220 C   0  0  0  0  0  0  0  0  0  0  0  0
   35.6990   20.5340   34.5600 C   0  0  0  0  0  0  0  0  0  0  0  0
   36.1080   20.6160   33.1020 C   0  0  0  0  0  0  0  0  0  0  0  0
   37.4940   21.2920   33.1930 C   0  0  1  0  0  0  0  0  0  0  0  0
   38.1410   23.2890   34.5330 C   0  0  0  0  0  0  0  0  0  0  0  0
   38.2300   24.3810   33.8860 O   0  0  0  0  0  0  0  0  0  0  0  0
   39.4780   23.0780   37.9440 C   0  0  0  0  0  0  0  0  0  0  0  0
   38.6540   23.4250   36.8440 C   0  0  0  0  0  0  0  0  0  0  0  0
   39.0090   22.9050   35.6260 C   0  0  0  0  0  0  0  0  0  0  0  0
   40.1050   22.1020   35.5270 N   0  0  0  0  0  0  0  0  0  0  0  0
   40.8670   21.7880   36.5740 C   0  0  0  0  0  0  0  0  0  0  0  0
   40.5480   22.2840   37.7970 N   0  0  0  0  0  0  0  0  0  0  0  0
   37.7460   21.8050   31.8250 C   0  0  0  0  0  0  0  0  0  0  0  0
   38.8700   21.9350   31.2390 O   0  0  0  0  0  0  0  0  0  0  0  0
   36.6260   22.1900   31.0970 O   0  0  0  0  0  0  0  0  0  0  0  0
   36.3533   23.0575   33.7743 H   0  0  0  0  0  0  0  0  0  0  0  0
   37.4882   20.8997   35.7670 H   0  0  0  0  0  0  0  0  0  0  0  0
   36.2064   21.9788   36.1814 H   0  0  0  0  0  0  0  0  0  0  0  0
   35.7942   19.5007   34.9250 H   0  0  0  0  0  0  0  0  0  0  0  0
   34.6507   20.8368   34.6993 H   0  0  0  0  0  0  0  0  0  0  0  0
   35.4018   21.2292   32.5230 H   0  0  0  0  0  0  0  0  0  0  0  0
   36.1230   19.6421   32.5908 H   0  0  0  0  0  0  0  0  0  0  0  0
   38.3918   20.7310   33.4917 H   0  0  0  0  0  0  0  0  0  0  0  0
   39.2335   23.4697   38.9424 H   0  0  0  0  0  0  0  0  0  0  0  0
   37.7760   24.0771   36.9614 H   0  0  0  0  0  0  0  0  0  0  0  0
   41.7435   21.1352   36.4491 H   0  0  0  0  0  0  0  0  0  0  0  0
   36.7301   22.5408   30.1771 H   0  0  0  0  0  0  0  0  0  0  0  0
  1  6  1  0
  1  2  1  0
  3  2  1  0
  4  5  1  0
  4  3  1  0
  5  1  1  0
  6 10  1  0
  7  6  2  0
  9  8  2  0
 10  9  1  0
 11 10  2  0
 11 12  1  0
 12 13  2  0
 13  8  1  0
 14  5  1  0
 15 14  2  0
 16 14  1  0
  1 17  1  6
  2 18  1  0
  2 19  1  0
  3 20  1  0
  3 21  1  0
  4 22  1  0
  4 23  1  0
  5 24  1  1
  8 25  1  0
  9 26  1  0
 12 27  1  0
 16 28  1  0
M  ISO  8  17  13  18  13  19  13  20  13  21  13  22  13  23  13  24  13
M  ISO  4  25  14  26  14  27  14  28   3
M  END
>  <minimizedAffinity>  (1) 
-3.53386569

>  <minimizedRMSD>  (1) 
1.3556366

$$$$
