
     RDKit          3D

 46 50  0  0  1  0  0  0  0  0999 V2000
   37.3700   21.5000   32.3280 C   0  0  2  0  0  0  0  0  0  0  0  0
   36.6340   20.2030   31.9410 C   0  0  0  0  0  0  0  0  0  0  0  0
   35.2950   20.8050   31.5080 C   0  0  0  0  0  0  0  0  0  0  0  0
   35.5650   22.2920   31.2490 C   0  0  0  0  0  0  0  0  0  0  0  0
   37.0870   22.2720   31.1090 C   0  0  1  0  0  0  0  0  0  0  0  0
   37.6830   23.5300   30.8420 C   0  0  0  0  0  0  0  0  0  0  0  0
   38.4750   23.8280   29.7210 C   0  0  0  0  0  0  0  0  0  0  0  0
   38.8650   25.0970   29.7960 N   0  0  0  0  0  0  0  0  0  0  0  0
   38.3940   25.7020   30.9000 C   0  0  0  0  0  0  0  0  0  0  0  0
   38.5430   26.9750   31.3690 C   0  0  0  0  0  0  0  0  0  0  0  0
   37.9320   27.3340   32.5640 C   0  0  0  0  0  0  0  0  0  0  0  0
   37.1940   26.3700   33.2240 C   0  0  0  0  0  0  0  0  0  0  0  0
   37.0600   25.0840   32.7250 C   0  0  0  0  0  0  0  0  0  0  0  0
   37.6580   24.7230   31.5510 C   0  0  0  0  0  0  0  0  0  0  0  0
   38.7710   21.2630   32.6370 C   0  0  0  0  0  0  0  0  0  0  0  0
   39.3600   20.2880   32.0750 O   0  0  0  0  0  0  0  0  0  0  0  0
   41.2140   23.6150   34.0310 C   0  0  0  0  0  0  0  0  0  0  0  0
   40.5730   22.7110   33.1460 C   0  0  0  0  0  0  0  0  0  0  0  0
   39.3850   22.1790   33.5760 C   0  0  0  0  0  0  0  0  0  0  0  0
   38.8950   22.5290   34.7850 N   0  0  0  0  0  0  0  0  0  0  0  0
   39.5030   23.3760   35.6060 C   0  0  0  0  0  0  0  0  0  0  0  0
   40.6820   23.9300   35.2260 N   0  0  0  0  0  0  0  0  0  0  0  0
   38.9570   23.7230   36.8740 N   0  0  0  0  0  0  0  0  0  0  0  0
   39.4230   23.0570   37.9390 N   0  0  0  0  0  0  0  0  0  0  0  0
   38.7810   23.5290   39.0470 C   0  0  0  0  0  0  0  0  0  0  0  0
   37.9000   24.5160   38.6010 C   0  0  0  0  0  0  0  0  0  0  0  0
   38.0230   24.6270   37.2150 C   0  0  0  0  0  0  0  0  0  0  0  0
   37.0580   22.0104   33.2511 H   0  0  0  0  0  0  0  0  0  0  0  0
   37.1348   19.6755   31.1158 H   0  0  0  0  0  0  0  0  0  0  0  0
   36.5752   19.4397   32.7309 H   0  0  0  0  0  0  0  0  0  0  0  0
   34.9349   20.3164   30.5906 H   0  0  0  0  0  0  0  0  0  0  0  0
   34.5217   20.6637   32.2775 H   0  0  0  0  0  0  0  0  0  0  0  0
   35.0759   22.6401   30.3272 H   0  0  0  0  0  0  0  0  0  0  0  0
   35.1826   22.9717   32.0247 H   0  0  0  0  0  0  0  0  0  0  0  0
   37.5509   21.8168   30.2215 H   0  0  0  0  0  0  0  0  0  0  0  0
   38.7308   23.1265   28.9133 H   0  0  0  0  0  0  0  0  0  0  0  0
   39.4571   25.5608   29.0923 H   0  0  0  0  0  0  0  0  0  0  0  0
   39.1401   27.7084   30.8072 H   0  0  0  0  0  0  0  0  0  0  0  0
   38.0323   28.3510   32.9709 H   0  0  0  0  0  0  0  0  0  0  0  0
   36.6994   26.6305   34.1714 H   0  0  0  0  0  0  0  0  0  0  0  0
   36.4648   24.3448   33.2812 H   0  0  0  0  0  0  0  0  0  0  0  0
   42.1701   24.0700   33.7330 H   0  0  0  0  0  0  0  0  0  0  0  0
   41.0052   22.4511   32.1685 H   0  0  0  0  0  0  0  0  0  0  0  0
   38.9284   23.1975   40.0855 H   0  0  0  0  0  0  0  0  0  0  0  0
   37.2228   25.1069   39.2352 H   0  0  0  0  0  0  0  0  0  0  0  0
   37.4743   25.3070   36.5468 H   0  0  0  0  0  0  0  0  0  0  0  0
  1 15  1  0
  2  1  1  0
  3  2  1  0
  4  3  1  0
  5  4  1  0
  5  1  1  0
  6  5  1  0
  6 14  1  0
  7  8  1  0
  7  6  2  0
  8  9  1  0
  9 10  1  0
  9 14  2  0
 10 11  2  0
 11 12  1  0
 13 12  2  0
 14 13  1  0
 15 19  1  0
 16 15  2  0
 17 22  2  0
 18 19  2  0
 18 17  1  0
 19 20  1  0
 20 21  2  0
 21 23  1  0
 22 21  1  0
 23 27  1  0
 23 24  1  0
 24 25  2  0
 26 25  1  0
 27 26  2  0
  1 28  1  1
  2 29  1  0
  2 30  1  0
  3 31  1  0
  3 32  1  0
  4 33  1  0
  4 34  1  0
  5 35  1  6
  7 36  1  0
  8 37  1  0
 10 38  1  0
 11 39  1  0
 12 40  1  0
 13 41  1  0
 17 42  1  0
 18 43  1  0
 25 44  1  0
 26 45  1  0
 27 46  1  0
M  ISO  8  28  13  29  13  30  13  31  13  32  13  33  13  34  13  35  13
M  ISO  8  36  14  37   9  38  14  39  14  40  14  41  14  42  14  43  14
M  ISO  3  44  14  45  14  46  14
M  END
>  <minimizedAffinity>  (1) 
-6.08760118

>  <minimizedRMSD>  (1) 
2.02261949

$$$$
