
     RDKit          3D

 45 49  0  0  1  0  0  0  0  0999 V2000
   37.3610   21.5760   32.3060 C   0  0  2  0  0  0  0  0  0  0  0  0
   36.6150   20.2900   31.9260 C   0  0  0  0  0  0  0  0  0  0  0  0
   35.2820   20.9140   31.5030 C   0  0  0  0  0  0  0  0  0  0  0  0
   35.5680   22.3940   31.2270 C   0  0  0  0  0  0  0  0  0  0  0  0
   37.0890   22.3530   31.0880 C   0  0  1  0  0  0  0  0  0  0  0  0
   37.7030   23.6030   30.8130 C   0  0  0  0  0  0  0  0  0  0  0  0
   38.5050   23.8790   29.6950 C   0  0  0  0  0  0  0  0  0  0  0  0
   38.9090   25.1450   29.7630 N   0  0  0  0  0  0  0  0  0  0  0  0
   38.4370   25.7660   30.8590 C   0  0  0  0  0  0  0  0  0  0  0  0
   38.5960   27.0450   31.3210 C   0  0  0  0  0  0  0  0  0  0  0  0
   37.9800   27.4160   32.5060 C   0  0  0  0  0  0  0  0  0  0  0  0
   37.2260   26.4640   33.1700 C   0  0  0  0  0  0  0  0  0  0  0  0
   37.0830   25.1780   32.6790 C   0  0  0  0  0  0  0  0  0  0  0  0
   37.6850   24.8000   31.5140 C   0  0  0  0  0  0  0  0  0  0  0  0
   38.7640   21.3260   32.6110 C   0  0  0  0  0  0  0  0  0  0  0  0
   39.3400   20.3340   32.0550 O   0  0  0  0  0  0  0  0  0  0  0  0
   41.1840   23.7570   33.9110 C   0  0  0  0  0  0  0  0  0  0  0  0
   40.5270   22.8520   33.0410 C   0  0  0  0  0  0  0  0  0  0  0  0
   39.3990   22.2420   33.5400 C   0  0  0  0  0  0  0  0  0  0  0  0
   38.9880   22.5220   34.7850 N   0  0  0  0  0  0  0  0  0  0  0  0
   39.6130   23.3810   35.6030 C   0  0  0  0  0  0  0  0  0  0  0  0
   40.7320   24.0040   35.1450 N   0  0  0  0  0  0  0  0  0  0  0  0
   39.1100   23.6240   36.9140 N   0  0  0  0  0  0  0  0  0  0  0  0
   39.4390   23.0520   38.0950 C   0  0  0  0  0  0  0  0  0  0  0  0
   38.6930   23.6050   39.0900 N   0  0  0  0  0  0  0  0  0  0  0  0
   37.8940   24.5330   38.4890 C   0  0  0  0  0  0  0  0  0  0  0  0
   38.1620   24.5310   37.1570 N   0  0  0  0  0  0  0  0  0  0  0  0
   37.0507   22.0881   33.2288 H   0  0  0  0  0  0  0  0  0  0  0  0
   37.1041   19.7571   31.0973 H   0  0  0  0  0  0  0  0  0  0  0  0
   36.5542   19.5239   32.7131 H   0  0  0  0  0  0  0  0  0  0  0  0
   34.9032   20.4234   30.5943 H   0  0  0  0  0  0  0  0  0  0  0  0
   34.5182   20.7936   32.2854 H   0  0  0  0  0  0  0  0  0  0  0  0
   35.0832   22.7370   30.3011 H   0  0  0  0  0  0  0  0  0  0  0  0
   35.1929   23.0877   31.9939 H   0  0  0  0  0  0  0  0  0  0  0  0
   37.5500   21.8908   30.2027 H   0  0  0  0  0  0  0  0  0  0  0  0
   38.7577   23.1671   28.8954 H   0  0  0  0  0  0  0  0  0  0  0  0
   39.5116   25.5960   29.0599 H   0  0  0  0  0  0  0  0  0  0  0  0
   39.2047   27.7687   30.7591 H   0  0  0  0  0  0  0  0  0  0  0  0
   38.0870   28.4350   32.9061 H   0  0  0  0  0  0  0  0  0  0  0  0
   36.7277   26.7365   34.1120 H   0  0  0  0  0  0  0  0  0  0  0  0
   36.4751   24.4498   33.2360 H   0  0  0  0  0  0  0  0  0  0  0  0
   42.0916   24.2709   33.5614 H   0  0  0  0  0  0  0  0  0  0  0  0
   40.8973   22.6488   32.0253 H   0  0  0  0  0  0  0  0  0  0  0  0
   40.1927   22.2623   38.2302 H   0  0  0  0  0  0  0  0  0  0  0  0
   37.1580   25.1739   38.9964 H   0  0  0  0  0  0  0  0  0  0  0  0
  1 15  1  0
  2  1  1  0
  3  2  1  0
  4  3  1  0
  5  4  1  0
  5  1  1  0
  6  5  1  0
  6 14  1  0
  7  8  1  0
  7  6  2  0
  8  9  1  0
  9 10  1  0
  9 14  2  0
 10 11  2  0
 11 12  1  0
 13 12  2  0
 14 13  1  0
 15 19  1  0
 16 15  2  0
 17 22  2  0
 18 19  2  0
 18 17  1  0
 19 20  1  0
 20 21  2  0
 21 23  1  0
 22 21  1  0
 23 27  1  0
 23 24  1  0
 24 25  2  0
 26 25  1  0
 27 26  2  0
  1 28  1  1
  2 29  1  0
  2 30  1  0
  3 31  1  0
  3 32  1  0
  4 33  1  0
  4 34  1  0
  5 35  1  6
  7 36  1  0
  8 37  1  0
 10 38  1  0
 11 39  1  0
 12 40  1  0
 13 41  1  0
 17 42  1  0
 18 43  1  0
 24 44  1  0
 26 45  1  0
M  ISO  8  28  13  29  13  30  13  31  13  32  13  33  13  34  13  35  13
M  ISO  8  36  14  37   9  38  14  39  14  40  14  41  14  42  14  43  14
M  ISO  2  44  14  45  14
M  END
>  <minimizedAffinity>  (1) 
-5.9958868

>  <minimizedRMSD>  (1) 
2.06339765

$$$$
