
     RDKit          3D

 46 50  0  0  1  0  0  0  0  0999 V2000
   37.3500   21.4690   32.3220 C   0  0  2  0  0  0  0  0  0  0  0  0
   36.5740   20.2000   31.9490 C   0  0  0  0  0  0  0  0  0  0  0  0
   35.2500   20.8400   31.5290 C   0  0  0  0  0  0  0  0  0  0  0  0
   35.5470   22.3270   31.2920 C   0  0  0  0  0  0  0  0  0  0  0  0
   37.0640   22.2580   31.1140 C   0  0  1  0  0  0  0  0  0  0  0  0
   37.6920   23.5030   30.8440 C   0  0  0  0  0  0  0  0  0  0  0  0
   38.4800   23.7790   29.7100 C   0  0  0  0  0  0  0  0  0  0  0  0
   38.9060   25.0370   29.7830 N   0  0  0  0  0  0  0  0  0  0  0  0
   38.4650   25.6510   30.8930 C   0  0  0  0  0  0  0  0  0  0  0  0
   38.6540   26.9240   31.3670 C   0  0  0  0  0  0  0  0  0  0  0  0
   38.0700   27.2960   32.5630 C   0  0  0  0  0  0  0  0  0  0  0  0
   37.3130   26.3520   33.2330 C   0  0  0  0  0  0  0  0  0  0  0  0
   37.1360   25.0720   32.7340 C   0  0  0  0  0  0  0  0  0  0  0  0
   37.7090   24.6920   31.5520 C   0  0  0  0  0  0  0  0  0  0  0  0
   38.7560   21.1950   32.5960 C   0  0  0  0  0  0  0  0  0  0  0  0
   39.3180   20.2250   31.9870 O   0  0  0  0  0  0  0  0  0  0  0  0
   41.3100   23.3900   34.0450 C   0  0  0  0  0  0  0  0  0  0  0  0
   40.6300   22.5350   33.1380 C   0  0  0  0  0  0  0  0  0  0  0  0
   39.4100   22.0630   33.5550 C   0  0  0  0  0  0  0  0  0  0  0  0
   38.9320   22.4190   34.7620 N   0  0  0  0  0  0  0  0  0  0  0  0
   39.5820   23.2240   35.6060 C   0  0  0  0  0  0  0  0  0  0  0  0
   40.7910   23.7160   35.2360 N   0  0  0  0  0  0  0  0  0  0  0  0
   39.0370   23.5740   36.8720 N   0  0  0  0  0  0  0  0  0  0  0  0
   38.0210   24.3940   37.1830 C   0  0  0  0  0  0  0  0  0  0  0  0
   37.8730   24.4020   38.5730 C   0  0  0  0  0  0  0  0  0  0  0  0
   38.8360   23.5630   39.0540 N   0  0  0  0  0  0  0  0  0  0  0  0
   39.5500   23.0540   38.0090 C   0  0  0  0  0  0  0  0  0  0  0  0
   37.0693   21.9790   33.2554 H   0  0  0  0  0  0  0  0  0  0  0  0
   37.0494   19.6551   31.1201 H   0  0  0  0  0  0  0  0  0  0  0  0
   36.5007   19.4414   32.7422 H   0  0  0  0  0  0  0  0  0  0  0  0
   34.8778   20.3738   30.6048 H   0  0  0  0  0  0  0  0  0  0  0  0
   34.4777   20.7043   32.3004 H   0  0  0  0  0  0  0  0  0  0  0  0
   35.0451   22.7067   30.3898 H   0  0  0  0  0  0  0  0  0  0  0  0
   35.1997   23.0053   32.0853 H   0  0  0  0  0  0  0  0  0  0  0  0
   37.4924   21.7938   30.2134 H   0  0  0  0  0  0  0  0  0  0  0  0
   38.7058   23.0716   28.8984 H   0  0  0  0  0  0  0  0  0  0  0  0
   39.5024   25.4862   29.0735 H   0  0  0  0  0  0  0  0  0  0  0  0
   39.2648   27.6423   30.8004 H   0  0  0  0  0  0  0  0  0  0  0  0
   38.2029   28.3097   32.9689 H   0  0  0  0  0  0  0  0  0  0  0  0
   36.8390   26.6249   34.1874 H   0  0  0  0  0  0  0  0  0  0  0  0
   36.5255   24.3506   33.2969 H   0  0  0  0  0  0  0  0  0  0  0  0
   42.2919   23.7966   33.7612 H   0  0  0  0  0  0  0  0  0  0  0  0
   41.0553   22.2668   32.1596 H   0  0  0  0  0  0  0  0  0  0  0  0
   37.4095   24.9624   36.4668 H   0  0  0  0  0  0  0  0  0  0  0  0
   37.1331   24.9677   39.1583 H   0  0  0  0  0  0  0  0  0  0  0  0
   40.3908   22.3483   38.0791 H   0  0  0  0  0  0  0  0  0  0  0  0
  1 15  1  0
  2  1  1  0
  3  2  1  0
  4  3  1  0
  5  4  1  0
  5  1  1  0
  6  5  1  0
  6 14  1  0
  7  8  1  0
  7  6  2  0
  8  9  1  0
  9 10  1  0
  9 14  2  0
 10 11  2  0
 11 12  1  0
 13 12  2  0
 14 13  1  0
 15 19  1  0
 16 15  2  0
 17 22  2  0
 18 19  2  0
 18 17  1  0
 19 20  1  0
 20 21  2  0
 21 23  1  0
 22 21  1  0
 23 24  1  0
 23 27  1  0
 24 25  2  0
 25 26  1  0
 27 26  2  0
  1 28  1  1
  2 29  1  0
  2 30  1  0
  3 31  1  0
  3 32  1  0
  4 33  1  0
  4 34  1  0
  5 35  1  6
  7 36  1  0
  8 37  1  0
 10 38  1  0
 11 39  1  0
 12 40  1  0
 13 41  1  0
 17 42  1  0
 18 43  1  0
 24 44  1  0
 25 45  1  0
 27 46  1  0
M  ISO  8  28  13  29  13  30  13  31  13  32  13  33  13  34  13  35  13
M  ISO  8  36  14  37   9  38  14  39  14  40  14  41  14  42  14  43  14
M  ISO  3  44  14  45  14  46  14
M  END
>  <minimizedAffinity>  (1) 
-6.01491976

>  <minimizedRMSD>  (1) 
2.07096386

$$$$
