
     RDKit          3D

 38 40  0  0  1  0  0  0  0  0999 V2000
   40.6490   23.1720   36.1500 C   0  0  0  0  0  0  0  0  0  0  0  0
   39.9930   22.6370   37.2690 C   0  0  0  0  0  0  0  0  0  0  0  0
   38.8180   23.2410   37.6750 C   0  0  0  0  0  0  0  0  0  0  0  0
   38.3330   24.3250   36.9900 N   0  0  0  0  0  0  0  0  0  0  0  0
   39.0140   24.7990   35.9140 C   0  0  0  0  0  0  0  0  0  0  0  0
   40.1760   24.2360   35.4770 N   0  0  0  0  0  0  0  0  0  0  0  0
   38.4510   25.9370   35.2460 N   0  0  0  0  0  0  0  0  0  0  0  0
   38.2880   27.2150   35.8950 C   0  0  0  0  0  0  0  0  0  0  0  0
   37.2360   27.8880   35.0480 C   0  0  0  0  0  0  0  0  0  0  0  0
   36.9060   26.9850   33.8970 C   0  0  0  0  0  0  0  0  0  0  0  0
   37.9830   25.9770   33.8900 C   0  0  1  0  0  0  0  0  0  0  0  0
   39.0420   26.1190   32.8540 C   0  0  0  0  0  0  0  0  0  0  0  0
   38.4270   26.4420   31.5190 C   0  0  0  0  0  0  0  0  0  0  0  0
   39.0550   27.6360   30.8410 C   0  0  0  0  0  0  0  0  0  0  0  0
   40.5640   27.5370   30.8090 C   0  0  0  0  0  0  0  0  0  0  0  0
   41.1480   27.0690   32.1040 C   0  0  0  0  0  0  0  0  0  0  0  0
   40.1160   27.1140   33.2150 C   0  0  0  0  0  0  0  0  0  0  0  0
   41.5848   22.7039   35.8106 H   0  0  0  0  0  0  0  0  0  0  0  0
   40.3999   21.7667   37.8048 H   0  0  0  0  0  0  0  0  0  0  0  0
   38.2723   22.8521   38.5473 H   0  0  0  0  0  0  0  0  0  0  0  0
   37.9425   27.0916   36.9320 H   0  0  0  0  0  0  0  0  0  0  0  0
   39.2232   27.7898   35.9663 H   0  0  0  0  0  0  0  0  0  0  0  0
   36.3331   28.0674   35.6501 H   0  0  0  0  0  0  0  0  0  0  0  0
   37.6108   28.8530   34.6759 H   0  0  0  0  0  0  0  0  0  0  0  0
   35.9274   26.5059   34.0482 H   0  0  0  0  0  0  0  0  0  0  0  0
   36.8419   27.5317   32.9446 H   0  0  0  0  0  0  0  0  0  0  0  0
   37.5850   25.0054   33.5619 H   0  0  0  0  0  0  0  0  0  0  0  0
   39.5515   25.1460   32.7935 H   0  0  0  0  0  0  0  0  0  0  0  0
   38.5422   25.5676   30.8616 H   0  0  0  0  0  0  0  0  0  0  0  0
   37.3709   26.6906   31.7003 H   0  0  0  0  0  0  0  0  0  0  0  0
   38.6805   27.6964   29.8085 H   0  0  0  0  0  0  0  0  0  0  0  0
   38.7843   28.5351   31.4141 H   0  0  0  0  0  0  0  0  0  0  0  0
   40.8518   26.8283   30.0185 H   0  0  0  0  0  0  0  0  0  0  0  0
   40.9554   28.5472   30.6183 H   0  0  0  0  0  0  0  0  0  0  0  0
   41.5034   26.0348   31.9852 H   0  0  0  0  0  0  0  0  0  0  0  0
   41.9811   27.7350   32.3731 H   0  0  0  0  0  0  0  0  0  0  0  0
   39.6862   28.1237   33.2917 H   0  0  0  0  0  0  0  0  0  0  0  0
   40.5709   26.8682   34.1859 H   0  0  0  0  0  0  0  0  0  0  0  0
  1  2  2  0
  2  3  1  0
  4  3  2  0
  5  4  1  0
  6  5  2  0
  6  1  1  0
  7  8  1  0
  7  5  1  0
  9  8  1  0
 10  9  1  0
 11 10  1  0
 11  7  1  0
 12 17  1  0
 12 11  1  0
 13 12  1  0
 14 13  1  0
 15 14  1  0
 15 16  1  0
 16 17  1  0
  1 18  1  0
  2 19  1  0
  3 20  1  0
  8 21  1  0
  8 22  1  0
  9 23  1  0
  9 24  1  0
 10 25  1  0
 10 26  1  0
 11 27  1  6
 12 28  1  0
 13 29  1  0
 13 30  1  0
 14 31  1  0
 14 32  1  0
 15 33  1  0
 15 34  1  0
 16 35  1  0
 16 36  1  0
 17 37  1  0
 17 38  1  0
M  ISO  8  18  14  19  14  20  14  21  13  22  13  23  13  24  13  25  13
M  ISO  8  26  13  27  13  28  13  29  13  30  13  31  13  32  13  33  13
M  ISO  5  34  13  35  13  36  13  37  13  38  13
M  END
>  <minimizedAffinity>  (1) 
-4.60893011

>  <minimizedRMSD>  (1) 
2.17301154

$$$$
