
     RDKit          3D

 32 34  0  0  1  0  0  0  0  0999 V2000
   39.9590   23.0010   36.5780 C   0  0  0  0  0  0  0  0  0  0  0  0
   39.3910   22.8100   37.8420 C   0  0  0  0  0  0  0  0  0  0  0  0
   38.4150   23.7060   38.2420 C   0  0  0  0  0  0  0  0  0  0  0  0
   38.0620   24.7150   37.3910 N   0  0  0  0  0  0  0  0  0  0  0  0
   38.6380   24.8640   36.1740 C   0  0  0  0  0  0  0  0  0  0  0  0
   39.5900   24.0060   35.7630 N   0  0  0  0  0  0  0  0  0  0  0  0
   38.1850   25.9560   35.3790 N   0  0  0  0  0  0  0  0  0  0  0  0
   38.3280   27.3330   35.7710 C   0  0  0  0  0  0  0  0  0  0  0  0
   37.3000   28.0390   34.9270 C   0  0  0  0  0  0  0  0  0  0  0  0
   36.6720   27.0390   34.0180 C   0  0  0  0  0  0  0  0  0  0  0  0
   37.5360   25.8370   34.1000 C   0  0  1  0  0  0  0  0  0  0  0  0
   38.3860   25.6020   32.9880 N   0  0  0  0  0  0  0  0  0  0  0  0
   38.9930   24.4290   32.7350 C   0  0  0  0  0  0  0  0  0  0  0  0
   39.8240   24.2340   31.6260 C   0  0  0  0  0  0  0  0  0  0  0  0
   40.0210   25.2920   30.7670 C   0  0  0  0  0  0  0  0  0  0  0  0
   40.7610   25.1850   29.7460 O   0  0  0  0  0  0  0  0  0  0  0  0
   39.4400   26.4720   30.9810 N   0  0  0  0  0  0  0  0  0  0  0  0
   38.6520   26.5790   32.0720 C   0  0  0  0  0  0  0  0  0  0  0  0
   38.0880   27.6930   32.2950 O   0  0  0  0  0  0  0  0  0  0  0  0
   40.7374   22.3025   36.2371 H   0  0  0  0  0  0  0  0  0  0  0  0
   39.7074   21.9809   38.4920 H   0  0  0  0  0  0  0  0  0  0  0  0
   37.9329   23.6078   39.2258 H   0  0  0  0  0  0  0  0  0  0  0  0
   38.1151   27.4624   36.8424 H   0  0  0  0  0  0  0  0  0  0  0  0
   39.3470   27.7201   35.6236 H   0  0  0  0  0  0  0  0  0  0  0  0
   36.5317   28.4869   35.5743 H   0  0  0  0  0  0  0  0  0  0  0  0
   37.7765   28.8376   34.3395 H   0  0  0  0  0  0  0  0  0  0  0  0
   36.6413   27.4215   32.9871 H   0  0  0  0  0  0  0  0  0  0  0  0
   35.6340   26.8178   34.3071 H   0  0  0  0  0  0  0  0  0  0  0  0
   36.9429   24.9128   34.0367 H   0  0  0  0  0  0  0  0  0  0  0  0
   38.8299   23.5897   33.4270 H   0  0  0  0  0  0  0  0  0  0  0  0
   40.3066   23.2621   31.4455 H   0  0  0  0  0  0  0  0  0  0  0  0
   39.5856   27.2670   30.3425 H   0  0  0  0  0  0  0  0  0  0  0  0
  1  2  2  0
  2  3  1  0
  4  3  2  0
  5  4  1  0
  6  5  2  0
  6  1  1  0
  7  8  1  0
  7  5  1  0
  9  8  1  0
 10 11  1  0
 10  9  1  0
 11  7  1  0
 12 11  1  0
 13 12  1  0
 14 13  2  0
 15 17  1  0
 15 14  1  0
 16 15  2  0
 17 18  1  0
 18 19  2  0
 18 12  1  0
  1 20  1  0
  2 21  1  0
  3 22  1  0
  8 23  1  0
  8 24  1  0
  9 25  1  0
  9 26  1  0
 10 27  1  0
 10 28  1  0
 11 29  1  1
 13 30  1  0
 14 31  1  0
 17 32  1  0
M  ISO  8  20  14  21  14  22  14  23  13  24  13  25  13  26  13  27  13
M  ISO  5  28  13  29  13  30  14  31  14  32   9
M  END
>  <minimizedAffinity>  (1) 
-4.53541374

>  <minimizedRMSD>  (1) 
1.43618786

$$$$
