
     RDKit          3D

 33 36  0  0  1  0  0  0  0  0999 V2000
   39.8830   22.9890   36.6600 C   0  0  0  0  0  0  0  0  0  0  0  0
   39.3100   22.7570   37.9170 C   0  0  0  0  0  0  0  0  0  0  0  0
   38.3590   23.6730   38.3610 C   0  0  0  0  0  0  0  0  0  0  0  0
   38.0340   24.7350   37.5680 N   0  0  0  0  0  0  0  0  0  0  0  0
   38.6170   24.9190   36.3520 C   0  0  0  0  0  0  0  0  0  0  0  0
   39.5360   24.0400   35.9160 N   0  0  0  0  0  0  0  0  0  0  0  0
   38.2170   26.0530   35.5920 N   0  0  0  0  0  0  0  0  0  0  0  0
   38.4100   27.4080   36.0510 C   0  0  0  0  0  0  0  0  0  0  0  0
   37.3880   28.1800   35.2750 C   0  0  0  0  0  0  0  0  0  0  0  0
   36.7260   27.2480   34.3080 C   0  0  0  0  0  0  0  0  0  0  0  0
   37.5840   26.0300   34.3000 C   0  0  1  0  0  0  0  0  0  0  0  0
   38.4730   25.9300   33.1880 N   0  0  0  0  0  0  0  0  0  0  0  0
   39.6290   26.6260   33.0650 C   0  0  0  0  0  0  0  0  0  0  0  0
   40.2300   26.2960   31.8930 N   0  0  0  0  0  0  0  0  0  0  0  0
   39.4730   25.3840   31.2430 C   0  0  0  0  0  0  0  0  0  0  0  0
   39.6190   24.7270   30.0360 C   0  0  0  0  0  0  0  0  0  0  0  0
   38.6360   23.8520   29.6860 N   0  0  0  0  0  0  0  0  0  0  0  0
   37.5900   23.6610   30.5010 C   0  0  0  0  0  0  0  0  0  0  0  0
   37.4500   24.2980   31.6690 N   0  0  0  0  0  0  0  0  0  0  0  0
   38.3860   25.1770   32.0760 C   0  0  0  0  0  0  0  0  0  0  0  0
   40.6381   22.2867   36.2770 H   0  0  0  0  0  0  0  0  0  0  0  0
   39.5986   21.8886   38.5274 H   0  0  0  0  0  0  0  0  0  0  0  0
   37.8753   23.5417   39.3402 H   0  0  0  0  0  0  0  0  0  0  0  0
   38.2273   27.4880   37.1328 H   0  0  0  0  0  0  0  0  0  0  0  0
   39.4359   27.7740   35.8972 H   0  0  0  0  0  0  0  0  0  0  0  0
   36.6372   28.5974   35.9621 H   0  0  0  0  0  0  0  0  0  0  0  0
   37.8702   29.0070   34.7332 H   0  0  0  0  0  0  0  0  0  0  0  0
   35.7077   27.0018   34.6434 H   0  0  0  0  0  0  0  0  0  0  0  0
   36.6282   27.6919   33.3063 H   0  0  0  0  0  0  0  0  0  0  0  0
   36.9980   25.1112   34.1506 H   0  0  0  0  0  0  0  0  0  0  0  0
   40.0195   27.3457   33.7996 H   0  0  0  0  0  0  0  0  0  0  0  0
   40.4898   24.9029   29.3874 H   0  0  0  0  0  0  0  0  0  0  0  0
   36.8104   22.9476   30.1957 H   0  0  0  0  0  0  0  0  0  0  0  0
  1  2  2  0
  2  3  1  0
  4  3  2  0
  5  4  1  0
  6  5  2  0
  6  1  1  0
  7  8  1  0
  7  5  1  0
  9  8  1  0
 10  9  1  0
 11 10  1  0
 11  7  1  0
 12 11  1  0
 13 12  1  0
 14 13  2  0
 15 14  1  0
 15 20  2  0
 16 15  1  0
 17 16  2  0
 17 18  1  0
 18 19  2  0
 19 20  1  0
 20 12  1  0
  1 21  1  0
  2 22  1  0
  3 23  1  0
  8 24  1  0
  8 25  1  0
  9 26  1  0
  9 27  1  0
 10 28  1  0
 10 29  1  0
 11 30  1  1
 13 31  1  0
 16 32  1  0
 18 33  1  0
M  ISO  8  21  14  22  14  23  14  24  13  25  13  26  13  27  13  28  13
M  ISO  5  29  13  30  13  31  14  32  14  33  14
M  END
>  <minimizedAffinity>  (1) 
-4.81485081

>  <minimizedRMSD>  (1) 
1.41093946

$$$$
