
     RDKit          3D

 30 32  0  0  1  0  0  0  0  0999 V2000
   40.2360   23.5080   35.5110 C   0  0  0  0  0  0  0  0  0  0  0  0
   39.4300   22.7920   36.4040 C   0  0  0  0  0  0  0  0  0  0  0  0
   38.1960   23.3300   36.7200 C   0  0  0  0  0  0  0  0  0  0  0  0
   37.8010   24.5210   36.1650 N   0  0  0  0  0  0  0  0  0  0  0  0
   38.6170   25.1770   35.3050 C   0  0  0  0  0  0  0  0  0  0  0  0
   39.8370   24.6640   34.9790 N   0  0  0  0  0  0  0  0  0  0  0  0
   38.1680   26.4050   34.7520 N   0  0  0  0  0  0  0  0  0  0  0  0
   37.8080   27.5350   35.5490 C   0  0  0  0  0  0  0  0  0  0  0  0
   36.8660   28.3200   34.6810 C   0  0  0  0  0  0  0  0  0  0  0  0
   36.7840   27.6220   33.3540 C   0  0  0  0  0  0  0  0  0  0  0  0
   37.9960   26.7440   33.3720 C   0  0  2  0  0  0  0  0  0  0  0  0
   37.7610   25.6280   32.4570 C   0  0  0  0  0  0  0  0  0  0  0  0
   38.7430   25.1720   31.6050 C   0  0  0  0  0  0  0  0  0  0  0  0
   38.5600   24.1220   30.7250 C   0  0  0  0  0  0  0  0  0  0  0  0
   37.3480   23.5010   30.6950 N   0  0  0  0  0  0  0  0  0  0  0  0
   36.3710   23.9430   31.5300 C   0  0  0  0  0  0  0  0  0  0  0  0
   36.5740   24.9670   32.3760 N   0  0  0  0  0  0  0  0  0  0  0  0
   41.2240   23.1067   35.2411 H   0  0  0  0  0  0  0  0  0  0  0  0
   39.7654   21.8383   36.8375 H   0  0  0  0  0  0  0  0  0  0  0  0
   37.5296   22.8020   37.4179 H   0  0  0  0  0  0  0  0  0  0  0  0
   37.3084   27.2147   36.4752 H   0  0  0  0  0  0  0  0  0  0  0  0
   38.6830   28.1253   35.8587 H   0  0  0  0  0  0  0  0  0  0  0  0
   35.8703   28.3584   35.1469 H   0  0  0  0  0  0  0  0  0  0  0  0
   37.2264   29.3515   34.5536 H   0  0  0  0  0  0  0  0  0  0  0  0
   36.8273   28.3418   32.5233 H   0  0  0  0  0  0  0  0  0  0  0  0
   35.8447   27.0685   33.2079 H   0  0  0  0  0  0  0  0  0  0  0  0
   38.9311   27.1987   33.0132 H   0  0  0  0  0  0  0  0  0  0  0  0
   39.7238   25.6695   31.6262 H   0  0  0  0  0  0  0  0  0  0  0  0
   39.3755   23.7949   30.0632 H   0  0  0  0  0  0  0  0  0  0  0  0
   35.3881   23.4494   31.5128 H   0  0  0  0  0  0  0  0  0  0  0  0
  1  2  2  0
  2  3  1  0
  4  3  2  0
  5  4  1  0
  6  5  2  0
  6  1  1  0
  7  5  1  0
  7  8  1  0
  9  8  1  0
 10 11  1  0
 10  9  1  0
 11  7  1  0
 12 11  1  0
 13 12  2  0
 14 13  1  0
 15 14  2  0
 15 16  1  0
 16 17  2  0
 17 12  1  0
  1 18  1  0
  2 19  1  0
  3 20  1  0
  8 21  1  0
  8 22  1  0
  9 23  1  0
  9 24  1  0
 10 25  1  0
 10 26  1  0
 11 27  1  6
 13 28  1  0
 14 29  1  0
 16 30  1  0
M  ISO  8  18  14  19  14  20  14  21  13  22  13  23  13  24  13  25  13
M  ISO  5  26  13  27  13  28  14  29  14  30  14
M  END
>  <minimizedAffinity>  (1) 
-4.19784737

>  <minimizedRMSD>  (1) 
2.50674081

$$$$
