
     RDKit          3D

 37 39  0  0  1  0  0  0  0  0999 V2000
   39.6140   22.8000   37.4060 C   0  0  0  0  0  0  0  0  0  0  0  0
   38.6440   23.2160   38.3230 C   0  0  0  0  0  0  0  0  0  0  0  0
   37.9130   24.3400   37.9910 C   0  0  0  0  0  0  0  0  0  0  0  0
   38.1320   25.0100   36.8160 N   0  0  0  0  0  0  0  0  0  0  0  0
   39.0900   24.5610   35.9610 C   0  0  0  0  0  0  0  0  0  0  0  0
   39.8300   23.4530   36.2580 N   0  0  0  0  0  0  0  0  0  0  0  0
   39.2950   25.2680   34.7520 N   0  0  0  0  0  0  0  0  0  0  0  0
   39.6890   26.6390   34.7020 C   0  0  0  0  0  0  0  0  0  0  0  0
   39.2410   27.1280   33.3600 C   0  0  0  0  0  0  0  0  0  0  0  0
   38.6210   25.9580   32.6410 C   0  0  0  0  0  0  0  0  0  0  0  0
   39.1600   24.7800   33.4130 C   0  0  2  0  0  0  0  0  0  0  0  0
   38.2670   23.6900   33.2530 N   0  0  0  0  0  0  0  0  0  0  0  0
   38.8920   22.4390   32.9770 C   0  0  0  0  0  0  0  0  0  0  0  0
   37.9920   21.2650   32.9230 C   0  0  0  0  0  0  0  0  0  0  0  0
   36.5490   21.5660   32.6640 C   0  0  0  0  0  0  0  0  0  0  0  0
   36.5170   22.7930   31.7710 C   0  0  0  0  0  0  0  0  0  0  0  0
   37.0380   23.9370   32.5890 C   0  0  0  0  0  0  0  0  0  0  0  0
   40.2176   21.9094   37.6350 H   0  0  0  0  0  0  0  0  0  0  0  0
   38.4712   22.6738   39.2644 H   0  0  0  0  0  0  0  0  0  0  0  0
   37.1399   24.7044   38.6835 H   0  0  0  0  0  0  0  0  0  0  0  0
   39.1990   27.2106   35.5040 H   0  0  0  0  0  0  0  0  0  0  0  0
   40.7732   26.7603   34.8426 H   0  0  0  0  0  0  0  0  0  0  0  0
   38.4996   27.9317   33.4804 H   0  0  0  0  0  0  0  0  0  0  0  0
   40.0904   27.5306   32.7887 H   0  0  0  0  0  0  0  0  0  0  0  0
   37.5228   25.9972   32.6905 H   0  0  0  0  0  0  0  0  0  0  0  0
   38.8592   25.9258   31.5676 H   0  0  0  0  0  0  0  0  0  0  0  0
   40.1331   24.3948   33.0744 H   0  0  0  0  0  0  0  0  0  0  0  0
   39.3967   22.5219   32.0031 H   0  0  0  0  0  0  0  0  0  0  0  0
   39.5729   22.2537   33.8208 H   0  0  0  0  0  0  0  0  0  0  0  0
   38.3485   20.6023   32.1207 H   0  0  0  0  0  0  0  0  0  0  0  0
   38.0291   20.8119   33.9247 H   0  0  0  0  0  0  0  0  0  0  0  0
   36.0685   20.7155   32.1582 H   0  0  0  0  0  0  0  0  0  0  0  0
   36.0054   21.7441   33.6036 H   0  0  0  0  0  0  0  0  0  0  0  0
   35.4864   22.9982   31.4459 H   0  0  0  0  0  0  0  0  0  0  0  0
   37.1285   22.6414   30.8693 H   0  0  0  0  0  0  0  0  0  0  0  0
   37.1792   24.7984   31.9196 H   0  0  0  0  0  0  0  0  0  0  0  0
   36.2928   24.1141   33.3785 H   0  0  0  0  0  0  0  0  0  0  0  0
  1  2  2  0
  3  2  1  0
  4  3  2  0
  5  6  2  0
  5  4  1  0
  6  1  1  0
  7  5  1  0
  8  7  1  0
  9  8  1  0
 10  9  1  0
 10 11  1  0
 11  7  1  0
 12 11  1  0
 13 12  1  0
 14 13  1  0
 15 14  1  0
 16 17  1  0
 16 15  1  0
 17 12  1  0
  1 18  1  0
  2 19  1  0
  3 20  1  0
  8 21  1  0
  8 22  1  0
  9 23  1  0
  9 24  1  0
 10 25  1  0
 10 26  1  0
 11 27  1  6
 13 28  1  0
 13 29  1  0
 14 30  1  0
 14 31  1  0
 15 32  1  0
 15 33  1  0
 16 34  1  0
 16 35  1  0
 17 36  1  0
 17 37  1  0
M  ISO  8  18  14  19  14  20  14  21  13  22  13  23  13  24  13  25  13
M  ISO  8  26  13  27  13  28  13  29  13  30  13  31  13  32  13  33  13
M  ISO  4  34  13  35  13  36  13  37  13
M  END
>  <minimizedAffinity>  (1) 
-4.38801527

>  <minimizedRMSD>  (1) 
1.29944241

$$$$
