
     RDKit          3D

 29 31  0  0  1  0  0  0  0  0999 V2000
   40.4850   23.0990   36.4630 C   0  0  0  0  0  0  0  0  0  0  0  0
   39.7770   22.6560   37.5850 C   0  0  0  0  0  0  0  0  0  0  0  0
   38.6120   23.3440   37.9270 C   0  0  0  0  0  0  0  0  0  0  0  0
   38.2070   24.4110   37.1630 N   0  0  0  0  0  0  0  0  0  0  0  0
   38.9440   24.7880   36.0840 C   0  0  0  0  0  0  0  0  0  0  0  0
   40.0860   24.1450   35.7150 N   0  0  0  0  0  0  0  0  0  0  0  0
   38.4580   25.9130   35.3320 N   0  0  0  0  0  0  0  0  0  0  0  0
   38.3100   27.2290   35.9140 C   0  0  0  0  0  0  0  0  0  0  0  0
   37.3190   27.8780   35.0010 C   0  0  0  0  0  0  0  0  0  0  0  0
   36.9840   26.9190   33.8850 C   0  0  0  0  0  0  0  0  0  0  0  0
   38.0530   25.8990   33.9230 C   0  0  1  0  0  0  0  0  0  0  0  0
   39.1960   26.0260   32.9990 C   0  0  0  0  0  0  0  0  0  0  0  0
   40.2500   27.0620   33.0910 C   0  0  0  0  0  0  0  0  0  0  0  0
   39.1820   27.1390   32.0000 C   0  0  0  0  0  0  0  0  0  0  0  0
   41.4071   22.5703   36.1797 H   0  0  0  0  0  0  0  0  0  0  0  0
   40.1258   21.7965   38.1763 H   0  0  0  0  0  0  0  0  0  0  0  0
   38.0223   23.0339   38.8023 H   0  0  0  0  0  0  0  0  0  0  0  0
   37.9227   27.1677   36.9418 H   0  0  0  0  0  0  0  0  0  0  0  0
   39.2579   27.7812   35.9955 H   0  0  0  0  0  0  0  0  0  0  0  0
   36.4059   28.1252   35.5624 H   0  0  0  0  0  0  0  0  0  0  0  0
   37.7451   28.8023   34.5838 H   0  0  0  0  0  0  0  0  0  0  0  0
   36.9806   27.4395   32.9160 H   0  0  0  0  0  0  0  0  0  0  0  0
   35.9850   26.4752   34.0077 H   0  0  0  0  0  0  0  0  0  0  0  0
   37.6549   24.9447   33.5477 H   0  0  0  0  0  0  0  0  0  0  0  0
   39.2545   24.9277   32.9824 H   0  0  0  0  0  0  0  0  0  0  0  0
   40.2427   27.7835   33.9213 H   0  0  0  0  0  0  0  0  0  0  0  0
   41.3499   27.0569   33.1073 H   0  0  0  0  0  0  0  0  0  0  0  0
   39.4475   26.9444   30.9504 H   0  0  0  0  0  0  0  0  0  0  0  0
   38.4486   27.8894   31.6698 H   0  0  0  0  0  0  0  0  0  0  0  0
  1  2  2  0
  2  3  1  0
  4  3  2  0
  5  4  1  0
  6  5  2  0
  6  1  1  0
  7  8  1  0
  7  5  1  0
  9  8  1  0
 10 11  1  0
 10  9  1  0
 11  7  1  0
 12 13  1  0
 12 11  1  0
 14 12  1  0
 14 13  1  0
  1 15  1  0
  2 16  1  0
  3 17  1  0
  8 18  1  0
  8 19  1  0
  9 20  1  0
  9 21  1  0
 10 22  1  0
 10 23  1  0
 11 24  1  6
 12 25  1  0
 13 26  1  0
 13 27  1  0
 14 28  1  0
 14 29  1  0
M  ISO  8  15  14  16  14  17  14  18  13  19  13  20  13  21  13  22  13
M  ISO  7  23  13  24  13  25  13  26  13  27  13  28  13  29  13
M  END
>  <minimizedAffinity>  (1) 
-4.08998013

>  <minimizedRMSD>  (1) 
1.49173856

$$$$
