
     RDKit          3D

 29 31  0  0  1  0  0  0  0  0999 V2000
   39.7770   22.8440   37.4850 C   0  0  0  0  0  0  0  0  0  0  0  0
   38.6600   23.2000   38.2860 C   0  0  0  0  0  0  0  0  0  0  0  0
   37.8780   24.2580   37.8600 C   0  0  0  0  0  0  0  0  0  0  0  0
   38.2090   24.9040   36.7040 N   0  0  0  0  0  0  0  0  0  0  0  0
   39.2810   24.5410   35.9590 C   0  0  0  0  0  0  0  0  0  0  0  0
   40.0430   23.5130   36.3720 N   0  0  0  0  0  0  0  0  0  0  0  0
   39.5510   25.2690   34.7690 N   0  0  0  0  0  0  0  0  0  0  0  0
   39.8040   26.6730   34.7410 C   0  0  0  0  0  0  0  0  0  0  0  0
   39.4060   27.0630   33.3340 C   0  0  0  0  0  0  0  0  0  0  0  0
   39.0810   25.8150   32.5740 C   0  0  0  0  0  0  0  0  0  0  0  0
   39.6080   24.7030   33.4270 C   0  0  2  0  0  0  0  0  0  0  0  0
   38.8430   23.5080   33.2700 N   0  0  0  0  0  0  0  0  0  0  0  0
   39.3430   22.2520   33.2190 C   0  0  0  0  0  0  0  0  0  0  0  0
   38.2620   21.4340   33.0620 C   0  0  0  0  0  0  0  0  0  0  0  0
   37.1540   22.1920   33.0200 N   0  0  0  0  0  0  0  0  0  0  0  0
   37.5110   23.4970   33.1490 C   0  0  0  0  0  0  0  0  0  0  0  0
   40.4249   22.0088   37.7896 H   0  0  0  0  0  0  0  0  0  0  0  0
   38.4252   22.6541   39.2117 H   0  0  0  0  0  0  0  0  0  0  0  0
   37.0016   24.5745   38.4445 H   0  0  0  0  0  0  0  0  0  0  0  0
   39.1900   27.2002   35.4860 H   0  0  0  0  0  0  0  0  0  0  0  0
   40.8455   26.9306   34.9839 H   0  0  0  0  0  0  0  0  0  0  0  0
   38.5240   27.7195   33.3655 H   0  0  0  0  0  0  0  0  0  0  0  0
   40.2297   27.6019   32.8429 H   0  0  0  0  0  0  0  0  0  0  0  0
   37.9941   25.7166   32.4362 H   0  0  0  0  0  0  0  0  0  0  0  0
   39.5241   25.8133   31.5672 H   0  0  0  0  0  0  0  0  0  0  0  0
   40.6258   24.3803   33.1624 H   0  0  0  0  0  0  0  0  0  0  0  0
   40.3992   21.9529   33.2893 H   0  0  0  0  0  0  0  0  0  0  0  0
   38.2929   20.3373   32.9831 H   0  0  0  0  0  0  0  0  0  0  0  0
   36.8398   24.3685   33.1531 H   0  0  0  0  0  0  0  0  0  0  0  0
  1  2  2  0
  3  2  1  0
  4  3  2  0
  5  6  2  0
  5  4  1  0
  6  1  1  0
  7  5  1  0
  8  7  1  0
  9  8  1  0
 10  9  1  0
 10 11  1  0
 11  7  1  0
 12 11  1  0
 13 12  1  0
 14 13  2  0
 15 14  1  0
 15 16  2  0
 16 12  1  0
  1 17  1  0
  2 18  1  0
  3 19  1  0
  8 20  1  0
  8 21  1  0
  9 22  1  0
  9 23  1  0
 10 24  1  0
 10 25  1  0
 11 26  1  6
 13 27  1  0
 14 28  1  0
 16 29  1  0
M  ISO  8  17  14  18  14  19  14  20  13  21  13  22  13  23  13  24  13
M  ISO  5  25  13  26  13  27  14  28  14  29  14
M  END
>  <minimizedAffinity>  (1) 
-3.98437166

>  <minimizedRMSD>  (1) 
1.49671781

$$$$
