
     RDKit          3D

 28 30  0  0  1  0  0  0  0  0999 V2000
   39.8070   22.8580   37.5610 C   0  0  0  0  0  0  0  0  0  0  0  0
   38.7520   23.1980   38.4170 C   0  0  0  0  0  0  0  0  0  0  0  0
   37.9140   24.2190   38.0060 C   0  0  0  0  0  0  0  0  0  0  0  0
   38.1560   24.8300   36.8140 N   0  0  0  0  0  0  0  0  0  0  0  0
   39.1770   24.4800   36.0160 C   0  0  0  0  0  0  0  0  0  0  0  0
   40.0030   23.4870   36.4010 N   0  0  0  0  0  0  0  0  0  0  0  0
   39.3600   25.1670   34.7880 N   0  0  0  0  0  0  0  0  0  0  0  0
   39.5620   26.5950   34.7270 C   0  0  0  0  0  0  0  0  0  0  0  0
   39.2050   26.9460   33.3130 C   0  0  0  0  0  0  0  0  0  0  0  0
   38.7460   25.6950   32.6290 C   0  0  0  0  0  0  0  0  0  0  0  0
   39.3810   24.6130   33.4600 C   0  0  2  0  0  0  0  0  0  0  0  0
   38.7520   23.3410   33.3230 N   0  0  0  0  0  0  0  0  0  0  0  0
   39.3740   22.1560   33.1220 C   0  0  0  0  0  0  0  0  0  0  0  0
   38.4520   21.1570   33.0420 N   0  0  0  0  0  0  0  0  0  0  0  0
   37.2470   21.7360   33.1950 C   0  0  0  0  0  0  0  0  0  0  0  0
   37.4660   23.0510   33.3620 N   0  0  0  0  0  0  0  0  0  0  0  0
   40.4933   22.0496   37.8534 H   0  0  0  0  0  0  0  0  0  0  0  0
   38.5967   22.6767   39.3731 H   0  0  0  0  0  0  0  0  0  0  0  0
   37.0657   24.5321   38.6324 H   0  0  0  0  0  0  0  0  0  0  0  0
   38.9032   27.1148   35.4382 H   0  0  0  0  0  0  0  0  0  0  0  0
   40.5872   26.8917   34.9934 H   0  0  0  0  0  0  0  0  0  0  0  0
   38.3978   27.6933   33.3060 H   0  0  0  0  0  0  0  0  0  0  0  0
   40.0764   27.3694   32.7920 H   0  0  0  0  0  0  0  0  0  0  0  0
   37.6491   25.6144   32.6436 H   0  0  0  0  0  0  0  0  0  0  0  0
   39.0255   25.6504   31.5660 H   0  0  0  0  0  0  0  0  0  0  0  0
   40.4041   24.3662   33.1401 H   0  0  0  0  0  0  0  0  0  0  0  0
   40.4622   22.0200   33.0361 H   0  0  0  0  0  0  0  0  0  0  0  0
   36.2704   21.2299   33.1852 H   0  0  0  0  0  0  0  0  0  0  0  0
  1  2  2  0
  3  2  1  0
  4  3  2  0
  5  6  2  0
  5  4  1  0
  6  1  1  0
  7  5  1  0
  8  7  1  0
  9  8  1  0
 10  9  1  0
 10 11  1  0
 11  7  1  0
 12 16  1  0
 12 11  1  0
 13 12  1  0
 14 13  2  0
 14 15  1  0
 15 16  2  0
  1 17  1  0
  2 18  1  0
  3 19  1  0
  8 20  1  0
  8 21  1  0
  9 22  1  0
  9 23  1  0
 10 24  1  0
 10 25  1  0
 11 26  1  6
 13 27  1  0
 15 28  1  0
M  ISO  8  17  14  18  14  19  14  20  13  21  13  22  13  23  13  24  13
M  ISO  4  25  13  26  13  27  14  28  14
M  END
>  <minimizedAffinity>  (1) 
-4.03992128

>  <minimizedRMSD>  (1) 
1.22479129

$$$$
