
     RDKit          3D

 28 29  0  0  1  0  0  0  0  0999 V2000
   39.7490   22.7780   37.7060 C   0  0  0  0  0  0  0  0  0  0  0  0
   38.8810   23.3760   38.6280 C   0  0  0  0  0  0  0  0  0  0  0  0
   37.8070   24.0790   38.1180 C   0  0  0  0  0  0  0  0  0  0  0  0
   37.6310   24.1680   36.7670 N   0  0  0  0  0  0  0  0  0  0  0  0
   38.5040   23.5700   35.9110 C   0  0  0  0  0  0  0  0  0  0  0  0
   39.5570   22.8800   36.3920 N   0  0  0  0  0  0  0  0  0  0  0  0
   38.2420   23.7150   34.5130 N   0  0  0  0  0  0  0  0  0  0  0  0
   38.1840   24.9820   33.8540 C   0  0  0  0  0  0  0  0  0  0  0  0
   37.4120   24.6940   32.5970 C   0  0  0  0  0  0  0  0  0  0  0  0
   37.0930   23.2330   32.5760 C   0  0  0  0  0  0  0  0  0  0  0  0
   38.0060   22.6280   33.5980 C   0  0  2  0  0  0  0  0  0  0  0  0
   37.1520   21.6010   34.3560 C   0  0  0  0  0  0  0  0  0  0  0  0
   36.0670   21.0500   33.4440 C   0  0  0  0  0  0  0  0  0  0  0  0
   40.6135   22.2081   38.0774 H   0  0  0  0  0  0  0  0  0  0  0  0
   39.0474   23.2896   39.7119 H   0  0  0  0  0  0  0  0  0  0  0  0
   37.0943   24.5666   38.7995 H   0  0  0  0  0  0  0  0  0  0  0  0
   37.6602   25.7236   34.4750 H   0  0  0  0  0  0  0  0  0  0  0  0
   39.1796   25.4056   33.6555 H   0  0  0  0  0  0  0  0  0  0  0  0
   36.4809   25.2797   32.5881 H   0  0  0  0  0  0  0  0  0  0  0  0
   38.0053   24.9687   31.7124 H   0  0  0  0  0  0  0  0  0  0  0  0
   36.0406   23.0621   32.8468 H   0  0  0  0  0  0  0  0  0  0  0  0
   37.2347   22.7910   31.5787 H   0  0  0  0  0  0  0  0  0  0  0  0
   38.9233   22.1794   33.1890 H   0  0  0  0  0  0  0  0  0  0  0  0
   37.7937   20.7757   34.6982 H   0  0  0  0  0  0  0  0  0  0  0  0
   36.6812   22.0917   35.2206 H   0  0  0  0  0  0  0  0  0  0  0  0
   35.2508   20.6355   34.0540 H   0  0  0  0  0  0  0  0  0  0  0  0
   35.6760   21.8588   32.8092 H   0  0  0  0  0  0  0  0  0  0  0  0
   36.4893   20.2572   32.8092 H   0  0  0  0  0  0  0  0  0  0  0  0
  1  2  2  0
  3  2  1  0
  4  3  2  0
  5  6  2  0
  5  4  1  0
  6  1  1  0
  7  5  1  0
  8  7  1  0
  9  8  1  0
 10  9  1  0
 10 11  1  0
 11 12  1  0
 11  7  1  0
 13 12  1  0
  1 14  1  0
  2 15  1  0
  3 16  1  0
  8 17  1  0
  8 18  1  0
  9 19  1  0
  9 20  1  0
 10 21  1  0
 10 22  1  0
 11 23  1  6
 12 24  1  0
 12 25  1  0
 13 26  1  0
 13 27  1  0
 13 28  1  0
M  ISO  8  14  14  15  14  16  14  17  13  18  13  19  13  20  13  21  13
M  ISO  7  22  13  23  13  24   8  25   8  26   8  27   8  28   8
M  END
>  <minimizedAffinity>  (1) 
-3.86382389

>  <minimizedRMSD>  (1) 
1.91685987

$$$$
