
     RDKit          3D

 36 38  0  0  1  0  0  0  0  0999 V2000
   40.1620   22.9930   36.7150 C   0  0  0  0  0  0  0  0  0  0  0  0
   39.4040   22.6480   37.8600 C   0  0  0  0  0  0  0  0  0  0  0  0
   38.2890   23.4320   38.1640 C   0  0  0  0  0  0  0  0  0  0  0  0
   37.9730   24.4810   37.3700 N   0  0  0  0  0  0  0  0  0  0  0  0
   38.7070   24.7820   36.2990 C   0  0  0  0  0  0  0  0  0  0  0  0
   39.7870   24.0380   35.9860 N   0  0  0  0  0  0  0  0  0  0  0  0
   38.3640   25.8940   35.5200 N   0  0  0  0  0  0  0  0  0  0  0  0
   38.2590   27.2230   36.0240 C   0  0  0  0  0  0  0  0  0  0  0  0
   37.3910   27.9640   35.0760 C   0  0  0  0  0  0  0  0  0  0  0  0
   37.0590   27.0030   33.9820 C   0  0  0  0  0  0  0  0  0  0  0  0
   38.1090   25.9640   34.0740 C   0  0  2  0  0  0  0  0  0  0  0  0
   37.8470   24.7110   33.4930 N   0  0  0  0  0  0  0  0  0  0  0  0
   37.5310   24.3660   32.1820 C   0  0  0  0  0  0  0  0  0  0  0  0
   37.3560   25.2880   31.3550 N   0  0  0  0  0  0  0  0  0  0  0  0
   37.4110   23.0360   31.6760 N   0  0  0  0  0  0  0  0  0  0  0  0
   37.2960   26.3090   31.5090 H   0  0  0  0  0  0  0  0  0  0  0  0
   39.4960   26.5430   33.7970 C   0  0  0  0  0  0  0  0  0  0  0  0
   40.1640   27.2060   32.7610 C   0  0  0  0  0  0  0  0  0  0  0  0
   41.4670   27.4610   33.1190 C   0  0  0  0  0  0  0  0  0  0  0  0
   41.5670   26.9510   34.3550 N   0  0  0  0  0  0  0  0  0  0  0  0
   40.4560   26.4230   34.7630 N   0  0  0  0  0  0  0  0  0  0  0  0
   41.0478   22.4047   36.4335 H   0  0  0  0  0  0  0  0  0  0  0  0
   39.6842   21.7905   38.4895 H   0  0  0  0  0  0  0  0  0  0  0  0
   37.6714   23.1981   39.0437 H   0  0  0  0  0  0  0  0  0  0  0  0
   37.8069   27.2148   37.0268 H   0  0  0  0  0  0  0  0  0  0  0  0
   39.2485   27.6955   36.1109 H   0  0  0  0  0  0  0  0  0  0  0  0
   36.4732   28.2997   35.5810 H   0  0  0  0  0  0  0  0  0  0  0  0
   37.8954   28.8600   34.6850 H   0  0  0  0  0  0  0  0  0  0  0  0
   37.0902   27.5024   33.0024 H   0  0  0  0  0  0  0  0  0  0  0  0
   36.0462   26.5859   34.0832 H   0  0  0  0  0  0  0  0  0  0  0  0
   37.8972   23.9160   34.1460 H   0  0  0  0  0  0  0  0  0  0  0  0
   37.1722   22.8812   30.6861 H   0  0  0  0  0  0  0  0  0  0  0  0
   37.5632   22.2315   32.3009 H   0  0  0  0  0  0  0  0  0  0  0  0
   39.7112   27.4835   31.7977 H   0  0  0  0  0  0  0  0  0  0  0  0
   42.2459   27.9659   32.5288 H   0  0  0  0  0  0  0  0  0  0  0  0
   42.4298   26.9760   34.9170 H   0  0  0  0  0  0  0  0  0  0  0  0
  1  2  2  0
  2  3  1  0
  4  3  2  0
  5  4  1  0
  6  5  2  0
  6  1  1  0
  7  8  1  0
  7  5  1  0
  9  8  1  0
 10 11  1  0
 10  9  1  0
 11 12  1  6
 11  7  1  0
 13 12  1  0
 14 16  1  0
 14 13  2  0
 15 13  1  0
 17 11  1  0
 17 21  2  0
 18 19  2  0
 18 17  1  0
 19 20  1  0
 20 21  1  0
  1 22  1  0
  2 23  1  0
  3 24  1  0
  8 25  1  0
  8 26  1  0
  9 27  1  0
  9 28  1  0
 10 29  1  0
 10 30  1  0
 12 31  1  0
 15 32  1  0
 15 33  1  0
 18 34  1  0
 19 35  1  0
 20 36  1  0
M  ISO  8  22  14  23  14  24  14  25  13  26  13  27  13  28  13  29  13
M  ISO  4  30  13  34  14  35  14  36   9
M  END
>  <minimizedAffinity>  (1) 
-5.13868237

>  <minimizedRMSD>  (1) 
0.595691264

$$$$
