
     RDKit          3D

 36 38  0  0  1  0  0  0  0  0999 V2000
   40.1020   23.1210   36.5760 C   0  0  0  0  0  0  0  0  0  0  0  0
   39.3890   22.8120   37.7560 C   0  0  0  0  0  0  0  0  0  0  0  0
   38.3120   23.6050   38.0740 C   0  0  0  0  0  0  0  0  0  0  0  0
   37.9670   24.6390   37.2730 N   0  0  0  0  0  0  0  0  0  0  0  0
   38.6500   24.9180   36.1650 C   0  0  0  0  0  0  0  0  0  0  0  0
   39.7080   24.1490   35.8380 N   0  0  0  0  0  0  0  0  0  0  0  0
   38.2840   26.0120   35.3670 N   0  0  0  0  0  0  0  0  0  0  0  0
   38.1880   27.3560   35.8360 C   0  0  0  0  0  0  0  0  0  0  0  0
   37.1470   28.0000   34.9500 C   0  0  0  0  0  0  0  0  0  0  0  0
   36.9470   27.0850   33.8280 C   0  0  0  0  0  0  0  0  0  0  0  0
   37.9890   26.0410   33.9320 C   0  0  2  0  0  0  0  0  0  0  0  0
   37.6710   24.7680   33.4020 N   0  0  0  0  0  0  0  0  0  0  0  0
   36.9560   24.4410   32.2520 C   0  0  0  0  0  0  0  0  0  0  0  0
   36.4020   25.3590   31.6050 N   0  0  0  0  0  0  0  0  0  0  0  0
   36.8150   23.1120   31.7160 N   0  0  0  0  0  0  0  0  0  0  0  0
   36.2700   26.3400   31.8740 H   0  0  0  0  0  0  0  0  0  0  0  0
   39.3320   26.5620   33.5570 N   0  0  0  0  0  0  0  0  0  0  0  0
   39.6330   26.9070   32.2780 C   0  0  0  0  0  0  0  0  0  0  0  0
   40.9240   27.3740   32.1770 C   0  0  0  0  0  0  0  0  0  0  0  0
   41.4360   27.3170   33.4260 N   0  0  0  0  0  0  0  0  0  0  0  0
   40.4700   26.8310   34.2220 C   0  0  0  0  0  0  0  0  0  0  0  0
   40.9709   22.5176   36.2744 H   0  0  0  0  0  0  0  0  0  0  0  0
   39.6847   21.9681   38.3966 H   0  0  0  0  0  0  0  0  0  0  0  0
   37.7286   23.3979   38.9832 H   0  0  0  0  0  0  0  0  0  0  0  0
   37.8683   27.3774   36.8883 H   0  0  0  0  0  0  0  0  0  0  0  0
   39.1535   27.8813   35.7920 H   0  0  0  0  0  0  0  0  0  0  0  0
   36.2063   28.1365   35.5035 H   0  0  0  0  0  0  0  0  0  0  0  0
   37.4714   28.9931   34.6056 H   0  0  0  0  0  0  0  0  0  0  0  0
   37.0483   27.6266   32.8759 H   0  0  0  0  0  0  0  0  0  0  0  0
   35.9412   26.6407   33.8576 H   0  0  0  0  0  0  0  0  0  0  0  0
   38.0192   23.9658   33.9462 H   0  0  0  0  0  0  0  0  0  0  0  0
   36.2666   22.9583   30.8578 H   0  0  0  0  0  0  0  0  0  0  0  0
   37.2625   22.3150   32.1908 H   0  0  0  0  0  0  0  0  0  0  0  0
   38.9349   26.8239   31.4319 H   0  0  0  0  0  0  0  0  0  0  0  0
   41.4339   27.7220   31.2666 H   0  0  0  0  0  0  0  0  0  0  0  0
   40.5958   26.6700   35.3029 H   0  0  0  0  0  0  0  0  0  0  0  0
  1  2  2  0
  2  3  1  0
  4  3  2  0
  5  4  1  0
  6  5  2  0
  6  1  1  0
  7  8  1  0
  7  5  1  0
  9  8  1  0
 10 11  1  0
 10  9  1  0
 11 12  1  6
 11  7  1  0
 13 12  1  0
 14 16  1  0
 14 13  2  0
 15 13  1  0
 17 11  1  0
 17 21  1  0
 18 17  1  0
 19 18  2  0
 19 20  1  0
 20 21  2  0
  1 22  1  0
  2 23  1  0
  3 24  1  0
  8 25  1  0
  8 26  1  0
  9 27  1  0
  9 28  1  0
 10 29  1  0
 10 30  1  0
 12 31  1  0
 15 32  1  0
 15 33  1  0
 18 34  1  0
 19 35  1  0
 21 36  1  0
M  ISO  8  22  14  23  14  24  14  25  13  26  13  27  13  28  13  29  13
M  ISO  4  30  13  34  14  35  14  36  14
M  END
>  <minimizedAffinity>  (1) 
-4.99418163

>  <minimizedRMSD>  (1) 
0.920042455

$$$$
