
     RDKit          3D

 36 38  0  0  1  0  0  0  0  0999 V2000
   40.5130   22.8150   36.0280 C   0  0  0  0  0  0  0  0  0  0  0  0
   39.9870   22.3910   37.2700 C   0  0  0  0  0  0  0  0  0  0  0  0
   38.9900   23.1540   37.8310 C   0  0  0  0  0  0  0  0  0  0  0  0
   38.5580   24.2610   37.1870 N   0  0  0  0  0  0  0  0  0  0  0  0
   39.0720   24.6370   36.0160 C   0  0  0  0  0  0  0  0  0  0  0  0
   40.0440   23.9160   35.4420 N   0  0  0  0  0  0  0  0  0  0  0  0
   38.5640   25.8010   35.4220 N   0  0  0  0  0  0  0  0  0  0  0  0
   38.3800   27.0390   36.1240 C   0  0  0  0  0  0  0  0  0  0  0  0
   37.6010   27.9320   35.2600 C   0  0  0  0  0  0  0  0  0  0  0  0
   36.9780   26.9770   34.2570 C   0  0  0  0  0  0  0  0  0  0  0  0
   38.1220   26.0360   34.0540 C   0  0  2  0  0  0  0  0  0  0  0  0
   37.7210   24.8060   33.4480 N   0  0  0  0  0  0  0  0  0  0  0  0
   36.9440   24.5260   32.3330 C   0  0  0  0  0  0  0  0  0  0  0  0
   36.4390   25.5090   31.7320 N   0  0  0  0  0  0  0  0  0  0  0  0
   36.6780   23.2410   31.7790 N   0  0  0  0  0  0  0  0  0  0  0  0
   36.2570   26.4300   32.1590 H   0  0  0  0  0  0  0  0  0  0  0  0
   39.3100   26.7440   33.4980 C   0  0  0  0  0  0  0  0  0  0  0  0
   39.5310   27.2490   32.1330 C   0  0  0  0  0  0  0  0  0  0  0  0
   40.2790   26.0810   32.5560 C   0  0  0  0  0  0  0  0  0  0  0  0
   41.3119   22.2341   35.5439 H   0  0  0  0  0  0  0  0  0  0  0  0
   40.3612   21.4848   37.7688 H   0  0  0  0  0  0  0  0  0  0  0  0
   38.5477   22.8658   38.7960 H   0  0  0  0  0  0  0  0  0  0  0  0
   37.8368   26.8594   37.0635 H   0  0  0  0  0  0  0  0  0  0  0  0
   39.3527   27.4914   36.3672 H   0  0  0  0  0  0  0  0  0  0  0  0
   36.8273   28.4625   35.8344 H   0  0  0  0  0  0  0  0  0  0  0  0
   38.2082   28.7196   34.7900 H   0  0  0  0  0  0  0  0  0  0  0  0
   36.0969   26.4658   34.6722 H   0  0  0  0  0  0  0  0  0  0  0  0
   36.5973   27.4501   33.3398 H   0  0  0  0  0  0  0  0  0  0  0  0
   38.0760   23.9680   33.9303 H   0  0  0  0  0  0  0  0  0  0  0  0
   36.0826   23.1538   30.9431 H   0  0  0  0  0  0  0  0  0  0  0  0
   37.0810   22.3990   32.2143 H   0  0  0  0  0  0  0  0  0  0  0  0
   39.3127   27.2241   34.4877 H   0  0  0  0  0  0  0  0  0  0  0  0
   40.0534   28.2056   31.9844 H   0  0  0  0  0  0  0  0  0  0  0  0
   38.8704   27.4682   31.2812 H   0  0  0  0  0  0  0  0  0  0  0  0
   40.0457   25.0937   32.1307 H   0  0  0  0  0  0  0  0  0  0  0  0
   41.3444   25.8104   32.5968 H   0  0  0  0  0  0  0  0  0  0  0  0
  1  2  2  0
  2  3  1  0
  4  3  2  0
  5  4  1  0
  6  5  2  0
  6  1  1  0
  7  5  1  0
  7  8  1  0
  9  8  1  0
 10  9  1  0
 11 12  1  6
 11 10  1  0
 11  7  1  0
 13 12  1  0
 14 16  1  0
 14 13  2  0
 15 13  1  0
 17 11  1  0
 18 19  1  0
 18 17  1  0
 19 17  1  0
  1 20  1  0
  2 21  1  0
  3 22  1  0
  8 23  1  0
  8 24  1  0
  9 25  1  0
  9 26  1  0
 10 27  1  0
 10 28  1  0
 12 29  1  0
 15 30  1  0
 15 31  1  0
 17 32  1  0
 18 33  1  0
 18 34  1  0
 19 35  1  0
 19 36  1  0
M  ISO  8  20  14  21  14  22  14  23  13  24  13  25  13  26  13  27  13
M  ISO  6  28  13  32  13  33  13  34  13  35  13  36  13
M  END
>  <minimizedAffinity>  (1) 
-4.57091236

>  <minimizedRMSD>  (1) 
1.1436621

$$$$
