
     RDKit          3D

 41 43  0  0  1  0  0  0  0  0999 V2000
   40.1230   23.0390   36.6790 C   0  0  0  0  0  0  0  0  0  0  0  0
   39.4520   22.8420   37.9110 C   0  0  0  0  0  0  0  0  0  0  0  0
   38.3880   23.6910   38.2190 C   0  0  0  0  0  0  0  0  0  0  0  0
   38.0410   24.6590   37.3370 N   0  0  0  0  0  0  0  0  0  0  0  0
   38.6940   24.8190   36.1830 C   0  0  0  0  0  0  0  0  0  0  0  0
   39.7270   24.0110   35.8620 N   0  0  0  0  0  0  0  0  0  0  0  0
   38.2890   25.8560   35.3260 N   0  0  0  0  0  0  0  0  0  0  0  0
   38.1410   27.2270   35.7240 C   0  0  0  0  0  0  0  0  0  0  0  0
   37.1820   27.8410   34.7810 C   0  0  0  0  0  0  0  0  0  0  0  0
   36.8730   26.8060   33.7680 C   0  0  0  0  0  0  0  0  0  0  0  0
   37.9670   25.8070   33.8930 C   0  0  2  0  0  0  0  0  0  0  0  0
   37.5880   24.4990   33.5010 N   0  0  0  0  0  0  0  0  0  0  0  0
   37.4430   23.9360   32.2350 C   0  0  0  0  0  0  0  0  0  0  0  0
   37.5900   24.6890   31.2440 N   0  0  0  0  0  0  0  0  0  0  0  0
   37.1650   22.5690   31.9470 N   0  0  0  0  0  0  0  0  0  0  0  0
   37.6210   25.7240   31.2270 H   0  0  0  0  0  0  0  0  0  0  0  0
   39.1870   26.3410   33.4060 N   0  0  0  0  0  0  0  0  0  0  0  0
   40.4110   26.1450   34.0110 C   0  0  0  0  0  0  0  0  0  0  0  0
   41.3890   26.3430   32.8390 C   0  0  0  0  0  0  0  0  0  0  0  0
   40.6210   26.9790   31.7340 C   0  0  0  0  0  0  0  0  0  0  0  0
   39.2770   27.2760   32.3890 C   0  0  0  0  0  0  0  0  0  0  0  0
   40.9671   22.3915   36.3995 H   0  0  0  0  0  0  0  0  0  0  0  0
   39.7600   22.0446   38.6034 H   0  0  0  0  0  0  0  0  0  0  0  0
   37.8386   23.5758   39.1650 H   0  0  0  0  0  0  0  0  0  0  0  0
   37.7519   27.2838   36.7513 H   0  0  0  0  0  0  0  0  0  0  0  0
   39.1075   27.7518   35.7038 H   0  0  0  0  0  0  0  0  0  0  0  0
   36.2658   28.1405   35.3109 H   0  0  0  0  0  0  0  0  0  0  0  0
   37.6032   28.7435   34.3141 H   0  0  0  0  0  0  0  0  0  0  0  0
   36.8624   27.2436   32.7589 H   0  0  0  0  0  0  0  0  0  0  0  0
   35.8820   26.3556   33.9262 H   0  0  0  0  0  0  0  0  0  0  0  0
   37.3862   23.8582   34.2817 H   0  0  0  0  0  0  0  0  0  0  0  0
   37.0771   22.2562   30.9696 H   0  0  0  0  0  0  0  0  0  0  0  0
   37.0518   21.8933   32.7161 H   0  0  0  0  0  0  0  0  0  0  0  0
   40.5860   26.8851   34.8058 H   0  0  0  0  0  0  0  0  0  0  0  0
   40.5072   25.1673   34.5058 H   0  0  0  0  0  0  0  0  0  0  0  0
   42.2195   26.9956   33.1462 H   0  0  0  0  0  0  0  0  0  0  0  0
   41.8162   25.3817   32.5175 H   0  0  0  0  0  0  0  0  0  0  0  0
   40.5047   26.2905   30.8841 H   0  0  0  0  0  0  0  0  0  0  0  0
   41.1113   27.8718   31.3186 H   0  0  0  0  0  0  0  0  0  0  0  0
   39.2570   28.2983   32.7946 H   0  0  0  0  0  0  0  0  0  0  0  0
   38.4376   27.2138   31.6808 H   0  0  0  0  0  0  0  0  0  0  0  0
  1  2  2  0
  2  3  1  0
  4  3  2  0
  5  4  1  0
  6  5  2  0
  6  1  1  0
  7  8  1  0
  7  5  1  0
  9  8  1  0
 10 11  1  0
 10  9  1  0
 11 12  1  6
 11  7  1  0
 13 12  1  0
 14 13  2  0
 15 13  1  0
 16 14  1  0
 17 11  1  0
 17 18  1  0
 19 18  1  0
 20 21  1  0
 20 19  1  0
 21 17  1  0
  1 22  1  0
  2 23  1  0
  3 24  1  0
  8 25  1  0
  8 26  1  0
  9 27  1  0
  9 28  1  0
 10 29  1  0
 10 30  1  0
 12 31  1  0
 15 32  1  0
 15 33  1  0
 18 34  1  0
 18 35  1  0
 19 36  1  0
 19 37  1  0
 20 38  1  0
 20 39  1  0
 21 40  1  0
 21 41  1  0
M  ISO  8  22  14  23  14  24  14  25  13  26  13  27  13  28  13  29  13
M  ISO  8  30  13  34  13  35  13  36  13  37  13  38  13  39  13  40  13
M  ISO  1  41  13
M  END
>  <minimizedAffinity>  (1) 
-4.69996929

>  <minimizedRMSD>  (1) 
0.593909621

$$$$
