
     RDKit          3D

 36 38  0  0  0  0  0  0  0  0999 V2000
   39.8820   22.6800   37.4540 C   0  0  0  0  0  0  0  0  0  0  0  0
   39.2180   23.4020   38.4450 C   0  0  0  0  0  0  0  0  0  0  0  0
   37.8450   23.5760   38.3260 C   0  0  0  0  0  0  0  0  0  0  0  0
   37.2140   23.0300   37.2460 N   0  0  0  0  0  0  0  0  0  0  0  0
   37.8910   22.3360   36.3050 C   0  0  0  0  0  0  0  0  0  0  0  0
   39.2200   22.1650   36.4150 N   0  0  0  0  0  0  0  0  0  0  0  0
   37.2240   21.7730   35.1850 N   0  0  0  0  0  0  0  0  0  0  0  0
   37.8380   21.9900   34.0120 C   0  0  0  0  0  0  0  0  0  0  0  0
   37.2630   21.4800   32.8650 C   0  0  0  0  0  0  0  0  0  0  0  0
   36.0840   20.7800   33.0430 C   0  0  0  0  0  0  0  0  0  0  0  0
   35.3750   20.1960   31.9590 N   0  0  0  0  0  0  0  0  0  0  0  0
   35.5020   20.5850   34.2370 N   0  0  0  0  0  0  0  0  0  0  0  0
   36.0820   21.0930   35.3500 C   0  0  0  0  0  0  0  0  0  0  0  0
   35.6260   20.9690   36.5010 O   0  0  0  0  0  0  0  0  0  0  0  0
   37.7910   21.6280   31.5660 N   0  0  0  0  0  0  0  0  0  0  0  0
   37.5960   22.6760   30.6090 C   0  0  0  0  0  0  0  0  0  0  0  0
   38.9940   23.0180   30.0800 C   0  0  0  0  0  0  0  0  0  0  0  0
   39.4130   21.8410   29.2150 C   0  0  0  0  0  0  0  0  0  0  0  0
   38.6980   20.5760   29.6260 C   0  0  0  0  0  0  0  0  0  0  0  0
   38.6740   20.5350   31.1400 C   0  0  0  0  0  0  0  0  0  0  0  0
   40.9694   22.5322   37.5294 H   0  0  0  0  0  0  0  0  0  0  0  0
   39.7677   23.8232   39.2996 H   0  0  0  0  0  0  0  0  0  0  0  0
   37.2804   24.1397   39.0833 H   0  0  0  0  0  0  0  0  0  0  0  0
   38.7772   22.5607   33.9652 H   0  0  0  0  0  0  0  0  0  0  0  0
   34.4996   19.6820   32.1334 H   0  0  0  0  0  0  0  0  0  0  0  0
   35.7364   20.2866   30.9988 H   0  0  0  0  0  0  0  0  0  0  0  0
   36.9490   22.3313   29.7889 H   0  0  0  0  0  0  0  0  0  0  0  0
   37.1061   23.5519   31.0593 H   0  0  0  0  0  0  0  0  0  0  0  0
   38.9612   23.9401   29.4811 H   0  0  0  0  0  0  0  0  0  0  0  0
   39.7055   23.1883   30.9014 H   0  0  0  0  0  0  0  0  0  0  0  0
   40.4976   21.6891   29.3177 H   0  0  0  0  0  0  0  0  0  0  0  0
   39.1486   22.0658   28.1712 H   0  0  0  0  0  0  0  0  0  0  0  0
   37.6700   20.5820   29.2346 H   0  0  0  0  0  0  0  0  0  0  0  0
   39.2145   19.6921   29.2237 H   0  0  0  0  0  0  0  0  0  0  0  0
   38.2804   19.5689   31.4890 H   0  0  0  0  0  0  0  0  0  0  0  0
   39.6842   20.6493   31.5599 H   0  0  0  0  0  0  0  0  0  0  0  0
  1  2  2  0
  3  2  1  0
  4  3  2  0
  5  6  2  0
  5  4  1  0
  6  1  1  0
  7 13  1  0
  7  5  1  0
  8  7  1  0
  9 10  1  0
  9  8  2  0
 10 12  2  0
 11 10  1  0
 12 13  1  0
 13 14  2  0
 15  9  1  0
 16 15  1  0
 17 16  1  0
 18 19  1  0
 18 17  1  0
 19 20  1  0
 20 15  1  0
  1 21  1  0
  2 22  1  0
  3 23  1  0
  8 24  1  0
 11 25  1  0
 11 26  1  0
 16 27  1  0
 16 28  1  0
 17 29  1  0
 17 30  1  0
 18 31  1  0
 18 32  1  0
 19 33  1  0
 19 34  1  0
 20 35  1  0
 20 36  1  0
M  ISO  8  21  14  22  14  23  14  24  14  27  13  28  13  29  13  30  13
M  ISO  6  31  13  32  13  33  13  34  13  35  13  36  13
M  END
>  <minimizedAffinity>  (1) 
-5.1428709

>  <minimizedRMSD>  (1) 
0.635297835

$$$$
