
     RDKit          3D

 42 44  0  0  1  0  0  0  0  0999 V2000
   40.2530   23.2060   35.9060 C   0  0  0  0  0  0  0  0  0  0  0  0
   39.7100   22.8120   37.1410 C   0  0  0  0  0  0  0  0  0  0  0  0
   38.6480   23.5480   37.6390 C   0  0  0  0  0  0  0  0  0  0  0  0
   38.1850   24.5960   36.9280 N   0  0  0  0  0  0  0  0  0  0  0  0
   38.7100   24.9510   35.7660 C   0  0  0  0  0  0  0  0  0  0  0  0
   39.7360   24.2490   35.2740 N   0  0  0  0  0  0  0  0  0  0  0  0
   38.1930   26.0520   35.0860 N   0  0  0  0  0  0  0  0  0  0  0  0
   37.9980   27.3110   35.7020 C   0  0  0  0  0  0  0  0  0  0  0  0
   37.1140   28.0840   34.8790 C   0  0  0  0  0  0  0  0  0  0  0  0
   36.6460   27.1520   33.7940 C   0  0  0  0  0  0  0  0  0  0  0  0
   37.7570   26.2350   33.6910 C   0  0  2  0  0  0  0  0  0  0  0  0
   37.4970   24.9420   33.1490 N   0  0  0  0  0  0  0  0  0  0  0  0
   36.6120   24.4850   32.1690 C   0  0  0  0  0  0  0  0  0  0  0  0
   35.8990   25.3660   31.5970 N   0  0  0  0  0  0  0  0  0  0  0  0
   36.4210   23.1450   31.7340 N   0  0  0  0  0  0  0  0  0  0  0  0
   35.7730   26.3040   31.8650 H   0  0  0  0  0  0  0  0  0  0  0  0
   38.9190   27.0170   33.2070 C   0  0  0  0  0  0  0  0  0  0  0  0
   39.2340   27.1330   31.7950 C   0  0  0  0  0  0  0  0  0  0  0  0
   38.3440   27.5980   30.7680 C   0  0  0  0  0  0  0  0  0  0  0  0
   39.0650   28.1670   29.6880 C   0  0  0  0  0  0  0  0  0  0  0  0
   38.2330   28.6120   28.7010 C   0  0  0  0  0  0  0  0  0  0  0  0
   37.0330   28.3220   29.1660 N   0  0  0  0  0  0  0  0  0  0  0  0
   37.0990   27.7570   30.3200 N   0  0  0  0  0  0  0  0  0  0  0  0
   41.0982   22.6541   35.4689 H   0  0  0  0  0  0  0  0  0  0  0  0
   40.1141   21.9500   37.6921 H   0  0  0  0  0  0  0  0  0  0  0  0
   38.1881   23.2812   38.6020 H   0  0  0  0  0  0  0  0  0  0  0  0
   37.5525   27.1725   36.6982 H   0  0  0  0  0  0  0  0  0  0  0  0
   38.9611   27.8304   35.8149 H   0  0  0  0  0  0  0  0  0  0  0  0
   36.2589   28.4453   35.4691 H   0  0  0  0  0  0  0  0  0  0  0  0
   37.6175   28.9694   34.4635 H   0  0  0  0  0  0  0  0  0  0  0  0
   35.7222   26.6306   34.0851 H   0  0  0  0  0  0  0  0  0  0  0  0
   36.3976   27.6579   32.8494 H   0  0  0  0  0  0  0  0  0  0  0  0
   38.0765   24.1972   33.5617 H   0  0  0  0  0  0  0  0  0  0  0  0
   35.7320   22.9359   30.9975 H   0  0  0  0  0  0  0  0  0  0  0  0
   36.9716   22.3833   32.1554 H   0  0  0  0  0  0  0  0  0  0  0  0
   38.7744   28.0433   33.5755 H   0  0  0  0  0  0  0  0  0  0  0  0
   39.7674   26.4277   33.5851 H   0  0  0  0  0  0  0  0  0  0  0  0
   40.1047   27.8036   31.7477 H   0  0  0  0  0  0  0  0  0  0  0  0
   39.2903   26.0677   31.5268 H   0  0  0  0  0  0  0  0  0  0  0  0
   40.1618   28.2410   29.6498 H   0  0  0  0  0  0  0  0  0  0  0  0
   38.4988   29.0951   27.7492 H   0  0  0  0  0  0  0  0  0  0  0  0
   36.1540   28.5226   28.6680 H   0  0  0  0  0  0  0  0  0  0  0  0
  1  2  2  0
  2  3  1  0
  4  3  2  0
  5  4  1  0
  6  5  2  0
  6  1  1  0
  7  8  1  0
  7  5  1  0
  9  8  1  0
 10  9  1  0
 11 12  1  6
 11 10  1  0
 11  7  1  0
 13 12  1  0
 14 16  1  0
 14 13  2  0
 15 13  1  0
 17 11  1  0
 18 17  1  0
 19 18  1  0
 20 19  1  0
 21 22  1  0
 21 20  2  0
 22 23  1  0
 23 19  2  0
  1 24  1  0
  2 25  1  0
  3 26  1  0
  8 27  1  0
  8 28  1  0
  9 29  1  0
  9 30  1  0
 10 31  1  0
 10 32  1  0
 12 33  1  0
 15 34  1  0
 15 35  1  0
 17 36  1  0
 17 37  1  0
 18 38  1  0
 18 39  1  0
 20 40  1  0
 21 41  1  0
 22 42  1  0
M  ISO  8  24  14  25  14  26  14  27  13  28  13  29  13  30  13  31  13
M  ISO  8  32  13  36   8  37   8  38   8  39   8  40  14  41  14  42   9
M  END
>  <minimizedAffinity>  (1) 
-5.21509933

>  <minimizedRMSD>  (1) 
0.657352746

$$$$
