
     RDKit          3D

 45 47  0  0  1  0  0  0  0  0999 V2000
   40.4930   22.9940   35.7830 C   0  0  0  0  0  0  0  0  0  0  0  0
   39.9880   22.5220   37.0080 C   0  0  0  0  0  0  0  0  0  0  0  0
   38.9480   23.2320   37.6010 C   0  0  0  0  0  0  0  0  0  0  0  0
   38.4650   24.3380   36.9870 N   0  0  0  0  0  0  0  0  0  0  0  0
   38.9580   24.7590   35.8360 C   0  0  0  0  0  0  0  0  0  0  0  0
   39.9670   24.0860   35.2450 N   0  0  0  0  0  0  0  0  0  0  0  0
   38.4360   25.9050   35.2470 N   0  0  0  0  0  0  0  0  0  0  0  0
   38.2850   27.1230   35.9490 C   0  0  0  0  0  0  0  0  0  0  0  0
   37.3760   27.9650   35.2240 C   0  0  0  0  0  0  0  0  0  0  0  0
   36.8790   27.1430   34.0770 C   0  0  0  0  0  0  0  0  0  0  0  0
   37.9470   26.1900   33.8890 C   0  0  2  0  0  0  0  0  0  0  0  0
   37.6370   24.9410   33.2690 N   0  0  0  0  0  0  0  0  0  0  0  0
   36.7630   24.5830   32.2410 C   0  0  0  0  0  0  0  0  0  0  0  0
   36.0880   25.5170   31.7250 N   0  0  0  0  0  0  0  0  0  0  0  0
   36.5570   23.2840   31.7040 N   0  0  0  0  0  0  0  0  0  0  0  0
   35.9910   26.4390   32.0520 H   0  0  0  0  0  0  0  0  0  0  0  0
   39.1140   26.9650   33.3960 C   0  0  0  0  0  0  0  0  0  0  0  0
   39.5400   26.9630   32.0200 C   0  0  0  0  0  0  0  0  0  0  0  0
   38.7940   27.7020   31.0280 C   0  0  0  0  0  0  0  0  0  0  0  0
   37.7310   28.5620   30.8630 C   0  0  0  0  0  0  0  0  0  0  0  0
   37.2700   29.1560   29.7190 C   0  0  0  0  0  0  0  0  0  0  0  0
   37.9190   28.8930   28.5350 C   0  0  0  0  0  0  0  0  0  0  0  0
   39.0020   28.0430   28.5610 C   0  0  0  0  0  0  0  0  0  0  0  0
   39.4050   27.4810   29.7780 C   0  0  0  0  0  0  0  0  0  0  0  0
   41.3138   22.4640   35.2777 H   0  0  0  0  0  0  0  0  0  0  0  0
   40.4020   21.6201   37.4825 H   0  0  0  0  0  0  0  0  0  0  0  0
   38.5227   22.8980   38.5589 H   0  0  0  0  0  0  0  0  0  0  0  0
   37.8831   26.9235   36.9533 H   0  0  0  0  0  0  0  0  0  0  0  0
   39.2605   27.6221   36.0458 H   0  0  0  0  0  0  0  0  0  0  0  0
   36.5379   28.2674   35.8691 H   0  0  0  0  0  0  0  0  0  0  0  0
   37.8686   28.8852   34.8769 H   0  0  0  0  0  0  0  0  0  0  0  0
   35.9353   26.6376   34.3298 H   0  0  0  0  0  0  0  0  0  0  0  0
   36.6567   27.7353   33.1772 H   0  0  0  0  0  0  0  0  0  0  0  0
   38.1634   24.1458   33.6581 H   0  0  0  0  0  0  0  0  0  0  0  0
   35.8798   23.1437   30.9407 H   0  0  0  0  0  0  0  0  0  0  0  0
   37.0849   22.4825   32.0779 H   0  0  0  0  0  0  0  0  0  0  0  0
   38.9055   28.0158   33.6457 H   0  0  0  0  0  0  0  0  0  0  0  0
   39.9469   26.4355   33.8817 H   0  0  0  0  0  0  0  0  0  0  0  0
   40.5658   27.3599   32.0054 H   0  0  0  0  0  0  0  0  0  0  0  0
   39.3958   25.9163   31.7141 H   0  0  0  0  0  0  0  0  0  0  0  0
   37.1739   28.8060   31.7796 H   0  0  0  0  0  0  0  0  0  0  0  0
   36.4000   29.8286   29.7460 H   0  0  0  0  0  0  0  0  0  0  0  0
   37.5819   29.3495   27.5927 H   0  0  0  0  0  0  0  0  0  0  0  0
   39.5454   27.8078   27.6340 H   0  0  0  0  0  0  0  0  0  0  0  0
   40.2748   26.8080   29.7565 H   0  0  0  0  0  0  0  0  0  0  0  0
  1  2  2  0
  2  3  1  0
  4  3  2  0
  5  4  1  0
  6  1  1  0
  6  5  2  0
  7  5  1  0
  7  8  1  0
  9  8  1  0
 10  9  1  0
 11 12  1  6
 11 10  1  0
 11  7  1  0
 13 12  1  0
 14 16  1  0
 14 13  2  0
 15 13  1  0
 17 11  1  0
 18 17  1  0
 19 18  1  0
 20 19  2  0
 21 20  1  0
 22 23  1  0
 22 21  2  0
 23 24  2  0
 24 19  1  0
  1 25  1  0
  2 26  1  0
  3 27  1  0
  8 28  1  0
  8 29  1  0
  9 30  1  0
  9 31  1  0
 10 32  1  0
 10 33  1  0
 12 34  1  0
 15 35  1  0
 15 36  1  0
 17 37  1  0
 17 38  1  0
 18 39  1  0
 18 40  1  0
 20 41  1  0
 21 42  1  0
 22 43  1  0
 23 44  1  0
 24 45  1  0
M  ISO  8  25  14  26  14  27  14  28  13  29  13  30  13  31  13  32  13
M  ISO  8  33  13  37   8  38   8  39   8  40   8  41  14  42  14  43  14
M  ISO  2  44  14  45  14
M  END
>  <minimizedAffinity>  (1) 
-5.3231535

>  <minimizedRMSD>  (1) 
0.782279372

$$$$
