
     RDKit          3D

 51 53  0  0  1  0  0  0  0  0999 V2000
   40.4780   22.8620   35.3940 C   0  0  0  0  0  0  0  0  0  0  0  0
   40.0710   22.3730   36.6720 C   0  0  0  0  0  0  0  0  0  0  0  0
   39.1190   23.1110   37.3770 C   0  0  0  0  0  0  0  0  0  0  0  0
   38.6280   24.2440   36.8280 N   0  0  0  0  0  0  0  0  0  0  0  0
   39.0220   24.6770   35.6430 C   0  0  0  0  0  0  0  0  0  0  0  0
   39.9400   23.9820   34.9400 N   0  0  0  0  0  0  0  0  0  0  0  0
   38.4890   25.8610   35.1350 N   0  0  0  0  0  0  0  0  0  0  0  0
   38.4590   27.0630   35.8790 C   0  0  0  0  0  0  0  0  0  0  0  0
   37.5060   27.9460   35.2650 C   0  0  0  0  0  0  0  0  0  0  0  0
   36.8670   27.1810   34.1540 C   0  0  0  0  0  0  0  0  0  0  0  0
   37.8820   26.1990   33.8410 C   0  0  2  0  0  0  0  0  0  0  0  0
   37.4810   24.9780   33.2200 N   0  0  0  0  0  0  0  0  0  0  0  0
   36.5680   24.6850   32.2090 C   0  0  0  0  0  0  0  0  0  0  0  0
   35.9550   25.6680   31.6960 N   0  0  0  0  0  0  0  0  0  0  0  0
   36.2580   23.4030   31.6740 N   0  0  0  0  0  0  0  0  0  0  0  0
   35.9230   26.5910   32.0320 H   0  0  0  0  0  0  0  0  0  0  0  0
   39.0360   26.9550   33.2630 C   0  0  0  0  0  0  0  0  0  0  0  0
   39.4650   26.7490   31.8970 C   0  0  0  0  0  0  0  0  0  0  0  0
   38.9450   27.3750   30.6990 C   0  0  0  0  0  0  0  0  0  0  0  0
   40.1530   28.1610   30.0920 C   0  0  0  0  0  0  0  0  0  0  0  0
   39.5790   29.0060   28.9990 C   0  0  0  0  0  0  0  0  0  0  0  0
   38.2190   28.5830   28.5230 C   0  0  0  0  0  0  0  0  0  0  0  0
   37.1830   28.6620   29.6310 C   0  0  0  0  0  0  0  0  0  0  0  0
   37.9400   28.4860   30.9310 C   0  0  0  0  0  0  0  0  0  0  0  0
   41.2251   22.3176   34.7978 H   0  0  0  0  0  0  0  0  0  0  0  0
   40.4934   21.4460   37.0870 H   0  0  0  0  0  0  0  0  0  0  0  0
   38.7732   22.7751   38.3657 H   0  0  0  0  0  0  0  0  0  0  0  0
   38.1575   26.8521   36.9156 H   0  0  0  0  0  0  0  0  0  0  0  0
   39.4558   27.5280   35.8910 H   0  0  0  0  0  0  0  0  0  0  0  0
   36.7468   28.2541   35.9990 H   0  0  0  0  0  0  0  0  0  0  0  0
   37.9952   28.8565   34.8885 H   0  0  0  0  0  0  0  0  0  0  0  0
   35.9345   26.7003   34.4846 H   0  0  0  0  0  0  0  0  0  0  0  0
   36.5752   27.8053   33.2967 H   0  0  0  0  0  0  0  0  0  0  0  0
   37.9626   24.1478   33.5938 H   0  0  0  0  0  0  0  0  0  0  0  0
   35.5594   23.3138   30.9224 H   0  0  0  0  0  0  0  0  0  0  0  0
   36.7322   22.5645   32.0385 H   0  0  0  0  0  0  0  0  0  0  0  0
   38.7840   28.0221   33.3518 H   0  0  0  0  0  0  0  0  0  0  0  0
   39.8875   26.5653   33.8401 H   0  0  0  0  0  0  0  0  0  0  0  0
   40.5363   26.9985   31.9000 H   0  0  0  0  0  0  0  0  0  0  0  0
   39.0628   25.7364   31.7455 H   0  0  0  0  0  0  0  0  0  0  0  0
   38.4774   26.5735   30.1082 H   0  0  0  0  0  0  0  0  0  0  0  0
   40.6231   28.7938   30.8592 H   0  0  0  0  0  0  0  0  0  0  0  0
   40.9304   27.4810   29.7134 H   0  0  0  0  0  0  0  0  0  0  0  0
   39.5059   30.0396   29.3683 H   0  0  0  0  0  0  0  0  0  0  0  0
   40.2551   28.8990   28.1379 H   0  0  0  0  0  0  0  0  0  0  0  0
   37.9095   29.2423   27.6986 H   0  0  0  0  0  0  0  0  0  0  0  0
   38.2838   27.5366   28.1899 H   0  0  0  0  0  0  0  0  0  0  0  0
   36.6789   29.6395   29.6127 H   0  0  0  0  0  0  0  0  0  0  0  0
   36.4082   27.8905   29.5109 H   0  0  0  0  0  0  0  0  0  0  0  0
   37.2473   28.2087   31.7392 H   0  0  0  0  0  0  0  0  0  0  0  0
   38.4411   29.4191   31.2281 H   0  0  0  0  0  0  0  0  0  0  0  0
  1  2  2  0
  2  3  1  0
  4  3  2  0
  5  4  1  0
  6  1  1  0
  6  5  2  0
  7  5  1  0
  7  8  1  0
  9  8  1  0
 10  9  1  0
 11 12  1  6
 11 10  1  0
 11  7  1  0
 13 12  1  0
 14 16  1  0
 14 13  2  0
 15 13  1  0
 17 11  1  0
 18 17  1  0
 19 24  1  0
 19 18  1  0
 20 19  1  0
 21 20  1  0
 22 21  1  0
 22 23  1  0
 23 24  1  0
  1 25  1  0
  2 26  1  0
  3 27  1  0
  8 28  1  0
  8 29  1  0
  9 30  1  0
  9 31  1  0
 10 32  1  0
 10 33  1  0
 12 34  1  0
 15 35  1  0
 15 36  1  0
 17 37  1  0
 17 38  1  0
 18 39  1  0
 18 40  1  0
 19 41  1  0
 20 42  1  0
 20 43  1  0
 21 44  1  0
 21 45  1  0
 22 46  1  0
 22 47  1  0
 23 48  1  0
 23 49  1  0
 24 50  1  0
 24 51  1  0
M  ISO  8  25  14  26  14  27  14  28  13  29  13  30  13  31  13  32  13
M  ISO  8  33  13  37   8  38   8  39   8  40   8  41  13  42  13  43  13
M  ISO  8  44  13  45  13  46  13  47  13  48  13  49  13  50  13  51  13
M  END
>  <minimizedAffinity>  (1) 
-5.17602634

>  <minimizedRMSD>  (1) 
1.03816295

$$$$
