
     RDKit          3D

 41 43  0  0  1  0  0  0  0  0999 V2000
   40.5450   22.8390   35.4240 C   0  0  0  0  0  0  0  0  0  0  0  0
   40.1430   22.3220   36.6910 C   0  0  0  0  0  0  0  0  0  0  0  0
   39.1830   23.0280   37.3960 C   0  0  0  0  0  0  0  0  0  0  0  0
   38.6650   24.1630   36.8760 N   0  0  0  0  0  0  0  0  0  0  0  0
   39.0550   24.6230   35.7000 C   0  0  0  0  0  0  0  0  0  0  0  0
   39.9920   23.9600   34.9760 N   0  0  0  0  0  0  0  0  0  0  0  0
   38.5060   25.8030   35.2130 N   0  0  0  0  0  0  0  0  0  0  0  0
   38.4660   27.0000   35.9830 C   0  0  0  0  0  0  0  0  0  0  0  0
   37.5130   27.8910   35.3690 C   0  0  0  0  0  0  0  0  0  0  0  0
   36.8730   27.1280   34.2460 C   0  0  0  0  0  0  0  0  0  0  0  0
   37.8910   26.1520   33.9220 C   0  0  2  0  0  0  0  0  0  0  0  0
   37.5010   24.9410   33.2800 N   0  0  0  0  0  0  0  0  0  0  0  0
   36.6120   24.6730   32.2430 C   0  0  0  0  0  0  0  0  0  0  0  0
   36.0480   25.6650   31.7050 N   0  0  0  0  0  0  0  0  0  0  0  0
   36.2780   23.4080   31.7230 N   0  0  0  0  0  0  0  0  0  0  0  0
   36.0180   26.5920   32.0440 H   0  0  0  0  0  0  0  0  0  0  0  0
   39.0400   26.9290   33.3540 C   0  0  0  0  0  0  0  0  0  0  0  0
   39.1140   27.3050   31.9640 C   0  0  0  0  0  0  0  0  0  0  0  0
   38.1630   28.0490   31.2430 N   0  0  0  0  0  0  0  0  0  0  0  0
   37.2520   29.0700   31.2920 C   0  0  0  0  0  0  0  0  0  0  0  0
   36.7200   29.2910   30.0800 N   0  0  0  0  0  0  0  0  0  0  0  0
   37.3140   28.3900   29.2720 C   0  0  0  0  0  0  0  0  0  0  0  0
   38.1790   27.6410   29.9580 N   0  0  0  0  0  0  0  0  0  0  0  0
   41.3044   22.3151   34.8249 H   0  0  0  0  0  0  0  0  0  0  0  0
   40.5797   21.3961   37.0934 H   0  0  0  0  0  0  0  0  0  0  0  0
   38.8426   22.6659   38.3773 H   0  0  0  0  0  0  0  0  0  0  0  0
   38.1542   26.7715   37.0128 H   0  0  0  0  0  0  0  0  0  0  0  0
   39.4612   27.4675   36.0160 H   0  0  0  0  0  0  0  0  0  0  0  0
   36.7520   28.1964   36.1023 H   0  0  0  0  0  0  0  0  0  0  0  0
   38.0044   28.8030   34.9991 H   0  0  0  0  0  0  0  0  0  0  0  0
   35.9429   26.6407   34.5738 H   0  0  0  0  0  0  0  0  0  0  0  0
   36.5785   27.7589   33.3944 H   0  0  0  0  0  0  0  0  0  0  0  0
   37.9666   24.1026   33.6557 H   0  0  0  0  0  0  0  0  0  0  0  0
   35.6025   23.3312   30.9492 H   0  0  0  0  0  0  0  0  0  0  0  0
   36.7092   22.5593   32.1163 H   0  0  0  0  0  0  0  0  0  0  0  0
   39.0857   27.8673   33.9262 H   0  0  0  0  0  0  0  0  0  0  0  0
   39.8621   26.2024   33.4331 H   0  0  0  0  0  0  0  0  0  0  0  0
   40.0505   27.8748   31.8724 H   0  0  0  0  0  0  0  0  0  0  0  0
   38.9587   26.3188   31.5022 H   0  0  0  0  0  0  0  0  0  0  0  0
   36.9917   29.6324   32.2008 H   0  0  0  0  0  0  0  0  0  0  0  0
   37.1131   28.2867   28.1954 H   0  0  0  0  0  0  0  0  0  0  0  0
  1  2  2  0
  2  3  1  0
  4  3  2  0
  5  4  1  0
  6  1  1  0
  6  5  2  0
  7  5  1  0
  7  8  1  0
  9  8  1  0
 10  9  1  0
 11 12  1  6
 11 10  1  0
 11  7  1  0
 13 12  1  0
 14 16  1  0
 14 13  2  0
 15 13  1  0
 17 11  1  0
 18 17  1  0
 19 20  1  0
 19 18  1  0
 21 20  2  0
 22 23  2  0
 22 21  1  0
 23 19  1  0
  1 24  1  0
  2 25  1  0
  3 26  1  0
  8 27  1  0
  8 28  1  0
  9 29  1  0
  9 30  1  0
 10 31  1  0
 10 32  1  0
 12 33  1  0
 15 34  1  0
 15 35  1  0
 17 36  1  0
 17 37  1  0
 18 38  1  0
 18 39  1  0
 20 40  1  0
 22 41  1  0
M  ISO  8  24  14  25  14  26  14  27  13  28  13  29  13  30  13  31  13
M  ISO  7  32  13  36   8  37   8  38   8  39   8  40  14  41  14
M  END
>  <minimizedAffinity>  (1) 
-4.81975746

>  <minimizedRMSD>  (1) 
0.702371716

$$$$
