
     RDKit          3D

 42 44  0  0  1  0  0  0  0  0999 V2000
   39.6120   23.2250   35.4200 C   0  0  0  0  0  0  0  0  0  0  0  0
   39.0070   22.8470   36.6560 C   0  0  0  0  0  0  0  0  0  0  0  0
   37.9740   23.6440   37.1450 C   0  0  0  0  0  0  0  0  0  0  0  0
   37.5890   24.7290   36.4380 N   0  0  0  0  0  0  0  0  0  0  0  0
   38.1680   25.0600   35.2910 C   0  0  0  0  0  0  0  0  0  0  0  0
   39.1740   24.3070   34.7880 N   0  0  0  0  0  0  0  0  0  0  0  0
   37.7350   26.1980   34.6140 N   0  0  0  0  0  0  0  0  0  0  0  0
   37.6150   27.4610   35.2450 C   0  0  0  0  0  0  0  0  0  0  0  0
   36.7890   28.3010   34.4240 C   0  0  0  0  0  0  0  0  0  0  0  0
   36.3050   27.4470   33.2970 C   0  0  0  0  0  0  0  0  0  0  0  0
   37.3300   26.4340   33.2250 C   0  0  2  0  0  0  0  0  0  0  0  0
   37.0060   25.1680   32.6490 N   0  0  0  0  0  0  0  0  0  0  0  0
   36.2810   24.8020   31.5150 C   0  0  0  0  0  0  0  0  0  0  0  0
   35.8260   25.7450   30.8040 N   0  0  0  0  0  0  0  0  0  0  0  0
   36.0040   23.4850   31.0570 N   0  0  0  0  0  0  0  0  0  0  0  0
   35.7760   26.6980   31.0400 H   0  0  0  0  0  0  0  0  0  0  0  0
   38.5680   27.1230   32.7590 C   0  0  0  0  0  0  0  0  0  0  0  0
   39.1340   26.9020   31.4450 C   0  0  0  0  0  0  0  0  0  0  0  0
   39.0340   27.7880   30.3310 C   0  0  0  0  0  0  0  0  0  0  0  0
   39.6260   28.7020   29.4860 C   0  0  0  0  0  0  0  0  0  0  0  0
   38.8210   29.2410   28.5680 N   0  0  0  0  0  0  0  0  0  0  0  0
   37.6040   28.7070   28.7480 C   0  0  0  0  0  0  0  0  0  0  0  0
   37.7580   27.8550   29.7930 N   0  0  0  0  0  0  0  0  0  0  0  0
   40.4318   22.6266   34.9959 H   0  0  0  0  0  0  0  0  0  0  0  0
   39.3451   21.9556   37.2047 H   0  0  0  0  0  0  0  0  0  0  0  0
   37.4784   23.3931   38.0944 H   0  0  0  0  0  0  0  0  0  0  0  0
   37.1523   27.3390   36.2355 H   0  0  0  0  0  0  0  0  0  0  0  0
   38.6084   27.9159   35.3722 H   0  0  0  0  0  0  0  0  0  0  0  0
   35.9366   28.6815   35.0059 H   0  0  0  0  0  0  0  0  0  0  0  0
   37.3507   29.1706   34.0520 H   0  0  0  0  0  0  0  0  0  0  0  0
   35.3229   27.0062   33.5231 H   0  0  0  0  0  0  0  0  0  0  0  0
   36.1587   27.9969   32.3556 H   0  0  0  0  0  0  0  0  0  0  0  0
   37.3822   24.3664   33.1752 H   0  0  0  0  0  0  0  0  0  0  0  0
   35.4531   23.3436   30.1982 H   0  0  0  0  0  0  0  0  0  0  0  0
   36.3542   22.6722   31.5839 H   0  0  0  0  0  0  0  0  0  0  0  0
   38.3605   28.2013   32.8247 H   0  0  0  0  0  0  0  0  0  0  0  0
   39.3331   26.6773   33.4117 H   0  0  0  0  0  0  0  0  0  0  0  0
   40.2130   26.7708   31.6137 H   0  0  0  0  0  0  0  0  0  0  0  0
   38.4852   26.0855   31.0952 H   0  0  0  0  0  0  0  0  0  0  0  0
   40.6903   28.9692   29.5631 H   0  0  0  0  0  0  0  0  0  0  0  0
   36.6868   28.9133   28.1768 H   0  0  0  0  0  0  0  0  0  0  0  0
   36.9771   27.2942   30.1627 H   0  0  0  0  0  0  0  0  0  0  0  0
  1  2  2  0
  2  3  1  0
  4  3  2  0
  5  4  1  0
  6  5  2  0
  6  1  1  0
  7  8  1  0
  7  5  1  0
  9  8  1  0
 10  9  1  0
 11 12  1  6
 11 10  1  0
 11  7  1  0
 13 12  1  0
 14 16  1  0
 14 13  2  0
 15 13  1  0
 17 11  1  0
 18 17  1  0
 19 18  1  0
 20 19  2  0
 21 22  2  0
 21 20  1  0
 22 23  1  0
 23 19  1  0
  1 24  1  0
  2 25  1  0
  3 26  1  0
  8 27  1  0
  8 28  1  0
  9 29  1  0
  9 30  1  0
 10 31  1  0
 10 32  1  0
 12 33  1  0
 15 34  1  0
 15 35  1  0
 17 36  1  0
 17 37  1  0
 18 38  1  0
 18 39  1  0
 20 40  1  0
 22 41  1  0
 23 42  1  0
M  ISO  8  24  14  25  14  26  14  27  13  28  13  29  13  30  13  31  13
M  ISO  8  32  13  36   8  37   8  38   8  39   8  40  14  41  14  42   9
M  END
>  <minimizedAffinity>  (1) 
-4.89354849

>  <minimizedRMSD>  (1) 
1.2914443

$$$$
