
     RDKit          3D

 53 56  0  0  1  0  0  0  0  0999 V2000
   40.6560   22.6330   35.4940 C   0  0  0  0  0  0  0  0  0  0  0  0
   40.2990   22.1670   36.7740 C   0  0  0  0  0  0  0  0  0  0  0  0
   39.3690   22.9070   37.4760 C   0  0  0  0  0  0  0  0  0  0  0  0
   38.8470   24.0260   36.9230 N   0  0  0  0  0  0  0  0  0  0  0  0
   39.1900   24.4480   35.7270 C   0  0  0  0  0  0  0  0  0  0  0  0
   40.0950   23.7390   35.0290 N   0  0  0  0  0  0  0  0  0  0  0  0
   38.6440   25.6080   35.2040 N   0  0  0  0  0  0  0  0  0  0  0  0
   38.6380   26.8210   35.9140 C   0  0  0  0  0  0  0  0  0  0  0  0
   37.6860   27.6850   35.3290 C   0  0  0  0  0  0  0  0  0  0  0  0
   36.9950   26.8970   34.2410 C   0  0  0  0  0  0  0  0  0  0  0  0
   38.0040   25.9430   33.9170 C   0  0  2  0  0  0  0  0  0  0  0  0
   37.6230   24.6800   33.3360 N   0  0  0  0  0  0  0  0  0  0  0  0
   36.6730   24.3550   32.3490 C   0  0  0  0  0  0  0  0  0  0  0  0
   36.0680   25.3270   31.7920 N   0  0  0  0  0  0  0  0  0  0  0  0
   36.3130   23.0610   31.8860 N   0  0  0  0  0  0  0  0  0  0  0  0
   36.0670   26.2430   32.0650 H   0  0  0  0  0  0  0  0  0  0  0  0
   39.1410   26.6840   33.2990 C   0  0  0  0  0  0  0  0  0  0  0  0
   39.1720   26.9350   31.8560 C   0  0  0  0  0  0  0  0  0  0  0  0
   38.3890   27.9000   31.1370 C   0  0  0  0  0  0  0  0  0  0  0  0
   38.7410   27.8190   29.7260 C   0  0  0  0  0  0  0  0  0  0  0  0
   37.6450   29.0920   28.9830 S   0  0  0  0  0  0  0  0  0  0  0  0
   36.8800   29.5520   30.5980 C   0  0  0  0  0  0  0  0  0  0  0  0
   37.4950   28.7630   31.4040 N   0  0  0  0  0  0  0  0  0  0  0  0
   35.8620   30.5490   30.7160 N   0  0  0  0  0  0  0  0  0  0  0  0
   34.5530   30.7640   31.3060 C   0  0  0  0  0  0  0  0  0  0  0  0
   34.6570   32.1420   31.9490 C   0  0  0  0  0  0  0  0  0  0  0  0
   35.9550   32.7240   31.3750 C   0  0  0  0  0  0  0  0  0  0  0  0
   36.0390   31.8740   30.0990 C   0  0  0  0  0  0  0  0  0  0  0  0
   41.3921   22.0849   34.8875 H   0  0  0  0  0  0  0  0  0  0  0  0
   40.7420   21.2529   37.1961 H   0  0  0  0  0  0  0  0  0  0  0  0
   39.0537   22.5884   38.4805 H   0  0  0  0  0  0  0  0  0  0  0  0
   38.3710   26.6334   36.9645 H   0  0  0  0  0  0  0  0  0  0  0  0
   39.6358   27.2823   35.8750 H   0  0  0  0  0  0  0  0  0  0  0  0
   36.9551   28.0104   36.0839 H   0  0  0  0  0  0  0  0  0  0  0  0
   38.1676   28.5855   34.9202 H   0  0  0  0  0  0  0  0  0  0  0  0
   36.0817   26.4093   34.6127 H   0  0  0  0  0  0  0  0  0  0  0  0
   36.6518   27.5026   33.3893 H   0  0  0  0  0  0  0  0  0  0  0  0
   38.1380   23.8702   33.7099 H   0  0  0  0  0  0  0  0  0  0  0  0
   35.5970   22.9571   31.1529 H   0  0  0  0  0  0  0  0  0  0  0  0
   36.7680   22.2268   32.2835 H   0  0  0  0  0  0  0  0  0  0  0  0
   39.1796   27.6675   33.7902 H   0  0  0  0  0  0  0  0  0  0  0  0
   39.9900   26.0006   33.4481 H   0  0  0  0  0  0  0  0  0  0  0  0
   40.2178   27.1940   31.6340 H   0  0  0  0  0  0  0  0  0  0  0  0
   38.6902   26.0117   31.5018 H   0  0  0  0  0  0  0  0  0  0  0  0
   39.4743   27.1642   29.2325 H   0  0  0  0  0  0  0  0  0  0  0  0
   33.7698   30.7515   30.5338 H   0  0  0  0  0  0  0  0  0  0  0  0
   34.2817   29.9803   32.0286 H   0  0  0  0  0  0  0  0  0  0  0  0
   33.7941   32.7669   31.6755 H   0  0  0  0  0  0  0  0  0  0  0  0
   34.6639   32.0963   33.0480 H   0  0  0  0  0  0  0  0  0  0  0  0
   35.8655   33.7976   31.1530 H   0  0  0  0  0  0  0  0  0  0  0  0
   36.8324   32.6807   32.0371 H   0  0  0  0  0  0  0  0  0  0  0  0
   37.0131   31.9722   29.5975 H   0  0  0  0  0  0  0  0  0  0  0  0
   35.3260   32.1320   29.3021 H   0  0  0  0  0  0  0  0  0  0  0  0
  1  2  2  0
  2  3  1  0
  4  3  2  0
  5  4  1  0
  6  1  1  0
  6  5  2  0
  7  5  1  0
  7  8  1  0
  9  8  1  0
 10  9  1  0
 11 17  1  0
 11 10  1  0
 11  7  1  0
 11 12  1  6
 13 12  1  0
 14 16  1  0
 14 13  2  0
 15 13  1  0
 18 17  1  0
 19 23  1  0
 19 18  1  0
 20 19  2  0
 21 20  1  0
 21 22  1  0
 22 24  1  0
 22 23  2  0
 24 25  1  0
 25 26  1  0
 27 26  1  0
 28 24  1  0
 28 27  1  0
  1 29  1  0
  2 30  1  0
  3 31  1  0
  8 32  1  0
  8 33  1  0
  9 34  1  0
  9 35  1  0
 10 36  1  0
 10 37  1  0
 12 38  1  0
 15 39  1  0
 15 40  1  0
 17 41  1  0
 17 42  1  0
 18 43  1  0
 18 44  1  0
 20 45  1  0
 25 46  1  0
 25 47  1  0
 26 48  1  0
 26 49  1  0
 27 50  1  0
 27 51  1  0
 28 52  1  0
 28 53  1  0
M  ISO  8  29  14  30  14  31  14  32  13  33  13  34  13  35  13  36  13
M  ISO  8  37  13  41   8  42   8  43   8  44   8  45  14  46  13  47  13
M  ISO  6  48  13  49  13  50  13  51  13  52  13  53  13
M  END
>  <minimizedAffinity>  (1) 
-5.52888536

>  <minimizedRMSD>  (1) 
0.963859081

$$$$
