
     RDKit          3D

 44 46  0  0  1  0  0  0  0  0999 V2000
   40.5840   22.7290   35.4370 C   0  0  0  0  0  0  0  0  0  0  0  0
   40.1940   22.1990   36.6710 C   0  0  0  0  0  0  0  0  0  0  0  0
   39.2480   22.9240   37.3970 C   0  0  0  0  0  0  0  0  0  0  0  0
   38.7590   24.0800   36.8940 N   0  0  0  0  0  0  0  0  0  0  0  0
   39.1470   24.5570   35.7250 C   0  0  0  0  0  0  0  0  0  0  0  0
   40.0560   23.8690   35.0140 N   0  0  0  0  0  0  0  0  0  0  0  0
   38.6320   25.7510   35.2460 N   0  0  0  0  0  0  0  0  0  0  0  0
   38.6250   26.9240   36.0110 C   0  0  0  0  0  0  0  0  0  0  0  0
   37.7050   27.8350   35.4460 C   0  0  0  0  0  0  0  0  0  0  0  0
   37.0220   27.1070   34.3160 C   0  0  0  0  0  0  0  0  0  0  0  0
   38.0310   26.1570   33.9610 C   0  0  2  0  0  0  0  0  0  0  0  0
   37.6350   24.9270   33.3160 N   0  0  0  0  0  0  0  0  0  0  0  0
   36.6820   24.6600   32.3140 C   0  0  0  0  0  0  0  0  0  0  0  0
   36.0890   25.6670   31.8070 N   0  0  0  0  0  0  0  0  0  0  0  0
   36.3000   23.4030   31.7860 N   0  0  0  0  0  0  0  0  0  0  0  0
   36.0970   26.5690   32.1230 H   0  0  0  0  0  0  0  0  0  0  0  0
   39.1820   26.9110   33.4050 C   0  0  0  0  0  0  0  0  0  0  0  0
   39.2920   27.1040   31.9530 C   0  0  0  0  0  0  0  0  0  0  0  0
   38.4650   27.9300   31.1400 C   0  0  0  0  0  0  0  0  0  0  0  0
   38.8990   27.8440   29.7610 C   0  0  0  0  0  0  0  0  0  0  0  0
   37.7100   28.9120   28.8820 S   0  0  0  0  0  0  0  0  0  0  0  0
   36.7840   29.3420   30.4360 C   0  0  0  0  0  0  0  0  0  0  0  0
   37.4510   28.6760   31.3060 N   0  0  0  0  0  0  0  0  0  0  0  0
   35.5940   30.1750   30.8650 C   0  0  0  0  0  0  0  0  0  0  0  0
   34.7430   29.9830   31.7450 O   0  0  0  0  0  0  0  0  0  0  0  0
   35.5480   31.3280   30.0660 O   0  0  0  0  0  0  0  0  0  0  0  0
   41.3262   22.2018   34.8196 H   0  0  0  0  0  0  0  0  0  0  0  0
   40.6129   21.2556   37.0513 H   0  0  0  0  0  0  0  0  0  0  0  0
   38.9016   22.5566   38.3743 H   0  0  0  0  0  0  0  0  0  0  0  0
   38.3255   26.6896   37.0432 H   0  0  0  0  0  0  0  0  0  0  0  0
   39.6311   27.3685   36.0196 H   0  0  0  0  0  0  0  0  0  0  0  0
   36.9663   28.1458   36.1995 H   0  0  0  0  0  0  0  0  0  0  0  0
   38.2128   28.7419   35.0860 H   0  0  0  0  0  0  0  0  0  0  0  0
   36.0996   26.6112   34.6527 H   0  0  0  0  0  0  0  0  0  0  0  0
   36.6945   27.7542   33.4891 H   0  0  0  0  0  0  0  0  0  0  0  0
   38.1413   24.0942   33.6491 H   0  0  0  0  0  0  0  0  0  0  0  0
   35.5830   23.3506   31.0484 H   0  0  0  0  0  0  0  0  0  0  0  0
   36.7391   22.5410   32.1395 H   0  0  0  0  0  0  0  0  0  0  0  0
   39.1566   27.9126   33.8590 H   0  0  0  0  0  0  0  0  0  0  0  0
   40.0459   26.2738   33.6451 H   0  0  0  0  0  0  0  0  0  0  0  0
   40.3141   27.4773   31.7917 H   0  0  0  0  0  0  0  0  0  0  0  0
   38.9491   26.1156   31.6133 H   0  0  0  0  0  0  0  0  0  0  0  0
   39.7418   27.2728   29.3445 H   0  0  0  0  0  0  0  0  0  0  0  0
   34.8311   31.9969   30.2029 H   0  0  0  0  0  0  0  0  0  0  0  0
  1  2  2  0
  2  3  1  0
  4  3  2  0
  5  4  1  0
  6  1  1  0
  6  5  2  0
  7  5  1  0
  7  8  1  0
  9  8  1  0
 10  9  1  0
 11 12  1  6
 11 10  1  0
 11  7  1  0
 13 12  1  0
 14 16  1  0
 14 13  2  0
 15 13  1  0
 17 11  1  0
 18 17  1  0
 19 23  1  0
 19 18  1  0
 20 19  2  0
 21 20  1  0
 21 22  1  0
 22 24  1  0
 22 23  2  0
 24 25  2  0
 26 24  1  0
  1 27  1  0
  2 28  1  0
  3 29  1  0
  8 30  1  0
  8 31  1  0
  9 32  1  0
  9 33  1  0
 10 34  1  0
 10 35  1  0
 12 36  1  0
 15 37  1  0
 15 38  1  0
 17 39  1  0
 17 40  1  0
 18 41  1  0
 18 42  1  0
 20 43  1  0
 26 44  1  0
M  ISO  8  27  14  28  14  29  14  30  13  31  13  32  13  33  13  34  13
M  ISO  7  35  13  39   8  40   8  41   8  42   8  43  14  44   3
M  END
>  <minimizedAffinity>  (1) 
-5.43356991

>  <minimizedRMSD>  (1) 
0.549038827

$$$$
