
     RDKit          3D

 50 52  0  0  1  0  0  0  0  0999 V2000
   40.6300   22.6900   35.5160 C   0  0  0  0  0  0  0  0  0  0  0  0
   40.2420   22.1800   36.7570 C   0  0  0  0  0  0  0  0  0  0  0  0
   39.2980   22.9140   37.4730 C   0  0  0  0  0  0  0  0  0  0  0  0
   38.8170   24.0530   36.9420 N   0  0  0  0  0  0  0  0  0  0  0  0
   39.1910   24.5200   35.7720 C   0  0  0  0  0  0  0  0  0  0  0  0
   40.1010   23.8210   35.0730 N   0  0  0  0  0  0  0  0  0  0  0  0
   38.6760   25.7040   35.2720 N   0  0  0  0  0  0  0  0  0  0  0  0
   38.6700   26.8920   36.0200 C   0  0  0  0  0  0  0  0  0  0  0  0
   37.7450   27.7890   35.4430 C   0  0  0  0  0  0  0  0  0  0  0  0
   37.0650   27.0430   34.3200 C   0  0  0  0  0  0  0  0  0  0  0  0
   38.0740   26.0920   33.9820 C   0  0  2  0  0  0  0  0  0  0  0  0
   37.6830   24.8510   33.3550 N   0  0  0  0  0  0  0  0  0  0  0  0
   36.7350   24.5690   32.3520 C   0  0  0  0  0  0  0  0  0  0  0  0
   36.1430   25.5710   31.8300 N   0  0  0  0  0  0  0  0  0  0  0  0
   36.3600   23.3040   31.8400 N   0  0  0  0  0  0  0  0  0  0  0  0
   36.1480   26.4770   32.1320 H   0  0  0  0  0  0  0  0  0  0  0  0
   39.2340   26.8350   33.4160 C   0  0  0  0  0  0  0  0  0  0  0  0
   39.3260   27.0440   31.9670 C   0  0  0  0  0  0  0  0  0  0  0  0
   38.4980   27.8910   31.1730 C   0  0  0  0  0  0  0  0  0  0  0  0
   38.8770   27.7800   29.7820 C   0  0  0  0  0  0  0  0  0  0  0  0
   37.7000   28.8850   28.9330 S   0  0  0  0  0  0  0  0  0  0  0  0
   36.8450   29.3620   30.5150 C   0  0  0  0  0  0  0  0  0  0  0  0
   37.5210   28.6740   31.3720 N   0  0  0  0  0  0  0  0  0  0  0  0
   35.7190   30.2690   30.7070 C   0  0  0  0  0  0  0  0  0  0  0  0
   36.1030   31.7150   30.7780 C   0  0  0  0  0  0  0  0  0  0  0  0
   34.9850   29.9280   32.0060 C   0  0  0  0  0  0  0  0  0  0  0  0
   41.3732   22.1537   34.9077 H   0  0  0  0  0  0  0  0  0  0  0  0
   40.6619   21.2427   37.1509 H   0  0  0  0  0  0  0  0  0  0  0  0
   38.9513   22.5673   38.4577 H   0  0  0  0  0  0  0  0  0  0  0  0
   38.3758   26.6741   37.0573 H   0  0  0  0  0  0  0  0  0  0  0  0
   39.6749   27.3394   36.0184 H   0  0  0  0  0  0  0  0  0  0  0  0
   37.0042   28.1047   36.1924 H   0  0  0  0  0  0  0  0  0  0  0  0
   38.2482   28.6937   35.0712 H   0  0  0  0  0  0  0  0  0  0  0  0
   36.1425   26.5506   34.6613 H   0  0  0  0  0  0  0  0  0  0  0  0
   36.7386   27.6779   33.4832 H   0  0  0  0  0  0  0  0  0  0  0  0
   38.1879   24.0238   33.7038 H   0  0  0  0  0  0  0  0  0  0  0  0
   35.6466   23.2388   31.0999 H   0  0  0  0  0  0  0  0  0  0  0  0
   36.8005   22.4485   32.2075 H   0  0  0  0  0  0  0  0  0  0  0  0
   39.2332   27.8311   33.8826 H   0  0  0  0  0  0  0  0  0  0  0  0
   40.0897   26.1795   33.6351 H   0  0  0  0  0  0  0  0  0  0  0  0
   40.3505   27.4061   31.7961 H   0  0  0  0  0  0  0  0  0  0  0  0
   38.9646   26.0643   31.6211 H   0  0  0  0  0  0  0  0  0  0  0  0
   39.6824   27.1741   29.3413 H   0  0  0  0  0  0  0  0  0  0  0  0
   35.0828   30.1290   29.8207 H   0  0  0  0  0  0  0  0  0  0  0  0
   36.1844   32.0215   31.8313 H   0  0  0  0  0  0  0  0  0  0  0  0
   37.0714   31.8622   30.2774 H   0  0  0  0  0  0  0  0  0  0  0  0
   35.3353   32.3233   30.2774 H   0  0  0  0  0  0  0  0  0  0  0  0
   35.6074   30.2172   32.8656 H   0  0  0  0  0  0  0  0  0  0  0  0
   34.0316   30.4754   32.0430 H   0  0  0  0  0  0  0  0  0  0  0  0
   34.7884   28.8463   32.0430 H   0  0  0  0  0  0  0  0  0  0  0  0
  1  2  2  0
  2  3  1  0
  4  3  2  0
  5  4  1  0
  6  1  1  0
  6  5  2  0
  7  5  1  0
  7  8  1  0
  9  8  1  0
 10  9  1  0
 11 12  1  6
 11 10  1  0
 11  7  1  0
 13 12  1  0
 14 16  1  0
 14 13  2  0
 15 13  1  0
 17 11  1  0
 18 17  1  0
 19 23  1  0
 19 18  1  0
 20 19  2  0
 21 20  1  0
 21 22  1  0
 22 24  1  0
 22 23  2  0
 24 25  1  0
 24 26  1  0
  1 27  1  0
  2 28  1  0
  3 29  1  0
  8 30  1  0
  8 31  1  0
  9 32  1  0
  9 33  1  0
 10 34  1  0
 10 35  1  0
 12 36  1  0
 15 37  1  0
 15 38  1  0
 17 39  1  0
 17 40  1  0
 18 41  1  0
 18 42  1  0
 20 43  1  0
 24 44  1  0
 25 45  1  0
 25 46  1  0
 25 47  1  0
 26 48  1  0
 26 49  1  0
 26 50  1  0
M  ISO  8  27  14  28  14  29  14  30  13  31  13  32  13  33  13  34  13
M  ISO  8  35  13  39   8  40   8  41   8  42   8  43  14  44   8  45   8
M  ISO  5  46   8  47   8  48   8  49   8  50   8
M  END
>  <minimizedAffinity>  (1) 
-5.27098989

>  <minimizedRMSD>  (1) 
0.602573931

$$$$
