
     RDKit          3D

 32 34  0  0  0  0  0  0  0  0999 V2000
   40.4180   23.0790   35.3960 C   0  0  0  0  0  0  0  0  0  0  0  0
   39.7370   22.7940   36.5760 C   0  0  0  0  0  0  0  0  0  0  0  0
   38.3320   22.8280   36.5660 C   0  0  0  0  0  0  0  0  0  0  0  0
   37.6690   23.1380   35.3980 N   0  0  0  0  0  0  0  0  0  0  0  0
   38.3920   23.4070   34.2770 C   0  0  0  0  0  0  0  0  0  0  0  0
   39.7480   23.3790   34.2710 N   0  0  0  0  0  0  0  0  0  0  0  0
   37.5020   22.5770   37.6740 N   0  0  0  0  0  0  0  0  0  0  0  0
   37.6240   23.7230   33.1040 N   0  0  0  0  0  0  0  0  0  0  0  0
   37.5390   24.8900   32.4910 N   0  0  0  0  0  0  0  0  0  0  0  0
   36.7280   24.8250   31.4190 C   0  0  0  0  0  0  0  0  0  0  0  0
   36.2870   23.4840   31.3930 C   0  0  0  0  0  0  0  0  0  0  0  0
   36.8690   22.8190   32.4680 C   0  0  0  0  0  0  0  0  0  0  0  0
   36.6170   21.4000   32.7310 C   0  0  0  0  0  0  0  0  0  0  0  0
   35.1170   21.0870   32.6600 C   0  0  0  0  0  0  0  0  0  0  0  0
   35.0600   19.5900   32.3730 C   0  0  0  0  0  0  0  0  0  0  0  0
   36.4750   19.1580   32.0750 C   0  0  0  0  0  0  0  0  0  0  0  0
   37.1340   20.4650   31.6720 C   0  0  0  0  0  0  0  0  0  0  0  0
   41.5177   23.0583   35.3845 H   0  0  0  0  0  0  0  0  0  0  0  0
   40.2866   22.5475   37.4964 H   0  0  0  0  0  0  0  0  0  0  0  0
   36.4782   22.6249   37.5719 H   0  0  0  0  0  0  0  0  0  0  0  0
   37.9182   22.3454   38.5873 H   0  0  0  0  0  0  0  0  0  0  0  0
   36.4675   25.6340   30.7207 H   0  0  0  0  0  0  0  0  0  0  0  0
   35.6034   23.0424   30.6529 H   0  0  0  0  0  0  0  0  0  0  0  0
   37.1021   21.2499   33.7068 H   0  0  0  0  0  0  0  0  0  0  0  0
   34.6242   21.3200   33.6155 H   0  0  0  0  0  0  0  0  0  0  0  0
   34.5982   21.6827   31.8945 H   0  0  0  0  0  0  0  0  0  0  0  0
   34.6740   19.0492   33.2496 H   0  0  0  0  0  0  0  0  0  0  0  0
   34.3905   19.3716   31.5280 H   0  0  0  0  0  0  0  0  0  0  0  0
   36.9560   18.7273   32.9656 H   0  0  0  0  0  0  0  0  0  0  0  0
   36.5437   18.3745   31.3060 H   0  0  0  0  0  0  0  0  0  0  0  0
   38.2309   20.3887   31.7040 H   0  0  0  0  0  0  0  0  0  0  0  0
   36.9080   20.7830   30.6435 H   0  0  0  0  0  0  0  0  0  0  0  0
  1  2  2  0
  3  2  1  0
  3  7  1  0
  4  3  2  0
  5  4  1  0
  6  5  2  0
  6  1  1  0
  8  5  1  0
  9  8  1  0
 10  9  2  0
 11 10  1  0
 11 12  2  0
 12 13  1  0
 12  8  1  0
 14 13  1  0
 15 14  1  0
 16 15  1  0
 17 16  1  0
 17 13  1  0
  1 18  1  0
  2 19  1  0
  7 20  1  0
  7 21  1  0
 10 22  1  0
 11 23  1  0
 13 24  1  0
 14 25  1  0
 14 26  1  0
 15 27  1  0
 15 28  1  0
 16 29  1  0
 16 30  1  0
 17 31  1  0
 17 32  1  0
M  ISO  8  18  14  19  14  22  14  23  14  24  13  25  13  26  13  27  13
M  ISO  5  28  13  29  13  30  13  31  13  32  13
M  END
>  <minimizedAffinity>  (1) 
-4.66291523

>  <minimizedRMSD>  (1) 
3.53070498

$$$$
