
     RDKit          3D

 21 22  0  0  0  0  0  0  0  0999 V2000
   40.2120   22.2250   37.1000 C   0  0  0  0  0  0  0  0  0  0  0  0
   39.7290   23.1740   38.0090 C   0  0  0  0  0  0  0  0  0  0  0  0
   38.4310   23.6320   37.8640 C   0  0  0  0  0  0  0  0  0  0  0  0
   37.6650   23.1490   36.8450 N   0  0  0  0  0  0  0  0  0  0  0  0
   38.1540   22.2290   35.9760 C   0  0  0  0  0  0  0  0  0  0  0  0
   39.4190   21.7790   36.1120 N   0  0  0  0  0  0  0  0  0  0  0  0
   37.7980   24.5880   38.7000 N   0  0  0  0  0  0  0  0  0  0  0  0
   37.2760   21.7830   34.9400 N   0  0  0  0  0  0  0  0  0  0  0  0
   37.3940   22.0170   33.6370 N   0  0  0  0  0  0  0  0  0  0  0  0
   36.3720   21.4340   32.9700 C   0  0  0  0  0  0  0  0  0  0  0  0
   35.5860   20.8050   33.9520 C   0  0  0  0  0  0  0  0  0  0  0  0
   36.1780   21.0390   35.1950 C   0  0  0  0  0  0  0  0  0  0  0  0
   35.6690   20.5600   36.4350 N   0  0  0  0  0  0  0  0  0  0  0  0
   41.2399   21.8450   37.1949 H   0  0  0  0  0  0  0  0  0  0  0  0
   40.3684   23.5481   38.8222 H   0  0  0  0  0  0  0  0  0  0  0  0
   36.8247   24.8698   38.5150 H   0  0  0  0  0  0  0  0  0  0  0  0
   38.3118   25.0002   39.4919 H   0  0  0  0  0  0  0  0  0  0  0  0
   36.1928   21.4488   31.8848 H   0  0  0  0  0  0  0  0  0  0  0  0
   34.6659   20.2294   33.7725 H   0  0  0  0  0  0  0  0  0  0  0  0
   34.8066   19.9972   36.4548 H   0  0  0  0  0  0  0  0  0  0  0  0
   36.1631   20.7762   37.3125 H   0  0  0  0  0  0  0  0  0  0  0  0
  1  2  2  0
  3  2  1  0
  3  7  1  0
  4  3  2  0
  5  6  2  0
  5  4  1  0
  6  1  1  0
  8 12  1  0
  8  5  1  0
  9  8  1  0
 10  9  2  0
 10 11  1  0
 11 12  2  0
 12 13  1  0
  1 14  1  0
  2 15  1  0
  7 16  1  0
  7 17  1  0
 10 18  1  0
 11 19  1  0
 13 20  1  0
 13 21  1  0
M  ISO  4  14  14  15  14  18  14  19  14
M  END
>  <minimizedAffinity>  (1) 
-4.62161064

>  <minimizedRMSD>  (1) 
0.133620039

$$$$
