
     RDKit          3D

 26 28  0  0  0  0  0  0  0  0999 V2000
   41.4940   21.6470   36.2800 C   0  0  0  0  0  0  0  0  0  0  0  0
   40.9110   21.8790   37.5440 C   0  0  0  0  0  0  0  0  0  0  0  0
   39.7860   22.6830   37.6190 C   0  0  0  0  0  0  0  0  0  0  0  0
   39.2780   23.2250   36.4650 N   0  0  0  0  0  0  0  0  0  0  0  0
   39.8740   22.9740   35.2630 C   0  0  0  0  0  0  0  0  0  0  0  0
   40.9620   22.1990   35.1670 N   0  0  0  0  0  0  0  0  0  0  0  0
   39.0930   23.0180   38.7970 N   0  0  0  0  0  0  0  0  0  0  0  0
   39.2500   23.5960   34.1220 N   0  0  0  0  0  0  0  0  0  0  0  0
   39.7510   24.5680   33.3830 N   0  0  0  0  0  0  0  0  0  0  0  0
   38.8860   24.9000   32.3980 C   0  0  0  0  0  0  0  0  0  0  0  0
   37.7830   24.0600   32.5630 C   0  0  0  0  0  0  0  0  0  0  0  0
   38.0360   23.2430   33.6600 C   0  0  0  0  0  0  0  0  0  0  0  0
   37.1890   22.2010   34.2310 C   0  0  0  0  0  0  0  0  0  0  0  0
   36.4750   21.2490   33.5310 C   0  0  0  0  0  0  0  0  0  0  0  0
   35.8010   20.4490   34.4290 C   0  0  0  0  0  0  0  0  0  0  0  0
   36.1460   20.9680   35.6590 C   0  0  0  0  0  0  0  0  0  0  0  0
   36.9500   21.9820   35.5150 O   0  0  0  0  0  0  0  0  0  0  0  0
   42.3885   21.0118   36.2000 H   0  0  0  0  0  0  0  0  0  0  0  0
   41.3415   21.4303   38.4514 H   0  0  0  0  0  0  0  0  0  0  0  0
   38.2627   23.6258   38.7509 H   0  0  0  0  0  0  0  0  0  0  0  0
   39.4161   22.6554   39.7053 H   0  0  0  0  0  0  0  0  0  0  0  0
   39.0230   25.6720   31.6265 H   0  0  0  0  0  0  0  0  0  0  0  0
   36.8776   24.0467   31.9384 H   0  0  0  0  0  0  0  0  0  0  0  0
   36.4483   21.1457   32.4362 H   0  0  0  0  0  0  0  0  0  0  0  0
   35.1414   19.5953   34.2142 H   0  0  0  0  0  0  0  0  0  0  0  0
   35.7919   20.5801   36.6255 H   0  0  0  0  0  0  0  0  0  0  0  0
  1  2  2  0
  2  3  1  0
  3  7  1  0
  4  3  2  0
  5  4  1  0
  6  5  2  0
  6  1  1  0
  8  5  1  0
  9  8  1  0
 10 11  1  0
 10  9  2  0
 11 12  2  0
 12  8  1  0
 12 13  1  0
 13 17  1  0
 14 13  2  0
 14 15  1  0
 15 16  2  0
 17 16  1  0
  1 18  1  0
  2 19  1  0
  7 20  1  0
  7 21  1  0
 10 22  1  0
 11 23  1  0
 14 24  1  0
 15 25  1  0
 16 26  1  0
M  ISO  7  18  14  19  14  22  14  23  14  24  14  25  14  26  14
M  END
>  <minimizedAffinity>  (1) 
-4.55818081

>  <minimizedRMSD>  (1) 
2.98468804

$$$$
