
     RDKit          3D

 27 29  0  0  0  0  0  0  0  0999 V2000
   37.6790   24.9930   36.1280 C   0  0  0  0  0  0  0  0  0  0  0  0
   37.8760   24.5770   37.4600 C   0  0  0  0  0  0  0  0  0  0  0  0
   38.6880   23.4590   37.6990 C   0  0  0  0  0  0  0  0  0  0  0  0
   39.2490   22.8320   36.6290 N   0  0  0  0  0  0  0  0  0  0  0  0
   39.0400   23.2590   35.3580 C   0  0  0  0  0  0  0  0  0  0  0  0
   38.2650   24.3240   35.1240 N   0  0  0  0  0  0  0  0  0  0  0  0
   38.9930   22.9080   38.9590 N   0  0  0  0  0  0  0  0  0  0  0  0
   39.6870   22.5100   34.3160 N   0  0  0  0  0  0  0  0  0  0  0  0
   39.0750   21.7550   33.3950 N   0  0  0  0  0  0  0  0  0  0  0  0
   39.9850   21.2000   32.5740 C   0  0  0  0  0  0  0  0  0  0  0  0
   41.2200   21.6480   33.0290 C   0  0  0  0  0  0  0  0  0  0  0  0
   41.0130   22.4840   34.1400 C   0  0  0  0  0  0  0  0  0  0  0  0
   42.0450   23.1630   34.9170 C   0  0  0  0  0  0  0  0  0  0  0  0
   42.2860   24.5010   34.6750 C   0  0  0  0  0  0  0  0  0  0  0  0
   43.2730   25.1280   35.4270 C   0  0  0  0  0  0  0  0  0  0  0  0
   43.9870   24.4810   36.3660 N   0  0  0  0  0  0  0  0  0  0  0  0
   43.7280   23.1620   36.5840 C   0  0  0  0  0  0  0  0  0  0  0  0
   42.7720   22.5360   35.8620 N   0  0  0  0  0  0  0  0  0  0  0  0
   37.0452   25.8657   35.9119 H   0  0  0  0  0  0  0  0  0  0  0  0
   37.4034   25.1172   38.2935 H   0  0  0  0  0  0  0  0  0  0  0  0
   39.6030   22.0807   39.0253 H   0  0  0  0  0  0  0  0  0  0  0  0
   38.6060   23.3324   39.8140 H   0  0  0  0  0  0  0  0  0  0  0  0
   39.7923   20.5319   31.7216 H   0  0  0  0  0  0  0  0  0  0  0  0
   42.1964   21.3911   32.5924 H   0  0  0  0  0  0  0  0  0  0  0  0
   41.7160   25.0523   33.9127 H   0  0  0  0  0  0  0  0  0  0  0  0
   43.4780   26.1937   35.2474 H   0  0  0  0  0  0  0  0  0  0  0  0
   44.2954   22.6073   37.3458 H   0  0  0  0  0  0  0  0  0  0  0  0
  1  2  2  0
  2  3  1  0
  3  7  1  0
  4  3  2  0
  5  4  1  0
  6  5  2  0
  6  1  1  0
  8  5  1  0
  9  8  1  0
 10 11  1  0
 10  9  2  0
 11 12  2  0
 12  8  1  0
 12 13  1  0
 13 18  1  0
 14 13  2  0
 14 15  1  0
 15 16  2  0
 16 17  1  0
 18 17  2  0
  1 19  1  0
  2 20  1  0
  7 21  1  0
  7 22  1  0
 10 23  1  0
 11 24  1  0
 14 25  1  0
 15 26  1  0
 17 27  1  0
M  ISO  7  19  14  20  14  23  14  24  14  25  14  26  14  27  14
M  END
>  <minimizedAffinity>  (1) 
-4.31852913

>  <minimizedRMSD>  (1) 
5.85196781

$$$$
