
     RDKit          3D

 26 28  0  0  0  0  0  0  0  0999 V2000
   41.4140   21.5880   36.3040 C   0  0  0  0  0  0  0  0  0  0  0  0
   40.8910   21.8910   37.5600 C   0  0  0  0  0  0  0  0  0  0  0  0
   39.7370   22.6870   37.6360 C   0  0  0  0  0  0  0  0  0  0  0  0
   39.1810   23.1270   36.4750 N   0  0  0  0  0  0  0  0  0  0  0  0
   39.7080   22.8190   35.2760 C   0  0  0  0  0  0  0  0  0  0  0  0
   40.8190   22.0520   35.1880 N   0  0  0  0  0  0  0  0  0  0  0  0
   39.0970   23.0770   38.8250 N   0  0  0  0  0  0  0  0  0  0  0  0
   39.0310   23.3420   34.1160 N   0  0  0  0  0  0  0  0  0  0  0  0
   39.5100   24.2620   33.2740 N   0  0  0  0  0  0  0  0  0  0  0  0
   38.5950   24.5070   32.3030 C   0  0  0  0  0  0  0  0  0  0  0  0
   37.5130   23.6820   32.5900 C   0  0  0  0  0  0  0  0  0  0  0  0
   37.8060   22.9450   33.7490 C   0  0  0  0  0  0  0  0  0  0  0  0
   36.9580   21.9610   34.4090 C   0  0  0  0  0  0  0  0  0  0  0  0
   36.7350   21.8990   35.7700 C   0  0  0  0  0  0  0  0  0  0  0  0
   35.8750   20.8320   36.0240 C   0  0  0  0  0  0  0  0  0  0  0  0
   35.6010   20.2760   34.8070 N   0  0  0  0  0  0  0  0  0  0  0  0
   36.2450   20.9520   33.8750 N   0  0  0  0  0  0  0  0  0  0  0  0
   42.3179   20.9663   36.2236 H   0  0  0  0  0  0  0  0  0  0  0  0
   41.3731   21.5138   38.4739 H   0  0  0  0  0  0  0  0  0  0  0  0
   38.2517   23.6643   38.7862 H   0  0  0  0  0  0  0  0  0  0  0  0
   39.4733   22.7755   39.7352 H   0  0  0  0  0  0  0  0  0  0  0  0
   38.6893   25.2115   31.4635 H   0  0  0  0  0  0  0  0  0  0  0  0
   36.5827   23.6174   32.0065 H   0  0  0  0  0  0  0  0  0  0  0  0
   37.1627   22.5756   36.5245 H   0  0  0  0  0  0  0  0  0  0  0  0
   35.4951   20.5050   37.0032 H   0  0  0  0  0  0  0  0  0  0  0  0
   34.9913   19.4621   34.6436 H   0  0  0  0  0  0  0  0  0  0  0  0
  1  2  2  0
  2  3  1  0
  3  7  1  0
  4  3  2  0
  5  4  1  0
  6  5  2  0
  6  1  1  0
  8  5  1  0
  9  8  1  0
 10 11  1  0
 10  9  2  0
 11 12  2  0
 12  8  1  0
 12 13  1  0
 13 14  1  0
 14 15  2  0
 16 15  1  0
 17 13  2  0
 17 16  1  0
  1 18  1  0
  2 19  1  0
  7 20  1  0
  7 21  1  0
 10 22  1  0
 11 23  1  0
 14 24  1  0
 15 25  1  0
 16 26  1  0
M  ISO  7  18  14  19  14  22  14  23  14  24  14  25  14  26   9
M  END
>  <minimizedAffinity>  (1) 
-4.54844618

>  <minimizedRMSD>  (1) 
2.66121674

$$$$
