
     RDKit          3D

 41 43  0  0  1  0  0  0  0  0999 V2000
   37.0870   21.5560   32.7740 C   0  0  1  0  0  0  0  0  0  0  0  0
   40.8940   23.8780   34.7610 C   0  0  0  0  0  0  0  0  0  0  0  0
   40.5310   23.3650   36.0250 C   0  0  0  0  0  0  0  0  0  0  0  0
   39.1920   23.0920   36.2770 C   0  0  0  0  0  0  0  0  0  0  0  0
   38.2920   23.3360   35.2780 N   0  0  0  0  0  0  0  0  0  0  0  0
   38.6620   23.8260   34.0770 C   0  0  0  0  0  0  0  0  0  0  0  0
   39.9510   24.0970   33.8120 N   0  0  0  0  0  0  0  0  0  0  0  0
   38.6660   22.5790   37.4810 N   0  0  0  0  0  0  0  0  0  0  0  0
   37.6210   24.0350   33.1200 N   0  0  0  0  0  0  0  0  0  0  0  0
   37.1770   25.1970   32.6500 N   0  0  0  0  0  0  0  0  0  0  0  0
   36.1770   25.0000   31.7560 C   0  0  0  0  0  0  0  0  0  0  0  0
   36.0060   23.6250   31.6830 C   0  0  0  0  0  0  0  0  0  0  0  0
   36.9270   23.0230   32.5520 C   0  0  0  0  0  0  0  0  0  0  0  0
   36.2470   21.1590   33.9940 C   0  0  0  0  0  0  0  0  0  0  0  0
   36.5870   20.8380   31.5450 C   0  0  0  0  0  0  0  0  0  0  0  0
   36.2200   19.4590   31.7880 N   0  0  0  0  0  0  0  0  0  0  0  0
   37.1640   18.4750   31.8640 C   0  0  0  0  0  0  0  0  0  0  0  0
   36.8990   17.1410   32.0930 C   0  0  0  0  0  0  0  0  0  0  0  0
   37.9740   16.1350   32.1600 C   0  0  0  0  0  0  0  0  0  0  0  0
   35.5860   16.7590   32.2600 C   0  0  0  0  0  0  0  0  0  0  0  0
   35.2630   15.5650   32.4730 O   0  0  0  0  0  0  0  0  0  0  0  0
   34.6560   17.7270   32.1860 N   0  0  0  0  0  0  0  0  0  0  0  0
   34.9610   19.0160   31.9600 C   0  0  0  0  0  0  0  0  0  0  0  0
   34.0330   19.8410   31.9100 O   0  0  0  0  0  0  0  0  0  0  0  0
   38.1395   21.2911   32.9531 H   0  0  0  0  0  0  0  0  0  0  0  0
   41.9491   24.1016   34.5446 H   0  0  0  0  0  0  0  0  0  0  0  0
   41.2942   23.1846   36.7964 H   0  0  0  0  0  0  0  0  0  0  0  0
   37.6539   22.4099   37.5701 H   0  0  0  0  0  0  0  0  0  0  0  0
   39.2940   22.3735   38.2711 H   0  0  0  0  0  0  0  0  0  0  0  0
   35.6179   25.7697   31.2037 H   0  0  0  0  0  0  0  0  0  0  0  0
   35.2745   23.0984   31.0525 H   0  0  0  0  0  0  0  0  0  0  0  0
   36.7921   21.4166   34.9140 H   0  0  0  0  0  0  0  0  0  0  0  0
   35.2894   21.6998   33.9715 H   0  0  0  0  0  0  0  0  0  0  0  0
   36.0569   20.0758   33.9715 H   0  0  0  0  0  0  0  0  0  0  0  0
   37.3809   20.8575   30.7838 H   0  0  0  0  0  0  0  0  0  0  0  0
   35.6771   21.3603   31.2144 H   0  0  0  0  0  0  0  0  0  0  0  0
   38.2159   18.7688   31.7326 H   0  0  0  0  0  0  0  0  0  0  0  0
   38.2070   15.9169   33.2127 H   0  0  0  0  0  0  0  0  0  0  0  0
   37.6450   15.2128   31.6587 H   0  0  0  0  0  0  0  0  0  0  0  0
   38.8723   16.5244   31.6587 H   0  0  0  0  0  0  0  0  0  0  0  0
   33.6662   17.4693   32.3079 H   0  0  0  0  0  0  0  0  0  0  0  0
  1 14  1  0
  2  3  2  0
  3  4  1  0
  4  8  1  0
  5  4  2  0
  6  5  1  0
  7  6  2  0
  7  2  1  0
  9  6  1  0
 10  9  1  0
 11 10  2  0
 12 11  1  0
 12 13  2  0
 13  1  1  0
 13  9  1  0
 15 16  1  0
 15  1  1  0
 16 17  1  0
 16 23  1  0
 17 18  2  0
 18 19  1  0
 18 20  1  0
 20 21  2  0
 22 20  1  0
 23 22  1  0
 24 23  2  0
  1 25  1  1
  2 26  1  0
  3 27  1  0
  8 28  1  0
  8 29  1  0
 11 30  1  0
 12 31  1  0
 14 32  1  0
 14 33  1  0
 14 34  1  0
 15 35  1  0
 15 36  1  0
 17 37  1  0
 19 38  1  0
 19 39  1  0
 19 40  1  0
 22 41  1  0
M  ISO  8  25   8  26  14  27  14  30  14  31  14  32   8  33   8  34   8
M  ISO  7  35   8  36   8  37  14  38   8  39   8  40   8  41   9
M  END
>  <minimizedAffinity>  (1) 
-5.82451963

>  <minimizedRMSD>  (1) 
1.3937856

$$$$
