
     RDKit          3D

 44 47  0  0  1  0  0  0  0  0999 V2000
   36.7440   20.9520   32.9340 C   0  0  1  0  0  0  0  0  0  0  0  0
   40.5670   23.5240   34.5110 C   0  0  0  0  0  0  0  0  0  0  0  0
   40.1860   23.2410   35.8460 C   0  0  0  0  0  0  0  0  0  0  0  0
   38.8510   23.0370   36.1240 C   0  0  0  0  0  0  0  0  0  0  0  0
   37.9420   23.1160   35.0980 N   0  0  0  0  0  0  0  0  0  0  0  0
   38.3350   23.3890   33.8290 C   0  0  0  0  0  0  0  0  0  0  0  0
   39.6310   23.5900   33.5390 N   0  0  0  0  0  0  0  0  0  0  0  0
   38.3350   22.7470   37.3960 N   0  0  0  0  0  0  0  0  0  0  0  0
   37.2910   23.4420   32.8520 N   0  0  0  0  0  0  0  0  0  0  0  0
   36.8650   24.5170   32.2020 N   0  0  0  0  0  0  0  0  0  0  0  0
   35.8530   24.1820   31.3520 C   0  0  0  0  0  0  0  0  0  0  0  0
   35.6690   22.8160   31.5100 C   0  0  0  0  0  0  0  0  0  0  0  0
   36.5780   22.3500   32.4580 C   0  0  0  0  0  0  0  0  0  0  0  0
   35.6010   20.6380   33.9050 C   0  0  0  0  0  0  0  0  0  0  0  0
   36.6400   20.0400   31.7400 C   0  0  0  0  0  0  0  0  0  0  0  0
   37.5540   18.8620   31.8160 C   0  0  0  0  0  0  0  0  0  0  0  0
   38.9360   18.9880   31.6350 C   0  0  0  0  0  0  0  0  0  0  0  0
   39.8190   17.9370   31.6780 C   0  0  0  0  0  0  0  0  0  0  0  0
   39.2450   16.7070   31.9190 C   0  0  0  0  0  0  0  0  0  0  0  0
   37.9070   16.4880   32.1080 C   0  0  0  0  0  0  0  0  0  0  0  0
   37.3670   15.2420   32.3530 C   0  0  0  0  0  0  0  0  0  0  0  0
   36.0180   15.0410   32.5450 C   0  0  0  0  0  0  0  0  0  0  0  0
   35.1790   16.1210   32.4940 C   0  0  0  0  0  0  0  0  0  0  0  0
   35.6900   17.3760   32.2530 C   0  0  0  0  0  0  0  0  0  0  0  0
   37.0600   17.5900   32.0540 C   0  0  0  0  0  0  0  0  0  0  0  0
   37.7135   20.8158   33.4355 H   0  0  0  0  0  0  0  0  0  0  0  0
   41.6263   23.6902   34.2656 H   0  0  0  0  0  0  0  0  0  0  0  0
   40.9402   23.1851   36.6448 H   0  0  0  0  0  0  0  0  0  0  0  0
   37.3222   22.6077   37.5214 H   0  0  0  0  0  0  0  0  0  0  0  0
   38.9690   22.6734   38.2044 H   0  0  0  0  0  0  0  0  0  0  0  0
   35.2982   24.8544   30.6811 H   0  0  0  0  0  0  0  0  0  0  0  0
   34.9286   22.2026   30.9757 H   0  0  0  0  0  0  0  0  0  0  0  0
   35.9612   20.7370   34.9396 H   0  0  0  0  0  0  0  0  0  0  0  0
   34.7727   21.3419   33.7362 H   0  0  0  0  0  0  0  0  0  0  0  0
   35.2485   19.6098   33.7362 H   0  0  0  0  0  0  0  0  0  0  0  0
   36.8884   20.6171   30.8371 H   0  0  0  0  0  0  0  0  0  0  0  0
   35.6107   19.6529   31.7141 H   0  0  0  0  0  0  0  0  0  0  0  0
   39.3409   19.9932   31.4462 H   0  0  0  0  0  0  0  0  0  0  0  0
   40.9014   18.0667   31.5314 H   0  0  0  0  0  0  0  0  0  0  0  0
   39.9135   15.8345   31.9628 H   0  0  0  0  0  0  0  0  0  0  0  0
   38.0413   14.3740   32.3967 H   0  0  0  0  0  0  0  0  0  0  0  0
   35.6228   14.0323   32.7356 H   0  0  0  0  0  0  0  0  0  0  0  0
   34.0978   15.9862   32.6454 H   0  0  0  0  0  0  0  0  0  0  0  0
   35.0036   18.2348   32.2156 H   0  0  0  0  0  0  0  0  0  0  0  0
  1 14  1  0
  2  3  2  0
  3  4  1  0
  4  8  1  0
  5  4  2  0
  6  5  1  0
  7  6  2  0
  7  2  1  0
  9  6  1  0
 10  9  1  0
 11 12  1  0
 11 10  2  0
 12 13  2  0
 13  9  1  0
 13  1  1  0
 15 16  1  0
 15  1  1  0
 16 25  2  0
 17 18  2  0
 17 16  1  0
 18 19  1  0
 19 20  2  0
 20 21  1  0
 21 22  2  0
 23 22  1  0
 24 23  2  0
 25 20  1  0
 25 24  1  0
  1 26  1  1
  2 27  1  0
  3 28  1  0
  8 29  1  0
  8 30  1  0
 11 31  1  0
 12 32  1  0
 14 33  1  0
 14 34  1  0
 14 35  1  0
 15 36  1  0
 15 37  1  0
 17 38  1  0
 18 39  1  0
 19 40  1  0
 21 41  1  0
 22 42  1  0
 23 43  1  0
 24 44  1  0
M  ISO  8  26   8  27  14  28  14  31  14  32  14  33   8  34   8  35   8
M  ISO  8  36   8  37   8  38  14  39  14  40  14  41  14  42  14  43  14
M  ISO  1  44  14
M  END
>  <minimizedAffinity>  (1) 
-5.76755571

>  <minimizedRMSD>  (1) 
1.19583988

$$$$
