
     RDKit          3D

 39 41  0  0  1  0  0  0  0  0999 V2000
   36.6390   20.9140   32.9300 C   0  0  1  0  0  0  0  0  0  0  0  0
   40.5710   23.3190   34.5310 C   0  0  0  0  0  0  0  0  0  0  0  0
   40.1910   23.0310   35.8680 C   0  0  0  0  0  0  0  0  0  0  0  0
   38.8390   22.8740   36.1550 C   0  0  0  0  0  0  0  0  0  0  0  0
   37.9430   23.0070   35.1300 N   0  0  0  0  0  0  0  0  0  0  0  0
   38.3380   23.2820   33.8660 C   0  0  0  0  0  0  0  0  0  0  0  0
   39.6420   23.4360   33.5740 N   0  0  0  0  0  0  0  0  0  0  0  0
   38.3240   22.5900   37.4210 N   0  0  0  0  0  0  0  0  0  0  0  0
   37.2950   23.3940   32.8910 N   0  0  0  0  0  0  0  0  0  0  0  0
   36.9040   24.4870   32.2560 N   0  0  0  0  0  0  0  0  0  0  0  0
   35.8880   24.2140   31.4100 C   0  0  0  0  0  0  0  0  0  0  0  0
   35.6480   22.8530   31.5450 C   0  0  0  0  0  0  0  0  0  0  0  0
   36.5400   22.3350   32.4830 C   0  0  0  0  0  0  0  0  0  0  0  0
   35.6070   20.6950   34.0390 C   0  0  0  0  0  0  0  0  0  0  0  0
   36.3330   20.0430   31.7400 C   0  0  0  0  0  0  0  0  0  0  0  0
   36.5630   18.6510   31.9230 N   0  0  0  0  0  0  0  0  0  0  0  0
   35.4660   17.8920   32.2220 C   0  0  0  0  0  0  0  0  0  0  0  0
   35.4680   16.5370   32.4280 C   0  0  0  0  0  0  0  0  0  0  0  0
   36.6870   15.9000   32.3220 C   0  0  0  0  0  0  0  0  0  0  0  0
   36.7390   14.4920   32.5270 N   0  0  0  0  0  0  0  0  0  0  0  0
   37.7830   16.6230   32.0280 N   0  0  0  0  0  0  0  0  0  0  0  0
   37.7050   17.9460   31.8390 C   0  0  0  0  0  0  0  0  0  0  0  0
   38.7300   18.6210   31.5650 O   0  0  0  0  0  0  0  0  0  0  0  0
   37.6393   20.6697   33.3169 H   0  0  0  0  0  0  0  0  0  0  0  0
   41.6343   23.4467   34.2799 H   0  0  0  0  0  0  0  0  0  0  0  0
   40.9488   22.9341   36.6595 H   0  0  0  0  0  0  0  0  0  0  0  0
   37.3075   22.4883   37.5525 H   0  0  0  0  0  0  0  0  0  0  0  0
   38.9605   22.4822   38.2236 H   0  0  0  0  0  0  0  0  0  0  0  0
   35.3612   24.9209   30.7522 H   0  0  0  0  0  0  0  0  0  0  0  0
   34.8821   22.2794   31.0025 H   0  0  0  0  0  0  0  0  0  0  0  0
   36.0948   20.7985   35.0195 H   0  0  0  0  0  0  0  0  0  0  0  0
   34.8058   21.4431   33.9473 H   0  0  0  0  0  0  0  0  0  0  0  0
   35.1787   19.6860   33.9473 H   0  0  0  0  0  0  0  0  0  0  0  0
   36.9594   20.3824   30.9019 H   0  0  0  0  0  0  0  0  0  0  0  0
   35.2532   20.1488   31.5587 H   0  0  0  0  0  0  0  0  0  0  0  0
   34.5005   18.4126   32.3042 H   0  0  0  0  0  0  0  0  0  0  0  0
   34.5459   15.9863   32.6654 H   0  0  0  0  0  0  0  0  0  0  0  0
   37.6374   13.9937   32.4533 H   0  0  0  0  0  0  0  0  0  0  0  0
   35.8782   13.9718   32.7490 H   0  0  0  0  0  0  0  0  0  0  0  0
  1 14  1  0
  2  3  2  0
  3  4  1  0
  4  8  1  0
  5  4  2  0
  6  5  1  0
  7  6  2  0
  7  2  1  0
  9  6  1  0
 10  9  1  0
 11 12  1  0
 11 10  2  0
 12 13  2  0
 13  9  1  0
 13  1  1  0
 15 16  1  0
 15  1  1  0
 16 17  1  0
 17 18  2  0
 19 18  1  0
 19 20  1  0
 21 19  2  0
 22 16  1  0
 22 21  1  0
 23 22  2  0
  1 24  1  1
  2 25  1  0
  3 26  1  0
  8 27  1  0
  8 28  1  0
 11 29  1  0
 12 30  1  0
 14 31  1  0
 14 32  1  0
 14 33  1  0
 15 34  1  0
 15 35  1  0
 17 36  1  0
 18 37  1  0
 20 38  1  0
 20 39  1  0
M  ISO  8  24   8  25  14  26  14  29  14  30  14  31   8  32   8  33   8
M  ISO  4  34   8  35   8  36  14  37  14
M  END
>  <minimizedAffinity>  (1) 
-5.11033487

>  <minimizedRMSD>  (1) 
0.476697505

$$$$
