
     RDKit          3D

 39 42  0  0  1  0  0  0  0  0999 V2000
   36.7060   20.9140   32.8570 C   0  0  1  0  0  0  0  0  0  0  0  0
   40.5510   23.3790   34.5280 C   0  0  0  0  0  0  0  0  0  0  0  0
   40.1800   23.0610   35.8470 C   0  0  0  0  0  0  0  0  0  0  0  0
   38.8240   22.8640   36.1220 C   0  0  0  0  0  0  0  0  0  0  0  0
   37.9250   22.9880   35.0960 N   0  0  0  0  0  0  0  0  0  0  0  0
   38.3260   23.2960   33.8380 C   0  0  0  0  0  0  0  0  0  0  0  0
   39.6240   23.4900   33.5500 N   0  0  0  0  0  0  0  0  0  0  0  0
   38.2920   22.5420   37.3810 N   0  0  0  0  0  0  0  0  0  0  0  0
   37.2930   23.3990   32.8540 N   0  0  0  0  0  0  0  0  0  0  0  0
   36.8820   24.4920   32.2290 N   0  0  0  0  0  0  0  0  0  0  0  0
   35.8790   24.2060   31.3670 C   0  0  0  0  0  0  0  0  0  0  0  0
   35.6690   22.8350   31.4810 C   0  0  0  0  0  0  0  0  0  0  0  0
   36.5740   22.3380   32.4290 C   0  0  0  0  0  0  0  0  0  0  0  0
   35.5840   20.6060   33.8560 C   0  0  0  0  0  0  0  0  0  0  0  0
   36.5240   20.0410   31.6380 C   0  0  0  0  0  0  0  0  0  0  0  0
   37.3440   18.8270   31.7480 N   0  0  0  0  0  0  0  0  0  0  0  0
   38.6880   18.6920   31.5960 C   0  0  0  0  0  0  0  0  0  0  0  0
   38.9970   17.4000   31.7880 N   0  0  0  0  0  0  0  0  0  0  0  0
   37.8480   16.7340   32.0580 C   0  0  0  0  0  0  0  0  0  0  0  0
   37.5490   15.4270   32.3330 C   0  0  0  0  0  0  0  0  0  0  0  0
   36.2890   15.0380   32.5680 N   0  0  0  0  0  0  0  0  0  0  0  0
   35.3040   15.9540   32.5330 C   0  0  0  0  0  0  0  0  0  0  0  0
   35.5370   17.2330   32.2730 N   0  0  0  0  0  0  0  0  0  0  0  0
   36.8090   17.6380   32.0330 C   0  0  0  0  0  0  0  0  0  0  0  0
   37.6876   20.7313   33.3187 H   0  0  0  0  0  0  0  0  0  0  0  0
   41.6124   23.5400   34.2883 H   0  0  0  0  0  0  0  0  0  0  0  0
   40.9365   22.9699   36.6404 H   0  0  0  0  0  0  0  0  0  0  0  0
   37.2762   22.4143   37.4935 H   0  0  0  0  0  0  0  0  0  0  0  0
   38.9176   22.4335   38.1920 H   0  0  0  0  0  0  0  0  0  0  0  0
   35.3423   24.9094   30.7134 H   0  0  0  0  0  0  0  0  0  0  0  0
   34.9246   22.2457   30.9255 H   0  0  0  0  0  0  0  0  0  0  0  0
   35.9672   20.7112   34.8817 H   0  0  0  0  0  0  0  0  0  0  0  0
   34.7522   21.3090   33.7014 H   0  0  0  0  0  0  0  0  0  0  0  0
   35.2277   19.5768   33.7014 H   0  0  0  0  0  0  0  0  0  0  0  0
   36.8269   20.6026   30.7420 H   0  0  0  0  0  0  0  0  0  0  0  0
   35.4658   19.7502   31.5632 H   0  0  0  0  0  0  0  0  0  0  0  0
   39.3969   19.4987   31.3578 H   0  0  0  0  0  0  0  0  0  0  0  0
   38.3582   14.6824   32.3615 H   0  0  0  0  0  0  0  0  0  0  0  0
   34.2706   15.6308   32.7266 H   0  0  0  0  0  0  0  0  0  0  0  0
  1 14  1  0
  2  3  2  0
  3  4  1  0
  4  8  1  0
  5  4  2  0
  6  5  1  0
  7  6  2  0
  7  2  1  0
  9  6  1  0
 10  9  1  0
 11 12  1  0
 11 10  2  0
 12 13  2  0
 13  9  1  0
 13  1  1  0
 15 16  1  0
 15  1  1  0
 16 24  1  0
 17 16  1  0
 17 18  2  0
 18 19  1  0
 19 20  2  0
 20 21  1  0
 22 21  2  0
 23 22  1  0
 24 19  1  0
 24 23  2  0
  1 25  1  1
  2 26  1  0
  3 27  1  0
  8 28  1  0
  8 29  1  0
 11 30  1  0
 12 31  1  0
 14 32  1  0
 14 33  1  0
 14 34  1  0
 15 35  1  0
 15 36  1  0
 17 37  1  0
 20 38  1  0
 22 39  1  0
M  ISO  8  25   8  26  14  27  14  30  14  31  14  32   8  33   8  34   8
M  ISO  5  35   8  36   8  37  14  38  14  39  14
M  END
>  <minimizedAffinity>  (1) 
-5.15649891

>  <minimizedRMSD>  (1) 
0.940355003

$$$$
