
     RDKit          3D

 38 40  0  0  1  0  0  0  0  0999 V2000
   40.5640   23.3350   34.5370 C   0  0  0  0  0  0  0  0  0  0  0  0
   40.1770   23.0520   35.8690 C   0  0  0  0  0  0  0  0  0  0  0  0
   38.8300   22.8910   36.1580 C   0  0  0  0  0  0  0  0  0  0  0  0
   37.9340   23.0150   35.1340 N   0  0  0  0  0  0  0  0  0  0  0  0
   38.3330   23.2880   33.8670 C   0  0  0  0  0  0  0  0  0  0  0  0
   39.6330   23.4470   33.5650 N   0  0  0  0  0  0  0  0  0  0  0  0
   38.2980   22.6080   37.4250 N   0  0  0  0  0  0  0  0  0  0  0  0
   37.2960   23.3940   32.8800 N   0  0  0  0  0  0  0  0  0  0  0  0
   36.9060   24.4770   32.2330 N   0  0  0  0  0  0  0  0  0  0  0  0
   35.8950   24.1970   31.3790 C   0  0  0  0  0  0  0  0  0  0  0  0
   35.6550   22.8290   31.5240 C   0  0  0  0  0  0  0  0  0  0  0  0
   36.5560   22.3400   32.4820 C   0  0  0  0  0  0  0  0  0  0  0  0
   36.6480   20.9310   32.9310 C   0  0  1  0  0  0  0  0  0  0  0  0
   35.5900   20.6780   34.0120 C   0  0  0  0  0  0  0  0  0  0  0  0
   36.3810   20.0190   31.7630 C   0  0  0  0  0  0  0  0  0  0  0  0
   37.1080   18.7580   31.8560 N   0  0  0  0  0  0  0  0  0  0  0  0
   38.4390   18.6680   31.6740 C   0  0  0  0  0  0  0  0  0  0  0  0
   39.1480   17.4910   31.7560 C   0  0  0  0  0  0  0  0  0  0  0  0
   38.4170   16.3380   32.0480 C   0  0  0  0  0  0  0  0  0  0  0  0
   38.9520   15.1940   32.1510 O   0  0  0  0  0  0  0  0  0  0  0  0
   37.0860   16.4230   32.2310 N   0  0  0  0  0  0  0  0  0  0  0  0
   36.4570   17.6060   32.1360 C   0  0  0  0  0  0  0  0  0  0  0  0
   35.2140   17.6510   32.3120 O   0  0  0  0  0  0  0  0  0  0  0  0
   41.6286   23.4644   34.2924 H   0  0  0  0  0  0  0  0  0  0  0  0
   40.9331   22.9612   36.6628 H   0  0  0  0  0  0  0  0  0  0  0  0
   37.2802   22.5051   37.5449 H   0  0  0  0  0  0  0  0  0  0  0  0
   38.9252   22.5032   38.2352 H   0  0  0  0  0  0  0  0  0  0  0  0
   35.3726   24.8983   30.7117 H   0  0  0  0  0  0  0  0  0  0  0  0
   34.8972   22.2414   30.9850 H   0  0  0  0  0  0  0  0  0  0  0  0
   37.6524   20.7361   33.3351 H   0  0  0  0  0  0  0  0  0  0  0  0
   36.0480   20.7875   35.0061 H   0  0  0  0  0  0  0  0  0  0  0  0
   34.7727   21.4060   33.9026 H   0  0  0  0  0  0  0  0  0  0  0  0
   35.1904   19.6590   33.9026 H   0  0  0  0  0  0  0  0  0  0  0  0
   36.6843   20.5327   30.8388 H   0  0  0  0  0  0  0  0  0  0  0  0
   35.3064   19.7839   31.7638 H   0  0  0  0  0  0  0  0  0  0  0  0
   38.9931   19.5905   31.4461 H   0  0  0  0  0  0  0  0  0  0  0  0
   40.2363   17.4604   31.5993 H   0  0  0  0  0  0  0  0  0  0  0  0
   36.5451   15.5732   32.4458 H   0  0  0  0  0  0  0  0  0  0  0  0
  1  2  2  0
  2  3  1  0
  3  7  1  0
  4  3  2  0
  5  4  1  0
  6  5  2  0
  6  1  1  0
  8  5  1  0
  9  8  1  0
 10 11  1  0
 10  9  2  0
 11 12  2  0
 12  8  1  0
 12 13  1  0
 13 14  1  0
 15 16  1  0
 15 13  1  0
 16 22  1  0
 17 18  2  0
 17 16  1  0
 18 19  1  0
 19 20  2  0
 19 21  1  0
 22 21  1  0
 22 23  2  0
  1 24  1  0
  2 25  1  0
  7 26  1  0
  7 27  1  0
 10 28  1  0
 11 29  1  0
 13 30  1  1
 14 31  1  0
 14 32  1  0
 14 33  1  0
 15 34  1  0
 15 35  1  0
 17 36  1  0
 18 37  1  0
 21 38  1  0
M  ISO  8  24  14  25  14  28  14  29  14  30   8  31   8  32   8  33   8
M  ISO  5  34   8  35   8  36  14  37  14  38   9
M  END
>  <minimizedAffinity>  (1) 
-5.01576805

>  <minimizedRMSD>  (1) 
0.763533235

$$$$
