
     RDKit          3D

 35 37  0  0  1  0  0  0  0  0999 V2000
   40.6460   23.6890   34.3920 C   0  0  0  0  0  0  0  0  0  0  0  0
   40.3060   23.2610   35.6950 C   0  0  0  0  0  0  0  0  0  0  0  0
   38.9680   23.0370   35.9970 C   0  0  0  0  0  0  0  0  0  0  0  0
   38.0400   23.2420   35.0160 N   0  0  0  0  0  0  0  0  0  0  0  0
   38.3930   23.6540   33.7720 C   0  0  0  0  0  0  0  0  0  0  0  0
   39.6860   23.8770   33.4590 N   0  0  0  0  0  0  0  0  0  0  0  0
   38.4690   22.6090   37.2430 N   0  0  0  0  0  0  0  0  0  0  0  0
   37.3230   23.8320   32.8380 N   0  0  0  0  0  0  0  0  0  0  0  0
   36.8850   24.9770   32.3240 N   0  0  0  0  0  0  0  0  0  0  0  0
   35.8520   24.7590   31.4760 C   0  0  0  0  0  0  0  0  0  0  0  0
   35.6540   23.3780   31.4810 C   0  0  0  0  0  0  0  0  0  0  0  0
   36.5950   22.8070   32.3500 C   0  0  0  0  0  0  0  0  0  0  0  0
   36.7440   21.3590   32.6480 C   0  0  1  0  0  0  0  0  0  0  0  0
   35.7470   20.9880   33.7530 C   0  0  0  0  0  0  0  0  0  0  0  0
   36.4040   20.5760   31.4020 C   0  0  0  0  0  0  0  0  0  0  0  0
   35.9720   19.1920   31.7480 C   0  0  0  0  0  0  0  0  0  0  0  0
   36.8450   18.1310   31.8500 C   0  0  0  0  0  0  0  0  0  0  0  0
   36.0480   17.0390   32.1850 C   0  0  0  0  0  0  0  0  0  0  0  0
   34.7610   17.4410   32.2750 N   0  0  0  0  0  0  0  0  0  0  0  0
   34.7170   18.7560   32.0080 N   0  0  0  0  0  0  0  0  0  0  0  0
   41.7000   23.8706   34.1348 H   0  0  0  0  0  0  0  0  0  0  0  0
   41.0855   23.1080   36.4559 H   0  0  0  0  0  0  0  0  0  0  0  0
   37.4566   22.4698   37.3720 H   0  0  0  0  0  0  0  0  0  0  0  0
   39.1165   22.4353   38.0250 H   0  0  0  0  0  0  0  0  0  0  0  0
   35.2885   25.5112   30.9045 H   0  0  0  0  0  0  0  0  0  0  0  0
   34.8928   22.8324   30.9041 H   0  0  0  0  0  0  0  0  0  0  0  0
   37.7715   21.1333   32.9694 H   0  0  0  0  0  0  0  0  0  0  0  0
   36.2089   21.1599   34.7364 H   0  0  0  0  0  0  0  0  0  0  0  0
   34.8453   21.6108   33.6575 H   0  0  0  0  0  0  0  0  0  0  0  0
   35.4718   19.9273   33.6575 H   0  0  0  0  0  0  0  0  0  0  0  0
   37.2917   20.5254   30.7544 H   0  0  0  0  0  0  0  0  0  0  0  0
   35.5785   21.0832   30.8811 H   0  0  0  0  0  0  0  0  0  0  0  0
   37.9346   18.1436   31.6996 H   0  0  0  0  0  0  0  0  0  0  0  0
   36.4087   16.0130   32.3500 H   0  0  0  0  0  0  0  0  0  0  0  0
   33.9551   16.8433   32.5077 H   0  0  0  0  0  0  0  0  0  0  0  0
  1  2  2  0
  2  3  1  0
  3  7  1  0
  4  3  2  0
  5  4  1  0
  6  5  2  0
  6  1  1  0
  8  5  1  0
  9  8  1  0
 10 11  1  0
 10  9  2  0
 11 12  2  0
 12 13  1  0
 12  8  1  0
 13 14  1  0
 15 16  1  0
 15 13  1  0
 16 17  1  0
 16 20  2  0
 17 18  2  0
 18 19  1  0
 20 19  1  0
  1 21  1  0
  2 22  1  0
  7 23  1  0
  7 24  1  0
 10 25  1  0
 11 26  1  0
 13 27  1  1
 14 28  1  0
 14 29  1  0
 14 30  1  0
 15 31  1  0
 15 32  1  0
 17 33  1  0
 18 34  1  0
 19 35  1  0
M  ISO  8  21  14  22  14  25  14  26  14  27   8  28   8  29   8  30   8
M  ISO  5  31   8  32   8  33  14  34  14  35   9
M  END
>  <minimizedAffinity>  (1) 
-5.13609362

>  <minimizedRMSD>  (1) 
1.02761483

$$$$
