
     RDKit          3D

 35 36  0  0  1  0  0  0  0  0999 V2000
   40.5360   23.5580   34.6950 C   0  0  0  0  0  0  0  0  0  0  0  0
   40.1310   23.2980   36.0240 C   0  0  0  0  0  0  0  0  0  0  0  0
   38.7740   23.0960   36.2750 C   0  0  0  0  0  0  0  0  0  0  0  0
   37.9200   23.1620   35.2190 N   0  0  0  0  0  0  0  0  0  0  0  0
   38.3320   23.4110   33.9640 C   0  0  0  0  0  0  0  0  0  0  0  0
   39.6330   23.6100   33.6880 N   0  0  0  0  0  0  0  0  0  0  0  0
   38.2320   22.8290   37.5400 N   0  0  0  0  0  0  0  0  0  0  0  0
   37.3130   23.4530   32.9520 N   0  0  0  0  0  0  0  0  0  0  0  0
   36.9040   24.5190   32.2720 N   0  0  0  0  0  0  0  0  0  0  0  0
   35.9160   24.1700   31.4050 C   0  0  0  0  0  0  0  0  0  0  0  0
   35.7300   22.8060   31.5860 C   0  0  0  0  0  0  0  0  0  0  0  0
   36.6180   22.3670   32.5650 C   0  0  0  0  0  0  0  0  0  0  0  0
   36.7530   20.9660   33.0500 C   0  0  1  0  0  0  0  0  0  0  0  0
   35.6690   20.7060   34.1060 C   0  0  0  0  0  0  0  0  0  0  0  0
   36.5460   20.0270   31.8920 C   0  0  0  0  0  0  0  0  0  0  0  0
   36.8800   18.6700   32.1500 N   0  0  0  0  0  0  0  0  0  0  0  0
   35.9210   17.6230   32.0450 C   0  0  0  0  0  0  0  0  0  0  0  0
   34.6650   17.8780   32.1620 N   0  0  0  0  0  0  0  0  0  0  0  0
   36.3720   16.2910   31.8090 N   0  0  0  0  0  0  0  0  0  0  0  0
   33.9980   17.0830   32.0800 H   0  0  0  0  0  0  0  0  0  0  0  0
   41.6016   23.7206   34.4757 H   0  0  0  0  0  0  0  0  0  0  0  0
   40.8676   23.2560   36.8399 H   0  0  0  0  0  0  0  0  0  0  0  0
   37.2169   22.6909   37.6466 H   0  0  0  0  0  0  0  0  0  0  0  0
   38.8489   22.7710   38.3628 H   0  0  0  0  0  0  0  0  0  0  0  0
   35.3780   24.8290   30.7077 H   0  0  0  0  0  0  0  0  0  0  0  0
   35.0044   22.1786   31.0476 H   0  0  0  0  0  0  0  0  0  0  0  0
   37.7508   20.8080   33.4852 H   0  0  0  0  0  0  0  0  0  0  0  0
   36.1037   20.8103   35.1111 H   0  0  0  0  0  0  0  0  0  0  0  0
   34.8539   21.4341   33.9817 H   0  0  0  0  0  0  0  0  0  0  0  0
   35.2729   19.6874   33.9817 H   0  0  0  0  0  0  0  0  0  0  0  0
   37.1663   20.3774   31.0539 H   0  0  0  0  0  0  0  0  0  0  0  0
   35.4678   20.0414   31.6744 H   0  0  0  0  0  0  0  0  0  0  0  0
   37.8458   18.4367   32.4214 H   0  0  0  0  0  0  0  0  0  0  0  0
   35.6904   15.5228   31.7306 H   0  0  0  0  0  0  0  0  0  0  0  0
   37.3794   16.0971   31.7169 H   0  0  0  0  0  0  0  0  0  0  0  0
  1  2  2  0
  2  3  1  0
  3  7  1  0
  4  3  2  0
  5  4  1  0
  6  5  2  0
  6  1  1  0
  8  5  1  0
  9  8  1  0
 10 11  1  0
 10  9  2  0
 11 12  2  0
 12  8  1  0
 12 13  1  0
 13 14  1  0
 15 16  1  0
 15 13  1  0
 17 16  1  0
 17 18  2  0
 19 17  1  0
 20 18  1  0
  1 21  1  0
  2 22  1  0
  7 23  1  0
  7 24  1  0
 10 25  1  0
 11 26  1  0
 13 27  1  1
 14 28  1  0
 14 29  1  0
 14 30  1  0
 15 31  1  0
 15 32  1  0
 16 33  1  0
 19 34  1  0
 19 35  1  0
M  ISO  8  21  14  22  14  25  14  26  14  27   8  28   8  29   8  30   8
M  ISO  2  31   8  32   8
M  END
>  <minimizedAffinity>  (1) 
-4.87882328

>  <minimizedRMSD>  (1) 
1.8200767

$$$$
