
     RDKit          3D

 41 43  0  0  1  0  0  0  0  0999 V2000
   40.5460   23.5930   34.6810 C   0  0  0  0  0  0  0  0  0  0  0  0
   40.1520   23.2980   35.9950 C   0  0  0  0  0  0  0  0  0  0  0  0
   38.8140   23.0780   36.2590 C   0  0  0  0  0  0  0  0  0  0  0  0
   37.9290   23.1590   35.2170 N   0  0  0  0  0  0  0  0  0  0  0  0
   38.3380   23.4470   33.9570 C   0  0  0  0  0  0  0  0  0  0  0  0
   39.6360   23.6630   33.6870 N   0  0  0  0  0  0  0  0  0  0  0  0
   38.2400   22.7660   37.5170 N   0  0  0  0  0  0  0  0  0  0  0  0
   37.3120   23.5060   32.9510 N   0  0  0  0  0  0  0  0  0  0  0  0
   36.8970   24.5730   32.2970 N   0  0  0  0  0  0  0  0  0  0  0  0
   35.9050   24.2520   31.4200 C   0  0  0  0  0  0  0  0  0  0  0  0
   35.7240   22.8770   31.5710 C   0  0  0  0  0  0  0  0  0  0  0  0
   36.6230   22.4200   32.5450 C   0  0  0  0  0  0  0  0  0  0  0  0
   36.7660   21.0160   33.0030 C   0  0  1  0  0  0  0  0  0  0  0  0
   35.7030   20.7360   34.0730 C   0  0  0  0  0  0  0  0  0  0  0  0
   36.5370   20.0990   31.8240 C   0  0  0  0  0  0  0  0  0  0  0  0
   36.4920   18.6980   32.3940 C   0  0  0  0  0  0  0  0  0  0  0  0
   35.1700   18.0120   32.1450 C   0  0  0  0  0  0  0  0  0  0  0  0
   35.5110   16.5610   32.4360 C   0  0  0  0  0  0  0  0  0  0  0  0
   36.9840   16.4100   32.1940 C   0  0  0  0  0  0  0  0  0  0  0  0
   37.4620   17.7730   31.7370 C   0  0  0  0  0  0  0  0  0  0  0  0
   41.6088   23.7692   34.4586 H   0  0  0  0  0  0  0  0  0  0  0  0
   40.8970   23.2428   36.8024 H   0  0  0  0  0  0  0  0  0  0  0  0
   37.2234   22.6216   37.5976 H   0  0  0  0  0  0  0  0  0  0  0  0
   38.8396   22.6837   38.3505 H   0  0  0  0  0  0  0  0  0  0  0  0
   35.3651   24.9288   30.7415 H   0  0  0  0  0  0  0  0  0  0  0  0
   35.0004   22.2578   31.0205 H   0  0  0  0  0  0  0  0  0  0  0  0
   37.7698   20.8486   33.4206 H   0  0  0  0  0  0  0  0  0  0  0  0
   36.1484   20.8533   35.0719 H   0  0  0  0  0  0  0  0  0  0  0  0
   34.8704   21.4455   33.9572 H   0  0  0  0  0  0  0  0  0  0  0  0
   35.3279   19.7084   33.9572 H   0  0  0  0  0  0  0  0  0  0  0  0
   37.3606   20.1920   31.1008 H   0  0  0  0  0  0  0  0  0  0  0  0
   35.6079   20.3492   31.2909 H   0  0  0  0  0  0  0  0  0  0  0  0
   36.7049   18.8590   33.4611 H   0  0  0  0  0  0  0  0  0  0  0  0
   34.3912   18.3845   32.8267 H   0  0  0  0  0  0  0  0  0  0  0  0
   34.7649   18.1799   31.1362 H   0  0  0  0  0  0  0  0  0  0  0  0
   35.2712   16.3171   33.4815 H   0  0  0  0  0  0  0  0  0  0  0  0
   34.9318   15.8809   31.7941 H   0  0  0  0  0  0  0  0  0  0  0  0
   37.4972   16.1136   33.1207 H   0  0  0  0  0  0  0  0  0  0  0  0
   37.1966   15.6317   31.4464 H   0  0  0  0  0  0  0  0  0  0  0  0
   38.4894   17.9680   32.0781 H   0  0  0  0  0  0  0  0  0  0  0  0
   37.4946   17.8799   30.6427 H   0  0  0  0  0  0  0  0  0  0  0  0
  1  2  2  0
  2  3  1  0
  3  7  1  0
  4  3  2  0
  5  4  1  0
  6  5  2  0
  6  1  1  0
  8  5  1  0
  9  8  1  0
 10 11  1  0
 10  9  2  0
 11 12  2  0
 12  8  1  0
 12 13  1  0
 13 14  1  0
 15 16  1  0
 15 13  1  0
 17 16  1  0
 17 18  1  0
 19 18  1  0
 20 19  1  0
 20 16  1  0
  1 21  1  0
  2 22  1  0
  7 23  1  0
  7 24  1  0
 10 25  1  0
 11 26  1  0
 13 27  1  1
 14 28  1  0
 14 29  1  0
 14 30  1  0
 15 31  1  0
 15 32  1  0
 16 33  1  0
 17 34  1  0
 17 35  1  0
 18 36  1  0
 18 37  1  0
 19 38  1  0
 19 39  1  0
 20 40  1  0
 20 41  1  0
M  ISO  8  21  14  22  14  25  14  26  14  27   8  28   8  29   8  30   8
M  ISO  8  31   8  32   8  33  13  34  13  35  13  36  13  37  13  38  13
M  ISO  3  39  13  40  13  41  13
M  END
>  <minimizedAffinity>  (1) 
-4.94278383

>  <minimizedRMSD>  (1) 
0.354446292

$$$$
