
     RDKit          3D

 42 44  0  0  1  0  0  0  0  0999 V2000
   40.6090   22.9300   34.4100 C   0  0  0  0  0  0  0  0  0  0  0  0
   40.2820   22.8360   35.7780 C   0  0  0  0  0  0  0  0  0  0  0  0
   38.9560   22.8150   36.1620 C   0  0  0  0  0  0  0  0  0  0  0  0
   38.0040   22.8870   35.1810 N   0  0  0  0  0  0  0  0  0  0  0  0
   38.3340   22.9770   33.8700 C   0  0  0  0  0  0  0  0  0  0  0  0
   39.6230   22.9970   33.4900 N   0  0  0  0  0  0  0  0  0  0  0  0
   38.4690   22.7240   37.4830 N   0  0  0  0  0  0  0  0  0  0  0  0
   37.2440   23.0490   32.9410 N   0  0  0  0  0  0  0  0  0  0  0  0
   36.8910   24.0880   32.1930 N   0  0  0  0  0  0  0  0  0  0  0  0
   35.8070   23.7900   31.4390 C   0  0  0  0  0  0  0  0  0  0  0  0
   35.4840   22.4720   31.7630 C   0  0  0  0  0  0  0  0  0  0  0  0
   36.4020   22.0210   32.7110 C   0  0  0  0  0  0  0  0  0  0  0  0
   36.4330   20.6670   33.3240 C   0  0  1  0  0  0  0  0  0  0  0  0
   35.6150   20.6930   34.6200 C   0  0  0  0  0  0  0  0  0  0  0  0
   35.7920   19.6920   32.3650 C   0  0  0  0  0  0  0  0  0  0  0  0
   36.8150   19.1520   31.4860 N   0  0  0  0  0  0  0  0  0  0  0  0
   37.0530   17.7840   31.8890 C   0  0  0  0  0  0  0  0  0  0  0  0
   36.2030   16.8160   31.0750 C   0  0  0  0  0  0  0  0  0  0  0  0
   36.6650   16.8350   29.6940 N   0  0  0  0  0  0  0  0  0  0  0  0
   37.1390   18.1410   29.2800 C   0  0  0  0  0  0  0  0  0  0  0  0
   36.4090   19.1790   30.1160 C   0  0  0  0  0  0  0  0  0  0  0  0
   41.6623   22.9487   34.0936 H   0  0  0  0  0  0  0  0  0  0  0  0
   41.0783   22.7797   36.5348 H   0  0  0  0  0  0  0  0  0  0  0  0
   37.4541   22.7163   37.6583 H   0  0  0  0  0  0  0  0  0  0  0  0
   39.1284   22.6653   38.2721 H   0  0  0  0  0  0  0  0  0  0  0  0
   35.2909   24.4469   30.7234 H   0  0  0  0  0  0  0  0  0  0  0  0
   34.6502   21.8898   31.3436 H   0  0  0  0  0  0  0  0  0  0  0  0
   37.4698   20.3681   33.5377 H   0  0  0  0  0  0  0  0  0  0  0  0
   36.2958   20.6714   35.4838 H   0  0  0  0  0  0  0  0  0  0  0  0
   35.0096   21.6108   34.6532 H   0  0  0  0  0  0  0  0  0  0  0  0
   34.9526   19.8155   34.6532 H   0  0  0  0  0  0  0  0  0  0  0  0
   35.3218   18.8738   32.9302 H   0  0  0  0  0  0  0  0  0  0  0  0
   35.0239   20.2069   31.7693 H   0  0  0  0  0  0  0  0  0  0  0  0
   38.1157   17.5444   31.7366 H   0  0  0  0  0  0  0  0  0  0  0  0
   36.7813   17.6802   32.9498 H   0  0  0  0  0  0  0  0  0  0  0  0
   36.3039   15.8002   31.4849 H   0  0  0  0  0  0  0  0  0  0  0  0
   35.1459   17.1168   31.1203 H   0  0  0  0  0  0  0  0  0  0  0  0
   37.4352   16.1584   29.5950 H   0  0  0  0  0  0  0  0  0  0  0  0
   38.2232   18.2178   29.4490 H   0  0  0  0  0  0  0  0  0  0  0  0
   36.9460   18.3012   28.2090 H   0  0  0  0  0  0  0  0  0  0  0  0
   36.6190   20.1771   29.7040 H   0  0  0  0  0  0  0  0  0  0  0  0
   35.3342   18.9480   30.0779 H   0  0  0  0  0  0  0  0  0  0  0  0
  1  2  2  0
  2  3  1  0
  3  7  1  0
  4  3  2  0
  5  4  1  0
  6  5  2  0
  6  1  1  0
  8  5  1  0
  9  8  1  0
 10 11  1  0
 10  9  2  0
 11 12  2  0
 12  8  1  0
 12 13  1  0
 13 14  1  0
 15 13  1  0
 16 17  1  0
 16 15  1  0
 18 17  1  0
 19 18  1  0
 20 19  1  0
 20 21  1  0
 21 16  1  0
  1 22  1  0
  2 23  1  0
  7 24  1  0
  7 25  1  0
 10 26  1  0
 11 27  1  0
 13 28  1  1
 14 29  1  0
 14 30  1  0
 14 31  1  0
 15 32  1  0
 15 33  1  0
 17 34  1  0
 17 35  1  0
 18 36  1  0
 18 37  1  0
 19 38  1  0
 20 39  1  0
 20 40  1  0
 21 41  1  0
 21 42  1  0
M  ISO  8  22  14  23  14  26  14  27  14  28   8  29   8  30   8  31   8
M  ISO  8  32   8  33   8  34  13  35  13  36  13  37  13  38   5  39  13
M  ISO  3  40  13  41  13  42  13
M  END
>  <minimizedAffinity>  (1) 
-4.69906473

>  <minimizedRMSD>  (1) 
1.10752821

$$$$
