
     RDKit          3D

 35 37  0  0  1  0  0  0  0  0999 V2000
   40.5660   23.2740   34.4370 C   0  0  0  0  0  0  0  0  0  0  0  0
   40.1970   22.9760   35.7600 C   0  0  0  0  0  0  0  0  0  0  0  0
   38.8610   22.8250   36.0670 C   0  0  0  0  0  0  0  0  0  0  0  0
   37.9510   22.9730   35.0600 N   0  0  0  0  0  0  0  0  0  0  0  0
   38.3240   23.2590   33.7910 C   0  0  0  0  0  0  0  0  0  0  0  0
   39.6210   23.4100   33.4760 N   0  0  0  0  0  0  0  0  0  0  0  0
   38.3260   22.5240   37.3400 N   0  0  0  0  0  0  0  0  0  0  0  0
   37.2730   23.3910   32.8240 N   0  0  0  0  0  0  0  0  0  0  0  0
   36.8880   24.4950   32.1990 N   0  0  0  0  0  0  0  0  0  0  0  0
   35.8540   24.2350   31.3570 C   0  0  0  0  0  0  0  0  0  0  0  0
   35.6010   22.8670   31.4910 C   0  0  0  0  0  0  0  0  0  0  0  0
   36.5100   22.3530   32.4240 C   0  0  0  0  0  0  0  0  0  0  0  0
   36.5870   20.9420   32.8450 C   0  0  1  0  0  0  0  0  0  0  0  0
   35.5880   20.6950   33.9820 C   0  0  0  0  0  0  0  0  0  0  0  0
   36.2430   20.0550   31.6730 C   0  0  0  0  0  0  0  0  0  0  0  0
   36.4600   18.6790   31.8450 C   0  0  0  0  0  0  0  0  0  0  0  0
   35.6710   17.6230   32.2100 C   0  0  0  0  0  0  0  0  0  0  0  0
   36.1780   16.3510   32.2950 C   0  0  0  0  0  0  0  0  0  0  0  0
   37.5430   16.1620   31.9950 C   0  0  0  0  0  0  0  0  0  0  0  0
   38.1590   17.8850   31.5620 S   0  0  0  0  0  0  0  0  0  0  0  0
   41.6285   23.3975   34.1804 H   0  0  0  0  0  0  0  0  0  0  0  0
   40.9640   22.8646   36.5406 H   0  0  0  0  0  0  0  0  0  0  0  0
   37.3074   22.4323   37.4620 H   0  0  0  0  0  0  0  0  0  0  0  0
   38.9547   22.3963   38.1458 H   0  0  0  0  0  0  0  0  0  0  0  0
   35.3275   24.9497   30.7074 H   0  0  0  0  0  0  0  0  0  0  0  0
   34.8261   22.2960   30.9586 H   0  0  0  0  0  0  0  0  0  0  0  0
   37.6047   20.7145   33.1951 H   0  0  0  0  0  0  0  0  0  0  0  0
   36.0956   20.8205   34.9498 H   0  0  0  0  0  0  0  0  0  0  0  0
   34.7603   21.4156   33.9059 H   0  0  0  0  0  0  0  0  0  0  0  0
   35.1915   19.6718   33.9059 H   0  0  0  0  0  0  0  0  0  0  0  0
   36.8482   20.3843   30.8155 H   0  0  0  0  0  0  0  0  0  0  0  0
   35.1572   20.1637   31.5340 H   0  0  0  0  0  0  0  0  0  0  0  0
   34.6094   17.7970   32.4398 H   0  0  0  0  0  0  0  0  0  0  0  0
   35.5395   15.5046   32.5881 H   0  0  0  0  0  0  0  0  0  0  0  0
   38.1155   15.2229   32.0107 H   0  0  0  0  0  0  0  0  0  0  0  0
  1  2  2  0
  2  3  1  0
  3  7  1  0
  4  3  2  0
  5  4  1  0
  6  5  2  0
  6  1  1  0
  8  5  1  0
  9  8  1  0
 10 11  1  0
 10  9  2  0
 11 12  2  0
 12  8  1  0
 12 13  1  0
 13 14  1  0
 15 16  1  0
 15 13  1  0
 16 17  2  0
 17 18  1  0
 19 18  2  0
 20 16  1  0
 20 19  1  0
  1 21  1  0
  2 22  1  0
  7 23  1  0
  7 24  1  0
 10 25  1  0
 11 26  1  0
 13 27  1  1
 14 28  1  0
 14 29  1  0
 14 30  1  0
 15 31  1  0
 15 32  1  0
 17 33  1  0
 18 34  1  0
 19 35  1  0
M  ISO  8  21  14  22  14  25  14  26  14  27   8  28   8  29   8  30   8
M  ISO  5  31   8  32   8  33  14  34  14  35  14
M  END
>  <minimizedAffinity>  (1) 
-4.80798578

>  <minimizedRMSD>  (1) 
0.484100163

$$$$
