
     RDKit          3D

 36 38  0  0  1  0  0  0  0  0999 V2000
   40.5750   23.2630   34.4250 C   0  0  0  0  0  0  0  0  0  0  0  0
   40.2070   22.9670   35.7560 C   0  0  0  0  0  0  0  0  0  0  0  0
   38.8590   22.8230   36.0690 C   0  0  0  0  0  0  0  0  0  0  0  0
   37.9450   22.9770   35.0570 N   0  0  0  0  0  0  0  0  0  0  0  0
   38.3330   23.2610   33.7900 C   0  0  0  0  0  0  0  0  0  0  0  0
   39.6330   23.4050   33.4640 N   0  0  0  0  0  0  0  0  0  0  0  0
   38.3540   22.5320   37.3380 N   0  0  0  0  0  0  0  0  0  0  0  0
   37.2790   23.3970   32.8290 N   0  0  0  0  0  0  0  0  0  0  0  0
   36.8920   24.5000   32.2100 N   0  0  0  0  0  0  0  0  0  0  0  0
   35.8590   24.2460   31.3730 C   0  0  0  0  0  0  0  0  0  0  0  0
   35.6050   22.8840   31.4970 C   0  0  0  0  0  0  0  0  0  0  0  0
   36.5150   22.3620   32.4260 C   0  0  0  0  0  0  0  0  0  0  0  0
   36.6040   20.9390   32.8500 C   0  0  1  0  0  0  0  0  0  0  0  0
   35.5850   20.6930   33.9700 C   0  0  0  0  0  0  0  0  0  0  0  0
   36.2510   20.0670   31.6720 C   0  0  0  0  0  0  0  0  0  0  0  0
   36.8040   18.6860   31.8060 C   0  0  0  0  0  0  0  0  0  0  0  0
   35.8660   17.6970   32.0760 C   0  0  0  0  0  0  0  0  0  0  0  0
   36.2600   16.3740   32.2230 C   0  0  0  0  0  0  0  0  0  0  0  0
   37.5770   16.0570   32.1000 N   0  0  0  0  0  0  0  0  0  0  0  0
   38.4650   17.0440   31.8360 C   0  0  0  0  0  0  0  0  0  0  0  0
   38.0830   18.3180   31.6960 N   0  0  0  0  0  0  0  0  0  0  0  0
   41.6380   23.3793   34.1670 H   0  0  0  0  0  0  0  0  0  0  0  0
   40.9755   22.8519   36.5345 H   0  0  0  0  0  0  0  0  0  0  0  0
   37.3377   22.4428   37.4798 H   0  0  0  0  0  0  0  0  0  0  0  0
   38.9978   22.4066   38.1322 H   0  0  0  0  0  0  0  0  0  0  0  0
   35.3312   24.9655   30.7298 H   0  0  0  0  0  0  0  0  0  0  0  0
   34.8286   22.3179   30.9615 H   0  0  0  0  0  0  0  0  0  0  0  0
   37.6188   20.7083   33.2062 H   0  0  0  0  0  0  0  0  0  0  0  0
   36.0775   20.8119   34.9464 H   0  0  0  0  0  0  0  0  0  0  0  0
   34.7627   21.4184   33.8834 H   0  0  0  0  0  0  0  0  0  0  0  0
   35.1842   19.6723   33.8834 H   0  0  0  0  0  0  0  0  0  0  0  0
   36.6581   20.5244   30.7582 H   0  0  0  0  0  0  0  0  0  0  0  0
   35.1547   19.9886   31.6266 H   0  0  0  0  0  0  0  0  0  0  0  0
   34.8035   17.9644   32.1740 H   0  0  0  0  0  0  0  0  0  0  0  0
   35.5165   15.5919   32.4363 H   0  0  0  0  0  0  0  0  0  0  0  0
   39.5306   16.7911   31.7338 H   0  0  0  0  0  0  0  0  0  0  0  0
  1  2  2  0
  2  3  1  0
  3  7  1  0
  4  3  2  0
  5  4  1  0
  6  5  2  0
  6  1  1  0
  8  5  1  0
  9  8  1  0
 10 11  1  0
 10  9  2  0
 11 12  2  0
 12  8  1  0
 12 13  1  0
 13 14  1  0
 15 16  1  0
 15 13  1  0
 16 17  2  0
 17 18  1  0
 19 18  2  0
 20 19  1  0
 21 16  1  0
 21 20  2  0
  1 22  1  0
  2 23  1  0
  7 24  1  0
  7 25  1  0
 10 26  1  0
 11 27  1  0
 13 28  1  1
 14 29  1  0
 14 30  1  0
 14 31  1  0
 15 32  1  0
 15 33  1  0
 17 34  1  0
 18 35  1  0
 20 36  1  0
M  ISO  8  22  14  23  14  26  14  27  14  28   8  29   8  30   8  31   8
M  ISO  5  32   8  33   8  34  14  35  14  36  14
M  END
>  <minimizedAffinity>  (1) 
-4.83296347

>  <minimizedRMSD>  (1) 
0.525291026

$$$$
