
     RDKit          3D

 38 40  0  0  1  0  0  0  0  0999 V2000
   38.4300   22.5550   33.8200 C   0  0  1  0  0  0  0  0  0  0  0  0
   42.9390   23.3060   35.4800 C   0  0  0  0  0  0  0  0  0  0  0  0
   42.6910   22.3970   36.5470 C   0  0  0  0  0  0  0  0  0  0  0  0
   41.3900   22.2620   37.0100 C   0  0  0  0  0  0  0  0  0  0  0  0
   40.4350   23.0130   36.4080 N   0  0  0  0  0  0  0  0  0  0  0  0
   40.6890   23.8740   35.3930 C   0  0  0  0  0  0  0  0  0  0  0  0
   41.9400   24.0240   34.9270 N   0  0  0  0  0  0  0  0  0  0  0  0
   41.0140   21.4110   38.0440 N   0  0  0  0  0  0  0  0  0  0  0  0
   39.5660   24.5940   34.8710 N   0  0  0  0  0  0  0  0  0  0  0  0
   39.3110   25.8820   34.9610 N   0  0  0  0  0  0  0  0  0  0  0  0
   38.1510   26.2030   34.3540 C   0  0  0  0  0  0  0  0  0  0  0  0
   37.6560   24.9980   33.8490 C   0  0  0  0  0  0  0  0  0  0  0  0
   38.5750   23.9950   34.1920 C   0  0  0  0  0  0  0  0  0  0  0  0
   37.5110   21.8830   34.8680 C   0  0  0  0  0  0  0  0  0  0  0  0
   37.7910   22.4380   32.4720 C   0  0  0  0  0  0  0  0  0  0  0  0
   37.6330   21.0020   32.0870 C   0  0  0  0  0  0  0  0  0  0  0  0
   38.6870   20.1010   31.9430 C   0  0  0  0  0  0  0  0  0  0  0  0
   38.1890   18.9120   31.5950 N   0  0  0  0  0  0  0  0  0  0  0  0
   36.8450   19.0290   31.5120 C   0  0  0  0  0  0  0  0  0  0  0  0
   36.5230   20.2900   31.8100 N   0  0  0  0  0  0  0  0  0  0  0  0
   35.1740   20.7570   31.8150 C   0  0  0  0  0  0  0  0  0  0  0  0
   35.0520   21.6930   30.7790 F   0  0  0  0  0  0  0  0  0  0  0  0
   34.2080   19.8040   31.7850 F   0  0  0  0  0  0  0  0  0  0  0  0
   34.9110   21.5150   32.9700 F   0  0  0  0  0  0  0  0  0  0  0  0
   39.4181   22.0725   33.7929 H   0  0  0  0  0  0  0  0  0  0  0  0
   43.9642   23.4251   35.0995 H   0  0  0  0  0  0  0  0  0  0  0  0
   43.5110   21.8156   36.9937 H   0  0  0  0  0  0  0  0  0  0  0  0
   40.0278   21.3610   38.3370 H   0  0  0  0  0  0  0  0  0  0  0  0
   41.7218   20.8309   38.5167 H   0  0  0  0  0  0  0  0  0  0  0  0
   37.6926   27.1997   34.2735 H   0  0  0  0  0  0  0  0  0  0  0  0
   36.7202   24.8612   33.2872 H   0  0  0  0  0  0  0  0  0  0  0  0
   37.8602   22.1384   35.8794 H   0  0  0  0  0  0  0  0  0  0  0  0
   36.4796   22.2415   34.7348 H   0  0  0  0  0  0  0  0  0  0  0  0
   37.5399   20.7915   34.7348 H   0  0  0  0  0  0  0  0  0  0  0  0
   36.8007   22.9161   32.4987 H   0  0  0  0  0  0  0  0  0  0  0  0
   38.4339   22.9351   31.7306 H   0  0  0  0  0  0  0  0  0  0  0  0
   39.7523   20.3314   32.0915 H   0  0  0  0  0  0  0  0  0  0  0  0
   36.1408   18.2269   31.2459 H   0  0  0  0  0  0  0  0  0  0  0  0
  1 13  1  0
  1 14  1  0
  2  3  2  0
  3  4  1  0
  4  8  1  0
  5  4  2  0
  6  5  1  0
  7  6  2  0
  7  2  1  0
  9 10  1  0
  9  6  1  0
 11 10  2  0
 12 13  2  0
 12 11  1  0
 13  9  1  0
 15  1  1  0
 16 15  1  0
 17 16  2  0
 18 17  1  0
 19 18  2  0
 19 20  1  0
 20 21  1  0
 20 16  1  0
 21 24  1  0
 22 21  1  0
 23 21  1  0
  1 25  1  6
  2 26  1  0
  3 27  1  0
  8 28  1  0
  8 29  1  0
 11 30  1  0
 12 31  1  0
 14 32  1  0
 14 33  1  0
 14 34  1  0
 15 35  1  0
 15 36  1  0
 17 37  1  0
 19 38  1  0
M  ISO  8  25   8  26  14  27  14  30  14  31  14  32   8  33   8  34   8
M  ISO  4  35   8  36   8  37  14  38  14
M  END
>  <minimizedAffinity>  (1) 
-5.15581083

>  <minimizedRMSD>  (1) 
3.16812158

$$$$
