
     RDKit          3D

 48 51  0  0  1  0  0  0  0  0999 V2000
   36.3980   22.2150   32.1800 C   0  0  1  0  0  0  0  0  0  0  0  0
   40.3450   22.2410   35.0340 C   0  0  0  0  0  0  0  0  0  0  0  0
   39.5060   22.1550   36.1780 C   0  0  0  0  0  0  0  0  0  0  0  0
   38.2340   22.7000   36.1040 C   0  0  0  0  0  0  0  0  0  0  0  0
   37.8680   23.2840   34.9400 N   0  0  0  0  0  0  0  0  0  0  0  0
   38.6840   23.3590   33.8540 C   0  0  0  0  0  0  0  0  0  0  0  0
   39.9210   22.8380   33.8990 N   0  0  0  0  0  0  0  0  0  0  0  0
   37.3170   22.6830   37.1510 N   0  0  0  0  0  0  0  0  0  0  0  0
   38.1520   24.0100   32.6990 N   0  0  0  0  0  0  0  0  0  0  0  0
   38.5330   25.1540   32.1740 N   0  0  0  0  0  0  0  0  0  0  0  0
   37.7930   25.4650   31.0810 C   0  0  0  0  0  0  0  0  0  0  0  0
   36.8870   24.4090   30.9390 C   0  0  0  0  0  0  0  0  0  0  0  0
   37.1400   23.5010   31.9800 C   0  0  0  0  0  0  0  0  0  0  0  0
   35.2810   22.1300   31.1330 C   0  0  0  0  0  0  0  0  0  0  0  0
   37.3370   21.0650   31.9940 C   0  0  0  0  0  0  0  0  0  0  0  0
   36.6050   19.7630   32.1710 C   0  0  0  0  0  0  0  0  0  0  0  0
   35.6890   19.5070   33.1830 C   0  0  0  0  0  0  0  0  0  0  0  0
   35.2420   18.2580   33.0330 N   0  0  0  0  0  0  0  0  0  0  0  0
   35.8490   17.7070   31.9490 C   0  0  0  0  0  0  0  0  0  0  0  0
   36.6720   18.6240   31.4350 N   0  0  0  0  0  0  0  0  0  0  0  0
   37.4990   18.4450   30.2850 C   0  0  0  0  0  0  0  0  0  0  0  0
   38.7610   19.3030   30.3440 C   0  0  0  0  0  0  0  0  0  0  0  0
   39.1350   19.6260   28.9250 C   0  0  0  0  0  0  0  0  0  0  0  0
   37.9060   19.3220   28.0960 C   0  0  0  0  0  0  0  0  0  0  0  0
   36.7840   19.0940   29.0940 C   0  0  0  0  0  0  0  0  0  0  0  0
   35.9729   22.1779   33.1939 H   0  0  0  0  0  0  0  0  0  0  0  0
   41.3578   21.8137   35.0736 H   0  0  0  0  0  0  0  0  0  0  0  0
   39.8577   21.6678   37.0994 H   0  0  0  0  0  0  0  0  0  0  0  0
   36.3866   23.1074   37.0277 H   0  0  0  0  0  0  0  0  0  0  0  0
   37.5688   22.2460   38.0491 H   0  0  0  0  0  0  0  0  0  0  0  0
   37.8854   26.3564   30.4431 H   0  0  0  0  0  0  0  0  0  0  0  0
   36.1194   24.3084   30.1576 H   0  0  0  0  0  0  0  0  0  0  0  0
   34.3078   22.0559   31.6403 H   0  0  0  0  0  0  0  0  0  0  0  0
   35.2988   23.0321   30.5038 H   0  0  0  0  0  0  0  0  0  0  0  0
   35.4351   21.2410   30.5038 H   0  0  0  0  0  0  0  0  0  0  0  0
   38.1449   21.1316   32.7375 H   0  0  0  0  0  0  0  0  0  0  0  0
   37.7572   21.1054   30.9782 H   0  0  0  0  0  0  0  0  0  0  0  0
   35.3846   20.2112   33.9714 H   0  0  0  0  0  0  0  0  0  0  0  0
   35.6907   16.6887   31.5643 H   0  0  0  0  0  0  0  0  0  0  0  0
   37.7116   17.3677   30.2197 H   0  0  0  0  0  0  0  0  0  0  0  0
   38.5630   20.2292   30.9034 H   0  0  0  0  0  0  0  0  0  0  0  0
   39.5764   18.7699   30.8548 H   0  0  0  0  0  0  0  0  0  0  0  0
   39.4065   20.6880   28.8325 H   0  0  0  0  0  0  0  0  0  0  0  0
   40.0038   19.0396   28.5915 H   0  0  0  0  0  0  0  0  0  0  0  0
   37.6676   20.1706   27.4379 H   0  0  0  0  0  0  0  0  0  0  0  0
   38.0588   18.4454   27.4493 H   0  0  0  0  0  0  0  0  0  0  0  0
   36.3166   20.0460   29.3859 H   0  0  0  0  0  0  0  0  0  0  0  0
   35.9686   18.4749   28.6915 H   0  0  0  0  0  0  0  0  0  0  0  0
  2  3  2  0
  4  3  1  0
  4  8  1  0
  5  4  2  0
  6  7  2  0
  6  5  1  0
  7  2  1  0
  9  6  1  0
 10  9  1  0
 11 10  2  0
 12 11  1  0
 12 13  2  0
 13  1  1  0
 13  9  1  0
 14  1  1  0
 15 16  1  0
 15  1  1  0
 16 17  2  0
 18 17  1  0
 19 18  2  0
 20 19  1  0
 20 16  1  0
 21 22  1  0
 21 20  1  0
 23 22  1  0
 24 23  1  0
 24 25  1  0
 25 21  1  0
  1 26  1  1
  2 27  1  0
  3 28  1  0
  8 29  1  0
  8 30  1  0
 11 31  1  0
 12 32  1  0
 14 33  1  0
 14 34  1  0
 14 35  1  0
 15 36  1  0
 15 37  1  0
 17 38  1  0
 19 39  1  0
 21 40  1  0
 22 41  1  0
 22 42  1  0
 23 43  1  0
 23 44  1  0
 24 45  1  0
 24 46  1  0
 25 47  1  0
 25 48  1  0
M  ISO  8  26   8  27  14  28  14  31  14  32  14  33   8  34   8  35   8
M  ISO  8  36   8  37   8  38  14  39  14  40  13  41  13  42  13  43  13
M  ISO  5  44  13  45  13  46  13  47  13  48  13
M  END
>  <minimizedAffinity>  (1) 
-4.83691883

>  <minimizedRMSD>  (1) 
3.16081786

$$$$
