
     RDKit          3D

 54 57  0  0  1  0  0  0  0  0999 V2000
   38.7140   21.9220   34.2560 C   0  0  0  0  0  0  0  0  0  0  0  0
   38.6650   22.4480   35.6740 C   0  0  0  0  0  0  0  0  0  0  0  0
   37.5210   22.9000   36.3310 C   0  0  0  0  0  0  0  0  0  0  0  0
   37.8600   23.2810   37.5490 N   0  0  0  0  0  0  0  0  0  0  0  0
   39.1950   23.0890   37.7050 C   0  0  0  0  0  0  0  0  0  0  0  0
   39.6590   22.5870   36.5640 N   0  0  0  0  0  0  0  0  0  0  0  0
   41.0130   22.2510   36.3340 C   0  0  2  0  0  0  0  0  0  0  0  0
   41.5100   21.5290   37.5840 C   0  0  0  0  0  0  0  0  0  0  0  0
   41.8180   23.5290   36.1210 C   0  0  0  0  0  0  0  0  0  0  0  0
   43.2770   23.2460   36.0670 C   0  0  0  0  0  0  0  0  0  0  0  0
   43.8970   22.1950   35.4210 C   0  0  0  0  0  0  0  0  0  0  0  0
   45.2500   22.0860   35.4740 C   0  0  0  0  0  0  0  0  0  0  0  0
   46.0900   22.9580   36.1340 C   0  0  0  0  0  0  0  0  0  0  0  0
   45.4800   24.0260   36.7910 C   0  0  0  0  0  0  0  0  0  0  0  0
   44.0980   24.1510   36.7480 C   0  0  0  0  0  0  0  0  0  0  0  0
   37.5940   22.5480   33.4550 C   0  0  1  0  0  0  0  0  0  0  0  0
   40.3240   26.4520   34.5280 C   0  0  0  0  0  0  0  0  0  0  0  0
   39.1850   27.0850   35.0540 C   0  0  0  0  0  0  0  0  0  0  0  0
   37.9450   26.7580   34.5370 C   0  0  0  0  0  0  0  0  0  0  0  0
   37.9050   25.8380   33.5460 N   0  0  0  0  0  0  0  0  0  0  0  0
   39.0070   25.2380   33.0510 C   0  0  0  0  0  0  0  0  0  0  0  0
   40.2140   25.5350   33.5310 N   0  0  0  0  0  0  0  0  0  0  0  0
   36.7400   27.3150   34.9700 N   0  0  0  0  0  0  0  0  0  0  0  0
   38.7950   24.2830   31.9990 N   0  0  0  0  0  0  0  0  0  0  0  0
   39.1420   24.3810   30.7380 N   0  0  0  0  0  0  0  0  0  0  0  0
   38.7890   23.2970   30.0300 C   0  0  0  0  0  0  0  0  0  0  0  0
   38.1640   22.4510   30.9480 C   0  0  0  0  0  0  0  0  0  0  0  0
   38.1840   23.1100   32.1930 C   0  0  0  0  0  0  0  0  0  0  0  0
   36.5690   21.4830   33.0880 C   0  0  0  0  0  0  0  0  0  0  0  0
   39.6813   22.1808   33.8007 H   0  0  0  0  0  0  0  0  0  0  0  0
   38.5971   20.8283   34.2630 H   0  0  0  0  0  0  0  0  0  0  0  0
   36.5069   22.9335   35.9061 H   0  0  0  0  0  0  0  0  0  0  0  0
   39.7839   23.3081   38.6079 H   0  0  0  0  0  0  0  0  0  0  0  0
   41.1233   21.6140   35.4440 H   0  0  0  0  0  0  0  0  0  0  0  0
   41.1479   22.0550   38.4796 H   0  0  0  0  0  0  0  0  0  0  0  0
   41.1303   20.4966   37.5865 H   0  0  0  0  0  0  0  0  0  0  0  0
   42.6099   21.5151   37.5865 H   0  0  0  0  0  0  0  0  0  0  0  0
   41.5079   23.9941   35.1736 H   0  0  0  0  0  0  0  0  0  0  0  0
   41.6266   24.2050   36.9674 H   0  0  0  0  0  0  0  0  0  0  0  0
   43.3012   21.4533   34.8689 H   0  0  0  0  0  0  0  0  0  0  0  0
   45.7114   21.2361   34.9497 H   0  0  0  0  0  0  0  0  0  0  0  0
   47.1811   22.8188   36.1418 H   0  0  0  0  0  0  0  0  0  0  0  0
   46.0877   24.7620   37.3378 H   0  0  0  0  0  0  0  0  0  0  0  0
   43.6289   24.9972   37.2714 H   0  0  0  0  0  0  0  0  0  0  0  0
   37.1028   23.3368   34.0437 H   0  0  0  0  0  0  0  0  0  0  0  0
   41.3176   26.7020   34.9284 H   0  0  0  0  0  0  0  0  0  0  0  0
   39.2781   27.8263   35.8614 H   0  0  0  0  0  0  0  0  0  0  0  0
   35.8524   27.0223   34.5372 H   0  0  0  0  0  0  0  0  0  0  0  0
   36.7388   28.0186   35.7222 H   0  0  0  0  0  0  0  0  0  0  0  0
   38.9560   23.1145   28.9582 H   0  0  0  0  0  0  0  0  0  0  0  0
   37.7373   21.4589   30.7390 H   0  0  0  0  0  0  0  0  0  0  0  0
   36.1489   21.0465   34.0062 H   0  0  0  0  0  0  0  0  0  0  0  0
   35.7618   21.9394   32.4964 H   0  0  0  0  0  0  0  0  0  0  0  0
   37.0560   20.6938   32.4964 H   0  0  0  0  0  0  0  0  0  0  0  0
  1  2  1  0
  2  3  2  0
  2  6  1  0
  3  4  1  0
  4  5  2  0
  6  5  1  0
  7  6  1  0
  7  8  1  0
  9  7  1  0
 10  9  1  0
 10 15  2  0
 11 12  2  0
 11 10  1  0
 12 13  1  0
 13 14  2  0
 15 14  1  0
 16  1  1  0
 17 18  2  0
 19 23  1  0
 19 18  1  0
 20 19  2  0
 21 22  2  0
 21 20  1  0
 22 17  1  0
 24 28  1  0
 24 21  1  0
 25 24  1  0
 26 25  2  0
 26 27  1  0
 27 28  2  0
 28 16  1  0
 29 16  1  0
  1 30  1  0
  1 31  1  0
  3 32  1  0
  5 33  1  0
  7 34  1  6
  8 35  1  0
  8 36  1  0
  8 37  1  0
  9 38  1  0
  9 39  1  0
 11 40  1  0
 12 41  1  0
 13 42  1  0
 14 43  1  0
 15 44  1  0
 16 45  1  1
 17 46  1  0
 18 47  1  0
 23 48  1  0
 23 49  1  0
 26 50  1  0
 27 51  1  0
 29 52  1  0
 29 53  1  0
 29 54  1  0
M  ISO  8  30   8  31   8  32  14  33  14  34   8  35   8  36   8  37   8
M  ISO  8  38   8  39   8  40  14  41  14  42  14  43  14  44  14  45   8
M  ISO  7  46  14  47  14  50  14  51  14  52   8  53   8  54   8
M  END
>  <minimizedAffinity>  (1) 
-5.56138706

>  <minimizedRMSD>  (1) 
0.604400992

$$$$
