
     RDKit          3D

 50 53  0  0  1  0  0  0  0  0999 V2000
   38.7170   21.8990   34.2350 C   0  0  0  0  0  0  0  0  0  0  0  0
   38.7030   22.4310   35.6480 C   0  0  0  0  0  0  0  0  0  0  0  0
   37.5800   22.8840   36.3340 C   0  0  0  0  0  0  0  0  0  0  0  0
   37.9530   23.2700   37.5410 N   0  0  0  0  0  0  0  0  0  0  0  0
   39.2840   23.0830   37.6650 C   0  0  0  0  0  0  0  0  0  0  0  0
   39.7220   22.5770   36.5140 N   0  0  0  0  0  0  0  0  0  0  0  0
   41.0790   22.2410   36.2480 C   0  0  2  0  0  0  0  0  0  0  0  0
   41.5540   21.4050   37.4390 C   0  0  0  0  0  0  0  0  0  0  0  0
   41.8960   23.5170   36.1450 C   0  0  0  0  0  0  0  0  0  0  0  0
   43.3190   23.1900   35.7560 C   0  0  0  0  0  0  0  0  0  0  0  0
   43.7620   22.3610   34.7260 C   0  0  0  0  0  0  0  0  0  0  0  0
   45.5660   22.4870   34.8930 S   0  0  0  0  0  0  0  0  0  0  0  0
   45.4240   23.6560   36.3490 C   0  0  0  0  0  0  0  0  0  0  0  0
   44.1850   23.8210   36.5480 N   0  0  0  0  0  0  0  0  0  0  0  0
   37.6070   22.5450   33.4420 C   0  0  1  0  0  0  0  0  0  0  0  0
   40.3670   26.4200   34.5420 C   0  0  0  0  0  0  0  0  0  0  0  0
   39.2390   27.0620   35.0820 C   0  0  0  0  0  0  0  0  0  0  0  0
   37.9880   26.7500   34.5670 C   0  0  0  0  0  0  0  0  0  0  0  0
   37.9360   25.8390   33.5690 N   0  0  0  0  0  0  0  0  0  0  0  0
   39.0320   25.2340   33.0640 C   0  0  0  0  0  0  0  0  0  0  0  0
   40.2450   25.5180   33.5430 N   0  0  0  0  0  0  0  0  0  0  0  0
   36.7930   27.3130   35.0120 N   0  0  0  0  0  0  0  0  0  0  0  0
   38.8080   24.2890   32.0020 N   0  0  0  0  0  0  0  0  0  0  0  0
   39.1510   24.3990   30.7410 N   0  0  0  0  0  0  0  0  0  0  0  0
   38.7900   23.3140   30.0240 C   0  0  0  0  0  0  0  0  0  0  0  0
   38.1690   22.4700   30.9390 C   0  0  0  0  0  0  0  0  0  0  0  0
   38.1980   23.1180   32.1850 C   0  0  0  0  0  0  0  0  0  0  0  0
   36.5610   21.5020   33.0730 C   0  0  0  0  0  0  0  0  0  0  0  0
   39.6848   22.1300   33.7660 H   0  0  0  0  0  0  0  0  0  0  0  0
   38.5683   20.8092   34.2525 H   0  0  0  0  0  0  0  0  0  0  0  0
   36.5543   22.9153   35.9378 H   0  0  0  0  0  0  0  0  0  0  0  0
   39.8939   23.3071   38.5526 H   0  0  0  0  0  0  0  0  0  0  0  0
   41.1896   21.6842   35.3058 H   0  0  0  0  0  0  0  0  0  0  0  0
   41.2691   21.9063   38.3758 H   0  0  0  0  0  0  0  0  0  0  0  0
   41.0862   20.4102   37.3986 H   0  0  0  0  0  0  0  0  0  0  0  0
   42.6480   21.2976   37.3986 H   0  0  0  0  0  0  0  0  0  0  0  0
   41.4516   24.1734   35.3823 H   0  0  0  0  0  0  0  0  0  0  0  0
   41.8962   24.0251   37.1206 H   0  0  0  0  0  0  0  0  0  0  0  0
   43.1721   21.7813   34.0008 H   0  0  0  0  0  0  0  0  0  0  0  0
   46.2506   24.1081   36.9168 H   0  0  0  0  0  0  0  0  0  0  0  0
   37.1298   23.3354   34.0400 H   0  0  0  0  0  0  0  0  0  0  0  0
   41.3654   26.6557   34.9391 H   0  0  0  0  0  0  0  0  0  0  0  0
   39.3452   27.7955   35.8948 H   0  0  0  0  0  0  0  0  0  0  0  0
   35.9001   27.0328   34.5818 H   0  0  0  0  0  0  0  0  0  0  0  0
   36.8029   28.0092   35.7710 H   0  0  0  0  0  0  0  0  0  0  0  0
   38.9515   23.1360   28.9506 H   0  0  0  0  0  0  0  0  0  0  0  0
   37.7365   21.4811   30.7267 H   0  0  0  0  0  0  0  0  0  0  0  0
   36.1311   21.0733   33.9903 H   0  0  0  0  0  0  0  0  0  0  0  0
   35.7639   21.9756   32.4810 H   0  0  0  0  0  0  0  0  0  0  0  0
   37.0323   20.7036   32.4810 H   0  0  0  0  0  0  0  0  0  0  0  0
  1  2  1  0
  2  3  2  0
  2  6  1  0
  3  4  1  0
  4  5  2  0
  6  5  1  0
  7  6  1  0
  7  8  1  0
  9  7  1  0
 10  9  1  0
 10 14  1  0
 11 12  1  0
 11 10  2  0
 12 13  1  0
 13 14  2  0
 15  1  1  0
 16 17  2  0
 18 22  1  0
 18 17  1  0
 19 18  2  0
 20 21  2  0
 20 19  1  0
 21 16  1  0
 23 27  1  0
 23 20  1  0
 24 23  1  0
 25 24  2  0
 25 26  1  0
 26 27  2  0
 27 15  1  0
 28 15  1  0
  1 29  1  0
  1 30  1  0
  3 31  1  0
  5 32  1  0
  7 33  1  6
  8 34  1  0
  8 35  1  0
  8 36  1  0
  9 37  1  0
  9 38  1  0
 11 39  1  0
 13 40  1  0
 15 41  1  1
 16 42  1  0
 17 43  1  0
 22 44  1  0
 22 45  1  0
 25 46  1  0
 26 47  1  0
 28 48  1  0
 28 49  1  0
 28 50  1  0
M  ISO  8  29   8  30   8  31  14  32  14  33   8  34   8  35   8  36   8
M  ISO  8  37   8  38   8  39  14  40  14  41   8  42  14  43  14  46  14
M  ISO  4  47  14  48   8  49   8  50   8
M  END
>  <minimizedAffinity>  (1) 
-4.9457674

>  <minimizedRMSD>  (1) 
0.283747882

$$$$
