
     RDKit          3D

 51 54  0  0  1  0  0  0  0  0999 V2000
   37.6040   22.5460   33.4470 C   0  0  1  0  0  0  0  0  0  0  0  0
   40.3590   26.4280   34.5340 C   0  0  0  0  0  0  0  0  0  0  0  0
   39.2290   27.0670   35.0770 C   0  0  0  0  0  0  0  0  0  0  0  0
   37.9770   26.7510   34.5650 C   0  0  0  0  0  0  0  0  0  0  0  0
   37.9250   25.8390   33.5670 N   0  0  0  0  0  0  0  0  0  0  0  0
   39.0200   25.2370   33.0600 C   0  0  0  0  0  0  0  0  0  0  0  0
   40.2340   25.5210   33.5330 N   0  0  0  0  0  0  0  0  0  0  0  0
   36.7820   27.3120   35.0110 N   0  0  0  0  0  0  0  0  0  0  0  0
   38.7960   24.2880   31.9990 N   0  0  0  0  0  0  0  0  0  0  0  0
   39.1340   24.3970   30.7380 N   0  0  0  0  0  0  0  0  0  0  0  0
   38.7730   23.3180   30.0230 C   0  0  0  0  0  0  0  0  0  0  0  0
   38.1540   22.4680   30.9420 C   0  0  0  0  0  0  0  0  0  0  0  0
   38.1870   23.1160   32.1880 C   0  0  0  0  0  0  0  0  0  0  0  0
   36.5780   21.4780   33.0830 C   0  0  0  0  0  0  0  0  0  0  0  0
   38.7240   21.9230   34.2450 C   0  0  0  0  0  0  0  0  0  0  0  0
   38.6930   22.4550   35.6590 C   0  0  0  0  0  0  0  0  0  0  0  0
   37.5620   22.9370   36.3170 C   0  0  0  0  0  0  0  0  0  0  0  0
   37.9110   23.3160   37.5340 N   0  0  0  0  0  0  0  0  0  0  0  0
   39.2370   23.0960   37.6890 C   0  0  0  0  0  0  0  0  0  0  0  0
   39.6880   22.5780   36.5490 N   0  0  0  0  0  0  0  0  0  0  0  0
   41.0390   22.2080   36.3190 C   0  0  2  0  0  0  0  0  0  0  0  0
   41.5190   21.4870   37.5710 C   0  0  0  0  0  0  0  0  0  0  0  0
   41.8700   23.4720   36.0970 C   0  0  0  0  0  0  0  0  0  0  0  0
   43.3010   23.1430   35.9910 C   0  0  0  0  0  0  0  0  0  0  0  0
   44.0650   22.1910   35.4400 C   0  0  0  0  0  0  0  0  0  0  0  0
   45.4250   22.2680   35.5830 C   0  0  0  0  0  0  0  0  0  0  0  0
   45.9580   23.2990   36.2750 C   0  0  0  0  0  0  0  0  0  0  0  0
   44.4200   24.2420   36.7660 S   0  0  0  0  0  0  0  0  0  0  0  0
   37.1123   23.3333   34.0372 H   0  0  0  0  0  0  0  0  0  0  0  0
   41.3582   26.6674   34.9269 H   0  0  0  0  0  0  0  0  0  0  0  0
   39.3348   27.8010   35.8895 H   0  0  0  0  0  0  0  0  0  0  0  0
   35.8889   27.0288   34.5832 H   0  0  0  0  0  0  0  0  0  0  0  0
   36.7918   28.0099   35.7685 H   0  0  0  0  0  0  0  0  0  0  0  0
   38.9306   23.1426   28.9486 H   0  0  0  0  0  0  0  0  0  0  0  0
   37.7224   21.4786   30.7304 H   0  0  0  0  0  0  0  0  0  0  0  0
   36.1598   21.0427   34.0026 H   0  0  0  0  0  0  0  0  0  0  0  0
   35.7694   21.9327   32.4919 H   0  0  0  0  0  0  0  0  0  0  0  0
   37.0648   20.6883   32.4919 H   0  0  0  0  0  0  0  0  0  0  0  0
   38.5983   20.8303   34.2617 H   0  0  0  0  0  0  0  0  0  0  0  0
   39.6887   22.1746   33.7802 H   0  0  0  0  0  0  0  0  0  0  0  0
   36.5483   22.9925   35.8936 H   0  0  0  0  0  0  0  0  0  0  0  0
   39.8319   23.3063   38.5900 H   0  0  0  0  0  0  0  0  0  0  0  0
   41.1369   21.5612   35.4347 H   0  0  0  0  0  0  0  0  0  0  0  0
   41.1620   22.0233   38.4626 H   0  0  0  0  0  0  0  0  0  0  0  0
   41.1233   20.4607   37.5775 H   0  0  0  0  0  0  0  0  0  0  0  0
   42.6185   21.4561   37.5775 H   0  0  0  0  0  0  0  0  0  0  0  0
   41.5422   23.9608   35.1677 H   0  0  0  0  0  0  0  0  0  0  0  0
   41.7249   24.1454   36.9546 H   0  0  0  0  0  0  0  0  0  0  0  0
   43.6077   21.3608   34.8817 H   0  0  0  0  0  0  0  0  0  0  0  0
   46.0756   21.4997   35.1398 H   0  0  0  0  0  0  0  0  0  0  0  0
   47.0130   23.5232   36.4913 H   0  0  0  0  0  0  0  0  0  0  0  0
  1 15  1  0
  2  3  2  0
  4  8  1  0
  4  3  1  0
  5  4  2  0
  6  7  2  0
  6  5  1  0
  7  2  1  0
  9 13  1  0
  9  6  1  0
 10  9  1  0
 11 10  2  0
 11 12  1  0
 12 13  2  0
 13  1  1  0
 14  1  1  0
 15 16  1  0
 16 17  2  0
 16 20  1  0
 17 18  1  0
 18 19  2  0
 20 19  1  0
 21 20  1  0
 21 22  1  0
 23 21  1  0
 24 23  1  0
 24 28  1  0
 25 26  1  0
 25 24  2  0
 26 27  2  0
 27 28  1  0
  1 29  1  1
  2 30  1  0
  3 31  1  0
  8 32  1  0
  8 33  1  0
 11 34  1  0
 12 35  1  0
 14 36  1  0
 14 37  1  0
 14 38  1  0
 15 39  1  0
 15 40  1  0
 17 41  1  0
 19 42  1  0
 21 43  1  6
 22 44  1  0
 22 45  1  0
 22 46  1  0
 23 47  1  0
 23 48  1  0
 25 49  1  0
 26 50  1  0
 27 51  1  0
M  ISO  8  29   8  30  14  31  14  34  14  35  14  36   8  37   8  38   8
M  ISO  8  39   8  40   8  41  14  42  14  43   8  44   8  45   8  46   8
M  ISO  5  47   8  48   8  49  14  50  14  51  14
M  END
>  <minimizedAffinity>  (1) 
-5.11077785

>  <minimizedRMSD>  (1) 
0.414323866

$$$$
