
     RDKit          3D

 51 54  0  0  1  0  0  0  0  0999 V2000
   37.5940   22.5560   33.4320 C   0  0  1  0  0  0  0  0  0  0  0  0
   40.3560   26.4300   34.5270 C   0  0  0  0  0  0  0  0  0  0  0  0
   39.2180   27.0740   35.0720 C   0  0  0  0  0  0  0  0  0  0  0  0
   37.9670   26.7600   34.5550 C   0  0  0  0  0  0  0  0  0  0  0  0
   37.9140   25.8490   33.5560 N   0  0  0  0  0  0  0  0  0  0  0  0
   39.0140   25.2460   33.0520 C   0  0  0  0  0  0  0  0  0  0  0  0
   40.2240   25.5330   33.5290 N   0  0  0  0  0  0  0  0  0  0  0  0
   36.7700   27.3200   35.0000 N   0  0  0  0  0  0  0  0  0  0  0  0
   38.7920   24.3010   31.9920 N   0  0  0  0  0  0  0  0  0  0  0  0
   39.1320   24.4070   30.7320 N   0  0  0  0  0  0  0  0  0  0  0  0
   38.7740   23.3320   30.0150 C   0  0  0  0  0  0  0  0  0  0  0  0
   38.1510   22.4800   30.9280 C   0  0  0  0  0  0  0  0  0  0  0  0
   38.1810   23.1290   32.1720 C   0  0  0  0  0  0  0  0  0  0  0  0
   36.5510   21.5060   33.0650 C   0  0  0  0  0  0  0  0  0  0  0  0
   38.7080   21.9070   34.2210 C   0  0  0  0  0  0  0  0  0  0  0  0
   38.7030   22.4410   35.6390 C   0  0  0  0  0  0  0  0  0  0  0  0
   37.5810   22.9050   36.3200 C   0  0  0  0  0  0  0  0  0  0  0  0
   37.9520   23.2910   37.5280 N   0  0  0  0  0  0  0  0  0  0  0  0
   39.2880   23.0900   37.6510 C   0  0  0  0  0  0  0  0  0  0  0  0
   39.7210   22.5760   36.4970 N   0  0  0  0  0  0  0  0  0  0  0  0
   41.0690   22.2340   36.2470 C   0  0  2  0  0  0  0  0  0  0  0  0
   41.5510   21.4060   37.4300 C   0  0  0  0  0  0  0  0  0  0  0  0
   41.9000   23.4920   36.0990 C   0  0  0  0  0  0  0  0  0  0  0  0
   43.2870   23.1830   35.7850 N   0  0  0  0  0  0  0  0  0  0  0  0
   44.3200   23.6850   36.4990 C   0  0  0  0  0  0  0  0  0  0  0  0
   45.4850   23.2140   35.9620 C   0  0  0  0  0  0  0  0  0  0  0  0
   45.1850   22.4330   34.9330 N   0  0  0  0  0  0  0  0  0  0  0  0
   43.8430   22.4270   34.8420 C   0  0  0  0  0  0  0  0  0  0  0  0
   37.1179   23.3472   34.0298 H   0  0  0  0  0  0  0  0  0  0  0  0
   41.3559   26.6637   34.9214 H   0  0  0  0  0  0  0  0  0  0  0  0
   39.3223   27.8062   35.8862 H   0  0  0  0  0  0  0  0  0  0  0  0
   35.8780   27.0386   34.5686 H   0  0  0  0  0  0  0  0  0  0  0  0
   36.7778   28.0150   35.7601 H   0  0  0  0  0  0  0  0  0  0  0  0
   38.9361   23.1592   28.9408 H   0  0  0  0  0  0  0  0  0  0  0  0
   37.7198   21.4909   30.7140 H   0  0  0  0  0  0  0  0  0  0  0  0
   36.1243   21.0764   33.9834 H   0  0  0  0  0  0  0  0  0  0  0  0
   35.7509   21.9750   32.4734 H   0  0  0  0  0  0  0  0  0  0  0  0
   37.0254   20.7091   32.4734 H   0  0  0  0  0  0  0  0  0  0  0  0
   38.5573   20.8175   34.2394 H   0  0  0  0  0  0  0  0  0  0  0  0
   39.6737   22.1367   33.7471 H   0  0  0  0  0  0  0  0  0  0  0  0
   36.5572   22.9438   35.9196 H   0  0  0  0  0  0  0  0  0  0  0  0
   39.9012   23.3098   38.5374 H   0  0  0  0  0  0  0  0  0  0  0  0
   41.1657   21.6585   35.3146 H   0  0  0  0  0  0  0  0  0  0  0  0
   41.2616   21.9031   38.3676 H   0  0  0  0  0  0  0  0  0  0  0  0
   41.0936   20.4065   37.3886 H   0  0  0  0  0  0  0  0  0  0  0  0
   42.6460   21.3102   37.3886 H   0  0  0  0  0  0  0  0  0  0  0  0
   41.4785   24.1052   35.2889 H   0  0  0  0  0  0  0  0  0  0  0  0
   41.8761   24.0351   37.0553 H   0  0  0  0  0  0  0  0  0  0  0  0
   44.2366   24.3582   37.3650 H   0  0  0  0  0  0  0  0  0  0  0  0
   46.4988   23.4435   36.3219 H   0  0  0  0  0  0  0  0  0  0  0  0
   43.2764   21.8673   34.0832 H   0  0  0  0  0  0  0  0  0  0  0  0
  1 15  1  0
  2  3  2  0
  4  8  1  0
  4  3  1  0
  5  4  2  0
  6  7  2  0
  6  5  1  0
  7  2  1  0
  9 13  1  0
  9  6  1  0
 10  9  1  0
 11 10  2  0
 11 12  1  0
 12 13  2  0
 13  1  1  0
 14  1  1  0
 15 16  1  0
 16 17  2  0
 16 20  1  0
 17 18  1  0
 18 19  2  0
 20 19  1  0
 21 20  1  0
 21 22  1  0
 23 21  1  0
 24 23  1  0
 24 25  1  0
 26 25  2  0
 27 26  1  0
 28 27  2  0
 28 24  1  0
  1 29  1  1
  2 30  1  0
  3 31  1  0
  8 32  1  0
  8 33  1  0
 11 34  1  0
 12 35  1  0
 14 36  1  0
 14 37  1  0
 14 38  1  0
 15 39  1  0
 15 40  1  0
 17 41  1  0
 19 42  1  0
 21 43  1  6
 22 44  1  0
 22 45  1  0
 22 46  1  0
 23 47  1  0
 23 48  1  0
 25 49  1  0
 26 50  1  0
 28 51  1  0
M  ISO  8  29   8  30  14  31  14  34  14  35  14  36   8  37   8  38   8
M  ISO  8  39   8  40   8  41  14  42  14  43   8  44   8  45   8  46   8
M  ISO  5  47   8  48   8  49  14  50  14  51  14
M  END
>  <minimizedAffinity>  (1) 
-4.87085104

>  <minimizedRMSD>  (1) 
0.268707931

$$$$
