
     RDKit          3D

 58 61  0  0  1  0  0  0  0  0999 V2000
   38.7000   21.8880   34.2080 C   0  0  0  0  0  0  0  0  0  0  0  0
   38.7150   22.4180   35.6110 C   0  0  0  0  0  0  0  0  0  0  0  0
   37.6070   22.8700   36.3220 C   0  0  0  0  0  0  0  0  0  0  0  0
   37.9990   23.2590   37.5350 N   0  0  0  0  0  0  0  0  0  0  0  0
   39.3350   23.0720   37.6300 C   0  0  0  0  0  0  0  0  0  0  0  0
   39.7520   22.5610   36.4560 N   0  0  0  0  0  0  0  0  0  0  0  0
   41.0960   22.2250   36.1790 C   0  0  2  0  0  0  0  0  0  0  0  0
   41.6040   21.3540   37.3260 C   0  0  0  0  0  0  0  0  0  0  0  0
   41.9170   23.5030   36.1060 C   0  0  0  0  0  0  0  0  0  0  0  0
   43.2560   23.0330   35.6920 N   0  0  0  0  0  0  0  0  0  0  0  0
   44.2760   23.9010   36.3190 C   0  0  0  0  0  0  0  0  0  0  0  0
   45.5780   23.1260   36.0650 C   0  0  0  0  0  0  0  0  0  0  0  0
   45.8620   23.1780   34.6650 N   0  0  0  0  0  0  0  0  0  0  0  0
   44.7710   22.7760   33.8230 C   0  0  0  0  0  0  0  0  0  0  0  0
   43.4600   23.3340   34.2570 C   0  0  0  0  0  0  0  0  0  0  0  0
   37.5960   22.5590   33.4260 C   0  0  1  0  0  0  0  0  0  0  0  0
   40.3900   26.4070   34.5200 C   0  0  0  0  0  0  0  0  0  0  0  0
   39.2480   27.0560   35.0730 C   0  0  0  0  0  0  0  0  0  0  0  0
   37.9890   26.7520   34.5610 C   0  0  0  0  0  0  0  0  0  0  0  0
   37.9470   25.8440   33.5560 N   0  0  0  0  0  0  0  0  0  0  0  0
   39.0340   25.2310   33.0360 C   0  0  0  0  0  0  0  0  0  0  0  0
   40.2500   25.5190   33.5230 N   0  0  0  0  0  0  0  0  0  0  0  0
   36.8080   27.3150   35.0150 N   0  0  0  0  0  0  0  0  0  0  0  0
   38.8090   24.3020   31.9830 N   0  0  0  0  0  0  0  0  0  0  0  0
   39.1520   24.4160   30.7180 N   0  0  0  0  0  0  0  0  0  0  0  0
   38.7740   23.3380   30.0030 C   0  0  0  0  0  0  0  0  0  0  0  0
   38.1420   22.4830   30.9150 C   0  0  0  0  0  0  0  0  0  0  0  0
   38.1810   23.1230   32.1630 C   0  0  0  0  0  0  0  0  0  0  0  0
   36.5380   21.5170   33.0540 C   0  0  0  0  0  0  0  0  0  0  0  0
   39.6675   22.0957   33.7276 H   0  0  0  0  0  0  0  0  0  0  0  0
   38.5255   20.8021   34.2290 H   0  0  0  0  0  0  0  0  0  0  0  0
   36.5745   22.9011   35.9438 H   0  0  0  0  0  0  0  0  0  0  0  0
   39.9642   23.2958   38.5041 H   0  0  0  0  0  0  0  0  0  0  0  0
   41.1797   21.6856   35.2240 H   0  0  0  0  0  0  0  0  0  0  0  0
   41.3335   21.8177   38.2861 H   0  0  0  0  0  0  0  0  0  0  0  0
   41.1463   20.3560   37.2590 H   0  0  0  0  0  0  0  0  0  0  0  0
   42.6980   21.2610   37.2590 H   0  0  0  0  0  0  0  0  0  0  0  0
   41.4975   24.1974   35.3631 H   0  0  0  0  0  0  0  0  0  0  0  0
   41.9332   24.0554   37.0571 H   0  0  0  0  0  0  0  0  0  0  0  0
   44.3034   24.8910   35.8403 H   0  0  0  0  0  0  0  0  0  0  0  0
   44.0861   24.1000   37.3841 H   0  0  0  0  0  0  0  0  0  0  0  0
   46.4020   23.5868   36.6296 H   0  0  0  0  0  0  0  0  0  0  0  0
   45.4689   22.0815   36.3924 H   0  0  0  0  0  0  0  0  0  0  0  0
   46.1153   24.1467   34.4235 H   0  0  0  0  0  0  0  0  0  0  0  0
   44.7054   21.6780   33.8358 H   0  0  0  0  0  0  0  0  0  0  0  0
   44.9749   23.1654   32.8146 H   0  0  0  0  0  0  0  0  0  0  0  0
   43.4550   24.4234   34.1049 H   0  0  0  0  0  0  0  0  0  0  0  0
   42.6507   22.8816   33.6650 H   0  0  0  0  0  0  0  0  0  0  0  0
   37.1386   23.3572   34.0290 H   0  0  0  0  0  0  0  0  0  0  0  0
   41.3920   26.6350   34.9124 H   0  0  0  0  0  0  0  0  0  0  0  0
   39.3590   27.7843   35.8899 H   0  0  0  0  0  0  0  0  0  0  0  0
   35.9106   27.0429   34.5890 H   0  0  0  0  0  0  0  0  0  0  0  0
   36.8270   28.0059   35.7787 H   0  0  0  0  0  0  0  0  0  0  0  0
   38.9293   23.1655   28.9278 H   0  0  0  0  0  0  0  0  0  0  0  0
   37.7004   21.4998   30.6952 H   0  0  0  0  0  0  0  0  0  0  0  0
   36.1050   21.0906   33.9709 H   0  0  0  0  0  0  0  0  0  0  0  0
   35.7441   21.9957   32.4619 H   0  0  0  0  0  0  0  0  0  0  0  0
   37.0046   20.7159   32.4619 H   0  0  0  0  0  0  0  0  0  0  0  0
  1  2  1  0
  2  3  2  0
  2  6  1  0
  3  4  1  0
  4  5  2  0
  6  5  1  0
  7  6  1  0
  7  8  1  0
  9  7  1  0
 10  9  1  0
 10 11  1  0
 12 11  1  0
 13 12  1  0
 14 15  1  0
 14 13  1  0
 15 10  1  0
 16  1  1  0
 17 18  2  0
 19 23  1  0
 19 18  1  0
 20 19  2  0
 21 22  2  0
 21 20  1  0
 22 17  1  0
 24 28  1  0
 24 21  1  0
 25 24  1  0
 26 25  2  0
 26 27  1  0
 27 28  2  0
 28 16  1  0
 29 16  1  0
  1 30  1  0
  1 31  1  0
  3 32  1  0
  5 33  1  0
  7 34  1  6
  8 35  1  0
  8 36  1  0
  8 37  1  0
  9 38  1  0
  9 39  1  0
 11 40  1  0
 11 41  1  0
 12 42  1  0
 12 43  1  0
 13 44  1  0
 14 45  1  0
 14 46  1  0
 15 47  1  0
 15 48  1  0
 16 49  1  1
 17 50  1  0
 18 51  1  0
 23 52  1  0
 23 53  1  0
 26 54  1  0
 27 55  1  0
 29 56  1  0
 29 57  1  0
 29 58  1  0
M  ISO  8  30   8  31   8  32  14  33  14  34   8  35   8  36   8  37   8
M  ISO  8  38   8  39   8  40  13  41  13  42  13  43  13  44   5  45  13
M  ISO  8  46  13  47  13  48  13  49   8  50  14  51  14  54  14  55  14
M  ISO  3  56   8  57   8  58   8
M  END
>  <minimizedAffinity>  (1) 
-4.89042997

>  <minimizedRMSD>  (1) 
0.305817842

$$$$
