
     RDKit          3D

 51 54  0  0  1  0  0  0  0  0999 V2000
   38.7200   21.9030   34.2280 C   0  0  0  0  0  0  0  0  0  0  0  0
   38.7110   22.4400   35.6380 C   0  0  0  0  0  0  0  0  0  0  0  0
   37.5940   22.9360   36.3140 C   0  0  0  0  0  0  0  0  0  0  0  0
   37.9610   23.3170   37.5230 N   0  0  0  0  0  0  0  0  0  0  0  0
   39.2960   23.0850   37.6640 C   0  0  0  0  0  0  0  0  0  0  0  0
   39.7230   22.5570   36.5140 N   0  0  0  0  0  0  0  0  0  0  0  0
   41.0640   22.1810   36.2750 C   0  0  2  0  0  0  0  0  0  0  0  0
   41.5350   21.3900   37.4890 C   0  0  0  0  0  0  0  0  0  0  0  0
   41.9150   23.4310   36.0950 C   0  0  0  0  0  0  0  0  0  0  0  0
   43.3040   23.0280   35.7720 N   0  0  0  0  0  0  0  0  0  0  0  0
   44.3150   23.5200   36.4590 N   0  0  0  0  0  0  0  0  0  0  0  0
   45.4820   23.0480   36.0310 C   0  0  0  0  0  0  0  0  0  0  0  0
   45.1360   22.2020   35.0020 C   0  0  0  0  0  0  0  0  0  0  0  0
   43.7660   22.1780   34.8260 C   0  0  0  0  0  0  0  0  0  0  0  0
   37.6040   22.5470   33.4360 C   0  0  1  0  0  0  0  0  0  0  0  0
   40.3790   26.4030   34.5450 C   0  0  0  0  0  0  0  0  0  0  0  0
   39.2520   27.0490   35.0950 C   0  0  0  0  0  0  0  0  0  0  0  0
   37.9950   26.7420   34.5810 C   0  0  0  0  0  0  0  0  0  0  0  0
   37.9390   25.8380   33.5770 N   0  0  0  0  0  0  0  0  0  0  0  0
   39.0370   25.2320   33.0650 C   0  0  0  0  0  0  0  0  0  0  0  0
   40.2470   25.5150   33.5470 N   0  0  0  0  0  0  0  0  0  0  0  0
   36.7990   27.3040   35.0300 N   0  0  0  0  0  0  0  0  0  0  0  0
   38.8080   24.2940   32.0000 N   0  0  0  0  0  0  0  0  0  0  0  0
   39.1460   24.4050   30.7420 N   0  0  0  0  0  0  0  0  0  0  0  0
   38.7740   23.3250   30.0200 C   0  0  0  0  0  0  0  0  0  0  0  0
   38.1540   22.4830   30.9320 C   0  0  0  0  0  0  0  0  0  0  0  0
   38.1920   23.1270   32.1800 C   0  0  0  0  0  0  0  0  0  0  0  0
   36.5640   21.4960   33.0680 C   0  0  0  0  0  0  0  0  0  0  0  0
   39.6858   22.1329   33.7543 H   0  0  0  0  0  0  0  0  0  0  0  0
   38.5725   20.8132   34.2498 H   0  0  0  0  0  0  0  0  0  0  0  0
   36.5747   22.9988   35.9053 H   0  0  0  0  0  0  0  0  0  0  0  0
   39.9061   23.2930   38.5554 H   0  0  0  0  0  0  0  0  0  0  0  0
   41.1511   21.5708   35.3639 H   0  0  0  0  0  0  0  0  0  0  0  0
   41.2256   21.9097   38.4078 H   0  0  0  0  0  0  0  0  0  0  0  0
   41.0880   20.3851   37.4678 H   0  0  0  0  0  0  0  0  0  0  0  0
   42.6314   21.3041   37.4678 H   0  0  0  0  0  0  0  0  0  0  0  0
   41.5074   24.0394   35.2742 H   0  0  0  0  0  0  0  0  0  0  0  0
   41.9063   24.0226   37.0223 H   0  0  0  0  0  0  0  0  0  0  0  0
   46.4882   23.2794   36.4104 H   0  0  0  0  0  0  0  0  0  0  0  0
   45.8531   21.6234   34.4012 H   0  0  0  0  0  0  0  0  0  0  0  0
   43.1864   21.6025   34.0892 H   0  0  0  0  0  0  0  0  0  0  0  0
   37.1220   23.3348   34.0335 H   0  0  0  0  0  0  0  0  0  0  0  0
   41.3803   26.6302   34.9396 H   0  0  0  0  0  0  0  0  0  0  0  0
   39.3637   27.7783   35.9109 H   0  0  0  0  0  0  0  0  0  0  0  0
   35.9057   27.0261   34.5991 H   0  0  0  0  0  0  0  0  0  0  0  0
   36.8097   27.9967   35.7922 H   0  0  0  0  0  0  0  0  0  0  0  0
   38.9288   23.1514   28.9449 H   0  0  0  0  0  0  0  0  0  0  0  0
   37.7154   21.4971   30.7182 H   0  0  0  0  0  0  0  0  0  0  0  0
   36.1376   21.0650   33.9858 H   0  0  0  0  0  0  0  0  0  0  0  0
   35.7634   21.9638   32.4762 H   0  0  0  0  0  0  0  0  0  0  0  0
   37.0402   20.7004   32.4762 H   0  0  0  0  0  0  0  0  0  0  0  0
  1  2  1  0
  2  3  2  0
  2  6  1  0
  3  4  1  0
  4  5  2  0
  6  5  1  0
  7  6  1  0
  7  8  1  0
  9  7  1  0
 10  9  1  0
 10 11  1  0
 12 11  2  0
 13 12  1  0
 14 13  2  0
 14 10  1  0
 15  1  1  0
 16 17  2  0
 18 22  1  0
 18 17  1  0
 19 18  2  0
 20 21  2  0
 20 19  1  0
 21 16  1  0
 23 27  1  0
 23 20  1  0
 24 23  1  0
 25 24  2  0
 25 26  1  0
 26 27  2  0
 27 15  1  0
 28 15  1  0
  1 29  1  0
  1 30  1  0
  3 31  1  0
  5 32  1  0
  7 33  1  6
  8 34  1  0
  8 35  1  0
  8 36  1  0
  9 37  1  0
  9 38  1  0
 12 39  1  0
 13 40  1  0
 14 41  1  0
 15 42  1  1
 16 43  1  0
 17 44  1  0
 22 45  1  0
 22 46  1  0
 25 47  1  0
 26 48  1  0
 28 49  1  0
 28 50  1  0
 28 51  1  0
M  ISO  8  29   8  30   8  31  14  32  14  33   8  34   8  35   8  36   8
M  ISO  8  37   8  38   8  39  14  40  14  41  14  42   8  43  14  44  14
M  ISO  5  47  14  48  14  49   8  50   8  51   8
M  END
>  <minimizedAffinity>  (1) 
-4.87757158

>  <minimizedRMSD>  (1) 
0.220967129

$$$$
