
     RDKit          3D

 30 32  0  0  0  0  0  0  0  0999 V2000
   42.3100   21.3610   35.9680 C   0  0  0  0  0  0  0  0  0  0  0  0
   41.7980   21.5590   34.6770 C   0  0  0  0  0  0  0  0  0  0  0  0
   40.7150   22.3680   34.8340 N   0  0  0  0  0  0  0  0  0  0  0  0
   40.6140   22.6220   36.1620 C   0  0  0  0  0  0  0  0  0  0  0  0
   41.5580   22.0300   36.8660 N   0  0  0  0  0  0  0  0  0  0  0  0
   44.4660   18.5770   37.2110 C   0  0  0  0  0  0  0  0  0  0  0  0
   43.3240   19.3470   36.9410 C   0  0  0  0  0  0  0  0  0  0  0  0
   43.4900   20.5410   36.2610 C   0  0  0  0  0  0  0  0  0  0  0  0
   44.7500   20.9130   35.8880 N   0  0  0  0  0  0  0  0  0  0  0  0
   45.8180   20.1470   36.1670 C   0  0  0  0  0  0  0  0  0  0  0  0
   45.6800   18.9850   36.8260 N   0  0  0  0  0  0  0  0  0  0  0  0
   39.5250   23.4900   36.7120 C   0  0  0  0  0  0  0  0  0  0  0  0
   39.3350   23.1670   38.1780 C   0  0  0  0  0  0  0  0  0  0  0  0
   37.8870   23.5010   38.3790 C   0  0  0  0  0  0  0  0  0  0  0  0
   37.2060   22.9390   37.1300 C   0  0  0  0  0  0  0  0  0  0  0  0
   38.1970   23.2410   36.0270 C   0  0  0  0  0  0  0  0  0  0  0  0
   42.1897   21.1468   33.7354 H   0  0  0  0  0  0  0  0  0  0  0  0
   41.6930   22.0698   37.8863 H   0  0  0  0  0  0  0  0  0  0  0  0
   44.3608   17.6227   37.7479 H   0  0  0  0  0  0  0  0  0  0  0  0
   42.3264   19.0114   37.2605 H   0  0  0  0  0  0  0  0  0  0  0  0
   46.8190   20.4761   35.8514 H   0  0  0  0  0  0  0  0  0  0  0  0
   39.8252   24.5356   36.5489 H   0  0  0  0  0  0  0  0  0  0  0  0
   39.5335   22.1047   38.3833 H   0  0  0  0  0  0  0  0  0  0  0  0
   40.0159   23.7136   38.8471 H   0  0  0  0  0  0  0  0  0  0  0  0
   37.4965   23.0203   39.2881 H   0  0  0  0  0  0  0  0  0  0  0  0
   37.7133   24.5794   38.5094 H   0  0  0  0  0  0  0  0  0  0  0  0
   37.0405   21.8557   37.2252 H   0  0  0  0  0  0  0  0  0  0  0  0
   36.2130   23.3759   36.9478 H   0  0  0  0  0  0  0  0  0  0  0  0
   37.8835   24.1338   35.4660 H   0  0  0  0  0  0  0  0  0  0  0  0
   38.2647   22.4104   35.3090 H   0  0  0  0  0  0  0  0  0  0  0  0
  1  8  1  0
  1  5  1  0
  2  3  1  0
  2  1  2  0
  3  4  2  0
  4 12  1  0
  4  5  1  0
  7  6  2  0
  8  7  1  0
  9 10  1  0
  9  8  2  0
 10 11  2  0
 11  6  1  0
 12 13  1  0
 13 14  1  0
 15 14  1  0
 16 12  1  0
 16 15  1  0
  2 17  1  0
  5 18  1  0
  6 19  1  0
  7 20  1  0
 10 21  1  0
 12 22  1  0
 13 23  1  0
 13 24  1  0
 14 25  1  0
 14 26  1  0
 15 27  1  0
 15 28  1  0
 16 29  1  0
 16 30  1  0
M  ISO  8  17  14  18   9  19  14  20  14  21  14  22  13  23  13  24  13
M  ISO  6  25  13  26  13  27  13  28  13  29  13  30  13
M  END
>  <minimizedAffinity>  (1) 
-3.60925531

>  <minimizedRMSD>  (1) 
3.80608368

$$$$
