
     RDKit          3D

 19 20  0  0  0  0  0  0  0  0999 V2000
   40.8110   22.0960   36.7020 C   0  0  0  0  0  0  0  0  0  0  0  0
   40.2460   23.0130   35.8260 C   0  0  0  0  0  0  0  0  0  0  0  0
   39.2690   23.6540   36.5200 N   0  0  0  0  0  0  0  0  0  0  0  0
   39.2530   23.1380   37.7610 C   0  0  0  0  0  0  0  0  0  0  0  0
   40.1720   22.2030   37.8830 N   0  0  0  0  0  0  0  0  0  0  0  0
   43.5610   19.6200   37.0400 C   0  0  0  0  0  0  0  0  0  0  0  0
   42.5110   20.4820   37.3830 C   0  0  0  0  0  0  0  0  0  0  0  0
   41.8980   21.2020   36.3510 C   0  0  0  0  0  0  0  0  0  0  0  0
   42.3600   21.0230   35.0790 N   0  0  0  0  0  0  0  0  0  0  0  0
   43.3670   20.1870   34.8040 C   0  0  0  0  0  0  0  0  0  0  0  0
   43.9690   19.4870   35.7640 N   0  0  0  0  0  0  0  0  0  0  0  0
   38.3350   23.5770   38.7930 C   0  0  0  0  0  0  0  0  0  0  0  0
   37.9660   24.7860   38.9210 O   0  0  0  0  0  0  0  0  0  0  0  0
   40.5323   23.1863   34.7782 H   0  0  0  0  0  0  0  0  0  0  0  0
   40.3675   21.6515   38.7307 H   0  0  0  0  0  0  0  0  0  0  0  0
   44.0620   19.0403   37.8292 H   0  0  0  0  0  0  0  0  0  0  0  0
   42.1801   20.5891   38.4266 H   0  0  0  0  0  0  0  0  0  0  0  0
   43.7051   20.0752   33.7633 H   0  0  0  0  0  0  0  0  0  0  0  0
   37.9400   22.8299   39.4971 H   0  0  0  0  0  0  0  0  0  0  0  0
  1  5  1  0
  2  3  1  0
  2  1  2  0
  3  4  2  0
  4  5  1  0
  4 12  1  0
  6  7  2  0
  8  1  1  0
  8  7  1  0
  9  8  2  0
 10  9  1  0
 10 11  2  0
 11  6  1  0
 12 13  2  0
  2 14  1  0
  5 15  1  0
  6 16  1  0
  7 17  1  0
 10 18  1  0
 12 19  1  0
M  ISO  6  14  14  15   9  16  14  17  14  18  14  19   6
M  END
>  <minimizedAffinity>  (1) 
-3.67071724

>  <minimizedRMSD>  (1) 
1.72872663

$$$$
