
     RDKit          3D

 24 25  0  0  0  0  0  0  0  0999 V2000
   38.5250   23.7760   34.9150 C   0  0  0  0  0  0  0  0  0  0  0  0
   38.7350   24.4500   36.1090 C   0  0  0  0  0  0  0  0  0  0  0  0
   39.4540   23.5850   36.8730 N   0  0  0  0  0  0  0  0  0  0  0  0
   39.6480   22.4690   36.1550 C   0  0  0  0  0  0  0  0  0  0  0  0
   39.0950   22.5600   34.9650 N   0  0  0  0  0  0  0  0  0  0  0  0
   40.3530   21.2880   36.5530 N   0  0  0  0  0  0  0  0  0  0  0  0
   41.6090   21.4140   37.2040 C   0  0  0  0  0  0  0  0  0  0  0  0
   42.4440   22.3240   36.8630 N   0  0  0  0  0  0  0  0  0  0  0  0
   41.9960   20.5210   38.2710 N   0  0  0  0  0  0  0  0  0  0  0  0
   42.2620   23.0120   36.1070 H   0  0  0  0  0  0  0  0  0  0  0  0
   36.6830   24.0240   31.6730 C   0  0  0  0  0  0  0  0  0  0  0  0
   37.3850   23.4670   32.7480 C   0  0  0  0  0  0  0  0  0  0  0  0
   37.7850   24.3220   33.7720 C   0  0  0  0  0  0  0  0  0  0  0  0
   37.4700   25.6670   33.6760 N   0  0  0  0  0  0  0  0  0  0  0  0
   36.7970   26.1330   32.6240 C   0  0  0  0  0  0  0  0  0  0  0  0
   36.4020   25.3330   31.6280 N   0  0  0  0  0  0  0  0  0  0  0  0
   38.3950   25.4609   36.3783 H   0  0  0  0  0  0  0  0  0  0  0  0
   39.0982   21.8454   34.2232 H   0  0  0  0  0  0  0  0  0  0  0  0
   39.9534   20.3567   36.3691 H   0  0  0  0  0  0  0  0  0  0  0  0
   42.9122   20.6317   38.7284 H   0  0  0  0  0  0  0  0  0  0  0  0
   41.3558   19.7734   38.5746 H   0  0  0  0  0  0  0  0  0  0  0  0
   36.3554   23.3738   30.8484 H   0  0  0  0  0  0  0  0  0  0  0  0
   37.6129   22.3914   32.7829 H   0  0  0  0  0  0  0  0  0  0  0  0
   36.5599   27.2060   32.5738 H   0  0  0  0  0  0  0  0  0  0  0  0
  1  5  1  0
  1  2  2  0
  2  3  1  0
  4  6  1  0
  4  3  2  0
  5  4  1  0
  6  7  1  0
  7  9  1  0
  8  7  2  0
 10  8  1  0
 11 12  2  0
 12 13  1  0
 13  1  1  0
 14 13  2  0
 15 14  1  0
 16 11  1  0
 16 15  2  0
  2 17  1  0
  5 18  1  0
  6 19  1  0
  9 20  1  0
  9 21  1  0
 11 22  1  0
 12 23  1  0
 15 24  1  0
M  ISO  5  17  14  18   9  22  14  23  14  24  14
M  END
>  <minimizedAffinity>  (1) 
-4.09241056

>  <minimizedRMSD>  (1) 
5.89770937

$$$$
