
     RDKit          3D

 47 50  0  0  1  0  0  0  0  0999 V2000
   37.9680   22.7550   31.3170 N   0  0  0  0  0  0  0  0  0  0  0  0
   37.4970   23.8520   30.4930 C   0  0  0  0  0  0  0  0  0  0  0  0
   38.7380   24.6500   30.1080 C   0  0  0  0  0  0  0  0  0  0  0  0
   39.4850   23.7950   29.1100 C   0  0  0  0  0  0  0  0  0  0  0  0
   39.1630   22.3230   29.3030 C   0  0  0  0  0  0  0  0  0  0  0  0
   39.1330   22.0740   30.8120 C   0  0  2  0  0  0  0  0  0  0  0  0
   39.9460   22.7600   37.3290 C   0  0  0  0  0  0  0  0  0  0  0  0
   39.2130   23.1750   38.4350 C   0  0  0  0  0  0  0  0  0  0  0  0
   37.8300   23.2230   38.3300 C   0  0  0  0  0  0  0  0  0  0  0  0
   37.2510   22.8630   37.1470 N   0  0  0  0  0  0  0  0  0  0  0  0
   37.9950   22.4660   36.0930 C   0  0  0  0  0  0  0  0  0  0  0  0
   39.3460   22.4150   36.1850 N   0  0  0  0  0  0  0  0  0  0  0  0
   37.3960   22.0930   34.8680 N   0  0  0  0  0  0  0  0  0  0  0  0
   37.9700   22.6040   33.7820 C   0  0  0  0  0  0  0  0  0  0  0  0
   37.4460   22.2880   32.5330 C   0  0  0  0  0  0  0  0  0  0  0  0
   36.3570   21.4570   32.5390 C   0  0  0  0  0  0  0  0  0  0  0  0
   35.7070   21.0610   31.3520 N   0  0  0  0  0  0  0  0  0  0  0  0
   35.7990   20.9560   33.6510 N   0  0  0  0  0  0  0  0  0  0  0  0
   36.3290   21.2790   34.8630 C   0  0  0  0  0  0  0  0  0  0  0  0
   35.8850   20.8650   35.9490 O   0  0  0  0  0  0  0  0  0  0  0  0
   39.3150   20.7130   31.1430 N   0  0  0  0  0  0  0  0  0  0  0  0
   38.6620   19.6300   30.6990 C   0  0  0  0  0  0  0  0  0  0  0  0
   38.8650   18.3220   31.0220 C   0  0  0  0  0  0  0  0  0  0  0  0
   39.8700   18.0580   31.9220 C   0  0  0  0  0  0  0  0  0  0  0  0
   40.1100   16.7020   32.2830 N   0  0  0  0  0  0  0  0  0  0  0  0
   40.5680   19.0930   32.4110 N   0  0  0  0  0  0  0  0  0  0  0  0
   40.2970   20.3740   32.0330 C   0  0  0  0  0  0  0  0  0  0  0  0
   41.0700   21.1770   32.6100 O   0  0  0  0  0  0  0  0  0  0  0  0
   36.9959   23.4664   29.5929 H   0  0  0  0  0  0  0  0  0  0  0  0
   36.7672   24.4755   31.0302 H   0  0  0  0  0  0  0  0  0  0  0  0
   38.4505   25.6086   29.6515 H   0  0  0  0  0  0  0  0  0  0  0  0
   39.3583   24.8822   30.9862 H   0  0  0  0  0  0  0  0  0  0  0  0
   40.5661   23.9471   29.2445 H   0  0  0  0  0  0  0  0  0  0  0  0
   39.1766   24.0905   28.0963 H   0  0  0  0  0  0  0  0  0  0  0  0
   38.1838   22.0879   28.8604 H   0  0  0  0  0  0  0  0  0  0  0  0
   39.9132   21.6860   28.8116 H   0  0  0  0  0  0  0  0  0  0  0  0
   39.9979   22.5040   31.3383 H   0  0  0  0  0  0  0  0  0  0  0  0
   41.0430   22.7145   37.3965 H   0  0  0  0  0  0  0  0  0  0  0  0
   39.7170   23.4585   39.3707 H   0  0  0  0  0  0  0  0  0  0  0  0
   37.2131   23.5444   39.1821 H   0  0  0  0  0  0  0  0  0  0  0  0
   38.8445   23.2654   33.8704 H   0  0  0  0  0  0  0  0  0  0  0  0
   34.8905   20.4346   31.3963 H   0  0  0  0  0  0  0  0  0  0  0  0
   36.0487   21.3981   30.4407 H   0  0  0  0  0  0  0  0  0  0  0  0
   37.8544   19.8229   29.9775 H   0  0  0  0  0  0  0  0  0  0  0  0
   38.2553   17.5177   30.5846 H   0  0  0  0  0  0  0  0  0  0  0  0
   40.8561   16.4723   32.9549 H   0  0  0  0  0  0  0  0  0  0  0  0
   39.5376   15.9507   31.8723 H   0  0  0  0  0  0  0  0  0  0  0  0
  1 15  1  0
  2  1  1  0
  3  2  1  0
  4  5  1  0
  4  3  1  0
  5  6  1  0
  6 21  1  0
  6  1  1  0
  7  8  2  0
  9  8  1  0
 10  9  2  0
 11 12  2  0
 11 10  1  0
 12  7  1  0
 13 11  1  0
 14 13  1  0
 15 16  1  0
 15 14  2  0
 16 18  2  0
 17 16  1  0
 18 19  1  0
 19 13  1  0
 19 20  2  0
 21 27  1  0
 22 23  2  0
 22 21  1  0
 23 24  1  0
 24 25  1  0
 24 26  2  0
 27 26  1  0
 27 28  2  0
  2 29  1  0
  2 30  1  0
  3 31  1  0
  3 32  1  0
  4 33  1  0
  4 34  1  0
  5 35  1  0
  5 36  1  0
  6 37  1  1
  7 38  1  0
  8 39  1  0
  9 40  1  0
 14 41  1  0
 17 42  1  0
 17 43  1  0
 22 44  1  0
 23 45  1  0
 25 46  1  0
 25 47  1  0
M  ISO  8  29  13  30  13  31  13  32  13  33  13  34  13  35  13  36  13
M  ISO  7  37  13  38  14  39  14  40  14  41  14  44  14  45  14
M  END
>  <minimizedAffinity>  (1) 
-5.24838209

>  <minimizedRMSD>  (1) 
1.49202657

$$$$
