
     RDKit          3D

 43 46  0  0  1  0  0  0  0  0999 V2000
   37.9530   22.7740   31.3090 N   0  0  0  0  0  0  0  0  0  0  0  0
   37.4950   23.8790   30.5020 C   0  0  0  0  0  0  0  0  0  0  0  0
   38.7560   24.6610   30.1260 C   0  0  0  0  0  0  0  0  0  0  0  0
   39.4940   23.7830   29.1250 C   0  0  0  0  0  0  0  0  0  0  0  0
   39.1530   22.3250   29.3040 C   0  0  0  0  0  0  0  0  0  0  0  0
   39.1050   22.0520   30.7920 C   0  0  2  0  0  0  0  0  0  0  0  0
   39.9200   22.7490   37.3330 C   0  0  0  0  0  0  0  0  0  0  0  0
   39.1860   23.1740   38.4410 C   0  0  0  0  0  0  0  0  0  0  0  0
   37.8100   23.2330   38.3310 C   0  0  0  0  0  0  0  0  0  0  0  0
   37.2340   22.8720   37.1420 N   0  0  0  0  0  0  0  0  0  0  0  0
   37.9760   22.4690   36.0970 C   0  0  0  0  0  0  0  0  0  0  0  0
   39.3170   22.4100   36.2000 N   0  0  0  0  0  0  0  0  0  0  0  0
   37.3820   22.0940   34.8640 N   0  0  0  0  0  0  0  0  0  0  0  0
   37.9660   22.6180   33.7790 C   0  0  0  0  0  0  0  0  0  0  0  0
   37.4390   22.2950   32.5330 C   0  0  0  0  0  0  0  0  0  0  0  0
   36.3510   21.4590   32.5360 C   0  0  0  0  0  0  0  0  0  0  0  0
   35.7130   21.0470   31.3430 N   0  0  0  0  0  0  0  0  0  0  0  0
   35.7930   20.9540   33.6430 N   0  0  0  0  0  0  0  0  0  0  0  0
   36.3180   21.2770   34.8510 C   0  0  0  0  0  0  0  0  0  0  0  0
   35.8760   20.8630   35.9390 O   0  0  0  0  0  0  0  0  0  0  0  0
   39.0590   20.6450   31.0530 N   0  0  0  0  0  0  0  0  0  0  0  0
   38.3090   19.7660   30.3740 N   0  0  0  0  0  0  0  0  0  0  0  0
   38.4760   18.5300   30.8450 C   0  0  0  0  0  0  0  0  0  0  0  0
   39.3720   18.5700   31.8810 C   0  0  0  0  0  0  0  0  0  0  0  0
   39.7000   19.9090   31.9650 C   0  0  0  0  0  0  0  0  0  0  0  0
   36.9873   23.5106   29.5984 H   0  0  0  0  0  0  0  0  0  0  0  0
   36.7714   24.5069   31.0426 H   0  0  0  0  0  0  0  0  0  0  0  0
   38.4887   25.6250   29.6685 H   0  0  0  0  0  0  0  0  0  0  0  0
   39.3753   24.8858   31.0069 H   0  0  0  0  0  0  0  0  0  0  0  0
   40.5770   23.9156   29.2650 H   0  0  0  0  0  0  0  0  0  0  0  0
   39.1874   24.0850   28.1127 H   0  0  0  0  0  0  0  0  0  0  0  0
   38.1745   22.1090   28.8501 H   0  0  0  0  0  0  0  0  0  0  0  0
   39.9044   21.6871   28.8156 H   0  0  0  0  0  0  0  0  0  0  0  0
   40.0138   22.4029   31.3028 H   0  0  0  0  0  0  0  0  0  0  0  0
   41.0166   22.6940   37.3995 H   0  0  0  0  0  0  0  0  0  0  0  0
   39.6898   23.4548   39.3777 H   0  0  0  0  0  0  0  0  0  0  0  0
   37.1914   23.5623   39.1788 H   0  0  0  0  0  0  0  0  0  0  0  0
   38.8366   23.2841   33.8703 H   0  0  0  0  0  0  0  0  0  0  0  0
   34.8982   20.4183   31.3853 H   0  0  0  0  0  0  0  0  0  0  0  0
   36.0631   21.3756   30.4318 H   0  0  0  0  0  0  0  0  0  0  0  0
   37.9767   17.6267   30.4646 H   0  0  0  0  0  0  0  0  0  0  0  0
   39.7410   17.7368   32.4971 H   0  0  0  0  0  0  0  0  0  0  0  0
   40.4079   20.3220   32.6987 H   0  0  0  0  0  0  0  0  0  0  0  0
  1 15  1  0
  2  1  1  0
  3  2  1  0
  4  5  1  0
  4  3  1  0
  5  6  1  0
  6 21  1  0
  6  1  1  0
  7  8  2  0
  9  8  1  0
 10  9  2  0
 11 12  2  0
 11 10  1  0
 12  7  1  0
 13 11  1  0
 14 13  1  0
 15 16  1  0
 15 14  2  0
 16 18  2  0
 17 16  1  0
 18 19  1  0
 19 13  1  0
 19 20  2  0
 21 25  1  0
 22 23  2  0
 22 21  1  0
 23 24  1  0
 24 25  2  0
  2 26  1  0
  2 27  1  0
  3 28  1  0
  3 29  1  0
  4 30  1  0
  4 31  1  0
  5 32  1  0
  5 33  1  0
  6 34  1  1
  7 35  1  0
  8 36  1  0
  9 37  1  0
 14 38  1  0
 17 39  1  0
 17 40  1  0
 23 41  1  0
 24 42  1  0
 25 43  1  0
M  ISO  8  26  13  27  13  28  13  29  13  30  13  31  13  32  13  33  13
M  ISO  8  34  13  35  14  36  14  37  14  38  14  41  14  42  14  43  14
M  END
>  <minimizedAffinity>  (1) 
-5.24634171

>  <minimizedRMSD>  (1) 
1.27032924

$$$$
