
     RDKit          3D

 33 35  0  0  0  0  0  0  0  0999 V2000
   39.4890   23.4950   36.1150 C   0  0  0  0  0  0  0  0  0  0  0  0
   38.5300   23.6970   37.1200 C   0  0  0  0  0  0  0  0  0  0  0  0
   37.7030   24.6630   36.6450 N   0  0  0  0  0  0  0  0  0  0  0  0
   38.1550   25.0050   35.4290 C   0  0  0  0  0  0  0  0  0  0  0  0
   39.2290   24.3190   35.0800 N   0  0  0  0  0  0  0  0  0  0  0  0
   41.9520   21.0740   37.5170 C   0  0  0  0  0  0  0  0  0  0  0  0
   40.8910   21.9990   37.4680 C   0  0  0  0  0  0  0  0  0  0  0  0
   40.5900   22.5250   36.2110 C   0  0  0  0  0  0  0  0  0  0  0  0
   41.3160   22.1350   35.1070 N   0  0  0  0  0  0  0  0  0  0  0  0
   42.3110   21.2500   35.2380 C   0  0  0  0  0  0  0  0  0  0  0  0
   42.6290   20.7260   36.4140 N   0  0  0  0  0  0  0  0  0  0  0  0
   37.5210   26.0260   34.5920 C   0  0  0  0  0  0  0  0  0  0  0  0
   37.2590   27.3590   34.8780 C   0  0  0  0  0  0  0  0  0  0  0  0
   36.6520   27.9960   33.8480 C   0  0  0  0  0  0  0  0  0  0  0  0
   36.5390   27.0460   32.9160 N   0  0  0  0  0  0  0  0  0  0  0  0
   37.0420   25.8790   33.3310 N   0  0  0  0  0  0  0  0  0  0  0  0
   35.9710   27.0970   31.5770 C   0  0  0  0  0  0  0  0  0  0  0  0
   36.9850   27.7040   30.6110 C   0  0  0  0  0  0  0  0  0  0  0  0
   35.5760   25.7270   31.1330 C   0  0  0  0  0  0  0  0  0  0  0  0
   38.4628   23.1808   38.0891 H   0  0  0  0  0  0  0  0  0  0  0  0
   39.7580   24.3975   34.1997 H   0  0  0  0  0  0  0  0  0  0  0  0
   42.2313   20.6271   38.4825 H   0  0  0  0  0  0  0  0  0  0  0  0
   40.3315   22.2902   38.3692 H   0  0  0  0  0  0  0  0  0  0  0  0
   42.8805   20.9490   34.3463 H   0  0  0  0  0  0  0  0  0  0  0  0
   37.5151   27.8428   35.8321 H   0  0  0  0  0  0  0  0  0  0  0  0
   36.3290   29.0460   33.7924 H   0  0  0  0  0  0  0  0  0  0  0  0
   35.0708   27.7291   31.5886 H   0  0  0  0  0  0  0  0  0  0  0  0
   37.7917   28.1869   31.1819 H   0  0  0  0  0  0  0  0  0  0  0  0
   37.4083   26.9106   29.9775 H   0  0  0  0  0  0  0  0  0  0  0  0
   36.4857   28.4519   29.9775 H   0  0  0  0  0  0  0  0  0  0  0  0
   35.3936   25.0943   32.0142 H   0  0  0  0  0  0  0  0  0  0  0  0
   34.6587   25.7876   30.5289 H   0  0  0  0  0  0  0  0  0  0  0  0
   36.3847   25.2899   30.5289 H   0  0  0  0  0  0  0  0  0  0  0  0
  1  8  1  0
  1  2  2  0
  3  2  1  0
  4  3  2  0
  5  4  1  0
  5  1  1  0
  7  6  2  0
  8  7  1  0
  9 10  1  0
  9  8  2  0
 10 11  2  0
 11  6  1  0
 12 13  1  0
 12  4  1  0
 14 13  2  0
 15 16  1  0
 15 14  1  0
 16 12  2  0
 17 15  1  0
 18 17  1  0
 19 17  1  0
  2 20  1  0
  5 21  1  0
  6 22  1  0
  7 23  1  0
 10 24  1  0
 13 25  1  0
 14 26  1  0
 17 27  1  0
 18 28  1  0
 18 29  1  0
 18 30  1  0
 19 31  1  0
 19 32  1  0
 19 33  1  0
M  ISO  8  20  14  21   9  22  14  23  14  24  14  25  14  26  14  27   8
M  ISO  6  28   8  29   8  30   8  31   8  32   8  33   8
M  END
>  <minimizedAffinity>  (1) 
-4.707376

>  <minimizedRMSD>  (1) 
2.94849896

$$$$
