
     RDKit          3D

 41 44  0  0  1  0  0  0  0  0999 V2000
   37.6680   25.9410   34.7090 C   0  0  0  0  0  0  0  0  0  0  0  0
   37.1080   27.1580   35.0740 C   0  0  0  0  0  0  0  0  0  0  0  0
   36.6230   27.8400   34.0090 C   0  0  0  0  0  0  0  0  0  0  0  0
   36.8890   27.0280   32.9660 N   0  0  0  0  0  0  0  0  0  0  0  0
   37.4970   25.9270   33.3740 N   0  0  0  0  0  0  0  0  0  0  0  0
   39.6100   23.3880   36.2300 C   0  0  0  0  0  0  0  0  0  0  0  0
   38.6800   23.6200   37.2420 C   0  0  0  0  0  0  0  0  0  0  0  0
   37.8620   24.5970   36.7740 N   0  0  0  0  0  0  0  0  0  0  0  0
   38.2920   24.9210   35.5480 C   0  0  0  0  0  0  0  0  0  0  0  0
   39.3520   24.2090   35.1800 N   0  0  0  0  0  0  0  0  0  0  0  0
   42.0700   20.9430   37.6000 C   0  0  0  0  0  0  0  0  0  0  0  0
   41.0210   21.8850   37.5560 C   0  0  0  0  0  0  0  0  0  0  0  0
   40.7040   22.4000   36.2950 C   0  0  0  0  0  0  0  0  0  0  0  0
   41.4040   21.9860   35.1810 N   0  0  0  0  0  0  0  0  0  0  0  0
   42.3840   21.0900   35.3220 C   0  0  0  0  0  0  0  0  0  0  0  0
   42.7170   20.5740   36.4950 N   0  0  0  0  0  0  0  0  0  0  0  0
   36.6150   27.1880   31.5580 C   0  0  1  0  0  0  0  0  0  0  0  0
   37.9440   27.2040   30.7860 C   0  0  0  0  0  0  0  0  0  0  0  0
   35.7480   26.1020   31.0560 C   0  0  0  0  0  0  0  0  0  0  0  0
   36.3220   24.7620   30.9810 C   0  0  0  0  0  0  0  0  0  0  0  0
   35.4150   23.8250   31.4910 C   0  0  0  0  0  0  0  0  0  0  0  0
   35.6800   22.4740   31.5510 C   0  0  0  0  0  0  0  0  0  0  0  0
   36.8760   22.0150   31.0960 N   0  0  0  0  0  0  0  0  0  0  0  0
   37.7530   22.9020   30.6050 C   0  0  0  0  0  0  0  0  0  0  0  0
   37.4660   24.1930   30.5630 N   0  0  0  0  0  0  0  0  0  0  0  0
   37.0633   27.5261   36.1096 H   0  0  0  0  0  0  0  0  0  0  0  0
   36.1293   28.8229   33.9977 H   0  0  0  0  0  0  0  0  0  0  0  0
   38.6211   23.1158   38.2179 H   0  0  0  0  0  0  0  0  0  0  0  0
   39.8669   24.2674   34.2899 H   0  0  0  0  0  0  0  0  0  0  0  0
   42.3599   20.5041   38.5661 H   0  0  0  0  0  0  0  0  0  0  0  0
   40.4824   22.1971   38.4629 H   0  0  0  0  0  0  0  0  0  0  0  0
   42.9370   20.7676   34.4275 H   0  0  0  0  0  0  0  0  0  0  0  0
   36.0828   28.1386   31.4061 H   0  0  0  0  0  0  0  0  0  0  0  0
   38.7819   27.2141   31.4986 H   0  0  0  0  0  0  0  0  0  0  0  0
   38.0114   26.3066   30.1534 H   0  0  0  0  0  0  0  0  0  0  0  0
   37.9898   28.1028   30.1534 H   0  0  0  0  0  0  0  0  0  0  0  0
   34.8708   26.0482   31.7175 H   0  0  0  0  0  0  0  0  0  0  0  0
   35.5338   26.3741   30.0119 H   0  0  0  0  0  0  0  0  0  0  0  0
   34.4439   24.1848   31.8617 H   0  0  0  0  0  0  0  0  0  0  0  0
   34.9344   21.7769   31.9612 H   0  0  0  0  0  0  0  0  0  0  0  0
   38.7263   22.5512   30.2312 H   0  0  0  0  0  0  0  0  0  0  0  0
  1  2  1  0
  1  9  1  0
  3  2  2  0
  4  5  1  0
  4  3  1  0
  5  1  2  0
  6 13  1  0
  6  7  2  0
  8  7  1  0
  9  8  2  0
 10  9  1  0
 10  6  1  0
 12 11  2  0
 13 12  1  0
 14 15  1  0
 14 13  2  0
 15 16  2  0
 16 11  1  0
 17  4  1  0
 18 17  1  0
 19 17  1  0
 20 19  1  0
 20 21  2  0
 21 22  1  0
 23 22  2  0
 24 23  1  0
 25 24  2  0
 25 20  1  0
  2 26  1  0
  3 27  1  0
  7 28  1  0
 10 29  1  0
 11 30  1  0
 12 31  1  0
 15 32  1  0
 17 33  1  1
 18 34  1  0
 18 35  1  0
 18 36  1  0
 19 37  1  0
 19 38  1  0
 21 39  1  0
 22 40  1  0
 24 41  1  0
M  ISO  8  26  14  27  14  28  14  29   9  30  14  31  14  32  14  33   8
M  ISO  8  34   8  35   8  36   8  37   8  38   8  39  14  40  14  41  14
M  END
>  <minimizedAffinity>  (1) 
-5.49555254

>  <minimizedRMSD>  (1) 
0.62175256

$$$$
