
     RDKit          3D

 44 48  0  0  1  0  0  0  0  0999 V2000
   37.6710   25.8140   34.7170 C   0  0  0  0  0  0  0  0  0  0  0  0
   37.2900   27.1060   35.0230 C   0  0  0  0  0  0  0  0  0  0  0  0
   36.6940   27.7250   33.9780 C   0  0  0  0  0  0  0  0  0  0  0  0
   36.7020   26.8100   33.0110 N   0  0  0  0  0  0  0  0  0  0  0  0
   37.2720   25.6970   33.4390 N   0  0  0  0  0  0  0  0  0  0  0  0
   39.6580   23.3020   36.2460 C   0  0  0  0  0  0  0  0  0  0  0  0
   38.7650   23.5620   37.2850 C   0  0  0  0  0  0  0  0  0  0  0  0
   37.9410   24.5220   36.8140 N   0  0  0  0  0  0  0  0  0  0  0  0
   38.3380   24.8070   35.5530 C   0  0  0  0  0  0  0  0  0  0  0  0
   39.3710   24.0910   35.1780 N   0  0  0  0  0  0  0  0  0  0  0  0
   42.1260   20.8620   37.6050 C   0  0  0  0  0  0  0  0  0  0  0  0
   41.0770   21.7980   37.5690 C   0  0  0  0  0  0  0  0  0  0  0  0
   40.7590   22.3140   36.3020 C   0  0  0  0  0  0  0  0  0  0  0  0
   41.4500   21.9070   35.1950 N   0  0  0  0  0  0  0  0  0  0  0  0
   42.4360   21.0130   35.3120 C   0  0  0  0  0  0  0  0  0  0  0  0
   42.7760   20.4960   36.4850 N   0  0  0  0  0  0  0  0  0  0  0  0
   36.2150   26.8200   31.6430 C   0  0  1  0  0  0  0  0  0  0  0  0
   37.3160   27.3840   30.7360 C   0  0  0  0  0  0  0  0  0  0  0  0
   35.7450   25.5010   31.2100 C   0  0  0  0  0  0  0  0  0  0  0  0
   36.6370   24.4510   30.9280 N   0  0  0  0  0  0  0  0  0  0  0  0
   37.8380   24.3020   30.3420 C   0  0  0  0  0  0  0  0  0  0  0  0
   38.2780   23.0230   30.3790 N   0  0  0  0  0  0  0  0  0  0  0  0
   37.3300   22.2760   31.0190 C   0  0  0  0  0  0  0  0  0  0  0  0
   37.3420   20.9300   31.2930 C   0  0  0  0  0  0  0  0  0  0  0  0
   36.2740   20.4510   31.9430 N   0  0  0  0  0  0  0  0  0  0  0  0
   35.2690   21.2870   32.2880 C   0  0  0  0  0  0  0  0  0  0  0  0
   35.3110   22.5970   31.9950 N   0  0  0  0  0  0  0  0  0  0  0  0
   36.3540   23.1760   31.3360 C   0  0  0  0  0  0  0  0  0  0  0  0
   37.4525   27.5774   36.0035 H   0  0  0  0  0  0  0  0  0  0  0  0
   36.2946   28.7491   33.9368 H   0  0  0  0  0  0  0  0  0  0  0  0
   38.7378   23.0865   38.2765 H   0  0  0  0  0  0  0  0  0  0  0  0
   39.8585   24.1205   34.2711 H   0  0  0  0  0  0  0  0  0  0  0  0
   42.4211   20.4201   38.5681 H   0  0  0  0  0  0  0  0  0  0  0  0
   40.5387   22.1070   38.4772 H   0  0  0  0  0  0  0  0  0  0  0  0
   42.9810   20.6970   34.4103 H   0  0  0  0  0  0  0  0  0  0  0  0
   35.3307   27.4709   31.5762 H   0  0  0  0  0  0  0  0  0  0  0  0
   38.1250   27.7984   31.3556 H   0  0  0  0  0  0  0  0  0  0  0  0
   37.7158   26.5797   30.1010 H   0  0  0  0  0  0  0  0  0  0  0  0
   36.8968   28.1784   30.1010 H   0  0  0  0  0  0  0  0  0  0  0  0
   35.0785   25.1347   32.0047 H   0  0  0  0  0  0  0  0  0  0  0  0
   35.3216   25.7190   30.2185 H   0  0  0  0  0  0  0  0  0  0  0  0
   38.4006   25.1285   29.8833 H   0  0  0  0  0  0  0  0  0  0  0  0
   38.1805   20.2831   30.9956 H   0  0  0  0  0  0  0  0  0  0  0  0
   34.3955   20.8843   32.8218 H   0  0  0  0  0  0  0  0  0  0  0  0
  1  2  1  0
  1  9  1  0
  3  2  2  0
  4  5  1  0
  4  3  1  0
  5  1  2  0
  6 13  1  0
  6  7  2  0
  8  7  1  0
  9  8  2  0
 10  9  1  0
 10  6  1  0
 12 11  2  0
 13 12  1  0
 14 15  1  0
 14 13  2  0
 15 16  2  0
 16 11  1  0
 17  4  1  0
 18 17  1  0
 19 17  1  0
 20 19  1  0
 20 28  1  0
 21 22  2  0
 21 20  1  0
 22 23  1  0
 23 24  1  0
 23 28  2  0
 24 25  2  0
 25 26  1  0
 27 26  2  0
 28 27  1  0
  2 29  1  0
  3 30  1  0
  7 31  1  0
 10 32  1  0
 11 33  1  0
 12 34  1  0
 15 35  1  0
 17 36  1  1
 18 37  1  0
 18 38  1  0
 18 39  1  0
 19 40  1  0
 19 41  1  0
 21 42  1  0
 24 43  1  0
 26 44  1  0
M  ISO  8  29  14  30  14  31  14  32   9  33  14  34  14  35  14  36   8
M  ISO  8  37   8  38   8  39   8  40   8  41   8  42  14  43  14  44  14
M  END
>  <minimizedAffinity>  (1) 
-5.8529458

>  <minimizedRMSD>  (1) 
1.17753983

$$$$
