
     RDKit          3D

 46 50  0  0  1  0  0  0  0  0999 V2000
   37.6930   25.8470   34.7540 C   0  0  0  0  0  0  0  0  0  0  0  0
   37.3180   27.1340   35.0820 C   0  0  0  0  0  0  0  0  0  0  0  0
   36.7220   27.7690   34.0450 C   0  0  0  0  0  0  0  0  0  0  0  0
   36.7280   26.8700   33.0690 N   0  0  0  0  0  0  0  0  0  0  0  0
   37.2930   25.7450   33.4750 N   0  0  0  0  0  0  0  0  0  0  0  0
   39.6740   23.3110   36.2600 C   0  0  0  0  0  0  0  0  0  0  0  0
   38.7630   23.5420   37.2910 C   0  0  0  0  0  0  0  0  0  0  0  0
   37.9360   24.5130   36.8270 N   0  0  0  0  0  0  0  0  0  0  0  0
   38.3520   24.8280   35.5790 C   0  0  0  0  0  0  0  0  0  0  0  0
   39.3970   24.1200   35.2130 N   0  0  0  0  0  0  0  0  0  0  0  0
   42.1290   20.8590   37.6160 C   0  0  0  0  0  0  0  0  0  0  0  0
   41.0920   21.7950   37.5740 C   0  0  0  0  0  0  0  0  0  0  0  0
   40.7610   22.3240   36.3340 C   0  0  0  0  0  0  0  0  0  0  0  0
   41.4510   21.9200   35.2060 N   0  0  0  0  0  0  0  0  0  0  0  0
   42.4330   21.0190   35.3220 C   0  0  0  0  0  0  0  0  0  0  0  0
   42.7710   20.4960   36.4950 N   0  0  0  0  0  0  0  0  0  0  0  0
   36.2340   26.9030   31.7090 C   0  0  1  0  0  0  0  0  0  0  0  0
   37.3350   27.4640   30.7970 C   0  0  0  0  0  0  0  0  0  0  0  0
   35.7620   25.6000   31.2400 C   0  0  0  0  0  0  0  0  0  0  0  0
   36.6840   24.5740   30.9110 N   0  0  0  0  0  0  0  0  0  0  0  0
   37.9010   24.4650   30.3500 C   0  0  0  0  0  0  0  0  0  0  0  0
   38.3240   23.1890   30.3330 N   0  0  0  0  0  0  0  0  0  0  0  0
   37.3670   22.4220   30.8970 C   0  0  0  0  0  0  0  0  0  0  0  0
   37.4050   21.0550   31.0770 C   0  0  0  0  0  0  0  0  0  0  0  0
   36.3000   20.5300   31.6760 N   0  0  0  0  0  0  0  0  0  0  0  0
   35.2800   21.3600   32.0410 C   0  0  0  0  0  0  0  0  0  0  0  0
   35.3040   22.6870   31.8370 N   0  0  0  0  0  0  0  0  0  0  0  0
   36.3470   23.2980   31.2550 C   0  0  0  0  0  0  0  0  0  0  0  0
   38.5240   20.2810   30.6580 N   0  0  0  0  0  0  0  0  0  0  0  0
   37.4837   27.5901   36.0692 H   0  0  0  0  0  0  0  0  0  0  0  0
   36.3244   28.7943   34.0179 H   0  0  0  0  0  0  0  0  0  0  0  0
   38.7234   23.0436   38.2708 H   0  0  0  0  0  0  0  0  0  0  0  0
   39.9000   24.1709   34.3156 H   0  0  0  0  0  0  0  0  0  0  0  0
   42.4222   20.4149   38.5787 H   0  0  0  0  0  0  0  0  0  0  0  0
   40.5595   22.1002   38.4868 H   0  0  0  0  0  0  0  0  0  0  0  0
   42.9763   20.7021   34.4196 H   0  0  0  0  0  0  0  0  0  0  0  0
   35.3523   27.5600   31.6787 H   0  0  0  0  0  0  0  0  0  0  0  0
   38.1466   27.8775   31.4137 H   0  0  0  0  0  0  0  0  0  0  0  0
   37.7313   26.6579   30.1620 H   0  0  0  0  0  0  0  0  0  0  0  0
   36.9157   28.2584   30.1620 H   0  0  0  0  0  0  0  0  0  0  0  0
   35.1122   25.1974   32.0310 H   0  0  0  0  0  0  0  0  0  0  0  0
   35.3029   25.8391   30.2694 H   0  0  0  0  0  0  0  0  0  0  0  0
   38.4783   25.3137   29.9544 H   0  0  0  0  0  0  0  0  0  0  0  0
   34.3956   20.9208   32.5257 H   0  0  0  0  0  0  0  0  0  0  0  0
   38.5285   19.2614   30.8036 H   0  0  0  0  0  0  0  0  0  0  0  0
   39.3291   20.7407   30.2093 H   0  0  0  0  0  0  0  0  0  0  0  0
  1  2  1  0
  1  9  1  0
  3  2  2  0
  4  5  1  0
  4  3  1  0
  5  1  2  0
  6 13  1  0
  6  7  2  0
  8  7  1  0
  9  8  2  0
 10  9  1  0
 10  6  1  0
 12 11  2  0
 13 12  1  0
 14 15  1  0
 14 13  2  0
 15 16  2  0
 16 11  1  0
 17  4  1  0
 18 17  1  0
 19 17  1  0
 20 19  1  0
 20 28  1  0
 21 20  1  0
 22 21  2  0
 22 23  1  0
 23 24  2  0
 23 28  1  0
 24 25  1  0
 25 26  2  0
 27 26  1  0
 28 27  2  0
 29 24  1  0
  2 30  1  0
  3 31  1  0
  7 32  1  0
 10 33  1  0
 11 34  1  0
 12 35  1  0
 15 36  1  0
 17 37  1  1
 18 38  1  0
 18 39  1  0
 18 40  1  0
 19 41  1  0
 19 42  1  0
 21 43  1  0
 26 44  1  0
 29 45  1  0
 29 46  1  0
M  ISO  8  30  14  31  14  32  14  33   9  34  14  35  14  36  14  37   8
M  ISO  7  38   8  39   8  40   8  41   8  42   8  43  14  44  14
M  END
>  <minimizedAffinity>  (1) 
-5.92815304

>  <minimizedRMSD>  (1) 
0.49636215

$$$$
