
     RDKit          3D

 43 46  0  0  1  0  0  0  0  0999 V2000
   37.6900   25.9240   34.7040 C   0  0  0  0  0  0  0  0  0  0  0  0
   37.1180   27.1250   35.0730 C   0  0  0  0  0  0  0  0  0  0  0  0
   36.6240   27.8090   34.0050 C   0  0  0  0  0  0  0  0  0  0  0  0
   36.8970   27.0160   32.9710 N   0  0  0  0  0  0  0  0  0  0  0  0
   37.5130   25.9250   33.3720 N   0  0  0  0  0  0  0  0  0  0  0  0
   39.6530   23.3720   36.2050 C   0  0  0  0  0  0  0  0  0  0  0  0
   38.7080   23.5940   37.2320 C   0  0  0  0  0  0  0  0  0  0  0  0
   37.8870   24.5690   36.7660 N   0  0  0  0  0  0  0  0  0  0  0  0
   38.3280   24.8950   35.5370 C   0  0  0  0  0  0  0  0  0  0  0  0
   39.3790   24.1950   35.1800 N   0  0  0  0  0  0  0  0  0  0  0  0
   42.0880   20.9140   37.5870 C   0  0  0  0  0  0  0  0  0  0  0  0
   41.0450   21.8640   37.5570 C   0  0  0  0  0  0  0  0  0  0  0  0
   40.7280   22.3860   36.3050 C   0  0  0  0  0  0  0  0  0  0  0  0
   41.4240   21.9650   35.1890 N   0  0  0  0  0  0  0  0  0  0  0  0
   42.3980   21.0640   35.2890 C   0  0  0  0  0  0  0  0  0  0  0  0
   42.7290   20.5410   36.4750 N   0  0  0  0  0  0  0  0  0  0  0  0
   36.6410   27.1500   31.5510 C   0  0  1  0  0  0  0  0  0  0  0  0
   37.9690   27.2830   30.8030 C   0  0  0  0  0  0  0  0  0  0  0  0
   35.8270   26.0550   31.0250 C   0  0  0  0  0  0  0  0  0  0  0  0
   36.2950   24.6930   30.9950 C   0  0  0  0  0  0  0  0  0  0  0  0
   35.3620   23.7780   31.5120 C   0  0  0  0  0  0  0  0  0  0  0  0
   35.5930   22.4250   31.6120 C   0  0  0  0  0  0  0  0  0  0  0  0
   36.7980   21.9040   31.1900 C   0  0  0  0  0  0  0  0  0  0  0  0
   37.7370   22.7550   30.6810 C   0  0  0  0  0  0  0  0  0  0  0  0
   37.4770   24.1070   30.5930 C   0  0  0  0  0  0  0  0  0  0  0  0
   37.0673   27.4873   36.1104 H   0  0  0  0  0  0  0  0  0  0  0  0
   36.1187   28.7860   33.9979 H   0  0  0  0  0  0  0  0  0  0  0  0
   38.6500   23.0837   38.2048 H   0  0  0  0  0  0  0  0  0  0  0  0
   39.8923   24.2634   34.2896 H   0  0  0  0  0  0  0  0  0  0  0  0
   42.3808   20.4693   38.5496 H   0  0  0  0  0  0  0  0  0  0  0  0
   40.5135   22.1741   38.4688 H   0  0  0  0  0  0  0  0  0  0  0  0
   42.9378   20.7452   34.3851 H   0  0  0  0  0  0  0  0  0  0  0  0
   36.0498   28.0639   31.3919 H   0  0  0  0  0  0  0  0  0  0  0  0
   38.7918   27.3654   31.5284 H   0  0  0  0  0  0  0  0  0  0  0  0
   38.1245   26.3959   30.1714 H   0  0  0  0  0  0  0  0  0  0  0  0
   37.9455   28.1833   30.1714 H   0  0  0  0  0  0  0  0  0  0  0  0
   34.9018   26.0480   31.6199 H   0  0  0  0  0  0  0  0  0  0  0  0
   35.7778   26.3022   29.9543 H   0  0  0  0  0  0  0  0  0  0  0  0
   34.3918   24.1653   31.8564 H   0  0  0  0  0  0  0  0  0  0  0  0
   34.8196   21.7619   32.0269 H   0  0  0  0  0  0  0  0  0  0  0  0
   36.9988   20.8249   31.2619 H   0  0  0  0  0  0  0  0  0  0  0  0
   38.7054   22.3605   30.3395 H   0  0  0  0  0  0  0  0  0  0  0  0
   38.2604   24.7574   30.1767 H   0  0  0  0  0  0  0  0  0  0  0  0
  1  2  1  0
  1  9  1  0
  3  2  2  0
  4  5  1  0
  4  3  1  0
  5  1  2  0
  6 13  1  0
  6  7  2  0
  8  7  1  0
  9  8  2  0
 10  9  1  0
 10  6  1  0
 12 11  2  0
 13 12  1  0
 14 15  1  0
 14 13  2  0
 15 16  2  0
 16 11  1  0
 17  4  1  0
 18 17  1  0
 19 17  1  0
 20 19  1  0
 20 21  2  0
 21 22  1  0
 23 22  2  0
 24 23  1  0
 25 24  2  0
 25 20  1  0
  2 26  1  0
  3 27  1  0
  7 28  1  0
 10 29  1  0
 11 30  1  0
 12 31  1  0
 15 32  1  0
 17 33  1  1
 18 34  1  0
 18 35  1  0
 18 36  1  0
 19 37  1  0
 19 38  1  0
 21 39  1  0
 22 40  1  0
 23 41  1  0
 24 42  1  0
 25 43  1  0
M  ISO  8  26  14  27  14  28  14  29   9  30  14  31  14  32  14  33   8
M  ISO  8  34   8  35   8  36   8  37   8  38   8  39  14  40  14  41  14
M  ISO  2  42  14  43  14
M  END
>  <minimizedAffinity>  (1) 
-5.71567678

>  <minimizedRMSD>  (1) 
0.579395175

$$$$
