
     RDKit          3D

 41 44  0  0  1  0  0  0  0  0999 V2000
   38.0970   26.0360   35.5490 C   0  0  0  0  0  0  0  0  0  0  0  0
   38.1980   27.3430   35.9840 C   0  0  0  0  0  0  0  0  0  0  0  0
   37.5340   28.2110   35.1830 C   0  0  0  0  0  0  0  0  0  0  0  0
   37.0080   27.4230   34.2290 N   0  0  0  0  0  0  0  0  0  0  0  0
   37.3290   26.1300   34.4240 N   0  0  0  0  0  0  0  0  0  0  0  0
   39.9290   23.1290   36.4630 C   0  0  0  0  0  0  0  0  0  0  0  0
   38.9160   23.1080   37.4410 C   0  0  0  0  0  0  0  0  0  0  0  0
   38.1400   24.1960   37.1860 N   0  0  0  0  0  0  0  0  0  0  0  0
   38.6610   24.8180   36.1250 C   0  0  0  0  0  0  0  0  0  0  0  0
   39.7330   24.1940   35.6770 N   0  0  0  0  0  0  0  0  0  0  0  0
   42.4580   20.5570   37.3850 C   0  0  0  0  0  0  0  0  0  0  0  0
   41.4330   21.5190   37.5420 C   0  0  0  0  0  0  0  0  0  0  0  0
   40.9870   22.1250   36.3750 C   0  0  0  0  0  0  0  0  0  0  0  0
   41.5460   21.7730   35.1660 N   0  0  0  0  0  0  0  0  0  0  0  0
   42.5130   20.8530   35.0980 C   0  0  0  0  0  0  0  0  0  0  0  0
   42.9650   20.2520   36.1880 N   0  0  0  0  0  0  0  0  0  0  0  0
   36.1920   27.7340   33.0780 C   0  0  1  0  0  0  0  0  0  0  0  0
   35.7580   29.1860   33.1320 C   0  0  0  0  0  0  0  0  0  0  0  0
   36.9300   27.4590   31.8170 C   0  0  0  0  0  0  0  0  0  0  0  0
   36.9260   26.0500   31.4060 C   0  0  0  0  0  0  0  0  0  0  0  0
   37.9330   25.2270   30.9450 C   0  0  0  0  0  0  0  0  0  0  0  0
   37.6560   23.9150   30.6220 C   0  0  0  0  0  0  0  0  0  0  0  0
   36.4130   23.4160   30.7470 N   0  0  0  0  0  0  0  0  0  0  0  0
   35.4290   24.2130   31.1960 C   0  0  0  0  0  0  0  0  0  0  0  0
   35.6740   25.5160   31.5230 N   0  0  0  0  0  0  0  0  0  0  0  0
   38.7562   27.6460   36.8821 H   0  0  0  0  0  0  0  0  0  0  0  0
   37.4461   29.3024   35.2883 H   0  0  0  0  0  0  0  0  0  0  0  0
   38.7806   22.3673   38.2429 H   0  0  0  0  0  0  0  0  0  0  0  0
   40.3115   24.4742   34.8722 H   0  0  0  0  0  0  0  0  0  0  0  0
   42.8494   20.0445   38.2762 H   0  0  0  0  0  0  0  0  0  0  0  0
   41.0150   21.7715   38.5277 H   0  0  0  0  0  0  0  0  0  0  0  0
   42.9410   20.5904   34.1193 H   0  0  0  0  0  0  0  0  0  0  0  0
   35.2990   27.0919   33.0963 H   0  0  0  0  0  0  0  0  0  0  0  0
   35.6636   29.5017   34.1815 H   0  0  0  0  0  0  0  0  0  0  0  0
   36.5083   29.8120   32.6268 H   0  0  0  0  0  0  0  0  0  0  0  0
   34.7872   29.2976   32.6268 H   0  0  0  0  0  0  0  0  0  0  0  0
   36.4706   28.0530   31.0132 H   0  0  0  0  0  0  0  0  0  0  0  0
   37.9801   27.7283   32.0033 H   0  0  0  0  0  0  0  0  0  0  0  0
   38.9557   25.6169   30.8352 H   0  0  0  0  0  0  0  0  0  0  0  0
   38.4651   23.2658   30.2560 H   0  0  0  0  0  0  0  0  0  0  0  0
   34.4110   23.8100   31.3018 H   0  0  0  0  0  0  0  0  0  0  0  0
  1  2  1  0
  1  9  1  0
  3  2  2  0
  4  5  1  0
  4  3  1  0
  5  1  2  0
  6  7  2  0
  8  7  1  0
  9  8  2  0
 10  9  1  0
 10  6  1  0
 11 12  2  0
 13  6  1  0
 13 12  1  0
 14 13  2  0
 15 14  1  0
 15 16  2  0
 16 11  1  0
 17 18  1  0
 17  4  1  0
 19 17  1  0
 20 25  1  0
 20 19  1  0
 21 20  2  0
 22 23  2  0
 22 21  1  0
 23 24  1  0
 24 25  2  0
  2 26  1  0
  3 27  1  0
  7 28  1  0
 10 29  1  0
 11 30  1  0
 12 31  1  0
 15 32  1  0
 17 33  1  6
 18 34  1  0
 18 35  1  0
 18 36  1  0
 19 37  1  0
 19 38  1  0
 21 39  1  0
 22 40  1  0
 24 41  1  0
M  ISO  8  26  14  27  14  28  14  29   9  30  14  31  14  32  14  33   8
M  ISO  8  34   8  35   8  36   8  37   8  38   8  39  14  40  14  41  14
M  END
>  <minimizedAffinity>  (1) 
-5.277843

>  <minimizedRMSD>  (1) 
2.19568062

$$$$
