
     RDKit          3D

 40 42  0  0  1  0  0  0  0  0999 V2000
   38.0050   25.9440   35.2730 C   0  0  0  0  0  0  0  0  0  0  0  0
   37.8830   27.2500   35.6910 C   0  0  0  0  0  0  0  0  0  0  0  0
   37.2420   28.0250   34.7860 C   0  0  0  0  0  0  0  0  0  0  0  0
   36.9640   27.1740   33.7880 N   0  0  0  0  0  0  0  0  0  0  0  0
   37.4040   25.9550   34.0560 N   0  0  0  0  0  0  0  0  0  0  0  0
   39.9210   23.1660   36.4010 C   0  0  0  0  0  0  0  0  0  0  0  0
   38.9560   23.2320   37.4310 C   0  0  0  0  0  0  0  0  0  0  0  0
   38.1540   24.2760   37.1060 N   0  0  0  0  0  0  0  0  0  0  0  0
   38.6200   24.7910   35.9530 C   0  0  0  0  0  0  0  0  0  0  0  0
   39.6760   24.1520   35.5040 N   0  0  0  0  0  0  0  0  0  0  0  0
   42.4120   20.5980   37.4370 C   0  0  0  0  0  0  0  0  0  0  0  0
   41.3810   21.5720   37.5470 C   0  0  0  0  0  0  0  0  0  0  0  0
   40.9900   22.1660   36.3580 C   0  0  0  0  0  0  0  0  0  0  0  0
   41.5870   21.8070   35.1690 N   0  0  0  0  0  0  0  0  0  0  0  0
   42.5440   20.8860   35.1510 C   0  0  0  0  0  0  0  0  0  0  0  0
   42.9570   20.2870   36.2510 N   0  0  0  0  0  0  0  0  0  0  0  0
   36.2780   27.4000   32.5180 C   0  0  1  0  0  0  0  0  0  0  0  0
   36.5960   28.7800   31.9980 C   0  0  0  0  0  0  0  0  0  0  0  0
   36.6670   26.3220   31.5530 C   0  0  0  0  0  0  0  0  0  0  0  0
   35.6630   25.3200   31.3890 N   0  0  0  0  0  0  0  0  0  0  0  0
   36.0710   23.9840   31.5920 C   0  0  0  0  0  0  0  0  0  0  0  0
   37.0800   23.5720   32.3180 N   0  0  0  0  0  0  0  0  0  0  0  0
   35.5660   22.7440   31.1360 N   0  0  0  0  0  0  0  0  0  0  0  0
   37.7080   24.1940   32.8380 H   0  0  0  0  0  0  0  0  0  0  0  0
   38.2642   27.6220   36.6535 H   0  0  0  0  0  0  0  0  0  0  0  0
   37.0055   29.0972   34.8530 H   0  0  0  0  0  0  0  0  0  0  0  0
   38.8730   22.5758   38.3099 H   0  0  0  0  0  0  0  0  0  0  0  0
   40.2084   24.3579   34.6466 H   0  0  0  0  0  0  0  0  0  0  0  0
   42.7702   20.0888   38.3439 H   0  0  0  0  0  0  0  0  0  0  0  0
   40.9244   21.8361   38.5123 H   0  0  0  0  0  0  0  0  0  0  0  0
   43.0057   20.6149   34.1901 H   0  0  0  0  0  0  0  0  0  0  0  0
   35.1878   27.3530   32.6566 H   0  0  0  0  0  0  0  0  0  0  0  0
   36.7536   29.4637   32.8452 H   0  0  0  0  0  0  0  0  0  0  0  0
   37.5084   28.7396   31.3848 H   0  0  0  0  0  0  0  0  0  0  0  0
   35.7579   29.1429   31.3848 H   0  0  0  0  0  0  0  0  0  0  0  0
   36.8622   26.7839   30.5739 H   0  0  0  0  0  0  0  0  0  0  0  0
   37.5587   25.8250   31.9627 H   0  0  0  0  0  0  0  0  0  0  0  0
   34.6935   25.5591   31.1363 H   0  0  0  0  0  0  0  0  0  0  0  0
   36.0294   21.8664   31.4118 H   0  0  0  0  0  0  0  0  0  0  0  0
   34.7349   22.7186   30.5281 H   0  0  0  0  0  0  0  0  0  0  0  0
  1  2  1  0
  1  9  1  0
  3  2  2  0
  4  5  1  0
  4  3  1  0
  5  1  2  0
  6  7  2  0
  8  7  1  0
  9  8  2  0
 10  9  1  0
 10  6  1  0
 11 12  2  0
 13  6  1  0
 13 12  1  0
 14 13  2  0
 15 14  1  0
 15 16  2  0
 16 11  1  0
 17  4  1  0
 18 17  1  0
 19 17  1  0
 20 19  1  0
 20 21  1  0
 21 22  2  0
 22 24  1  0
 23 21  1  0
  2 25  1  0
  3 26  1  0
  7 27  1  0
 10 28  1  0
 11 29  1  0
 12 30  1  0
 15 31  1  0
 17 32  1  1
 18 33  1  0
 18 34  1  0
 18 35  1  0
 19 36  1  0
 19 37  1  0
 20 38  1  0
 23 39  1  0
 23 40  1  0
M  ISO  8  25  14  26  14  27  14  28   9  29  14  30  14  31  14  32   8
M  ISO  5  33   8  34   8  35   8  36   8  37   8
M  END
>  <minimizedAffinity>  (1) 
-4.99171209

>  <minimizedRMSD>  (1) 
1.61580694

$$$$
