
     RDKit          3D

 46 49  0  0  1  0  0  0  0  0999 V2000
   37.9590   22.8000   31.2920 N   0  0  0  0  0  0  0  0  0  0  0  0
   37.5100   23.9220   30.4910 C   0  0  0  0  0  0  0  0  0  0  0  0
   38.7710   24.6920   30.1070 C   0  0  0  0  0  0  0  0  0  0  0  0
   39.4770   23.8330   29.0820 C   0  0  0  0  0  0  0  0  0  0  0  0
   39.1230   22.3640   29.2590 C   0  0  0  0  0  0  0  0  0  0  0  0
   39.1010   22.1040   30.7590 C   0  0  2  0  0  0  0  0  0  0  0  0
   39.9570   22.7530   37.2930 C   0  0  0  0  0  0  0  0  0  0  0  0
   39.2160   23.1610   38.4150 C   0  0  0  0  0  0  0  0  0  0  0  0
   37.8390   23.2080   38.3060 C   0  0  0  0  0  0  0  0  0  0  0  0
   37.2650   22.8580   37.1250 N   0  0  0  0  0  0  0  0  0  0  0  0
   38.0010   22.4690   36.0650 C   0  0  0  0  0  0  0  0  0  0  0  0
   39.3520   22.4170   36.1490 N   0  0  0  0  0  0  0  0  0  0  0  0
   37.4010   22.1050   34.8380 N   0  0  0  0  0  0  0  0  0  0  0  0
   37.9690   22.6260   33.7520 C   0  0  0  0  0  0  0  0  0  0  0  0
   37.4410   22.3190   32.5030 C   0  0  0  0  0  0  0  0  0  0  0  0
   36.3530   21.4860   32.5020 C   0  0  0  0  0  0  0  0  0  0  0  0
   35.7060   21.0990   31.3110 N   0  0  0  0  0  0  0  0  0  0  0  0
   35.8030   20.9760   33.6140 N   0  0  0  0  0  0  0  0  0  0  0  0
   36.3300   21.2850   34.8240 C   0  0  0  0  0  0  0  0  0  0  0  0
   35.8950   20.8660   35.9100 O   0  0  0  0  0  0  0  0  0  0  0  0
   39.2990   20.7590   31.1160 N   0  0  0  0  0  0  0  0  0  0  0  0
   38.6430   19.6580   30.7040 C   0  0  0  0  0  0  0  0  0  0  0  0
   38.8580   18.3440   31.0530 C   0  0  0  0  0  0  0  0  0  0  0  0
   39.8830   18.1360   31.9460 C   0  0  0  0  0  0  0  0  0  0  0  0
   40.1210   16.9500   32.3000 O   0  0  0  0  0  0  0  0  0  0  0  0
   40.5740   19.2070   32.3920 N   0  0  0  0  0  0  0  0  0  0  0  0
   40.2990   20.4550   31.9990 C   0  0  0  0  0  0  0  0  0  0  0  0
   41.0690   21.2910   32.5390 O   0  0  0  0  0  0  0  0  0  0  0  0
   36.9901   23.5651   29.5897 H   0  0  0  0  0  0  0  0  0  0  0  0
   36.8020   24.5562   31.0446 H   0  0  0  0  0  0  0  0  0  0  0  0
   38.5076   25.6682   29.6737 H   0  0  0  0  0  0  0  0  0  0  0  0
   39.4090   24.8892   30.9811 H   0  0  0  0  0  0  0  0  0  0  0  0
   40.5639   23.9568   29.1973 H   0  0  0  0  0  0  0  0  0  0  0  0
   39.1551   24.1509   28.0793 H   0  0  0  0  0  0  0  0  0  0  0  0
   38.1351   22.1556   28.8224 H   0  0  0  0  0  0  0  0  0  0  0  0
   39.8523   21.7146   28.7527 H   0  0  0  0  0  0  0  0  0  0  0  0
   39.9859   22.5239   31.2597 H   0  0  0  0  0  0  0  0  0  0  0  0
   41.0543   22.7093   37.3570 H   0  0  0  0  0  0  0  0  0  0  0  0
   39.7181   23.4355   39.3544 H   0  0  0  0  0  0  0  0  0  0  0  0
   37.2196   23.5227   39.1588 H   0  0  0  0  0  0  0  0  0  0  0  0
   38.8422   23.2889   33.8417 H   0  0  0  0  0  0  0  0  0  0  0  0
   34.8904   20.4711   31.3486 H   0  0  0  0  0  0  0  0  0  0  0  0
   36.0488   21.4441   30.4031 H   0  0  0  0  0  0  0  0  0  0  0  0
   37.8234   19.8322   29.9913 H   0  0  0  0  0  0  0  0  0  0  0  0
   38.2535   17.5196   30.6469 H   0  0  0  0  0  0  0  0  0  0  0  0
   41.3427   19.0567   33.0609 H   0  0  0  0  0  0  0  0  0  0  0  0
  1 15  1  0
  2  1  1  0
  3  2  1  0
  4  5  1  0
  4  3  1  0
  5  6  1  0
  6 21  1  0
  6  1  1  0
  7  8  2  0
  9  8  1  0
 10  9  2  0
 11 12  2  0
 11 10  1  0
 12  7  1  0
 13 11  1  0
 14 13  1  0
 15 14  2  0
 16 15  1  0
 16 18  2  0
 17 16  1  0
 18 19  1  0
 19 13  1  0
 19 20  2  0
 21 27  1  0
 22 23  2  0
 22 21  1  0
 23 24  1  0
 24 25  2  0
 24 26  1  0
 27 26  1  0
 27 28  2  0
  2 29  1  0
  2 30  1  0
  3 31  1  0
  3 32  1  0
  4 33  1  0
  4 34  1  0
  5 35  1  0
  5 36  1  0
  6 37  1  1
  7 38  1  0
  8 39  1  0
  9 40  1  0
 14 41  1  0
 17 42  1  0
 17 43  1  0
 22 44  1  0
 23 45  1  0
 26 46  1  0
M  ISO  8  29  13  30  13  31  13  32  13  33  13  34  13  35  13  36  13
M  ISO  8  37  13  38  14  39  14  40  14  41  14  44  14  45  14  46   9
M  END
>  <minimizedAffinity>  (1) 
-5.23030186

>  <minimizedRMSD>  (1) 
1.43262625

$$$$
