
     RDKit          3D

 40 43  0  0  1  0  0  0  0  0999 V2000
   37.7340   26.0140   34.6920 C   0  0  0  0  0  0  0  0  0  0  0  0
   37.0880   27.1710   35.0720 C   0  0  0  0  0  0  0  0  0  0  0  0
   36.5940   27.8590   34.0110 C   0  0  0  0  0  0  0  0  0  0  0  0
   36.9400   27.1150   32.9630 N   0  0  0  0  0  0  0  0  0  0  0  0
   37.6040   26.0410   33.3540 N   0  0  0  0  0  0  0  0  0  0  0  0
   39.7810   23.5590   36.2460 C   0  0  0  0  0  0  0  0  0  0  0  0
   38.7330   23.6150   37.1630 C   0  0  0  0  0  0  0  0  0  0  0  0
   37.8670   24.5340   36.6780 N   0  0  0  0  0  0  0  0  0  0  0  0
   38.3940   24.9950   35.5200 C   0  0  0  0  0  0  0  0  0  0  0  0
   39.5420   24.4300   35.2340 N   0  0  0  0  0  0  0  0  0  0  0  0
   42.1110   20.9650   37.5520 C   0  0  0  0  0  0  0  0  0  0  0  0
   40.9700   21.7880   37.4570 C   0  0  0  0  0  0  0  0  0  0  0  0
   40.9490   22.6830   36.3840 C   0  0  0  0  0  0  0  0  0  0  0  0
   42.0080   22.7300   35.4860 N   0  0  0  0  0  0  0  0  0  0  0  0
   43.0490   21.9130   35.6520 C   0  0  0  0  0  0  0  0  0  0  0  0
   43.1120   21.0470   36.6550 N   0  0  0  0  0  0  0  0  0  0  0  0
   36.7070   27.2770   31.5430 C   0  0  1  0  0  0  0  0  0  0  0  0
   38.0580   27.2330   30.8100 C   0  0  0  0  0  0  0  0  0  0  0  0
   35.7970   26.2510   31.0050 C   0  0  0  0  0  0  0  0  0  0  0  0
   36.2200   24.8900   30.9800 N   0  0  0  0  0  0  0  0  0  0  0  0
   35.3390   23.9820   31.5070 C   0  0  0  0  0  0  0  0  0  0  0  0
   35.8430   22.7000   31.4720 C   0  0  0  0  0  0  0  0  0  0  0  0
   37.0610   22.8200   30.9110 N   0  0  0  0  0  0  0  0  0  0  0  0
   37.2490   24.1010   30.6380 C   0  0  0  0  0  0  0  0  0  0  0  0
   36.9845   27.4996   36.1167 H   0  0  0  0  0  0  0  0  0  0  0  0
   36.0383   28.8083   34.0162 H   0  0  0  0  0  0  0  0  0  0  0  0
   38.6311   23.0320   38.0902 H   0  0  0  0  0  0  0  0  0  0  0  0
   40.1375   24.6098   34.4131 H   0  0  0  0  0  0  0  0  0  0  0  0
   42.1850   20.2405   38.3764 H   0  0  0  0  0  0  0  0  0  0  0  0
   40.1462   21.7291   38.1836 H   0  0  0  0  0  0  0  0  0  0  0  0
   43.8816   21.9587   34.9346 H   0  0  0  0  0  0  0  0  0  0  0  0
   36.2173   28.2487   31.3819 H   0  0  0  0  0  0  0  0  0  0  0  0
   38.8743   27.2064   31.5469 H   0  0  0  0  0  0  0  0  0  0  0  0
   38.1039   26.3329   30.1794 H   0  0  0  0  0  0  0  0  0  0  0  0
   38.1623   28.1282   30.1794 H   0  0  0  0  0  0  0  0  0  0  0  0
   34.8768   26.2905   31.6064 H   0  0  0  0  0  0  0  0  0  0  0  0
   35.7043   26.5156   29.9413 H   0  0  0  0  0  0  0  0  0  0  0  0
   34.3495   24.2448   31.9092 H   0  0  0  0  0  0  0  0  0  0  0  0
   35.3562   21.7791   31.8255 H   0  0  0  0  0  0  0  0  0  0  0  0
   38.1683   24.4849   30.1716 H   0  0  0  0  0  0  0  0  0  0  0  0
  1  2  1  0
  1  9  1  0
  3  2  2  0
  4  5  1  0
  4  3  1  0
  5  1  2  0
  6 13  1  0
  6  7  2  0
  8  7  1  0
  9  8  2  0
 10  9  1  0
 10  6  1  0
 12 11  2  0
 13 12  1  0
 14 15  1  0
 14 13  2  0
 15 16  2  0
 16 11  1  0
 17  4  1  0
 18 17  1  0
 19 17  1  0
 20 19  1  0
 20 21  1  0
 22 21  2  0
 23 22  1  0
 24 23  2  0
 24 20  1  0
  2 25  1  0
  3 26  1  0
  7 27  1  0
 10 28  1  0
 11 29  1  0
 12 30  1  0
 15 31  1  0
 17 32  1  1
 18 33  1  0
 18 34  1  0
 18 35  1  0
 19 36  1  0
 19 37  1  0
 21 38  1  0
 22 39  1  0
 24 40  1  0
M  ISO  8  25  14  26  14  27  14  28   9  29  14  30  14  31  14  32   8
M  ISO  8  33   8  34   8  35   8  36   8  37   8  38  14  39  14  40  14
M  END
>  <minimizedAffinity>  (1) 
-5.15523243

>  <minimizedRMSD>  (1) 
0.853582442

$$$$
