
     RDKit          3D

 47 51  0  0  1  0  0  0  0  0999 V2000
   37.9840   25.9360   34.7810 C   0  0  0  0  0  0  0  0  0  0  0  0
   37.1250   26.9330   35.1900 C   0  0  0  0  0  0  0  0  0  0  0  0
   36.7620   27.7490   34.1650 C   0  0  0  0  0  0  0  0  0  0  0  0
   37.4060   27.2470   33.1190 N   0  0  0  0  0  0  0  0  0  0  0  0
   38.1200   26.1920   33.4690 N   0  0  0  0  0  0  0  0  0  0  0  0
   39.8690   23.2700   36.1900 C   0  0  0  0  0  0  0  0  0  0  0  0
   38.9000   23.4490   37.1890 C   0  0  0  0  0  0  0  0  0  0  0  0
   38.1100   24.4590   36.7570 N   0  0  0  0  0  0  0  0  0  0  0  0
   38.6050   24.8470   35.5580 C   0  0  0  0  0  0  0  0  0  0  0  0
   39.6550   24.1580   35.1910 N   0  0  0  0  0  0  0  0  0  0  0  0
   42.2690   20.7440   37.5080 C   0  0  0  0  0  0  0  0  0  0  0  0
   41.2540   21.7130   37.4940 C   0  0  0  0  0  0  0  0  0  0  0  0
   40.9320   22.2610   36.2440 C   0  0  0  0  0  0  0  0  0  0  0  0
   41.6020   21.8410   35.1160 N   0  0  0  0  0  0  0  0  0  0  0  0
   42.5550   20.9150   35.2210 C   0  0  0  0  0  0  0  0  0  0  0  0
   42.8940   20.3700   36.3710 N   0  0  0  0  0  0  0  0  0  0  0  0
   37.4450   27.6500   31.7500 C   0  0  1  0  0  0  0  0  0  0  0  0
   38.9070   27.5490   31.2670 C   0  0  0  0  0  0  0  0  0  0  0  0
   36.6850   26.8420   30.8140 C   0  0  0  0  0  0  0  0  0  0  0  0
   36.5010   25.4700   30.9320 N   0  0  0  0  0  0  0  0  0  0  0  0
   35.3370   24.9270   31.4270 C   0  0  0  0  0  0  0  0  0  0  0  0
   35.3550   23.5660   31.4570 C   0  0  0  0  0  0  0  0  0  0  0  0
   36.5480   23.2710   30.9740 N   0  0  0  0  0  0  0  0  0  0  0  0
   37.2080   24.4030   30.6590 C   0  0  0  0  0  0  0  0  0  0  0  0
   38.4440   24.1400   29.9540 C   0  0  0  0  0  0  0  0  0  0  0  0
   39.6410   23.8590   30.6840 C   0  0  0  0  0  0  0  0  0  0  0  0
   40.7500   23.7970   29.9470 N   0  0  0  0  0  0  0  0  0  0  0  0
   40.4350   24.0200   28.6740 C   0  0  0  0  0  0  0  0  0  0  0  0
   39.1590   24.1790   28.8730 N   0  0  0  0  0  0  0  0  0  0  0  0
   36.7739   27.0544   36.2254 H   0  0  0  0  0  0  0  0  0  0  0  0
   36.0918   28.6207   34.1956 H   0  0  0  0  0  0  0  0  0  0  0  0
   38.8028   22.8852   38.1285 H   0  0  0  0  0  0  0  0  0  0  0  0
   40.2026   24.2680   34.3256 H   0  0  0  0  0  0  0  0  0  0  0  0
   42.5606   20.2809   38.4622 H   0  0  0  0  0  0  0  0  0  0  0  0
   40.7387   22.0259   38.4141 H   0  0  0  0  0  0  0  0  0  0  0  0
   43.0799   20.5928   34.3096 H   0  0  0  0  0  0  0  0  0  0  0  0
   37.0033   28.6574   31.7489 H   0  0  0  0  0  0  0  0  0  0  0  0
   39.5783   27.5026   32.1372 H   0  0  0  0  0  0  0  0  0  0  0  0
   39.0306   26.6402   30.6597 H   0  0  0  0  0  0  0  0  0  0  0  0
   39.1544   28.4322   30.6597 H   0  0  0  0  0  0  0  0  0  0  0  0
   37.1632   26.9938   29.8351 H   0  0  0  0  0  0  0  0  0  0  0  0
   35.6651   27.2036   31.0117 H   0  0  0  0  0  0  0  0  0  0  0  0
   34.4809   25.5302   31.7635 H   0  0  0  0  0  0  0  0  0  0  0  0
   34.5673   22.8792   31.8001 H   0  0  0  0  0  0  0  0  0  0  0  0
   39.6463   23.7054   31.7732 H   0  0  0  0  0  0  0  0  0  0  0  0
   41.0470   24.0574   27.7608 H   0  0  0  0  0  0  0  0  0  0  0  0
   38.6192   24.3705   28.0169 H   0  0  0  0  0  0  0  0  0  0  0  0
  1  2  1  0
  1  9  1  0
  3  2  2  0
  4  5  1  0
  4  3  1  0
  5  1  2  0
  6 13  1  0
  6  7  2  0
  8  7  1  0
  9  8  2  0
 10  9  1  0
 10  6  1  0
 12 11  2  0
 13 12  1  0
 14 15  1  0
 14 13  2  0
 15 16  2  0
 16 11  1  0
 17  4  1  0
 18 17  1  0
 19 20  1  0
 19 17  1  0
 20 21  1  0
 21 22  2  0
 23 22  1  0
 24 20  1  0
 24 23  2  0
 25 24  1  0
 25 26  2  0
 27 26  1  0
 28 29  1  0
 28 27  2  0
 29 25  1  0
  2 30  1  0
  3 31  1  0
  7 32  1  0
 10 33  1  0
 11 34  1  0
 12 35  1  0
 15 36  1  0
 17 37  1  1
 18 38  1  0
 18 39  1  0
 18 40  1  0
 19 41  1  0
 19 42  1  0
 21 43  1  0
 22 44  1  0
 26 45  1  0
 28 46  1  0
 29 47  1  0
M  ISO  8  30  14  31  14  32  14  33   9  34  14  35  14  36  14  37   8
M  ISO  8  38   8  39   8  40   8  41   8  42   8  43  14  44  14  45  14
M  ISO  2  46  14  47   9
M  END
>  <minimizedAffinity>  (1) 
-5.28180456

>  <minimizedRMSD>  (1) 
0.917111278

$$$$
