
     RDKit          3D

 53 57  0  0  1  0  0  0  0  0999 V2000
   39.3850   24.1010   35.8400 C   0  0  0  0  0  0  0  0  0  0  0  0
   38.3340   24.7300   36.4750 C   0  0  0  0  0  0  0  0  0  0  0  0
   37.7510   25.6760   35.6870 C   0  0  0  0  0  0  0  0  0  0  0  0
   38.4510   25.6230   34.5630 N   0  0  0  0  0  0  0  0  0  0  0  0
   39.4030   24.7090   34.6430 N   0  0  0  0  0  0  0  0  0  0  0  0
   41.7240   21.4840   36.4190 C   0  0  0  0  0  0  0  0  0  0  0  0
   41.2000   21.6330   37.7040 C   0  0  0  0  0  0  0  0  0  0  0  0
   40.2750   22.6270   37.6170 N   0  0  0  0  0  0  0  0  0  0  0  0
   40.2780   23.0260   36.3200 C   0  0  0  0  0  0  0  0  0  0  0  0
   41.1280   22.3670   35.5830 N   0  0  0  0  0  0  0  0  0  0  0  0
   44.2470   18.7570   36.6910 C   0  0  0  0  0  0  0  0  0  0  0  0
   43.2540   19.6810   37.0730 C   0  0  0  0  0  0  0  0  0  0  0  0
   42.7610   20.5110   36.0590 C   0  0  0  0  0  0  0  0  0  0  0  0
   43.2470   20.4000   34.7710 N   0  0  0  0  0  0  0  0  0  0  0  0
   44.1900   19.4960   34.5000 C   0  0  0  0  0  0  0  0  0  0  0  0
   44.6870   18.6920   35.4130 N   0  0  0  0  0  0  0  0  0  0  0  0
   38.3370   26.3640   33.3440 C   0  0  1  0  0  0  0  0  0  0  0  0
   39.6750   27.0800   33.0720 C   0  0  0  0  0  0  0  0  0  0  0  0
   38.0640   25.5540   32.1500 C   0  0  0  0  0  0  0  0  0  0  0  0
   36.7800   25.2890   31.6860 N   0  0  0  0  0  0  0  0  0  0  0  0
   35.9630   26.2640   31.1890 C   0  0  0  0  0  0  0  0  0  0  0  0
   34.7560   25.7670   30.7700 C   0  0  0  0  0  0  0  0  0  0  0  0
   34.8350   24.4320   31.0210 N   0  0  0  0  0  0  0  0  0  0  0  0
   36.0330   24.2120   31.5520 C   0  0  0  0  0  0  0  0  0  0  0  0
   36.1740   22.8340   31.8230 N   0  0  0  0  0  0  0  0  0  0  0  0
   37.1530   22.6870   32.9140 C   0  0  0  0  0  0  0  0  0  0  0  0
   37.3010   21.2180   33.1790 C   0  0  0  0  0  0  0  0  0  0  0  0
   36.0120   20.7680   33.5230 O   0  0  0  0  0  0  0  0  0  0  0  0
   35.3450   20.5550   32.3190 C   0  0  0  0  0  0  0  0  0  0  0  0
   35.6340   21.6040   31.2740 C   0  0  0  0  0  0  0  0  0  0  0  0
   38.0052   24.4951   37.4981 H   0  0  0  0  0  0  0  0  0  0  0  0
   36.8997   26.3299   35.9271 H   0  0  0  0  0  0  0  0  0  0  0  0
   41.4780   21.0634   38.6031 H   0  0  0  0  0  0  0  0  0  0  0  0
   41.3083   22.4918   34.5766 H   0  0  0  0  0  0  0  0  0  0  0  0
   44.6716   18.0771   37.4443 H   0  0  0  0  0  0  0  0  0  0  0  0
   42.8874   19.7464   38.1080 H   0  0  0  0  0  0  0  0  0  0  0  0
   44.5672   19.4205   33.4695 H   0  0  0  0  0  0  0  0  0  0  0  0
   37.4842   27.0414   33.4982 H   0  0  0  0  0  0  0  0  0  0  0  0
   40.1545   27.3366   34.0281 H   0  0  0  0  0  0  0  0  0  0  0  0
   40.3363   26.4152   32.4969 H   0  0  0  0  0  0  0  0  0  0  0  0
   39.4888   27.9990   32.4969 H   0  0  0  0  0  0  0  0  0  0  0  0
   38.5878   26.0523   31.3209 H   0  0  0  0  0  0  0  0  0  0  0  0
   38.3840   24.5566   32.4860 H   0  0  0  0  0  0  0  0  0  0  0  0
   36.2416   27.3266   31.1315 H   0  0  0  0  0  0  0  0  0  0  0  0
   33.9141   26.3219   30.3303 H   0  0  0  0  0  0  0  0  0  0  0  0
   38.1204   23.1155   32.6131 H   0  0  0  0  0  0  0  0  0  0  0  0
   36.8147   23.2156   33.8174 H   0  0  0  0  0  0  0  0  0  0  0  0
   37.6622   20.6991   32.2789 H   0  0  0  0  0  0  0  0  0  0  0  0
   38.0306   21.0180   33.9776 H   0  0  0  0  0  0  0  0  0  0  0  0
   35.6491   19.5754   31.9216 H   0  0  0  0  0  0  0  0  0  0  0  0
   34.2674   20.6031   32.5346 H   0  0  0  0  0  0  0  0  0  0  0  0
   34.6969   21.8392   30.7482 H   0  0  0  0  0  0  0  0  0  0  0  0
   36.3972   21.1878   30.5999 H   0  0  0  0  0  0  0  0  0  0  0  0
  1  9  1  0
  1  2  1  0
  3  2  2  0
  4  5  1  0
  4  3  1  0
  5  1  2  0
  6  7  2  0
  8  7  1  0
  9  8  2  0
 10  9  1  0
 10  6  1  0
 11 12  2  0
 13  6  1  0
 13 12  1  0
 14 13  2  0
 15 14  1  0
 15 16  2  0
 16 11  1  0
 17  4  1  0
 18 17  1  0
 19 17  1  0
 20 19  1  0
 21 20  1  0
 22 23  1  0
 22 21  2  0
 23 24  2  0
 24 20  1  0
 24 25  1  0
 25 26  1  0
 26 27  1  0
 27 28  1  0
 29 28  1  0
 30 25  1  0
 30 29  1  0
  2 31  1  0
  3 32  1  0
  7 33  1  0
 10 34  1  0
 11 35  1  0
 12 36  1  0
 15 37  1  0
 17 38  1  1
 18 39  1  0
 18 40  1  0
 18 41  1  0
 19 42  1  0
 19 43  1  0
 21 44  1  0
 22 45  1  0
 26 46  1  0
 26 47  1  0
 27 48  1  0
 27 49  1  0
 29 50  1  0
 29 51  1  0
 30 52  1  0
 30 53  1  0
M  ISO  8  31  14  32  14  33  14  34   9  35  14  36  14  37  14  38   8
M  ISO  8  39   8  40   8  41   8  42   8  43   8  44  14  45  14  46  13
M  ISO  7  47  13  48  13  49  13  50  13  51  13  52  13  53  13
M  END
>  <minimizedAffinity>  (1) 
-5.58208895

>  <minimizedRMSD>  (1) 
3.57731485

$$$$
