
     RDKit          3D

 50 54  0  0  1  0  0  0  0  0999 V2000
   38.4890   27.0710   32.5040 C   0  0  1  0  0  0  0  0  0  0  0  0
   38.9390   24.8520   35.2110 C   0  0  0  0  0  0  0  0  0  0  0  0
   37.8170   25.5410   35.6170 C   0  0  0  0  0  0  0  0  0  0  0  0
   37.4350   26.4830   34.7100 C   0  0  0  0  0  0  0  0  0  0  0  0
   38.3340   26.3660   33.7400 N   0  0  0  0  0  0  0  0  0  0  0  0
   39.2150   25.4200   34.0210 N   0  0  0  0  0  0  0  0  0  0  0  0
   41.0100   22.1630   36.2910 C   0  0  0  0  0  0  0  0  0  0  0  0
   40.2640   22.3830   37.4470 C   0  0  0  0  0  0  0  0  0  0  0  0
   39.4180   23.4080   37.1610 N   0  0  0  0  0  0  0  0  0  0  0  0
   39.6780   23.7620   35.8780 C   0  0  0  0  0  0  0  0  0  0  0  0
   40.6180   23.0410   35.3340 N   0  0  0  0  0  0  0  0  0  0  0  0
   43.4830   19.5300   37.1720 C   0  0  0  0  0  0  0  0  0  0  0  0
   42.4980   20.5120   37.3250 C   0  0  0  0  0  0  0  0  0  0  0  0
   42.0430   21.1350   36.1620 C   0  0  0  0  0  0  0  0  0  0  0  0
   42.5640   20.7730   34.9380 N   0  0  0  0  0  0  0  0  0  0  0  0
   43.5030   19.8250   34.8800 C   0  0  0  0  0  0  0  0  0  0  0  0
   43.9580   19.2130   35.9530 N   0  0  0  0  0  0  0  0  0  0  0  0
   39.9860   27.3530   32.2880 C   0  0  0  0  0  0  0  0  0  0  0  0
   38.0280   26.3450   31.3150 C   0  0  0  0  0  0  0  0  0  0  0  0
   36.8450   25.6170   31.2780 N   0  0  0  0  0  0  0  0  0  0  0  0
   35.6520   26.1780   30.9150 C   0  0  0  0  0  0  0  0  0  0  0  0
   34.6270   25.2720   30.9300 C   0  0  0  0  0  0  0  0  0  0  0  0
   35.2100   24.1070   31.3190 N   0  0  0  0  0  0  0  0  0  0  0  0
   36.4970   24.3700   31.5030 C   0  0  0  0  0  0  0  0  0  0  0  0
   37.2030   23.1610   31.8790 C   0  0  0  0  0  0  0  0  0  0  0  0
   37.3140   22.4910   33.1030 C   0  0  0  0  0  0  0  0  0  0  0  0
   38.0390   21.3230   33.1850 C   0  0  0  0  0  0  0  0  0  0  0  0
   38.6670   20.7920   32.0790 C   0  0  0  0  0  0  0  0  0  0  0  0
   38.5750   21.4270   30.8640 C   0  0  0  0  0  0  0  0  0  0  0  0
   37.8370   22.6140   30.7840 C   0  0  0  0  0  0  0  0  0  0  0  0
   37.8700   27.9750   32.6020 H   0  0  0  0  0  0  0  0  0  0  0  0
   37.2905   25.3522   36.5642 H   0  0  0  0  0  0  0  0  0  0  0  0
   36.5831   27.1766   34.7677 H   0  0  0  0  0  0  0  0  0  0  0  0
   40.3435   21.8375   38.3989 H   0  0  0  0  0  0  0  0  0  0  0  0
   40.9868   23.1213   34.3757 H   0  0  0  0  0  0  0  0  0  0  0  0
   43.8742   19.0104   38.0592 H   0  0  0  0  0  0  0  0  0  0  0  0
   42.1010   20.7803   38.3152 H   0  0  0  0  0  0  0  0  0  0  0  0
   43.9118   19.5449   33.8980 H   0  0  0  0  0  0  0  0  0  0  0  0
   40.4858   27.4472   33.2633 H   0  0  0  0  0  0  0  0  0  0  0  0
   40.4375   26.5241   31.7231 H   0  0  0  0  0  0  0  0  0  0  0  0
   40.1050   28.2894   31.7231 H   0  0  0  0  0  0  0  0  0  0  0  0
   37.9452   27.0963   30.5158 H   0  0  0  0  0  0  0  0  0  0  0  0
   38.7785   25.5438   31.2450 H   0  0  0  0  0  0  0  0  0  0  0  0
   35.5303   27.2367   30.6421 H   0  0  0  0  0  0  0  0  0  0  0  0
   33.5694   25.4467   30.6830 H   0  0  0  0  0  0  0  0  0  0  0  0
   36.8223   22.8973   33.9992 H   0  0  0  0  0  0  0  0  0  0  0  0
   38.1184   20.8040   34.1516 H   0  0  0  0  0  0  0  0  0  0  0  0
   39.2425   19.8589   32.1691 H   0  0  0  0  0  0  0  0  0  0  0  0
   39.0703   21.0119   29.9738 H   0  0  0  0  0  0  0  0  0  0  0  0
   37.7605   23.1276   29.8143 H   0  0  0  0  0  0  0  0  0  0  0  0
  1  5  1  0
  2  3  1  0
  2 10  1  0
  4  3  2  0
  5  6  1  0
  5  4  1  0
  6  2  2  0
  7  8  2  0
  9  8  1  0
 10  9  2  0
 11 10  1  0
 11  7  1  0
 12 13  2  0
 14  7  1  0
 14 13  1  0
 15 14  2  0
 16 15  1  0
 16 17  2  0
 17 12  1  0
 18  1  1  0
 19  1  1  0
 20 19  1  0
 20 24  1  0
 21 22  2  0
 21 20  1  0
 22 23  1  0
 23 24  2  0
 24 25  1  0
 25 26  2  0
 26 27  1  0
 28 27  2  0
 29 28  1  0
 30 29  2  0
 30 25  1  0
  1 31  1  1
  3 32  1  0
  4 33  1  0
  8 34  1  0
 11 35  1  0
 12 36  1  0
 13 37  1  0
 16 38  1  0
 18 39  1  0
 18 40  1  0
 18 41  1  0
 19 42  1  0
 19 43  1  0
 21 44  1  0
 22 45  1  0
 26 46  1  0
 27 47  1  0
 28 48  1  0
 29 49  1  0
 30 50  1  0
M  ISO  8  31   8  32  14  33  14  34  14  35   9  36  14  37  14  38  14
M  ISO  8  39   8  40   8  41   8  42   8  43   8  44  14  45  14  46  14
M  ISO  4  47  14  48  14  49  14  50  14
M  END
>  <minimizedAffinity>  (1) 
-5.27740383

>  <minimizedRMSD>  (1) 
2.75683522

$$$$
