
     RDKit          3D

 47 51  0  0  1  0  0  0  0  0999 V2000
   38.0130   25.9990   34.7390 C   0  0  0  0  0  0  0  0  0  0  0  0
   37.0780   26.9440   35.1010 C   0  0  0  0  0  0  0  0  0  0  0  0
   36.7450   27.7620   34.0580 C   0  0  0  0  0  0  0  0  0  0  0  0
   37.4860   27.3090   33.0560 N   0  0  0  0  0  0  0  0  0  0  0  0
   38.2250   26.2870   33.4390 N   0  0  0  0  0  0  0  0  0  0  0  0
   39.9560   23.4250   36.2400 C   0  0  0  0  0  0  0  0  0  0  0  0
   38.9010   23.5040   37.1510 C   0  0  0  0  0  0  0  0  0  0  0  0
   38.0780   24.4700   36.6800 N   0  0  0  0  0  0  0  0  0  0  0  0
   38.6360   24.9340   35.5370 C   0  0  0  0  0  0  0  0  0  0  0  0
   39.7620   24.3270   35.2470 N   0  0  0  0  0  0  0  0  0  0  0  0
   42.2240   20.8070   37.5750 C   0  0  0  0  0  0  0  0  0  0  0  0
   41.1260   21.6760   37.4890 C   0  0  0  0  0  0  0  0  0  0  0  0
   41.0880   22.4980   36.3610 C   0  0  0  0  0  0  0  0  0  0  0  0
   42.0820   22.4370   35.4010 N   0  0  0  0  0  0  0  0  0  0  0  0
   43.0900   21.5720   35.5740 C   0  0  0  0  0  0  0  0  0  0  0  0
   43.1710   20.7690   36.6350 N   0  0  0  0  0  0  0  0  0  0  0  0
   37.6030   27.7370   31.6960 C   0  0  1  0  0  0  0  0  0  0  0  0
   39.0710   27.6010   31.2550 C   0  0  0  0  0  0  0  0  0  0  0  0
   36.8200   26.9600   30.7290 C   0  0  0  0  0  0  0  0  0  0  0  0
   36.5280   25.6120   30.8910 N   0  0  0  0  0  0  0  0  0  0  0  0
   35.3000   25.1700   31.2950 C   0  0  0  0  0  0  0  0  0  0  0  0
   35.2380   23.8020   31.3650 C   0  0  0  0  0  0  0  0  0  0  0  0
   36.4780   23.3860   30.9910 N   0  0  0  0  0  0  0  0  0  0  0  0
   37.1770   24.4790   30.7280 C   0  0  0  0  0  0  0  0  0  0  0  0
   38.5150   24.1410   30.2790 C   0  0  0  0  0  0  0  0  0  0  0  0
   39.2250   23.9990   29.0930 C   0  0  0  0  0  0  0  0  0  0  0  0
   40.5300   23.6590   29.3800 C   0  0  0  0  0  0  0  0  0  0  0  0
   40.5970   23.5970   30.7260 N   0  0  0  0  0  0  0  0  0  0  0  0
   39.4160   23.8790   31.2510 N   0  0  0  0  0  0  0  0  0  0  0  0
   36.6499   27.0300   36.1106 H   0  0  0  0  0  0  0  0  0  0  0  0
   36.0309   28.5986   34.0513 H   0  0  0  0  0  0  0  0  0  0  0  0
   38.7663   22.9047   38.0635 H   0  0  0  0  0  0  0  0  0  0  0  0
   40.3713   24.4996   34.4347 H   0  0  0  0  0  0  0  0  0  0  0  0
   42.3070   20.1367   38.4432 H   0  0  0  0  0  0  0  0  0  0  0  0
   40.3439   21.7078   38.2619 H   0  0  0  0  0  0  0  0  0  0  0  0
   43.8812   21.5224   34.8114 H   0  0  0  0  0  0  0  0  0  0  0  0
   37.2222   28.7690   31.6905 H   0  0  0  0  0  0  0  0  0  0  0  0
   39.7167   27.5412   32.1435 H   0  0  0  0  0  0  0  0  0  0  0  0
   39.1900   26.6880   30.6531 H   0  0  0  0  0  0  0  0  0  0  0  0
   39.3557   28.4766   30.6531 H   0  0  0  0  0  0  0  0  0  0  0  0
   37.3578   27.0391   29.7727 H   0  0  0  0  0  0  0  0  0  0  0  0
   35.8240   27.4125   30.8437 H   0  0  0  0  0  0  0  0  0  0  0  0
   34.4578   25.8351   31.5364 H   0  0  0  0  0  0  0  0  0  0  0  0
   34.3788   23.1807   31.6577 H   0  0  0  0  0  0  0  0  0  0  0  0
   38.8108   24.1363   28.0833 H   0  0  0  0  0  0  0  0  0  0  0  0
   41.3442   23.4768   28.6632 H   0  0  0  0  0  0  0  0  0  0  0  0
   41.4431   23.3644   31.2654 H   0  0  0  0  0  0  0  0  0  0  0  0
  1  2  1  0
  1  9  1  0
  3  2  2  0
  4  5  1  0
  4  3  1  0
  5  1  2  0
  6 13  1  0
  6  7  2  0
  8  7  1  0
  9  8  2  0
 10  9  1  0
 10  6  1  0
 12 11  2  0
 13 12  1  0
 14 15  1  0
 14 13  2  0
 15 16  2  0
 16 11  1  0
 17  4  1  0
 18 17  1  0
 19 20  1  0
 19 17  1  0
 20 21  1  0
 21 22  2  0
 23 22  1  0
 24 20  1  0
 24 23  2  0
 25 24  1  0
 25 29  2  0
 26 27  2  0
 26 25  1  0
 27 28  1  0
 28 29  1  0
  2 30  1  0
  3 31  1  0
  7 32  1  0
 10 33  1  0
 11 34  1  0
 12 35  1  0
 15 36  1  0
 17 37  1  1
 18 38  1  0
 18 39  1  0
 18 40  1  0
 19 41  1  0
 19 42  1  0
 21 43  1  0
 22 44  1  0
 26 45  1  0
 27 46  1  0
 28 47  1  0
M  ISO  8  30  14  31  14  32  14  33   9  34  14  35  14  36  14  37   8
M  ISO  8  38   8  39   8  40   8  41   8  42   8  43  14  44  14  45  14
M  ISO  2  46  14  47   9
M  END
>  <minimizedAffinity>  (1) 
-5.13782978

>  <minimizedRMSD>  (1) 
0.769045472

$$$$
