
     RDKit          3D

 52 55  0  0  1  0  0  0  0  0999 V2000
   38.2800   25.6420   34.9170 C   0  0  0  0  0  0  0  0  0  0  0  0
   37.2900   26.5240   35.2880 C   0  0  0  0  0  0  0  0  0  0  0  0
   36.9650   27.3830   34.2830 C   0  0  0  0  0  0  0  0  0  0  0  0
   37.7650   27.0240   33.2890 N   0  0  0  0  0  0  0  0  0  0  0  0
   38.5360   26.0100   33.6460 N   0  0  0  0  0  0  0  0  0  0  0  0
   40.1830   22.9630   36.2880 C   0  0  0  0  0  0  0  0  0  0  0  0
   39.2740   23.1810   37.3280 C   0  0  0  0  0  0  0  0  0  0  0  0
   38.4850   24.2030   36.9080 N   0  0  0  0  0  0  0  0  0  0  0  0
   38.9210   24.5550   35.6840 C   0  0  0  0  0  0  0  0  0  0  0  0
   39.9300   23.8340   35.2890 N   0  0  0  0  0  0  0  0  0  0  0  0
   42.5670   20.3900   37.5440 C   0  0  0  0  0  0  0  0  0  0  0  0
   41.5680   21.3790   37.5580 C   0  0  0  0  0  0  0  0  0  0  0  0
   41.2200   21.9330   36.3200 C   0  0  0  0  0  0  0  0  0  0  0  0
   41.8510   21.5040   35.1720 N   0  0  0  0  0  0  0  0  0  0  0  0
   42.7900   20.5580   35.2500 C   0  0  0  0  0  0  0  0  0  0  0  0
   43.1460   20.0120   36.3930 N   0  0  0  0  0  0  0  0  0  0  0  0
   37.9380   27.5430   31.9640 C   0  0  1  0  0  0  0  0  0  0  0  0
   39.4190   27.4360   31.6290 C   0  0  0  0  0  0  0  0  0  0  0  0
   37.2200   26.8350   30.9090 C   0  0  0  0  0  0  0  0  0  0  0  0
   36.8470   25.5070   30.9720 N   0  0  0  0  0  0  0  0  0  0  0  0
   35.5480   25.1310   31.2820 C   0  0  0  0  0  0  0  0  0  0  0  0
   35.4020   23.7770   31.3080 C   0  0  0  0  0  0  0  0  0  0  0  0
   36.6380   23.3150   31.0040 N   0  0  0  0  0  0  0  0  0  0  0  0
   37.4750   24.3490   30.8010 C   0  0  0  0  0  0  0  0  0  0  0  0
   38.8240   23.8730   30.3790 C   0  0  0  0  0  0  0  0  0  0  0  0
   38.7240   22.3130   30.0350 C   0  0  0  0  0  0  0  0  0  0  0  0
   39.3390   24.3100   29.0650 C   0  0  0  0  0  0  0  0  0  0  0  0
   39.8240   23.7200   31.4920 C   0  0  0  0  0  0  0  0  0  0  0  0
   36.8167   26.5335   36.2809 H   0  0  0  0  0  0  0  0  0  0  0  0
   36.2142   28.1869   34.2935 H   0  0  0  0  0  0  0  0  0  0  0  0
   39.2115   22.6395   38.2834 H   0  0  0  0  0  0  0  0  0  0  0  0
   40.4339   23.9125   34.3941 H   0  0  0  0  0  0  0  0  0  0  0  0
   42.8784   19.9197   38.4883 H   0  0  0  0  0  0  0  0  0  0  0  0
   41.0850   21.7008   38.4925 H   0  0  0  0  0  0  0  0  0  0  0  0
   43.2836   20.2231   34.3257 H   0  0  0  0  0  0  0  0  0  0  0  0
   37.5360   28.5667   31.9848 H   0  0  0  0  0  0  0  0  0  0  0  0
   40.0034   27.3938   32.5600 H   0  0  0  0  0  0  0  0  0  0  0  0
   39.5972   26.5226   31.0425 H   0  0  0  0  0  0  0  0  0  0  0  0
   39.7266   28.3143   31.0425 H   0  0  0  0  0  0  0  0  0  0  0  0
   37.8506   26.9228   30.0119 H   0  0  0  0  0  0  0  0  0  0  0  0
   36.2371   27.3255   30.9671 H   0  0  0  0  0  0  0  0  0  0  0  0
   34.7329   25.8418   31.4829 H   0  0  0  0  0  0  0  0  0  0  0  0
   34.4937   23.1956   31.5249 H   0  0  0  0  0  0  0  0  0  0  0  0
   38.6868   21.7332   30.9691 H   0  0  0  0  0  0  0  0  0  0  0  0
   37.8119   22.1243   29.4498 H   0  0  0  0  0  0  0  0  0  0  0  0
   39.6045   22.0094   29.4498 H   0  0  0  0  0  0  0  0  0  0  0  0
   40.1701   25.0152   29.2130 H   0  0  0  0  0  0  0  0  0  0  0  0
   39.6963   23.4352   28.5018 H   0  0  0  0  0  0  0  0  0  0  0  0
   38.5341   24.8049   28.5018 H   0  0  0  0  0  0  0  0  0  0  0  0
   39.3092   23.7988   32.4609 H   0  0  0  0  0  0  0  0  0  0  0  0
   40.3113   22.7369   31.4146 H   0  0  0  0  0  0  0  0  0  0  0  0
   40.5829   24.5125   31.4146 H   0  0  0  0  0  0  0  0  0  0  0  0
  1  2  1  0
  1  9  1  0
  3  2  2  0
  4  5  1  0
  4  3  1  0
  5  1  2  0
  6 13  1  0
  6  7  2  0
  8  7  1  0
  9  8  2  0
 10  9  1  0
 10  6  1  0
 11 12  2  0
 13 12  1  0
 14 15  1  0
 14 13  2  0
 15 16  2  0
 16 11  1  0
 17  4  1  0
 18 17  1  0
 19 20  1  0
 19 17  1  0
 20 21  1  0
 21 22  2  0
 23 22  1  0
 24 20  1  0
 24 23  2  0
 25 24  1  0
 25 28  1  0
 26 25  1  0
 27 25  1  0
  2 29  1  0
  3 30  1  0
  7 31  1  0
 10 32  1  0
 11 33  1  0
 12 34  1  0
 15 35  1  0
 17 36  1  1
 18 37  1  0
 18 38  1  0
 18 39  1  0
 19 40  1  0
 19 41  1  0
 21 42  1  0
 22 43  1  0
 26 44  1  0
 26 45  1  0
 26 46  1  0
 27 47  1  0
 27 48  1  0
 27 49  1  0
 28 50  1  0
 28 51  1  0
 28 52  1  0
M  ISO  8  29  14  30  14  31  14  32   9  33  14  34  14  35  14  36   8
M  ISO  8  37   8  38   8  39   8  40   8  41   8  42  14  43  14  44   8
M  ISO  8  45   8  46   8  47   8  48   8  49   8  50   8  51   8  52   8
M  END
>  <minimizedAffinity>  (1) 
-5.10248375

>  <minimizedRMSD>  (1) 
0.982548058

$$$$
