
     RDKit          3D

 53 57  0  0  1  0  0  0  0  0999 V2000
   38.2970   25.7100   34.8850 C   0  0  0  0  0  0  0  0  0  0  0  0
   37.2500   26.5360   35.2290 C   0  0  0  0  0  0  0  0  0  0  0  0
   36.9050   27.3760   34.2140 C   0  0  0  0  0  0  0  0  0  0  0  0
   37.7530   27.0570   33.2430 N   0  0  0  0  0  0  0  0  0  0  0  0
   38.5640   26.0910   33.6210 N   0  0  0  0  0  0  0  0  0  0  0  0
   40.3490   23.1980   36.3460 C   0  0  0  0  0  0  0  0  0  0  0  0
   39.3000   23.2310   37.2690 C   0  0  0  0  0  0  0  0  0  0  0  0
   38.4390   24.1690   36.8160 N   0  0  0  0  0  0  0  0  0  0  0  0
   38.9700   24.6610   35.6710 C   0  0  0  0  0  0  0  0  0  0  0  0
   40.1090   24.1000   35.3660 N   0  0  0  0  0  0  0  0  0  0  0  0
   42.5860   20.4400   37.4860 C   0  0  0  0  0  0  0  0  0  0  0  0
   41.4670   21.2920   37.3950 C   0  0  0  0  0  0  0  0  0  0  0  0
   41.5000   22.3100   36.4550 C   0  0  0  0  0  0  0  0  0  0  0  0
   42.6120   22.4480   35.6530 N   0  0  0  0  0  0  0  0  0  0  0  0
   43.6420   21.6150   35.7810 C   0  0  0  0  0  0  0  0  0  0  0  0
   43.6480   20.6320   36.6650 N   0  0  0  0  0  0  0  0  0  0  0  0
   37.9120   27.5830   31.9200 C   0  0  1  0  0  0  0  0  0  0  0  0
   39.4110   27.5510   31.5850 C   0  0  0  0  0  0  0  0  0  0  0  0
   37.2600   26.8290   30.8580 C   0  0  0  0  0  0  0  0  0  0  0  0
   36.8840   25.4940   30.9650 N   0  0  0  0  0  0  0  0  0  0  0  0
   35.6840   25.1250   31.5330 C   0  0  0  0  0  0  0  0  0  0  0  0
   35.5270   23.7670   31.5110 C   0  0  0  0  0  0  0  0  0  0  0  0
   36.6540   23.2960   30.9140 N   0  0  0  0  0  0  0  0  0  0  0  0
   37.4260   24.3400   30.6050 C   0  0  0  0  0  0  0  0  0  0  0  0
   38.6330   23.8910   29.8820 C   0  0  0  0  0  0  0  0  0  0  0  0
   39.9100   24.3370   30.5720 C   0  0  0  0  0  0  0  0  0  0  0  0
   40.0510   23.4910   31.8060 C   0  0  0  0  0  0  0  0  0  0  0  0
   39.4530   22.1900   31.4030 C   0  0  0  0  0  0  0  0  0  0  0  0
   38.8830   22.3610   30.0180 C   0  0  0  0  0  0  0  0  0  0  0  0
   36.7508   26.5192   36.2090 H   0  0  0  0  0  0  0  0  0  0  0  0
   36.1119   28.1381   34.2014 H   0  0  0  0  0  0  0  0  0  0  0  0
   39.1965   22.6193   38.1773 H   0  0  0  0  0  0  0  0  0  0  0  0
   40.7022   24.3022   34.5486 H   0  0  0  0  0  0  0  0  0  0  0  0
   42.5978   19.6216   38.2209 H   0  0  0  0  0  0  0  0  0  0  0  0
   40.5942   21.1533   38.0499 H   0  0  0  0  0  0  0  0  0  0  0  0
   44.5179   21.7489   35.1292 H   0  0  0  0  0  0  0  0  0  0  0  0
   37.4520   28.5819   31.9461 H   0  0  0  0  0  0  0  0  0  0  0  0
   39.9948   27.5385   32.5172 H   0  0  0  0  0  0  0  0  0  0  0  0
   39.6365   26.6478   30.9990 H   0  0  0  0  0  0  0  0  0  0  0  0
   39.6749   28.4437   30.9990 H   0  0  0  0  0  0  0  0  0  0  0  0
   37.9426   26.8775   29.9968 H   0  0  0  0  0  0  0  0  0  0  0  0
   36.2760   27.3198   30.8295 H   0  0  0  0  0  0  0  0  0  0  0  0
   34.9493   25.8300   31.9492 H   0  0  0  0  0  0  0  0  0  0  0  0
   34.6759   23.1837   31.8925 H   0  0  0  0  0  0  0  0  0  0  0  0
   38.4513   24.2708   28.8657 H   0  0  0  0  0  0  0  0  0  0  0  0
   40.7732   24.1851   29.9073 H   0  0  0  0  0  0  0  0  0  0  0  0
   39.8696   25.4062   30.8273 H   0  0  0  0  0  0  0  0  0  0  0  0
   41.1091   23.3694   32.0809 H   0  0  0  0  0  0  0  0  0  0  0  0
   39.5632   23.9329   32.6874 H   0  0  0  0  0  0  0  0  0  0  0  0
   40.2261   21.4076   31.3966 H   0  0  0  0  0  0  0  0  0  0  0  0
   38.6661   21.8903   32.1108 H   0  0  0  0  0  0  0  0  0  0  0  0
   37.9408   21.8029   29.9143 H   0  0  0  0  0  0  0  0  0  0  0  0
   39.5585   21.9780   29.2389 H   0  0  0  0  0  0  0  0  0  0  0  0
  1  2  1  0
  1  9  1  0
  3  2  2  0
  4  5  1  0
  4  3  1  0
  5  1  2  0
  6 13  1  0
  6  7  2  0
  8  7  1  0
  9  8  2  0
 10  9  1  0
 10  6  1  0
 12 11  2  0
 13 12  1  0
 14 15  1  0
 14 13  2  0
 15 16  2  0
 16 11  1  0
 17  4  1  0
 18 17  1  0
 19 20  1  0
 19 17  1  0
 20 21  1  0
 22 21  2  0
 23 22  1  0
 24 23  2  0
 24 20  1  0
 25 29  1  0
 25 26  1  0
 25 24  1  0
 26 27  1  0
 28 27  1  0
 29 28  1  0
  2 30  1  0
  3 31  1  0
  7 32  1  0
 10 33  1  0
 11 34  1  0
 12 35  1  0
 15 36  1  0
 17 37  1  1
 18 38  1  0
 18 39  1  0
 18 40  1  0
 19 41  1  0
 19 42  1  0
 21 43  1  0
 22 44  1  0
 25 45  1  0
 26 46  1  0
 26 47  1  0
 27 48  1  0
 27 49  1  0
 28 50  1  0
 28 51  1  0
 29 52  1  0
 29 53  1  0
M  ISO  8  30  14  31  14  32  14  33   9  34  14  35  14  36  14  37   8
M  ISO  8  38   8  39   8  40   8  41   8  42   8  43  14  44  14  45  13
M  ISO  8  46  13  47  13  48  13  49  13  50  13  51  13  52  13  53  13
M  END
>  <minimizedAffinity>  (1) 
-5.01359272

>  <minimizedRMSD>  (1) 
1.1575706

$$$$
