
     RDKit          3D

 47 51  0  0  1  0  0  0  0  0999 V2000
   38.2310   25.7930   34.8550 C   0  0  0  0  0  0  0  0  0  0  0  0
   37.2170   26.6630   35.1900 C   0  0  0  0  0  0  0  0  0  0  0  0
   36.9400   27.5370   34.1830 C   0  0  0  0  0  0  0  0  0  0  0  0
   37.7930   27.1970   33.2270 N   0  0  0  0  0  0  0  0  0  0  0  0
   38.5470   26.1840   33.6080 N   0  0  0  0  0  0  0  0  0  0  0  0
   40.0720   23.0930   36.2690 C   0  0  0  0  0  0  0  0  0  0  0  0
   39.1220   23.3030   37.2730 C   0  0  0  0  0  0  0  0  0  0  0  0
   38.3410   24.3300   36.8480 N   0  0  0  0  0  0  0  0  0  0  0  0
   38.8340   24.6960   35.6350 C   0  0  0  0  0  0  0  0  0  0  0  0
   39.8620   23.9800   35.2630 N   0  0  0  0  0  0  0  0  0  0  0  0
   42.4180   20.5350   37.5860 C   0  0  0  0  0  0  0  0  0  0  0  0
   41.4220   21.5170   37.5660 C   0  0  0  0  0  0  0  0  0  0  0  0
   41.1100   22.0660   36.3310 C   0  0  0  0  0  0  0  0  0  0  0  0
   41.7750   21.6370   35.2030 N   0  0  0  0  0  0  0  0  0  0  0  0
   42.7140   20.6970   35.2990 C   0  0  0  0  0  0  0  0  0  0  0  0
   43.0410   20.1470   36.4700 N   0  0  0  0  0  0  0  0  0  0  0  0
   38.0090   27.7330   31.9160 C   0  0  1  0  0  0  0  0  0  0  0  0
   39.4920   27.5120   31.5510 C   0  0  0  0  0  0  0  0  0  0  0  0
   37.2340   27.1090   30.8480 C   0  0  0  0  0  0  0  0  0  0  0  0
   36.6890   25.8340   30.9400 N   0  0  0  0  0  0  0  0  0  0  0  0
   35.3360   25.6320   31.0710 C   0  0  0  0  0  0  0  0  0  0  0  0
   35.0200   24.3000   31.1170 C   0  0  0  0  0  0  0  0  0  0  0  0
   36.2160   23.6680   31.0140 N   0  0  0  0  0  0  0  0  0  0  0  0
   37.1640   24.6050   30.9080 C   0  0  0  0  0  0  0  0  0  0  0  0
   38.5290   24.0790   30.6660 C   0  0  0  0  0  0  0  0  0  0  0  0
   38.7380   22.7620   29.9680 C   0  0  0  0  0  0  0  0  0  0  0  0
   39.0670   23.9790   29.2420 C   0  0  0  0  0  0  0  0  0  0  0  0
   36.6927   26.6530   36.1570 H   0  0  0  0  0  0  0  0  0  0  0  0
   36.1855   28.3373   34.1668 H   0  0  0  0  0  0  0  0  0  0  0  0
   39.0262   22.7478   38.2178 H   0  0  0  0  0  0  0  0  0  0  0  0
   40.4002   24.0699   34.3894 H   0  0  0  0  0  0  0  0  0  0  0  0
   42.6949   20.0710   38.5441 H   0  0  0  0  0  0  0  0  0  0  0  0
   40.9108   21.8384   38.4854 H   0  0  0  0  0  0  0  0  0  0  0  0
   43.2340   20.3652   34.3882 H   0  0  0  0  0  0  0  0  0  0  0  0
   37.6976   28.7863   31.9753 H   0  0  0  0  0  0  0  0  0  0  0  0
   40.0870   27.4233   32.4719 H   0  0  0  0  0  0  0  0  0  0  0  0
   39.5907   26.5892   30.9604 H   0  0  0  0  0  0  0  0  0  0  0  0
   39.8554   28.3659   30.9604 H   0  0  0  0  0  0  0  0  0  0  0  0
   37.8945   27.0908   29.9685 H   0  0  0  0  0  0  0  0  0  0  0  0
   36.3266   27.7308   30.8500 H   0  0  0  0  0  0  0  0  0  0  0  0
   34.5953   26.4430   31.1317 H   0  0  0  0  0  0  0  0  0  0  0  0
   34.0229   23.8459   31.2152 H   0  0  0  0  0  0  0  0  0  0  0  0
   38.8586   24.5291   31.6140 H   0  0  0  0  0  0  0  0  0  0  0  0
   39.5443   22.0917   30.3005 H   0  0  0  0  0  0  0  0  0  0  0  0
   38.0933   21.8958   29.7582 H   0  0  0  0  0  0  0  0  0  0  0  0
   40.1185   24.2264   29.0345 H   0  0  0  0  0  0  0  0  0  0  0  0
   38.7727   24.4051   28.2715 H   0  0  0  0  0  0  0  0  0  0  0  0
  1  2  1  0
  1  9  1  0
  3  2  2  0
  4  5  1  0
  4  3  1  0
  5  1  2  0
  6 13  1  0
  6  7  2  0
  8  7  1  0
  9  8  2  0
 10  9  1  0
 10  6  1  0
 12 11  2  0
 13 12  1  0
 14 15  1  0
 14 13  2  0
 15 16  2  0
 16 11  1  0
 17  4  1  0
 18 17  1  0
 19 20  1  0
 19 17  1  0
 20 21  1  0
 21 22  2  0
 23 22  1  0
 24 20  1  0
 24 23  2  0
 25 24  1  0
 26 25  1  0
 27 26  1  0
 27 25  1  0
  2 28  1  0
  3 29  1  0
  7 30  1  0
 10 31  1  0
 11 32  1  0
 12 33  1  0
 15 34  1  0
 17 35  1  1
 18 36  1  0
 18 37  1  0
 18 38  1  0
 19 39  1  0
 19 40  1  0
 21 41  1  0
 22 42  1  0
 25 43  1  0
 26 44  1  0
 26 45  1  0
 27 46  1  0
 27 47  1  0
M  ISO  8  28  14  29  14  30  14  31   9  32  14  33  14  34  14  35   8
M  ISO  8  36   8  37   8  38   8  39   8  40   8  41  14  42  14  43  13
M  ISO  4  44  13  45  13  46  13  47  13
M  END
>  <minimizedAffinity>  (1) 
-5.0843811

>  <minimizedRMSD>  (1) 
1.03738236

$$$$
