
     RDKit          3D

 30 31  0  0  1  0  0  0  0  0999 V2000
   38.3580   23.2030   35.9460 C   0  0  1  0  0  0  0  0  0  0  0  0
   39.7640   22.6890   35.9540 C   0  0  0  0  0  0  0  0  0  0  0  0
   40.2250   22.7570   37.3930 C   0  0  1  0  0  0  0  0  0  0  0  0
   39.0190   23.2070   38.1850 C   0  0  0  0  0  0  0  0  0  0  0  0
   38.4100   24.1530   37.1490 C   0  0  0  0  0  0  0  0  0  0  0  0
   37.7410   23.1720   33.5100 C   0  0  0  0  0  0  0  0  0  0  0  0
   37.9760   23.8780   34.6920 C   0  0  0  0  0  0  0  0  0  0  0  0
   37.8520   25.2950   34.6900 C   0  0  0  0  0  0  0  0  0  0  0  0
   37.5090   25.8940   33.5250 N   0  0  0  0  0  0  0  0  0  0  0  0
   37.2890   25.1650   32.3970 C   0  0  0  0  0  0  0  0  0  0  0  0
   37.4040   23.8220   32.3900 N   0  0  0  0  0  0  0  0  0  0  0  0
   40.7840   21.5200   37.8630 N   0  0  0  0  0  0  0  0  0  0  0  0
   42.0660   21.1100   37.4670 C   0  0  0  0  0  0  0  0  0  0  0  0
   42.8650   21.8650   36.8110 N   0  0  0  0  0  0  0  0  0  0  0  0
   42.4930   19.7810   37.8170 N   0  0  0  0  0  0  0  0  0  0  0  0
   43.8110   21.5580   36.5210 H   0  0  0  0  0  0  0  0  0  0  0  0
   37.5922   22.4160   36.0112 H   0  0  0  0  0  0  0  0  0  0  0  0
   39.7934   21.6507   35.5920 H   0  0  0  0  0  0  0  0  0  0  0  0
   40.4137   23.2830   35.2945 H   0  0  0  0  0  0  0  0  0  0  0  0
   41.0574   23.4666   37.5098 H   0  0  0  0  0  0  0  0  0  0  0  0
   38.3472   22.3708   38.4286 H   0  0  0  0  0  0  0  0  0  0  0  0
   39.2310   23.6486   39.1699 H   0  0  0  0  0  0  0  0  0  0  0  0
   39.0547   25.0235   36.9579 H   0  0  0  0  0  0  0  0  0  0  0  0
   37.4482   24.6049   37.4331 H   0  0  0  0  0  0  0  0  0  0  0  0
   37.8334   22.0759   33.4998 H   0  0  0  0  0  0  0  0  0  0  0  0
   38.0285   25.8834   35.6025 H   0  0  0  0  0  0  0  0  0  0  0  0
   37.0105   25.6845   31.4682 H   0  0  0  0  0  0  0  0  0  0  0  0
   40.2354   20.9251   38.5003 H   0  0  0  0  0  0  0  0  0  0  0  0
   43.4287   19.4511   37.5404 H   0  0  0  0  0  0  0  0  0  0  0  0
   41.8629   19.1597   38.3441 H   0  0  0  0  0  0  0  0  0  0  0  0
  1  2  1  0
  1  5  1  0
  2  3  1  0
  3 12  1  0
  3  4  1  0
  5  4  1  0
  6  7  2  0
  7  1  1  0
  8  7  1  0
  9  8  2  0
 10  9  1  0
 11 10  2  0
 11  6  1  0
 13 15  1  0
 13 12  1  0
 14 13  2  0
 16 14  1  0
  1 17  1  1
  2 18  1  0
  2 19  1  0
  3 20  1  6
  4 21  1  0
  4 22  1  0
  5 23  1  0
  5 24  1  0
  6 25  1  0
  8 26  1  0
 10 27  1  0
 12 28  1  0
 15 29  1  0
 15 30  1  0
M  ISO  8  17  13  18  13  19  13  20  13  21  13  22  13  23  13  24  13
M  ISO  3  25  14  26  14  27  14
M  END
>  <minimizedAffinity>  (1) 
-4.78461933

>  <minimizedRMSD>  (1) 
2.81040907

$$$$
