
     RDKit          3D

 37 40  0  0  1  0  0  0  0  0999 V2000
   39.2910   23.9250   35.4950 C   0  0  1  0  0  0  0  0  0  0  0  0
   40.7720   24.1070   35.5290 C   0  0  0  0  0  0  0  0  0  0  0  0
   41.2700   23.1670   36.6260 C   0  0  1  0  0  0  0  0  0  0  0  0
   40.0760   22.3430   37.0200 C   0  0  0  0  0  0  0  0  0  0  0  0
   39.0090   23.4360   36.9180 C   0  0  0  0  0  0  0  0  0  0  0  0
   42.4060   22.4040   36.2040 N   0  0  0  0  0  0  0  0  0  0  0  0
   42.5390   21.1720   35.6410 C   0  0  0  0  0  0  0  0  0  0  0  0
   43.8520   20.9200   35.4360 N   0  0  0  0  0  0  0  0  0  0  0  0
   44.5310   21.9790   35.8640 C   0  0  0  0  0  0  0  0  0  0  0  0
   45.9040   22.2310   35.8800 C   0  0  0  0  0  0  0  0  0  0  0  0
   46.7670   21.4260   35.4580 O   0  0  0  0  0  0  0  0  0  0  0  0
   46.3390   23.4220   36.3840 N   0  0  0  0  0  0  0  0  0  0  0  0
   45.4720   24.3480   36.8600 C   0  0  0  0  0  0  0  0  0  0  0  0
   45.9130   25.5990   37.3900 N   0  0  0  0  0  0  0  0  0  0  0  0
   44.1610   24.0880   36.8360 N   0  0  0  0  0  0  0  0  0  0  0  0
   43.6440   22.9220   36.3490 C   0  0  0  0  0  0  0  0  0  0  0  0
   38.4460   26.2470   35.9620 C   0  0  0  0  0  0  0  0  0  0  0  0
   38.5290   25.1220   35.1390 C   0  0  0  0  0  0  0  0  0  0  0  0
   37.8290   25.1390   33.9020 C   0  0  0  0  0  0  0  0  0  0  0  0
   37.1130   26.2390   33.5710 N   0  0  0  0  0  0  0  0  0  0  0  0
   37.0550   27.3170   34.3990 C   0  0  0  0  0  0  0  0  0  0  0  0
   37.7140   27.3030   35.5670 N   0  0  0  0  0  0  0  0  0  0  0  0
   38.9703   23.2319   34.7033 H   0  0  0  0  0  0  0  0  0  0  0  0
   41.2156   23.8365   34.5594 H   0  0  0  0  0  0  0  0  0  0  0  0
   41.0518   25.1522   35.7271 H   0  0  0  0  0  0  0  0  0  0  0  0
   41.6518   23.7110   37.5025 H   0  0  0  0  0  0  0  0  0  0  0  0
   39.8921   21.5163   36.3181 H   0  0  0  0  0  0  0  0  0  0  0  0
   40.1462   21.8304   37.9907 H   0  0  0  0  0  0  0  0  0  0  0  0
   39.1615   24.2303   37.6635 H   0  0  0  0  0  0  0  0  0  0  0  0
   37.9770   23.1045   37.1054 H   0  0  0  0  0  0  0  0  0  0  0  0
   41.7118   20.4908   35.3927 H   0  0  0  0  0  0  0  0  0  0  0  0
   47.3493   23.6216   36.4030 H   0  0  0  0  0  0  0  0  0  0  0  0
   45.2255   26.2797   37.7434 H   0  0  0  0  0  0  0  0  0  0  0  0
   46.9185   25.8204   37.4188 H   0  0  0  0  0  0  0  0  0  0  0  0
   38.9754   26.2689   36.9260 H   0  0  0  0  0  0  0  0  0  0  0  0
   37.8685   24.2728   33.2251 H   0  0  0  0  0  0  0  0  0  0  0  0
   36.4671   28.2008   34.1102 H   0  0  0  0  0  0  0  0  0  0  0  0
  1  2  1  0
  1  5  1  0
  2  3  1  0
  3  4  1  0
  5  4  1  0
  6 16  1  0
  6  3  1  0
  7  6  1  0
  8  7  2  0
  8  9  1  0
  9 10  1  0
  9 16  2  0
 10 12  1  0
 11 10  2  0
 12 13  1  0
 13 14  1  0
 15 13  2  0
 16 15  1  0
 18  1  1  0
 18 17  2  0
 19 18  1  0
 20 19  2  0
 20 21  1  0
 21 22  2  0
 22 17  1  0
  1 23  1  6
  2 24  1  0
  2 25  1  0
  3 26  1  1
  4 27  1  0
  4 28  1  0
  5 29  1  0
  5 30  1  0
  7 31  1  0
 12 32  1  0
 14 33  1  0
 14 34  1  0
 17 35  1  0
 19 36  1  0
 21 37  1  0
M  ISO  8  23  13  24  13  25  13  26  13  27  13  28  13  29  13  30  13
M  ISO  5  31  14  32   9  35  14  36  14  37  14
M  END
>  <minimizedAffinity>  (1) 
-4.60639334

>  <minimizedRMSD>  (1) 
2.72927165

$$$$
