
     RDKit          3D

 39 41  0  0  1  0  0  0  0  0999 V2000
   39.7870   23.5840   35.9060 C   0  0  1  0  0  0  0  0  0  0  0  0
   41.2700   23.5220   35.7410 C   0  0  0  0  0  0  0  0  0  0  0  0
   41.7620   22.5670   36.8210 C   0  0  1  0  0  0  0  0  0  0  0  0
   40.5160   21.9610   37.4090 C   0  0  0  0  0  0  0  0  0  0  0  0
   39.6230   23.2010   37.3790 C   0  0  0  0  0  0  0  0  0  0  0  0
   37.8270   25.1730   35.7770 C   0  0  0  0  0  0  0  0  0  0  0  0
   39.1800   24.8850   35.5820 C   0  0  0  0  0  0  0  0  0  0  0  0
   40.0180   25.8920   35.0360 C   0  0  0  0  0  0  0  0  0  0  0  0
   39.4630   27.0920   34.7270 N   0  0  0  0  0  0  0  0  0  0  0  0
   38.1380   27.3240   34.9360 C   0  0  0  0  0  0  0  0  0  0  0  0
   37.3460   26.3710   35.4530 N   0  0  0  0  0  0  0  0  0  0  0  0
   42.6900   21.5280   36.3010 C   0  0  0  0  0  0  0  0  0  0  0  0
   44.0400   22.0060   35.8900 C   0  0  0  0  0  0  0  0  0  0  0  0
   44.9970   20.8170   36.0400 C   0  0  0  0  0  0  0  0  0  0  0  0
   44.3100   19.5610   35.5570 C   0  0  0  0  0  0  0  0  0  0  0  0
   43.1690   19.1530   36.4550 C   0  0  0  0  0  0  0  0  0  0  0  0
   42.7590   20.3660   37.2740 C   0  0  0  0  0  0  0  0  0  0  0  0
   39.2593   22.9238   35.2020 H   0  0  0  0  0  0  0  0  0  0  0  0
   41.5298   23.1397   34.7428 H   0  0  0  0  0  0  0  0  0  0  0  0
   41.7322   24.5158   35.8347 H   0  0  0  0  0  0  0  0  0  0  0  0
   42.3568   23.1028   37.5754 H   0  0  0  0  0  0  0  0  0  0  0  0
   40.1167   21.1478   36.7850 H   0  0  0  0  0  0  0  0  0  0  0  0
   40.6362   21.4834   38.3926 H   0  0  0  0  0  0  0  0  0  0  0  0
   39.9901   23.9892   38.0527 H   0  0  0  0  0  0  0  0  0  0  0  0
   38.5867   23.0439   37.7127 H   0  0  0  0  0  0  0  0  0  0  0  0
   37.1581   24.4085   36.1990 H   0  0  0  0  0  0  0  0  0  0  0  0
   41.0889   25.7052   34.8676 H   0  0  0  0  0  0  0  0  0  0  0  0
   37.7109   28.3044   34.6781 H   0  0  0  0  0  0  0  0  0  0  0  0
   42.2541   21.1904   35.3491 H   0  0  0  0  0  0  0  0  0  0  0  0
   44.3615   22.8347   36.5379 H   0  0  0  0  0  0  0  0  0  0  0  0
   44.0290   22.3749   34.8538 H   0  0  0  0  0  0  0  0  0  0  0  0
   45.9017   20.9952   35.4402 H   0  0  0  0  0  0  0  0  0  0  0  0
   45.2783   20.7007   37.0970 H   0  0  0  0  0  0  0  0  0  0  0  0
   43.9177   19.7389   34.5448 H   0  0  0  0  0  0  0  0  0  0  0  0
   45.0509   18.7480   35.5627 H   0  0  0  0  0  0  0  0  0  0  0  0
   42.3197   18.8090   35.8465 H   0  0  0  0  0  0  0  0  0  0  0  0
   43.4791   18.3316   37.1176 H   0  0  0  0  0  0  0  0  0  0  0  0
   43.5049   20.5677   38.0569 H   0  0  0  0  0  0  0  0  0  0  0  0
   41.7933   20.2042   37.7753 H   0  0  0  0  0  0  0  0  0  0  0  0
  1  5  1  0
  2  1  1  0
  2  3  1  0
  3  4  1  0
  5  4  1  0
  7  6  2  0
  7  1  1  0
  8  7  1  0
  9 10  1  0
  9  8  2  0
 10 11  2  0
 11  6  1  0
 12  3  1  0
 12 17  1  0
 13 14  1  0
 13 12  1  0
 15 14  1  0
 15 16  1  0
 16 17  1  0
  1 18  1  6
  2 19  1  0
  2 20  1  0
  3 21  1  1
  4 22  1  0
  4 23  1  0
  5 24  1  0
  5 25  1  0
  6 26  1  0
  8 27  1  0
 10 28  1  0
 12 29  1  0
 13 30  1  0
 13 31  1  0
 14 32  1  0
 14 33  1  0
 15 34  1  0
 15 35  1  0
 16 36  1  0
 16 37  1  0
 17 38  1  0
 17 39  1  0
M  ISO  8  18  13  19  13  20  13  21  13  22  13  23  13  24  13  25  13
M  ISO  8  26  14  27  14  28  14  29  13  30  13  31  13  32  13  33  13
M  ISO  6  34  13  35  13  36  13  37  13  38  13  39  13
M  END
>  <minimizedAffinity>  (1) 
-4.35132408

>  <minimizedRMSD>  (1) 
0.855040729

$$$$
