
     RDKit          3D

 36 38  0  0  1  0  0  0  0  0999 V2000
   39.5040   23.4450   35.7870 C   0  0  1  0  0  0  0  0  0  0  0  0
   40.9700   23.6440   35.5930 C   0  0  0  0  0  0  0  0  0  0  0  0
   41.6390   22.9470   36.7760 C   0  0  1  0  0  0  0  0  0  0  0  0
   40.5300   22.2260   37.4900 C   0  0  0  0  0  0  0  0  0  0  0  0
   39.4180   23.2590   37.3040 C   0  0  0  0  0  0  0  0  0  0  0  0
   42.7290   22.0960   36.3660 N   0  0  0  0  0  0  0  0  0  0  0  0
   42.6750   20.7890   36.0200 C   0  0  0  0  0  0  0  0  0  0  0  0
   43.8570   20.1450   35.6520 C   0  0  0  0  0  0  0  0  0  0  0  0
   43.7670   18.7250   35.2820 C   0  0  0  0  0  0  0  0  0  0  0  0
   45.0590   20.8080   35.6340 C   0  0  0  0  0  0  0  0  0  0  0  0
   46.1230   20.2320   35.3040 O   0  0  0  0  0  0  0  0  0  0  0  0
   45.0510   22.0970   35.9850 N   0  0  0  0  0  0  0  0  0  0  0  0
   43.9210   22.7350   36.3430 C   0  0  0  0  0  0  0  0  0  0  0  0
   44.0790   23.9610   36.6500 O   0  0  0  0  0  0  0  0  0  0  0  0
   38.3540   25.6630   36.0720 C   0  0  0  0  0  0  0  0  0  0  0  0
   38.6760   24.5520   35.2900 C   0  0  0  0  0  0  0  0  0  0  0  0
   38.1750   24.4890   33.9610 C   0  0  0  0  0  0  0  0  0  0  0  0
   37.4140   25.5130   33.5330 N   0  0  0  0  0  0  0  0  0  0  0  0
   37.1200   26.5770   34.3190 C   0  0  0  0  0  0  0  0  0  0  0  0
   37.5900   26.6410   35.5740 N   0  0  0  0  0  0  0  0  0  0  0  0
   39.1032   22.5990   35.2093 H   0  0  0  0  0  0  0  0  0  0  0  0
   41.2969   23.1910   34.6454 H   0  0  0  0  0  0  0  0  0  0  0  0
   41.2334   24.7110   35.5471 H   0  0  0  0  0  0  0  0  0  0  0  0
   42.1279   23.6608   37.4554 H   0  0  0  0  0  0  0  0  0  0  0  0
   40.2862   21.2661   37.0112 H   0  0  0  0  0  0  0  0  0  0  0  0
   40.7429   21.9409   38.5309 H   0  0  0  0  0  0  0  0  0  0  0  0
   39.6296   24.1929   37.8454 H   0  0  0  0  0  0  0  0  0  0  0  0
   38.4305   22.9605   37.6857 H   0  0  0  0  0  0  0  0  0  0  0  0
   41.7189   20.2452   36.0286 H   0  0  0  0  0  0  0  0  0  0  0  0
   43.7280   18.1104   36.1934 H   0  0  0  0  0  0  0  0  0  0  0  0
   42.8565   18.5579   34.6879 H   0  0  0  0  0  0  0  0  0  0  0  0
   44.6492   18.4443   34.6879 H   0  0  0  0  0  0  0  0  0  0  0  0
   45.9385   22.6197   35.9816 H   0  0  0  0  0  0  0  0  0  0  0  0
   38.7307   25.7341   37.1030 H   0  0  0  0  0  0  0  0  0  0  0  0
   38.4012   23.6344   33.3064 H   0  0  0  0  0  0  0  0  0  0  0  0
   36.4935   27.3915   33.9265 H   0  0  0  0  0  0  0  0  0  0  0  0
  1  5  1  0
  2  1  1  0
  2  3  1  0
  3  4  1  0
  5  4  1  0
  6  3  1  0
  7  6  1  0
  8  7  2  0
  9  8  1  0
 10  8  1  0
 10 12  1  0
 11 10  2  0
 12 13  1  0
 13  6  1  0
 13 14  2  0
 16  1  1  0
 16 15  2  0
 17 16  1  0
 18 17  2  0
 18 19  1  0
 19 20  2  0
 20 15  1  0
  1 21  1  6
  2 22  1  0
  2 23  1  0
  3 24  1  1
  4 25  1  0
  4 26  1  0
  5 27  1  0
  5 28  1  0
  7 29  1  0
  9 30  1  0
  9 31  1  0
  9 32  1  0
 12 33  1  0
 15 34  1  0
 17 35  1  0
 19 36  1  0
M  ISO  8  21  13  22  13  23  13  24  13  25  13  26  13  27  13  28  13
M  ISO  8  29  14  30   8  31   8  32   8  33   9  34  14  35  14  36  14
M  END
>  <minimizedAffinity>  (1) 
-4.18002129

>  <minimizedRMSD>  (1) 
1.74038494

$$$$
