
     RDKit          3D

 34 37  0  0  1  0  0  0  0  0999 V2000
   39.9240   23.6650   35.8040 C   0  0  1  0  0  0  0  0  0  0  0  0
   41.4110   23.8070   35.8920 C   0  0  0  0  0  0  0  0  0  0  0  0
   41.8690   22.7680   36.8900 C   0  0  1  0  0  0  0  0  0  0  0  0
   40.6320   21.9830   37.2600 C   0  0  0  0  0  0  0  0  0  0  0  0
   39.6160   23.1260   37.2050 C   0  0  0  0  0  0  0  0  0  0  0  0
   42.9130   21.9220   36.3620 N   0  0  0  0  0  0  0  0  0  0  0  0
   42.9550   20.6750   35.9010 C   0  0  0  0  0  0  0  0  0  0  0  0
   44.2310   20.3810   35.5250 N   0  0  0  0  0  0  0  0  0  0  0  0
   44.9880   21.4790   35.7610 C   0  0  0  0  0  0  0  0  0  0  0  0
   46.3400   21.6390   35.5330 C   0  0  0  0  0  0  0  0  0  0  0  0
   46.8730   22.8450   35.8550 N   0  0  0  0  0  0  0  0  0  0  0  0
   46.0820   23.8160   36.3750 C   0  0  0  0  0  0  0  0  0  0  0  0
   44.7680   23.6390   36.5900 N   0  0  0  0  0  0  0  0  0  0  0  0
   44.1500   22.4650   36.2960 C   0  0  0  0  0  0  0  0  0  0  0  0
   37.8380   25.0560   35.6640 C   0  0  0  0  0  0  0  0  0  0  0  0
   39.2170   24.9080   35.4990 C   0  0  0  0  0  0  0  0  0  0  0  0
   39.9620   26.0140   35.0010 C   0  0  0  0  0  0  0  0  0  0  0  0
   39.3000   27.1630   34.7090 N   0  0  0  0  0  0  0  0  0  0  0  0
   37.9560   27.2610   34.8860 C   0  0  0  0  0  0  0  0  0  0  0  0
   37.2440   26.2230   35.3550 N   0  0  0  0  0  0  0  0  0  0  0  0
   39.5892   23.0226   34.9762 H   0  0  0  0  0  0  0  0  0  0  0  0
   41.8715   23.6233   34.9101 H   0  0  0  0  0  0  0  0  0  0  0  0
   41.7018   24.8212   36.2032 H   0  0  0  0  0  0  0  0  0  0  0  0
   42.3202   23.2415   37.7744 H   0  0  0  0  0  0  0  0  0  0  0  0
   40.4077   21.1930   36.5282 H   0  0  0  0  0  0  0  0  0  0  0  0
   40.6815   21.4320   38.2108 H   0  0  0  0  0  0  0  0  0  0  0  0
   39.8017   23.8790   37.9851 H   0  0  0  0  0  0  0  0  0  0  0  0
   38.5696   22.8332   37.3762 H   0  0  0  0  0  0  0  0  0  0  0  0
   42.0966   19.9905   35.8341 H   0  0  0  0  0  0  0  0  0  0  0  0
   46.9545   20.8298   35.1116 H   0  0  0  0  0  0  0  0  0  0  0  0
   46.5338   24.7858   36.6305 H   0  0  0  0  0  0  0  0  0  0  0  0
   37.2372   24.2179   36.0468 H   0  0  0  0  0  0  0  0  0  0  0  0
   41.0498   25.9395   34.8559 H   0  0  0  0  0  0  0  0  0  0  0  0
   37.4441   28.2035   34.6418 H   0  0  0  0  0  0  0  0  0  0  0  0
  1  2  1  0
  1  5  1  0
  2  3  1  0
  3  4  1  0
  5  4  1  0
  6  3  1  0
  7  6  1  0
  8  9  1  0
  8  7  2  0
  9 14  2  0
 10  9  1  0
 10 11  2  0
 11 12  1  0
 12 13  2  0
 14  6  1  0
 14 13  1  0
 16 15  2  0
 16  1  1  0
 17 16  1  0
 18 19  1  0
 18 17  2  0
 19 20  2  0
 20 15  1  0
  1 21  1  6
  2 22  1  0
  2 23  1  0
  3 24  1  1
  4 25  1  0
  4 26  1  0
  5 27  1  0
  5 28  1  0
  7 29  1  0
 10 30  1  0
 12 31  1  0
 15 32  1  0
 17 33  1  0
 19 34  1  0
M  ISO  8  21  13  22  13  23  13  24  13  25  13  26  13  27  13  28  13
M  ISO  6  29  14  30  14  31  14  32  14  33  14  34  14
M  END
>  <minimizedAffinity>  (1) 
-4.0998044

>  <minimizedRMSD>  (1) 
1.59799898

$$$$
