
     RDKit          3D

 32 34  0  0  1  0  0  0  0  0999 V2000
   39.7610   23.6530   35.9490 C   0  0  1  0  0  0  0  0  0  0  0  0
   41.2540   23.6400   35.9290 C   0  0  0  0  0  0  0  0  0  0  0  0
   41.6730   22.6360   36.9860 C   0  0  1  0  0  0  0  0  0  0  0  0
   40.3790   22.0570   37.5290 C   0  0  0  0  0  0  0  0  0  0  0  0
   39.4930   23.2950   37.4070 C   0  0  0  0  0  0  0  0  0  0  0  0
   37.8170   25.2410   35.7190 C   0  0  0  0  0  0  0  0  0  0  0  0
   39.1690   24.9430   35.5410 C   0  0  0  0  0  0  0  0  0  0  0  0
   40.0160   25.9130   34.9390 C   0  0  0  0  0  0  0  0  0  0  0  0
   39.4600   27.0850   34.5670 N   0  0  0  0  0  0  0  0  0  0  0  0
   38.1370   27.3400   34.7580 C   0  0  0  0  0  0  0  0  0  0  0  0
   37.3410   26.4210   35.3260 N   0  0  0  0  0  0  0  0  0  0  0  0
   42.5920   21.6110   36.4610 C   0  0  0  0  0  0  0  0  0  0  0  0
   42.8140   20.3800   37.0170 C   0  0  0  0  0  0  0  0  0  0  0  0
   43.6780   19.4330   36.5120 C   0  0  0  0  0  0  0  0  0  0  0  0
   44.3690   19.7540   35.3590 C   0  0  0  0  0  0  0  0  0  0  0  0
   44.1590   20.9810   34.7930 C   0  0  0  0  0  0  0  0  0  0  0  0
   43.3020   21.8630   35.3330 N   0  0  0  0  0  0  0  0  0  0  0  0
   39.3000   22.9668   35.2233 H   0  0  0  0  0  0  0  0  0  0  0  0
   41.6211   23.3301   34.9395 H   0  0  0  0  0  0  0  0  0  0  0  0
   41.6702   24.6380   36.1311 H   0  0  0  0  0  0  0  0  0  0  0  0
   42.2549   23.1145   37.7875 H   0  0  0  0  0  0  0  0  0  0  0  0
   40.0099   21.2234   36.9134 H   0  0  0  0  0  0  0  0  0  0  0  0
   40.4429   21.6186   38.5358 H   0  0  0  0  0  0  0  0  0  0  0  0
   39.8102   24.0958   38.0912 H   0  0  0  0  0  0  0  0  0  0  0  0
   38.4347   23.1408   37.6646 H   0  0  0  0  0  0  0  0  0  0  0  0
   37.1462   24.5028   36.1829 H   0  0  0  0  0  0  0  0  0  0  0  0
   41.0866   25.7153   34.7820 H   0  0  0  0  0  0  0  0  0  0  0  0
   37.7168   28.3070   34.4444 H   0  0  0  0  0  0  0  0  0  0  0  0
   42.2619   20.1283   37.9345 H   0  0  0  0  0  0  0  0  0  0  0  0
   43.8125   18.4599   37.0070 H   0  0  0  0  0  0  0  0  0  0  0  0
   45.0719   19.0388   34.9069 H   0  0  0  0  0  0  0  0  0  0  0  0
   44.7034   21.2513   33.8762 H   0  0  0  0  0  0  0  0  0  0  0  0
  1  5  1  0
  2  1  1  0
  2  3  1  0
  3  4  1  0
  5  4  1  0
  7  6  2  0
  7  1  1  0
  8  7  1  0
  9 10  1  0
  9  8  2  0
 10 11  2  0
 11  6  1  0
 12  3  1  0
 12 13  2  0
 14 13  1  0
 15 14  2  0
 16 17  2  0
 16 15  1  0
 17 12  1  0
  1 18  1  6
  2 19  1  0
  2 20  1  0
  3 21  1  1
  4 22  1  0
  4 23  1  0
  5 24  1  0
  5 25  1  0
  6 26  1  0
  8 27  1  0
 10 28  1  0
 13 29  1  0
 14 30  1  0
 15 31  1  0
 16 32  1  0
M  ISO  8  18  13  19  13  20  13  21  13  22  13  23  13  24  13  25  13
M  ISO  7  26  14  27  14  28  14  29  14  30  14  31  14  32  14
M  END
>  <minimizedAffinity>  (1) 
-4.01183939

>  <minimizedRMSD>  (1) 
0.755463481

$$$$
