
     RDKit          3D

 38 40  0  0  1  0  0  0  0  0999 V2000
   39.6580   23.5690   35.9930 C   0  0  1  0  0  0  0  0  0  0  0  0
   41.1050   23.3900   35.7010 C   0  0  0  0  0  0  0  0  0  0  0  0
   41.6450   22.4650   36.7830 C   0  0  1  0  0  0  0  0  0  0  0  0
   40.4340   22.0120   37.5510 C   0  0  0  0  0  0  0  0  0  0  0  0
   39.6130   23.3000   37.4970 C   0  0  0  0  0  0  0  0  0  0  0  0
   37.7750   25.2250   35.7840 C   0  0  0  0  0  0  0  0  0  0  0  0
   39.1180   24.8770   35.6240 C   0  0  0  0  0  0  0  0  0  0  0  0
   40.0080   25.8360   35.0650 C   0  0  0  0  0  0  0  0  0  0  0  0
   39.5130   27.0390   34.7170 N   0  0  0  0  0  0  0  0  0  0  0  0
   38.2000   27.3510   34.8850 C   0  0  0  0  0  0  0  0  0  0  0  0
   37.3530   26.4470   35.4130 N   0  0  0  0  0  0  0  0  0  0  0  0
   42.3930   21.3750   36.2100 N   0  0  0  0  0  0  0  0  0  0  0  0
   43.4910   21.9340   35.4480 C   0  0  0  0  0  0  0  0  0  0  0  0
   44.8330   21.4050   35.9330 C   0  0  0  0  0  0  0  0  0  0  0  0
   44.8430   19.8950   35.8370 C   0  0  0  0  0  0  0  0  0  0  0  0
   43.5650   19.3250   36.3940 C   0  0  0  0  0  0  0  0  0  0  0  0
   42.7800   20.3900   37.1700 C   0  0  0  0  0  0  0  0  0  0  0  0
   39.0178   22.9025   35.3964 H   0  0  0  0  0  0  0  0  0  0  0  0
   41.2404   22.9357   34.7084 H   0  0  0  0  0  0  0  0  0  0  0  0
   41.6353   24.3537   35.6960 H   0  0  0  0  0  0  0  0  0  0  0  0
   42.3605   22.9677   37.4504 H   0  0  0  0  0  0  0  0  0  0  0  0
   39.9206   21.1757   37.0539 H   0  0  0  0  0  0  0  0  0  0  0  0
   40.6349   21.6239   38.5605 H   0  0  0  0  0  0  0  0  0  0  0  0
   40.0839   24.1106   38.0725 H   0  0  0  0  0  0  0  0  0  0  0  0
   38.6037   23.2288   37.9286 H   0  0  0  0  0  0  0  0  0  0  0  0
   37.0648   24.5022   36.2120 H   0  0  0  0  0  0  0  0  0  0  0  0
   41.0729   25.6008   34.9208 H   0  0  0  0  0  0  0  0  0  0  0  0
   37.8292   28.3435   34.5891 H   0  0  0  0  0  0  0  0  0  0  0  0
   43.4789   23.0288   35.5542 H   0  0  0  0  0  0  0  0  0  0  0  0
   43.3647   21.6412   34.3952 H   0  0  0  0  0  0  0  0  0  0  0  0
   45.6380   21.8178   35.3072 H   0  0  0  0  0  0  0  0  0  0  0  0
   44.9907   21.7075   36.9788 H   0  0  0  0  0  0  0  0  0  0  0  0
   44.9421   19.5995   34.7821 H   0  0  0  0  0  0  0  0  0  0  0  0
   45.6910   19.5060   36.4198 H   0  0  0  0  0  0  0  0  0  0  0  0
   42.9449   18.9544   35.5645 H   0  0  0  0  0  0  0  0  0  0  0  0
   43.8179   18.5052   37.0825 H   0  0  0  0  0  0  0  0  0  0  0  0
   43.4149   20.8422   37.9462 H   0  0  0  0  0  0  0  0  0  0  0  0
   41.9047   19.9555   37.6751 H   0  0  0  0  0  0  0  0  0  0  0  0
  1  5  1  0
  2  1  1  0
  2  3  1  0
  3  4  1  0
  5  4  1  0
  7  6  2  0
  7  1  1  0
  8  7  1  0
  9 10  1  0
  9  8  2  0
 10 11  2  0
 11  6  1  0
 12  3  1  0
 12 17  1  0
 13 14  1  0
 13 12  1  0
 15 14  1  0
 15 16  1  0
 16 17  1  0
  1 18  1  6
  2 19  1  0
  2 20  1  0
  3 21  1  1
  4 22  1  0
  4 23  1  0
  5 24  1  0
  5 25  1  0
  6 26  1  0
  8 27  1  0
 10 28  1  0
 13 29  1  0
 13 30  1  0
 14 31  1  0
 14 32  1  0
 15 33  1  0
 15 34  1  0
 16 35  1  0
 16 36  1  0
 17 37  1  0
 17 38  1  0
M  ISO  8  18  13  19  13  20  13  21  13  22  13  23  13  24  13  25  13
M  ISO  8  26  14  27  14  28  14  29  13  30  13  31  13  32  13  33  13
M  ISO  5  34  13  35  13  36  13  37  13  38  13
M  END
>  <minimizedAffinity>  (1) 
-3.88063526

>  <minimizedRMSD>  (1) 
0.735776007

$$$$
