
     RDKit          3D

 30 32  0  0  1  0  0  0  0  0999 V2000
   39.1330   22.9140   35.3790 C   0  0  1  0  0  0  0  0  0  0  0  0
   38.7810   24.1870   36.0930 C   0  0  0  0  0  0  0  0  0  0  0  0
   37.9720   24.9920   35.1250 C   0  0  2  0  0  0  0  0  0  0  0  0
   37.9870   24.2340   33.8110 C   0  0  0  0  0  0  0  0  0  0  0  0
   39.2320   23.3910   33.9470 C   0  0  0  0  0  0  0  0  0  0  0  0
   41.3620   21.8470   35.0430 C   0  0  0  0  0  0  0  0  0  0  0  0
   40.3340   22.2670   35.8870 C   0  0  0  0  0  0  0  0  0  0  0  0
   40.4570   22.0480   37.2840 C   0  0  0  0  0  0  0  0  0  0  0  0
   41.5750   21.4360   37.7350 N   0  0  0  0  0  0  0  0  0  0  0  0
   42.5640   21.0340   36.8920 C   0  0  0  0  0  0  0  0  0  0  0  0
   42.4570   21.2390   35.5480 N   0  0  0  0  0  0  0  0  0  0  0  0
   38.3940   26.3790   34.8620 C   0  0  0  0  0  0  0  0  0  0  0  0
   39.7460   26.9060   35.0810 C   0  0  0  0  0  0  0  0  0  0  0  0
   38.5590   27.4060   35.9480 C   0  0  0  0  0  0  0  0  0  0  0  0
   38.3972   22.1079   35.5160 H   0  0  0  0  0  0  0  0  0  0  0  0
   38.1911   23.9687   36.9954 H   0  0  0  0  0  0  0  0  0  0  0  0
   39.6813   24.7304   36.4158 H   0  0  0  0  0  0  0  0  0  0  0  0
   36.9838   25.1056   35.5947 H   0  0  0  0  0  0  0  0  0  0  0  0
   38.0611   24.9205   32.9547 H   0  0  0  0  0  0  0  0  0  0  0  0
   37.0739   23.6488   33.6269 H   0  0  0  0  0  0  0  0  0  0  0  0
   39.2217   22.5462   33.2426 H   0  0  0  0  0  0  0  0  0  0  0  0
   40.1622   23.9339   33.7234 H   0  0  0  0  0  0  0  0  0  0  0  0
   41.2802   22.0122   33.9585 H   0  0  0  0  0  0  0  0  0  0  0  0
   39.6662   22.3667   37.9790 H   0  0  0  0  0  0  0  0  0  0  0  0
   43.4584   20.5390   37.2982 H   0  0  0  0  0  0  0  0  0  0  0  0
   37.7596   26.2932   33.9675 H   0  0  0  0  0  0  0  0  0  0  0  0
   40.5217   26.2654   35.5258 H   0  0  0  0  0  0  0  0  0  0  0  0
   40.5074   27.3870   34.4493 H   0  0  0  0  0  0  0  0  0  0  0  0
   38.1633   28.4240   35.8170 H   0  0  0  0  0  0  0  0  0  0  0  0
   38.3325   27.4671   37.0227 H   0  0  0  0  0  0  0  0  0  0  0  0
  1  7  1  0
  1  2  1  0
  3  2  1  0
  4  5  1  0
  4  3  1  0
  5  1  1  0
  6 11  2  0
  6  7  1  0
  7  8  2  0
  8  9  1  0
 10  9  2  0
 11 10  1  0
 12 13  1  0
 12  3  1  0
 12 14  1  0
 13 14  1  0
  1 15  1  6
  2 16  1  0
  2 17  1  0
  3 18  1  1
  4 19  1  0
  4 20  1  0
  5 21  1  0
  5 22  1  0
  6 23  1  0
  8 24  1  0
 10 25  1  0
 12 26  1  0
 13 27  1  0
 13 28  1  0
 14 29  1  0
 14 30  1  0
M  ISO  8  15  13  16  13  17  13  18  13  19  13  20  13  21  13  22  13
M  ISO  8  23  14  24  14  25  14  26  13  27  13  28  13  29  13  30  13
M  END
>  <minimizedAffinity>  (1) 
-3.80958867

>  <minimizedRMSD>  (1) 
5.42753267

$$$$
