
     RDKit          3D

 49 52  0  0  1  0  0  0  0  0999 V2000
   37.9510   22.7460   31.3410 N   0  0  0  0  0  0  0  0  0  0  0  0
   37.4930   23.8510   30.5230 C   0  0  0  0  0  0  0  0  0  0  0  0
   38.7460   24.6400   30.1420 C   0  0  0  0  0  0  0  0  0  0  0  0
   39.4770   23.7770   29.1340 C   0  0  0  0  0  0  0  0  0  0  0  0
   39.1730   22.3000   29.3330 C   0  0  0  0  0  0  0  0  0  0  0  0
   39.1130   22.0570   30.8340 C   0  0  2  0  0  0  0  0  0  0  0  0
   39.8860   22.8270   37.3650 C   0  0  0  0  0  0  0  0  0  0  0  0
   39.1440   23.2260   38.4680 C   0  0  0  0  0  0  0  0  0  0  0  0
   37.7690   23.2350   38.3540 C   0  0  0  0  0  0  0  0  0  0  0  0
   37.2190   22.8550   37.1730 N   0  0  0  0  0  0  0  0  0  0  0  0
   37.9670   22.4730   36.1190 C   0  0  0  0  0  0  0  0  0  0  0  0
   39.2990   22.4610   36.2190 N   0  0  0  0  0  0  0  0  0  0  0  0
   37.3640   22.0770   34.8900 N   0  0  0  0  0  0  0  0  0  0  0  0
   37.9520   22.6000   33.8070 C   0  0  0  0  0  0  0  0  0  0  0  0
   37.4340   22.2740   32.5560 C   0  0  0  0  0  0  0  0  0  0  0  0
   36.3510   21.4350   32.5550 C   0  0  0  0  0  0  0  0  0  0  0  0
   35.7170   21.0240   31.3680 N   0  0  0  0  0  0  0  0  0  0  0  0
   35.7940   20.9330   33.6680 N   0  0  0  0  0  0  0  0  0  0  0  0
   36.3090   21.2600   34.8780 C   0  0  0  0  0  0  0  0  0  0  0  0
   35.8700   20.8510   35.9680 O   0  0  0  0  0  0  0  0  0  0  0  0
   39.4130   20.7740   31.2400 N   0  0  0  0  0  0  0  0  0  0  0  0
   38.9290   19.6330   30.5280 C   0  0  0  0  0  0  0  0  0  0  0  0
   38.8510   18.5310   31.6010 C   0  0  0  0  0  0  0  0  0  0  0  0
   40.1480   18.2110   31.8950 O   0  0  0  0  0  0  0  0  0  0  0  0
   40.9670   19.2200   32.3150 C   0  0  0  0  0  0  0  0  0  0  0  0
   40.7860   20.5440   31.5990 C   0  0  0  0  0  0  0  0  0  0  0  0
   36.9886   23.4753   29.6205 H   0  0  0  0  0  0  0  0  0  0  0  0
   36.7694   24.4795   31.0628 H   0  0  0  0  0  0  0  0  0  0  0  0
   38.4705   25.6057   29.6931 H   0  0  0  0  0  0  0  0  0  0  0  0
   39.3714   24.8612   31.0195 H   0  0  0  0  0  0  0  0  0  0  0  0
   40.5595   23.9365   29.2466 H   0  0  0  0  0  0  0  0  0  0  0  0
   39.1390   24.0642   28.1274 H   0  0  0  0  0  0  0  0  0  0  0  0
   38.2075   22.0473   28.8704 H   0  0  0  0  0  0  0  0  0  0  0  0
   39.9459   21.6733   28.8642 H   0  0  0  0  0  0  0  0  0  0  0  0
   39.9637   22.5122   31.3623 H   0  0  0  0  0  0  0  0  0  0  0  0
   40.9837   22.8111   37.4343 H   0  0  0  0  0  0  0  0  0  0  0  0
   39.6371   23.5259   39.4044 H   0  0  0  0  0  0  0  0  0  0  0  0
   37.1349   23.5423   39.1987 H   0  0  0  0  0  0  0  0  0  0  0  0
   38.8202   23.2687   33.9025 H   0  0  0  0  0  0  0  0  0  0  0  0
   34.9048   20.3919   31.4102 H   0  0  0  0  0  0  0  0  0  0  0  0
   36.0651   21.3552   30.4569 H   0  0  0  0  0  0  0  0  0  0  0  0
   37.9359   19.8320   30.0988 H   0  0  0  0  0  0  0  0  0  0  0  0
   39.5753   19.3558   29.6821 H   0  0  0  0  0  0  0  0  0  0  0  0
   38.3349   18.9042   32.4978 H   0  0  0  0  0  0  0  0  0  0  0  0
   38.2866   17.6563   31.2456 H   0  0  0  0  0  0  0  0  0  0  0  0
   40.7803   19.3851   33.3864 H   0  0  0  0  0  0  0  0  0  0  0  0
   41.9926   18.8915   32.0909 H   0  0  0  0  0  0  0  0  0  0  0  0
   41.3973   20.5406   30.6845 H   0  0  0  0  0  0  0  0  0  0  0  0
   41.0999   21.3474   32.2817 H   0  0  0  0  0  0  0  0  0  0  0  0
  1 15  1  0
  2  1  1  0
  3  2  1  0
  4  5  1  0
  4  3  1  0
  5  6  1  0
  6 21  1  0
  6  1  1  0
  7  8  2  0
  9  8  1  0
 10  9  2  0
 11 12  2  0
 11 10  1  0
 12  7  1  0
 13 11  1  0
 14 13  1  0
 15 14  2  0
 16 15  1  0
 16 18  2  0
 17 16  1  0
 18 19  1  0
 19 13  1  0
 19 20  2  0
 21 26  1  0
 22 21  1  0
 22 23  1  0
 23 24  1  0
 24 25  1  0
 26 25  1  0
  2 27  1  0
  2 28  1  0
  3 29  1  0
  3 30  1  0
  4 31  1  0
  4 32  1  0
  5 33  1  0
  5 34  1  0
  6 35  1  1
  7 36  1  0
  8 37  1  0
  9 38  1  0
 14 39  1  0
 17 40  1  0
 17 41  1  0
 22 42  1  0
 22 43  1  0
 23 44  1  0
 23 45  1  0
 25 46  1  0
 25 47  1  0
 26 48  1  0
 26 49  1  0
M  ISO  8  27  13  28  13  29  13  30  13  31  13  32  13  33  13  34  13
M  ISO  8  35  13  36  14  37  14  38  14  39  14  42  13  43  13  44  13
M  ISO  5  45  13  46  13  47  13  48  13  49  13
M  END
>  <minimizedAffinity>  (1) 
-5.17731953

>  <minimizedRMSD>  (1) 
1.31037879

$$$$
