
     RDKit          3D

 40 43  0  0  1  0  0  0  0  0999 V2000
   40.6030   24.0190   35.2260 C   0  0  1  0  0  0  0  0  0  0  0  0
   41.9830   24.5370   35.2910 C   0  0  0  0  0  0  0  0  0  0  0  0
   42.7950   23.4490   36.0170 C   0  0  1  0  0  0  0  0  0  0  0  0
   41.8660   22.3000   36.2200 C   0  0  0  0  0  0  0  0  0  0  0  0
   40.5590   23.0610   36.4390 C   0  0  0  0  0  0  0  0  0  0  0  0
   38.2310   24.7440   35.6050 C   0  0  0  0  0  0  0  0  0  0  0  0
   39.5580   25.0230   35.2870 C   0  0  0  0  0  0  0  0  0  0  0  0
   39.8910   26.3640   34.9900 C   0  0  0  0  0  0  0  0  0  0  0  0
   38.9330   27.3360   35.0220 N   0  0  0  0  0  0  0  0  0  0  0  0
   37.6410   27.0070   35.3420 C   0  0  0  0  0  0  0  0  0  0  0  0
   37.3070   25.7090   35.6310 N   0  0  0  0  0  0  0  0  0  0  0  0
   44.0290   23.1130   35.2900 C   0  0  0  0  0  0  0  0  0  0  0  0
   44.0780   22.4030   34.1120 C   0  0  0  0  0  0  0  0  0  0  0  0
   45.3990   22.3400   33.8000 N   0  0  0  0  0  0  0  0  0  0  0  0
   46.0960   23.0050   34.7850 C   0  0  0  0  0  0  0  0  0  0  0  0
   45.2400   23.5030   35.7410 N   0  0  0  0  0  0  0  0  0  0  0  0
   45.6090   24.2290   36.8790 C   0  0  0  0  0  0  0  0  0  0  0  0
   44.6290   25.1260   37.3200 C   0  0  0  0  0  0  0  0  0  0  0  0
   44.8360   25.9220   38.4370 C   0  0  0  0  0  0  0  0  0  0  0  0
   46.0370   25.8220   39.1200 C   0  0  0  0  0  0  0  0  0  0  0  0
   47.0250   24.9320   38.6920 C   0  0  0  0  0  0  0  0  0  0  0  0
   46.8020   24.1390   37.5680 C   0  0  0  0  0  0  0  0  0  0  0  0
   40.3951   23.5463   34.2548 H   0  0  0  0  0  0  0  0  0  0  0  0
   42.3801   24.7022   34.2785 H   0  0  0  0  0  0  0  0  0  0  0  0
   42.0329   25.5027   35.8154 H   0  0  0  0  0  0  0  0  0  0  0  0
   43.1622   23.7933   36.9951 H   0  0  0  0  0  0  0  0  0  0  0  0
   41.8181   21.6506   35.3335 H   0  0  0  0  0  0  0  0  0  0  0  0
   42.1462   21.6116   37.0310 H   0  0  0  0  0  0  0  0  0  0  0  0
   40.5600   23.6090   37.3928 H   0  0  0  0  0  0  0  0  0  0  0  0
   39.6595   22.4309   36.5007 H   0  0  0  0  0  0  0  0  0  0  0  0
   37.9381   23.7099   35.8391 H   0  0  0  0  0  0  0  0  0  0  0  0
   40.9277   26.6259   34.7317 H   0  0  0  0  0  0  0  0  0  0  0  0
   36.8678   27.7890   35.3670 H   0  0  0  0  0  0  0  0  0  0  0  0
   43.2340   21.9799   33.5476 H   0  0  0  0  0  0  0  0  0  0  0  0
   47.1896   23.1222   34.8048 H   0  0  0  0  0  0  0  0  0  0  0  0
   43.6785   25.2009   36.7714 H   0  0  0  0  0  0  0  0  0  0  0  0
   44.0580   26.6222   38.7754 H   0  0  0  0  0  0  0  0  0  0  0  0
   46.2142   26.4485   40.0066 H   0  0  0  0  0  0  0  0  0  0  0  0
   47.9757   24.8574   39.2403 H   0  0  0  0  0  0  0  0  0  0  0  0
   47.5794   23.4387   37.2285 H   0  0  0  0  0  0  0  0  0  0  0  0
  1  7  1  0
  1  2  1  0
  1  5  1  0
  2  3  1  0
  3  4  1  0
  4  5  1  0
  6 11  2  0
  7  6  1  0
  8  9  1  0
  8  7  2  0
  9 10  2  0
 10 11  1  0
 12 16  1  0
 12  3  1  0
 13 12  2  0
 14 13  1  0
 14 15  2  0
 15 16  1  0
 16 17  1  0
 17 18  2  0
 17 22  1  0
 18 19  1  0
 19 20  2  0
 21 20  1  0
 22 21  2  0
  1 23  1  6
  2 24  1  0
  2 25  1  0
  3 26  1  1
  4 27  1  0
  4 28  1  0
  5 29  1  0
  5 30  1  0
  6 31  1  0
  8 32  1  0
 10 33  1  0
 13 34  1  0
 15 35  1  0
 18 36  1  0
 19 37  1  0
 20 38  1  0
 21 39  1  0
 22 40  1  0
M  ISO  8  23  13  24  13  25  13  26  13  27  13  28  13  29  13  30  13
M  ISO  8  31  14  32  14  33  14  34  14  35  14  36  14  37  14  38  14
M  ISO  2  39  14  40  14
M  END
>  <minimizedAffinity>  (1) 
-5.29583597

>  <minimizedRMSD>  (1) 
2.22257137

$$$$
