
     RDKit          3D

 37 40  0  0  1  0  0  0  0  0999 V2000
   39.9780   23.7220   35.7780 C   0  0  1  0  0  0  0  0  0  0  0  0
   41.4300   23.9290   35.9320 C   0  0  0  0  0  0  0  0  0  0  0  0
   41.8950   22.8560   36.9320 C   0  0  1  0  0  0  0  0  0  0  0  0
   40.6960   21.9940   37.1770 C   0  0  0  0  0  0  0  0  0  0  0  0
   39.6160   23.0850   37.1440 C   0  0  0  0  0  0  0  0  0  0  0  0
   43.0820   22.1320   36.4350 C   0  0  0  0  0  0  0  0  0  0  0  0
   43.0830   20.7820   36.1640 C   0  0  0  0  0  0  0  0  0  0  0  0
   44.3380   20.5180   35.7220 N   0  0  0  0  0  0  0  0  0  0  0  0
   45.0330   21.7030   35.7440 C   0  0  0  0  0  0  0  0  0  0  0  0
   44.2540   22.7270   36.1910 N   0  0  0  0  0  0  0  0  0  0  0  0
   44.6580   24.0750   36.3360 C   0  0  0  0  0  0  0  0  0  0  0  0
   45.2310   24.9470   35.4330 C   0  0  0  0  0  0  0  0  0  0  0  0
   45.4440   26.1690   36.0520 C   0  0  0  0  0  0  0  0  0  0  0  0
   44.9950   26.0220   37.3330 N   0  0  0  0  0  0  0  0  0  0  0  0
   44.5340   24.7880   37.4930 N   0  0  0  0  0  0  0  0  0  0  0  0
   37.8180   24.9850   35.6540 C   0  0  0  0  0  0  0  0  0  0  0  0
   39.2010   24.9180   35.5050 C   0  0  0  0  0  0  0  0  0  0  0  0
   39.8730   26.0700   35.0470 C   0  0  0  0  0  0  0  0  0  0  0  0
   39.1670   27.2050   34.7660 N   0  0  0  0  0  0  0  0  0  0  0  0
   37.8050   27.2240   34.9290 C   0  0  0  0  0  0  0  0  0  0  0  0
   37.1510   26.1110   35.3710 N   0  0  0  0  0  0  0  0  0  0  0  0
   39.7391   23.1102   34.8956 H   0  0  0  0  0  0  0  0  0  0  0  0
   41.9410   23.8015   34.9663 H   0  0  0  0  0  0  0  0  0  0  0  0
   41.6620   24.9443   36.2860 H   0  0  0  0  0  0  0  0  0  0  0  0
   42.2415   23.2830   37.8847 H   0  0  0  0  0  0  0  0  0  0  0  0
   40.5540   21.2469   36.3822 H   0  0  0  0  0  0  0  0  0  0  0  0
   40.7277   21.3826   38.0909 H   0  0  0  0  0  0  0  0  0  0  0  0
   39.7210   23.7980   37.9751 H   0  0  0  0  0  0  0  0  0  0  0  0
   38.5785   22.7347   37.2488 H   0  0  0  0  0  0  0  0  0  0  0  0
   42.2496   20.0736   36.2803 H   0  0  0  0  0  0  0  0  0  0  0  0
   46.0845   21.8110   35.4395 H   0  0  0  0  0  0  0  0  0  0  0  0
   45.4793   24.7101   34.3879 H   0  0  0  0  0  0  0  0  0  0  0  0
   45.8843   27.0717   35.6033 H   0  0  0  0  0  0  0  0  0  0  0  0
   45.0115   26.7523   38.0592 H   0  0  0  0  0  0  0  0  0  0  0  0
   37.2666   24.1017   36.0087 H   0  0  0  0  0  0  0  0  0  0  0  0
   40.9651   26.0546   34.9161 H   0  0  0  0  0  0  0  0  0  0  0  0
   37.2384   28.1393   34.7027 H   0  0  0  0  0  0  0  0  0  0  0  0
  1  2  1  0
  1  5  1  0
  2  3  1  0
  3  4  1  0
  5  4  1  0
  6  3  1  0
  7  6  2  0
  8  9  2  0
  8  7  1  0
  9 10  1  0
 10 11  1  0
 10  6  1  0
 11 15  2  0
 12 13  2  0
 12 11  1  0
 13 14  1  0
 14 15  1  0
 17 16  2  0
 17  1  1  0
 18 17  1  0
 19 20  1  0
 19 18  2  0
 20 21  2  0
 21 16  1  0
  1 22  1  6
  2 23  1  0
  2 24  1  0
  3 25  1  1
  4 26  1  0
  4 27  1  0
  5 28  1  0
  5 29  1  0
  7 30  1  0
  9 31  1  0
 12 32  1  0
 13 33  1  0
 14 34  1  0
 16 35  1  0
 18 36  1  0
 20 37  1  0
M  ISO  8  22  13  23  13  24  13  25  13  26  13  27  13  28  13  29  13
M  ISO  8  30  14  31  14  32  14  33  14  34   9  35  14  36  14  37  14
M  END
>  <minimizedAffinity>  (1) 
-4.93277979

>  <minimizedRMSD>  (1) 
0.817882299

$$$$
