
     RDKit          3D

 39 42  0  0  1  0  0  0  0  0999 V2000
   40.4740   24.0830   35.2310 C   0  0  1  0  0  0  0  0  0  0  0  0
   41.8650   24.5640   35.2830 C   0  0  0  0  0  0  0  0  0  0  0  0
   42.6460   23.4490   36.0060 C   0  0  1  0  0  0  0  0  0  0  0  0
   41.6780   22.3240   36.1870 C   0  0  0  0  0  0  0  0  0  0  0  0
   40.4100   23.1480   36.4610 C   0  0  0  0  0  0  0  0  0  0  0  0
   38.0900   24.8340   35.3420 C   0  0  0  0  0  0  0  0  0  0  0  0
   39.4550   25.1170   35.2610 C   0  0  0  0  0  0  0  0  0  0  0  0
   39.8500   26.4640   35.1820 C   0  0  0  0  0  0  0  0  0  0  0  0
   38.9060   27.4500   35.1880 N   0  0  0  0  0  0  0  0  0  0  0  0
   37.5750   27.1290   35.2690 C   0  0  0  0  0  0  0  0  0  0  0  0
   37.1870   25.8250   35.3450 N   0  0  0  0  0  0  0  0  0  0  0  0
   43.8740   23.0980   35.2950 C   0  0  0  0  0  0  0  0  0  0  0  0
   43.9100   22.3740   34.1260 C   0  0  0  0  0  0  0  0  0  0  0  0
   45.2280   22.2820   33.7990 N   0  0  0  0  0  0  0  0  0  0  0  0
   45.9350   22.9500   34.7730 C   0  0  0  0  0  0  0  0  0  0  0  0
   45.0950   23.4710   35.7270 N   0  0  0  0  0  0  0  0  0  0  0  0
   45.5090   24.2090   36.8550 C   0  0  0  0  0  0  0  0  0  0  0  0
   44.5770   25.1090   37.3630 C   0  0  0  0  0  0  0  0  0  0  0  0
   44.8680   25.8850   38.4630 C   0  0  0  0  0  0  0  0  0  0  0  0
   46.1020   25.7760   39.0780 C   0  0  0  0  0  0  0  0  0  0  0  0
   47.0160   24.8700   38.5520 C   0  0  0  0  0  0  0  0  0  0  0  0
   46.7120   24.1100   37.4650 N   0  0  0  0  0  0  0  0  0  0  0  0
   40.2472   23.5941   34.2721 H   0  0  0  0  0  0  0  0  0  0  0  0
   42.2596   24.7164   34.2676 H   0  0  0  0  0  0  0  0  0  0  0  0
   41.9489   25.5303   35.8018 H   0  0  0  0  0  0  0  0  0  0  0  0
   43.0169   23.7670   36.9916 H   0  0  0  0  0  0  0  0  0  0  0  0
   41.5837   21.7096   35.2795 H   0  0  0  0  0  0  0  0  0  0  0  0
   41.9433   21.5884   36.9606 H   0  0  0  0  0  0  0  0  0  0  0  0
   40.4736   23.7040   37.4080 H   0  0  0  0  0  0  0  0  0  0  0  0
   39.4805   22.5708   36.5744 H   0  0  0  0  0  0  0  0  0  0  0  0
   37.7526   23.7888   35.4039 H   0  0  0  0  0  0  0  0  0  0  0  0
   40.9171   26.7227   35.1155 H   0  0  0  0  0  0  0  0  0  0  0  0
   36.8180   27.9271   35.2726 H   0  0  0  0  0  0  0  0  0  0  0  0
   43.0551   21.9578   33.5729 H   0  0  0  0  0  0  0  0  0  0  0  0
   47.0301   23.0532   34.7858 H   0  0  0  0  0  0  0  0  0  0  0  0
   43.5936   25.2020   36.8789 H   0  0  0  0  0  0  0  0  0  0  0  0
   44.1195   26.5909   38.8521 H   0  0  0  0  0  0  0  0  0  0  0  0
   46.3528   26.3879   39.9570 H   0  0  0  0  0  0  0  0  0  0  0  0
   48.0042   24.7655   39.0238 H   0  0  0  0  0  0  0  0  0  0  0  0
  1  7  1  0
  1  2  1  0
  1  5  1  0
  2  3  1  0
  3  4  1  0
  4  5  1  0
  6 11  2  0
  7  6  1  0
  8  9  1  0
  8  7  2  0
  9 10  2  0
 10 11  1  0
 12 16  1  0
 12  3  1  0
 13 12  2  0
 14 13  1  0
 14 15  2  0
 15 16  1  0
 16 17  1  0
 17 18  2  0
 17 22  1  0
 18 19  1  0
 19 20  2  0
 21 20  1  0
 22 21  2  0
  1 23  1  6
  2 24  1  0
  2 25  1  0
  3 26  1  1
  4 27  1  0
  4 28  1  0
  5 29  1  0
  5 30  1  0
  6 31  1  0
  8 32  1  0
 10 33  1  0
 13 34  1  0
 15 35  1  0
 18 36  1  0
 19 37  1  0
 20 38  1  0
 21 39  1  0
M  ISO  8  23  13  24  13  25  13  26  13  27  13  28  13  29  13  30  13
M  ISO  8  31  14  32  14  33  14  34  14  35  14  36  14  37  14  38  14
M  ISO  1  39  14
M  END
>  <minimizedAffinity>  (1) 
-5.06333923

>  <minimizedRMSD>  (1) 
2.18519211

$$$$
