
     RDKit          3D

 41 45  0  0  1  0  0  0  0  0999 V2000
   39.8240   23.6350   35.9050 C   0  0  1  0  0  0  0  0  0  0  0  0
   41.2940   23.6660   35.8370 C   0  0  0  0  0  0  0  0  0  0  0  0
   41.7740   22.6870   36.9300 C   0  0  1  0  0  0  0  0  0  0  0  0
   40.5370   22.0340   37.4550 C   0  0  0  0  0  0  0  0  0  0  0  0
   39.5820   23.2310   37.3770 C   0  0  0  0  0  0  0  0  0  0  0  0
   37.7710   25.0480   35.6710 C   0  0  0  0  0  0  0  0  0  0  0  0
   39.1410   24.8560   35.5420 C   0  0  0  0  0  0  0  0  0  0  0  0
   39.9020   25.9090   35.0050 C   0  0  0  0  0  0  0  0  0  0  0  0
   39.3000   27.0750   34.6260 N   0  0  0  0  0  0  0  0  0  0  0  0
   37.9420   27.2130   34.7740 C   0  0  0  0  0  0  0  0  0  0  0  0
   37.1940   26.1890   35.2980 N   0  0  0  0  0  0  0  0  0  0  0  0
   42.7880   21.7610   36.4200 C   0  0  0  0  0  0  0  0  0  0  0  0
   42.7530   20.3980   36.5980 C   0  0  0  0  0  0  0  0  0  0  0  0
   43.8640   19.9310   35.9630 N   0  0  0  0  0  0  0  0  0  0  0  0
   44.5250   21.0140   35.4310 C   0  0  0  0  0  0  0  0  0  0  0  0
   43.8560   22.1790   35.7130 N   0  0  0  0  0  0  0  0  0  0  0  0
   45.2960   26.5060   36.6220 N   0  0  0  0  0  0  0  0  0  0  0  0
   45.1200   25.8130   37.7550 C   0  0  0  0  0  0  0  0  0  0  0  0
   44.6990   24.5570   37.4430 N   0  0  0  0  0  0  0  0  0  0  0  0
   44.6400   24.5480   36.0960 C   0  0  0  0  0  0  0  0  0  0  0  0
   44.2600   23.4780   35.3150 C   0  0  0  0  0  0  0  0  0  0  0  0
   44.2690   23.6820   33.9670 N   0  0  0  0  0  0  0  0  0  0  0  0
   44.6310   24.8690   33.4290 C   0  0  0  0  0  0  0  0  0  0  0  0
   45.0040   25.9210   34.1990 N   0  0  0  0  0  0  0  0  0  0  0  0
   45.0030   25.7440   35.5310 C   0  0  0  0  0  0  0  0  0  0  0  0
   39.4027   22.9460   35.1582 H   0  0  0  0  0  0  0  0  0  0  0  0
   41.6407   23.3372   34.8462 H   0  0  0  0  0  0  0  0  0  0  0  0
   41.6901   24.6803   35.9928 H   0  0  0  0  0  0  0  0  0  0  0  0
   42.2961   23.1956   37.7538 H   0  0  0  0  0  0  0  0  0  0  0  0
   40.2075   21.2012   36.8164 H   0  0  0  0  0  0  0  0  0  0  0  0
   40.6324   21.5689   38.4473 H   0  0  0  0  0  0  0  0  0  0  0  0
   39.8651   24.0313   38.0766 H   0  0  0  0  0  0  0  0  0  0  0  0
   38.5360   23.0209   37.6449 H   0  0  0  0  0  0  0  0  0  0  0  0
   37.1506   24.2417   36.0895 H   0  0  0  0  0  0  0  0  0  0  0  0
   40.9897   25.7931   34.8892 H   0  0  0  0  0  0  0  0  0  0  0  0
   37.4510   28.1495   34.4709 H   0  0  0  0  0  0  0  0  0  0  0  0
   41.9932   19.8122   37.1361 H   0  0  0  0  0  0  0  0  0  0  0  0
   45.4619   20.9544   34.8578 H   0  0  0  0  0  0  0  0  0  0  0  0
   45.6113   27.4857   36.5810 H   0  0  0  0  0  0  0  0  0  0  0  0
   45.2884   26.1968   38.7720 H   0  0  0  0  0  0  0  0  0  0  0  0
   44.6226   24.9843   32.3351 H   0  0  0  0  0  0  0  0  0  0  0  0
  1  5  1  0
  2  1  1  0
  2  3  1  0
  3  4  1  0
  5  4  1  0
  7  6  2  0
  7  1  1  0
  8  7  1  0
  9 10  1  0
  9  8  2  0
 10 11  2  0
 11  6  1  0
 12 13  2  0
 12  3  1  0
 14 13  1  0
 15 16  1  0
 15 14  2  0
 16 12  1  0
 17 18  1  0
 19 18  2  0
 20 19  1  0
 21 16  1  0
 21 20  2  0
 22 21  1  0
 23 22  2  0
 23 24  1  0
 24 25  2  0
 25 20  1  0
 25 17  1  0
  1 26  1  6
  2 27  1  0
  2 28  1  0
  3 29  1  1
  4 30  1  0
  4 31  1  0
  5 32  1  0
  5 33  1  0
  6 34  1  0
  8 35  1  0
 10 36  1  0
 13 37  1  0
 15 38  1  0
 17 39  1  0
 18 40  1  0
 23 41  1  0
M  ISO  8  26  13  27  13  28  13  29  13  30  13  31  13  32  13  33  13
M  ISO  8  34  14  35  14  36  14  37  14  38  14  39   9  40  14  41  14
M  END
>  <minimizedAffinity>  (1) 
-5.06879759

>  <minimizedRMSD>  (1) 
0.297349751

$$$$
