
     RDKit          3D

 36 39  0  0  1  0  0  0  0  0999 V2000
   39.9550   23.6900   35.7910 C   0  0  1  0  0  0  0  0  0  0  0  0
   41.4180   23.8410   35.8490 C   0  0  0  0  0  0  0  0  0  0  0  0
   41.8830   22.7880   36.8800 C   0  0  1  0  0  0  0  0  0  0  0  0
   40.6750   21.9760   37.2120 C   0  0  0  0  0  0  0  0  0  0  0  0
   39.6200   23.0890   37.1780 C   0  0  0  0  0  0  0  0  0  0  0  0
   37.8360   25.0230   35.6980 C   0  0  0  0  0  0  0  0  0  0  0  0
   39.2190   24.9150   35.5320 C   0  0  0  0  0  0  0  0  0  0  0  0
   39.9160   26.0590   35.0820 C   0  0  0  0  0  0  0  0  0  0  0  0
   39.2330   27.2140   34.8290 N   0  0  0  0  0  0  0  0  0  0  0  0
   37.8750   27.2530   35.0140 C   0  0  0  0  0  0  0  0  0  0  0  0
   37.1980   26.1640   35.4420 N   0  0  0  0  0  0  0  0  0  0  0  0
   43.0460   22.0460   36.3990 C   0  0  0  0  0  0  0  0  0  0  0  0
   42.9850   20.7170   36.0520 C   0  0  0  0  0  0  0  0  0  0  0  0
   44.2480   20.4060   35.6540 N   0  0  0  0  0  0  0  0  0  0  0  0
   45.0120   21.5450   35.7720 C   0  0  0  0  0  0  0  0  0  0  0  0
   44.2510   22.5890   36.2460 N   0  0  0  0  0  0  0  0  0  0  0  0
   44.7400   23.9040   36.4800 C   0  0  0  0  0  0  0  0  0  0  0  0
   45.2490   24.4230   35.3280 C   0  0  0  0  0  0  0  0  0  0  0  0
   45.8520   26.1450   35.7740 S   0  0  0  0  0  0  0  0  0  0  0  0
   45.2510   25.7940   37.5680 C   0  0  0  0  0  0  0  0  0  0  0  0
   44.8330   24.7420   37.4860 N   0  0  0  0  0  0  0  0  0  0  0  0
   39.6506   23.0629   34.9401 H   0  0  0  0  0  0  0  0  0  0  0  0
   41.8672   23.6440   34.8644 H   0  0  0  0  0  0  0  0  0  0  0  0
   41.7193   24.8604   36.1319 H   0  0  0  0  0  0  0  0  0  0  0  0
   42.2610   23.2339   37.8118 H   0  0  0  0  0  0  0  0  0  0  0  0
   40.4799   21.1997   36.4575 H   0  0  0  0  0  0  0  0  0  0  0  0
   40.7316   21.4067   38.1515 H   0  0  0  0  0  0  0  0  0  0  0  0
   39.7618   23.8179   37.9895 H   0  0  0  0  0  0  0  0  0  0  0  0
   38.5789   22.7612   37.3150 H   0  0  0  0  0  0  0  0  0  0  0  0
   37.2639   24.1504   36.0462 H   0  0  0  0  0  0  0  0  0  0  0  0
   41.0055   26.0192   34.9360 H   0  0  0  0  0  0  0  0  0  0  0  0
   37.3277   28.1853   34.8109 H   0  0  0  0  0  0  0  0  0  0  0  0
   42.1091   20.0526   36.0882 H   0  0  0  0  0  0  0  0  0  0  0  0
   46.0812   21.6114   35.5223 H   0  0  0  0  0  0  0  0  0  0  0  0
   45.2969   23.9357   34.3430 H   0  0  0  0  0  0  0  0  0  0  0  0
   45.3002   26.4483   38.4509 H   0  0  0  0  0  0  0  0  0  0  0  0
  1  2  1  0
  1  5  1  0
  2  3  1  0
  3  4  1  0
  5  4  1  0
  7  6  2  0
  7  1  1  0
  8  7  1  0
  9 10  1  0
  9  8  2  0
 10 11  2  0
 11  6  1  0
 12  3  1  0
 13 12  2  0
 14 15  2  0
 14 13  1  0
 15 16  1  0
 16 12  1  0
 16 17  1  0
 17 21  1  0
 18 19  1  0
 18 17  2  0
 19 20  1  0
 21 20  2  0
  1 22  1  6
  2 23  1  0
  2 24  1  0
  3 25  1  1
  4 26  1  0
  4 27  1  0
  5 28  1  0
  5 29  1  0
  6 30  1  0
  8 31  1  0
 10 32  1  0
 13 33  1  0
 15 34  1  0
 18 35  1  0
 20 36  1  0
M  ISO  8  22  13  23  13  24  13  25  13  26  13  27  13  28  13  29  13
M  ISO  7  30  14  31  14  32  14  33  14  34  14  35  14  36  14
M  END
>  <minimizedAffinity>  (1) 
-4.63542843

>  <minimizedRMSD>  (1) 
1.02372503

$$$$
