
     RDKit          3D

 37 40  0  0  1  0  0  0  0  0999 V2000
   39.6310   23.4330   35.7690 C   0  0  1  0  0  0  0  0  0  0  0  0
   41.0830   23.6540   35.6510 C   0  0  0  0  0  0  0  0  0  0  0  0
   41.7010   22.9450   36.8760 C   0  0  1  0  0  0  0  0  0  0  0  0
   40.5820   22.2120   37.5380 C   0  0  0  0  0  0  0  0  0  0  0  0
   39.4490   23.2110   37.2910 C   0  0  0  0  0  0  0  0  0  0  0  0
   38.3730   25.5890   36.0140 C   0  0  0  0  0  0  0  0  0  0  0  0
   38.7850   24.4960   35.2650 C   0  0  0  0  0  0  0  0  0  0  0  0
   38.3320   24.4230   33.9370 C   0  0  0  0  0  0  0  0  0  0  0  0
   37.5270   25.3970   33.4330 N   0  0  0  0  0  0  0  0  0  0  0  0
   37.1510   26.4560   34.2180 C   0  0  0  0  0  0  0  0  0  0  0  0
   37.5810   26.5330   35.4970 N   0  0  0  0  0  0  0  0  0  0  0  0
   42.8470   22.1140   36.4900 C   0  0  0  0  0  0  0  0  0  0  0  0
   42.8040   20.7360   36.4250 C   0  0  0  0  0  0  0  0  0  0  0  0
   44.0520   20.3710   36.0250 N   0  0  0  0  0  0  0  0  0  0  0  0
   44.7890   21.5210   35.8660 C   0  0  0  0  0  0  0  0  0  0  0  0
   44.0370   22.6370   36.1570 N   0  0  0  0  0  0  0  0  0  0  0  0
   44.4720   23.9950   36.1020 C   0  0  0  0  0  0  0  0  0  0  0  0
   44.4980   24.7840   37.3660 C   0  0  0  0  0  0  0  0  0  0  0  0
   45.7910   24.3000   36.8290 C   0  0  0  0  0  0  0  0  0  0  0  0
   39.3081   22.5916   35.1384 H   0  0  0  0  0  0  0  0  0  0  0  0
   41.4654   23.2151   34.7177 H   0  0  0  0  0  0  0  0  0  0  0  0
   41.3353   24.7244   35.6247 H   0  0  0  0  0  0  0  0  0  0  0  0
   42.1361   23.6509   37.5988 H   0  0  0  0  0  0  0  0  0  0  0  0
   40.3860   21.2416   37.0585 H   0  0  0  0  0  0  0  0  0  0  0  0
   40.7528   21.9471   38.5919 H   0  0  0  0  0  0  0  0  0  0  0  0
   39.5904   24.1410   37.8611 H   0  0  0  0  0  0  0  0  0  0  0  0
   38.4492   22.8703   37.5981 H   0  0  0  0  0  0  0  0  0  0  0  0
   38.7063   25.6806   37.0583 H   0  0  0  0  0  0  0  0  0  0  0  0
   38.6294   23.5751   33.3025 H   0  0  0  0  0  0  0  0  0  0  0  0
   36.5002   27.2421   33.8075 H   0  0  0  0  0  0  0  0  0  0  0  0
   41.9503   20.0789   36.6472 H   0  0  0  0  0  0  0  0  0  0  0  0
   45.8417   21.5460   35.5479 H   0  0  0  0  0  0  0  0  0  0  0  0
   44.0510   24.1600   35.0993 H   0  0  0  0  0  0  0  0  0  0  0  0
   44.2671   25.8592   37.3405 H   0  0  0  0  0  0  0  0  0  0  0  0
   43.9900   24.6886   38.3370 H   0  0  0  0  0  0  0  0  0  0  0  0
   46.3366   23.4956   37.3440 H   0  0  0  0  0  0  0  0  0  0  0  0
   46.7476   24.7670   36.5520 H   0  0  0  0  0  0  0  0  0  0  0  0
  1  5  1  0
  2  1  1  0
  2  3  1  0
  3  4  1  0
  5  4  1  0
  7  1  1  0
  7  6  2  0
  8  7  1  0
  9  8  2  0
  9 10  1  0
 10 11  2  0
 11  6  1  0
 12  3  1  0
 13 12  2  0
 14 13  1  0
 15 14  2  0
 15 16  1  0
 16 12  1  0
 17 16  1  0
 17 19  1  0
 17 18  1  0
 19 18  1  0
  1 20  1  6
  2 21  1  0
  2 22  1  0
  3 23  1  1
  4 24  1  0
  4 25  1  0
  5 26  1  0
  5 27  1  0
  6 28  1  0
  8 29  1  0
 10 30  1  0
 13 31  1  0
 15 32  1  0
 17 33  1  0
 18 34  1  0
 18 35  1  0
 19 36  1  0
 19 37  1  0
M  ISO  8  20  13  21  13  22  13  23  13  24  13  25  13  26  13  27  13
M  ISO  8  28  14  29  14  30  14  31  14  32  14  33  13  34  13  35  13
M  ISO  2  36  13  37  13
M  END
>  <minimizedAffinity>  (1) 
-4.49380445

>  <minimizedRMSD>  (1) 
1.24390852

$$$$
