
     RDKit          3D

 33 35  0  0  1  0  0  0  0  0999 V2000
   39.9430   23.6460   35.8470 C   0  0  1  0  0  0  0  0  0  0  0  0
   41.4150   23.7210   35.8070 C   0  0  0  0  0  0  0  0  0  0  0  0
   41.9020   22.7190   36.8720 C   0  0  1  0  0  0  0  0  0  0  0  0
   40.6860   22.0210   37.3810 C   0  0  0  0  0  0  0  0  0  0  0  0
   39.6780   23.1660   37.2960 C   0  0  0  0  0  0  0  0  0  0  0  0
   37.8730   25.0540   35.7290 C   0  0  0  0  0  0  0  0  0  0  0  0
   39.2420   24.8760   35.5430 C   0  0  0  0  0  0  0  0  0  0  0  0
   39.9740   25.9590   35.0120 C   0  0  0  0  0  0  0  0  0  0  0  0
   39.3310   27.1190   34.7050 N   0  0  0  0  0  0  0  0  0  0  0  0
   37.9840   27.2470   34.9060 C   0  0  0  0  0  0  0  0  0  0  0  0
   37.2790   26.2120   35.4140 N   0  0  0  0  0  0  0  0  0  0  0  0
   42.9540   21.8400   36.3480 C   0  0  0  0  0  0  0  0  0  0  0  0
   42.7540   20.5180   36.0170 C   0  0  0  0  0  0  0  0  0  0  0  0
   43.9650   20.0870   35.5690 N   0  0  0  0  0  0  0  0  0  0  0  0
   44.8400   21.1480   35.6440 C   0  0  0  0  0  0  0  0  0  0  0  0
   44.2070   22.2660   36.1370 N   0  0  0  0  0  0  0  0  0  0  0  0
   44.8240   23.5370   36.3420 C   0  0  0  0  0  0  0  0  0  0  0  0
   39.5565   22.9810   35.0606 H   0  0  0  0  0  0  0  0  0  0  0  0
   41.7884   23.4376   34.8119 H   0  0  0  0  0  0  0  0  0  0  0  0
   41.7794   24.7398   36.0052 H   0  0  0  0  0  0  0  0  0  0  0  0
   42.3979   23.2177   37.7178 H   0  0  0  0  0  0  0  0  0  0  0  0
   40.4002   21.1751   36.7385 H   0  0  0  0  0  0  0  0  0  0  0  0
   40.7920   21.5658   38.3768 H   0  0  0  0  0  0  0  0  0  0  0  0
   39.8914   23.9541   38.0332 H   0  0  0  0  0  0  0  0  0  0  0  0
   38.6362   22.8846   37.5090 H   0  0  0  0  0  0  0  0  0  0  0  0
   37.2708   24.2308   36.1409 H   0  0  0  0  0  0  0  0  0  0  0  0
   41.0576   25.8666   34.8471 H   0  0  0  0  0  0  0  0  0  0  0  0
   37.4760   28.1898   34.6548 H   0  0  0  0  0  0  0  0  0  0  0  0
   41.8222   19.9389   36.0970 H   0  0  0  0  0  0  0  0  0  0  0  0
   45.8993   21.1073   35.3502 H   0  0  0  0  0  0  0  0  0  0  0  0
   44.9174   23.7295   37.4210 H   0  0  0  0  0  0  0  0  0  0  0  0
   45.8230   23.5382   35.8815 H   0  0  0  0  0  0  0  0  0  0  0  0
   44.2070   24.3226   35.8815 H   0  0  0  0  0  0  0  0  0  0  0  0
  1  5  1  0
  2  1  1  0
  2  3  1  0
  3  4  1  0
  5  4  1  0
  7  6  2  0
  7  1  1  0
  8  7  1  0
  9 10  1  0
  9  8  2  0
 10 11  2  0
 11  6  1  0
 12  3  1  0
 13 12  2  0
 14 15  2  0
 14 13  1  0
 15 16  1  0
 16 17  1  0
 16 12  1  0
  1 18  1  6
  2 19  1  0
  2 20  1  0
  3 21  1  1
  4 22  1  0
  4 23  1  0
  5 24  1  0
  5 25  1  0
  6 26  1  0
  8 27  1  0
 10 28  1  0
 13 29  1  0
 15 30  1  0
 17 31  1  0
 17 32  1  0
 17 33  1  0
M  ISO  8  18  13  19  13  20  13  21  13  22  13  23  13  24  13  25  13
M  ISO  8  26  14  27  14  28  14  29  14  30  14  31   8  32   8  33   8
M  END
>  <minimizedAffinity>  (1) 
-3.9783206

>  <minimizedRMSD>  (1) 
0.324522525

$$$$
