
     RDKit          3D

 43 46  0  0  1  0  0  0  0  0999 V2000
   39.9070   22.7340   37.2840 C   0  0  0  0  0  0  0  0  0  0  0  0
   39.1780   23.1400   38.4000 C   0  0  0  0  0  0  0  0  0  0  0  0
   37.8050   23.1960   38.2900 C   0  0  0  0  0  0  0  0  0  0  0  0
   37.2270   22.8550   37.1010 N   0  0  0  0  0  0  0  0  0  0  0  0
   37.9770   22.4640   36.0360 C   0  0  0  0  0  0  0  0  0  0  0  0
   39.3090   22.4060   36.1350 N   0  0  0  0  0  0  0  0  0  0  0  0
   37.3640   22.1110   34.8050 N   0  0  0  0  0  0  0  0  0  0  0  0
   37.9530   22.6530   33.7280 C   0  0  0  0  0  0  0  0  0  0  0  0
   37.4210   22.3650   32.4760 C   0  0  0  0  0  0  0  0  0  0  0  0
   36.3250   21.5390   32.4630 C   0  0  0  0  0  0  0  0  0  0  0  0
   35.6790   21.1590   31.2690 N   0  0  0  0  0  0  0  0  0  0  0  0
   35.7740   21.0230   33.5700 N   0  0  0  0  0  0  0  0  0  0  0  0
   36.2980   21.3090   34.7800 C   0  0  0  0  0  0  0  0  0  0  0  0
   35.8560   20.8780   35.8610 O   0  0  0  0  0  0  0  0  0  0  0  0
   37.9390   22.8650   31.2680 N   0  0  0  0  0  0  0  0  0  0  0  0
   37.5170   23.9910   30.4770 C   0  0  0  0  0  0  0  0  0  0  0  0
   38.7890   24.7600   30.1160 C   0  0  0  0  0  0  0  0  0  0  0  0
   39.5100   23.8920   29.0930 C   0  0  0  0  0  0  0  0  0  0  0  0
   39.1200   22.4350   29.2360 C   0  0  0  0  0  0  0  0  0  0  0  0
   39.0750   22.1410   30.7280 C   0  0  2  0  0  0  0  0  0  0  0  0
   39.0940   20.7470   31.0160 N   0  0  0  0  0  0  0  0  0  0  0  0
   39.6830   20.0700   32.0470 C   0  0  0  0  0  0  0  0  0  0  0  0
   39.4400   18.7170   31.9250 C   0  0  0  0  0  0  0  0  0  0  0  0
   38.7010   18.5730   30.8120 N   0  0  0  0  0  0  0  0  0  0  0  0
   38.5000   19.7900   30.2790 C   0  0  0  0  0  0  0  0  0  0  0  0
   41.0038   22.6822   37.3507 H   0  0  0  0  0  0  0  0  0  0  0  0
   39.6827   23.4076   39.3400 H   0  0  0  0  0  0  0  0  0  0  0  0
   37.1867   23.5095   39.1441 H   0  0  0  0  0  0  0  0  0  0  0  0
   38.8316   23.3065   33.8326 H   0  0  0  0  0  0  0  0  0  0  0  0
   34.8588   20.5369   31.3027 H   0  0  0  0  0  0  0  0  0  0  0  0
   36.0272   21.5034   30.3629 H   0  0  0  0  0  0  0  0  0  0  0  0
   37.0078   23.6467   29.5648 H   0  0  0  0  0  0  0  0  0  0  0  0
   36.8082   24.6256   31.0293 H   0  0  0  0  0  0  0  0  0  0  0  0
   38.5368   25.7384   29.6811 H   0  0  0  0  0  0  0  0  0  0  0  0
   39.4139   24.9549   31.0000 H   0  0  0  0  0  0  0  0  0  0  0  0
   40.5955   23.9888   29.2422 H   0  0  0  0  0  0  0  0  0  0  0  0
   39.2242   24.2311   28.0864 H   0  0  0  0  0  0  0  0  0  0  0  0
   38.1320   22.2606   28.7849 H   0  0  0  0  0  0  0  0  0  0  0  0
   39.8402   21.7797   28.7243 H   0  0  0  0  0  0  0  0  0  0  0  0
   39.9878   22.4952   31.2293 H   0  0  0  0  0  0  0  0  0  0  0  0
   40.2655   20.5355   32.8557 H   0  0  0  0  0  0  0  0  0  0  0  0
   39.7816   17.9192   32.6009 H   0  0  0  0  0  0  0  0  0  0  0  0
   37.9252   19.9794   29.3605 H   0  0  0  0  0  0  0  0  0  0  0  0
  1  2  2  0
  3  2  1  0
  4  3  2  0
  5  6  2  0
  5  4  1  0
  6  1  1  0
  7  5  1  0
  8  7  1  0
  9  8  2  0
 10  9  1  0
 10 12  2  0
 11 10  1  0
 12 13  1  0
 13  7  1  0
 13 14  2  0
 15  9  1  0
 16 15  1  0
 17 16  1  0
 18 19  1  0
 18 17  1  0
 19 20  1  0
 20 21  1  0
 20 15  1  0
 21 22  1  0
 23 22  2  0
 24 23  1  0
 25 24  2  0
 25 21  1  0
  1 26  1  0
  2 27  1  0
  3 28  1  0
  8 29  1  0
 11 30  1  0
 11 31  1  0
 16 32  1  0
 16 33  1  0
 17 34  1  0
 17 35  1  0
 18 36  1  0
 18 37  1  0
 19 38  1  0
 19 39  1  0
 20 40  1  1
 22 41  1  0
 23 42  1  0
 25 43  1  0
M  ISO  8  26  14  27  14  28  14  29  14  32  13  33  13  34  13  35  13
M  ISO  8  36  13  37  13  38  13  39  13  40  13  41  14  42  14  43  14
M  END
>  <minimizedAffinity>  (1) 
-5.113379

>  <minimizedRMSD>  (1) 
1.30271971

$$$$
