
     RDKit          3D

 48 51  0  0  1  0  0  0  0  0999 V2000
   42.8730   21.6590   36.4020 C   0  0  0  0  0  0  0  0  0  0  0  0
   42.8080   20.2940   36.6330 C   0  0  0  0  0  0  0  0  0  0  0  0
   43.8890   19.7810   35.9750 N   0  0  0  0  0  0  0  0  0  0  0  0
   44.5490   20.8510   35.3860 C   0  0  0  0  0  0  0  0  0  0  0  0
   43.9000   22.0290   35.6610 N   0  0  0  0  0  0  0  0  0  0  0  0
   39.9190   23.5680   35.9580 C   0  0  1  0  0  0  0  0  0  0  0  0
   41.3730   23.5470   35.8260 C   0  0  0  0  0  0  0  0  0  0  0  0
   41.8700   22.5800   36.9370 C   0  0  1  0  0  0  0  0  0  0  0  0
   40.6390   21.9740   37.5050 C   0  0  0  0  0  0  0  0  0  0  0  0
   39.7430   23.2260   37.4800 C   0  0  0  0  0  0  0  0  0  0  0  0
   37.9030   25.0410   35.8110 C   0  0  0  0  0  0  0  0  0  0  0  0
   39.2460   24.7990   35.6310 C   0  0  0  0  0  0  0  0  0  0  0  0
   40.0180   25.8450   35.0560 C   0  0  0  0  0  0  0  0  0  0  0  0
   39.4370   27.0270   34.7060 N   0  0  0  0  0  0  0  0  0  0  0  0
   38.0900   27.2110   34.9100 C   0  0  0  0  0  0  0  0  0  0  0  0
   37.3460   26.2070   35.4620 N   0  0  0  0  0  0  0  0  0  0  0  0
   44.3860   23.2570   35.1610 C   0  0  2  0  0  0  0  0  0  0  0  0
   44.4050   23.2170   33.6200 C   0  0  0  0  0  0  0  0  0  0  0  0
   45.8030   23.4720   35.5790 C   0  0  0  0  0  0  0  0  0  0  0  0
   45.8410   24.2640   36.8630 C   0  0  0  0  0  0  0  0  0  0  0  0
   44.7270   25.0360   37.1480 C   0  0  0  0  0  0  0  0  0  0  0  0
   44.6910   25.7900   38.3050 C   0  0  0  0  0  0  0  0  0  0  0  0
   45.7910   25.7300   39.1320 C   0  0  0  0  0  0  0  0  0  0  0  0
   46.9050   24.9570   38.8440 C   0  0  0  0  0  0  0  0  0  0  0  0
   46.8790   24.2500   37.7080 N   0  0  0  0  0  0  0  0  0  0  0  0
   42.0536   19.7459   37.2165 H   0  0  0  0  0  0  0  0  0  0  0  0
   45.4649   20.7666   34.7827 H   0  0  0  0  0  0  0  0  0  0  0  0
   39.4576   22.8786   35.2356 H   0  0  0  0  0  0  0  0  0  0  0  0
   41.6647   23.1754   34.8326 H   0  0  0  0  0  0  0  0  0  0  0  0
   41.8095   24.5513   35.9301 H   0  0  0  0  0  0  0  0  0  0  0  0
   42.4149   23.0689   37.7581 H   0  0  0  0  0  0  0  0  0  0  0  0
   40.2428   21.1669   36.8713 H   0  0  0  0  0  0  0  0  0  0  0  0
   40.7526   21.4847   38.4836 H   0  0  0  0  0  0  0  0  0  0  0  0
   40.1200   24.0247   38.1357 H   0  0  0  0  0  0  0  0  0  0  0  0
   38.7103   23.0956   37.8358 H   0  0  0  0  0  0  0  0  0  0  0  0
   37.2714   24.2562   36.2529 H   0  0  0  0  0  0  0  0  0  0  0  0
   41.0958   25.6988   34.8918 H   0  0  0  0  0  0  0  0  0  0  0  0
   37.6135   28.1621   34.6301 H   0  0  0  0  0  0  0  0  0  0  0  0
   43.7324   24.0527   35.5480 H   0  0  0  0  0  0  0  0  0  0  0  0
   44.8543   22.2711   33.2833 H   0  0  0  0  0  0  0  0  0  0  0  0
   43.3759   23.2903   33.2386 H   0  0  0  0  0  0  0  0  0  0  0  0
   44.9984   24.0610   33.2386 H   0  0  0  0  0  0  0  0  0  0  0  0
   46.2896   22.4980   35.7358 H   0  0  0  0  0  0  0  0  0  0  0  0
   46.3340   24.0283   34.7925 H   0  0  0  0  0  0  0  0  0  0  0  0
   43.8730   25.0487   36.4548 H   0  0  0  0  0  0  0  0  0  0  0  0
   43.8196   26.4128   38.5556 H   0  0  0  0  0  0  0  0  0  0  0  0
   45.7851   26.3204   40.0601 H   0  0  0  0  0  0  0  0  0  0  0  0
   47.7725   24.9261   39.5197 H   0  0  0  0  0  0  0  0  0  0  0  0
  1  2  2  0
  1  8  1  0
  3  2  1  0
  4  5  1  0
  4  3  2  0
  5  1  1  0
  6 10  1  0
  7  6  1  0
  7  8  1  0
  8  9  1  0
 10  9  1  0
 12 11  2  0
 12  6  1  0
 13 12  1  0
 14 15  1  0
 14 13  2  0
 15 16  2  0
 16 11  1  0
 17 19  1  0
 17  5  1  0
 18 17  1  0
 19 20  1  0
 20 21  2  0
 20 25  1  0
 21 22  1  0
 22 23  2  0
 24 23  1  0
 25 24  2  0
  2 26  1  0
  4 27  1  0
  6 28  1  6
  7 29  1  0
  7 30  1  0
  8 31  1  1
  9 32  1  0
  9 33  1  0
 10 34  1  0
 10 35  1  0
 11 36  1  0
 13 37  1  0
 15 38  1  0
 17 39  1  6
 18 40  1  0
 18 41  1  0
 18 42  1  0
 19 43  1  0
 19 44  1  0
 21 45  1  0
 22 46  1  0
 23 47  1  0
 24 48  1  0
M  ISO  8  26  14  27  14  28  13  29  13  30  13  31  13  32  13  33  13
M  ISO  8  34  13  35  13  36  14  37  14  38  14  39   8  40   8  41   8
M  ISO  7  42   8  43   8  44   8  45  14  46  14  47  14  48  14
M  END
>  <minimizedAffinity>  (1) 
-5.46953869

>  <minimizedRMSD>  (1) 
1.45784831

$$$$
