
     RDKit          3D

 47 50  0  0  1  0  0  0  0  0999 V2000
   39.8570   24.1350   35.6670 C   0  0  0  0  0  0  0  0  0  0  0  0
   38.6630   24.1360   36.3720 C   0  0  0  0  0  0  0  0  0  0  0  0
   38.8060   23.1460   37.3040 N   0  0  0  0  0  0  0  0  0  0  0  0
   40.0580   22.6000   37.1250 C   0  0  0  0  0  0  0  0  0  0  0  0
   40.7220   23.2280   36.0880 N   0  0  0  0  0  0  0  0  0  0  0  0
   38.7570   26.7580   33.5610 C   0  0  1  0  0  0  0  0  0  0  0  0
   38.7970   25.3120   33.7650 C   0  0  0  0  0  0  0  0  0  0  0  0
   40.1040   25.0490   34.5610 C   0  0  1  0  0  0  0  0  0  0  0  0
   40.6020   26.4030   34.9270 C   0  0  0  0  0  0  0  0  0  0  0  0
   40.2900   27.1080   33.5830 C   0  0  0  0  0  0  0  0  0  0  0  0
   38.8230   27.6240   31.2070 C   0  0  0  0  0  0  0  0  0  0  0  0
   38.1430   27.2310   32.3390 C   0  0  0  0  0  0  0  0  0  0  0  0
   36.7270   27.3160   32.3000 C   0  0  0  0  0  0  0  0  0  0  0  0
   36.0930   27.7710   31.1790 N   0  0  0  0  0  0  0  0  0  0  0  0
   36.8280   28.1420   30.0940 C   0  0  0  0  0  0  0  0  0  0  0  0
   38.1900   28.0610   30.1300 N   0  0  0  0  0  0  0  0  0  0  0  0
   42.0250   22.8260   35.7180 C   0  0  2  0  0  0  0  0  0  0  0  0
   42.0900   21.2890   35.6490 C   0  0  0  0  0  0  0  0  0  0  0  0
   43.0050   23.2340   36.7920 C   0  0  0  0  0  0  0  0  0  0  0  0
   43.8530   24.3850   36.3400 C   0  0  0  0  0  0  0  0  0  0  0  0
   44.7070   24.8250   37.3350 C   0  0  0  0  0  0  0  0  0  0  0  0
   45.5720   25.8960   37.0810 C   0  0  0  0  0  0  0  0  0  0  0  0
   45.5920   26.5190   35.8690 N   0  0  0  0  0  0  0  0  0  0  0  0
   44.7450   26.0560   34.9380 C   0  0  0  0  0  0  0  0  0  0  0  0
   43.9240   25.0440   35.1680 N   0  0  0  0  0  0  0  0  0  0  0  0
   37.7922   24.7896   36.2158 H   0  0  0  0  0  0  0  0  0  0  0  0
   40.4727   21.7768   37.7253 H   0  0  0  0  0  0  0  0  0  0  0  0
   38.1230   27.2412   34.3190 H   0  0  0  0  0  0  0  0  0  0  0  0
   37.9210   24.9794   34.3411 H   0  0  0  0  0  0  0  0  0  0  0  0
   38.7779   24.7618   32.8127 H   0  0  0  0  0  0  0  0  0  0  0  0
   40.8867   24.5271   33.9909 H   0  0  0  0  0  0  0  0  0  0  0  0
   40.0440   26.8405   35.7680 H   0  0  0  0  0  0  0  0  0  0  0  0
   41.6438   26.4599   35.2753 H   0  0  0  0  0  0  0  0  0  0  0  0
   40.8377   26.6687   32.7362 H   0  0  0  0  0  0  0  0  0  0  0  0
   40.5619   28.1707   33.5005 H   0  0  0  0  0  0  0  0  0  0  0  0
   39.9218   27.5732   31.1981 H   0  0  0  0  0  0  0  0  0  0  0  0
   36.1366   27.0137   33.1775 H   0  0  0  0  0  0  0  0  0  0  0  0
   36.3233   28.5074   29.1875 H   0  0  0  0  0  0  0  0  0  0  0  0
   42.2660   23.2886   34.7495 H   0  0  0  0  0  0  0  0  0  0  0  0
   42.1074   20.8766   36.6686 H   0  0  0  0  0  0  0  0  0  0  0  0
   41.2072   20.9083   35.1145 H   0  0  0  0  0  0  0  0  0  0  0  0
   43.0018   20.9842   35.1145 H   0  0  0  0  0  0  0  0  0  0  0  0
   42.4478   23.5303   37.6930 H   0  0  0  0  0  0  0  0  0  0  0  0
   43.6627   22.3791   37.0078 H   0  0  0  0  0  0  0  0  0  0  0  0
   44.7065   24.3361   38.3204 H   0  0  0  0  0  0  0  0  0  0  0  0
   46.2493   26.2418   37.8758 H   0  0  0  0  0  0  0  0  0  0  0  0
   44.7323   26.5346   33.9477 H   0  0  0  0  0  0  0  0  0  0  0  0
  1  5  1  0
  1  2  2  0
  2  3  1  0
  4  3  2  0
  5  4  1  0
  6 10  1  0
  6  7  1  0
  7  8  1  0
  8  9  1  0
  8  1  1  0
 10  9  1  0
 11 12  2  0
 12  6  1  0
 13 12  1  0
 14 13  2  0
 15 16  2  0
 15 14  1  0
 16 11  1  0
 17  5  1  0
 17 19  1  0
 18 17  1  0
 20 19  1  0
 20 21  2  0
 22 21  1  0
 23 22  2  0
 24 25  2  0
 24 23  1  0
 25 20  1  0
  2 26  1  0
  4 27  1  0
  6 28  1  1
  7 29  1  0
  7 30  1  0
  8 31  1  6
  9 32  1  0
  9 33  1  0
 10 34  1  0
 10 35  1  0
 11 36  1  0
 13 37  1  0
 15 38  1  0
 17 39  1  6
 18 40  1  0
 18 41  1  0
 18 42  1  0
 19 43  1  0
 19 44  1  0
 21 45  1  0
 22 46  1  0
 24 47  1  0
M  ISO  8  26  14  27  14  28  13  29  13  30  13  31  13  32  13  33  13
M  ISO  8  34  13  35  13  36  14  37  14  38  14  39   8  40   8  41   8
M  ISO  6  42   8  43   8  44   8  45  14  46  14  47  14
M  END
>  <minimizedAffinity>  (1) 
-5.23098516

>  <minimizedRMSD>  (1) 
4.18022108

$$$$
