
     RDKit          3D

 51 54  0  0  1  0  0  0  0  0999 V2000
   39.8570   23.6070   35.8950 C   0  0  1  0  0  0  0  0  0  0  0  0
   41.3170   23.6040   35.8280 C   0  0  0  0  0  0  0  0  0  0  0  0
   41.7900   22.6400   36.9450 C   0  0  1  0  0  0  0  0  0  0  0  0
   40.5210   21.9880   37.4280 C   0  0  0  0  0  0  0  0  0  0  0  0
   39.6190   23.2450   37.4040 C   0  0  0  0  0  0  0  0  0  0  0  0
   37.8360   25.0710   35.6710 C   0  0  0  0  0  0  0  0  0  0  0  0
   39.1960   24.8380   35.5420 C   0  0  0  0  0  0  0  0  0  0  0  0
   39.9670   25.8770   35.0050 C   0  0  0  0  0  0  0  0  0  0  0  0
   39.3960   27.0620   34.6270 N   0  0  0  0  0  0  0  0  0  0  0  0
   38.0370   27.2280   34.7820 C   0  0  0  0  0  0  0  0  0  0  0  0
   37.2850   26.2180   35.3050 N   0  0  0  0  0  0  0  0  0  0  0  0
   42.8080   21.7330   36.4590 C   0  0  0  0  0  0  0  0  0  0  0  0
   42.7070   20.3550   36.5660 C   0  0  0  0  0  0  0  0  0  0  0  0
   43.8440   19.8660   35.9770 N   0  0  0  0  0  0  0  0  0  0  0  0
   44.5670   20.9480   35.5490 C   0  0  0  0  0  0  0  0  0  0  0  0
   43.9090   22.1320   35.8560 N   0  0  0  0  0  0  0  0  0  0  0  0
   44.4840   23.3760   35.5090 C   0  0  2  0  0  0  0  0  0  0  0  0
   45.6500   23.1550   34.5150 C   0  0  0  0  0  0  0  0  0  0  0  0
   45.0850   24.0330   36.6890 C   0  0  0  0  0  0  0  0  0  0  0  0
   45.1650   25.4280   36.8760 N   0  0  0  0  0  0  0  0  0  0  0  0
   44.8300   25.7880   38.2670 C   0  0  0  0  0  0  0  0  0  0  0  0
   45.9790   25.3840   39.1310 C   0  0  0  0  0  0  0  0  0  0  0  0
   47.1510   25.4010   38.2010 C   0  0  0  0  0  0  0  0  0  0  0  0
   46.5810   25.8750   36.8730 C   0  0  0  0  0  0  0  0  0  0  0  0
   39.4266   22.9187   35.1527 H   0  0  0  0  0  0  0  0  0  0  0  0
   41.6544   23.2452   34.8444 H   0  0  0  0  0  0  0  0  0  0  0  0
   41.7302   24.6143   35.9640 H   0  0  0  0  0  0  0  0  0  0  0  0
   42.2969   23.1387   37.7843 H   0  0  0  0  0  0  0  0  0  0  0  0
   40.1657   21.2056   36.7412 H   0  0  0  0  0  0  0  0  0  0  0  0
   40.5844   21.4544   38.3878 H   0  0  0  0  0  0  0  0  0  0  0  0
   39.9712   24.0312   38.0880 H   0  0  0  0  0  0  0  0  0  0  0  0
   38.5750   23.1134   37.7246 H   0  0  0  0  0  0  0  0  0  0  0  0
   37.1959   24.2803   36.0895 H   0  0  0  0  0  0  0  0  0  0  0  0
   41.0515   25.7379   34.8849 H   0  0  0  0  0  0  0  0  0  0  0  0
   37.5597   28.1733   34.4844 H   0  0  0  0  0  0  0  0  0  0  0  0
   41.8905   19.7781   37.0247 H   0  0  0  0  0  0  0  0  0  0  0  0
   45.5364   20.8874   35.0327 H   0  0  0  0  0  0  0  0  0  0  0  0
   43.6805   23.9930   35.0805 H   0  0  0  0  0  0  0  0  0  0  0  0
   46.5804   22.9786   35.0746 H   0  0  0  0  0  0  0  0  0  0  0  0
   45.4318   22.2822   33.8820 H   0  0  0  0  0  0  0  0  0  0  0  0
   45.7663   24.0471   33.8820 H   0  0  0  0  0  0  0  0  0  0  0  0
   44.5261   23.6508   37.5559 H   0  0  0  0  0  0  0  0  0  0  0  0
   46.1467   23.7884   36.5374 H   0  0  0  0  0  0  0  0  0  0  0  0
   44.6670   26.8731   38.3440 H   0  0  0  0  0  0  0  0  0  0  0  0
   43.9101   25.2762   38.5860 H   0  0  0  0  0  0  0  0  0  0  0  0
   46.1214   26.1005   39.9534 H   0  0  0  0  0  0  0  0  0  0  0  0
   45.8285   24.4035   39.6064 H   0  0  0  0  0  0  0  0  0  0  0  0
   47.9232   26.0961   38.5623 H   0  0  0  0  0  0  0  0  0  0  0  0
   47.6331   24.4156   38.1198 H   0  0  0  0  0  0  0  0  0  0  0  0
   47.1276   25.4197   36.0340 H   0  0  0  0  0  0  0  0  0  0  0  0
   46.6680   26.9650   36.7536 H   0  0  0  0  0  0  0  0  0  0  0  0
  1  5  1  0
  2  1  1  0
  2  3  1  0
  3  4  1  0
  5  4  1  0
  7  6  2  0
  7  1  1  0
  8  7  1  0
  9 10  1  0
  9  8  2  0
 10 11  2  0
 11  6  1  0
 12 13  2  0
 12  3  1  0
 14 13  1  0
 15 16  1  0
 15 14  2  0
 16 12  1  0
 17 16  1  0
 17 19  1  0
 18 17  1  0
 19 20  1  0
 20 21  1  0
 21 22  1  0
 23 22  1  0
 24 20  1  0
 24 23  1  0
  1 25  1  6
  2 26  1  0
  2 27  1  0
  3 28  1  1
  4 29  1  0
  4 30  1  0
  5 31  1  0
  5 32  1  0
  6 33  1  0
  8 34  1  0
 10 35  1  0
 13 36  1  0
 15 37  1  0
 17 38  1  6
 18 39  1  0
 18 40  1  0
 18 41  1  0
 19 42  1  0
 19 43  1  0
 21 44  1  0
 21 45  1  0
 22 46  1  0
 22 47  1  0
 23 48  1  0
 23 49  1  0
 24 50  1  0
 24 51  1  0
M  ISO  8  25  13  26  13  27  13  28  13  29  13  30  13  31  13  32  13
M  ISO  8  33  14  34  14  35  14  36  14  37  14  38   8  39   8  40   8
M  ISO  8  41   8  42   8  43   8  44  13  45  13  46  13  47  13  48  13
M  ISO  3  49  13  50  13  51  13
M  END
>  <minimizedAffinity>  (1) 
-5.12794399

>  <minimizedRMSD>  (1) 
0.995234907

$$$$
