
     RDKit          3D

 50 53  0  0  1  0  0  0  0  0999 V2000
   41.1360   22.8030   36.3840 C   0  0  0  0  0  0  0  0  0  0  0  0
   40.8090   21.8730   37.3590 C   0  0  0  0  0  0  0  0  0  0  0  0
   41.9490   21.1190   37.5210 N   0  0  0  0  0  0  0  0  0  0  0  0
   42.8800   21.6240   36.6560 C   0  0  0  0  0  0  0  0  0  0  0  0
   42.3740   22.6840   35.9390 N   0  0  0  0  0  0  0  0  0  0  0  0
   38.2180   23.5800   34.5390 C   0  0  1  0  0  0  0  0  0  0  0  0
   39.6660   23.4030   34.4840 C   0  0  0  0  0  0  0  0  0  0  0  0
   40.1780   23.7960   35.9010 C   0  0  1  0  0  0  0  0  0  0  0  0
   38.9470   23.9740   36.7140 C   0  0  0  0  0  0  0  0  0  0  0  0
   38.0920   24.6910   35.6430 C   0  0  0  0  0  0  0  0  0  0  0  0
   37.3310   25.2970   32.9450 C   0  0  0  0  0  0  0  0  0  0  0  0
   37.5630   23.9870   33.3220 C   0  0  0  0  0  0  0  0  0  0  0  0
   37.0970   22.9720   32.4480 C   0  0  0  0  0  0  0  0  0  0  0  0
   36.4500   23.2930   31.2890 N   0  0  0  0  0  0  0  0  0  0  0  0
   36.2490   24.6080   30.9690 C   0  0  0  0  0  0  0  0  0  0  0  0
   36.6970   25.5970   31.8100 N   0  0  0  0  0  0  0  0  0  0  0  0
   43.1690   23.3560   34.9830 C   0  0  2  0  0  0  0  0  0  0  0  0
   43.5440   22.3970   33.8420 C   0  0  0  0  0  0  0  0  0  0  0  0
   44.4810   23.7590   35.6040 C   0  0  0  0  0  0  0  0  0  0  0  0
   44.8350   25.1360   35.2430 N   0  0  0  0  0  0  0  0  0  0  0  0
   44.0150   25.9010   34.4710 C   0  0  0  0  0  0  0  0  0  0  0  0
   44.3230   27.1980   34.1160 C   0  0  0  0  0  0  0  0  0  0  0  0
   45.5040   27.7600   34.5530 C   0  0  0  0  0  0  0  0  0  0  0  0
   45.7810   29.1000   34.1620 N   0  0  0  0  0  0  0  0  0  0  0  0
   46.3150   26.9810   35.3260 N   0  0  0  0  0  0  0  0  0  0  0  0
   45.9750   25.7240   35.6460 C   0  0  0  0  0  0  0  0  0  0  0  0
   46.7860   25.0820   36.3630 O   0  0  0  0  0  0  0  0  0  0  0  0
   39.8501   21.7622   37.8866 H   0  0  0  0  0  0  0  0  0  0  0  0
   43.9024   21.2330   36.5473 H   0  0  0  0  0  0  0  0  0  0  0  0
   37.7140   22.6226   34.7372 H   0  0  0  0  0  0  0  0  0  0  0  0
   39.9186   22.3563   34.2589 H   0  0  0  0  0  0  0  0  0  0  0  0
   40.1261   24.0164   33.6953 H   0  0  0  0  0  0  0  0  0  0  0  0
   40.7561   24.7311   35.9384 H   0  0  0  0  0  0  0  0  0  0  0  0
   38.5089   23.0139   37.0243 H   0  0  0  0  0  0  0  0  0  0  0  0
   39.0696   24.5026   37.6708 H   0  0  0  0  0  0  0  0  0  0  0  0
   38.5270   25.6510   35.3281 H   0  0  0  0  0  0  0  0  0  0  0  0
   37.0737   24.9860   35.9365 H   0  0  0  0  0  0  0  0  0  0  0  0
   37.6778   26.1121   33.5971 H   0  0  0  0  0  0  0  0  0  0  0  0
   37.2584   21.9150   32.7064 H   0  0  0  0  0  0  0  0  0  0  0  0
   35.7281   24.8733   30.0372 H   0  0  0  0  0  0  0  0  0  0  0  0
   42.5941   24.2218   34.6226 H   0  0  0  0  0  0  0  0  0  0  0  0
   43.9139   21.4512   34.2646 H   0  0  0  0  0  0  0  0  0  0  0  0
   42.6568   22.1996   33.2224 H   0  0  0  0  0  0  0  0  0  0  0  0
   44.3297   22.8538   33.2224 H   0  0  0  0  0  0  0  0  0  0  0  0
   44.3985   23.6844   36.6984 H   0  0  0  0  0  0  0  0  0  0  0  0
   45.2664   23.0864   35.2288 H   0  0  0  0  0  0  0  0  0  0  0  0
   43.0685   25.4673   34.1159 H   0  0  0  0  0  0  0  0  0  0  0  0
   43.6315   27.7797   33.4888 H   0  0  0  0  0  0  0  0  0  0  0  0
   46.6525   29.5560   34.4677 H   0  0  0  0  0  0  0  0  0  0  0  0
   45.1099   29.6139   33.5734 H   0  0  0  0  0  0  0  0  0  0  0  0
  1  2  2  0
  2  3  1  0
  4  3  2  0
  5  1  1  0
  5  4  1  0
  6 10  1  0
  7  6  1  0
  7  8  1  0
  8  1  1  0
  8  9  1  0
 10  9  1  0
 11 12  2  0
 12  6  1  0
 13 12  1  0
 14 13  2  0
 15 14  1  0
 15 16  2  0
 16 11  1  0
 17 19  1  0
 17  5  1  0
 18 17  1  0
 20 19  1  0
 20 26  1  0
 21 20  1  0
 22 21  2  0
 22 23  1  0
 23 25  2  0
 24 23  1  0
 25 26  1  0
 26 27  2  0
  2 28  1  0
  4 29  1  0
  6 30  1  1
  7 31  1  0
  7 32  1  0
  8 33  1  6
  9 34  1  0
  9 35  1  0
 10 36  1  0
 10 37  1  0
 11 38  1  0
 13 39  1  0
 15 40  1  0
 17 41  1  6
 18 42  1  0
 18 43  1  0
 18 44  1  0
 19 45  1  0
 19 46  1  0
 21 47  1  0
 22 48  1  0
 24 49  1  0
 24 50  1  0
M  ISO  8  28  14  29  14  30  13  31  13  32  13  33  13  34  13  35  13
M  ISO  8  36  13  37  13  38  14  39  14  40  14  41   8  42   8  43   8
M  ISO  5  44   8  45   8  46   8  47  14  48  14
M  END
>  <minimizedAffinity>  (1) 
-5.01713753

>  <minimizedRMSD>  (1) 
2.87794685

$$$$
