
     RDKit          3D

 45 48  0  0  1  0  0  0  0  0999 V2000
   40.0700   23.5040   35.9430 C   0  0  1  0  0  0  0  0  0  0  0  0
   41.5260   23.5370   35.8340 C   0  0  0  0  0  0  0  0  0  0  0  0
   42.0400   22.5610   36.9300 C   0  0  1  0  0  0  0  0  0  0  0  0
   40.8170   21.8990   37.4600 C   0  0  0  0  0  0  0  0  0  0  0  0
   39.8870   23.1300   37.4580 C   0  0  0  0  0  0  0  0  0  0  0  0
   38.0030   24.9050   35.7960 C   0  0  0  0  0  0  0  0  0  0  0  0
   39.3570   24.7150   35.6260 C   0  0  0  0  0  0  0  0  0  0  0  0
   40.0990   25.7950   35.0750 C   0  0  0  0  0  0  0  0  0  0  0  0
   39.4780   26.9600   34.7370 N   0  0  0  0  0  0  0  0  0  0  0  0
   38.1300   27.0910   34.9290 C   0  0  0  0  0  0  0  0  0  0  0  0
   37.4060   26.0520   35.4610 N   0  0  0  0  0  0  0  0  0  0  0  0
   43.0820   21.6890   36.3940 C   0  0  0  0  0  0  0  0  0  0  0  0
   42.9690   20.3080   36.4310 C   0  0  0  0  0  0  0  0  0  0  0  0
   44.1110   19.8530   35.8350 N   0  0  0  0  0  0  0  0  0  0  0  0
   44.8500   20.9700   35.4700 C   0  0  0  0  0  0  0  0  0  0  0  0
   44.1930   22.1190   35.8260 N   0  0  0  0  0  0  0  0  0  0  0  0
   44.7500   23.3870   35.5500 C   0  0  2  0  0  0  0  0  0  0  0  0
   45.2180   23.4340   34.0820 C   0  0  0  0  0  0  0  0  0  0  0  0
   45.9810   23.6110   36.3740 C   0  0  0  0  0  0  0  0  0  0  0  0
   45.7260   24.5850   37.4510 N   0  0  0  0  0  0  0  0  0  0  0  0
   46.5830   24.9730   38.4300 C   0  0  0  0  0  0  0  0  0  0  0  0
   45.9680   25.8810   39.2160 N   0  0  0  0  0  0  0  0  0  0  0  0
   44.7410   26.0630   38.7400 C   0  0  0  0  0  0  0  0  0  0  0  0
   44.5910   25.2620   37.6490 N   0  0  0  0  0  0  0  0  0  0  0  0
   39.6433   22.8121   35.2019 H   0  0  0  0  0  0  0  0  0  0  0  0
   41.8458   23.2000   34.8369 H   0  0  0  0  0  0  0  0  0  0  0  0
   41.9251   24.5531   35.9689 H   0  0  0  0  0  0  0  0  0  0  0  0
   42.5558   23.0477   37.7709 H   0  0  0  0  0  0  0  0  0  0  0  0
   40.4537   21.1015   36.7951 H   0  0  0  0  0  0  0  0  0  0  0  0
   40.9285   21.3803   38.4236 H   0  0  0  0  0  0  0  0  0  0  0  0
   40.2383   23.9242   38.1331 H   0  0  0  0  0  0  0  0  0  0  0  0
   38.8556   22.9690   37.8048 H   0  0  0  0  0  0  0  0  0  0  0  0
   37.3972   24.0901   36.2190 H   0  0  0  0  0  0  0  0  0  0  0  0
   41.1829   25.6896   34.9202 H   0  0  0  0  0  0  0  0  0  0  0  0
   37.6251   28.0297   34.6570 H   0  0  0  0  0  0  0  0  0  0  0  0
   42.1439   19.7115   36.8474 H   0  0  0  0  0  0  0  0  0  0  0  0
   45.8269   20.9375   34.9653 H   0  0  0  0  0  0  0  0  0  0  0  0
   43.9808   24.1426   35.7677 H   0  0  0  0  0  0  0  0  0  0  0  0
   46.3120   23.5439   34.0493 H   0  0  0  0  0  0  0  0  0  0  0  0
   44.9277   22.5022   33.5746 H   0  0  0  0  0  0  0  0  0  0  0  0
   44.7482   24.2895   33.5746 H   0  0  0  0  0  0  0  0  0  0  0  0
   46.2942   22.6554   36.8199 H   0  0  0  0  0  0  0  0  0  0  0  0
   46.7718   24.0093   35.7214 H   0  0  0  0  0  0  0  0  0  0  0  0
   47.6118   24.6065   38.5611 H   0  0  0  0  0  0  0  0  0  0  0  0
   43.9804   26.7412   39.1542 H   0  0  0  0  0  0  0  0  0  0  0  0
  1  5  1  0
  2  1  1  0
  2  3  1  0
  3  4  1  0
  5  4  1  0
  7  6  2  0
  7  1  1  0
  8  7  1  0
  9 10  1  0
  9  8  2  0
 10 11  2  0
 11  6  1  0
 12 13  2  0
 12  3  1  0
 14 13  1  0
 15 16  1  0
 15 14  2  0
 16 12  1  0
 17 16  1  0
 17 19  1  0
 18 17  1  0
 19 20  1  0
 20 24  1  0
 20 21  1  0
 21 22  2  0
 23 22  1  0
 24 23  2  0
  1 25  1  6
  2 26  1  0
  2 27  1  0
  3 28  1  1
  4 29  1  0
  4 30  1  0
  5 31  1  0
  5 32  1  0
  6 33  1  0
  8 34  1  0
 10 35  1  0
 13 36  1  0
 15 37  1  0
 17 38  1  6
 18 39  1  0
 18 40  1  0
 18 41  1  0
 19 42  1  0
 19 43  1  0
 21 44  1  0
 23 45  1  0
M  ISO  8  25  13  26  13  27  13  28  13  29  13  30  13  31  13  32  13
M  ISO  8  33  14  34  14  35  14  36  14  37  14  38   8  39   8  40   8
M  ISO  5  41   8  42   8  43   8  44  14  45  14
M  END
>  <minimizedAffinity>  (1) 
-5.01315451

>  <minimizedRMSD>  (1) 
1.27106166

$$$$
