
     RDKit          3D

 46 49  0  0  1  0  0  0  0  0999 V2000
   40.0600   23.4930   35.9430 C   0  0  1  0  0  0  0  0  0  0  0  0
   41.5130   23.5310   35.8080 C   0  0  0  0  0  0  0  0  0  0  0  0
   42.0500   22.5740   36.9100 C   0  0  1  0  0  0  0  0  0  0  0  0
   40.8420   21.9000   37.4620 C   0  0  0  0  0  0  0  0  0  0  0  0
   39.8980   23.1210   37.4560 C   0  0  0  0  0  0  0  0  0  0  0  0
   37.9890   24.8840   35.8100 C   0  0  0  0  0  0  0  0  0  0  0  0
   39.3400   24.7010   35.6320 C   0  0  0  0  0  0  0  0  0  0  0  0
   40.0700   25.7820   35.0690 C   0  0  0  0  0  0  0  0  0  0  0  0
   39.4420   26.9400   34.7280 N   0  0  0  0  0  0  0  0  0  0  0  0
   38.0860   27.0680   34.9280 C   0  0  0  0  0  0  0  0  0  0  0  0
   37.3770   26.0230   35.4720 N   0  0  0  0  0  0  0  0  0  0  0  0
   43.0860   21.6990   36.3610 C   0  0  0  0  0  0  0  0  0  0  0  0
   42.9810   20.3170   36.3920 C   0  0  0  0  0  0  0  0  0  0  0  0
   44.1200   19.8670   35.7810 N   0  0  0  0  0  0  0  0  0  0  0  0
   44.8540   20.9860   35.4130 C   0  0  0  0  0  0  0  0  0  0  0  0
   44.1910   22.1330   35.7850 N   0  0  0  0  0  0  0  0  0  0  0  0
   44.7510   23.3970   35.5030 C   0  0  2  0  0  0  0  0  0  0  0  0
   45.2490   23.4470   34.0490 C   0  0  0  0  0  0  0  0  0  0  0  0
   45.9840   23.6170   36.3410 C   0  0  0  0  0  0  0  0  0  0  0  0
   45.6860   24.5960   37.4090 N   0  0  0  0  0  0  0  0  0  0  0  0
   44.5930   25.3520   37.6220 C   0  0  0  0  0  0  0  0  0  0  0  0
   44.7970   26.1110   38.7560 C   0  0  0  0  0  0  0  0  0  0  0  0
   46.0290   25.8140   39.2410 N   0  0  0  0  0  0  0  0  0  0  0  0
   46.5600   24.8870   38.4070 C   0  0  0  0  0  0  0  0  0  0  0  0
   39.6242   22.7958   35.2122 H   0  0  0  0  0  0  0  0  0  0  0  0
   41.8171   23.1802   34.8108 H   0  0  0  0  0  0  0  0  0  0  0  0
   41.9098   24.5508   35.9200 H   0  0  0  0  0  0  0  0  0  0  0  0
   42.5700   23.0790   37.7374 H   0  0  0  0  0  0  0  0  0  0  0  0
   40.4814   21.0905   36.8103 H   0  0  0  0  0  0  0  0  0  0  0  0
   40.9704   21.3921   38.4292 H   0  0  0  0  0  0  0  0  0  0  0  0
   40.2452   23.9227   38.1244 H   0  0  0  0  0  0  0  0  0  0  0  0
   38.8709   22.9465   37.8091 H   0  0  0  0  0  0  0  0  0  0  0  0
   37.3933   24.0675   36.2441 H   0  0  0  0  0  0  0  0  0  0  0  0
   41.1534   25.6819   34.9072 H   0  0  0  0  0  0  0  0  0  0  0  0
   37.5724   28.0014   34.6541 H   0  0  0  0  0  0  0  0  0  0  0  0
   42.1629   19.7151   36.8144 H   0  0  0  0  0  0  0  0  0  0  0  0
   45.8257   20.9598   34.8981 H   0  0  0  0  0  0  0  0  0  0  0  0
   43.9715   24.1474   35.7013 H   0  0  0  0  0  0  0  0  0  0  0  0
   46.3435   23.5569   34.0399 H   0  0  0  0  0  0  0  0  0  0  0  0
   44.9696   22.5163   33.5335 H   0  0  0  0  0  0  0  0  0  0  0  0
   44.7902   24.3036   33.5335 H   0  0  0  0  0  0  0  0  0  0  0  0
   46.2946   22.6638   36.7936 H   0  0  0  0  0  0  0  0  0  0  0  0
   46.7950   24.0028   35.7058 H   0  0  0  0  0  0  0  0  0  0  0  0
   43.6882   25.3629   36.9965 H   0  0  0  0  0  0  0  0  0  0  0  0
   44.0865   26.8298   39.1902 H   0  0  0  0  0  0  0  0  0  0  0  0
   47.5562   24.4350   38.5220 H   0  0  0  0  0  0  0  0  0  0  0  0
  1  5  1  0
  2  1  1  0
  2  3  1  0
  3  4  1  0
  5  4  1  0
  7  6  2  0
  7  1  1  0
  8  7  1  0
  9 10  1  0
  9  8  2  0
 10 11  2  0
 11  6  1  0
 12 13  2  0
 12  3  1  0
 14 13  1  0
 15 14  2  0
 15 16  1  0
 16 12  1  0
 17 16  1  0
 17 19  1  0
 18 17  1  0
 19 20  1  0
 20 21  1  0
 20 24  1  0
 21 22  2  0
 22 23  1  0
 24 23  2  0
  1 25  1  6
  2 26  1  0
  2 27  1  0
  3 28  1  1
  4 29  1  0
  4 30  1  0
  5 31  1  0
  5 32  1  0
  6 33  1  0
  8 34  1  0
 10 35  1  0
 13 36  1  0
 15 37  1  0
 17 38  1  6
 18 39  1  0
 18 40  1  0
 18 41  1  0
 19 42  1  0
 19 43  1  0
 21 44  1  0
 22 45  1  0
 24 46  1  0
M  ISO  8  25  13  26  13  27  13  28  13  29  13  30  13  31  13  32  13
M  ISO  8  33  14  34  14  35  14  36  14  37  14  38   8  39   8  40   8
M  ISO  6  41   8  42   8  43   8  44  14  45  14  46  14
M  END
>  <minimizedAffinity>  (1) 
-4.96396971

>  <minimizedRMSD>  (1) 
1.3006531

$$$$
