
     RDKit          3D

 49 52  0  0  1  0  0  0  0  0999 V2000
   43.6340   20.7500   35.4270 C   0  0  0  0  0  0  0  0  0  0  0  0
   43.3920   19.3950   35.2600 C   0  0  0  0  0  0  0  0  0  0  0  0
   44.3400   18.9830   34.3680 N   0  0  0  0  0  0  0  0  0  0  0  0
   45.0980   20.0990   34.0450 C   0  0  0  0  0  0  0  0  0  0  0  0
   44.6500   21.2030   34.7130 N   0  0  0  0  0  0  0  0  0  0  0  0
   40.5010   22.1970   36.2310 C   0  0  1  0  0  0  0  0  0  0  0  0
   41.7440   22.3520   35.4860 C   0  0  0  0  0  0  0  0  0  0  0  0
   42.8090   21.5760   36.3120 C   0  0  1  0  0  0  0  0  0  0  0  0
   42.0400   20.8570   37.3620 C   0  0  0  0  0  0  0  0  0  0  0  0
   41.0350   21.9770   37.6930 C   0  0  0  0  0  0  0  0  0  0  0  0
   38.4110   23.3800   36.9410 C   0  0  0  0  0  0  0  0  0  0  0  0
   39.5630   23.2900   36.1920 C   0  0  0  0  0  0  0  0  0  0  0  0
   39.8330   24.3590   35.2940 C   0  0  0  0  0  0  0  0  0  0  0  0
   38.9740   25.4190   35.1930 N   0  0  0  0  0  0  0  0  0  0  0  0
   37.8490   25.4460   35.9650 C   0  0  0  0  0  0  0  0  0  0  0  0
   37.5790   24.4130   36.8390 N   0  0  0  0  0  0  0  0  0  0  0  0
   45.2610   22.4660   34.5390 C   0  0  2  0  0  0  0  0  0  0  0  0
   45.8700   22.5510   33.1250 C   0  0  0  0  0  0  0  0  0  0  0  0
   46.4200   22.6090   35.4820 C   0  0  0  0  0  0  0  0  0  0  0  0
   46.1660   23.6520   36.4900 N   0  0  0  0  0  0  0  0  0  0  0  0
   44.9760   24.3160   36.5190 C   0  0  0  0  0  0  0  0  0  0  0  0
   44.7090   25.2990   37.4570 C   0  0  0  0  0  0  0  0  0  0  0  0
   45.6770   25.6150   38.3870 C   0  0  0  0  0  0  0  0  0  0  0  0
   45.5260   26.4990   39.2810 O   0  0  0  0  0  0  0  0  0  0  0  0
   46.8440   24.9470   38.3410 N   0  0  0  0  0  0  0  0  0  0  0  0
   47.0770   23.9960   37.4200 C   0  0  0  0  0  0  0  0  0  0  0  0
   48.1940   23.4180   37.4430 O   0  0  0  0  0  0  0  0  0  0  0  0
   42.6104   18.7873   35.7394 H   0  0  0  0  0  0  0  0  0  0  0  0
   45.9463   20.0954   33.3447 H   0  0  0  0  0  0  0  0  0  0  0  0
   39.8969   21.3883   35.7939 H   0  0  0  0  0  0  0  0  0  0  0  0
   41.6470   21.9211   34.4786 H   0  0  0  0  0  0  0  0  0  0  0  0
   42.0157   23.4094   35.3519 H   0  0  0  0  0  0  0  0  0  0  0  0
   43.5526   22.2144   36.8114 H   0  0  0  0  0  0  0  0  0  0  0  0
   41.5457   19.9547   36.9727 H   0  0  0  0  0  0  0  0  0  0  0  0
   42.6249   20.4665   38.2078 H   0  0  0  0  0  0  0  0  0  0  0  0
   41.5242   22.8737   38.1013 H   0  0  0  0  0  0  0  0  0  0  0  0
   40.2821   21.7501   38.4622 H   0  0  0  0  0  0  0  0  0  0  0  0
   38.1708   22.5712   37.6468 H   0  0  0  0  0  0  0  0  0  0  0  0
   40.7415   24.3334   34.6744 H   0  0  0  0  0  0  0  0  0  0  0  0
   37.1541   26.2954   35.8901 H   0  0  0  0  0  0  0  0  0  0  0  0
   44.4970   23.2384   34.7113 H   0  0  0  0  0  0  0  0  0  0  0  0
   46.9567   22.7027   33.2023 H   0  0  0  0  0  0  0  0  0  0  0  0
   45.6680   21.6160   32.5820 H   0  0  0  0  0  0  0  0  0  0  0  0
   45.4197   23.3950   32.5820 H   0  0  0  0  0  0  0  0  0  0  0  0
   46.5858   21.6494   35.9936 H   0  0  0  0  0  0  0  0  0  0  0  0
   47.3070   22.8987   34.8995 H   0  0  0  0  0  0  0  0  0  0  0  0
   44.2054   24.0637   35.7757 H   0  0  0  0  0  0  0  0  0  0  0  0
   43.7400   25.8196   37.4603 H   0  0  0  0  0  0  0  0  0  0  0  0
   47.5774   25.1700   39.0289 H   0  0  0  0  0  0  0  0  0  0  0  0
  1  8  1  0
  2  1  2  0
  3  2  1  0
  4  3  2  0
  4  5  1  0
  5  1  1  0
  6 10  1  0
  7  6  1  0
  7  8  1  0
  8  9  1  0
  9 10  1  0
 12  6  1  0
 12 11  2  0
 13 12  1  0
 14 13  2  0
 14 15  1  0
 15 16  2  0
 16 11  1  0
 17  5  1  0
 17 19  1  0
 18 17  1  0
 19 20  1  0
 20 21  1  0
 20 26  1  0
 21 22  2  0
 22 23  1  0
 23 24  2  0
 25 23  1  0
 26 27  2  0
 26 25  1  0
  2 28  1  0
  4 29  1  0
  6 30  1  6
  7 31  1  0
  7 32  1  0
  8 33  1  1
  9 34  1  0
  9 35  1  0
 10 36  1  0
 10 37  1  0
 11 38  1  0
 13 39  1  0
 15 40  1  0
 17 41  1  1
 18 42  1  0
 18 43  1  0
 18 44  1  0
 19 45  1  0
 19 46  1  0
 21 47  1  0
 22 48  1  0
 25 49  1  0
M  ISO  8  28  14  29  14  30  13  31  13  32  13  33  13  34  13  35  13
M  ISO  8  36  13  37  13  38  14  39  14  40  14  41   8  42   8  43   8
M  ISO  6  44   8  45   8  46   8  47  14  48  14  49   9
M  END
>  <minimizedAffinity>  (1) 
-4.92425537

>  <minimizedRMSD>  (1) 
2.24158788

$$$$
