
     RDKit          3D

 43 46  0  0  1  0  0  0  0  0999 V2000
   37.9680   22.8480   31.2610 N   0  0  0  0  0  0  0  0  0  0  0  0
   37.5630   23.9900   30.4750 C   0  0  0  0  0  0  0  0  0  0  0  0
   38.8400   24.7290   30.1020 C   0  0  0  0  0  0  0  0  0  0  0  0
   39.5390   23.8470   29.0720 C   0  0  0  0  0  0  0  0  0  0  0  0
   39.1210   22.3920   29.2250 C   0  0  0  0  0  0  0  0  0  0  0  0
   39.0910   22.1100   30.7090 C   0  0  2  0  0  0  0  0  0  0  0  0
   39.9000   22.7660   37.2870 C   0  0  0  0  0  0  0  0  0  0  0  0
   39.1600   23.1570   38.3910 C   0  0  0  0  0  0  0  0  0  0  0  0
   37.7830   23.1960   38.2760 C   0  0  0  0  0  0  0  0  0  0  0  0
   37.2220   22.8480   37.0840 N   0  0  0  0  0  0  0  0  0  0  0  0
   37.9690   22.4730   36.0300 C   0  0  0  0  0  0  0  0  0  0  0  0
   39.3090   22.4320   36.1350 N   0  0  0  0  0  0  0  0  0  0  0  0
   37.3730   22.1130   34.7930 N   0  0  0  0  0  0  0  0  0  0  0  0
   37.9590   22.6480   33.7170 C   0  0  0  0  0  0  0  0  0  0  0  0
   37.4470   22.3530   32.4610 C   0  0  0  0  0  0  0  0  0  0  0  0
   36.3570   21.5190   32.4400 C   0  0  0  0  0  0  0  0  0  0  0  0
   35.7210   21.1250   31.2460 N   0  0  0  0  0  0  0  0  0  0  0  0
   35.7920   20.9980   33.5430 N   0  0  0  0  0  0  0  0  0  0  0  0
   36.3070   21.2970   34.7640 C   0  0  0  0  0  0  0  0  0  0  0  0
   35.8630   20.8700   35.8450 O   0  0  0  0  0  0  0  0  0  0  0  0
   39.1160   20.6890   31.0310 C   0  0  0  0  0  0  0  0  0  0  0  0
   39.9320   20.0350   31.9500 C   0  0  0  0  0  0  0  0  0  0  0  0
   39.6670   18.6830   31.9820 C   0  0  0  0  0  0  0  0  0  0  0  0
   38.6890   18.5340   31.0780 N   0  0  0  0  0  0  0  0  0  0  0  0
   38.3700   19.6920   30.5280 N   0  0  0  0  0  0  0  0  0  0  0  0
   37.0356   23.6599   29.5679 H   0  0  0  0  0  0  0  0  0  0  0  0
   36.8766   24.6390   31.0386 H   0  0  0  0  0  0  0  0  0  0  0  0
   38.6022   25.7114   29.6680 H   0  0  0  0  0  0  0  0  0  0  0  0
   39.4763   24.9108   30.9807 H   0  0  0  0  0  0  0  0  0  0  0  0
   40.6273   23.9250   29.2113 H   0  0  0  0  0  0  0  0  0  0  0  0
   39.2532   24.1894   28.0665 H   0  0  0  0  0  0  0  0  0  0  0  0
   38.1240   22.2347   28.7877 H   0  0  0  0  0  0  0  0  0  0  0  0
   39.8199   21.7198   28.7056 H   0  0  0  0  0  0  0  0  0  0  0  0
   40.0162   22.4626   31.1883 H   0  0  0  0  0  0  0  0  0  0  0  0
   40.9970   22.7295   37.3597 H   0  0  0  0  0  0  0  0  0  0  0  0
   39.6553   23.4294   39.3346 H   0  0  0  0  0  0  0  0  0  0  0  0
   37.1552   23.5006   39.1263 H   0  0  0  0  0  0  0  0  0  0  0  0
   38.8309   23.3099   33.8251 H   0  0  0  0  0  0  0  0  0  0  0  0
   34.9053   20.4970   31.2800 H   0  0  0  0  0  0  0  0  0  0  0  0
   36.0718   21.4650   30.3392 H   0  0  0  0  0  0  0  0  0  0  0  0
   40.6909   20.5335   32.5709 H   0  0  0  0  0  0  0  0  0  0  0  0
   40.1446   17.9101   32.6020 H   0  0  0  0  0  0  0  0  0  0  0  0
   38.2446   17.6350   30.8430 H   0  0  0  0  0  0  0  0  0  0  0  0
  1 15  1  0
  2  1  1  0
  3  2  1  0
  4  5  1  0
  4  3  1  0
  5  6  1  0
  6 21  1  0
  6  1  1  0
  7  8  2  0
  9  8  1  0
 10  9  2  0
 11 12  2  0
 11 10  1  0
 12  7  1  0
 13 11  1  0
 14 13  1  0
 15 14  2  0
 16 15  1  0
 16 18  2  0
 17 16  1  0
 18 19  1  0
 19 13  1  0
 19 20  2  0
 21 22  1  0
 22 23  2  0
 24 23  1  0
 25 21  2  0
 25 24  1  0
  2 26  1  0
  2 27  1  0
  3 28  1  0
  3 29  1  0
  4 30  1  0
  4 31  1  0
  5 32  1  0
  5 33  1  0
  6 34  1  1
  7 35  1  0
  8 36  1  0
  9 37  1  0
 14 38  1  0
 17 39  1  0
 17 40  1  0
 22 41  1  0
 23 42  1  0
 24 43  1  0
M  ISO  8  26  13  27  13  28  13  29  13  30  13  31  13  32  13  33  13
M  ISO  8  34  13  35  14  36  14  37  14  38  14  41  14  42  14  43   9
M  END
>  <minimizedAffinity>  (1) 
-5.09512806

>  <minimizedRMSD>  (1) 
1.32429075

$$$$
