
     RDKit          3D

 46 49  0  0  1  0  0  0  0  0999 V2000
   42.8580   21.7610   36.4980 C   0  0  0  0  0  0  0  0  0  0  0  0
   42.8850   20.4240   36.8580 C   0  0  0  0  0  0  0  0  0  0  0  0
   43.9730   19.9110   36.2080 N   0  0  0  0  0  0  0  0  0  0  0  0
   44.5450   20.9530   35.4940 C   0  0  0  0  0  0  0  0  0  0  0  0
   43.8340   22.1150   35.6840 N   0  0  0  0  0  0  0  0  0  0  0  0
   39.8930   23.6080   35.9060 C   0  0  1  0  0  0  0  0  0  0  0  0
   41.3500   23.6140   35.8330 C   0  0  0  0  0  0  0  0  0  0  0  0
   41.8240   22.6740   36.9780 C   0  0  1  0  0  0  0  0  0  0  0  0
   40.5810   22.0500   37.5070 C   0  0  0  0  0  0  0  0  0  0  0  0
   39.6580   23.2800   37.4210 C   0  0  0  0  0  0  0  0  0  0  0  0
   37.8550   25.0360   35.6530 C   0  0  0  0  0  0  0  0  0  0  0  0
   39.2100   24.8220   35.5330 C   0  0  0  0  0  0  0  0  0  0  0  0
   39.9870   25.8750   34.9780 C   0  0  0  0  0  0  0  0  0  0  0  0
   39.3950   27.0420   34.5870 N   0  0  0  0  0  0  0  0  0  0  0  0
   38.0400   27.1960   34.7320 C   0  0  0  0  0  0  0  0  0  0  0  0
   37.2810   26.1790   35.2680 N   0  0  0  0  0  0  0  0  0  0  0  0
   44.2320   23.3080   35.0470 C   0  0  2  0  0  0  0  0  0  0  0  0
   45.2690   23.0020   33.9500 C   0  0  0  0  0  0  0  0  0  0  0  0
   44.9350   24.2110   36.0200 C   0  0  0  0  0  0  0  0  0  0  0  0
   44.8400   25.5940   35.4180 C   0  0  0  0  0  0  0  0  0  0  0  0
   45.8550   26.5240   35.3000 C   0  0  0  0  0  0  0  0  0  0  0  0
   45.3140   27.6400   34.6890 C   0  0  0  0  0  0  0  0  0  0  0  0
   44.0230   27.3460   34.4680 N   0  0  0  0  0  0  0  0  0  0  0  0
   43.7260   26.1370   34.8930 N   0  0  0  0  0  0  0  0  0  0  0  0
   42.1859   19.8924   37.5203 H   0  0  0  0  0  0  0  0  0  0  0  0
   45.4420   20.8629   34.8637 H   0  0  0  0  0  0  0  0  0  0  0  0
   39.4758   22.9000   35.1748 H   0  0  0  0  0  0  0  0  0  0  0  0
   41.6882   23.2337   34.8578 H   0  0  0  0  0  0  0  0  0  0  0  0
   41.7611   24.6287   35.9397 H   0  0  0  0  0  0  0  0  0  0  0  0
   42.3297   23.1891   37.8081 H   0  0  0  0  0  0  0  0  0  0  0  0
   40.2298   21.2224   36.8731 H   0  0  0  0  0  0  0  0  0  0  0  0
   40.6646   21.5823   38.4991 H   0  0  0  0  0  0  0  0  0  0  0  0
   39.9856   24.0962   38.0817 H   0  0  0  0  0  0  0  0  0  0  0  0
   38.6134   23.1277   37.7301 H   0  0  0  0  0  0  0  0  0  0  0  0
   37.2257   24.2408   36.0792 H   0  0  0  0  0  0  0  0  0  0  0  0
   41.0736   25.7489   34.8625 H   0  0  0  0  0  0  0  0  0  0  0  0
   37.5580   28.1341   34.4195 H   0  0  0  0  0  0  0  0  0  0  0  0
   43.3248   23.7767   34.6379 H   0  0  0  0  0  0  0  0  0  0  0  0
   46.2243   22.7201   34.4169 H   0  0  0  0  0  0  0  0  0  0  0  0
   44.9075   22.1723   33.3249 H   0  0  0  0  0  0  0  0  0  0  0  0
   45.4158   23.8951   33.3249 H   0  0  0  0  0  0  0  0  0  0  0  0
   44.4380   24.1824   37.0009 H   0  0  0  0  0  0  0  0  0  0  0  0
   45.9788   23.9051   36.1840 H   0  0  0  0  0  0  0  0  0  0  0  0
   46.8970   26.3999   35.6300 H   0  0  0  0  0  0  0  0  0  0  0  0
   45.8341   28.5757   34.4362 H   0  0  0  0  0  0  0  0  0  0  0  0
   43.3502   27.9859   34.0222 H   0  0  0  0  0  0  0  0  0  0  0  0
  1  2  2  0
  1  8  1  0
  3  2  1  0
  4  5  1  0
  4  3  2  0
  5  1  1  0
  6 10  1  0
  7  6  1  0
  7  8  1  0
  8  9  1  0
 10  9  1  0
 12 11  2  0
 12  6  1  0
 13 12  1  0
 14 15  1  0
 14 13  2  0
 15 16  2  0
 16 11  1  0
 17  5  1  0
 17 19  1  0
 18 17  1  0
 20 19  1  0
 21 20  1  0
 22 21  2  0
 23 22  1  0
 23 24  1  0
 24 20  2  0
  2 25  1  0
  4 26  1  0
  6 27  1  6
  7 28  1  0
  7 29  1  0
  8 30  1  1
  9 31  1  0
  9 32  1  0
 10 33  1  0
 10 34  1  0
 11 35  1  0
 13 36  1  0
 15 37  1  0
 17 38  1  6
 18 39  1  0
 18 40  1  0
 18 41  1  0
 19 42  1  0
 19 43  1  0
 21 44  1  0
 22 45  1  0
 23 46  1  0
M  ISO  8  25  14  26  14  27  13  28  13  29  13  30  13  31  13  32  13
M  ISO  8  33  13  34  13  35  14  36  14  37  14  38   8  39   8  40   8
M  ISO  6  41   8  42   8  43   8  44  14  45  14  46   9
M  END
>  <minimizedAffinity>  (1) 
-4.7275877

>  <minimizedRMSD>  (1) 
1.0188874

$$$$
