
     RDKit          3D

 44 47  0  0  1  0  0  0  0  0999 V2000
   41.1920   23.2970   35.7780 C   0  0  1  0  0  0  0  0  0  0  0  0
   41.8870   24.5120   35.3690 C   0  0  0  0  0  0  0  0  0  0  0  0
   43.3950   24.1330   35.3500 C   0  0  1  0  0  0  0  0  0  0  0  0
   43.4170   22.6590   35.5490 C   0  0  0  0  0  0  0  0  0  0  0  0
   42.3090   22.5850   36.6260 C   0  0  0  0  0  0  0  0  0  0  0  0
   39.7670   22.9030   37.7930 C   0  0  0  0  0  0  0  0  0  0  0  0
   39.9840   23.4530   36.5500 C   0  0  0  0  0  0  0  0  0  0  0  0
   38.9280   24.2080   35.9790 C   0  0  0  0  0  0  0  0  0  0  0  0
   37.7490   24.3740   36.6520 N   0  0  0  0  0  0  0  0  0  0  0  0
   37.5910   23.8050   37.8830 C   0  0  0  0  0  0  0  0  0  0  0  0
   38.6050   23.0780   38.4330 N   0  0  0  0  0  0  0  0  0  0  0  0
   44.0300   24.6300   34.1360 C   0  0  0  0  0  0  0  0  0  0  0  0
   43.8630   24.0150   32.9030 C   0  0  0  0  0  0  0  0  0  0  0  0
   44.5910   24.7760   32.0260 N   0  0  0  0  0  0  0  0  0  0  0  0
   45.1560   25.8030   32.7570 C   0  0  0  0  0  0  0  0  0  0  0  0
   44.7980   25.7050   34.0870 N   0  0  0  0  0  0  0  0  0  0  0  0
   45.2560   26.6560   35.0210 C   0  0  2  0  0  0  0  0  0  0  0  0
   45.6670   27.9490   34.3030 C   0  0  0  0  0  0  0  0  0  0  0  0
   46.5160   26.1630   35.6890 C   0  0  0  0  0  0  0  0  0  0  0  0
   46.2760   25.8030   37.1130 C   0  0  0  0  0  0  0  0  0  0  0  0
   47.0690   25.1460   37.9790 N   0  0  0  0  0  0  0  0  0  0  0  0
   46.5080   25.0220   39.1440 O   0  0  0  0  0  0  0  0  0  0  0  0
   45.3220   25.5970   39.0780 C   0  0  0  0  0  0  0  0  0  0  0  0
   45.1760   26.0770   37.8380 N   0  0  0  0  0  0  0  0  0  0  0  0
   40.8063   22.7571   34.9007 H   0  0  0  0  0  0  0  0  0  0  0  0
   41.5560   24.8274   34.3685 H   0  0  0  0  0  0  0  0  0  0  0  0
   41.6828   25.3513   36.0501 H   0  0  0  0  0  0  0  0  0  0  0  0
   43.9949   24.6022   36.1437 H   0  0  0  0  0  0  0  0  0  0  0  0
   43.1498   22.1088   34.6347 H   0  0  0  0  0  0  0  0  0  0  0  0
   44.3881   22.2173   35.8170 H   0  0  0  0  0  0  0  0  0  0  0  0
   42.5677   23.1424   37.5384 H   0  0  0  0  0  0  0  0  0  0  0  0
   42.0705   21.5890   37.0274 H   0  0  0  0  0  0  0  0  0  0  0  0
   40.5621   22.3097   38.2682 H   0  0  0  0  0  0  0  0  0  0  0  0
   39.0583   24.6639   34.9865 H   0  0  0  0  0  0  0  0  0  0  0  0
   36.6458   23.9330   38.4310 H   0  0  0  0  0  0  0  0  0  0  0  0
   43.2745   23.1132   32.6786 H   0  0  0  0  0  0  0  0  0  0  0  0
   45.8012   26.5893   32.3380 H   0  0  0  0  0  0  0  0  0  0  0  0
   44.4414   26.8226   35.7412 H   0  0  0  0  0  0  0  0  0  0  0  0
   45.9121   28.7202   35.0481 H   0  0  0  0  0  0  0  0  0  0  0  0
   46.5476   27.7546   33.6732 H   0  0  0  0  0  0  0  0  0  0  0  0
   44.8358   28.2988   33.6732 H   0  0  0  0  0  0  0  0  0  0  0  0
   46.8802   25.2744   35.1526 H   0  0  0  0  0  0  0  0  0  0  0  0
   47.2605   26.9722   35.6594 H   0  0  0  0  0  0  0  0  0  0  0  0
   44.5876   25.6685   39.8938 H   0  0  0  0  0  0  0  0  0  0  0  0
  1  7  1  0
  1  5  1  0
  2  1  1  0
  3  2  1  0
  3  4  1  0
  4  5  1  0
  6 11  2  0
  7  6  1  0
  8  7  2  0
  8  9  1  0
  9 10  2  0
 10 11  1  0
 12  3  1  0
 13 12  2  0
 14 15  2  0
 14 13  1  0
 15 16  1  0
 16 12  1  0
 16 17  1  0
 17 19  1  0
 18 17  1  0
 19 20  1  0
 20 24  1  0
 20 21  2  0
 21 22  1  0
 23 22  1  0
 24 23  2  0
  1 25  1  6
  2 26  1  0
  2 27  1  0
  3 28  1  1
  4 29  1  0
  4 30  1  0
  5 31  1  0
  5 32  1  0
  6 33  1  0
  8 34  1  0
 10 35  1  0
 13 36  1  0
 15 37  1  0
 17 38  1  1
 18 39  1  0
 18 40  1  0
 18 41  1  0
 19 42  1  0
 19 43  1  0
 23 44  1  0
M  ISO  8  25  13  26  13  27  13  28  13  29  13  30  13  31  13  32  13
M  ISO  8  33  14  34  14  35  14  36  14  37  14  38   8  39   8  40   8
M  ISO  4  41   8  42   8  43   8  44  14
M  END
>  <minimizedAffinity>  (1) 
-4.72050238

>  <minimizedRMSD>  (1) 
3.59935188

$$$$
