
     RDKit          3D

 54 57  0  0  1  0  0  0  0  0999 V2000
   43.9320   21.1050   35.5580 C   0  0  0  0  0  0  0  0  0  0  0  0
   43.8130   19.7440   35.3250 C   0  0  0  0  0  0  0  0  0  0  0  0
   44.8350   19.4520   34.4690 N   0  0  0  0  0  0  0  0  0  0  0  0
   45.5270   20.6160   34.2160 C   0  0  0  0  0  0  0  0  0  0  0  0
   44.9440   21.6560   34.9130 N   0  0  0  0  0  0  0  0  0  0  0  0
   40.7110   22.4390   36.1580 C   0  0  1  0  0  0  0  0  0  0  0  0
   42.0220   22.6760   35.5690 C   0  0  0  0  0  0  0  0  0  0  0  0
   43.0120   21.8340   36.4200 C   0  0  1  0  0  0  0  0  0  0  0  0
   42.1450   21.0060   37.2980 C   0  0  0  0  0  0  0  0  0  0  0  0
   41.0930   22.0870   37.6390 C   0  0  0  0  0  0  0  0  0  0  0  0
   38.6140   23.6030   36.8720 C   0  0  0  0  0  0  0  0  0  0  0  0
   39.7610   23.5250   36.1130 C   0  0  0  0  0  0  0  0  0  0  0  0
   40.0090   24.5910   35.2080 C   0  0  0  0  0  0  0  0  0  0  0  0
   39.1430   25.6340   35.1100 N   0  0  0  0  0  0  0  0  0  0  0  0
   38.0170   25.6560   35.8920 C   0  0  0  0  0  0  0  0  0  0  0  0
   37.7750   24.6330   36.7640 N   0  0  0  0  0  0  0  0  0  0  0  0
   45.4750   22.9760   34.8030 C   0  0  2  0  0  0  0  0  0  0  0  0
   46.2900   23.1020   33.5100 C   0  0  0  0  0  0  0  0  0  0  0  0
   46.4570   23.2190   35.9200 C   0  0  0  0  0  0  0  0  0  0  0  0
   46.3740   24.6010   36.4370 N   0  0  0  0  0  0  0  0  0  0  0  0
   45.0840   25.1870   36.3120 C   0  0  0  0  0  0  0  0  0  0  0  0
   44.2500   25.1770   37.5640 C   0  0  0  0  0  0  0  0  0  0  0  0
   44.8960   25.9740   38.6720 C   0  0  0  0  0  0  0  0  0  0  0  0
   46.3870   25.7590   38.5960 C   0  0  0  0  0  0  0  0  0  0  0  0
   46.7150   24.4930   37.8440 C   0  0  0  0  0  0  0  0  0  0  0  0
   43.0627   19.0536   35.7377 H   0  0  0  0  0  0  0  0  0  0  0  0
   46.4065   20.7034   33.5611 H   0  0  0  0  0  0  0  0  0  0  0  0
   40.1692   21.6679   35.5907 H   0  0  0  0  0  0  0  0  0  0  0  0
   42.0384   22.3458   34.5199 H   0  0  0  0  0  0  0  0  0  0  0  0
   42.2854   23.7440   35.5707 H   0  0  0  0  0  0  0  0  0  0  0  0
   43.6896   22.4274   37.0514 H   0  0  0  0  0  0  0  0  0  0  0  0
   41.7059   20.1507   36.7636 H   0  0  0  0  0  0  0  0  0  0  0  0
   42.6414   20.5270   38.1548 H   0  0  0  0  0  0  0  0  0  0  0  0
   41.5256   22.9424   38.1786 H   0  0  0  0  0  0  0  0  0  0  0  0
   40.2712   21.7871   38.3059 H   0  0  0  0  0  0  0  0  0  0  0  0
   38.3852   22.7963   37.5839 H   0  0  0  0  0  0  0  0  0  0  0  0
   40.9116   24.5724   34.5796 H   0  0  0  0  0  0  0  0  0  0  0  0
   37.3102   26.4956   35.8173 H   0  0  0  0  0  0  0  0  0  0  0  0
   44.6332   23.6835   34.8288 H   0  0  0  0  0  0  0  0  0  0  0  0
   47.3490   23.2657   33.7585 H   0  0  0  0  0  0  0  0  0  0  0  0
   46.1900   22.1777   32.9220 H   0  0  0  0  0  0  0  0  0  0  0  0
   45.9156   23.9529   32.9220 H   0  0  0  0  0  0  0  0  0  0  0  0
   46.2421   22.5189   36.7408 H   0  0  0  0  0  0  0  0  0  0  0  0
   47.4707   23.0647   35.5218 H   0  0  0  0  0  0  0  0  0  0  0  0
   45.2148   26.2334   35.9990 H   0  0  0  0  0  0  0  0  0  0  0  0
   44.5403   24.5728   35.5791 H   0  0  0  0  0  0  0  0  0  0  0  0
   43.2649   25.6121   37.3396 H   0  0  0  0  0  0  0  0  0  0  0  0
   44.1529   24.1350   37.9029 H   0  0  0  0  0  0  0  0  0  0  0  0
   44.6664   27.0423   38.5455 H   0  0  0  0  0  0  0  0  0  0  0  0
   44.5132   25.6468   39.6499 H   0  0  0  0  0  0  0  0  0  0  0  0
   46.8474   26.6137   38.0788 H   0  0  0  0  0  0  0  0  0  0  0  0
   46.7799   25.6694   39.6195 H   0  0  0  0  0  0  0  0  0  0  0  0
   46.1488   23.6594   38.2851 H   0  0  0  0  0  0  0  0  0  0  0  0
   47.7983   24.3185   37.9220 H   0  0  0  0  0  0  0  0  0  0  0  0
  1  8  1  0
  2  1  2  0
  3  2  1  0
  4  3  2  0
  4  5  1  0
  5  1  1  0
  6 10  1  0
  7  6  1  0
  7  8  1  0
  8  9  1  0
  9 10  1  0
 12  6  1  0
 12 11  2  0
 13 12  1  0
 14 13  2  0
 14 15  1  0
 15 16  2  0
 16 11  1  0
 17  5  1  0
 17 19  1  0
 18 17  1  0
 19 20  1  0
 20 25  1  0
 21 20  1  0
 21 22  1  0
 22 23  1  0
 24 23  1  0
 25 24  1  0
  2 26  1  0
  4 27  1  0
  6 28  1  6
  7 29  1  0
  7 30  1  0
  8 31  1  1
  9 32  1  0
  9 33  1  0
 10 34  1  0
 10 35  1  0
 11 36  1  0
 13 37  1  0
 15 38  1  0
 17 39  1  6
 18 40  1  0
 18 41  1  0
 18 42  1  0
 19 43  1  0
 19 44  1  0
 21 45  1  0
 21 46  1  0
 22 47  1  0
 22 48  1  0
 23 49  1  0
 23 50  1  0
 24 51  1  0
 24 52  1  0
 25 53  1  0
 25 54  1  0
M  ISO  8  26  14  27  14  28  13  29  13  30  13  31  13  32  13  33  13
M  ISO  8  34  13  35  13  36  14  37  14  38  14  39   8  40   8  41   8
M  ISO  8  42   8  43   8  44   8  45  13  46  13  47  13  48  13  49  13
M  ISO  5  50  13  51  13  52  13  53  13  54  13
M  END
>  <minimizedAffinity>  (1) 
-4.85374784

>  <minimizedRMSD>  (1) 
1.85510349

$$$$
