
     RDKit          3D

 44 47  0  0  1  0  0  0  0  0999 V2000
   37.9660   22.8840   31.2490 N   0  0  0  0  0  0  0  0  0  0  0  0
   37.5420   24.0260   30.4740 C   0  0  0  0  0  0  0  0  0  0  0  0
   38.8080   24.7810   30.0940 C   0  0  0  0  0  0  0  0  0  0  0  0
   39.5030   23.9210   29.0580 C   0  0  0  0  0  0  0  0  0  0  0  0
   39.1370   22.4510   29.2110 C   0  0  0  0  0  0  0  0  0  0  0  0
   39.0950   22.1620   30.6890 C   0  0  2  0  0  0  0  0  0  0  0  0
   39.9300   22.7740   37.2600 C   0  0  0  0  0  0  0  0  0  0  0  0
   39.1840   23.1560   38.3800 C   0  0  0  0  0  0  0  0  0  0  0  0
   37.8010   23.1820   38.2670 C   0  0  0  0  0  0  0  0  0  0  0  0
   37.2550   22.8370   37.0760 N   0  0  0  0  0  0  0  0  0  0  0  0
   37.9900   22.4740   36.0130 C   0  0  0  0  0  0  0  0  0  0  0  0
   39.3310   22.4450   36.1140 N   0  0  0  0  0  0  0  0  0  0  0  0
   37.3830   22.1170   34.7790 N   0  0  0  0  0  0  0  0  0  0  0  0
   37.9750   22.6710   33.7030 C   0  0  0  0  0  0  0  0  0  0  0  0
   37.4500   22.3790   32.4480 C   0  0  0  0  0  0  0  0  0  0  0  0
   36.3620   21.5400   32.4280 C   0  0  0  0  0  0  0  0  0  0  0  0
   35.7280   21.1580   31.2270 N   0  0  0  0  0  0  0  0  0  0  0  0
   35.8060   21.0110   33.5300 N   0  0  0  0  0  0  0  0  0  0  0  0
   36.3300   21.3050   34.7510 C   0  0  0  0  0  0  0  0  0  0  0  0
   35.8890   20.8670   35.8280 O   0  0  0  0  0  0  0  0  0  0  0  0
   39.1700   20.7550   31.0300 C   0  0  0  0  0  0  0  0  0  0  0  0
   40.1050   20.1750   31.8940 C   0  0  0  0  0  0  0  0  0  0  0  0
   40.1450   18.8290   32.2040 C   0  0  0  0  0  0  0  0  0  0  0  0
   39.2320   17.9950   31.6510 N   0  0  0  0  0  0  0  0  0  0  0  0
   38.3200   18.5530   30.8110 C   0  0  0  0  0  0  0  0  0  0  0  0
   38.3050   19.8560   30.5300 N   0  0  0  0  0  0  0  0  0  0  0  0
   37.0100   23.6958   29.5696 H   0  0  0  0  0  0  0  0  0  0  0  0
   36.8539   24.6642   31.0477 H   0  0  0  0  0  0  0  0  0  0  0  0
   38.5556   25.7639   29.6696 H   0  0  0  0  0  0  0  0  0  0  0  0
   39.4505   24.9622   30.9683 H   0  0  0  0  0  0  0  0  0  0  0  0
   40.5912   24.0317   29.1744 H   0  0  0  0  0  0  0  0  0  0  0  0
   39.1780   24.2539   28.0612 H   0  0  0  0  0  0  0  0  0  0  0  0
   38.1528   22.2573   28.7596 H   0  0  0  0  0  0  0  0  0  0  0  0
   39.8716   21.8076   28.7047 H   0  0  0  0  0  0  0  0  0  0  0  0
   40.0150   22.5334   31.1640 H   0  0  0  0  0  0  0  0  0  0  0  0
   41.0277   22.7444   37.3251 H   0  0  0  0  0  0  0  0  0  0  0  0
   39.6795   23.4281   39.3236 H   0  0  0  0  0  0  0  0  0  0  0  0
   37.1678   23.4736   39.1179 H   0  0  0  0  0  0  0  0  0  0  0  0
   38.8462   23.3335   33.8132 H   0  0  0  0  0  0  0  0  0  0  0  0
   34.9143   20.5269   31.2523 H   0  0  0  0  0  0  0  0  0  0  0  0
   36.0788   21.5102   30.3249 H   0  0  0  0  0  0  0  0  0  0  0  0
   40.8563   20.8324   32.3560 H   0  0  0  0  0  0  0  0  0  0  0  0
   40.9096   18.4392   32.8921 H   0  0  0  0  0  0  0  0  0  0  0  0
   37.5646   17.9034   30.3448 H   0  0  0  0  0  0  0  0  0  0  0  0
  1 15  1  0
  2  1  1  0
  3  2  1  0
  4  5  1  0
  4  3  1  0
  5  6  1  0
  6 21  1  0
  6  1  1  0
  7  8  2  0
  9  8  1  0
 10  9  2  0
 11 12  2  0
 11 10  1  0
 12  7  1  0
 13 11  1  0
 14 13  1  0
 15 14  2  0
 16 15  1  0
 16 18  2  0
 17 16  1  0
 18 19  1  0
 19 13  1  0
 19 20  2  0
 21 22  2  0
 22 23  1  0
 24 23  2  0
 25 24  1  0
 26 25  2  0
 26 21  1  0
  2 27  1  0
  2 28  1  0
  3 29  1  0
  3 30  1  0
  4 31  1  0
  4 32  1  0
  5 33  1  0
  5 34  1  0
  6 35  1  1
  7 36  1  0
  8 37  1  0
  9 38  1  0
 14 39  1  0
 17 40  1  0
 17 41  1  0
 22 42  1  0
 23 43  1  0
 25 44  1  0
M  ISO  8  27  13  28  13  29  13  30  13  31  13  32  13  33  13  34  13
M  ISO  8  35  13  36  14  37  14  38  14  39  14  42  14  43  14  44  14
M  END
>  <minimizedAffinity>  (1) 
-5.0799365

>  <minimizedRMSD>  (1) 
1.376019

$$$$
