
     RDKit          3D

 44 47  0  0  1  0  0  0  0  0999 V2000
   38.0120   23.0650   31.2690 N   0  0  0  0  0  0  0  0  0  0  0  0
   37.5390   24.1840   30.4900 C   0  0  0  0  0  0  0  0  0  0  0  0
   38.7640   25.0280   30.1660 C   0  0  0  0  0  0  0  0  0  0  0  0
   39.5540   24.2240   29.1420 C   0  0  0  0  0  0  0  0  0  0  0  0
   39.2510   22.7360   29.2560 C   0  0  0  0  0  0  0  0  0  0  0  0
   39.2020   22.4260   30.7380 C   0  0  2  0  0  0  0  0  0  0  0  0
   39.9300   22.8370   37.2960 C   0  0  0  0  0  0  0  0  0  0  0  0
   39.1660   23.1690   38.4090 C   0  0  0  0  0  0  0  0  0  0  0  0
   37.7880   23.1660   38.2910 C   0  0  0  0  0  0  0  0  0  0  0  0
   37.2510   22.8340   37.0840 N   0  0  0  0  0  0  0  0  0  0  0  0
   38.0270   22.5140   36.0190 C   0  0  0  0  0  0  0  0  0  0  0  0
   39.3570   22.5170   36.1310 N   0  0  0  0  0  0  0  0  0  0  0  0
   37.4280   22.1740   34.7740 N   0  0  0  0  0  0  0  0  0  0  0  0
   38.0070   22.7710   33.7180 C   0  0  0  0  0  0  0  0  0  0  0  0
   37.4970   22.5080   32.4520 C   0  0  0  0  0  0  0  0  0  0  0  0
   36.4300   21.6470   32.3980 C   0  0  0  0  0  0  0  0  0  0  0  0
   35.8180   21.2900   31.1820 N   0  0  0  0  0  0  0  0  0  0  0  0
   35.8880   21.0760   33.4840 N   0  0  0  0  0  0  0  0  0  0  0  0
   36.3940   21.3410   34.7090 C   0  0  0  0  0  0  0  0  0  0  0  0
   35.9620   20.8610   35.7720 O   0  0  0  0  0  0  0  0  0  0  0  0
   39.3270   20.9990   31.0500 C   0  0  0  0  0  0  0  0  0  0  0  0
   40.2500   20.4760   31.9330 C   0  0  0  0  0  0  0  0  0  0  0  0
   40.3850   19.1400   32.2560 C   0  0  0  0  0  0  0  0  0  0  0  0
   39.5300   18.2680   31.6460 N   0  0  0  0  0  0  0  0  0  0  0  0
   38.6090   18.7630   30.7690 C   0  0  0  0  0  0  0  0  0  0  0  0
   38.5270   20.0750   30.4970 N   0  0  0  0  0  0  0  0  0  0  0  0
   37.0649   23.8293   29.5629 H   0  0  0  0  0  0  0  0  0  0  0  0
   36.7873   24.7665   31.0428 H   0  0  0  0  0  0  0  0  0  0  0  0
   38.4618   25.9975   29.7431 H   0  0  0  0  0  0  0  0  0  0  0  0
   39.3610   25.2420   31.0648 H   0  0  0  0  0  0  0  0  0  0  0  0
   40.6289   24.3851   29.3114 H   0  0  0  0  0  0  0  0  0  0  0  0
   39.2645   24.5619   28.1360 H   0  0  0  0  0  0  0  0  0  0  0  0
   38.2829   22.5071   28.7865 H   0  0  0  0  0  0  0  0  0  0  0  0
   40.0152   22.1315   28.7455 H   0  0  0  0  0  0  0  0  0  0  0  0
   40.0877   22.8402   31.2420 H   0  0  0  0  0  0  0  0  0  0  0  0
   41.0271   22.8376   37.3753 H   0  0  0  0  0  0  0  0  0  0  0  0
   39.6473   23.4286   39.3634 H   0  0  0  0  0  0  0  0  0  0  0  0
   37.1453   23.4238   39.1457 H   0  0  0  0  0  0  0  0  0  0  0  0
   38.8620   23.4499   33.8522 H   0  0  0  0  0  0  0  0  0  0  0  0
   35.0185   20.6406   31.1790 H   0  0  0  0  0  0  0  0  0  0  0  0
   36.1696   21.6782   30.2951 H   0  0  0  0  0  0  0  0  0  0  0  0
   40.9365   21.1835   32.4210 H   0  0  0  0  0  0  0  0  0  0  0  0
   41.1459   18.7947   32.9714 H   0  0  0  0  0  0  0  0  0  0  0  0
   37.9156   18.0687   30.2719 H   0  0  0  0  0  0  0  0  0  0  0  0
  1 15  1  0
  2  1  1  0
  3  2  1  0
  4  5  1  0
  4  3  1  0
  5  6  1  0
  6 21  1  0
  6  1  1  0
  7  8  2  0
  9  8  1  0
 10  9  2  0
 11 12  2  0
 11 10  1  0
 12  7  1  0
 13 11  1  0
 14 13  1  0
 15 14  2  0
 16 15  1  0
 16 18  2  0
 17 16  1  0
 18 19  1  0
 19 13  1  0
 19 20  2  0
 21 22  2  0
 22 23  1  0
 24 23  2  0
 25 24  1  0
 26 25  2  0
 26 21  1  0
  2 27  1  0
  2 28  1  0
  3 29  1  0
  3 30  1  0
  4 31  1  0
  4 32  1  0
  5 33  1  0
  5 34  1  0
  6 35  1  1
  7 36  1  0
  8 37  1  0
  9 38  1  0
 14 39  1  0
 17 40  1  0
 17 41  1  0
 22 42  1  0
 23 43  1  0
 25 44  1  0
M  ISO  8  27  13  28  13  29  13  30  13  31  13  32  13  33  13  34  13
M  ISO  8  35  13  36  14  37  14  38  14  39  14  42  14  43  14  44  14
M  END
>  <minimizedAffinity>  (1) 
-5.02137232

>  <minimizedRMSD>  (1) 
1.6485194

$$$$
