
     RDKit          3D

 25 27  0  0  0  0  0  0  0  0999 V2000
   37.3690   21.9340   35.0270 C   0  0  0  0  0  0  0  0  0  0  0  0
   36.2570   21.1040   35.1470 C   0  0  0  0  0  0  0  0  0  0  0  0
   35.7020   20.6910   33.9560 C   0  0  0  0  0  0  0  0  0  0  0  0
   36.1850   21.0510   32.7410 N   0  0  0  0  0  0  0  0  0  0  0  0
   37.2710   21.8630   32.6780 C   0  0  0  0  0  0  0  0  0  0  0  0
   37.8600   22.3010   33.8300 N   0  0  0  0  0  0  0  0  0  0  0  0
   37.8950   22.3280   31.4850 N   0  0  0  0  0  0  0  0  0  0  0  0
   37.7330   23.5630   31.0160 N   0  0  0  0  0  0  0  0  0  0  0  0
   38.4310   23.7330   29.8820 C   0  0  0  0  0  0  0  0  0  0  0  0
   39.0700   22.5490   29.6120 C   0  0  0  0  0  0  0  0  0  0  0  0
   38.7210   21.6820   30.6280 C   0  0  0  0  0  0  0  0  0  0  0  0
   39.9160   22.7090   37.5550 C   0  0  0  0  0  0  0  0  0  0  0  0
   39.1700   23.3650   38.5760 C   0  0  0  0  0  0  0  0  0  0  0  0
   37.7890   23.5170   38.3460 C   0  0  0  0  0  0  0  0  0  0  0  0
   37.2650   23.0350   37.1820 N   0  0  0  0  0  0  0  0  0  0  0  0
   38.0220   22.4200   36.2500 C   0  0  0  0  0  0  0  0  0  0  0  0
   39.3260   22.2640   36.4420 N   0  0  0  0  0  0  0  0  0  0  0  0
   35.8510   20.8001   36.1231 H   0  0  0  0  0  0  0  0  0  0  0  0
   34.8202   20.0344   33.9923 H   0  0  0  0  0  0  0  0  0  0  0  0
   38.4815   24.6523   29.2800 H   0  0  0  0  0  0  0  0  0  0  0  0
   39.7283   22.3339   28.7574 H   0  0  0  0  0  0  0  0  0  0  0  0
   39.0579   20.6394   30.7253 H   0  0  0  0  0  0  0  0  0  0  0  0
   40.9988   22.5661   37.6855 H   0  0  0  0  0  0  0  0  0  0  0  0
   39.6476   23.7335   39.4958 H   0  0  0  0  0  0  0  0  0  0  0  0
   37.1468   24.0134   39.0884 H   0  0  0  0  0  0  0  0  0  0  0  0
  1  2  2  0
  1 16  1  0
  3  2  1  0
  4  3  2  0
  5  4  1  0
  5  6  2  0
  6  1  1  0
  7  5  1  0
  8  7  1  0
  9  8  2  0
 10  9  1  0
 10 11  2  0
 11  7  1  0
 12 13  2  0
 14 13  1  0
 15 14  2  0
 16 17  2  0
 16 15  1  0
 17 12  1  0
  2 18  1  0
  3 19  1  0
  9 20  1  0
 10 21  1  0
 11 22  1  0
 12 23  1  0
 13 24  1  0
 14 25  1  0
M  ISO  8  18  14  19  14  20  14  21  14  22  14  23  14  24  14  25  14
M  END
>  <minimizedAffinity>  (1) 
-4.4505291

>  <minimizedRMSD>  (1) 
0.425505221

$$$$
