
     RDKit          3D

 25 27  0  0  0  0  0  0  0  0999 V2000
   37.4820   21.9830   34.8200 C   0  0  0  0  0  0  0  0  0  0  0  0
   36.3580   21.1600   34.8880 C   0  0  0  0  0  0  0  0  0  0  0  0
   35.8500   20.7910   33.6510 C   0  0  0  0  0  0  0  0  0  0  0  0
   36.3780   21.1790   32.4700 N   0  0  0  0  0  0  0  0  0  0  0  0
   37.4730   21.9800   32.4680 C   0  0  0  0  0  0  0  0  0  0  0  0
   37.9980   22.3620   33.6560 N   0  0  0  0  0  0  0  0  0  0  0  0
   39.9370   22.6500   37.4670 C   0  0  0  0  0  0  0  0  0  0  0  0
   39.1700   23.2730   38.4680 C   0  0  0  0  0  0  0  0  0  0  0  0
   37.8010   23.4510   38.2020 C   0  0  0  0  0  0  0  0  0  0  0  0
   37.3110   23.0150   37.0080 N   0  0  0  0  0  0  0  0  0  0  0  0
   38.0870   22.4220   36.0780 C   0  0  0  0  0  0  0  0  0  0  0  0
   39.3980   22.2370   36.3020 N   0  0  0  0  0  0  0  0  0  0  0  0
   38.1060   22.4460   31.2390 C   0  0  0  0  0  0  0  0  0  0  0  0
   37.9160   23.7170   30.7030 C   0  0  0  0  0  0  0  0  0  0  0  0
   38.6420   23.8080   29.5750 N   0  0  0  0  0  0  0  0  0  0  0  0
   39.2940   22.6280   29.3730 C   0  0  0  0  0  0  0  0  0  0  0  0
   38.9500   21.8250   30.3960 N   0  0  0  0  0  0  0  0  0  0  0  0
   35.9133   20.8322   35.8392 H   0  0  0  0  0  0  0  0  0  0  0  0
   34.9620   20.1421   33.6307 H   0  0  0  0  0  0  0  0  0  0  0  0
   41.0121   22.4945   37.6403 H   0  0  0  0  0  0  0  0  0  0  0  0
   39.6203   23.6055   39.4149 H   0  0  0  0  0  0  0  0  0  0  0  0
   37.1415   23.9307   38.9402 H   0  0  0  0  0  0  0  0  0  0  0  0
   37.2821   24.5090   31.1285 H   0  0  0  0  0  0  0  0  0  0  0  0
   39.9676   22.3814   28.5391 H   0  0  0  0  0  0  0  0  0  0  0  0
   39.2889   20.8600   30.5178 H   0  0  0  0  0  0  0  0  0  0  0  0
  1  2  2  0
  1 11  1  0
  3  2  1  0
  4  3  2  0
  5  4  1  0
  5  6  2  0
  6  1  1  0
  7  8  2  0
  9  8  1  0
 10  9  2  0
 11 12  2  0
 11 10  1  0
 12  7  1  0
 13  5  1  0
 14 13  2  0
 15 14  1  0
 16 15  2  0
 16 17  1  0
 17 13  1  0
  2 18  1  0
  3 19  1  0
  7 20  1  0
  8 21  1  0
  9 22  1  0
 14 23  1  0
 16 24  1  0
 17 25  1  0
M  ISO  8  18  14  19  14  20  14  21  14  22  14  23  14  24  14  25   9
M  END
>  <minimizedAffinity>  (1) 
-4.17622232

>  <minimizedRMSD>  (1) 
0.614520907

$$$$
