
     RDKit          3D

 19 20  0  0  0  0  0  0  0  0999 V2000
   37.2110   21.8480   34.9600 C   0  0  0  0  0  0  0  0  0  0  0  0
   36.1590   20.9470   35.1690 C   0  0  0  0  0  0  0  0  0  0  0  0
   35.5170   20.5340   34.0100 C   0  0  0  0  0  0  0  0  0  0  0  0
   35.8440   20.9430   32.7720 N   0  0  0  0  0  0  0  0  0  0  0  0
   36.8800   21.8250   32.6250 C   0  0  0  0  0  0  0  0  0  0  0  0
   37.5520   22.2670   33.7300 N   0  0  0  0  0  0  0  0  0  0  0  0
   39.9470   22.6380   37.2820 C   0  0  0  0  0  0  0  0  0  0  0  0
   39.2730   23.3010   38.3390 C   0  0  0  0  0  0  0  0  0  0  0  0
   37.8870   23.4560   38.2160 C   0  0  0  0  0  0  0  0  0  0  0  0
   37.2720   22.9650   37.1010 N   0  0  0  0  0  0  0  0  0  0  0  0
   37.9510   22.3420   36.1210 C   0  0  0  0  0  0  0  0  0  0  0  0
   39.2670   22.1810   36.2110 N   0  0  0  0  0  0  0  0  0  0  0  0
   37.4820   22.4940   31.0780 S   0  0  0  0  0  0  0  0  0  0  0  0
   35.8659   20.5958   36.1694 H   0  0  0  0  0  0  0  0  0  0  0  0
   34.6835   19.8233   34.1114 H   0  0  0  0  0  0  0  0  0  0  0  0
   41.0363   22.4950   37.3364 H   0  0  0  0  0  0  0  0  0  0  0  0
   39.8162   23.6776   39.2183 H   0  0  0  0  0  0  0  0  0  0  0  0
   37.3063   23.9625   39.0010 H   0  0  0  0  0  0  0  0  0  0  0  0
   38.3824   23.4946   31.3328 H   0  0  0  0  0  0  0  0  0  0  0  0
  1  2  2  0
  1 11  1  0
  3  2  1  0
  4  3  2  0
  5  4  1  0
  5  6  2  0
  6  1  1  0
  7  8  2  0
  9  8  1  0
 10  9  2  0
 11 12  2  0
 11 10  1  0
 12  7  1  0
 13  5  1  0
  2 14  1  0
  3 15  1  0
  7 16  1  0
  8 17  1  0
  9 18  1  0
 13 19  1  0
M  ISO  6  14  14  15  14  16  14  17  14  18  14  19  11
M  END
>  <minimizedAffinity>  (1) 
-3.9464457

>  <minimizedRMSD>  (1) 
0.0338368043

$$$$
