
     RDKit          3D

 31 33  0  0  0  0  0  0  0  0999 V2000
   37.1960   21.8320   35.2370 C   0  0  0  0  0  0  0  0  0  0  0  0
   36.1840   20.9090   35.5510 C   0  0  0  0  0  0  0  0  0  0  0  0
   35.4600   20.4380   34.4810 C   0  0  0  0  0  0  0  0  0  0  0  0
   35.6840   20.8190   33.2110 N   0  0  0  0  0  0  0  0  0  0  0  0
   36.6920   21.7310   32.9460 C   0  0  0  0  0  0  0  0  0  0  0  0
   37.4340   22.2220   33.9780 N   0  0  0  0  0  0  0  0  0  0  0  0
   40.0570   22.6450   37.3750 C   0  0  0  0  0  0  0  0  0  0  0  0
   39.4880   23.4080   38.4230 C   0  0  0  0  0  0  0  0  0  0  0  0
   38.1110   23.6120   38.3410 C   0  0  0  0  0  0  0  0  0  0  0  0
   37.4120   23.0820   37.2920 N   0  0  0  0  0  0  0  0  0  0  0  0
   37.9980   22.3660   36.3250 C   0  0  0  0  0  0  0  0  0  0  0  0
   39.3180   22.1570   36.3800 N   0  0  0  0  0  0  0  0  0  0  0  0
   36.9460   22.1550   31.5580 C   0  0  0  0  0  0  0  0  0  0  0  0
   35.7230   22.8840   31.0200 C   0  0  0  0  0  0  0  0  0  0  0  0
   35.8260   24.3440   31.2240 C   0  0  0  0  0  0  0  0  0  0  0  0
   34.9300   25.3240   30.8500 C   0  0  0  0  0  0  0  0  0  0  0  0
   35.5180   26.5150   31.2840 C   0  0  0  0  0  0  0  0  0  0  0  0
   36.7290   26.1970   31.8920 C   0  0  0  0  0  0  0  0  0  0  0  0
   36.8560   24.8900   31.8260 O   0  0  0  0  0  0  0  0  0  0  0  0
   35.9844   20.5851   36.5831 H   0  0  0  0  0  0  0  0  0  0  0  0
   34.6562   19.7122   34.6739 H   0  0  0  0  0  0  0  0  0  0  0  0
   41.1395   22.4497   37.3826 H   0  0  0  0  0  0  0  0  0  0  0  0
   40.0925   23.8133   39.2478 H   0  0  0  0  0  0  0  0  0  0  0  0
   37.5906   24.1953   39.1149 H   0  0  0  0  0  0  0  0  0  0  0  0
   37.8151   22.8288   31.5334 H   0  0  0  0  0  0  0  0  0  0  0  0
   37.1503   21.2714   30.9355 H   0  0  0  0  0  0  0  0  0  0  0  0
   34.8283   22.5130   31.5415 H   0  0  0  0  0  0  0  0  0  0  0  0
   35.6560   22.6917   29.9390 H   0  0  0  0  0  0  0  0  0  0  0  0
   33.9700   25.1967   30.3283 H   0  0  0  0  0  0  0  0  0  0  0  0
   35.0982   27.5249   31.1660 H   0  0  0  0  0  0  0  0  0  0  0  0
   37.4426   26.9033   32.3413 H   0  0  0  0  0  0  0  0  0  0  0  0
  1  2  2  0
  1 11  1  0
  3  2  1  0
  4  3  2  0
  5  4  1  0
  5  6  2  0
  6  1  1  0
  7  8  2  0
  9  8  1  0
 10  9  2  0
 11 12  2  0
 11 10  1  0
 12  7  1  0
 13  5  1  0
 14 15  1  0
 14 13  1  0
 15 19  1  0
 16 15  2  0
 16 17  1  0
 17 18  2  0
 19 18  1  0
  2 20  1  0
  3 21  1  0
  7 22  1  0
  8 23  1  0
  9 24  1  0
 13 25  1  0
 13 26  1  0
 14 27  1  0
 14 28  1  0
 16 29  1  0
 17 30  1  0
 18 31  1  0
M  ISO  8  20  14  21  14  22  14  23  14  24  14  25   8  26   8  27   8
M  ISO  4  28   8  29  14  30  14  31  14
M  END
>  <minimizedAffinity>  (1) 
-4.96858978

>  <minimizedRMSD>  (1) 
0.954396129

$$$$
