
     RDKit          3D

 31 33  0  0  0  0  0  0  0  0999 V2000
   37.2160   21.9080   35.0810 C   0  0  0  0  0  0  0  0  0  0  0  0
   36.2530   20.9300   35.2930 C   0  0  0  0  0  0  0  0  0  0  0  0
   35.5510   20.5320   34.1760 C   0  0  0  0  0  0  0  0  0  0  0  0
   35.7680   21.0480   32.9460 N   0  0  0  0  0  0  0  0  0  0  0  0
   36.7380   22.0230   32.7810 C   0  0  0  0  0  0  0  0  0  0  0  0
   37.4420   22.4290   33.8660 N   0  0  0  0  0  0  0  0  0  0  0  0
   40.0450   22.6010   37.3120 C   0  0  0  0  0  0  0  0  0  0  0  0
   39.4330   23.3080   38.3980 C   0  0  0  0  0  0  0  0  0  0  0  0
   38.0660   23.5090   38.3020 C   0  0  0  0  0  0  0  0  0  0  0  0
   37.3750   23.0450   37.2180 N   0  0  0  0  0  0  0  0  0  0  0  0
   38.0020   22.3820   36.2160 C   0  0  0  0  0  0  0  0  0  0  0  0
   39.3080   22.1820   36.2950 N   0  0  0  0  0  0  0  0  0  0  0  0
   36.9620   22.5760   31.4330 C   0  0  0  0  0  0  0  0  0  0  0  0
   35.7490   23.4020   31.0290 C   0  0  0  0  0  0  0  0  0  0  0  0
   36.0280   24.8120   31.0640 N   0  0  0  0  0  0  0  0  0  0  0  0
   35.2630   25.8760   31.0910 N   0  0  0  0  0  0  0  0  0  0  0  0
   36.0110   27.0010   31.1200 C   0  0  0  0  0  0  0  0  0  0  0  0
   37.3560   26.6330   31.1120 C   0  0  0  0  0  0  0  0  0  0  0  0
   37.3110   25.2590   31.0760 C   0  0  0  0  0  0  0  0  0  0  0  0
   36.0630   20.5010   36.2879 H   0  0  0  0  0  0  0  0  0  0  0  0
   34.7778   19.7581   34.2909 H   0  0  0  0  0  0  0  0  0  0  0  0
   41.1276   22.4063   37.3234 H   0  0  0  0  0  0  0  0  0  0  0  0
   40.0153   23.6701   39.2581 H   0  0  0  0  0  0  0  0  0  0  0  0
   37.5340   24.0446   39.1020 H   0  0  0  0  0  0  0  0  0  0  0  0
   37.8575   23.2148   31.4405 H   0  0  0  0  0  0  0  0  0  0  0  0
   37.1097   21.7562   30.7146 H   0  0  0  0  0  0  0  0  0  0  0  0
   34.9233   23.1850   31.7227 H   0  0  0  0  0  0  0  0  0  0  0  0
   35.4796   23.1321   29.9972 H   0  0  0  0  0  0  0  0  0  0  0  0
   35.6250   28.0307   31.1455 H   0  0  0  0  0  0  0  0  0  0  0  0
   38.2413   27.2857   31.1301 H   0  0  0  0  0  0  0  0  0  0  0  0
   38.1972   24.6075   31.0591 H   0  0  0  0  0  0  0  0  0  0  0  0
  1  2  2  0
  1 11  1  0
  3  2  1  0
  4  3  2  0
  5  4  1  0
  5  6  2  0
  6  1  1  0
  7  8  2  0
  9  8  1  0
 10  9  2  0
 11 12  2  0
 11 10  1  0
 12  7  1  0
 13  5  1  0
 14 15  1  0
 14 13  1  0
 15 19  1  0
 15 16  1  0
 16 17  2  0
 18 17  1  0
 19 18  2  0
  2 20  1  0
  3 21  1  0
  7 22  1  0
  8 23  1  0
  9 24  1  0
 13 25  1  0
 13 26  1  0
 14 27  1  0
 14 28  1  0
 17 29  1  0
 18 30  1  0
 19 31  1  0
M  ISO  8  20  14  21  14  22  14  23  14  24  14  25   8  26   8  27   8
M  ISO  4  28   8  29  14  30  14  31  14
M  END
>  <minimizedAffinity>  (1) 
-4.78010225

>  <minimizedRMSD>  (1) 
1.08975506

$$$$
