
     RDKit          3D

 35 37  0  0  0  0  0  0  0  0999 V2000
   37.1750   21.9160   34.9640 C   0  0  0  0  0  0  0  0  0  0  0  0
   36.2050   20.9140   35.1530 C   0  0  0  0  0  0  0  0  0  0  0  0
   35.5190   20.5140   34.0250 C   0  0  0  0  0  0  0  0  0  0  0  0
   35.7380   21.0290   32.8140 N   0  0  0  0  0  0  0  0  0  0  0  0
   36.6900   22.0060   32.6600 C   0  0  0  0  0  0  0  0  0  0  0  0
   37.3970   22.4330   33.7550 N   0  0  0  0  0  0  0  0  0  0  0  0
   39.9700   22.5920   37.2270 C   0  0  0  0  0  0  0  0  0  0  0  0
   39.3520   23.2600   38.3170 C   0  0  0  0  0  0  0  0  0  0  0  0
   37.9790   23.4480   38.2150 C   0  0  0  0  0  0  0  0  0  0  0  0
   37.3030   22.9980   37.1120 N   0  0  0  0  0  0  0  0  0  0  0  0
   37.9250   22.3740   36.1100 C   0  0  0  0  0  0  0  0  0  0  0  0
   39.2340   22.1900   36.1960 N   0  0  0  0  0  0  0  0  0  0  0  0
   36.9650   22.6050   31.3230 C   0  0  0  0  0  0  0  0  0  0  0  0
   35.9440   23.7080   31.0690 C   0  0  0  0  0  0  0  0  0  0  0  0
   36.7000   24.8750   30.6710 N   0  0  0  0  0  0  0  0  0  0  0  0
   36.5970   26.0290   31.5290 C   0  0  0  0  0  0  0  0  0  0  0  0
   37.1330   26.0060   32.7940 C   0  0  0  0  0  0  0  0  0  0  0  0
   37.0220   27.1260   33.5980 C   0  0  0  0  0  0  0  0  0  0  0  0
   36.3720   28.2680   33.1270 C   0  0  0  0  0  0  0  0  0  0  0  0
   35.8400   28.2550   31.8340 C   0  0  0  0  0  0  0  0  0  0  0  0
   35.9750   27.1410   31.0920 N   0  0  0  0  0  0  0  0  0  0  0  0
   36.0056   20.4756   36.1420 H   0  0  0  0  0  0  0  0  0  0  0  0
   34.7532   19.7313   34.1293 H   0  0  0  0  0  0  0  0  0  0  0  0
   41.0544   22.4078   37.2359 H   0  0  0  0  0  0  0  0  0  0  0  0
   39.9253   23.6075   39.1891 H   0  0  0  0  0  0  0  0  0  0  0  0
   37.4337   23.9594   39.0219 H   0  0  0  0  0  0  0  0  0  0  0  0
   37.9802   23.0282   31.3075 H   0  0  0  0  0  0  0  0  0  0  0  0
   36.8901   21.8343   30.5417 H   0  0  0  0  0  0  0  0  0  0  0  0
   35.2526   23.4100   30.2670 H   0  0  0  0  0  0  0  0  0  0  0  0
   35.3400   23.9089   31.9661 H   0  0  0  0  0  0  0  0  0  0  0  0
   37.2807   24.8813   29.8203 H   0  0  0  0  0  0  0  0  0  0  0  0
   37.6454   25.1056   33.1637 H   0  0  0  0  0  0  0  0  0  0  0  0
   37.4475   27.1167   34.6123 H   0  0  0  0  0  0  0  0  0  0  0  0
   36.2800   29.1619   33.7615 H   0  0  0  0  0  0  0  0  0  0  0  0
   35.3216   29.1378   31.4316 H   0  0  0  0  0  0  0  0  0  0  0  0
  1  2  2  0
  1 11  1  0
  3  2  1  0
  4  3  2  0
  5  4  1  0
  5  6  2  0
  6  1  1  0
  7  8  2  0
  9  8  1  0
 10  9  2  0
 11 12  2  0
 11 10  1  0
 12  7  1  0
 13  5  1  0
 14 13  1  0
 15 14  1  0
 15 16  1  0
 16 17  2  0
 17 18  1  0
 19 18  2  0
 20 19  1  0
 21 16  1  0
 21 20  2  0
  2 22  1  0
  3 23  1  0
  7 24  1  0
  8 25  1  0
  9 26  1  0
 13 27  1  0
 13 28  1  0
 14 29  1  0
 14 30  1  0
 15 31  1  0
 17 32  1  0
 18 33  1  0
 19 34  1  0
 20 35  1  0
M  ISO  8  22  14  23  14  24  14  25  14  26  14  27   8  28   8  29   8
M  ISO  5  30   8  32  14  33  14  34  14  35  14
M  END
>  <minimizedAffinity>  (1) 
-5.28981543

>  <minimizedRMSD>  (1) 
1.48258507

$$$$
