
     RDKit          3D

 36 38  0  0  0  0  0  0  0  0999 V2000
   37.1990   21.9540   34.7680 C   0  0  0  0  0  0  0  0  0  0  0  0
   36.2550   20.9270   34.9260 C   0  0  0  0  0  0  0  0  0  0  0  0
   35.5450   20.5800   33.8010 C   0  0  0  0  0  0  0  0  0  0  0  0
   35.7160   21.1600   32.6140 N   0  0  0  0  0  0  0  0  0  0  0  0
   36.6480   22.1650   32.4840 C   0  0  0  0  0  0  0  0  0  0  0  0
   37.3660   22.5310   33.5840 N   0  0  0  0  0  0  0  0  0  0  0  0
   40.0260   22.4760   37.0370 C   0  0  0  0  0  0  0  0  0  0  0  0
   39.4330   23.1470   38.1430 C   0  0  0  0  0  0  0  0  0  0  0  0
   38.0660   23.3890   38.0450 C   0  0  0  0  0  0  0  0  0  0  0  0
   37.3850   22.9860   36.9360 N   0  0  0  0  0  0  0  0  0  0  0  0
   37.9720   22.3590   35.9180 C   0  0  0  0  0  0  0  0  0  0  0  0
   39.2760   22.1180   35.9910 N   0  0  0  0  0  0  0  0  0  0  0  0
   36.8740   22.8420   31.1780 C   0  0  0  0  0  0  0  0  0  0  0  0
   35.8570   23.9730   31.0490 C   0  0  0  0  0  0  0  0  0  0  0  0
   36.6000   25.1790   30.8220 N   0  0  0  0  0  0  0  0  0  0  0  0
   36.5520   26.1970   31.8150 C   0  0  0  0  0  0  0  0  0  0  0  0
   35.8800   27.3910   31.5620 C   0  0  0  0  0  0  0  0  0  0  0  0
   35.8510   28.3540   32.5430 C   0  0  0  0  0  0  0  0  0  0  0  0
   36.4510   28.2060   33.7640 C   0  0  0  0  0  0  0  0  0  0  0  0
   37.1280   27.0230   34.0430 C   0  0  0  0  0  0  0  0  0  0  0  0
   37.1430   26.0780   33.0480 C   0  0  0  0  0  0  0  0  0  0  0  0
   36.0929   20.4290   35.8933 H   0  0  0  0  0  0  0  0  0  0  0  0
   34.7949   19.7799   33.8856 H   0  0  0  0  0  0  0  0  0  0  0  0
   41.1029   22.2519   37.0433 H   0  0  0  0  0  0  0  0  0  0  0  0
   40.0190   23.4554   39.0213 H   0  0  0  0  0  0  0  0  0  0  0  0
   37.5370   23.9041   38.8604 H   0  0  0  0  0  0  0  0  0  0  0  0
   37.8942   23.2518   31.1419 H   0  0  0  0  0  0  0  0  0  0  0  0
   36.7551   22.1259   30.3515 H   0  0  0  0  0  0  0  0  0  0  0  0
   35.1820   23.7797   30.2022 H   0  0  0  0  0  0  0  0  0  0  0  0
   35.2424   24.0548   31.9576 H   0  0  0  0  0  0  0  0  0  0  0  0
   37.1537   25.3047   29.9627 H   0  0  0  0  0  0  0  0  0  0  0  0
   35.3821   27.5600   30.5958 H   0  0  0  0  0  0  0  0  0  0  0  0
   35.3172   29.2931   32.3354 H   0  0  0  0  0  0  0  0  0  0  0  0
   36.3988   29.0098   34.5131 H   0  0  0  0  0  0  0  0  0  0  0  0
   37.6248   26.8541   35.0098 H   0  0  0  0  0  0  0  0  0  0  0  0
   37.6774   25.1397   33.2578 H   0  0  0  0  0  0  0  0  0  0  0  0
  1  2  2  0
  1 11  1  0
  3  2  1  0
  4  3  2  0
  5  4  1  0
  5  6  2  0
  6  1  1  0
  7  8  2  0
  9  8  1  0
 10  9  2  0
 11 12  2  0
 11 10  1  0
 12  7  1  0
 13  5  1  0
 14 13  1  0
 15 14  1  0
 15 16  1  0
 16 21  1  0
 17 16  2  0
 17 18  1  0
 18 19  2  0
 19 20  1  0
 21 20  2  0
  2 22  1  0
  3 23  1  0
  7 24  1  0
  8 25  1  0
  9 26  1  0
 13 27  1  0
 13 28  1  0
 14 29  1  0
 14 30  1  0
 15 31  1  0
 17 32  1  0
 18 33  1  0
 19 34  1  0
 20 35  1  0
 21 36  1  0
M  ISO  8  22  14  23  14  24  14  25  14  26  14  27   8  28   8  29   8
M  ISO  6  30   8  32  14  33  14  34  14  35  14  36  14
M  END
>  <minimizedAffinity>  (1) 
-5.33469725

>  <minimizedRMSD>  (1) 
1.85193932

$$$$
