
     RDKit          3D

 41 43  0  0  0  0  0  0  0  0999 V2000
   37.1860   21.8630   35.0140 C   0  0  0  0  0  0  0  0  0  0  0  0
   36.1660   20.9320   35.2420 C   0  0  0  0  0  0  0  0  0  0  0  0
   35.4900   20.5060   34.1190 C   0  0  0  0  0  0  0  0  0  0  0  0
   35.7560   20.9260   32.8800 N   0  0  0  0  0  0  0  0  0  0  0  0
   36.7710   21.8450   32.6970 C   0  0  0  0  0  0  0  0  0  0  0  0
   37.4640   22.2930   33.7750 N   0  0  0  0  0  0  0  0  0  0  0  0
   39.9770   22.6270   37.2750 C   0  0  0  0  0  0  0  0  0  0  0  0
   39.3410   23.3140   38.3450 C   0  0  0  0  0  0  0  0  0  0  0  0
   37.9540   23.4840   38.2370 C   0  0  0  0  0  0  0  0  0  0  0  0
   37.3110   22.9930   37.1380 N   0  0  0  0  0  0  0  0  0  0  0  0
   37.9420   22.3550   36.1550 C   0  0  0  0  0  0  0  0  0  0  0  0
   39.2440   22.1940   36.2560 N   0  0  0  0  0  0  0  0  0  0  0  0
   37.1000   22.3390   31.3290 C   0  0  0  0  0  0  0  0  0  0  0  0
   36.2040   23.5460   31.0290 C   0  0  0  0  0  0  0  0  0  0  0  0
   37.0720   24.6140   30.6010 N   0  0  0  0  0  0  0  0  0  0  0  0
   36.9300   28.1040   32.5380 N   0  0  0  0  0  0  0  0  0  0  0  0
   35.8440   27.9610   31.6090 C   0  0  0  0  0  0  0  0  0  0  0  0
   35.6040   26.4660   31.3590 C   0  0  0  0  0  0  0  0  0  0  0  0
   36.9510   25.8310   31.3160 C   0  0  0  0  0  0  0  0  0  0  0  0
   37.4990   25.7390   32.7240 C   0  0  0  0  0  0  0  0  0  0  0  0
   37.0570   26.9930   33.4510 C   0  0  0  0  0  0  0  0  0  0  0  0
   35.9205   20.5651   36.2495 H   0  0  0  0  0  0  0  0  0  0  0  0
   34.6801   19.7736   34.2520 H   0  0  0  0  0  0  0  0  0  0  0  0
   41.0635   22.4562   37.2911 H   0  0  0  0  0  0  0  0  0  0  0  0
   39.9063   23.6913   39.2099 H   0  0  0  0  0  0  0  0  0  0  0  0
   37.3922   24.0053   39.0261 H   0  0  0  0  0  0  0  0  0  0  0  0
   38.1572   22.6398   31.2857 H   0  0  0  0  0  0  0  0  0  0  0  0
   36.9303   21.5452   30.5867 H   0  0  0  0  0  0  0  0  0  0  0  0
   35.4884   23.2972   30.2315 H   0  0  0  0  0  0  0  0  0  0  0  0
   35.6269   23.8394   31.9183 H   0  0  0  0  0  0  0  0  0  0  0  0
   38.0444   24.2877   30.6948 H   0  0  0  0  0  0  0  0  0  0  0  0
   36.7781   28.9618   33.0875 H   0  0  0  0  0  0  0  0  0  0  0  0
   34.9352   28.4166   32.0290 H   0  0  0  0  0  0  0  0  0  0  0  0
   36.0916   28.4642   30.6627 H   0  0  0  0  0  0  0  0  0  0  0  0
   35.0047   26.0343   32.1741 H   0  0  0  0  0  0  0  0  0  0  0  0
   35.0520   26.2995   30.4222 H   0  0  0  0  0  0  0  0  0  0  0  0
   37.5700   26.5000   30.7002 H   0  0  0  0  0  0  0  0  0  0  0  0
   37.0977   24.8478   33.2287 H   0  0  0  0  0  0  0  0  0  0  0  0
   38.5957   25.6549   32.7150 H   0  0  0  0  0  0  0  0  0  0  0  0
   37.8017   27.2436   34.2208 H   0  0  0  0  0  0  0  0  0  0  0  0
   36.0757   26.8037   33.9105 H   0  0  0  0  0  0  0  0  0  0  0  0
  1  2  2  0
  1 11  1  0
  3  2  1  0
  4  3  2  0
  5  4  1  0
  5  6  2  0
  6  1  1  0
  7  8  2  0
  9  8  1  0
 10  9  2  0
 11 12  2  0
 11 10  1  0
 12  7  1  0
 13  5  1  0
 14 13  1  0
 15 14  1  0
 15 19  1  0
 16 21  1  0
 17 16  1  0
 18 17  1  0
 19 18  1  0
 19 20  1  0
 20 21  1  0
  2 22  1  0
  3 23  1  0
  7 24  1  0
  8 25  1  0
  9 26  1  0
 13 27  1  0
 13 28  1  0
 14 29  1  0
 14 30  1  0
 15 31  1  0
 16 32  1  0
 17 33  1  0
 17 34  1  0
 18 35  1  0
 18 36  1  0
 19 37  1  0
 20 38  1  0
 20 39  1  0
 21 40  1  0
 21 41  1  0
M  ISO  8  22  14  23  14  24  14  25  14  26  14  27   8  28   8  29   8
M  ISO  8  30   8  31   5  32   5  33  13  34  13  35  13  36  13  37  13
M  ISO  4  38  13  39  13  40  13  41  13
M  END
>  <minimizedAffinity>  (1) 
-5.12259722

>  <minimizedRMSD>  (1) 
1.14895213

$$$$
