
     RDKit          3D

 42 44  0  0  0  0  0  0  0  0999 V2000
   37.1720   21.8920   34.8940 C   0  0  0  0  0  0  0  0  0  0  0  0
   36.1950   20.9060   35.0800 C   0  0  0  0  0  0  0  0  0  0  0  0
   35.5260   20.5170   33.9370 C   0  0  0  0  0  0  0  0  0  0  0  0
   35.7670   21.0190   32.7290 N   0  0  0  0  0  0  0  0  0  0  0  0
   36.7320   21.9850   32.5750 C   0  0  0  0  0  0  0  0  0  0  0  0
   37.4200   22.4020   33.6850 N   0  0  0  0  0  0  0  0  0  0  0  0
   39.9270   22.6030   37.2140 C   0  0  0  0  0  0  0  0  0  0  0  0
   39.2870   23.2610   38.2870 C   0  0  0  0  0  0  0  0  0  0  0  0
   37.9090   23.4350   38.1670 C   0  0  0  0  0  0  0  0  0  0  0  0
   37.2710   22.9710   37.0440 N   0  0  0  0  0  0  0  0  0  0  0  0
   37.9180   22.3520   36.0510 C   0  0  0  0  0  0  0  0  0  0  0  0
   39.2100   22.1910   36.1690 N   0  0  0  0  0  0  0  0  0  0  0  0
   37.0400   22.5790   31.2500 C   0  0  0  0  0  0  0  0  0  0  0  0
   36.1040   23.7380   31.0010 C   0  0  0  0  0  0  0  0  0  0  0  0
   36.8780   24.8560   30.5550 N   0  0  0  0  0  0  0  0  0  0  0  0
   36.9950   25.9360   31.5260 C   0  0  0  0  0  0  0  0  0  0  0  0
   35.7040   26.7050   31.4770 C   0  0  0  0  0  0  0  0  0  0  0  0
   35.8350   28.0630   32.1030 C   0  0  0  0  0  0  0  0  0  0  0  0
   36.9210   28.9030   31.5030 C   0  0  0  0  0  0  0  0  0  0  0  0
   37.9850   28.1370   30.7830 C   0  0  0  0  0  0  0  0  0  0  0  0
   38.2250   26.7560   31.2970 C   0  0  0  0  0  0  0  0  0  0  0  0
   35.9763   20.4723   36.0669 H   0  0  0  0  0  0  0  0  0  0  0  0
   34.7471   19.7459   34.0307 H   0  0  0  0  0  0  0  0  0  0  0  0
   41.0132   22.4312   37.2406 H   0  0  0  0  0  0  0  0  0  0  0  0
   39.8437   23.6159   39.1669 H   0  0  0  0  0  0  0  0  0  0  0  0
   37.3400   23.9381   38.9627 H   0  0  0  0  0  0  0  0  0  0  0  0
   38.0803   22.9362   31.2388 H   0  0  0  0  0  0  0  0  0  0  0  0
   36.9101   21.8209   30.4636 H   0  0  0  0  0  0  0  0  0  0  0  0
   35.3695   23.4632   30.2296 H   0  0  0  0  0  0  0  0  0  0  0  0
   35.5666   23.9952   31.9257 H   0  0  0  0  0  0  0  0  0  0  0  0
   37.8259   24.5217   30.3299 H   0  0  0  0  0  0  0  0  0  0  0  0
   37.1350   25.5541   32.5480 H   0  0  0  0  0  0  0  0  0  0  0  0
   35.4022   26.8259   30.4262 H   0  0  0  0  0  0  0  0  0  0  0  0
   34.9500   26.1401   32.0448 H   0  0  0  0  0  0  0  0  0  0  0  0
   34.8792   28.5941   31.9827 H   0  0  0  0  0  0  0  0  0  0  0  0
   36.0986   27.9049   33.1592 H   0  0  0  0  0  0  0  0  0  0  0  0
   36.4586   29.5997   30.7883 H   0  0  0  0  0  0  0  0  0  0  0  0
   37.4198   29.4083   32.3432 H   0  0  0  0  0  0  0  0  0  0  0  0
   38.9262   28.7003   30.8656 H   0  0  0  0  0  0  0  0  0  0  0  0
   37.6340   28.0229   29.7468 H   0  0  0  0  0  0  0  0  0  0  0  0
   38.8553   26.2266   30.5673 H   0  0  0  0  0  0  0  0  0  0  0  0
   38.6980   26.8764   32.2828 H   0  0  0  0  0  0  0  0  0  0  0  0
  1  2  2  0
  1 11  1  0
  3  2  1  0
  4  3  2  0
  5  4  1  0
  5  6  2  0
  6  1  1  0
  7  8  2  0
  9  8  1  0
 10  9  2  0
 11 12  2  0
 11 10  1  0
 12  7  1  0
 13  5  1  0
 14 13  1  0
 15 14  1  0
 15 16  1  0
 17 16  1  0
 17 18  1  0
 19 18  1  0
 20 21  1  0
 20 19  1  0
 21 16  1  0
  2 22  1  0
  3 23  1  0
  7 24  1  0
  8 25  1  0
  9 26  1  0
 13 27  1  0
 13 28  1  0
 14 29  1  0
 14 30  1  0
 15 31  1  0
 16 32  1  0
 17 33  1  0
 17 34  1  0
 18 35  1  0
 18 36  1  0
 19 37  1  0
 19 38  1  0
 20 39  1  0
 20 40  1  0
 21 41  1  0
 21 42  1  0
M  ISO  8  22  14  23  14  24  14  25  14  26  14  27   8  28   8  29   8
M  ISO  8  30   8  31   5  32  13  33  13  34  13  35  13  36  13  37  13
M  ISO  5  38  13  39  13  40  13  41  13  42  13
M  END
>  <minimizedAffinity>  (1) 
-5.18294954

>  <minimizedRMSD>  (1) 
2.4491334

$$$$
