
     RDKit          3D

 39 41  0  0  0  0  0  0  0  0999 V2000
   37.1830   21.9330   34.7940 C   0  0  0  0  0  0  0  0  0  0  0  0
   36.2440   20.9050   34.9690 C   0  0  0  0  0  0  0  0  0  0  0  0
   35.5320   20.5530   33.8500 C   0  0  0  0  0  0  0  0  0  0  0  0
   35.6960   21.1330   32.6520 N   0  0  0  0  0  0  0  0  0  0  0  0
   36.6270   22.1400   32.5140 C   0  0  0  0  0  0  0  0  0  0  0  0
   37.3420   22.5020   33.6120 N   0  0  0  0  0  0  0  0  0  0  0  0
   40.0350   22.4840   37.0360 C   0  0  0  0  0  0  0  0  0  0  0  0
   39.4460   23.1580   38.1440 C   0  0  0  0  0  0  0  0  0  0  0  0
   38.0800   23.3910   38.0610 C   0  0  0  0  0  0  0  0  0  0  0  0
   37.3770   22.9780   36.9560 N   0  0  0  0  0  0  0  0  0  0  0  0
   37.9700   22.3500   35.9420 C   0  0  0  0  0  0  0  0  0  0  0  0
   39.2590   22.1320   36.0220 N   0  0  0  0  0  0  0  0  0  0  0  0
   36.8530   22.8200   31.2080 C   0  0  0  0  0  0  0  0  0  0  0  0
   35.8040   23.9040   31.0430 C   0  0  0  0  0  0  0  0  0  0  0  0
   36.4950   25.1090   30.7080 N   0  0  0  0  0  0  0  0  0  0  0  0
   36.2350   26.1970   31.6160 C   0  0  0  0  0  0  0  0  0  0  0  0
   37.0460   26.1300   32.8890 C   0  0  0  0  0  0  0  0  0  0  0  0
   36.8740   27.5500   33.4190 C   0  0  0  0  0  0  0  0  0  0  0  0
   36.7960   28.4310   32.1900 C   0  0  0  0  0  0  0  0  0  0  0  0
   36.7450   27.4910   31.0180 C   0  0  0  0  0  0  0  0  0  0  0  0
   36.0887   20.4131   35.9405 H   0  0  0  0  0  0  0  0  0  0  0  0
   34.7852   19.7505   33.9407 H   0  0  0  0  0  0  0  0  0  0  0  0
   41.1120   22.2605   37.0227 H   0  0  0  0  0  0  0  0  0  0  0  0
   40.0389   23.4753   39.0145 H   0  0  0  0  0  0  0  0  0  0  0  0
   37.5600   23.9072   38.8815 H   0  0  0  0  0  0  0  0  0  0  0  0
   37.8569   23.2694   31.1922 H   0  0  0  0  0  0  0  0  0  0  0  0
   36.7770   22.0931   30.3859 H   0  0  0  0  0  0  0  0  0  0  0  0
   35.1050   23.6334   30.2379 H   0  0  0  0  0  0  0  0  0  0  0  0
   35.2222   24.0302   31.9680 H   0  0  0  0  0  0  0  0  0  0  0  0
   37.5067   24.9159   30.7130 H   0  0  0  0  0  0  0  0  0  0  0  0
   35.1526   26.1403   31.8036 H   0  0  0  0  0  0  0  0  0  0  0  0
   36.6385   25.3855   33.5888 H   0  0  0  0  0  0  0  0  0  0  0  0
   38.0925   25.8238   32.7442 H   0  0  0  0  0  0  0  0  0  0  0  0
   35.9497   27.6310   34.0099 H   0  0  0  0  0  0  0  0  0  0  0  0
   37.7026   27.8430   34.0805 H   0  0  0  0  0  0  0  0  0  0  0  0
   35.8900   29.0540   32.2216 H   0  0  0  0  0  0  0  0  0  0  0  0
   37.6556   29.1143   32.1252 H   0  0  0  0  0  0  0  0  0  0  0  0
   37.7454   27.3538   30.5817 H   0  0  0  0  0  0  0  0  0  0  0  0
   36.1085   27.8627   30.2015 H   0  0  0  0  0  0  0  0  0  0  0  0
  1  2  2  0
  1 11  1  0
  3  2  1  0
  4  3  2  0
  5  4  1  0
  5  6  2  0
  6  1  1  0
  7  8  2  0
  9  8  1  0
 10  9  2  0
 11 12  2  0
 11 10  1  0
 12  7  1  0
 13  5  1  0
 14 13  1  0
 15 14  1  0
 15 16  1  0
 16 17  1  0
 17 18  1  0
 19 18  1  0
 20 16  1  0
 20 19  1  0
  2 21  1  0
  3 22  1  0
  7 23  1  0
  8 24  1  0
  9 25  1  0
 13 26  1  0
 13 27  1  0
 14 28  1  0
 14 29  1  0
 15 30  1  0
 16 31  1  0
 17 32  1  0
 17 33  1  0
 18 34  1  0
 18 35  1  0
 19 36  1  0
 19 37  1  0
 20 38  1  0
 20 39  1  0
M  ISO  8  21  14  22  14  23  14  24  14  25  14  26   8  27   8  28   8
M  ISO  8  29   8  30   5  31  13  32  13  33  13  34  13  35  13  36  13
M  ISO  3  37  13  38  13  39  13
M  END
>  <minimizedAffinity>  (1) 
-5.0452137

>  <minimizedRMSD>  (1) 
1.12855899

$$$$
