
     RDKit          3D

 33 35  0  0  0  0  0  0  0  0999 V2000
   37.2130   21.9440   34.8210 C   0  0  0  0  0  0  0  0  0  0  0  0
   36.2680   20.9090   34.9980 C   0  0  0  0  0  0  0  0  0  0  0  0
   35.5400   20.5610   33.8790 C   0  0  0  0  0  0  0  0  0  0  0  0
   35.6990   21.1510   32.6860 N   0  0  0  0  0  0  0  0  0  0  0  0
   36.6320   22.1610   32.5480 C   0  0  0  0  0  0  0  0  0  0  0  0
   37.3640   22.5240   33.6330 N   0  0  0  0  0  0  0  0  0  0  0  0
   40.0550   22.4820   37.0570 C   0  0  0  0  0  0  0  0  0  0  0  0
   39.4630   23.1550   38.1650 C   0  0  0  0  0  0  0  0  0  0  0  0
   38.0920   23.4000   38.1010 C   0  0  0  0  0  0  0  0  0  0  0  0
   37.4060   22.9850   36.9890 N   0  0  0  0  0  0  0  0  0  0  0  0
   38.0090   22.3520   35.9640 C   0  0  0  0  0  0  0  0  0  0  0  0
   39.2960   22.1260   36.0320 N   0  0  0  0  0  0  0  0  0  0  0  0
   36.8440   22.8460   31.2400 C   0  0  0  0  0  0  0  0  0  0  0  0
   35.7130   23.8580   31.0530 C   0  0  0  0  0  0  0  0  0  0  0  0
   36.3340   25.0850   30.6200 N   0  0  0  0  0  0  0  0  0  0  0  0
   35.7090   26.2680   31.1960 C   0  0  0  0  0  0  0  0  0  0  0  0
   36.4940   27.0730   32.1880 C   0  0  0  0  0  0  0  0  0  0  0  0
   36.3970   27.5660   30.7870 C   0  0  0  0  0  0  0  0  0  0  0  0
   36.1217   20.4113   35.9680 H   0  0  0  0  0  0  0  0  0  0  0  0
   34.7920   19.7596   33.9703 H   0  0  0  0  0  0  0  0  0  0  0  0
   41.1324   22.2603   37.0533 H   0  0  0  0  0  0  0  0  0  0  0  0
   40.0619   23.4676   39.0331 H   0  0  0  0  0  0  0  0  0  0  0  0
   37.5730   23.9142   38.9234 H   0  0  0  0  0  0  0  0  0  0  0  0
   37.8138   23.3651   31.2424 H   0  0  0  0  0  0  0  0  0  0  0  0
   36.8441   22.1141   30.4188 H   0  0  0  0  0  0  0  0  0  0  0  0
   35.0044   23.5005   30.2914 H   0  0  0  0  0  0  0  0  0  0  0  0
   35.1490   24.0035   31.9861 H   0  0  0  0  0  0  0  0  0  0  0  0
   37.3255   25.0681   30.8984 H   0  0  0  0  0  0  0  0  0  0  0  0
   34.6913   25.8505   31.1975 H   0  0  0  0  0  0  0  0  0  0  0  0
   35.9701   27.6090   32.9931 H   0  0  0  0  0  0  0  0  0  0  0  0
   37.3282   26.8524   32.8702 H   0  0  0  0  0  0  0  0  0  0  0  0
   37.2796   27.5387   30.1310 H   0  0  0  0  0  0  0  0  0  0  0  0
   36.0737   28.5034   30.3109 H   0  0  0  0  0  0  0  0  0  0  0  0
  1  2  2  0
  1 11  1  0
  3  2  1  0
  4  3  2  0
  5  4  1  0
  5  6  2  0
  6  1  1  0
  7  8  2  0
  9  8  1  0
 10  9  2  0
 11 12  2  0
 11 10  1  0
 12  7  1  0
 13  5  1  0
 14 13  1  0
 15 14  1  0
 15 16  1  0
 16 17  1  0
 18 16  1  0
 18 17  1  0
  2 19  1  0
  3 20  1  0
  7 21  1  0
  8 22  1  0
  9 23  1  0
 13 24  1  0
 13 25  1  0
 14 26  1  0
 14 27  1  0
 15 28  1  0
 16 29  1  0
 17 30  1  0
 17 31  1  0
 18 32  1  0
 18 33  1  0
M  ISO  8  19  14  20  14  21  14  22  14  23  14  24   8  25   8  26   8
M  ISO  7  27   8  28   5  29  13  30  13  31  13  32  13  33  13
M  END
>  <minimizedAffinity>  (1) 
-4.59070778

>  <minimizedRMSD>  (1) 
1.03561568

$$$$
