
     RDKit          3D

 51 54  0  0  1  0  0  0  0  0999 V2000
   36.0550   23.5340   31.0420 C   0  0  0  0  0  0  0  0  0  0  0  0
   37.0890   22.4910   31.4130 C   0  0  0  0  0  0  0  0  0  0  0  0
   37.2000   21.9400   35.0950 C   0  0  0  0  0  0  0  0  0  0  0  0
   36.2250   20.9590   35.2960 C   0  0  0  0  0  0  0  0  0  0  0  0
   35.5660   20.5250   34.1680 C   0  0  0  0  0  0  0  0  0  0  0  0
   35.8260   20.9990   32.9300 N   0  0  0  0  0  0  0  0  0  0  0  0
   36.7770   21.9520   32.7550 C   0  0  0  0  0  0  0  0  0  0  0  0
   37.4250   22.3790   33.8710 N   0  0  0  0  0  0  0  0  0  0  0  0
   39.9800   22.7140   37.3490 C   0  0  0  0  0  0  0  0  0  0  0  0
   39.3250   23.3790   38.4170 C   0  0  0  0  0  0  0  0  0  0  0  0
   37.9410   23.5450   38.3320 C   0  0  0  0  0  0  0  0  0  0  0  0
   37.3070   23.0540   37.2210 N   0  0  0  0  0  0  0  0  0  0  0  0
   37.9380   22.4370   36.2370 C   0  0  0  0  0  0  0  0  0  0  0  0
   39.2440   22.2870   36.3300 N   0  0  0  0  0  0  0  0  0  0  0  0
   36.7550   24.7620   30.7420 N   0  0  0  0  0  0  0  0  0  0  0  0
   35.8330   25.8940   30.6590 C   0  0  1  0  0  0  0  0  0  0  0  0
   34.4330   25.3920   30.7070 C   0  0  0  0  0  0  0  0  0  0  0  0
   36.1380   26.7470   31.8770 C   0  0  0  0  0  0  0  0  0  0  0  0
   37.6130   26.9310   31.9750 C   0  0  0  0  0  0  0  0  0  0  0  0
   38.6130   27.2420   31.0920 C   0  0  0  0  0  0  0  0  0  0  0  0
   39.9410   27.3930   31.3940 C   0  0  0  0  0  0  0  0  0  0  0  0
   40.3560   27.2270   32.6850 C   0  0  0  0  0  0  0  0  0  0  0  0
   39.4080   26.9110   33.6340 C   0  0  0  0  0  0  0  0  0  0  0  0
   39.9070   26.7540   34.9040 C   0  0  0  0  0  0  0  0  0  0  0  0
   39.0490   26.4300   35.9220 C   0  0  0  0  0  0  0  0  0  0  0  0
   37.7140   26.2720   35.6420 C   0  0  0  0  0  0  0  0  0  0  0  0
   37.2700   26.4420   34.3580 C   0  0  0  0  0  0  0  0  0  0  0  0
   38.0710   26.7670   33.2890 C   0  0  0  0  0  0  0  0  0  0  0  0
   35.4877   23.2015   30.1602 H   0  0  0  0  0  0  0  0  0  0  0  0
   35.3485   23.6869   31.8711 H   0  0  0  0  0  0  0  0  0  0  0  0
   37.0697   21.6752   30.6753 H   0  0  0  0  0  0  0  0  0  0  0  0
   38.0890   22.9492   31.4223 H   0  0  0  0  0  0  0  0  0  0  0  0
   35.9980   20.5581   36.2949 H   0  0  0  0  0  0  0  0  0  0  0  0
   34.7893   19.7542   34.2803 H   0  0  0  0  0  0  0  0  0  0  0  0
   41.0685   22.5563   37.3647 H   0  0  0  0  0  0  0  0  0  0  0  0
   39.8892   23.7521   39.2845 H   0  0  0  0  0  0  0  0  0  0  0  0
   37.3790   24.0526   39.1298 H   0  0  0  0  0  0  0  0  0  0  0  0
   37.4445   24.9450   31.4849 H   0  0  0  0  0  0  0  0  0  0  0  0
   35.9473   26.4681   29.7277 H   0  0  0  0  0  0  0  0  0  0  0  0
   34.1195   25.2796   31.7554 H   0  0  0  0  0  0  0  0  0  0  0  0
   33.7691   26.1081   30.2006 H   0  0  0  0  0  0  0  0  0  0  0  0
   34.3754   24.4172   30.2006 H   0  0  0  0  0  0  0  0  0  0  0  0
   35.6489   27.7269   31.7743 H   0  0  0  0  0  0  0  0  0  0  0  0
   35.7612   26.2524   32.7844 H   0  0  0  0  0  0  0  0  0  0  0  0
   38.3223   27.3840   30.0406 H   0  0  0  0  0  0  0  0  0  0  0  0
   40.6652   27.6452   30.6054 H   0  0  0  0  0  0  0  0  0  0  0  0
   41.4151   27.3421   32.9588 H   0  0  0  0  0  0  0  0  0  0  0  0
   40.9810   26.8866   35.1012 H   0  0  0  0  0  0  0  0  0  0  0  0
   39.4239   26.2985   36.9478 H   0  0  0  0  0  0  0  0  0  0  0  0
   37.0068   26.0109   36.4430 H   0  0  0  0  0  0  0  0  0  0  0  0
   36.1947   26.3089   34.1681 H   0  0  0  0  0  0  0  0  0  0  0  0
  1  2  1  0
  2  7  1  0
  3  4  2  0
  3 13  1  0
  5  4  1  0
  6  5  2  0
  7  6  1  0
  7  8  2  0
  8  3  1  0
  9 10  2  0
 11 10  1  0
 12 11  2  0
 13 14  2  0
 13 12  1  0
 14  9  1  0
 15  1  1  0
 16 17  1  0
 16 15  1  0
 16 18  1  0
 18 19  1  0
 19 28  2  0
 20 21  2  0
 20 19  1  0
 21 22  1  0
 22 23  2  0
 23 24  1  0
 24 25  2  0
 26 25  1  0
 27 26  2  0
 28 23  1  0
 28 27  1  0
  1 29  1  0
  1 30  1  0
  2 31  1  0
  2 32  1  0
  4 33  1  0
  5 34  1  0
  9 35  1  0
 10 36  1  0
 11 37  1  0
 15 38  1  0
 16 39  1  6
 17 40  1  0
 17 41  1  0
 17 42  1  0
 18 43  1  0
 18 44  1  0
 20 45  1  0
 21 46  1  0
 22 47  1  0
 24 48  1  0
 25 49  1  0
 26 50  1  0
 27 51  1  0
M  ISO  8  29   8  30   8  31   8  32   8  33  14  34  14  35  14  36  14
M  ISO  8  37  14  38   5  39   8  40   8  41   8  42   8  43   8  44   8
M  ISO  7  45  14  46  14  47  14  48  14  49  14  50  14  51  14
M  END
>  <minimizedAffinity>  (1) 
-6.30668354

>  <minimizedRMSD>  (1) 
1.59409559

$$$$
