
     RDKit          3D

 27 29  0  0  0  0  0  0  0  0999 V2000
   37.9600   22.7070   34.7290 C   0  0  0  0  0  0  0  0  0  0  0  0
   37.2040   21.6650   34.2480 C   0  0  0  0  0  0  0  0  0  0  0  0
   37.0550   21.9010   32.9240 N   0  0  0  0  0  0  0  0  0  0  0  0
   37.7070   23.0470   32.6590 C   0  0  0  0  0  0  0  0  0  0  0  0
   38.2810   23.5710   33.7600 N   0  0  0  0  0  0  0  0  0  0  0  0
   38.3850   22.8900   36.1110 C   0  0  0  0  0  0  0  0  0  0  0  0
   37.4890   23.4930   37.0280 C   0  0  0  0  0  0  0  0  0  0  0  0
   37.9360   23.6540   38.3600 C   0  0  0  0  0  0  0  0  0  0  0  0
   39.1940   23.2210   38.6690 N   0  0  0  0  0  0  0  0  0  0  0  0
   40.0060   22.6560   37.7650 C   0  0  0  0  0  0  0  0  0  0  0  0
   39.6060   22.4910   36.4960 N   0  0  0  0  0  0  0  0  0  0  0  0
   39.0210   24.7710   33.7330 C   0  0  0  0  0  0  0  0  0  0  0  0
   40.3580   24.7200   33.3780 C   0  0  0  0  0  0  0  0  0  0  0  0
   41.0940   25.9020   33.3500 C   0  0  0  0  0  0  0  0  0  0  0  0
   40.5500   27.1370   33.6610 C   0  0  0  0  0  0  0  0  0  0  0  0
   39.2100   27.1260   34.0080 C   0  0  0  0  0  0  0  0  0  0  0  0
   38.4440   25.9860   34.0510 C   0  0  0  0  0  0  0  0  0  0  0  0
   36.8032   20.8155   34.8205 H   0  0  0  0  0  0  0  0  0  0  0  0
   37.7650   23.5035   31.6599 H   0  0  0  0  0  0  0  0  0  0  0  0
   36.4867   23.8224   36.7167 H   0  0  0  0  0  0  0  0  0  0  0  0
   37.2908   24.1135   39.1232 H   0  0  0  0  0  0  0  0  0  0  0  0
   41.0104   22.3244   38.0670 H   0  0  0  0  0  0  0  0  0  0  0  0
   40.8317   23.7608   33.1220 H   0  0  0  0  0  0  0  0  0  0  0  0
   42.1561   25.8524   33.0679 H   0  0  0  0  0  0  0  0  0  0  0  0
   41.1423   28.0635   33.6341 H   0  0  0  0  0  0  0  0  0  0  0  0
   38.7318   28.0831   34.2635 H   0  0  0  0  0  0  0  0  0  0  0  0
   37.3828   26.0398   34.3355 H   0  0  0  0  0  0  0  0  0  0  0  0
  1  6  1  0
  2  1  2  0
  3  2  1  0
  4  3  2  0
  4  5  1  0
  5  1  1  0
  6 11  1  0
  6  7  2  0
  7  8  1  0
  8  9  2  0
 10  9  1  0
 11 10  2  0
 12  5  1  0
 12 17  1  0
 13 12  2  0
 14 13  1  0
 14 15  2  0
 15 16  1  0
 16 17  2  0
  2 18  1  0
  4 19  1  0
  7 20  1  0
  8 21  1  0
 10 22  1  0
 13 23  1  0
 14 24  1  0
 15 25  1  0
 16 26  1  0
 17 27  1  0
M  ISO  8  18  14  19  14  20  14  21  14  22  14  23  14  24  14  25  14
M  ISO  2  26  14  27  14
M  END
>  <minimizedAffinity>  (1) 
-4.28969336

>  <minimizedRMSD>  (1) 
5.63827753

$$$$
