
     RDKit          3D

 46 49  0  0  1  0  0  0  0  0999 V2000
   36.0850   23.4800   31.0120 C   0  0  0  0  0  0  0  0  0  0  0  0
   37.1480   22.4450   31.4040 C   0  0  0  0  0  0  0  0  0  0  0  0
   37.2210   21.9100   35.0780 C   0  0  0  0  0  0  0  0  0  0  0  0
   36.2110   20.9520   35.2860 C   0  0  0  0  0  0  0  0  0  0  0  0
   35.5450   20.5260   34.1640 C   0  0  0  0  0  0  0  0  0  0  0  0
   35.8170   20.9790   32.9250 N   0  0  0  0  0  0  0  0  0  0  0  0
   36.8140   21.9180   32.7550 C   0  0  0  0  0  0  0  0  0  0  0  0
   37.4980   22.3640   33.8470 N   0  0  0  0  0  0  0  0  0  0  0  0
   39.9730   22.6560   37.3720 C   0  0  0  0  0  0  0  0  0  0  0  0
   39.3080   23.3520   38.4330 C   0  0  0  0  0  0  0  0  0  0  0  0
   37.9280   23.5380   38.3170 C   0  0  0  0  0  0  0  0  0  0  0  0
   37.3030   23.0430   37.1950 N   0  0  0  0  0  0  0  0  0  0  0  0
   37.9580   22.3960   36.2220 C   0  0  0  0  0  0  0  0  0  0  0  0
   39.2530   22.2340   36.3520 N   0  0  0  0  0  0  0  0  0  0  0  0
   36.7780   24.6920   30.7340 N   0  0  0  0  0  0  0  0  0  0  0  0
   35.9520   25.8910   30.7350 C   0  0  1  0  0  0  0  0  0  0  0  0
   34.5320   25.4010   30.9440 C   0  0  0  0  0  0  0  0  0  0  0  0
   36.3630   26.7040   31.9290 C   0  0  0  0  0  0  0  0  0  0  0  0
   36.2890   28.1080   31.6650 N   0  0  0  0  0  0  0  0  0  0  0  0
   36.4610   28.8010   30.5310 C   0  0  0  0  0  0  0  0  0  0  0  0
   36.2950   30.1300   30.7430 N   0  0  0  0  0  0  0  0  0  0  0  0
   36.0070   30.3110   32.0540 C   0  0  0  0  0  0  0  0  0  0  0  0
   35.7510   31.4500   32.7890 C   0  0  0  0  0  0  0  0  0  0  0  0
   35.4950   31.2680   34.0990 N   0  0  0  0  0  0  0  0  0  0  0  0
   35.4980   30.0330   34.6340 C   0  0  0  0  0  0  0  0  0  0  0  0
   35.7480   28.9260   33.9120 N   0  0  0  0  0  0  0  0  0  0  0  0
   36.0120   29.0410   32.5910 C   0  0  0  0  0  0  0  0  0  0  0  0
   35.5382   23.1425   30.1192 H   0  0  0  0  0  0  0  0  0  0  0  0
   35.3515   23.6196   31.8197 H   0  0  0  0  0  0  0  0  0  0  0  0
   37.1519   21.6217   30.6745 H   0  0  0  0  0  0  0  0  0  0  0  0
   38.1440   22.9117   31.4157 H   0  0  0  0  0  0  0  0  0  0  0  0
   35.9698   20.5676   36.2880 H   0  0  0  0  0  0  0  0  0  0  0  0
   34.7486   19.7765   34.2827 H   0  0  0  0  0  0  0  0  0  0  0  0
   41.0579   22.4782   37.4078 H   0  0  0  0  0  0  0  0  0  0  0  0
   39.8629   23.7259   39.3061 H   0  0  0  0  0  0  0  0  0  0  0  0
   37.3589   24.0636   39.0979 H   0  0  0  0  0  0  0  0  0  0  0  0
   37.2125   24.6049   29.8042 H   0  0  0  0  0  0  0  0  0  0  0  0
   36.0460   26.4878   29.8158 H   0  0  0  0  0  0  0  0  0  0  0  0
   34.3238   25.3292   32.0217 H   0  0  0  0  0  0  0  0  0  0  0  0
   33.8282   26.1082   30.4809 H   0  0  0  0  0  0  0  0  0  0  0  0
   34.4141   24.4102   30.4809 H   0  0  0  0  0  0  0  0  0  0  0  0
   35.6961   26.4640   32.7702 H   0  0  0  0  0  0  0  0  0  0  0  0
   37.4071   26.4553   32.1698 H   0  0  0  0  0  0  0  0  0  0  0  0
   36.7046   28.3513   29.5571 H   0  0  0  0  0  0  0  0  0  0  0  0
   35.7556   32.4502   32.3313 H   0  0  0  0  0  0  0  0  0  0  0  0
   35.2869   29.9242   35.7081 H   0  0  0  0  0  0  0  0  0  0  0  0
  1  2  1  0
  2  7  1  0
  3  4  2  0
  3 13  1  0
  5  4  1  0
  6  5  2  0
  7  6  1  0
  7  8  2  0
  8  3  1  0
  9 10  2  0
 11 10  1  0
 12 11  2  0
 13 14  2  0
 13 12  1  0
 14  9  1  0
 15 16  1  0
 15  1  1  0
 16 17  1  0
 16 18  1  0
 19 18  1  0
 19 27  1  0
 20 21  2  0
 20 19  1  0
 21 22  1  0
 22 27  2  0
 22 23  1  0
 23 24  2  0
 24 25  1  0
 26 25  2  0
 27 26  1  0
  1 28  1  0
  1 29  1  0
  2 30  1  0
  2 31  1  0
  4 32  1  0
  5 33  1  0
  9 34  1  0
 10 35  1  0
 11 36  1  0
 15 37  1  0
 16 38  1  6
 17 39  1  0
 17 40  1  0
 17 41  1  0
 18 42  1  0
 18 43  1  0
 20 44  1  0
 23 45  1  0
 25 46  1  0
M  ISO  8  28   8  29   8  30   8  31   8  32  14  33  14  34  14  35  14
M  ISO  8  36  14  37   5  38   8  39   8  40   8  41   8  42   8  43   8
M  ISO  3  44  14  45  14  46  14
M  END
>  <minimizedAffinity>  (1) 
-5.65091038

>  <minimizedRMSD>  (1) 
1.85252988

$$$$
