
     RDKit          3D

 45 47  0  0  1  0  0  0  0  0999 V2000
   36.2050   23.5230   30.9950 C   0  0  0  0  0  0  0  0  0  0  0  0
   37.2060   22.4320   31.3770 C   0  0  0  0  0  0  0  0  0  0  0  0
   37.2300   21.9090   35.0570 C   0  0  0  0  0  0  0  0  0  0  0  0
   36.2040   20.9690   35.2630 C   0  0  0  0  0  0  0  0  0  0  0  0
   35.5410   20.5480   34.1330 C   0  0  0  0  0  0  0  0  0  0  0  0
   35.8410   20.9980   32.8980 N   0  0  0  0  0  0  0  0  0  0  0  0
   36.8540   21.9210   32.7320 C   0  0  0  0  0  0  0  0  0  0  0  0
   37.5340   22.3600   33.8300 N   0  0  0  0  0  0  0  0  0  0  0  0
   39.9670   22.6490   37.3790 C   0  0  0  0  0  0  0  0  0  0  0  0
   39.3010   23.3490   38.4340 C   0  0  0  0  0  0  0  0  0  0  0  0
   37.9130   23.5400   38.2980 C   0  0  0  0  0  0  0  0  0  0  0  0
   37.3100   23.0450   37.1770 N   0  0  0  0  0  0  0  0  0  0  0  0
   37.9690   22.3940   36.2090 C   0  0  0  0  0  0  0  0  0  0  0  0
   39.2580   22.2240   36.3490 N   0  0  0  0  0  0  0  0  0  0  0  0
   36.9610   24.6990   30.7270 N   0  0  0  0  0  0  0  0  0  0  0  0
   36.2530   25.9530   30.9500 C   0  0  1  0  0  0  0  0  0  0  0  0
   34.7920   25.5800   31.0510 C   0  0  0  0  0  0  0  0  0  0  0  0
   36.7100   26.4870   32.2770 C   0  0  0  0  0  0  0  0  0  0  0  0
   36.3420   27.8920   32.5300 C   0  0  0  0  0  0  0  0  0  0  0  0
   36.1620   28.9400   31.6530 C   0  0  0  0  0  0  0  0  0  0  0  0
   35.8170   30.1880   32.1150 C   0  0  0  0  0  0  0  0  0  0  0  0
   35.6270   30.4840   33.4470 C   0  0  0  0  0  0  0  0  0  0  0  0
   35.8040   29.4440   34.3330 C   0  0  0  0  0  0  0  0  0  0  0  0
   36.1500   28.1910   33.8810 C   0  0  0  0  0  0  0  0  0  0  0  0
   35.6412   23.2229   30.0994 H   0  0  0  0  0  0  0  0  0  0  0  0
   35.4807   23.6953   31.8048 H   0  0  0  0  0  0  0  0  0  0  0  0
   37.1569   21.6111   30.6465 H   0  0  0  0  0  0  0  0  0  0  0  0
   38.2267   22.8420   31.3821 H   0  0  0  0  0  0  0  0  0  0  0  0
   35.9477   20.5939   36.2648 H   0  0  0  0  0  0  0  0  0  0  0  0
   34.7308   19.8121   34.2421 H   0  0  0  0  0  0  0  0  0  0  0  0
   41.0510   22.4679   37.4249 H   0  0  0  0  0  0  0  0  0  0  0  0
   39.8490   23.7213   39.3121 H   0  0  0  0  0  0  0  0  0  0  0  0
   37.3337   24.0699   39.0684 H   0  0  0  0  0  0  0  0  0  0  0  0
   37.2566   24.6705   29.7407 H   0  0  0  0  0  0  0  0  0  0  0  0
   36.4280   26.6979   30.1597 H   0  0  0  0  0  0  0  0  0  0  0  0
   34.5047   25.5066   32.1103 H   0  0  0  0  0  0  0  0  0  0  0  0
   34.1818   26.3512   30.5581 H   0  0  0  0  0  0  0  0  0  0  0  0
   34.6261   24.6107   30.5581 H   0  0  0  0  0  0  0  0  0  0  0  0
   36.2642   25.8671   33.0688 H   0  0  0  0  0  0  0  0  0  0  0  0
   37.8093   26.4482   32.2681 H   0  0  0  0  0  0  0  0  0  0  0  0
   36.2956   28.7763   30.5735 H   0  0  0  0  0  0  0  0  0  0  0  0
   35.6853   30.9956   31.3798 H   0  0  0  0  0  0  0  0  0  0  0  0
   35.3496   31.4937   33.7841 H   0  0  0  0  0  0  0  0  0  0  0  0
   35.6676   29.6166   35.4108 H   0  0  0  0  0  0  0  0  0  0  0  0
   36.2817   27.3861   34.6191 H   0  0  0  0  0  0  0  0  0  0  0  0
  1  2  1  0
  2  7  1  0
  3  4  2  0
  3 13  1  0
  5  4  1  0
  6  5  2  0
  7  6  1  0
  7  8  2  0
  8  3  1  0
  9 10  2  0
 11 10  1  0
 12 11  2  0
 13 14  2  0
 13 12  1  0
 14  9  1  0
 15 16  1  0
 15  1  1  0
 16 17  1  0
 16 18  1  0
 18 19  1  0
 19 24  2  0
 20 21  2  0
 20 19  1  0
 21 22  1  0
 22 23  2  0
 24 23  1  0
  1 25  1  0
  1 26  1  0
  2 27  1  0
  2 28  1  0
  4 29  1  0
  5 30  1  0
  9 31  1  0
 10 32  1  0
 11 33  1  0
 15 34  1  0
 16 35  1  6
 17 36  1  0
 17 37  1  0
 17 38  1  0
 18 39  1  0
 18 40  1  0
 20 41  1  0
 21 42  1  0
 22 43  1  0
 23 44  1  0
 24 45  1  0
M  ISO  8  25   8  26   8  27   8  28   8  29  14  30  14  31  14  32  14
M  ISO  8  33  14  34   5  35   8  36   8  37   8  38   8  39   8  40   8
M  ISO  5  41  14  42  14  43  14  44  14  45  14
M  END
>  <minimizedAffinity>  (1) 
-5.53072214

>  <minimizedRMSD>  (1) 
0.863559604

$$$$
