
     RDKit          3D

 43 45  0  0  1  0  0  0  0  0999 V2000
   36.1090   23.8850   31.0580 C   0  0  0  0  0  0  0  0  0  0  0  0
   36.8340   22.5440   31.1230 C   0  0  0  0  0  0  0  0  0  0  0  0
   37.1650   21.8500   34.7590 C   0  0  0  0  0  0  0  0  0  0  0  0
   36.1910   20.8540   34.9810 C   0  0  0  0  0  0  0  0  0  0  0  0
   35.4630   20.4600   33.8900 C   0  0  0  0  0  0  0  0  0  0  0  0
   35.6470   20.9810   32.6530 N   0  0  0  0  0  0  0  0  0  0  0  0
   36.6050   21.9520   32.4620 C   0  0  0  0  0  0  0  0  0  0  0  0
   37.3520   22.3700   33.5320 N   0  0  0  0  0  0  0  0  0  0  0  0
   40.0220   22.4840   36.9580 C   0  0  0  0  0  0  0  0  0  0  0  0
   39.4300   23.1980   38.0290 C   0  0  0  0  0  0  0  0  0  0  0  0
   38.0460   23.4440   37.9590 C   0  0  0  0  0  0  0  0  0  0  0  0
   37.3950   22.9680   36.8620 N   0  0  0  0  0  0  0  0  0  0  0  0
   37.9600   22.3020   35.8680 C   0  0  0  0  0  0  0  0  0  0  0  0
   39.2440   22.0860   35.9530 N   0  0  0  0  0  0  0  0  0  0  0  0
   37.0340   24.8190   30.4830 N   0  0  0  0  0  0  0  0  0  0  0  0
   37.2300   26.0110   31.2970 C   0  0  1  0  0  0  0  0  0  0  0  0
   36.3720   27.0930   30.6620 C   0  0  0  0  0  0  0  0  0  0  0  0
   36.6780   25.7520   32.6650 C   0  0  0  0  0  0  0  0  0  0  0  0
   37.5650   26.1310   33.7670 C   0  0  0  0  0  0  0  0  0  0  0  0
   38.7560   25.5520   34.1930 C   0  0  0  0  0  0  0  0  0  0  0  0
   39.4390   26.0800   35.2700 C   0  0  0  0  0  0  0  0  0  0  0  0
   38.9550   27.1550   35.9100 N   0  0  0  0  0  0  0  0  0  0  0  0
   37.8000   27.7230   35.5010 C   0  0  0  0  0  0  0  0  0  0  0  0
   37.1300   27.2220   34.4620 N   0  0  0  0  0  0  0  0  0  0  0  0
   35.2113   23.8018   30.4277 H   0  0  0  0  0  0  0  0  0  0  0  0
   35.7831   24.2106   32.0569 H   0  0  0  0  0  0  0  0  0  0  0  0
   36.4402   21.8710   30.3471 H   0  0  0  0  0  0  0  0  0  0  0  0
   37.9112   22.6885   30.9532 H   0  0  0  0  0  0  0  0  0  0  0  0
   36.0252   20.4173   35.9769 H   0  0  0  0  0  0  0  0  0  0  0  0
   34.6938   19.6852   34.0242 H   0  0  0  0  0  0  0  0  0  0  0  0
   41.0997   22.2634   36.9566 H   0  0  0  0  0  0  0  0  0  0  0  0
   40.0293   23.5469   38.8829 H   0  0  0  0  0  0  0  0  0  0  0  0
   37.5165   23.9936   38.7513 H   0  0  0  0  0  0  0  0  0  0  0  0
   37.9433   24.3493   30.3669 H   0  0  0  0  0  0  0  0  0  0  0  0
   38.2924   26.2890   31.3599 H   0  0  0  0  0  0  0  0  0  0  0  0
   35.8958   27.6935   31.4511 H   0  0  0  0  0  0  0  0  0  0  0  0
   37.0034   27.7423   30.0377 H   0  0  0  0  0  0  0  0  0  0  0  0
   35.5959   26.6262   30.0377 H   0  0  0  0  0  0  0  0  0  0  0  0
   35.7413   26.3192   32.7691 H   0  0  0  0  0  0  0  0  0  0  0  0
   36.5371   24.6637   32.7411 H   0  0  0  0  0  0  0  0  0  0  0  0
   39.1548   24.6704   33.6698 H   0  0  0  0  0  0  0  0  0  0  0  0
   40.3805   25.6191   35.6036 H   0  0  0  0  0  0  0  0  0  0  0  0
   37.4088   28.6054   36.0286 H   0  0  0  0  0  0  0  0  0  0  0  0
  1  2  1  0
  2  7  1  0
  3  4  2  0
  3 13  1  0
  5  4  1  0
  6  5  2  0
  7  6  1  0
  7  8  2  0
  8  3  1  0
  9 10  2  0
 11 10  1  0
 12 11  2  0
 13 14  2  0
 13 12  1  0
 14  9  1  0
 15  1  1  0
 15 16  1  0
 16 18  1  0
 17 16  1  0
 18 19  1  0
 19 20  2  0
 19 24  1  0
 20 21  1  0
 21 22  2  0
 23 22  1  0
 24 23  2  0
  1 25  1  0
  1 26  1  0
  2 27  1  0
  2 28  1  0
  4 29  1  0
  5 30  1  0
  9 31  1  0
 10 32  1  0
 11 33  1  0
 15 34  1  0
 16 35  1  1
 17 36  1  0
 17 37  1  0
 17 38  1  0
 18 39  1  0
 18 40  1  0
 20 41  1  0
 21 42  1  0
 23 43  1  0
M  ISO  8  25   8  26   8  27   8  28   8  29  14  30  14  31  14  32  14
M  ISO  8  33  14  34   5  35   8  36   8  37   8  38   8  39   8  40   8
M  ISO  3  41  14  42  14  43  14
M  END
>  <minimizedAffinity>  (1) 
-5.25025177

>  <minimizedRMSD>  (1) 
1.28541672

$$$$
