
     RDKit          3D

 42 44  0  0  1  0  0  0  0  0999 V2000
   37.1430   22.3860   31.3960 C   0  0  0  0  0  0  0  0  0  0  0  0
   37.2250   21.9070   35.0690 C   0  0  0  0  0  0  0  0  0  0  0  0
   36.2000   20.9520   35.2900 C   0  0  0  0  0  0  0  0  0  0  0  0
   35.5290   20.5160   34.1740 C   0  0  0  0  0  0  0  0  0  0  0  0
   35.8140   20.9590   32.9300 N   0  0  0  0  0  0  0  0  0  0  0  0
   36.8020   21.8750   32.7480 C   0  0  0  0  0  0  0  0  0  0  0  0
   37.4980   22.3370   33.8400 N   0  0  0  0  0  0  0  0  0  0  0  0
   39.9550   22.6690   37.3730 C   0  0  0  0  0  0  0  0  0  0  0  0
   39.2920   23.3630   38.4380 C   0  0  0  0  0  0  0  0  0  0  0  0
   37.9140   23.5340   38.3000 C   0  0  0  0  0  0  0  0  0  0  0  0
   37.3330   23.0350   37.1830 N   0  0  0  0  0  0  0  0  0  0  0  0
   37.9520   22.3960   36.2060 C   0  0  0  0  0  0  0  0  0  0  0  0
   39.2340   22.2370   36.3350 N   0  0  0  0  0  0  0  0  0  0  0  0
   36.1520   23.4650   31.0110 C   0  0  0  0  0  0  0  0  0  0  0  0
   36.8210   24.6250   30.5960 N   0  0  0  0  0  0  0  0  0  0  0  0
   35.9890   25.7460   30.9940 C   0  0  1  0  0  0  0  0  0  0  0  0
   34.7270   25.3100   30.8570 C   0  0  0  0  0  0  0  0  0  0  0  0
   36.9120   26.7460   31.3320 C   0  0  0  0  0  0  0  0  0  0  0  0
   36.5710   27.5650   32.5650 C   0  0  0  0  0  0  0  0  0  0  0  0
   36.9650   27.5470   33.8120 C   0  0  0  0  0  0  0  0  0  0  0  0
   36.4370   28.4550   34.6920 C   0  0  0  0  0  0  0  0  0  0  0  0
   35.5050   29.3520   34.2010 C   0  0  0  0  0  0  0  0  0  0  0  0
   35.4140   28.8210   32.3780 S   0  0  0  0  0  0  0  0  0  0  0  0
   38.1596   22.8059   31.4063 H   0  0  0  0  0  0  0  0  0  0  0  0
   37.0987   21.5639   30.6664 H   0  0  0  0  0  0  0  0  0  0  0  0
   35.9566   20.5820   36.2969 H   0  0  0  0  0  0  0  0  0  0  0  0
   34.7257   19.7749   34.2982 H   0  0  0  0  0  0  0  0  0  0  0  0
   41.0405   22.4950   37.4102 H   0  0  0  0  0  0  0  0  0  0  0  0
   39.8390   23.7396   39.3149 H   0  0  0  0  0  0  0  0  0  0  0  0
   37.3228   24.0537   39.0683 H   0  0  0  0  0  0  0  0  0  0  0  0
   35.5201   23.0985   30.1886 H   0  0  0  0  0  0  0  0  0  0  0  0
   35.5335   23.7072   31.8878 H   0  0  0  0  0  0  0  0  0  0  0  0
   36.9436   24.6184   29.5733 H   0  0  0  0  0  0  0  0  0  0  0  0
   35.9784   26.1070   29.9550 H   0  0  0  0  0  0  0  0  0  0  0  0
   34.2822   25.1563   31.8512 H   0  0  0  0  0  0  0  0  0  0  0  0
   34.1390   26.0571   30.3037 H   0  0  0  0  0  0  0  0  0  0  0  0
   34.7256   24.3593   30.3037 H   0  0  0  0  0  0  0  0  0  0  0  0
   37.8853   26.2636   31.5048 H   0  0  0  0  0  0  0  0  0  0  0  0
   36.9095   27.4543   30.4904 H   0  0  0  0  0  0  0  0  0  0  0  0
   37.7107   26.8124   34.1500 H   0  0  0  0  0  0  0  0  0  0  0  0
   36.7425   28.4702   35.7486 H   0  0  0  0  0  0  0  0  0  0  0  0
   34.9637   30.1544   34.7236 H   0  0  0  0  0  0  0  0  0  0  0  0
  1  6  1  0
  2  3  2  0
  2 12  1  0
  4  3  1  0
  5  4  2  0
  6  5  1  0
  6  7  2  0
  7  2  1  0
  8  9  2  0
 10  9  1  0
 11 10  2  0
 12 13  2  0
 12 11  1  0
 13  8  1  0
 14  1  1  0
 15 16  1  0
 15 14  1  0
 16 18  1  0
 17 16  1  0
 18 19  1  0
 19 20  2  0
 20 21  1  0
 22 21  2  0
 23 19  1  0
 23 22  1  0
  1 24  1  0
  1 25  1  0
  3 26  1  0
  4 27  1  0
  8 28  1  0
  9 29  1  0
 10 30  1  0
 14 31  1  0
 14 32  1  0
 15 33  1  0
 16 34  1  1
 17 35  1  0
 17 36  1  0
 17 37  1  0
 18 38  1  0
 18 39  1  0
 20 40  1  0
 21 41  1  0
 22 42  1  0
M  ISO  8  24   8  25   8  26  14  27  14  28  14  29  14  30  14  31   8
M  ISO  8  32   8  33   5  34   8  35   8  36   8  37   8  38   8  39   8
M  ISO  3  40  14  41  14  42  14
M  END
>  <minimizedAffinity>  (1) 
-5.43527889

>  <minimizedRMSD>  (1) 
0.587891161

$$$$
