
     RDKit          3D

 47 49  0  0  1  0  0  0  0  0999 V2000
   37.1670   22.4000   31.2310 C   0  0  0  0  0  0  0  0  0  0  0  0
   37.2080   21.8690   34.9130 C   0  0  0  0  0  0  0  0  0  0  0  0
   36.1890   20.9280   35.1080 C   0  0  0  0  0  0  0  0  0  0  0  0
   35.5240   20.5090   33.9740 C   0  0  0  0  0  0  0  0  0  0  0  0
   35.8250   20.9670   32.7450 N   0  0  0  0  0  0  0  0  0  0  0  0
   36.8260   21.8860   32.5770 C   0  0  0  0  0  0  0  0  0  0  0  0
   37.4960   22.3160   33.6830 N   0  0  0  0  0  0  0  0  0  0  0  0
   39.9490   22.6160   37.2180 C   0  0  0  0  0  0  0  0  0  0  0  0
   39.2870   23.2890   38.2940 C   0  0  0  0  0  0  0  0  0  0  0  0
   37.8900   23.4580   38.1740 C   0  0  0  0  0  0  0  0  0  0  0  0
   37.2870   22.9720   37.0530 N   0  0  0  0  0  0  0  0  0  0  0  0
   37.9420   22.3480   36.0620 C   0  0  0  0  0  0  0  0  0  0  0  0
   39.2360   22.1980   36.1860 N   0  0  0  0  0  0  0  0  0  0  0  0
   36.3270   23.6440   30.9640 C   0  0  0  0  0  0  0  0  0  0  0  0
   37.2360   24.7140   30.7110 N   0  0  0  0  0  0  0  0  0  0  0  0
   36.9040   25.9670   31.3750 C   0  0  1  0  0  0  0  0  0  0  0  0
   35.4200   26.1940   31.0320 C   0  0  0  0  0  0  0  0  0  0  0  0
   36.9980   25.7480   32.8470 C   0  0  0  0  0  0  0  0  0  0  0  0
   37.9690   26.5560   33.5370 N   0  0  0  0  0  0  0  0  0  0  0  0
   39.0570   25.8410   34.1010 C   0  0  0  0  0  0  0  0  0  0  0  0
   39.6240   26.8290   35.1030 C   0  0  0  0  0  0  0  0  0  0  0  0
   38.3430   27.2950   35.7760 C   0  0  0  0  0  0  0  0  0  0  0  0
   37.3450   27.2380   34.6530 C   0  0  0  0  0  0  0  0  0  0  0  0
   38.2356   22.6578   31.1915 H   0  0  0  0  0  0  0  0  0  0  0  0
   36.9596   21.6334   30.4699 H   0  0  0  0  0  0  0  0  0  0  0  0
   35.9337   20.5453   36.1072 H   0  0  0  0  0  0  0  0  0  0  0  0
   34.7152   19.7708   34.0788 H   0  0  0  0  0  0  0  0  0  0  0  0
   41.0358   22.4489   37.2493 H   0  0  0  0  0  0  0  0  0  0  0  0
   39.8393   23.6566   39.1714 H   0  0  0  0  0  0  0  0  0  0  0  0
   37.3087   23.9646   38.9586 H   0  0  0  0  0  0  0  0  0  0  0  0
   35.6804   23.4826   30.0889 H   0  0  0  0  0  0  0  0  0  0  0  0
   35.6801   23.8731   31.8237 H   0  0  0  0  0  0  0  0  0  0  0  0
   38.1714   24.4215   31.0278 H   0  0  0  0  0  0  0  0  0  0  0  0
   37.5563   26.8007   31.0759 H   0  0  0  0  0  0  0  0  0  0  0  0
   34.8383   26.2830   31.9614 H   0  0  0  0  0  0  0  0  0  0  0  0
   35.3166   27.1184   30.4448 H   0  0  0  0  0  0  0  0  0  0  0  0
   35.0450   25.3428   30.4448 H   0  0  0  0  0  0  0  0  0  0  0  0
   36.0108   25.9590   33.2839 H   0  0  0  0  0  0  0  0  0  0  0  0
   37.3288   24.7067   32.9749 H   0  0  0  0  0  0  0  0  0  0  0  0
   38.7121   24.9237   34.6005 H   0  0  0  0  0  0  0  0  0  0  0  0
   39.7926   25.5066   33.3546 H   0  0  0  0  0  0  0  0  0  0  0  0
   40.3045   26.3408   35.8161 H   0  0  0  0  0  0  0  0  0  0  0  0
   40.2333   27.6328   34.6641 H   0  0  0  0  0  0  0  0  0  0  0  0
   38.0570   26.6203   36.5964 H   0  0  0  0  0  0  0  0  0  0  0  0
   38.4273   28.2901   36.2371 H   0  0  0  0  0  0  0  0  0  0  0  0
   37.0587   28.2575   34.3552 H   0  0  0  0  0  0  0  0  0  0  0  0
   36.4393   26.7015   34.9721 H   0  0  0  0  0  0  0  0  0  0  0  0
  1  6  1  0
  2  3  2  0
  2 12  1  0
  4  3  1  0
  5  4  2  0
  6  5  1  0
  6  7  2  0
  7  2  1  0
  8  9  2  0
 10  9  1  0
 11 10  2  0
 12 13  2  0
 12 11  1  0
 13  8  1  0
 14  1  1  0
 15 14  1  0
 15 16  1  0
 16 18  1  0
 17 16  1  0
 18 19  1  0
 19 20  1  0
 19 23  1  0
 20 21  1  0
 21 22  1  0
 23 22  1  0
  1 24  1  0
  1 25  1  0
  3 26  1  0
  4 27  1  0
  8 28  1  0
  9 29  1  0
 10 30  1  0
 14 31  1  0
 14 32  1  0
 15 33  1  0
 16 34  1  6
 17 35  1  0
 17 36  1  0
 17 37  1  0
 18 38  1  0
 18 39  1  0
 20 40  1  0
 20 41  1  0
 21 42  1  0
 21 43  1  0
 22 44  1  0
 22 45  1  0
 23 46  1  0
 23 47  1  0
M  ISO  8  24   8  25   8  26  14  27  14  28  14  29  14  30  14  31   8
M  ISO  8  32   8  33   5  34   8  35   8  36   8  37   8  38   8  39   8
M  ISO  8  40  13  41  13  42  13  43  13  44  13  45  13  46  13  47  13
M  END
>  <minimizedAffinity>  (1) 
-5.41941214

>  <minimizedRMSD>  (1) 
1.33517003

$$$$
