
     RDKit          3D

 37 38  0  0  1  0  0  0  0  0999 V2000
   37.2840   22.2460   31.3790 C   0  0  0  0  0  0  0  0  0  0  0  0
   37.2410   21.8800   35.0650 C   0  0  0  0  0  0  0  0  0  0  0  0
   36.1830   20.9740   35.2860 C   0  0  0  0  0  0  0  0  0  0  0  0
   35.5240   20.5220   34.1640 C   0  0  0  0  0  0  0  0  0  0  0  0
   35.8600   20.9160   32.9180 N   0  0  0  0  0  0  0  0  0  0  0  0
   36.8860   21.7930   32.7330 C   0  0  0  0  0  0  0  0  0  0  0  0
   37.5690   22.2640   33.8350 N   0  0  0  0  0  0  0  0  0  0  0  0
   39.9500   22.6760   37.3880 C   0  0  0  0  0  0  0  0  0  0  0  0
   39.2780   23.3690   38.4320 C   0  0  0  0  0  0  0  0  0  0  0  0
   37.8980   23.5380   38.2960 C   0  0  0  0  0  0  0  0  0  0  0  0
   37.3050   23.0260   37.1720 N   0  0  0  0  0  0  0  0  0  0  0  0
   37.9650   22.3830   36.2150 C   0  0  0  0  0  0  0  0  0  0  0  0
   39.2490   22.2360   36.3620 N   0  0  0  0  0  0  0  0  0  0  0  0
   36.2810   23.2970   30.9130 C   0  0  0  0  0  0  0  0  0  0  0  0
   37.0320   24.4630   30.5890 N   0  0  0  0  0  0  0  0  0  0  0  0
   36.4850   25.6940   31.1010 C   0  0  1  0  0  0  0  0  0  0  0  0
   34.9660   25.5390   31.0070 C   0  0  0  0  0  0  0  0  0  0  0  0
   36.8070   25.7670   32.5840 C   0  0  0  0  0  0  0  0  0  0  0  0
   36.7780   27.1730   32.9870 N   0  0  0  0  0  0  0  0  0  0  0  0
   38.2925   22.6838   31.4145 H   0  0  0  0  0  0  0  0  0  0  0  0
   37.2939   21.3953   30.6818 H   0  0  0  0  0  0  0  0  0  0  0  0
   35.9000   20.6468   36.2973 H   0  0  0  0  0  0  0  0  0  0  0  0
   34.6923   19.8130   34.2885 H   0  0  0  0  0  0  0  0  0  0  0  0
   41.0363   22.5099   37.4357 H   0  0  0  0  0  0  0  0  0  0  0  0
   39.8206   23.7548   39.3077 H   0  0  0  0  0  0  0  0  0  0  0  0
   37.3093   24.0627   39.0629 H   0  0  0  0  0  0  0  0  0  0  0  0
   35.7385   22.9368   30.0264 H   0  0  0  0  0  0  0  0  0  0  0  0
   35.5377   23.5095   31.6955 H   0  0  0  0  0  0  0  0  0  0  0  0
   37.9812   24.3499   30.9725 H   0  0  0  0  0  0  0  0  0  0  0  0
   36.8727   26.5703   30.5608 H   0  0  0  0  0  0  0  0  0  0  0  0
   34.5385   25.4954   32.0196 H   0  0  0  0  0  0  0  0  0  0  0  0
   34.5424   26.3986   30.4669 H   0  0  0  0  0  0  0  0  0  0  0  0
   34.7248   24.6116   30.4669 H   0  0  0  0  0  0  0  0  0  0  0  0
   36.0584   25.1996   33.1564 H   0  0  0  0  0  0  0  0  0  0  0  0
   37.7994   25.3349   32.7801 H   0  0  0  0  0  0  0  0  0  0  0  0
   36.7767   27.2355   34.0151 H   0  0  0  0  0  0  0  0  0  0  0  0
   37.6092   27.6541   32.6148 H   0  0  0  0  0  0  0  0  0  0  0  0
  1  6  1  0
  2  3  2  0
  2 12  1  0
  4  3  1  0
  5  4  2  0
  6  5  1  0
  6  7  2  0
  7  2  1  0
  8  9  2  0
 10  9  1  0
 11 10  2  0
 12 13  2  0
 12 11  1  0
 13  8  1  0
 14  1  1  0
 15 14  1  0
 15 16  1  0
 16 18  1  0
 17 16  1  0
 18 19  1  0
  1 20  1  0
  1 21  1  0
  3 22  1  0
  4 23  1  0
  8 24  1  0
  9 25  1  0
 10 26  1  0
 14 27  1  0
 14 28  1  0
 15 29  1  0
 16 30  1  6
 17 31  1  0
 17 32  1  0
 17 33  1  0
 18 34  1  0
 18 35  1  0
 19 36  1  0
 19 37  1  0
M  ISO  8  20   8  21   8  22  14  23  14  24  14  25  14  26  14  27   8
M  ISO  8  28   8  29   5  30   8  31   8  32   8  33   8  34   8  35   8
M  ISO  2  36   5  37   5
M  END
>  <minimizedAffinity>  (1) 
-4.57711267

>  <minimizedRMSD>  (1) 
0.134239078

$$$$
