
     RDKit          3D

 36 37  0  0  1  0  0  0  0  0999 V2000
   37.2900   22.2360   31.3740 C   0  0  0  0  0  0  0  0  0  0  0  0
   37.2330   21.8710   35.0690 C   0  0  0  0  0  0  0  0  0  0  0  0
   36.1780   20.9710   35.2870 C   0  0  0  0  0  0  0  0  0  0  0  0
   35.5220   20.5190   34.1660 C   0  0  0  0  0  0  0  0  0  0  0  0
   35.8610   20.9100   32.9170 N   0  0  0  0  0  0  0  0  0  0  0  0
   36.8870   21.7830   32.7330 C   0  0  0  0  0  0  0  0  0  0  0  0
   37.5610   22.2520   33.8230 N   0  0  0  0  0  0  0  0  0  0  0  0
   39.9550   22.6680   37.3740 C   0  0  0  0  0  0  0  0  0  0  0  0
   39.2900   23.3630   38.4170 C   0  0  0  0  0  0  0  0  0  0  0  0
   37.9060   23.5360   38.2920 C   0  0  0  0  0  0  0  0  0  0  0  0
   37.2930   23.0250   37.1720 N   0  0  0  0  0  0  0  0  0  0  0  0
   37.9550   22.3770   36.2120 C   0  0  0  0  0  0  0  0  0  0  0  0
   39.2490   22.2250   36.3500 N   0  0  0  0  0  0  0  0  0  0  0  0
   36.2780   23.2880   30.9110 C   0  0  0  0  0  0  0  0  0  0  0  0
   37.0370   24.4610   30.5830 N   0  0  0  0  0  0  0  0  0  0  0  0
   36.4900   25.6860   31.1020 C   0  0  1  0  0  0  0  0  0  0  0  0
   34.9660   25.5340   31.0060 C   0  0  0  0  0  0  0  0  0  0  0  0
   36.8130   25.7570   32.5870 C   0  0  0  0  0  0  0  0  0  0  0  0
   36.7020   27.0650   33.0490 O   0  0  0  0  0  0  0  0  0  0  0  0
   38.2974   22.6764   31.4099 H   0  0  0  0  0  0  0  0  0  0  0  0
   37.3072   21.3864   30.6756 H   0  0  0  0  0  0  0  0  0  0  0  0
   35.8920   20.6455   36.2980 H   0  0  0  0  0  0  0  0  0  0  0  0
   34.6888   19.8116   34.2905 H   0  0  0  0  0  0  0  0  0  0  0  0
   41.0414   22.5009   37.4178 H   0  0  0  0  0  0  0  0  0  0  0  0
   39.8391   23.7500   39.2881 H   0  0  0  0  0  0  0  0  0  0  0  0
   37.3278   24.0637   39.0648 H   0  0  0  0  0  0  0  0  0  0  0  0
   35.7322   22.9279   30.0264 H   0  0  0  0  0  0  0  0  0  0  0  0
   35.5346   23.4991   31.6939 H   0  0  0  0  0  0  0  0  0  0  0  0
   37.9877   24.3463   30.9624 H   0  0  0  0  0  0  0  0  0  0  0  0
   36.8790   26.5638   30.5653 H   0  0  0  0  0  0  0  0  0  0  0  0
   34.5373   25.4912   32.0181 H   0  0  0  0  0  0  0  0  0  0  0  0
   34.5450   26.3946   30.4655 H   0  0  0  0  0  0  0  0  0  0  0  0
   34.7233   24.6072   30.4655 H   0  0  0  0  0  0  0  0  0  0  0  0
   36.1107   25.1168   33.1410 H   0  0  0  0  0  0  0  0  0  0  0  0
   37.8457   25.4116   32.7429 H   0  0  0  0  0  0  0  0  0  0  0  0
   36.7019   27.0664   34.0390 H   0  0  0  0  0  0  0  0  0  0  0  0
  1  6  1  0
  2  3  2  0
  2 12  1  0
  4  3  1  0
  5  4  2  0
  6  5  1  0
  6  7  2  0
  7  2  1  0
  8  9  2  0
 10  9  1  0
 11 10  2  0
 12 13  2  0
 12 11  1  0
 13  8  1  0
 14  1  1  0
 15 14  1  0
 15 16  1  0
 16 18  1  0
 17 16  1  0
 18 19  1  0
  1 20  1  0
  1 21  1  0
  3 22  1  0
  4 23  1  0
  8 24  1  0
  9 25  1  0
 10 26  1  0
 14 27  1  0
 14 28  1  0
 15 29  1  0
 16 30  1  6
 17 31  1  0
 17 32  1  0
 17 33  1  0
 18 34  1  0
 18 35  1  0
 19 36  1  0
M  ISO  8  20   8  21   8  22  14  23  14  24  14  25  14  26  14  27   8
M  ISO  8  28   8  29   5  30   8  31   8  32   8  33   8  34   8  35   8
M  ISO  1  36   3
M  END
>  <minimizedAffinity>  (1) 
-4.57518911

>  <minimizedRMSD>  (1) 
0.105708003

$$$$
