
     RDKit          3D

 25 27  0  0  0  0  0  0  0  0999 V2000
   39.2330   25.5790   34.6630 C   0  0  0  0  0  0  0  0  0  0  0  0
   40.0210   26.6990   34.6320 C   0  0  0  0  0  0  0  0  0  0  0  0
   39.9230   27.1800   33.3750 N   0  0  0  0  0  0  0  0  0  0  0  0
   39.1050   26.3630   32.7070 C   0  0  0  0  0  0  0  0  0  0  0  0
   38.6510   25.3480   33.4750 N   0  0  0  0  0  0  0  0  0  0  0  0
   39.0140   24.7060   35.8150 C   0  0  0  0  0  0  0  0  0  0  0  0
   39.9360   23.6600   36.0590 C   0  0  0  0  0  0  0  0  0  0  0  0
   39.6780   22.8370   37.1930 C   0  0  0  0  0  0  0  0  0  0  0  0
   38.5910   23.1030   37.9460 N   0  0  0  0  0  0  0  0  0  0  0  0
   37.7480   24.1050   37.6730 C   0  0  0  0  0  0  0  0  0  0  0  0
   37.9600   24.8990   36.6130 N   0  0  0  0  0  0  0  0  0  0  0  0
   37.7700   24.3500   32.9990 C   0  0  0  0  0  0  0  0  0  0  0  0
   36.7600   24.8100   32.1630 C   0  0  0  0  0  0  0  0  0  0  0  0
   35.8110   23.9690   31.6080 C   0  0  0  0  0  0  0  0  0  0  0  0
   35.8420   22.6510   31.8670 N   0  0  0  0  0  0  0  0  0  0  0  0
   36.8440   22.2260   32.6910 C   0  0  0  0  0  0  0  0  0  0  0  0
   37.7850   23.0250   33.2480 N   0  0  0  0  0  0  0  0  0  0  0  0
   40.6111   27.1191   35.4598 H   0  0  0  0  0  0  0  0  0  0  0  0
   38.8315   26.5006   31.6505 H   0  0  0  0  0  0  0  0  0  0  0  0
   40.8060   23.4914   35.4073 H   0  0  0  0  0  0  0  0  0  0  0  0
   40.3496   22.0041   37.4485 H   0  0  0  0  0  0  0  0  0  0  0  0
   36.8764   24.2787   38.3212 H   0  0  0  0  0  0  0  0  0  0  0  0
   36.7127   25.8847   31.9332 H   0  0  0  0  0  0  0  0  0  0  0  0
   35.0292   24.3809   30.9530 H   0  0  0  0  0  0  0  0  0  0  0  0
   36.8907   21.1512   32.9203 H   0  0  0  0  0  0  0  0  0  0  0  0
  1  6  1  0
  2  1  2  0
  3  2  1  0
  4  3  2  0
  4  5  1  0
  5  1  1  0
  6  7  2  0
  6 11  1  0
  7  8  1  0
  8  9  2  0
 10  9  1  0
 11 10  2  0
 12 17  1  0
 12  5  1  0
 13 12  2  0
 14 15  2  0
 14 13  1  0
 15 16  1  0
 16 17  2  0
  2 18  1  0
  4 19  1  0
  7 20  1  0
  8 21  1  0
 10 22  1  0
 13 23  1  0
 14 24  1  0
 16 25  1  0
M  ISO  8  18  14  19  14  20  14  21  14  22  14  23  14  24  14  25  14
M  END
>  <minimizedAffinity>  (1) 
-4.23023605

>  <minimizedRMSD>  (1) 
5.17012596

$$$$
