
     RDKit          3D

 36 37  0  0  1  0  0  0  0  0999 V2000
   37.3060   22.2300   31.4030 C   0  0  0  0  0  0  0  0  0  0  0  0
   37.2400   21.8760   35.1050 C   0  0  0  0  0  0  0  0  0  0  0  0
   36.1890   20.9760   35.3190 C   0  0  0  0  0  0  0  0  0  0  0  0
   35.5390   20.5220   34.1900 C   0  0  0  0  0  0  0  0  0  0  0  0
   35.8810   20.9090   32.9430 N   0  0  0  0  0  0  0  0  0  0  0  0
   36.9080   21.7860   32.7660 C   0  0  0  0  0  0  0  0  0  0  0  0
   37.5770   22.2590   33.8640 N   0  0  0  0  0  0  0  0  0  0  0  0
   39.9510   22.6930   37.4160 C   0  0  0  0  0  0  0  0  0  0  0  0
   39.2760   23.4040   38.4620 C   0  0  0  0  0  0  0  0  0  0  0  0
   37.8930   23.5660   38.3100 C   0  0  0  0  0  0  0  0  0  0  0  0
   37.2890   23.0470   37.1980 N   0  0  0  0  0  0  0  0  0  0  0  0
   37.9610   22.3900   36.2450 C   0  0  0  0  0  0  0  0  0  0  0  0
   39.2470   22.2450   36.3970 N   0  0  0  0  0  0  0  0  0  0  0  0
   36.2720   23.2430   30.9080 C   0  0  0  0  0  0  0  0  0  0  0  0
   36.9760   24.4310   30.5590 N   0  0  0  0  0  0  0  0  0  0  0  0
   36.3920   25.6470   31.0410 C   0  0  1  0  0  0  0  0  0  0  0  0
   34.8750   25.4190   30.9860 C   0  0  0  0  0  0  0  0  0  0  0  0
   36.7230   25.7980   32.5170 C   0  0  0  0  0  0  0  0  0  0  0  0
   38.5010   25.7600   32.8350 S   0  0  0  0  0  0  0  0  0  0  0  0
   38.2997   22.7004   31.4402 H   0  0  0  0  0  0  0  0  0  0  0  0
   37.3497   21.3682   30.7208 H   0  0  0  0  0  0  0  0  0  0  0  0
   35.8985   20.6499   36.3286 H   0  0  0  0  0  0  0  0  0  0  0  0
   34.7060   19.8140   34.3113 H   0  0  0  0  0  0  0  0  0  0  0  0
   41.0370   22.5247   37.4636 H   0  0  0  0  0  0  0  0  0  0  0  0
   39.8143   23.8004   39.3356 H   0  0  0  0  0  0  0  0  0  0  0  0
   37.3041   24.1002   39.0702 H   0  0  0  0  0  0  0  0  0  0  0  0
   35.7463   22.8447   30.0277 H   0  0  0  0  0  0  0  0  0  0  0  0
   35.5240   23.4486   31.6879 H   0  0  0  0  0  0  0  0  0  0  0  0
   37.9295   24.3611   30.9422 H   0  0  0  0  0  0  0  0  0  0  0  0
   36.7425   26.5146   30.4627 H   0  0  0  0  0  0  0  0  0  0  0  0
   34.4759   25.3590   32.0093 H   0  0  0  0  0  0  0  0  0  0  0  0
   34.3975   26.2555   30.4546 H   0  0  0  0  0  0  0  0  0  0  0  0
   34.6645   24.4791   30.4546 H   0  0  0  0  0  0  0  0  0  0  0  0
   36.3216   26.7587   32.8720 H   0  0  0  0  0  0  0  0  0  0  0  0
   36.2701   24.9487   33.0496 H   0  0  0  0  0  0  0  0  0  0  0  0
   38.7231   25.7553   34.1869 H   0  0  0  0  0  0  0  0  0  0  0  0
  1  6  1  0
  2  3  2  0
  2 12  1  0
  4  3  1  0
  5  4  2  0
  6  5  1  0
  6  7  2  0
  7  2  1  0
  8  9  2  0
 10  9  1  0
 11 10  2  0
 12 13  2  0
 12 11  1  0
 13  8  1  0
 14  1  1  0
 15 14  1  0
 15 16  1  0
 16 18  1  0
 17 16  1  0
 18 19  1  0
  1 20  1  0
  1 21  1  0
  3 22  1  0
  4 23  1  0
  8 24  1  0
  9 25  1  0
 10 26  1  0
 14 27  1  0
 14 28  1  0
 15 29  1  0
 16 30  1  6
 17 31  1  0
 17 32  1  0
 17 33  1  0
 18 34  1  0
 18 35  1  0
 19 36  1  0
M  ISO  8  20   8  21   8  22  14  23  14  24  14  25  14  26  14  27   8
M  ISO  8  28   8  29   5  30   8  31   8  32   8  33   8  34   8  35   8
M  ISO  1  36  11
M  END
>  <minimizedAffinity>  (1) 
-4.52444839

>  <minimizedRMSD>  (1) 
0.0545582473

$$$$
