
     RDKit          3D

 42 44  0  0  1  0  0  0  0  0999 V2000
   36.3160   24.0680   31.1090 C   0  0  0  0  0  0  0  0  0  0  0  0
   37.0060   22.7140   31.1590 C   0  0  0  0  0  0  0  0  0  0  0  0
   37.1560   21.9250   34.7880 C   0  0  0  0  0  0  0  0  0  0  0  0
   36.1860   20.9120   34.9340 C   0  0  0  0  0  0  0  0  0  0  0  0
   35.5230   20.5390   33.7900 C   0  0  0  0  0  0  0  0  0  0  0  0
   35.7620   21.0930   32.5800 N   0  0  0  0  0  0  0  0  0  0  0  0
   36.7070   22.0730   32.4690 C   0  0  0  0  0  0  0  0  0  0  0  0
   37.3920   22.4720   33.5880 N   0  0  0  0  0  0  0  0  0  0  0  0
   39.8910   22.6340   37.1030 C   0  0  0  0  0  0  0  0  0  0  0  0
   39.2260   23.2040   38.2140 C   0  0  0  0  0  0  0  0  0  0  0  0
   37.8380   23.3280   38.1280 C   0  0  0  0  0  0  0  0  0  0  0  0
   37.2110   22.8920   36.9820 N   0  0  0  0  0  0  0  0  0  0  0  0
   37.8840   22.3570   35.9530 C   0  0  0  0  0  0  0  0  0  0  0  0
   39.1850   22.2470   36.0450 N   0  0  0  0  0  0  0  0  0  0  0  0
   37.2610   25.0080   30.6170 N   0  0  0  0  0  0  0  0  0  0  0  0
   37.4320   26.1870   31.4160 C   0  0  1  0  0  0  0  0  0  0  0  0
   36.5500   27.2630   30.7670 C   0  0  0  0  0  0  0  0  0  0  0  0
   36.8090   25.9280   32.7830 C   0  0  0  0  0  0  0  0  0  0  0  0
   37.8090   26.2770   33.8240 C   0  0  0  0  0  0  0  0  0  0  0  0
   39.0060   26.9470   33.8820 C   0  0  0  0  0  0  0  0  0  0  0  0
   39.4290   26.9040   35.2140 C   0  0  0  0  0  0  0  0  0  0  0  0
   38.4820   26.2150   35.9020 N   0  0  0  0  0  0  0  0  0  0  0  0
   37.5160   25.8420   35.0700 N   0  0  0  0  0  0  0  0  0  0  0  0
   35.4463   24.0223   30.4371 H   0  0  0  0  0  0  0  0  0  0  0  0
   35.9611   24.3604   32.1083 H   0  0  0  0  0  0  0  0  0  0  0  0
   36.6331   22.0783   30.3424 H   0  0  0  0  0  0  0  0  0  0  0  0
   38.0924   22.8430   31.0446 H   0  0  0  0  0  0  0  0  0  0  0  0
   35.9725   20.4472   35.9078 H   0  0  0  0  0  0  0  0  0  0  0  0
   34.7596   19.7503   33.8620 H   0  0  0  0  0  0  0  0  0  0  0  0
   40.9841   22.5119   37.1144 H   0  0  0  0  0  0  0  0  0  0  0  0
   39.7780   23.5348   39.1061 H   0  0  0  0  0  0  0  0  0  0  0  0
   37.2591   23.7635   38.9558 H   0  0  0  0  0  0  0  0  0  0  0  0
   38.1735   24.5351   30.5496 H   0  0  0  0  0  0  0  0  0  0  0  0
   38.4928   26.4669   31.4959 H   0  0  0  0  0  0  0  0  0  0  0  0
   36.0614   27.8591   31.5519 H   0  0  0  0  0  0  0  0  0  0  0  0
   37.1729   27.9198   30.1421 H   0  0  0  0  0  0  0  0  0  0  0  0
   35.7837   26.7811   30.1421 H   0  0  0  0  0  0  0  0  0  0  0  0
   35.9106   26.5506   32.9065 H   0  0  0  0  0  0  0  0  0  0  0  0
   36.5200   24.8705   32.8740 H   0  0  0  0  0  0  0  0  0  0  0  0
   39.5311   27.4255   33.0422 H   0  0  0  0  0  0  0  0  0  0  0  0
   40.3501   27.3430   35.6250 H   0  0  0  0  0  0  0  0  0  0  0  0
   38.5087   26.0132   36.9117 H   0  0  0  0  0  0  0  0  0  0  0  0
  1  2  1  0
  2  7  1  0
  3  4  2  0
  3 13  1  0
  5  4  1  0
  6  5  2  0
  7  6  1  0
  7  8  2  0
  8  3  1  0
  9 10  2  0
 11 10  1  0
 12 11  2  0
 13 14  2  0
 13 12  1  0
 14  9  1  0
 15  1  1  0
 15 16  1  0
 16 18  1  0
 17 16  1  0
 18 19  1  0
 19 20  1  0
 19 23  2  0
 20 21  2  0
 21 22  1  0
 23 22  1  0
  1 24  1  0
  1 25  1  0
  2 26  1  0
  2 27  1  0
  4 28  1  0
  5 29  1  0
  9 30  1  0
 10 31  1  0
 11 32  1  0
 15 33  1  0
 16 34  1  1
 17 35  1  0
 17 36  1  0
 17 37  1  0
 18 38  1  0
 18 39  1  0
 20 40  1  0
 21 41  1  0
 22 42  1  0
M  ISO  8  24   8  25   8  26   8  27   8  28  14  29  14  30  14  31  14
M  ISO  8  32  14  33   5  34   8  35   8  36   8  37   8  38   8  39   8
M  ISO  3  40  14  41  14  42   9
M  END
>  <minimizedAffinity>  (1) 
-5.10371971

>  <minimizedRMSD>  (1) 
1.21205306

$$$$
