
     RDKit          3D

 30 32  0  0  0  0  0  0  0  0999 V2000
   40.3960   22.3730   35.8990 C   0  0  0  0  0  0  0  0  0  0  0  0
   39.8970   22.6160   37.1770 C   0  0  0  0  0  0  0  0  0  0  0  0
   38.5810   23.0260   37.2310 C   0  0  0  0  0  0  0  0  0  0  0  0
   37.9170   23.1510   36.0660 N   0  0  0  0  0  0  0  0  0  0  0  0
   38.3890   22.9210   34.8570 C   0  0  0  0  0  0  0  0  0  0  0  0
   39.6520   22.5250   34.7990 N   0  0  0  0  0  0  0  0  0  0  0  0
   37.7620   23.0230   33.5450 C   0  0  0  0  0  0  0  0  0  0  0  0
   38.0320   24.0040   32.6880 N   0  0  0  0  0  0  0  0  0  0  0  0
   37.4640   24.1070   31.4880 C   0  0  0  0  0  0  0  0  0  0  0  0
   36.5580   23.2150   31.0310 N   0  0  0  0  0  0  0  0  0  0  0  0
   36.2200   22.1760   31.8380 C   0  0  0  0  0  0  0  0  0  0  0  0
   35.3020   21.2860   31.3600 C   0  0  0  0  0  0  0  0  0  0  0  0
   34.9330   20.2190   32.1500 C   0  0  0  0  0  0  0  0  0  0  0  0
   35.5240   20.1120   33.3990 C   0  0  0  0  0  0  0  0  0  0  0  0
   36.4400   21.0480   33.8130 C   0  0  0  0  0  0  0  0  0  0  0  0
   36.8350   22.1170   33.0700 C   0  0  0  0  0  0  0  0  0  0  0  0
   37.9160   23.3260   38.5420 C   0  0  0  0  0  0  0  0  0  0  0  0
   37.9890   24.8580   38.6680 C   0  0  0  0  0  0  0  0  0  0  0  0
   41.4402   22.0441   35.7914 H   0  0  0  0  0  0  0  0  0  0  0  0
   40.5106   22.4895   38.0812 H   0  0  0  0  0  0  0  0  0  0  0  0
   37.7438   24.9527   30.8426 H   0  0  0  0  0  0  0  0  0  0  0  0
   34.8637   21.4185   30.3598 H   0  0  0  0  0  0  0  0  0  0  0  0
   34.1966   19.4795   31.8022 H   0  0  0  0  0  0  0  0  0  0  0  0
   35.2586   19.2746   34.0610 H   0  0  0  0  0  0  0  0  0  0  0  0
   36.8838   20.9251   34.8120 H   0  0  0  0  0  0  0  0  0  0  0  0
   36.8700   22.9857   38.5345 H   0  0  0  0  0  0  0  0  0  0  0  0
   38.4018   22.8129   39.3851 H   0  0  0  0  0  0  0  0  0  0  0  0
   38.0024   25.1382   39.7316 H   0  0  0  0  0  0  0  0  0  0  0  0
   38.9055   25.2227   38.1812 H   0  0  0  0  0  0  0  0  0  0  0  0
   37.1113   25.3082   38.1812 H   0  0  0  0  0  0  0  0  0  0  0  0
  1  2  2  0
  2  3  1  0
  3 17  1  0
  4  3  2  0
  5  4  1  0
  6  5  2  0
  6  1  1  0
  7  5  1  0
  8  7  2  0
  9  8  1  0
 10  9  2  0
 10 11  1  0
 11 16  2  0
 12 11  1  0
 12 13  2  0
 13 14  1  0
 14 15  2  0
 16  7  1  0
 16 15  1  0
 17 18  1  0
  1 19  1  0
  2 20  1  0
  9 21  1  0
 12 22  1  0
 13 23  1  0
 14 24  1  0
 15 25  1  0
 17 26  1  0
 17 27  1  0
 18 28  1  0
 18 29  1  0
 18 30  1  0
M  ISO  8  19  14  20  14  21  14  22  14  23  14  24  14  25  14  26   8
M  ISO  4  27   8  28   8  29   8  30   8
M  END
>  <minimizedAffinity>  (1) 
-5.13610125

>  <minimizedRMSD>  (1) 
3.5781188

$$$$
