
     RDKit          3D

 29 31  0  0  0  0  0  0  0  0999 V2000
   40.6580   22.2260   35.5300 C   0  0  0  0  0  0  0  0  0  0  0  0
   40.1190   22.2080   36.8260 C   0  0  0  0  0  0  0  0  0  0  0  0
   39.2930   23.2510   37.2030 C   0  0  0  0  0  0  0  0  0  0  0  0
   39.0430   24.2410   36.3040 N   0  0  0  0  0  0  0  0  0  0  0  0
   39.5820   24.2260   35.0600 C   0  0  0  0  0  0  0  0  0  0  0  0
   40.3800   23.2390   34.6670 N   0  0  0  0  0  0  0  0  0  0  0  0
   39.2910   25.2850   34.1560 N   0  0  0  0  0  0  0  0  0  0  0  0
   39.9910   26.4520   34.0820 C   0  0  0  0  0  0  0  0  0  0  0  0
   39.4710   27.2440   33.1330 N   0  0  0  0  0  0  0  0  0  0  0  0
   38.4340   26.5600   32.6110 C   0  0  0  0  0  0  0  0  0  0  0  0
   37.5360   26.8740   31.6110 C   0  0  0  0  0  0  0  0  0  0  0  0
   36.5770   26.0240   31.2600 N   0  0  0  0  0  0  0  0  0  0  0  0
   36.4780   24.8260   31.8960 C   0  0  0  0  0  0  0  0  0  0  0  0
   37.3390   24.4800   32.8820 N   0  0  0  0  0  0  0  0  0  0  0  0
   38.3010   25.3220   33.2400 C   0  0  0  0  0  0  0  0  0  0  0  0
   38.7060   23.2600   38.5660 C   0  0  0  0  0  0  0  0  0  0  0  0
   37.9230   24.5690   38.6850 C   0  0  0  0  0  0  0  0  0  0  0  0
   37.6880   28.1470   30.9760 N   0  0  0  0  0  0  0  0  0  0  0  0
   41.3167   21.4063   35.2071 H   0  0  0  0  0  0  0  0  0  0  0  0
   40.3472   21.3874   37.5221 H   0  0  0  0  0  0  0  0  0  0  0  0
   40.8573   26.7073   34.7099 H   0  0  0  0  0  0  0  0  0  0  0  0
   35.6829   24.1244   31.6037 H   0  0  0  0  0  0  0  0  0  0  0  0
   38.0330   22.3998   38.6970 H   0  0  0  0  0  0  0  0  0  0  0  0
   39.4856   23.1877   39.3386 H   0  0  0  0  0  0  0  0  0  0  0  0
   37.7768   24.8135   39.7475 H   0  0  0  0  0  0  0  0  0  0  0  0
   38.4854   25.3784   38.1965 H   0  0  0  0  0  0  0  0  0  0  0  0
   36.9439   24.4563   38.1965 H   0  0  0  0  0  0  0  0  0  0  0  0
   37.0426   28.4277   30.2239 H   0  0  0  0  0  0  0  0  0  0  0  0
   38.4428   28.7828   31.2709 H   0  0  0  0  0  0  0  0  0  0  0  0
  1  2  2  0
  2  3  1  0
  3 16  1  0
  4  3  2  0
  5  4  1  0
  6  5  2  0
  6  1  1  0
  7  5  1  0
  8  7  1  0
  9  8  2  0
 10  9  1  0
 10 15  2  0
 11 10  1  0
 12 11  2  0
 12 13  1  0
 13 14  2  0
 14 15  1  0
 15  7  1  0
 16 17  1  0
 18 11  1  0
  1 19  1  0
  2 20  1  0
  8 21  1  0
 13 22  1  0
 16 23  1  0
 16 24  1  0
 17 25  1  0
 17 26  1  0
 17 27  1  0
 18 28  1  0
 18 29  1  0
M  ISO  8  19  14  20  14  21  14  22  14  23   8  24   8  25   8  26   8
M  ISO  1  27   8
M  END
>  <minimizedAffinity>  (1) 
-4.58877468

>  <minimizedRMSD>  (1) 
4.75497389

$$$$
