
     RDKit          3D

 30 32  0  0  0  0  0  0  0  0999 V2000
   39.3380   22.4070   34.6510 C   0  0  0  0  0  0  0  0  0  0  0  0
   38.7770   22.5480   35.9370 C   0  0  0  0  0  0  0  0  0  0  0  0
   38.2100   23.7710   36.2570 C   0  0  0  0  0  0  0  0  0  0  0  0
   38.2200   24.7720   35.3250 N   0  0  0  0  0  0  0  0  0  0  0  0
   38.7700   24.5930   34.1010 C   0  0  0  0  0  0  0  0  0  0  0  0
   39.3220   23.4290   33.7660 N   0  0  0  0  0  0  0  0  0  0  0  0
   38.7680   25.6540   33.1460 N   0  0  0  0  0  0  0  0  0  0  0  0
   39.7620   26.5620   32.9330 C   0  0  0  0  0  0  0  0  0  0  0  0
   39.3790   27.4020   31.9450 N   0  0  0  0  0  0  0  0  0  0  0  0
   38.1530   27.0370   31.5300 C   0  0  0  0  0  0  0  0  0  0  0  0
   37.2730   27.5050   30.5760 C   0  0  0  0  0  0  0  0  0  0  0  0
   37.5750   28.4990   29.8660 O   0  0  0  0  0  0  0  0  0  0  0  0
   36.0560   26.9500   30.3380 N   0  0  0  0  0  0  0  0  0  0  0  0
   35.7580   25.8890   31.1110 C   0  0  0  0  0  0  0  0  0  0  0  0
   34.5220   25.2030   30.9770 N   0  0  0  0  0  0  0  0  0  0  0  0
   36.5660   25.3730   32.0630 N   0  0  0  0  0  0  0  0  0  0  0  0
   37.7680   25.9340   32.2890 C   0  0  0  0  0  0  0  0  0  0  0  0
   37.6030   23.9770   37.5980 C   0  0  0  0  0  0  0  0  0  0  0  0
   38.6470   23.4630   38.6010 C   0  0  0  0  0  0  0  0  0  0  0  0
   39.7964   21.4494   34.3630 H   0  0  0  0  0  0  0  0  0  0  0  0
   38.7891   21.7182   36.6590 H   0  0  0  0  0  0  0  0  0  0  0  0
   40.7180   26.6044   33.4754 H   0  0  0  0  0  0  0  0  0  0  0  0
   35.4112   27.3130   29.6215 H   0  0  0  0  0  0  0  0  0  0  0  0
   34.3145   24.3934   31.5789 H   0  0  0  0  0  0  0  0  0  0  0  0
   33.8330   25.5150   30.2779 H   0  0  0  0  0  0  0  0  0  0  0  0
   37.3985   25.0443   37.7682 H   0  0  0  0  0  0  0  0  0  0  0  0
   36.6437   23.4483   37.6987 H   0  0  0  0  0  0  0  0  0  0  0  0
   38.2887   23.6394   39.6259 H   0  0  0  0  0  0  0  0  0  0  0  0
   38.8032   22.3850   38.4476 H   0  0  0  0  0  0  0  0  0  0  0  0
   39.5966   23.9966   38.4476 H   0  0  0  0  0  0  0  0  0  0  0  0
  1  2  2  0
  2  3  1  0
  3 18  1  0
  4  3  2  0
  5  4  1  0
  6  5  2  0
  6  1  1  0
  7  5  1  0
  8  7  1  0
  9  8  2  0
 10  9  1  0
 10 17  2  0
 11 10  1  0
 12 11  2  0
 13 11  1  0
 13 14  1  0
 14 16  2  0
 15 14  1  0
 16 17  1  0
 17  7  1  0
 18 19  1  0
  1 20  1  0
  2 21  1  0
  8 22  1  0
 13 23  1  0
 15 24  1  0
 15 25  1  0
 18 26  1  0
 18 27  1  0
 19 28  1  0
 19 29  1  0
 19 30  1  0
M  ISO  8  20  14  21  14  22  14  23   9  26   8  27   8  28   8  29   8
M  ISO  1  30   8
M  END
>  <minimizedAffinity>  (1) 
-5.26635742

>  <minimizedRMSD>  (1) 
5.53014517

$$$$
