
     RDKit          3D

 29 30  0  0  0  0  0  0  0  0999 V2000
   40.2140   23.2500   35.1090 C   0  0  0  0  0  0  0  0  0  0  0  0
   39.9990   23.5150   36.4690 C   0  0  0  0  0  0  0  0  0  0  0  0
   38.8190   23.0830   37.0500 C   0  0  0  0  0  0  0  0  0  0  0  0
   37.9060   22.4080   36.2620 N   0  0  0  0  0  0  0  0  0  0  0  0
   38.1550   22.1740   34.9580 C   0  0  0  0  0  0  0  0  0  0  0  0
   39.2830   22.5850   34.3890 N   0  0  0  0  0  0  0  0  0  0  0  0
   37.1670   21.4690   34.1940 N   0  0  0  0  0  0  0  0  0  0  0  0
   37.2830   21.4360   32.8420 C   0  0  0  0  0  0  0  0  0  0  0  0
   36.3580   20.7690   32.0580 C   0  0  0  0  0  0  0  0  0  0  0  0
   36.4280   20.6990   30.5740 C   0  0  0  0  0  0  0  0  0  0  0  0
   35.3440   20.1650   32.7730 C   0  0  0  0  0  0  0  0  0  0  0  0
   34.4720   19.5390   32.0790 O   0  0  0  0  0  0  0  0  0  0  0  0
   35.1870   20.1660   34.0980 N   0  0  0  0  0  0  0  0  0  0  0  0
   36.1440   20.8470   34.7900 C   0  0  0  0  0  0  0  0  0  0  0  0
   36.0230   20.8690   36.0610 O   0  0  0  0  0  0  0  0  0  0  0  0
   38.5920   23.3670   38.4940 C   0  0  0  0  0  0  0  0  0  0  0  0
   37.8770   24.7100   38.5720 C   0  0  0  0  0  0  0  0  0  0  0  0
   41.1440   23.5846   34.6260 H   0  0  0  0  0  0  0  0  0  0  0  0
   40.7521   24.0548   37.0618 H   0  0  0  0  0  0  0  0  0  0  0  0
   38.1284   21.9492   32.3603 H   0  0  0  0  0  0  0  0  0  0  0  0
   37.1770   19.9500   30.2772 H   0  0  0  0  0  0  0  0  0  0  0  0
   35.4443   20.4125   30.1736 H   0  0  0  0  0  0  0  0  0  0  0  0
   36.7145   21.6827   30.1736 H   0  0  0  0  0  0  0  0  0  0  0  0
   34.4019   19.6882   34.5630 H   0  0  0  0  0  0  0  0  0  0  0  0
   37.9679   22.5793   38.9412 H   0  0  0  0  0  0  0  0  0  0  0  0
   39.5437   23.3942   39.0450 H   0  0  0  0  0  0  0  0  0  0  0  0
   37.7299   24.9864   39.6265 H   0  0  0  0  0  0  0  0  0  0  0  0
   38.4852   25.4787   38.0729 H   0  0  0  0  0  0  0  0  0  0  0  0
   36.8996   24.6346   38.0729 H   0  0  0  0  0  0  0  0  0  0  0  0
  1  2  2  0
  2  3  1  0
  3 16  1  0
  4  3  2  0
  5  4  1  0
  6  5  2  0
  6  1  1  0
  7 14  1  0
  7  5  1  0
  8  7  1  0
  9 11  1  0
  9  8  2  0
 10  9  1  0
 11 13  1  0
 12 11  2  0
 13 14  1  0
 14 15  2  0
 16 17  1  0
  1 18  1  0
  2 19  1  0
  8 20  1  0
 10 21  1  0
 10 22  1  0
 10 23  1  0
 13 24  1  0
 16 25  1  0
 16 26  1  0
 17 27  1  0
 17 28  1  0
 17 29  1  0
M  ISO  8  18  14  19  14  20  14  21   8  22   8  23   8  24   9  25   8
M  ISO  4  26   8  27   8  28   8  29   8
M  END
>  <minimizedAffinity>  (1) 
-5.00191402

>  <minimizedRMSD>  (1) 
4.28405142

$$$$
