
     RDKit          3D

 23 24  0  0  0  0  0  0  0  0999 V2000
   40.9460   22.4550   36.7930 C   0  0  0  0  0  0  0  0  0  0  0  0
   40.0240   22.8830   37.7540 C   0  0  0  0  0  0  0  0  0  0  0  0
   38.6980   22.9150   37.3600 C   0  0  0  0  0  0  0  0  0  0  0  0
   38.3610   22.5400   36.0890 N   0  0  0  0  0  0  0  0  0  0  0  0
   39.2880   22.1360   35.2000 C   0  0  0  0  0  0  0  0  0  0  0  0
   40.5780   22.0930   35.5520 N   0  0  0  0  0  0  0  0  0  0  0  0
   38.7000   21.7980   33.9500 N   0  0  0  0  0  0  0  0  0  0  0  0
   39.1260   21.1250   32.8910 N   0  0  0  0  0  0  0  0  0  0  0  0
   38.1500   21.0950   31.9510 C   0  0  0  0  0  0  0  0  0  0  0  0
   37.0670   21.7940   32.4770 C   0  0  0  0  0  0  0  0  0  0  0  0
   37.4440   22.2290   33.7450 C   0  0  0  0  0  0  0  0  0  0  0  0
   37.6510   23.3620   38.3360 C   0  0  0  0  0  0  0  0  0  0  0  0
   38.0170   24.7790   38.7250 C   0  0  0  0  0  0  0  0  0  0  0  0
   42.0115   22.4132   37.0629 H   0  0  0  0  0  0  0  0  0  0  0  0
   40.3359   23.1778   38.7668 H   0  0  0  0  0  0  0  0  0  0  0  0
   38.2033   20.6121   30.9641 H   0  0  0  0  0  0  0  0  0  0  0  0
   36.0988   21.9692   31.9851 H   0  0  0  0  0  0  0  0  0  0  0  0
   36.8302   22.8142   34.4456 H   0  0  0  0  0  0  0  0  0  0  0  0
   36.6567   23.3399   37.8660 H   0  0  0  0  0  0  0  0  0  0  0  0
   37.6125   22.7013   39.2146 H   0  0  0  0  0  0  0  0  0  0  0  0
   38.0390   24.8642   39.8215 H   0  0  0  0  0  0  0  0  0  0  0  0
   39.0085   25.0265   38.3180 H   0  0  0  0  0  0  0  0  0  0  0  0
   37.2693   25.4757   38.3180 H   0  0  0  0  0  0  0  0  0  0  0  0
  1  2  2  0
  3  2  1  0
  3 12  1  0
  4  3  2  0
  5  6  2  0
  5  4  1  0
  6  1  1  0
  7  5  1  0
  8  7  1  0
  9 10  1  0
  9  8  2  0
 10 11  2  0
 11  7  1  0
 12 13  1  0
  1 14  1  0
  2 15  1  0
  9 16  1  0
 10 17  1  0
 11 18  1  0
 12 19  1  0
 12 20  1  0
 13 21  1  0
 13 22  1  0
 13 23  1  0
M  ISO  8  14  14  15  14  16  14  17  14  18  14  19   8  20   8  21   8
M  ISO  2  22   8  23   8
M  END
>  <minimizedAffinity>  (1) 
-3.55924582

>  <minimizedRMSD>  (1) 
1.66438258

$$$$
