
     RDKit          3D

 23 23  0  0  0  0  0  0  0  0999 V2000
   40.8310   22.2110   37.4430 C   0  0  0  0  0  0  0  0  0  0  0  0
   39.7420   22.9080   37.9760 C   0  0  0  0  0  0  0  0  0  0  0  0
   38.7160   23.2320   37.1070 C   0  0  0  0  0  0  0  0  0  0  0  0
   38.8280   22.8550   35.8030 N   0  0  0  0  0  0  0  0  0  0  0  0
   39.8820   22.1860   35.3130 C   0  0  0  0  0  0  0  0  0  0  0  0
   40.8660   21.8750   36.1430 N   0  0  0  0  0  0  0  0  0  0  0  0
   39.8470   21.8640   33.9350 N   0  0  0  0  0  0  0  0  0  0  0  0
   38.6290   21.9510   33.2270 C   0  0  0  0  0  0  0  0  0  0  0  0
   37.5140   21.5800   33.7530 N   0  0  0  0  0  0  0  0  0  0  0  0
   38.5590   22.4480   31.8960 N   0  0  0  0  0  0  0  0  0  0  0  0
   37.4680   21.2020   34.7170 H   0  0  0  0  0  0  0  0  0  0  0  0
   37.5340   23.9730   37.6270 C   0  0  0  0  0  0  0  0  0  0  0  0
   37.9970   24.7150   38.8690 C   0  0  0  0  0  0  0  0  0  0  0  0
   41.6706   21.9341   38.0975 H   0  0  0  0  0  0  0  0  0  0  0  0
   39.7032   23.1863   39.0395 H   0  0  0  0  0  0  0  0  0  0  0  0
   40.7066   21.5675   33.4511 H   0  0  0  0  0  0  0  0  0  0  0  0
   39.4156   22.7614   31.4176 H   0  0  0  0  0  0  0  0  0  0  0  0
   37.6517   22.4945   31.4107 H   0  0  0  0  0  0  0  0  0  0  0  0
   37.1714   24.6863   36.8722 H   0  0  0  0  0  0  0  0  0  0  0  0
   36.7074   23.2860   37.8611 H   0  0  0  0  0  0  0  0  0  0  0  0
   37.6599   24.1747   39.7659 H   0  0  0  0  0  0  0  0  0  0  0  0
   39.0952   24.7783   38.8702 H   0  0  0  0  0  0  0  0  0  0  0  0
   37.5712   25.7293   38.8702 H   0  0  0  0  0  0  0  0  0  0  0  0
  1  2  2  0
  3 12  1  0
  3  2  1  0
  4  3  2  0
  5  4  1  0
  5  6  2  0
  6  1  1  0
  7  5  1  0
  8  9  2  0
  8  7  1  0
  9 11  1  0
 10  8  1  0
 12 13  1  0
  1 14  1  0
  2 15  1  0
  7 16  1  0
 10 17  1  0
 10 18  1  0
 12 19  1  0
 12 20  1  0
 13 21  1  0
 13 22  1  0
 13 23  1  0
M  ISO  7  14  14  15  14  19   8  20   8  21   8  22   8  23   8
M  END
>  <minimizedAffinity>  (1) 
-3.457865

>  <minimizedRMSD>  (1) 
0.686268389

$$$$
