
     RDKit          3D

 29 30  0  0  0  0  0  0  0  0999 V2000
   40.8780   22.2840   37.2820 C   0  0  0  0  0  0  0  0  0  0  0  0
   39.7650   22.8680   37.8980 C   0  0  0  0  0  0  0  0  0  0  0  0
   38.6190   23.1150   37.1620 C   0  0  0  0  0  0  0  0  0  0  0  0
   38.6140   22.7730   35.8420 N   0  0  0  0  0  0  0  0  0  0  0  0
   39.7100   22.2090   35.2730 C   0  0  0  0  0  0  0  0  0  0  0  0
   40.8120   21.9710   35.9760 N   0  0  0  0  0  0  0  0  0  0  0  0
   39.5990   21.2140   31.1750 C   0  0  0  0  0  0  0  0  0  0  0  0
   40.8260   21.5290   31.7330 C   0  0  0  0  0  0  0  0  0  0  0  0
   40.7900   21.8430   33.0770 C   0  0  0  0  0  0  0  0  0  0  0  0
   39.6550   21.8600   33.8500 C   0  0  0  0  0  0  0  0  0  0  0  0
   38.4370   21.5360   33.2530 C   0  0  0  0  0  0  0  0  0  0  0  0
   38.4220   21.2090   31.8950 C   0  0  0  0  0  0  0  0  0  0  0  0
   39.5050   20.7930   29.4760 S   0  0  0  0  0  0  0  0  0  0  0  0
   39.4700   22.0420   28.6130 O   0  0  0  0  0  0  0  0  0  0  0  0
   38.2020   20.0780   29.2450 O   0  0  0  0  0  0  0  0  0  0  0  0
   37.4510   23.7350   37.8400 C   0  0  0  0  0  0  0  0  0  0  0  0
   38.0080   24.7310   38.8410 C   0  0  0  0  0  0  0  0  0  0  0  0
   41.7935   22.0840   37.8581 H   0  0  0  0  0  0  0  0  0  0  0  0
   39.8010   23.1303   38.9657 H   0  0  0  0  0  0  0  0  0  0  0  0
   41.7588   21.5291   31.1500 H   0  0  0  0  0  0  0  0  0  0  0  0
   41.7419   22.0988   33.5653 H   0  0  0  0  0  0  0  0  0  0  0  0
   37.5066   21.5379   33.8398 H   0  0  0  0  0  0  0  0  0  0  0  0
   37.4744   20.9482   31.4010 H   0  0  0  0  0  0  0  0  0  0  0  0
   40.5944   20.0274   29.1535 H   0  0  0  0  0  0  0  0  0  0  0  0
   36.8155   24.2508   37.1051 H   0  0  0  0  0  0  0  0  0  0  0  0
   36.8330   22.9744   38.3396 H   0  0  0  0  0  0  0  0  0  0  0  0
   37.8087   24.3747   39.8624 H   0  0  0  0  0  0  0  0  0  0  0  0
   39.0933   24.8316   38.6930 H   0  0  0  0  0  0  0  0  0  0  0  0
   37.5256   25.7084   38.6930 H   0  0  0  0  0  0  0  0  0  0  0  0
  1  2  2  0
  3 16  1  0
  3  2  1  0
  4  3  2  0
  5  4  1  0
  5  6  2  0
  6  1  1  0
  7  8  2  0
  7 12  1  0
  8  9  1  0
  9 10  2  0
 10  5  1  0
 11 10  1  0
 12 11  2  0
 13  7  1  0
 14 13  2  0
 15 13  2  0
 16 17  1  0
  1 18  1  0
  2 19  1  0
  8 20  1  0
  9 21  1  0
 11 22  1  0
 12 23  1  0
 13 24  1  0
 16 25  1  0
 16 26  1  0
 17 27  1  0
 17 28  1  0
 17 29  1  0
M  ISO  8  18  14  19  14  20  14  21  14  22  14  23  14  24  11  25   8
M  ISO  4  26   8  27   8  28   8  29   8
M  END
>  <minimizedAffinity>  (1) 
-3.39045501

>  <minimizedRMSD>  (1) 
1.36608422

$$$$
