
     RDKit          3D

 32 33  0  0  0  0  0  0  0  0999 V2000
   40.8210   22.2170   37.2670 C   0  0  0  0  0  0  0  0  0  0  0  0
   39.7440   22.8850   37.8660 C   0  0  0  0  0  0  0  0  0  0  0  0
   38.6630   23.2200   37.0620 C   0  0  0  0  0  0  0  0  0  0  0  0
   38.6930   22.8900   35.7310 N   0  0  0  0  0  0  0  0  0  0  0  0
   39.7540   22.2480   35.2060 C   0  0  0  0  0  0  0  0  0  0  0  0
   40.8080   21.9080   35.9390 N   0  0  0  0  0  0  0  0  0  0  0  0
   39.7470   21.9080   33.7600 C   0  0  0  0  0  0  0  0  0  0  0  0
   40.2780   23.0130   32.9000 C   0  0  0  0  0  0  0  0  0  0  0  0
   39.5310   23.1480   31.5890 C   0  0  0  0  0  0  0  0  0  0  0  0
   39.2520   21.8050   30.9570 C   0  0  0  0  0  0  0  0  0  0  0  0
   38.5580   20.8720   31.8990 C   0  0  0  0  0  0  0  0  0  0  0  0
   38.3650   21.5300   33.2710 C   0  0  0  0  0  0  0  0  0  0  0  0
   37.4830   23.9350   37.6510 C   0  0  0  0  0  0  0  0  0  0  0  0
   38.0320   24.6770   38.8570 C   0  0  0  0  0  0  0  0  0  0  0  0
   41.6914   21.9373   37.8787 H   0  0  0  0  0  0  0  0  0  0  0  0
   39.7550   23.1353   38.9371 H   0  0  0  0  0  0  0  0  0  0  0  0
   40.4168   21.0403   33.6679 H   0  0  0  0  0  0  0  0  0  0  0  0
   40.1922   23.9603   33.4524 H   0  0  0  0  0  0  0  0  0  0  0  0
   41.3246   22.7728   32.6613 H   0  0  0  0  0  0  0  0  0  0  0  0
   38.5746   23.6583   31.7759 H   0  0  0  0  0  0  0  0  0  0  0  0
   40.1609   23.7256   30.8965 H   0  0  0  0  0  0  0  0  0  0  0  0
   38.6150   21.9547   30.0728 H   0  0  0  0  0  0  0  0  0  0  0  0
   40.2167   21.3532   30.6826 H   0  0  0  0  0  0  0  0  0  0  0  0
   37.5743   20.6063   31.4845 H   0  0  0  0  0  0  0  0  0  0  0  0
   39.1763   19.9707   32.0232 H   0  0  0  0  0  0  0  0  0  0  0  0
   37.7355   22.4272   33.1778 H   0  0  0  0  0  0  0  0  0  0  0  0
   37.8651   20.8479   33.9744 H   0  0  0  0  0  0  0  0  0  0  0  0
   37.0572   24.6418   36.9236 H   0  0  0  0  0  0  0  0  0  0  0  0
   36.6757   23.2406   37.9266 H   0  0  0  0  0  0  0  0  0  0  0  0
   37.6747   24.1941   39.7785 H   0  0  0  0  0  0  0  0  0  0  0  0
   39.1315   24.6530   38.8330 H   0  0  0  0  0  0  0  0  0  0  0  0
   37.6875   25.7214   38.8330 H   0  0  0  0  0  0  0  0  0  0  0  0
  1  2  2  0
  3 13  1  0
  3  2  1  0
  4  3  2  0
  5  4  1  0
  5  6  2  0
  6  1  1  0
  7  5  1  0
  8  7  1  0
  9  8  1  0
 10  9  1  0
 10 11  1  0
 11 12  1  0
 12  7  1  0
 13 14  1  0
  1 15  1  0
  2 16  1  0
  7 17  1  0
  8 18  1  0
  8 19  1  0
  9 20  1  0
  9 21  1  0
 10 22  1  0
 10 23  1  0
 11 24  1  0
 11 25  1  0
 12 26  1  0
 12 27  1  0
 13 28  1  0
 13 29  1  0
 14 30  1  0
 14 31  1  0
 14 32  1  0
M  ISO  8  15  14  16  14  17  13  18  13  19  13  20  13  21  13  22  13
M  ISO  8  23  13  24  13  25  13  26  13  27  13  28   8  29   8  30   8
M  ISO  2  31   8  32   8
M  END
>  <minimizedAffinity>  (1) 
-3.33866763

>  <minimizedRMSD>  (1) 
0.927413523

$$$$
