
     RDKit          3D

 25 27  0  0  0  0  0  0  0  0999 V2000
   39.3470   25.6990   34.4630 C   0  0  0  0  0  0  0  0  0  0  0  0
   40.2880   26.7160   34.5440 C   0  0  0  0  0  0  0  0  0  0  0  0
   40.2520   27.2900   33.3020 N   0  0  0  0  0  0  0  0  0  0  0  0
   39.3550   26.6410   32.5740 C   0  0  0  0  0  0  0  0  0  0  0  0
   38.7700   25.6430   33.2630 N   0  0  0  0  0  0  0  0  0  0  0  0
   39.0130   24.7870   35.5540 C   0  0  0  0  0  0  0  0  0  0  0  0
   39.8620   23.7040   35.8500 C   0  0  0  0  0  0  0  0  0  0  0  0
   39.5140   22.8460   36.9080 C   0  0  0  0  0  0  0  0  0  0  0  0
   38.3790   23.1200   37.5770 N   0  0  0  0  0  0  0  0  0  0  0  0
   37.5900   24.1610   37.2690 C   0  0  0  0  0  0  0  0  0  0  0  0
   37.8780   25.0170   36.2620 N   0  0  0  0  0  0  0  0  0  0  0  0
   37.7800   24.7940   32.7260 C   0  0  0  0  0  0  0  0  0  0  0  0
   37.7640   23.4080   32.7540 C   0  0  0  0  0  0  0  0  0  0  0  0
   36.7150   22.7130   32.1810 C   0  0  0  0  0  0  0  0  0  0  0  0
   35.7240   23.4200   31.6050 N   0  0  0  0  0  0  0  0  0  0  0  0
   35.7480   24.7450   31.5830 C   0  0  0  0  0  0  0  0  0  0  0  0
   36.7690   25.4430   32.1410 N   0  0  0  0  0  0  0  0  0  0  0  0
   40.9149   26.9950   35.4037 H   0  0  0  0  0  0  0  0  0  0  0  0
   39.1162   26.8886   31.5292 H   0  0  0  0  0  0  0  0  0  0  0  0
   40.7783   23.5326   35.2660 H   0  0  0  0  0  0  0  0  0  0  0  0
   40.1440   21.9856   37.1780 H   0  0  0  0  0  0  0  0  0  0  0  0
   36.6750   24.3242   37.8574 H   0  0  0  0  0  0  0  0  0  0  0  0
   38.5883   22.8596   33.2335 H   0  0  0  0  0  0  0  0  0  0  0  0
   36.6906   21.6134   32.1952 H   0  0  0  0  0  0  0  0  0  0  0  0
   34.9226   25.2904   31.1021 H   0  0  0  0  0  0  0  0  0  0  0  0
  1  2  2  0
  1  6  1  0
  3  2  1  0
  4  5  1  0
  4  3  2  0
  5  1  1  0
  6  7  2  0
  6 11  1  0
  7  8  1  0
  8  9  2  0
 10  9  1  0
 11 10  2  0
 12 13  2  0
 12  5  1  0
 14 13  1  0
 15 14  2  0
 16 15  1  0
 16 17  2  0
 17 12  1  0
  2 18  1  0
  4 19  1  0
  7 20  1  0
  8 21  1  0
 10 22  1  0
 13 23  1  0
 14 24  1  0
 16 25  1  0
M  ISO  8  18  14  19  14  20  14  21  14  22  14  23  14  24  14  25  14
M  END
>  <minimizedAffinity>  (1) 
-4.16933775

>  <minimizedRMSD>  (1) 
5.45609713

$$$$
