
     RDKit          3D

 22 23  0  0  0  0  0  0  0  0999 V2000
   40.8110   22.2020   37.3250 C   0  0  0  0  0  0  0  0  0  0  0  0
   39.7230   22.8900   37.8900 C   0  0  0  0  0  0  0  0  0  0  0  0
   38.6830   23.2460   37.0510 C   0  0  0  0  0  0  0  0  0  0  0  0
   38.7510   22.9200   35.7230 N   0  0  0  0  0  0  0  0  0  0  0  0
   39.8130   22.2610   35.2260 C   0  0  0  0  0  0  0  0  0  0  0  0
   40.8330   21.9010   35.9960 N   0  0  0  0  0  0  0  0  0  0  0  0
   39.7740   21.9680   33.7980 C   0  0  0  0  0  0  0  0  0  0  0  0
   40.8170   22.4160   32.9070 C   0  0  0  0  0  0  0  0  0  0  0  0
   40.2650   21.7790   31.2610 S   0  0  0  0  0  0  0  0  0  0  0  0
   38.7230   21.0210   32.0760 C   0  0  0  0  0  0  0  0  0  0  0  0
   38.8280   21.2890   33.1650 N   0  0  0  0  0  0  0  0  0  0  0  0
   37.5190   23.9720   37.6180 C   0  0  0  0  0  0  0  0  0  0  0  0
   38.0070   24.6940   38.8630 C   0  0  0  0  0  0  0  0  0  0  0  0
   41.6552   21.9028   37.9636 H   0  0  0  0  0  0  0  0  0  0  0  0
   39.6998   23.1365   38.9618 H   0  0  0  0  0  0  0  0  0  0  0  0
   41.7204   22.9953   33.1482 H   0  0  0  0  0  0  0  0  0  0  0  0
   37.9143   20.4516   31.5945 H   0  0  0  0  0  0  0  0  0  0  0  0
   37.1344   24.6983   36.8868 H   0  0  0  0  0  0  0  0  0  0  0  0
   36.7041   23.2751   37.8633 H   0  0  0  0  0  0  0  0  0  0  0  0
   37.6490   24.1643   39.7581 H   0  0  0  0  0  0  0  0  0  0  0  0
   39.1068   24.7172   38.8660 H   0  0  0  0  0  0  0  0  0  0  0  0
   37.6185   25.7231   38.8660 H   0  0  0  0  0  0  0  0  0  0  0  0
  1  2  2  0
  3 12  1  0
  3  2  1  0
  4  3  2  0
  5  4  1  0
  5  6  2  0
  6  1  1  0
  7  5  1  0
  8  7  2  0
  9 10  1  0
  9  8  1  0
 10 11  2  0
 11  7  1  0
 12 13  1  0
  1 14  1  0
  2 15  1  0
  8 16  1  0
 10 17  1  0
 12 18  1  0
 12 19  1  0
 13 20  1  0
 13 21  1  0
 13 22  1  0
M  ISO  8  14  14  15  14  16  14  17  14  18   8  19   8  20   8  21   8
M  ISO  1  22   8
M  END
>  <minimizedAffinity>  (1) 
-3.20708418

>  <minimizedRMSD>  (1) 
0.832361639

$$$$
