
     RDKit          3D

 23 24  0  0  0  0  0  0  0  0999 V2000
   40.8220   22.1260   37.4790 C   0  0  0  0  0  0  0  0  0  0  0  0
   39.7140   22.8960   37.8420 C   0  0  0  0  0  0  0  0  0  0  0  0
   38.7900   23.3380   36.9120 C   0  0  0  0  0  0  0  0  0  0  0  0
   39.0200   22.9800   35.6180 N   0  0  0  0  0  0  0  0  0  0  0  0
   40.0930   22.2360   35.2820 C   0  0  0  0  0  0  0  0  0  0  0  0
   40.9800   21.8130   36.1750 N   0  0  0  0  0  0  0  0  0  0  0  0
   40.3230   21.8650   33.9110 C   0  0  0  0  0  0  0  0  0  0  0  0
   41.3330   21.6880   33.0330 C   0  0  0  0  0  0  0  0  0  0  0  0
   41.1380   21.3120   31.7530 C   0  0  0  0  0  0  0  0  0  0  0  0
   39.7280   21.1140   31.4080 C   0  0  0  0  0  0  0  0  0  0  0  0
   38.8490   21.5050   33.0110 S   0  0  0  0  0  0  0  0  0  0  0  0
   37.6360   24.1530   37.3690 C   0  0  0  0  0  0  0  0  0  0  0  0
   37.9500   24.5990   38.8000 C   0  0  0  0  0  0  0  0  0  0  0  0
   41.5452   21.7844   38.2342 H   0  0  0  0  0  0  0  0  0  0  0  0
   39.5719   23.1591   38.9006 H   0  0  0  0  0  0  0  0  0  0  0  0
   42.3635   21.8585   33.3781 H   0  0  0  0  0  0  0  0  0  0  0  0
   41.9595   21.1676   31.0359 H   0  0  0  0  0  0  0  0  0  0  0  0
   39.2938   20.8103   30.4440 H   0  0  0  0  0  0  0  0  0  0  0  0
   37.5102   25.0304   36.7176 H   0  0  0  0  0  0  0  0  0  0  0  0
   36.7026   23.5722   37.3319 H   0  0  0  0  0  0  0  0  0  0  0  0
   37.4673   23.9134   39.5120 H   0  0  0  0  0  0  0  0  0  0  0  0
   39.0385   24.5849   38.9579 H   0  0  0  0  0  0  0  0  0  0  0  0
   37.5697   25.6190   38.9579 H   0  0  0  0  0  0  0  0  0  0  0  0
  1  2  2  0
  3 12  1  0
  3  2  1  0
  4  3  2  0
  5  4  1  0
  5  6  2  0
  6  1  1  0
  7  5  1  0
  8  7  2  0
  9  8  1  0
 10  9  2  0
 10 11  1  0
 11  7  1  0
 12 13  1  0
  1 14  1  0
  2 15  1  0
  8 16  1  0
  9 17  1  0
 10 18  1  0
 12 19  1  0
 12 20  1  0
 13 21  1  0
 13 22  1  0
 13 23  1  0
M  ISO  8  14  14  15  14  16  14  17  14  18  14  19   8  20   8  21   8
M  ISO  2  22   8  23   8
M  END
>  <minimizedAffinity>  (1) 
-3.14459634

>  <minimizedRMSD>  (1) 
0.357590646

$$$$
