
     RDKit          3D

 29 31  0  0  0  0  0  0  0  0999 V2000
   42.4930   20.5480   37.5910 C   0  0  0  0  0  0  0  0  0  0  0  0
   41.5630   21.4830   37.1510 C   0  0  0  0  0  0  0  0  0  0  0  0
   41.3820   21.7730   35.8040 C   0  0  0  0  0  0  0  0  0  0  0  0
   42.1660   21.0900   34.9240 N   0  0  0  0  0  0  0  0  0  0  0  0
   43.0670   20.1820   35.3860 C   0  0  0  0  0  0  0  0  0  0  0  0
   43.2450   19.9020   36.6680 N   0  0  0  0  0  0  0  0  0  0  0  0
   43.9000   19.4760   34.4460 C   0  0  0  0  0  0  0  0  0  0  0  0
   45.2010   19.2250   34.1990 C   0  0  0  0  0  0  0  0  0  0  0  0
   45.6370   18.4860   33.1650 C   0  0  0  0  0  0  0  0  0  0  0  0
   44.5470   17.9840   32.3350 C   0  0  0  0  0  0  0  0  0  0  0  0
   43.0410   18.6510   33.1690 S   0  0  0  0  0  0  0  0  0  0  0  0
   40.3840   22.7920   35.4020 C   0  0  0  0  0  0  0  0  0  0  0  0
   39.0580   22.3620   35.9900 C   0  0  0  0  0  0  0  0  0  0  0  0
   38.5920   23.4630   36.8580 N   0  0  0  0  0  0  0  0  0  0  0  0
   38.4220   23.3180   38.1810 C   0  0  0  0  0  0  0  0  0  0  0  0
   37.9920   24.4900   38.6910 N   0  0  0  0  0  0  0  0  0  0  0  0
   37.9010   25.3600   37.6640 C   0  0  0  0  0  0  0  0  0  0  0  0
   38.2740   24.7100   36.5490 N   0  0  0  0  0  0  0  0  0  0  0  0
   42.6153   20.3377   38.6638 H   0  0  0  0  0  0  0  0  0  0  0  0
   40.9490   22.0117   37.8950 H   0  0  0  0  0  0  0  0  0  0  0  0
   45.9495   19.6500   34.8839 H   0  0  0  0  0  0  0  0  0  0  0  0
   46.6994   18.2818   32.9660 H   0  0  0  0  0  0  0  0  0  0  0  0
   44.6078   17.3596   31.4315 H   0  0  0  0  0  0  0  0  0  0  0  0
   40.6706   23.7784   35.7955 H   0  0  0  0  0  0  0  0  0  0  0  0
   40.3221   22.8728   34.3067 H   0  0  0  0  0  0  0  0  0  0  0  0
   38.3294   22.1808   35.1860 H   0  0  0  0  0  0  0  0  0  0  0  0
   39.1672   21.4298   36.5636 H   0  0  0  0  0  0  0  0  0  0  0  0
   38.6032   22.3967   38.7541 H   0  0  0  0  0  0  0  0  0  0  0  0
   37.5799   26.4102   37.7279 H   0  0  0  0  0  0  0  0  0  0  0  0
  2  1  2  0
  3  2  1  0
  4  5  1  0
  4  3  2  0
  5  6  2  0
  6  1  1  0
  7  5  1  0
  8  7  2  0
  9  8  1  0
 10  9  2  0
 10 11  1  0
 11  7  1  0
 12  3  1  0
 12 13  1  0
 13 14  1  0
 14 15  1  0
 15 16  2  0
 17 16  1  0
 18 14  1  0
 18 17  2  0
  1 19  1  0
  2 20  1  0
  8 21  1  0
  9 22  1  0
 10 23  1  0
 12 24  1  0
 12 25  1  0
 13 26  1  0
 13 27  1  0
 15 28  1  0
 17 29  1  0
M  ISO  8  19  14  20  14  21  14  22  14  23  14  24   8  25   8  26   8
M  ISO  3  27   8  28  14  29  14
M  END
>  <minimizedAffinity>  (1) 
-2.91680026

>  <minimizedRMSD>  (1) 
4.0138669

$$$$
