
     RDKit          3D

 43 47  0  0  0  0  0  0  0  0999 V2000
   38.3820   26.6270   34.6480 C   0  0  0  0  0  0  0  0  0  0  0  0
   37.4170   27.5040   33.9680 N   0  0  0  0  0  0  0  0  0  0  0  0
   36.3830   28.1730   34.5230 C   0  0  0  0  0  0  0  0  0  0  0  0
   35.7400   28.8690   33.5630 N   0  0  0  0  0  0  0  0  0  0  0  0
   36.3490   28.6590   32.3780 C   0  0  0  0  0  0  0  0  0  0  0  0
   36.1640   29.0770   31.0850 C   0  0  0  0  0  0  0  0  0  0  0  0
   36.9830   28.6710   30.0670 N   0  0  0  0  0  0  0  0  0  0  0  0
   37.9960   27.8270   30.4010 C   0  0  0  0  0  0  0  0  0  0  0  0
   38.2130   27.3940   31.6520 N   0  0  0  0  0  0  0  0  0  0  0  0
   37.3960   27.8020   32.6560 C   0  0  0  0  0  0  0  0  0  0  0  0
   38.8680   27.3920   29.3240 C   0  0  0  0  0  0  0  0  0  0  0  0
   39.0160   28.1680   28.1780 C   0  0  0  0  0  0  0  0  0  0  0  0
   39.8150   27.8560   27.0960 C   0  0  0  0  0  0  0  0  0  0  0  0
   40.5050   26.6620   27.2110 C   0  0  0  0  0  0  0  0  0  0  0  0
   40.3570   25.9060   28.3330 C   0  0  0  0  0  0  0  0  0  0  0  0
   39.5600   26.2590   29.3640 N   0  0  0  0  0  0  0  0  0  0  0  0
   37.9080   25.1800   34.4930 C   0  0  0  0  0  0  0  0  0  0  0  0
   38.1660   23.9780   38.0620 C   0  0  0  0  0  0  0  0  0  0  0  0
   37.7600   24.6300   36.9200 C   0  0  0  0  0  0  0  0  0  0  0  0
   38.3970   24.4470   35.6820 C   0  0  0  0  0  0  0  0  0  0  0  0
   39.4460   23.5830   35.6650 N   0  0  0  0  0  0  0  0  0  0  0  0
   39.8130   22.9590   36.8220 C   0  0  0  0  0  0  0  0  0  0  0  0
   39.2160   23.1270   37.9940 N   0  0  0  0  0  0  0  0  0  0  0  0
   40.9270   22.0440   36.7980 C   0  0  0  0  0  0  0  0  0  0  0  0
   41.6480   21.2430   37.5900 C   0  0  0  0  0  0  0  0  0  0  0  0
   42.6710   20.5060   37.1770 C   0  0  0  0  0  0  0  0  0  0  0  0
   42.9550   20.6320   35.7750 C   0  0  0  0  0  0  0  0  0  0  0  0
   41.6620   21.8460   35.2040 S   0  0  0  0  0  0  0  0  0  0  0  0
   39.3762   26.7436   34.1920 H   0  0  0  0  0  0  0  0  0  0  0  0
   38.4496   26.8918   35.7135 H   0  0  0  0  0  0  0  0  0  0  0  0
   36.1090   28.1533   35.5881 H   0  0  0  0  0  0  0  0  0  0  0  0
   35.3315   29.7597   30.8594 H   0  0  0  0  0  0  0  0  0  0  0  0
   38.4486   29.1092   28.1303 H   0  0  0  0  0  0  0  0  0  0  0  0
   39.8966   28.5055   26.2120 H   0  0  0  0  0  0  0  0  0  0  0  0
   41.1688   26.3261   26.4008 H   0  0  0  0  0  0  0  0  0  0  0  0
   40.9145   24.9603   28.4033 H   0  0  0  0  0  0  0  0  0  0  0  0
   36.8095   25.1428   34.4491 H   0  0  0  0  0  0  0  0  0  0  0  0
   38.2929   24.7330   33.5645 H   0  0  0  0  0  0  0  0  0  0  0  0
   37.6447   24.1461   39.0159 H   0  0  0  0  0  0  0  0  0  0  0  0
   36.9052   25.3198   36.9792 H   0  0  0  0  0  0  0  0  0  0  0  0
   41.3747   21.1919   38.6543 H   0  0  0  0  0  0  0  0  0  0  0  0
   43.2504   19.8559   37.8491 H   0  0  0  0  0  0  0  0  0  0  0  0
   43.7399   20.1357   35.1854 H   0  0  0  0  0  0  0  0  0  0  0  0
  2  3  1  0
  2  1  1  0
  4  3  2  0
  5 10  2  0
  5  4  1  0
  6  5  1  0
  7  8  1  0
  7  6  2  0
  8  9  2  0
  9 10  1  0
 10  2  1  0
 11 16  1  0
 11  8  1  0
 12 11  2  0
 13 14  2  0
 13 12  1  0
 14 15  1  0
 15 16  2  0
 17  1  1  0
 17 20  1  0
 19 18  2  0
 20 19  1  0
 21 20  2  0
 21 22  1  0
 22 23  2  0
 23 18  1  0
 24 22  1  0
 24 25  2  0
 26 25  1  0
 27 26  2  0
 28 27  1  0
 28 24  1  0
  1 29  1  0
  1 30  1  0
  3 31  1  0
  6 32  1  0
 12 33  1  0
 13 34  1  0
 14 35  1  0
 15 36  1  0
 17 37  1  0
 17 38  1  0
 18 39  1  0
 19 40  1  0
 25 41  1  0
 26 42  1  0
 27 43  1  0
M  ISO  8  29   8  30   8  31  14  32  14  33  14  34  14  35  14  36  14
M  ISO  7  37   8  38   8  39  14  40  14  41  14  42  14  43  14
M  END
>  <minimizedAffinity>  (1) 
-5.57618809

>  <minimizedRMSD>  (1) 
1.84370947

$$$$
