
     RDKit          3D

 41 45  0  0  0  0  0  0  0  0999 V2000
   38.1260   26.7040   35.0770 C   0  0  0  0  0  0  0  0  0  0  0  0
   37.3560   27.5340   34.1440 N   0  0  0  0  0  0  0  0  0  0  0  0
   36.2990   28.3200   34.4200 C   0  0  0  0  0  0  0  0  0  0  0  0
   35.8730   28.9200   33.2850 N   0  0  0  0  0  0  0  0  0  0  0  0
   36.6520   28.5250   32.2600 C   0  0  0  0  0  0  0  0  0  0  0  0
   36.7450   28.7570   30.9080 C   0  0  0  0  0  0  0  0  0  0  0  0
   37.6800   28.1860   30.1130 N   0  0  0  0  0  0  0  0  0  0  0  0
   38.5540   27.3450   30.7210 C   0  0  0  0  0  0  0  0  0  0  0  0
   38.5150   27.0800   32.0330 N   0  0  0  0  0  0  0  0  0  0  0  0
   37.5700   27.6620   32.8180 C   0  0  0  0  0  0  0  0  0  0  0  0
   39.5500   26.7320   29.8960 N   0  0  0  0  0  0  0  0  0  0  0  0
   39.7800   26.5160   28.6260 N   0  0  0  0  0  0  0  0  0  0  0  0
   40.9350   25.8580   28.4670 C   0  0  0  0  0  0  0  0  0  0  0  0
   41.4770   25.6410   29.7230 C   0  0  0  0  0  0  0  0  0  0  0  0
   40.5770   26.2060   30.6260 C   0  0  0  0  0  0  0  0  0  0  0  0
   37.7190   25.2430   34.8660 C   0  0  0  0  0  0  0  0  0  0  0  0
   38.2240   23.9380   38.3800 C   0  0  0  0  0  0  0  0  0  0  0  0
   37.7320   24.6270   37.2750 C   0  0  0  0  0  0  0  0  0  0  0  0
   38.2870   24.4840   35.9950 C   0  0  0  0  0  0  0  0  0  0  0  0
   39.3490   23.6230   35.8800 N   0  0  0  0  0  0  0  0  0  0  0  0
   39.7860   22.9780   36.9960 C   0  0  0  0  0  0  0  0  0  0  0  0
   39.2700   23.1040   38.2140 N   0  0  0  0  0  0  0  0  0  0  0  0
   40.9020   22.0690   36.8610 C   0  0  0  0  0  0  0  0  0  0  0  0
   41.6730   21.2410   37.6160 C   0  0  0  0  0  0  0  0  0  0  0  0
   42.6640   20.5180   37.1070 C   0  0  0  0  0  0  0  0  0  0  0  0
   42.8500   20.6810   35.7130 C   0  0  0  0  0  0  0  0  0  0  0  0
   41.5340   21.9100   35.2250 S   0  0  0  0  0  0  0  0  0  0  0  0
   39.2017   26.8229   34.8804 H   0  0  0  0  0  0  0  0  0  0  0  0
   37.9221   27.0091   36.1140 H   0  0  0  0  0  0  0  0  0  0  0  0
   35.8505   28.4539   35.4154 H   0  0  0  0  0  0  0  0  0  0  0  0
   36.0200   29.4441   30.4472 H   0  0  0  0  0  0  0  0  0  0  0  0
   41.3754   25.5452   27.5088 H   0  0  0  0  0  0  0  0  0  0  0  0
   42.4215   25.1291   29.9592 H   0  0  0  0  0  0  0  0  0  0  0  0
   40.6759   26.2245   31.7214 H   0  0  0  0  0  0  0  0  0  0  0  0
   36.6229   25.1509   34.8591 H   0  0  0  0  0  0  0  0  0  0  0  0
   38.0896   24.8615   33.9031 H   0  0  0  0  0  0  0  0  0  0  0  0
   37.7671   24.0718   39.3716 H   0  0  0  0  0  0  0  0  0  0  0  0
   36.8782   25.3072   37.4105 H   0  0  0  0  0  0  0  0  0  0  0  0
   41.4670   21.1670   38.6940 H   0  0  0  0  0  0  0  0  0  0  0  0
   43.2880   19.8486   37.7174 H   0  0  0  0  0  0  0  0  0  0  0  0
   43.5970   20.1957   35.0676 H   0  0  0  0  0  0  0  0  0  0  0  0
  2  3  1  0
  2  1  1  0
  4  3  2  0
  5 10  2  0
  5  4  1  0
  6  5  1  0
  7  8  1  0
  7  6  2  0
  8  9  2  0
  9 10  1  0
 10  2  1  0
 11 15  1  0
 11  8  1  0
 12 11  1  0
 13 12  2  0
 13 14  1  0
 14 15  2  0
 16  1  1  0
 16 19  1  0
 18 17  2  0
 19 18  1  0
 20 19  2  0
 20 21  1  0
 21 22  2  0
 22 17  1  0
 23 21  1  0
 23 24  2  0
 25 24  1  0
 26 25  2  0
 27 26  1  0
 27 23  1  0
  1 28  1  0
  1 29  1  0
  3 30  1  0
  6 31  1  0
 13 32  1  0
 14 33  1  0
 15 34  1  0
 16 35  1  0
 16 36  1  0
 17 37  1  0
 18 38  1  0
 24 39  1  0
 25 40  1  0
 26 41  1  0
M  ISO  8  28   8  29   8  30  14  31  14  32  14  33  14  34  14  35   8
M  ISO  6  36   8  37  14  38  14  39  14  40  14  41  14
M  END
>  <minimizedAffinity>  (1) 
-5.50027466

>  <minimizedRMSD>  (1) 
1.22239304

$$$$
