
     RDKit          3D

 41 45  0  0  0  0  0  0  0  0999 V2000
   37.8890   25.1990   34.5590 C   0  0  0  0  0  0  0  0  0  0  0  0
   38.1890   23.9860   38.1180 C   0  0  0  0  0  0  0  0  0  0  0  0
   37.7700   24.6450   36.9770 C   0  0  0  0  0  0  0  0  0  0  0  0
   38.3930   24.4610   35.7340 C   0  0  0  0  0  0  0  0  0  0  0  0
   39.4420   23.5910   35.7030 N   0  0  0  0  0  0  0  0  0  0  0  0
   39.8190   22.9640   36.8570 C   0  0  0  0  0  0  0  0  0  0  0  0
   39.2330   23.1360   38.0350 N   0  0  0  0  0  0  0  0  0  0  0  0
   40.9270   22.0460   36.8200 C   0  0  0  0  0  0  0  0  0  0  0  0
   41.6550   21.2400   37.6020 C   0  0  0  0  0  0  0  0  0  0  0  0
   42.6710   20.4990   37.1810 C   0  0  0  0  0  0  0  0  0  0  0  0
   42.9400   20.6330   35.7770 C   0  0  0  0  0  0  0  0  0  0  0  0
   41.6490   21.8530   35.2140 S   0  0  0  0  0  0  0  0  0  0  0  0
   38.3300   26.6480   34.7280 C   0  0  0  0  0  0  0  0  0  0  0  0
   37.3980   27.4990   33.9750 N   0  0  0  0  0  0  0  0  0  0  0  0
   36.3300   28.1790   34.4400 C   0  0  0  0  0  0  0  0  0  0  0  0
   35.7410   28.8400   33.4310 N   0  0  0  0  0  0  0  0  0  0  0  0
   36.4220   28.5970   32.2900 C   0  0  0  0  0  0  0  0  0  0  0  0
   36.3190   28.9710   30.9750 C   0  0  0  0  0  0  0  0  0  0  0  0
   37.1950   28.5420   30.0280 N   0  0  0  0  0  0  0  0  0  0  0  0
   38.1800   27.7270   30.4340 C   0  0  0  0  0  0  0  0  0  0  0  0
   38.3460   27.3150   31.7130 N   0  0  0  0  0  0  0  0  0  0  0  0
   37.4610   27.7520   32.6520 C   0  0  0  0  0  0  0  0  0  0  0  0
   39.1640   27.2330   29.4310 C   0  0  0  0  0  0  0  0  0  0  0  0
   40.4570   28.1040   29.3040 C   0  0  0  0  0  0  0  0  0  0  0  0
   40.5020   26.7020   29.8940 C   0  0  0  0  0  0  0  0  0  0  0  0
   36.7914   25.1395   34.5164 H   0  0  0  0  0  0  0  0  0  0  0  0
   38.2838   24.7722   33.6252 H   0  0  0  0  0  0  0  0  0  0  0  0
   37.6790   24.1523   39.0783 H   0  0  0  0  0  0  0  0  0  0  0  0
   36.9184   25.3377   37.0466 H   0  0  0  0  0  0  0  0  0  0  0  0
   41.3921   21.1886   38.6689 H   0  0  0  0  0  0  0  0  0  0  0  0
   43.2531   19.8432   37.8451 H   0  0  0  0  0  0  0  0  0  0  0  0
   43.7186   20.1364   35.1793 H   0  0  0  0  0  0  0  0  0  0  0  0
   38.3085   26.9226   35.7929 H   0  0  0  0  0  0  0  0  0  0  0  0
   39.3555   26.7807   34.3530 H   0  0  0  0  0  0  0  0  0  0  0  0
   35.9929   28.1902   35.4870 H   0  0  0  0  0  0  0  0  0  0  0  0
   35.4995   29.6411   30.6760 H   0  0  0  0  0  0  0  0  0  0  0  0
   38.3847   26.8345   28.7647 H   0  0  0  0  0  0  0  0  0  0  0  0
   40.8957   28.3029   28.3151 H   0  0  0  0  0  0  0  0  0  0  0  0
   40.7647   29.1064   29.6363 H   0  0  0  0  0  0  0  0  0  0  0  0
   40.6925   26.5700   30.9693 H   0  0  0  0  0  0  0  0  0  0  0  0
   41.0847   25.7960   29.6710 H   0  0  0  0  0  0  0  0  0  0  0  0
  1 13  1  0
  1  4  1  0
  3  2  2  0
  4  3  1  0
  5  4  2  0
  5  6  1  0
  6  7  2  0
  7  2  1  0
  8  6  1  0
  8  9  2  0
 10  9  1  0
 11 10  2  0
 12 11  1  0
 12  8  1  0
 14 15  1  0
 14 13  1  0
 16 15  2  0
 17 22  2  0
 17 16  1  0
 18 17  1  0
 19 20  1  0
 19 18  2  0
 20 21  2  0
 21 22  1  0
 22 14  1  0
 23 25  1  0
 23 20  1  0
 24 23  1  0
 24 25  1  0
  1 26  1  0
  1 27  1  0
  2 28  1  0
  3 29  1  0
  9 30  1  0
 10 31  1  0
 11 32  1  0
 13 33  1  0
 13 34  1  0
 15 35  1  0
 18 36  1  0
 23 37  1  0
 24 38  1  0
 24 39  1  0
 25 40  1  0
 25 41  1  0
M  ISO  8  26   8  27   8  28  14  29  14  30  14  31  14  32  14  33   8
M  ISO  8  34   8  35  14  36  14  37  13  38  13  39  13  40  13  41  13
M  END
>  <minimizedAffinity>  (1) 
-5.185709

>  <minimizedRMSD>  (1) 
1.28757834

$$$$
