
     RDKit          3D

 37 40  0  0  0  0  0  0  0  0999 V2000
   37.6310   25.4360   35.5820 C   0  0  0  0  0  0  0  0  0  0  0  0
   38.5280   23.6800   38.8060 C   0  0  0  0  0  0  0  0  0  0  0  0
   37.9160   24.5030   37.8680 C   0  0  0  0  0  0  0  0  0  0  0  0
   38.3230   24.5400   36.5240 C   0  0  0  0  0  0  0  0  0  0  0  0
   39.3580   23.7210   36.1830 N   0  0  0  0  0  0  0  0  0  0  0  0
   39.9290   22.9300   37.1360 C   0  0  0  0  0  0  0  0  0  0  0  0
   39.5490   22.8880   38.4140 N   0  0  0  0  0  0  0  0  0  0  0  0
   41.0180   22.0690   36.7750 C   0  0  0  0  0  0  0  0  0  0  0  0
   41.9190   21.2250   37.2870 C   0  0  0  0  0  0  0  0  0  0  0  0
   42.8350   20.5660   36.5900 C   0  0  0  0  0  0  0  0  0  0  0  0
   42.7800   20.8380   35.1910 C   0  0  0  0  0  0  0  0  0  0  0  0
   41.3700   22.0500   35.0430 S   0  0  0  0  0  0  0  0  0  0  0  0
   38.7150   26.2050   34.8330 C   0  0  0  0  0  0  0  0  0  0  0  0
   38.0780   26.9970   33.7690 N   0  0  0  0  0  0  0  0  0  0  0  0
   36.8850   27.6230   33.8180 C   0  0  0  0  0  0  0  0  0  0  0  0
   36.6510   28.2420   32.6430 N   0  0  0  0  0  0  0  0  0  0  0  0
   37.6920   28.0260   31.8140 C   0  0  0  0  0  0  0  0  0  0  0  0
   38.0470   28.3680   30.5380 C   0  0  0  0  0  0  0  0  0  0  0  0
   39.2090   27.9800   29.9650 N   0  0  0  0  0  0  0  0  0  0  0  0
   40.0350   27.2160   30.7190 C   0  0  0  0  0  0  0  0  0  0  0  0
   39.7410   26.8480   31.9780 N   0  0  0  0  0  0  0  0  0  0  0  0
   38.5730   27.2450   32.5360 C   0  0  0  0  0  0  0  0  0  0  0  0
   41.3280   26.7520   30.1550 C   0  0  0  0  0  0  0  0  0  0  0  0
   37.0255   24.8491   34.8756 H   0  0  0  0  0  0  0  0  0  0  0  0
   36.9538   26.1216   36.1125 H   0  0  0  0  0  0  0  0  0  0  0  0
   38.1860   23.6739   39.8515 H   0  0  0  0  0  0  0  0  0  0  0  0
   37.0844   25.1475   38.1891 H   0  0  0  0  0  0  0  0  0  0  0  0
   41.8993   21.0638   38.3749 H   0  0  0  0  0  0  0  0  0  0  0  0
   43.5636   19.8790   37.0450 H   0  0  0  0  0  0  0  0  0  0  0  0
   43.4163   20.4308   34.3914 H   0  0  0  0  0  0  0  0  0  0  0  0
   39.2421   26.8747   35.5285 H   0  0  0  0  0  0  0  0  0  0  0  0
   39.4404   25.5029   34.3961 H   0  0  0  0  0  0  0  0  0  0  0  0
   36.2064   27.6281   34.6838 H   0  0  0  0  0  0  0  0  0  0  0  0
   37.3544   28.9881   29.9500 H   0  0  0  0  0  0  0  0  0  0  0  0
   42.0180   26.5044   30.9751 H   0  0  0  0  0  0  0  0  0  0  0  0
   41.1585   25.8586   29.5360 H   0  0  0  0  0  0  0  0  0  0  0  0
   41.7653   27.5493   29.5360 H   0  0  0  0  0  0  0  0  0  0  0  0
  1  4  1  0
  3  2  2  0
  4  3  1  0
  5  4  2  0
  5  6  1  0
  6  7  2  0
  7  2  1  0
  8  6  1  0
  8  9  2  0
 10  9  1  0
 11 10  2  0
 12 11  1  0
 12  8  1  0
 13  1  1  0
 14 15  1  0
 14 13  1  0
 16 15  2  0
 17 22  2  0
 17 16  1  0
 18 17  1  0
 19 18  2  0
 19 20  1  0
 20 21  2  0
 21 22  1  0
 22 14  1  0
 23 20  1  0
  1 24  1  0
  1 25  1  0
  2 26  1  0
  3 27  1  0
  9 28  1  0
 10 29  1  0
 11 30  1  0
 13 31  1  0
 13 32  1  0
 15 33  1  0
 18 34  1  0
 23 35  1  0
 23 36  1  0
 23 37  1  0
M  ISO  8  24   8  25   8  26  14  27  14  28  14  29  14  30  14  31   8
M  ISO  6  32   8  33  14  34  14  35   8  36   8  37   8
M  END
>  <minimizedAffinity>  (1) 
-4.95247221

>  <minimizedRMSD>  (1) 
0.0364217944

$$$$
