
     RDKit          3D

 36 39  0  0  0  0  0  0  0  0999 V2000
   37.6420   25.4380   35.5840 C   0  0  0  0  0  0  0  0  0  0  0  0
   38.5250   23.6780   38.8090 C   0  0  0  0  0  0  0  0  0  0  0  0
   37.9210   24.4980   37.8750 C   0  0  0  0  0  0  0  0  0  0  0  0
   38.3310   24.5380   36.5320 C   0  0  0  0  0  0  0  0  0  0  0  0
   39.3650   23.7200   36.1850 N   0  0  0  0  0  0  0  0  0  0  0  0
   39.9260   22.9280   37.1500 C   0  0  0  0  0  0  0  0  0  0  0  0
   39.5470   22.8840   38.4180 N   0  0  0  0  0  0  0  0  0  0  0  0
   41.0200   22.0620   36.7750 C   0  0  0  0  0  0  0  0  0  0  0  0
   41.9190   21.2250   37.2960 C   0  0  0  0  0  0  0  0  0  0  0  0
   42.8260   20.5660   36.5880 C   0  0  0  0  0  0  0  0  0  0  0  0
   42.7750   20.8200   35.1980 C   0  0  0  0  0  0  0  0  0  0  0  0
   41.3630   22.0380   35.0290 S   0  0  0  0  0  0  0  0  0  0  0  0
   38.7370   26.1780   34.8140 C   0  0  0  0  0  0  0  0  0  0  0  0
   38.0910   26.9790   33.7560 N   0  0  0  0  0  0  0  0  0  0  0  0
   36.9010   27.6010   33.8160 C   0  0  0  0  0  0  0  0  0  0  0  0
   36.6610   28.2280   32.6500 N   0  0  0  0  0  0  0  0  0  0  0  0
   37.6950   28.0200   31.8150 C   0  0  0  0  0  0  0  0  0  0  0  0
   38.0420   28.3780   30.5300 C   0  0  0  0  0  0  0  0  0  0  0  0
   39.2160   27.9850   29.9490 N   0  0  0  0  0  0  0  0  0  0  0  0
   40.0420   27.2130   30.7070 C   0  0  0  0  0  0  0  0  0  0  0  0
   39.7460   26.8430   31.9540 N   0  0  0  0  0  0  0  0  0  0  0  0
   38.5750   27.2400   32.5240 C   0  0  0  0  0  0  0  0  0  0  0  0
   41.2400   26.8460   30.0340 N   0  0  0  0  0  0  0  0  0  0  0  0
   37.0182   24.8544   34.8910 H   0  0  0  0  0  0  0  0  0  0  0  0
   36.9818   26.1419   36.1119 H   0  0  0  0  0  0  0  0  0  0  0  0
   38.1799   23.6714   39.8535 H   0  0  0  0  0  0  0  0  0  0  0  0
   37.0891   25.1427   38.1947 H   0  0  0  0  0  0  0  0  0  0  0  0
   41.9069   21.0715   38.3852 H   0  0  0  0  0  0  0  0  0  0  0  0
   43.5558   19.8803   37.0432 H   0  0  0  0  0  0  0  0  0  0  0  0
   43.4126   20.4019   34.4052 H   0  0  0  0  0  0  0  0  0  0  0  0
   39.2912   26.8391   35.4965 H   0  0  0  0  0  0  0  0  0  0  0  0
   39.4436   25.4604   34.3714 H   0  0  0  0  0  0  0  0  0  0  0  0
   36.2267   27.5979   34.6851 H   0  0  0  0  0  0  0  0  0  0  0  0
   37.3481   29.0038   29.9496 H   0  0  0  0  0  0  0  0  0  0  0  0
   41.9406   26.2614   30.5117 H   0  0  0  0  0  0  0  0  0  0  0  0
   41.4069   27.1649   29.0689 H   0  0  0  0  0  0  0  0  0  0  0  0
  1  4  1  0
  3  2  2  0
  4  3  1  0
  5  4  2  0
  5  6  1  0
  6  7  2  0
  7  2  1  0
  8  6  1  0
  8  9  2  0
 10  9  1  0
 11 10  2  0
 12 11  1  0
 12  8  1  0
 13  1  1  0
 14 15  1  0
 14 13  1  0
 16 15  2  0
 17 22  2  0
 17 16  1  0
 18 17  1  0
 19 18  2  0
 19 20  1  0
 20 21  2  0
 21 22  1  0
 22 14  1  0
 23 20  1  0
  1 24  1  0
  1 25  1  0
  2 26  1  0
  3 27  1  0
  9 28  1  0
 10 29  1  0
 11 30  1  0
 13 31  1  0
 13 32  1  0
 15 33  1  0
 18 34  1  0
 23 35  1  0
 23 36  1  0
M  ISO  8  24   8  25   8  26  14  27  14  28  14  29  14  30  14  31   8
M  ISO  3  32   8  33  14  34  14
M  END
>  <minimizedAffinity>  (1) 
-4.94405079

>  <minimizedRMSD>  (1) 
0.0388706103

$$$$
