
     RDKit          3D

 30 31  0  0  0  0  0  0  0  0999 V2000
   38.7510   24.8920   35.8330 C   0  0  0  0  0  0  0  0  0  0  0  0
   39.2690   24.6790   34.5430 C   0  0  0  0  0  0  0  0  0  0  0  0
   38.7090   25.4180   33.5090 C   0  0  0  0  0  0  0  0  0  0  0  0
   37.6870   26.3010   33.7820 N   0  0  0  0  0  0  0  0  0  0  0  0
   37.2240   26.4670   35.0380 C   0  0  0  0  0  0  0  0  0  0  0  0
   37.7580   25.7610   36.0680 N   0  0  0  0  0  0  0  0  0  0  0  0
   39.3820   25.3180   32.2020 C   0  0  0  0  0  0  0  0  0  0  0  0
   40.2280   26.4600   31.8730 C   0  0  0  0  0  0  0  0  0  0  0  0
   38.3370   25.0210   31.1090 C   0  0  0  0  0  0  0  0  0  0  0  0
   40.2760   23.7600   34.4060 O   0  0  0  0  0  0  0  0  0  0  0  0
   41.4830   23.9940   35.0480 C   0  0  0  0  0  0  0  0  0  0  0  0
   41.9250   23.0170   35.9330 C   0  0  0  0  0  0  0  0  0  0  0  0
   43.1220   23.2160   36.5900 C   0  0  0  0  0  0  0  0  0  0  0  0
   43.8910   24.3390   36.4040 C   0  0  0  0  0  0  0  0  0  0  0  0
   43.4420   25.3000   35.5250 C   0  0  0  0  0  0  0  0  0  0  0  0
   42.2660   25.1390   34.8580 C   0  0  0  0  0  0  0  0  0  0  0  0
   39.1745   24.3271   36.6765 H   0  0  0  0  0  0  0  0  0  0  0  0
   36.4080   27.1794   35.2294 H   0  0  0  0  0  0  0  0  0  0  0  0
   40.0901   24.4784   32.2630 H   0  0  0  0  0  0  0  0  0  0  0  0
   40.5799   26.9350   32.8007 H   0  0  0  0  0  0  0  0  0  0  0  0
   41.0927   26.1184   31.2851 H   0  0  0  0  0  0  0  0  0  0  0  0
   39.6493   27.1877   31.2851 H   0  0  0  0  0  0  0  0  0  0  0  0
   37.3808   24.7492   31.5801 H   0  0  0  0  0  0  0  0  0  0  0  0
   38.1966   25.9148   30.4834 H   0  0  0  0  0  0  0  0  0  0  0  0
   38.6877   24.1869   30.4834 H   0  0  0  0  0  0  0  0  0  0  0  0
   41.3336   22.1057   36.1056 H   0  0  0  0  0  0  0  0  0  0  0  0
   43.4745   22.4447   37.2906 H   0  0  0  0  0  0  0  0  0  0  0  0
   44.8411   24.4676   36.9432 H   0  0  0  0  0  0  0  0  0  0  0  0
   44.0406   26.2080   35.3601 H   0  0  0  0  0  0  0  0  0  0  0  0
   41.9265   25.9189   34.1605 H   0  0  0  0  0  0  0  0  0  0  0  0
  1  6  2  0
  2  1  1  0
  3  4  1  0
  3  2  2  0
  4  5  2  0
  5  6  1  0
  7  3  1  0
  8  7  1  0
  9  7  1  0
 10  2  1  0
 10 11  1  0
 11 12  2  0
 12 13  1  0
 14 13  2  0
 15 14  1  0
 16 11  1  0
 16 15  2  0
  1 17  1  0
  5 18  1  0
  7 19  1  0
  8 20  1  0
  8 21  1  0
  8 22  1  0
  9 23  1  0
  9 24  1  0
  9 25  1  0
 12 26  1  0
 13 27  1  0
 14 28  1  0
 15 29  1  0
 16 30  1  0
M  ISO  8  17  14  18  14  19   8  20   8  21   8  22   8  23   8  24   8
M  ISO  6  25   8  26  14  27  14  28  14  29  14  30  14
M  END
>  <minimizedAffinity>  (1) 
-3.30839205

>  <minimizedRMSD>  (1) 
5.70785427

$$$$
