
     RDKit          3D

 28 29  0  0  0  0  0  0  0  0999 V2000
   42.1520   24.8150   35.0330 C   0  0  0  0  0  0  0  0  0  0  0  0
   41.3770   25.9320   34.7100 C   0  0  0  0  0  0  0  0  0  0  0  0
   40.0150   25.8230   34.9540 C   0  0  0  0  0  0  0  0  0  0  0  0
   39.5040   24.6610   35.4810 N   0  0  0  0  0  0  0  0  0  0  0  0
   40.2950   23.6120   35.7740 C   0  0  0  0  0  0  0  0  0  0  0  0
   41.6350   23.6890   35.5490 N   0  0  0  0  0  0  0  0  0  0  0  0
   39.2190   27.0550   34.7750 C   0  0  0  0  0  0  0  0  0  0  0  0
   38.3010   27.3540   35.8730 C   0  0  0  0  0  0  0  0  0  0  0  0
   38.5210   27.0240   33.4010 C   0  0  0  0  0  0  0  0  0  0  0  0
   41.9940   27.0230   34.1810 O   0  0  0  0  0  0  0  0  0  0  0  0
   43.2350   27.1260   33.6250 C   0  0  0  0  0  0  0  0  0  0  0  0
   43.1280   27.0350   32.2350 C   0  0  0  0  0  0  0  0  0  0  0  0
   44.2610   27.1120   31.4220 C   0  0  0  0  0  0  0  0  0  0  0  0
   45.4550   27.2740   31.9780 N   0  0  0  0  0  0  0  0  0  0  0  0
   45.5590   27.3620   33.3120 C   0  0  0  0  0  0  0  0  0  0  0  0
   44.4680   27.2880   34.0890 N   0  0  0  0  0  0  0  0  0  0  0  0
   43.2367   24.8607   34.8561 H   0  0  0  0  0  0  0  0  0  0  0  0
   39.8590   22.6939   36.1947 H   0  0  0  0  0  0  0  0  0  0  0  0
   39.9237   27.8993   34.8000 H   0  0  0  0  0  0  0  0  0  0  0  0
   38.8113   27.1878   36.8332 H   0  0  0  0  0  0  0  0  0  0  0  0
   37.9787   28.4036   35.8059 H   0  0  0  0  0  0  0  0  0  0  0  0
   37.4224   26.6956   35.8059 H   0  0  0  0  0  0  0  0  0  0  0  0
   37.4314   26.9756   33.5442 H   0  0  0  0  0  0  0  0  0  0  0  0
   38.7769   27.9344   32.8391 H   0  0  0  0  0  0  0  0  0  0  0  0
   38.8566   26.1399   32.8391 H   0  0  0  0  0  0  0  0  0  0  0  0
   42.1380   26.9009   31.7747 H   0  0  0  0  0  0  0  0  0  0  0  0
   44.1643   27.0389   30.3287 H   0  0  0  0  0  0  0  0  0  0  0  0
   46.5484   27.4962   33.7736 H   0  0  0  0  0  0  0  0  0  0  0  0
  1  6  2  0
  2  3  2  0
  2  1  1  0
  3  4  1  0
  4  5  2  0
  6  5  1  0
  7  3  1  0
  7  8  1  0
  9  7  1  0
 10  2  1  0
 11 16  1  0
 11 10  1  0
 12 11  2  0
 13 14  2  0
 13 12  1  0
 14 15  1  0
 15 16  2  0
  1 17  1  0
  5 18  1  0
  7 19  1  0
  8 20  1  0
  8 21  1  0
  8 22  1  0
  9 23  1  0
  9 24  1  0
  9 25  1  0
 12 26  1  0
 13 27  1  0
 15 28  1  0
M  ISO  8  17  14  18  14  19   8  20   8  21   8  22   8  23   8  24   8
M  ISO  4  25   8  26  14  27  14  28  14
M  END
>  <minimizedAffinity>  (1) 
-3.27394176

>  <minimizedRMSD>  (1) 
7.65958738

$$$$
