
     RDKit          3D

 27 28  0  0  0  0  0  0  0  0999 V2000
   40.1370   26.4680   34.8590 C   0  0  0  0  0  0  0  0  0  0  0  0
   40.2140   25.1010   35.2560 C   0  0  0  0  0  0  0  0  0  0  0  0
   39.0750   24.6290   35.9090 C   0  0  0  0  0  0  0  0  0  0  0  0
   37.9860   25.4390   36.1380 N   0  0  0  0  0  0  0  0  0  0  0  0
   37.9810   26.7220   35.7340 C   0  0  0  0  0  0  0  0  0  0  0  0
   39.0520   27.2490   35.0910 N   0  0  0  0  0  0  0  0  0  0  0  0
   39.1050   23.1770   36.2050 C   0  0  0  0  0  0  0  0  0  0  0  0
   37.8410   22.5030   35.9050 C   0  0  0  0  0  0  0  0  0  0  0  0
   39.5330   22.9480   37.6820 C   0  0  0  0  0  0  0  0  0  0  0  0
   41.3420   24.4600   34.9720 O   0  0  0  0  0  0  0  0  0  0  0  0
   43.9550   23.1270   36.5230 N   0  0  0  0  0  0  0  0  0  0  0  0
   42.7420   23.2230   35.9620 N   0  0  0  0  0  0  0  0  0  0  0  0
   42.5910   24.4920   35.5070 C   0  0  0  0  0  0  0  0  0  0  0  0
   43.7790   25.1420   35.8270 C   0  0  0  0  0  0  0  0  0  0  0  0
   44.6350   24.2830   36.4660 C   0  0  0  0  0  0  0  0  0  0  0  0
   40.9992   26.9112   34.3393 H   0  0  0  0  0  0  0  0  0  0  0  0
   37.0989   27.3501   35.9273 H   0  0  0  0  0  0  0  0  0  0  0  0
   39.8507   22.7214   35.5369 H   0  0  0  0  0  0  0  0  0  0  0  0
   37.3367   22.2341   36.8449 H   0  0  0  0  0  0  0  0  0  0  0  0
   37.1955   23.1767   35.3223 H   0  0  0  0  0  0  0  0  0  0  0  0
   38.0407   21.5916   35.3223 H   0  0  0  0  0  0  0  0  0  0  0  0
   38.7652   23.3588   38.3541 H   0  0  0  0  0  0  0  0  0  0  0  0
   39.6446   21.8697   37.8684 H   0  0  0  0  0  0  0  0  0  0  0  0
   40.4920   23.4535   37.8684 H   0  0  0  0  0  0  0  0  0  0  0  0
   44.3236   22.2648   36.9492 H   0  0  0  0  0  0  0  0  0  0  0  0
   43.9998   26.1953   35.5995 H   0  0  0  0  0  0  0  0  0  0  0  0
   45.6462   24.4926   36.8448 H   0  0  0  0  0  0  0  0  0  0  0  0
  1  6  2  0
  1  2  1  0
  2  3  2  0
  3  4  1  0
  3  7  1  0
  5  4  2  0
  6  5  1  0
  7  9  1  0
  8  7  1  0
 10  2  1  0
 10 13  1  0
 12 11  1  0
 13 14  1  0
 13 12  2  0
 14 15  2  0
 15 11  1  0
  1 16  1  0
  5 17  1  0
  7 18  1  0
  8 19  1  0
  8 20  1  0
  8 21  1  0
  9 22  1  0
  9 23  1  0
  9 24  1  0
 11 25  1  0
 14 26  1  0
 15 27  1  0
M  ISO  8  16  14  17  14  18   8  19   8  20   8  21   8  22   8  23   8
M  ISO  4  24   8  25   9  26  14  27  14
M  END
>  <minimizedAffinity>  (1) 
-3.57616019

>  <minimizedRMSD>  (1) 
5.67351055

$$$$
