
     RDKit          3D

 25 26  0  0  0  0  0  0  0  0999 V2000
   38.2180   24.3550   33.9230 C   0  0  0  0  0  0  0  0  0  0  0  0
   37.8620   23.0100   34.0080 C   0  0  0  0  0  0  0  0  0  0  0  0
   37.0550   22.4910   33.0020 C   0  0  0  0  0  0  0  0  0  0  0  0
   36.6430   23.3190   31.9810 N   0  0  0  0  0  0  0  0  0  0  0  0
   37.0100   24.5950   31.9470 C   0  0  0  0  0  0  0  0  0  0  0  0
   37.8000   25.1190   32.9180 N   0  0  0  0  0  0  0  0  0  0  0  0
   36.8180   21.0280   33.0420 C   0  0  0  0  0  0  0  0  0  0  0  0
   37.6470   20.2680   32.1090 C   0  0  0  0  0  0  0  0  0  0  0  0
   35.3070   20.7540   32.8670 C   0  0  0  0  0  0  0  0  0  0  0  0
   38.3250   22.2880   35.0870 O   0  0  0  0  0  0  0  0  0  0  0  0
   38.3940   22.7030   36.3710 C   0  0  0  0  0  0  0  0  0  0  0  0
   39.6380   22.5820   36.9080 N   0  0  0  0  0  0  0  0  0  0  0  0
   39.6560   22.9850   38.1220 O   0  0  0  0  0  0  0  0  0  0  0  0
   38.4490   23.3830   38.4400 C   0  0  0  0  0  0  0  0  0  0  0  0
   37.6750   23.2120   37.3670 N   0  0  0  0  0  0  0  0  0  0  0  0
   38.8577   24.7934   34.7031 H   0  0  0  0  0  0  0  0  0  0  0  0
   36.6689   25.2358   31.1205 H   0  0  0  0  0  0  0  0  0  0  0  0
   37.1355   20.6611   34.0292 H   0  0  0  0  0  0  0  0  0  0  0  0
   38.3431   19.6298   32.6731 H   0  0  0  0  0  0  0  0  0  0  0  0
   37.0040   19.6390   31.4758 H   0  0  0  0  0  0  0  0  0  0  0  0
   38.2179   20.9631   31.4758 H   0  0  0  0  0  0  0  0  0  0  0  0
   34.8330   20.6680   33.8559 H   0  0  0  0  0  0  0  0  0  0  0  0
   34.8461   21.5832   32.3103 H   0  0  0  0  0  0  0  0  0  0  0  0
   35.1666   19.8157   32.3103 H   0  0  0  0  0  0  0  0  0  0  0  0
   38.1318   23.7847   39.4137 H   0  0  0  0  0  0  0  0  0  0  0  0
  1  2  2  0
  2 10  1  0
  3  7  1  0
  3  2  1  0
  4  3  2  0
  5  4  1  0
  5  6  2  0
  6  1  1  0
  8  7  1  0
  9  7  1  0
 10 11  1  0
 11 12  2  0
 11 15  1  0
 12 13  1  0
 13 14  1  0
 15 14  2  0
  1 16  1  0
  5 17  1  0
  7 18  1  0
  8 19  1  0
  8 20  1  0
  8 21  1  0
  9 22  1  0
  9 23  1  0
  9 24  1  0
 14 25  1  0
M  ISO  8  16  14  17  14  18   8  19   8  20   8  21   8  22   8  23   8
M  ISO  2  24   8  25  14
M  END
>  <minimizedAffinity>  (1) 
-3.77128863

>  <minimizedRMSD>  (1) 
5.04941225

$$$$
