
     RDKit          3D

 32 34  0  0  0  0  0  0  0  0999 V2000
   38.7570   25.1850   34.0350 C   0  0  0  0  0  0  0  0  0  0  0  0
   38.6520   24.2760   35.1160 C   0  0  0  0  0  0  0  0  0  0  0  0
   38.6120   24.8280   36.3830 C   0  0  0  0  0  0  0  0  0  0  0  0
   38.6760   26.2030   36.5280 N   0  0  0  0  0  0  0  0  0  0  0  0
   38.7750   27.0290   35.4720 C   0  0  0  0  0  0  0  0  0  0  0  0
   38.8150   26.5230   34.2250 N   0  0  0  0  0  0  0  0  0  0  0  0
   38.3680   23.9110   37.5080 C   0  0  0  0  0  0  0  0  0  0  0  0
   37.8990   24.4940   38.7250 C   0  0  0  0  0  0  0  0  0  0  0  0
   39.7710   23.1270   37.7350 C   0  0  0  0  0  0  0  0  0  0  0  0
   38.6100   22.9770   34.8060 O   0  0  0  0  0  0  0  0  0  0  0  0
   36.0590   20.4680   32.0430 N   0  0  0  0  0  0  0  0  0  0  0  0
   37.0550   21.1400   31.4510 C   0  0  0  0  0  0  0  0  0  0  0  0
   37.7820   21.8670   32.3060 N   0  0  0  0  0  0  0  0  0  0  0  0
   37.2540   21.6810   33.5450 C   0  0  0  0  0  0  0  0  0  0  0  0
   37.5410   22.1430   34.8500 C   0  0  0  0  0  0  0  0  0  0  0  0
   36.7160   21.6660   35.7890 N   0  0  0  0  0  0  0  0  0  0  0  0
   35.7170   20.8440   35.5690 C   0  0  0  0  0  0  0  0  0  0  0  0
   35.4190   20.3900   34.3540 N   0  0  0  0  0  0  0  0  0  0  0  0
   36.2050   20.8170   33.3220 C   0  0  0  0  0  0  0  0  0  0  0  0
   35.0030   20.4930   36.7210 O   0  0  0  0  0  0  0  0  0  0  0  0
   38.7925   24.7906   33.0088 H   0  0  0  0  0  0  0  0  0  0  0  0
   38.8233   28.1170   35.6266 H   0  0  0  0  0  0  0  0  0  0  0  0
   37.5280   23.2550   37.2359 H   0  0  0  0  0  0  0  0  0  0  0  0
   38.3324   23.9553   39.5805 H   0  0  0  0  0  0  0  0  0  0  0  0
   38.2015   25.5508   38.7658 H   0  0  0  0  0  0  0  0  0  0  0  0
   36.8019   24.4249   38.7658 H   0  0  0  0  0  0  0  0  0  0  0  0
   39.9613   23.0206   38.8132 H   0  0  0  0  0  0  0  0  0  0  0  0
   39.7131   22.1305   37.2728 H   0  0  0  0  0  0  0  0  0  0  0  0
   40.5894   23.6986   37.2728 H   0  0  0  0  0  0  0  0  0  0  0  0
   35.3595   19.8420   31.6191 H   0  0  0  0  0  0  0  0  0  0  0  0
   37.2548   21.0980   30.3701 H   0  0  0  0  0  0  0  0  0  0  0  0
   34.2309   19.8767   36.6563 H   0  0  0  0  0  0  0  0  0  0  0  0
  1  6  2  0
  1  2  1  0
  2  3  2  0
  3  4  1  0
  3  7  1  0
  5  4  2  0
  6  5  1  0
  7  9  1  0
  7  8  1  0
 10 15  1  0
 10  2  1  0
 11 19  1  0
 12 11  1  0
 12 13  2  0
 13 14  1  0
 14 15  1  0
 15 16  2  0
 17 16  1  0
 17 20  1  0
 18 17  2  0
 19 14  2  0
 19 18  1  0
  1 21  1  0
  5 22  1  0
  7 23  1  0
  8 24  1  0
  8 25  1  0
  8 26  1  0
  9 27  1  0
  9 28  1  0
  9 29  1  0
 11 30  1  0
 12 31  1  0
 20 32  1  0
M  ISO  8  21  14  22  14  23   8  24   8  25   8  26   8  27   8  28   8
M  ISO  4  29   8  30   9  31  14  32   3
M  END
>  <minimizedAffinity>  (1) 
-5.10525084

>  <minimizedRMSD>  (1) 
0.505277395

$$$$
