
     RDKit          3D

 38 40  0  0  0  0  0  0  0  0999 V2000
   38.1090   23.8810   32.9760 O   0  0  0  0  0  0  0  0  0  0  0  0
   37.3820   20.1420   30.5500 N   0  0  0  0  0  0  0  0  0  0  0  0
   38.1110   21.0870   29.9360 C   0  0  0  0  0  0  0  0  0  0  0  0
   38.2990   22.1730   30.6900 N   0  0  0  0  0  0  0  0  0  0  0  0
   37.6670   21.9590   31.8810 C   0  0  0  0  0  0  0  0  0  0  0  0
   37.4860   22.6830   33.0800 C   0  0  0  0  0  0  0  0  0  0  0  0
   36.7710   22.0400   33.9980 N   0  0  0  0  0  0  0  0  0  0  0  0
   36.2500   20.8310   33.8610 C   0  0  0  0  0  0  0  0  0  0  0  0
   36.4040   20.1290   32.7430 N   0  0  0  0  0  0  0  0  0  0  0  0
   37.1270   20.7050   31.7340 C   0  0  0  0  0  0  0  0  0  0  0  0
   35.5090   20.2910   34.9520 N   0  0  0  0  0  0  0  0  0  0  0  0
   35.6080   20.8890   36.2540 C   0  0  0  0  0  0  0  0  0  0  0  0
   36.7440   21.4410   36.5910 N   0  0  0  0  0  0  0  0  0  0  0  0
   34.4750   20.8700   37.1420 N   0  0  0  0  0  0  0  0  0  0  0  0
   36.9270   21.8970   37.4940 H   0  0  0  0  0  0  0  0  0  0  0  0
   37.1670   25.9490   33.5320 C   0  0  0  0  0  0  0  0  0  0  0  0
   38.0830   24.9090   33.8270 C   0  0  0  0  0  0  0  0  0  0  0  0
   38.8550   25.0650   34.9590 C   0  0  0  0  0  0  0  0  0  0  0  0
   38.7040   26.2100   35.7330 N   0  0  0  0  0  0  0  0  0  0  0  0
   37.8170   27.1710   35.4050 C   0  0  0  0  0  0  0  0  0  0  0  0
   37.0530   27.0430   34.3140 N   0  0  0  0  0  0  0  0  0  0  0  0
   39.7040   23.9320   35.3550 C   0  0  0  0  0  0  0  0  0  0  0  0
   39.5250   23.4410   36.6870 C   0  0  0  0  0  0  0  0  0  0  0  0
   41.2330   24.4290   35.1000 C   0  0  0  0  0  0  0  0  0  0  0  0
   37.0929   19.2182   30.1979 H   0  0  0  0  0  0  0  0  0  0  0  0
   38.5120   20.9782   28.9175 H   0  0  0  0  0  0  0  0  0  0  0  0
   34.9022   19.4715   34.8067 H   0  0  0  0  0  0  0  0  0  0  0  0
   34.5454   21.2987   38.0759 H   0  0  0  0  0  0  0  0  0  0  0  0
   33.5940   20.4277   36.8434 H   0  0  0  0  0  0  0  0  0  0  0  0
   36.5301   25.8621   32.6394 H   0  0  0  0  0  0  0  0  0  0  0  0
   37.7209   28.0655   36.0380 H   0  0  0  0  0  0  0  0  0  0  0  0
   39.4213   23.0566   34.7519 H   0  0  0  0  0  0  0  0  0  0  0  0
   39.8098   24.2222   37.4071 H   0  0  0  0  0  0  0  0  0  0  0  0
   38.4700   23.1693   36.8389 H   0  0  0  0  0  0  0  0  0  0  0  0
   40.1576   22.5540   36.8389 H   0  0  0  0  0  0  0  0  0  0  0  0
   41.7319   24.5912   36.0669 H   0  0  0  0  0  0  0  0  0  0  0  0
   41.7778   23.6617   34.5304 H   0  0  0  0  0  0  0  0  0  0  0  0
   41.2225   25.3700   34.5304 H   0  0  0  0  0  0  0  0  0  0  0  0
  1  6  1  0
  1 17  1  0
  2 10  1  0
  3  2  1  0
  3  4  2  0
  4  5  1  0
  5  6  1  0
  6  7  2  0
  8  7  1  0
  8 11  1  0
  9  8  2  0
 10  5  2  0
 10  9  1  0
 11 12  1  0
 12 13  2  0
 12 14  1  0
 13 15  1  0
 16 17  2  0
 16 21  1  0
 17 18  1  0
 18 22  1  0
 18 19  2  0
 20 19  1  0
 21 20  2  0
 22 23  1  0
 24 22  1  0
  2 25  1  0
  3 26  1  0
 11 27  1  0
 14 28  1  0
 14 29  1  0
 16 30  1  0
 20 31  1  0
 22 32  1  0
 23 33  1  0
 23 34  1  0
 23 35  1  0
 24 36  1  0
 24 37  1  0
 24 38  1  0
M  ISO  8  25   9  26  14  30  14  31  14  32   8  33   8  34   8  35   8
M  ISO  3  36   8  37   8  38   8
M  END
>  <minimizedAffinity>  (1) 
-5.44337177

>  <minimizedRMSD>  (1) 
1.6755662

$$$$
