
     RDKit          3D

 46 50  0  0  1  0  0  0  0  0999 V2000
   39.2240   26.9340   35.6770 C   0  0  0  0  0  0  0  0  0  0  0  0
   39.5880   25.7620   34.9890 C   0  0  0  0  0  0  0  0  0  0  0  0
   38.6110   25.1770   34.1990 C   0  0  0  0  0  0  0  0  0  0  0  0
   37.3720   25.7590   34.1400 N   0  0  0  0  0  0  0  0  0  0  0  0
   37.0630   26.8750   34.8110 C   0  0  0  0  0  0  0  0  0  0  0  0
   37.9850   27.4680   35.5800 N   0  0  0  0  0  0  0  0  0  0  0  0
   39.0010   24.0140   33.4020 C   0  0  2  0  0  0  0  0  0  0  0  0
   38.1640   23.6720   32.3080 C   0  0  0  0  0  0  0  0  0  0  0  0
   39.1320   22.7680   34.4600 C   0  0  0  0  0  0  0  0  0  0  0  0
   37.8740   22.0270   34.4440 C   0  0  0  0  0  0  0  0  0  0  0  0
   37.4330   21.9800   35.7710 C   0  0  0  0  0  0  0  0  0  0  0  0
   36.2400   21.3360   36.1260 C   0  0  0  0  0  0  0  0  0  0  0  0
   35.4970   20.7420   35.1440 N   0  0  0  0  0  0  0  0  0  0  0  0
   35.9410   20.7970   33.8540 C   0  0  0  0  0  0  0  0  0  0  0  0
   37.0890   21.4260   33.5710 N   0  0  0  0  0  0  0  0  0  0  0  0
   40.8380   25.3290   35.1670 O   0  0  0  0  0  0  0  0  0  0  0  0
   45.3030   24.9320   35.7290 N   0  0  0  0  0  0  0  0  0  0  0  0
   44.5670   24.1550   36.5260 C   0  0  0  0  0  0  0  0  0  0  0  0
   43.2540   24.3130   36.3150 N   0  0  0  0  0  0  0  0  0  0  0  0
   43.0900   25.2370   35.3360 C   0  0  0  0  0  0  0  0  0  0  0  0
   41.9850   25.8290   34.6760 C   0  0  0  0  0  0  0  0  0  0  0  0
   42.3330   26.7230   33.7410 N   0  0  0  0  0  0  0  0  0  0  0  0
   43.5630   27.0510   33.4320 C   0  0  0  0  0  0  0  0  0  0  0  0
   44.6220   26.5110   34.0380 N   0  0  0  0  0  0  0  0  0  0  0  0
   44.3810   25.5890   35.0070 C   0  0  0  0  0  0  0  0  0  0  0  0
   43.7700   28.0330   32.3880 C   0  0  0  0  0  0  0  0  0  0  0  0
   44.9410   28.6120   31.9190 C   0  0  0  0  0  0  0  0  0  0  0  0
   44.4840   29.4630   30.9250 C   0  0  0  0  0  0  0  0  0  0  0  0
   43.1540   29.4110   30.7960 N   0  0  0  0  0  0  0  0  0  0  0  0
   42.7470   28.5490   31.6800 N   0  0  0  0  0  0  0  0  0  0  0  0
   39.9703   27.4316   36.3137 H   0  0  0  0  0  0  0  0  0  0  0  0
   36.0534   27.3044   34.7309 H   0  0  0  0  0  0  0  0  0  0  0  0
   39.9436   24.2638   32.8931 H   0  0  0  0  0  0  0  0  0  0  0  0
   37.2078   23.2813   32.6861 H   0  0  0  0  0  0  0  0  0  0  0  0
   37.9780   24.5662   31.6950 H   0  0  0  0  0  0  0  0  0  0  0  0
   38.6575   22.9034   31.6950 H   0  0  0  0  0  0  0  0  0  0  0  0
   39.9580   22.1074   34.1580 H   0  0  0  0  0  0  0  0  0  0  0  0
   39.3391   23.1466   35.4718 H   0  0  0  0  0  0  0  0  0  0  0  0
   38.0374   22.4602   36.5547 H   0  0  0  0  0  0  0  0  0  0  0  0
   35.9079   21.3090   37.1743 H   0  0  0  0  0  0  0  0  0  0  0  0
   35.3574   20.3260   33.0493 H   0  0  0  0  0  0  0  0  0  0  0  0
   46.3289   25.0091   35.6796 H   0  0  0  0  0  0  0  0  0  0  0  0
   44.9900   23.4644   37.2704 H   0  0  0  0  0  0  0  0  0  0  0  0
   45.9746   28.4386   32.2531 H   0  0  0  0  0  0  0  0  0  0  0  0
   45.1372   30.1044   30.3152 H   0  0  0  0  0  0  0  0  0  0  0  0
   42.5724   29.9436   30.1334 H   0  0  0  0  0  0  0  0  0  0  0  0
  2 16  1  0
  2  1  2  0
  3  2  1  0
  4  3  2  0
  4  5  1  0
  5  6  2  0
  6  1  1  0
  7  3  1  0
  7  9  1  0
  8  7  1  0
 10  9  1  0
 10 11  2  0
 11 12  1  0
 13 12  2  0
 14 13  1  0
 15 14  2  0
 15 10  1  0
 17 18  1  0
 19 18  2  0
 20 19  1  0
 21 16  1  0
 21 20  2  0
 22 21  1  0
 23 22  2  0
 23 24  1  0
 24 25  2  0
 25 20  1  0
 25 17  1  0
 26 23  1  0
 27 26  1  0
 28 27  2  0
 29 28  1  0
 29 30  1  0
 30 26  2  0
  1 31  1  0
  5 32  1  0
  7 33  1  6
  8 34  1  0
  8 35  1  0
  8 36  1  0
  9 37  1  0
  9 38  1  0
 11 39  1  0
 12 40  1  0
 14 41  1  0
 17 42  1  0
 18 43  1  0
 27 44  1  0
 28 45  1  0
 29 46  1  0
M  ISO  8  31  14  32  14  33   8  34   8  35   8  36   8  37   8  38   8
M  ISO  8  39  14  40  14  41  14  42   9  43  14  44  14  45  14  46   9
M  END
>  <minimizedAffinity>  (1) 
-4.86036301

>  <minimizedRMSD>  (1) 
6.77507782

$$$$
