
     RDKit          3D

 38 41  0  0  0  0  0  0  0  0999 V2000
   40.4040   23.6020   34.6560 O   0  0  0  0  0  0  0  0  0  0  0  0
   41.8740   20.0560   32.2860 N   0  0  0  0  0  0  0  0  0  0  0  0
   42.8260   20.7700   32.8730 C   0  0  0  0  0  0  0  0  0  0  0  0
   42.3460   21.8110   33.5650 N   0  0  0  0  0  0  0  0  0  0  0  0
   40.9880   21.7970   33.4350 C   0  0  0  0  0  0  0  0  0  0  0  0
   39.9150   22.5880   33.9020 C   0  0  0  0  0  0  0  0  0  0  0  0
   38.7160   22.1670   33.5030 N   0  0  0  0  0  0  0  0  0  0  0  0
   38.4960   21.1130   32.7410 C   0  0  0  0  0  0  0  0  0  0  0  0
   39.4870   20.3470   32.2850 N   0  0  0  0  0  0  0  0  0  0  0  0
   40.7550   20.6960   32.6400 C   0  0  0  0  0  0  0  0  0  0  0  0
   37.1270   20.7890   32.3960 C   0  0  0  0  0  0  0  0  0  0  0  0
   36.5810   20.3790   31.1850 C   0  0  0  0  0  0  0  0  0  0  0  0
   35.2400   20.2310   31.4910 C   0  0  0  0  0  0  0  0  0  0  0  0
   34.9840   20.5230   32.7720 N   0  0  0  0  0  0  0  0  0  0  0  0
   36.1310   20.8550   33.2920 N   0  0  0  0  0  0  0  0  0  0  0  0
   39.9500   25.9010   34.5520 C   0  0  0  0  0  0  0  0  0  0  0  0
   39.7410   24.6420   35.1730 C   0  0  0  0  0  0  0  0  0  0  0  0
   38.8780   24.6240   36.2490 C   0  0  0  0  0  0  0  0  0  0  0  0
   38.2770   25.8060   36.6600 N   0  0  0  0  0  0  0  0  0  0  0  0
   38.5110   26.9740   36.0360 C   0  0  0  0  0  0  0  0  0  0  0  0
   39.3410   27.0280   34.9870 N   0  0  0  0  0  0  0  0  0  0  0  0
   38.5450   23.3070   36.8180 C   0  0  0  0  0  0  0  0  0  0  0  0
   37.2070   23.1380   37.2960 C   0  0  0  0  0  0  0  0  0  0  0  0
   39.6390   23.0660   38.0030 C   0  0  0  0  0  0  0  0  0  0  0  0
   41.9730   19.2143   31.7006 H   0  0  0  0  0  0  0  0  0  0  0  0
   43.8973   20.5317   32.7989 H   0  0  0  0  0  0  0  0  0  0  0  0
   37.0887   20.2135   30.2233 H   0  0  0  0  0  0  0  0  0  0  0  0
   34.4752   19.9114   30.7678 H   0  0  0  0  0  0  0  0  0  0  0  0
   34.0707   20.4917   33.2472 H   0  0  0  0  0  0  0  0  0  0  0  0
   40.6292   25.9624   33.6889 H   0  0  0  0  0  0  0  0  0  0  0  0
   38.0172   27.8910   36.3898 H   0  0  0  0  0  0  0  0  0  0  0  0
   38.5905   22.5578   36.0138 H   0  0  0  0  0  0  0  0  0  0  0  0
   37.2079   23.1381   38.3960 H   0  0  0  0  0  0  0  0  0  0  0  0
   36.5797   23.9640   36.9297 H   0  0  0  0  0  0  0  0  0  0  0  0
   36.8048   22.1819   36.9297 H   0  0  0  0  0  0  0  0  0  0  0  0
   39.1490   23.1739   38.9819 H   0  0  0  0  0  0  0  0  0  0  0  0
   40.0598   22.0536   37.9132 H   0  0  0  0  0  0  0  0  0  0  0  0
   40.4462   23.8079   37.9132 H   0  0  0  0  0  0  0  0  0  0  0  0
  1 17  1  0
  2 10  1  0
  2  3  1  0
  3  4  2  0
  5  4  1  0
  5  6  2  0
  6  1  1  0
  7  6  1  0
  8  7  2  0
  9 10  2  0
  9  8  1  0
 10  5  1  0
 11  8  1  0
 11 15  2  0
 12 13  2  0
 12 11  1  0
 13 14  1  0
 14 15  1  0
 16 21  2  0
 16 17  1  0
 17 18  2  0
 18 19  1  0
 18 22  1  0
 20 19  2  0
 21 20  1  0
 22 23  1  0
 22 24  1  0
  2 25  1  0
  3 26  1  0
 12 27  1  0
 13 28  1  0
 14 29  1  0
 16 30  1  0
 20 31  1  0
 22 32  1  0
 23 33  1  0
 23 34  1  0
 23 35  1  0
 24 36  1  0
 24 37  1  0
 24 38  1  0
M  ISO  8  25   9  26  14  27  14  28  14  29   9  30  14  31  14  32   8
M  ISO  6  33   8  34   8  35   8  36   8  37   8  38   8
M  END
>  <minimizedAffinity>  (1) 
-4.3446722

>  <minimizedRMSD>  (1) 
3.64957523

$$$$
