
     RDKit          3D

 25 26  0  0  1  0  0  0  0  0999 V2000
   38.2360   23.2200   38.0260 C   0  0  0  0  0  0  0  0  0  0  0  0
   37.7410   23.2830   36.7200 C   0  0  0  0  0  0  0  0  0  0  0  0
   38.6450   23.1180   35.6670 C   0  0  0  0  0  0  0  0  0  0  0  0
   39.9590   22.9060   35.9640 N   0  0  0  0  0  0  0  0  0  0  0  0
   40.4040   22.8510   37.2470 C   0  0  0  0  0  0  0  0  0  0  0  0
   39.5420   23.0080   38.2630 N   0  0  0  0  0  0  0  0  0  0  0  0
   38.2530   23.1630   34.3140 N   0  0  0  0  0  0  0  0  0  0  0  0
   38.6760   24.0380   33.2320 C   0  0  0  0  0  0  0  0  0  0  0  0
   37.3110   24.2860   32.5740 C   0  0  2  0  0  0  0  0  0  0  0  0
   36.9450   22.8100   32.3640 C   0  0  0  0  0  0  0  0  0  0  0  0
   37.2810   22.2640   33.7290 C   0  0  0  0  0  0  0  0  0  0  0  0
   37.5220   24.9630   31.2740 C   0  0  0  0  0  0  0  0  0  0  0  0
   37.6360   26.2300   31.1620 O   0  0  0  0  0  0  0  0  0  0  0  0
   37.5950   24.1760   30.1320 O   0  0  0  0  0  0  0  0  0  0  0  0
   37.5457   23.3459   38.8731 H   0  0  0  0  0  0  0  0  0  0  0  0
   36.6722   23.4572   36.5270 H   0  0  0  0  0  0  0  0  0  0  0  0
   41.4707   22.6778   37.4523 H   0  0  0  0  0  0  0  0  0  0  0  0
   39.1280   24.9682   33.6068 H   0  0  0  0  0  0  0  0  0  0  0  0
   39.4526   23.6285   32.5693 H   0  0  0  0  0  0  0  0  0  0  0  0
   36.5779   24.9015   33.1159 H   0  0  0  0  0  0  0  0  0  0  0  0
   35.8790   22.6833   32.1240 H   0  0  0  0  0  0  0  0  0  0  0  0
   37.4613   22.3178   31.5266 H   0  0  0  0  0  0  0  0  0  0  0  0
   36.3768   22.2258   34.3542 H   0  0  0  0  0  0  0  0  0  0  0  0
   37.6830   21.2427   33.6564 H   0  0  0  0  0  0  0  0  0  0  0  0
   37.7354   24.5986   29.2478 H   0  0  0  0  0  0  0  0  0  0  0  0
  1  6  2  0
  2  1  1  0
  3  4  1  0
  3  2  2  0
  4  5  2  0
  5  6  1  0
  7  3  1  0
  8  7  1  0
  9  8  1  0
 10  9  1  0
 10 11  1  0
 11  7  1  0
 12  9  1  0
 13 12  2  0
 14 12  1  0
  1 15  1  0
  2 16  1  0
  5 17  1  0
  8 18  1  0
  8 19  1  0
  9 20  1  1
 10 21  1  0
 10 22  1  0
 11 23  1  0
 11 24  1  0
 14 25  1  0
M  ISO  8  15  14  16  14  17  14  18  13  19  13  20  13  21  13  22  13
M  ISO  3  23  13  24  13  25   3
M  END
>  <minimizedAffinity>  (1) 
-3.63044715

>  <minimizedRMSD>  (1) 
4.10107183

$$$$
