
     RDKit          3D

 35 38  0  0  1  0  0  0  0  0999 V2000
   39.2420   24.4850   34.6060 N   0  0  0  0  0  0  0  0  0  0  0  0
   40.1770   25.4220   34.0080 C   0  0  0  0  0  0  0  0  0  0  0  0
   39.2240   26.1590   33.0640 C   0  0  2  0  0  0  0  0  0  0  0  0
   38.8140   24.8500   32.2960 C   0  0  0  0  0  0  0  0  0  0  0  0
   38.5190   23.9580   33.4870 C   0  0  0  0  0  0  0  0  0  0  0  0
   37.8060   24.0840   37.9960 C   0  0  0  0  0  0  0  0  0  0  0  0
   37.9040   24.5530   36.6740 C   0  0  0  0  0  0  0  0  0  0  0  0
   39.0110   24.1020   35.9440 C   0  0  0  0  0  0  0  0  0  0  0  0
   39.9230   23.2500   36.5280 N   0  0  0  0  0  0  0  0  0  0  0  0
   39.7660   22.8340   37.8150 C   0  0  0  0  0  0  0  0  0  0  0  0
   38.7230   23.2460   38.5340 N   0  0  0  0  0  0  0  0  0  0  0  0
   39.7570   27.1730   32.1820 C   0  0  0  0  0  0  0  0  0  0  0  0
   40.8390   27.5790   32.4640 O   0  0  0  0  0  0  0  0  0  0  0  0
   35.7180   29.0390   30.8830 N   0  0  0  0  0  0  0  0  0  0  0  0
   35.8540   28.8350   32.2070 C   0  0  0  0  0  0  0  0  0  0  0  0
   37.0400   28.2920   32.5380 N   0  0  0  0  0  0  0  0  0  0  0  0
   37.7280   28.1280   31.3720 C   0  0  0  0  0  0  0  0  0  0  0  0
   38.9880   27.6280   31.0260 C   0  0  0  0  0  0  0  0  0  0  0  0
   39.3650   27.6070   29.7590 N   0  0  0  0  0  0  0  0  0  0  0  0
   38.5220   28.0740   28.7900 C   0  0  0  0  0  0  0  0  0  0  0  0
   37.3040   28.5590   29.0960 N   0  0  0  0  0  0  0  0  0  0  0  0
   36.8720   28.6020   30.3800 C   0  0  0  0  0  0  0  0  0  0  0  0
   40.6171   26.0972   34.7566 H   0  0  0  0  0  0  0  0  0  0  0  0
   41.0545   24.9659   33.5264 H   0  0  0  0  0  0  0  0  0  0  0  0
   38.4718   26.7900   33.5601 H   0  0  0  0  0  0  0  0  0  0  0  0
   37.9258   25.0030   31.6653 H   0  0  0  0  0  0  0  0  0  0  0  0
   39.5623   24.4626   31.5889 H   0  0  0  0  0  0  0  0  0  0  0  0
   37.4400   23.9612   33.7011 H   0  0  0  0  0  0  0  0  0  0  0  0
   38.8236   22.9213   33.2809 H   0  0  0  0  0  0  0  0  0  0  0  0
   36.9558   24.4089   38.6137 H   0  0  0  0  0  0  0  0  0  0  0  0
   37.1565   25.2330   36.2394 H   0  0  0  0  0  0  0  0  0  0  0  0
   40.5048   22.1537   38.2637 H   0  0  0  0  0  0  0  0  0  0  0  0
   34.9133   29.4380   30.3789 H   0  0  0  0  0  0  0  0  0  0  0  0
   35.0756   29.0864   32.9425 H   0  0  0  0  0  0  0  0  0  0  0  0
   38.8452   28.0532   27.7388 H   0  0  0  0  0  0  0  0  0  0  0  0
  1  8  1  0
  2  1  1  0
  3  2  1  0
  4  3  1  0
  4  5  1  0
  5  1  1  0
  6 11  2  0
  7  6  1  0
  8  9  1  0
  8  7  2  0
  9 10  2  0
 10 11  1  0
 12 13  2  0
 12  3  1  0
 14 15  1  0
 15 16  2  0
 17 16  1  0
 18 17  2  0
 18 12  1  0
 19 18  1  0
 20 21  1  0
 20 19  2  0
 21 22  2  0
 22 14  1  0
 22 17  1  0
  2 23  1  0
  2 24  1  0
  3 25  1  1
  4 26  1  0
  4 27  1  0
  5 28  1  0
  5 29  1  0
  6 30  1  0
  7 31  1  0
 10 32  1  0
 14 33  1  0
 15 34  1  0
 20 35  1  0
M  ISO  8  23  13  24  13  25  13  26  13  27  13  28  13  29  13  30  14
M  ISO  5  31  14  32  14  33   9  34  14  35  14
M  END
>  <minimizedAffinity>  (1) 
-4.75700092

>  <minimizedRMSD>  (1) 
4.10164976

$$$$
