
     RDKit          3D

 34 36  0  0  1  0  0  0  0  0999 V2000
   38.3930   24.6320   34.7810 N   0  0  0  0  0  0  0  0  0  0  0  0
   38.4070   25.9810   34.2370 C   0  0  0  0  0  0  0  0  0  0  0  0
   37.1190   25.9490   33.4260 C   0  0  2  0  0  0  0  0  0  0  0  0
   37.5450   24.7030   32.5650 C   0  0  0  0  0  0  0  0  0  0  0  0
   38.0990   23.8060   33.6560 C   0  0  0  0  0  0  0  0  0  0  0  0
   38.1450   23.9730   38.4260 C   0  0  0  0  0  0  0  0  0  0  0  0
   37.8070   24.5380   37.1770 C   0  0  0  0  0  0  0  0  0  0  0  0
   38.6150   24.1520   36.0980 C   0  0  0  0  0  0  0  0  0  0  0  0
   39.6600   23.2780   36.2940 N   0  0  0  0  0  0  0  0  0  0  0  0
   39.9340   22.7690   37.5230 C   0  0  0  0  0  0  0  0  0  0  0  0
   39.1820   23.1160   38.5680 N   0  0  0  0  0  0  0  0  0  0  0  0
   36.7770   27.0800   32.6020 C   0  0  0  0  0  0  0  0  0  0  0  0
   36.8360   26.9220   31.4130 O   0  0  0  0  0  0  0  0  0  0  0  0
   36.3490   28.4260   32.9320 C   0  0  0  0  0  0  0  0  0  0  0  0
   36.3110   29.4030   31.9290 C   0  0  0  0  0  0  0  0  0  0  0  0
   35.9050   30.7070   32.1450 C   0  0  0  0  0  0  0  0  0  0  0  0
   35.5180   31.0740   33.4030 C   0  0  0  0  0  0  0  0  0  0  0  0
   35.5310   30.1700   34.4240 C   0  0  0  0  0  0  0  0  0  0  0  0
   35.9420   28.8980   34.1460 C   0  0  0  0  0  0  0  0  0  0  0  0
   38.3716   26.7421   35.0304 H   0  0  0  0  0  0  0  0  0  0  0  0
   39.3097   26.2418   33.6650 H   0  0  0  0  0  0  0  0  0  0  0  0
   36.2040   25.9342   34.0363 H   0  0  0  0  0  0  0  0  0  0  0  0
   36.6839   24.2440   32.0572 H   0  0  0  0  0  0  0  0  0  0  0  0
   38.2456   24.9233   31.7461 H   0  0  0  0  0  0  0  0  0  0  0  0
   37.3532   23.0462   33.9325 H   0  0  0  0  0  0  0  0  0  0  0  0
   39.0046   23.2871   33.3087 H   0  0  0  0  0  0  0  0  0  0  0  0
   37.5470   24.2377   39.3105 H   0  0  0  0  0  0  0  0  0  0  0  0
   36.9648   25.2355   37.0581 H   0  0  0  0  0  0  0  0  0  0  0  0
   40.7745   22.0720   37.6560 H   0  0  0  0  0  0  0  0  0  0  0  0
   36.6214   29.1170   30.9132 H   0  0  0  0  0  0  0  0  0  0  0  0
   35.8938   31.4347   31.3202 H   0  0  0  0  0  0  0  0  0  0  0  0
   35.1932   32.1075   33.5938 H   0  0  0  0  0  0  0  0  0  0  0  0
   35.2202   30.4566   35.4395 H   0  0  0  0  0  0  0  0  0  0  0  0
   35.9454   28.1837   34.9825 H   0  0  0  0  0  0  0  0  0  0  0  0
  1  8  1  0
  2  1  1  0
  3  2  1  0
  4  3  1  0
  4  5  1  0
  5  1  1  0
  6 11  2  0
  7  6  1  0
  8  9  1  0
  8  7  2  0
  9 10  2  0
 10 11  1  0
 12 14  1  0
 12  3  1  0
 13 12  2  0
 14 19  2  0
 15 16  2  0
 15 14  1  0
 16 17  1  0
 17 18  2  0
 19 18  1  0
  2 20  1  0
  2 21  1  0
  3 22  1  1
  4 23  1  0
  4 24  1  0
  5 25  1  0
  5 26  1  0
  6 27  1  0
  7 28  1  0
 10 29  1  0
 15 30  1  0
 16 31  1  0
 17 32  1  0
 18 33  1  0
 19 34  1  0
M  ISO  8  20  13  21  13  22  13  23  13  24  13  25  13  26  13  27  14
M  ISO  7  28  14  29  14  30  14  31  14  32  14  33  14  34  14
M  END
>  <minimizedAffinity>  (1) 
-5.04641247

>  <minimizedRMSD>  (1) 
3.98480535

$$$$
