
     RDKit          3D

 39 41  0  0  1  0  0  0  0  0999 V2000
   38.2770   23.7880   34.6720 N   0  0  0  0  0  0  0  0  0  0  0  0
   38.4200   24.9460   33.7770 C   0  0  0  0  0  0  0  0  0  0  0  0
   37.1580   24.7670   32.9400 C   0  0  2  0  0  0  0  0  0  0  0  0
   37.4720   23.3060   32.4960 C   0  0  0  0  0  0  0  0  0  0  0  0
   37.8850   22.7060   33.8240 C   0  0  0  0  0  0  0  0  0  0  0  0
   37.9000   24.1440   38.3390 C   0  0  0  0  0  0  0  0  0  0  0  0
   37.6100   24.3240   36.9760 C   0  0  0  0  0  0  0  0  0  0  0  0
   38.4650   23.6850   36.0680 C   0  0  0  0  0  0  0  0  0  0  0  0
   39.5230   22.9280   36.5210 N   0  0  0  0  0  0  0  0  0  0  0  0
   39.7330   22.8050   37.8650 C   0  0  0  0  0  0  0  0  0  0  0  0
   38.9380   23.4010   38.7580 N   0  0  0  0  0  0  0  0  0  0  0  0
   37.0500   25.6640   31.7940 C   0  0  0  0  0  0  0  0  0  0  0  0
   37.1530   25.0960   30.7280 O   0  0  0  0  0  0  0  0  0  0  0  0
   36.8410   27.0700   31.7280 N   0  0  0  0  0  0  0  0  0  0  0  0
   35.6430   27.8200   31.9500 C   0  0  0  0  0  0  0  0  0  0  0  0
   35.7650   29.2740   31.6200 C   0  0  0  0  0  0  0  0  0  0  0  0
   36.4880   29.6020   30.3630 C   0  0  0  0  0  0  0  0  0  0  0  0
   37.5360   28.5620   30.0470 C   0  0  0  0  0  0  0  0  0  0  0  0
   37.9290   27.9740   31.3980 C   0  0  0  0  0  0  0  0  0  0  0  0
   38.4151   25.8966   34.3304 H   0  0  0  0  0  0  0  0  0  0  0  0
   39.3602   24.9871   33.2075 H   0  0  0  0  0  0  0  0  0  0  0  0
   36.2092   24.9708   33.4578 H   0  0  0  0  0  0  0  0  0  0  0  0
   36.5840   22.8063   32.0816 H   0  0  0  0  0  0  0  0  0  0  0  0
   38.2220   23.2176   31.6962 H   0  0  0  0  0  0  0  0  0  0  0  0
   37.0395   22.1632   34.2718 H   0  0  0  0  0  0  0  0  0  0  0  0
   38.7129   21.9941   33.6907 H   0  0  0  0  0  0  0  0  0  0  0  0
   37.2557   24.6276   39.0880 H   0  0  0  0  0  0  0  0  0  0  0  0
   36.7581   24.9334   36.6399 H   0  0  0  0  0  0  0  0  0  0  0  0
   40.5791   22.1992   38.2215 H   0  0  0  0  0  0  0  0  0  0  0  0
   34.8452   27.3897   31.3269 H   0  0  0  0  0  0  0  0  0  0  0  0
   35.4220   27.7554   33.0256 H   0  0  0  0  0  0  0  0  0  0  0  0
   34.7485   29.6868   31.5403 H   0  0  0  0  0  0  0  0  0  0  0  0
   36.3680   29.7107   32.4297 H   0  0  0  0  0  0  0  0  0  0  0  0
   35.7654   29.6460   29.5348 H   0  0  0  0  0  0  0  0  0  0  0  0
   36.9893   30.5724   30.4933 H   0  0  0  0  0  0  0  0  0  0  0  0
   37.1212   27.7818   29.3918 H   0  0  0  0  0  0  0  0  0  0  0  0
   38.3986   28.9925   29.5173 H   0  0  0  0  0  0  0  0  0  0  0  0
   38.8804   27.4271   31.3227 H   0  0  0  0  0  0  0  0  0  0  0  0
   38.0786   28.7481   32.1650 H   0  0  0  0  0  0  0  0  0  0  0  0
  1  8  1  0
  2  1  1  0
  3  2  1  0
  4  3  1  0
  4  5  1  0
  5  1  1  0
  6 11  2  0
  7  6  1  0
  8  9  1  0
  8  7  2  0
  9 10  2  0
 10 11  1  0
 12  3  1  0
 13 12  2  0
 14 12  1  0
 14 15  1  0
 16 15  1  0
 17 16  1  0
 18 17  1  0
 18 19  1  0
 19 14  1  0
  2 20  1  0
  2 21  1  0
  3 22  1  1
  4 23  1  0
  4 24  1  0
  5 25  1  0
  5 26  1  0
  6 27  1  0
  7 28  1  0
 10 29  1  0
 15 30  1  0
 15 31  1  0
 16 32  1  0
 16 33  1  0
 17 34  1  0
 17 35  1  0
 18 36  1  0
 18 37  1  0
 19 38  1  0
 19 39  1  0
M  ISO  8  20  13  21  13  22  13  23  13  24  13  25  13  26  13  27  14
M  ISO  8  28  14  29  14  30  13  31  13  32  13  33  13  34  13  35  13
M  ISO  4  36  13  37  13  38  13  39  13
M  END
>  <minimizedAffinity>  (1) 
-4.88953686

>  <minimizedRMSD>  (1) 
3.76491213

$$$$
