
     RDKit          3D

 32 34  0  0  1  0  0  0  0  0999 V2000
   38.8230   24.5540   34.7630 N   0  0  0  0  0  0  0  0  0  0  0  0
   39.5300   25.6120   34.0640 C   0  0  0  0  0  0  0  0  0  0  0  0
   38.3770   26.1820   33.2350 C   0  0  2  0  0  0  0  0  0  0  0  0
   38.0400   24.8260   32.5250 C   0  0  0  0  0  0  0  0  0  0  0  0
   38.0570   23.9100   33.7370 C   0  0  0  0  0  0  0  0  0  0  0  0
   37.9950   24.1780   38.3560 C   0  0  0  0  0  0  0  0  0  0  0  0
   37.8860   24.6660   37.0370 C   0  0  0  0  0  0  0  0  0  0  0  0
   38.8140   24.1600   36.1160 C   0  0  0  0  0  0  0  0  0  0  0  0
   39.7330   23.2570   36.5420 N   0  0  0  0  0  0  0  0  0  0  0  0
   39.8000   22.8170   37.8160 C   0  0  0  0  0  0  0  0  0  0  0  0
   38.9340   23.2750   38.7200 N   0  0  0  0  0  0  0  0  0  0  0  0
   38.6790   27.2460   32.3010 C   0  0  0  0  0  0  0  0  0  0  0  0
   39.8250   27.3310   31.9270 O   0  0  0  0  0  0  0  0  0  0  0  0
   37.5830   28.1160   31.8840 C   0  0  0  0  0  0  0  0  0  0  0  0
   36.5400   28.2490   32.7940 C   0  0  0  0  0  0  0  0  0  0  0  0
   35.4510   29.0500   32.4990 C   0  0  0  0  0  0  0  0  0  0  0  0
   35.4000   29.7040   31.3230 N   0  0  0  0  0  0  0  0  0  0  0  0
   36.4180   29.5680   30.4470 C   0  0  0  0  0  0  0  0  0  0  0  0
   37.4700   28.7970   30.7290 N   0  0  0  0  0  0  0  0  0  0  0  0
   39.9435   26.3577   34.7589 H   0  0  0  0  0  0  0  0  0  0  0  0
   40.4064   25.2859   33.4847 H   0  0  0  0  0  0  0  0  0  0  0  0
   37.6006   26.7044   33.8132 H   0  0  0  0  0  0  0  0  0  0  0  0
   37.0531   24.8491   32.0397 H   0  0  0  0  0  0  0  0  0  0  0  0
   38.7178   24.5399   31.7072 H   0  0  0  0  0  0  0  0  0  0  0  0
   37.0295   23.7374   34.0899 H   0  0  0  0  0  0  0  0  0  0  0  0
   38.5028   22.9384   33.4777 H   0  0  0  0  0  0  0  0  0  0  0  0
   37.2904   24.5454   39.1166 H   0  0  0  0  0  0  0  0  0  0  0  0
   37.1188   25.3996   36.7484 H   0  0  0  0  0  0  0  0  0  0  0  0
   40.5661   22.0834   38.1073 H   0  0  0  0  0  0  0  0  0  0  0  0
   36.5809   27.7141   33.7543 H   0  0  0  0  0  0  0  0  0  0  0  0
   34.6293   29.1523   33.2231 H   0  0  0  0  0  0  0  0  0  0  0  0
   36.3798   30.1011   29.4856 H   0  0  0  0  0  0  0  0  0  0  0  0
  1  8  1  0
  2  1  1  0
  3  2  1  0
  4  3  1  0
  4  5  1  0
  5  1  1  0
  6 11  2  0
  7  6  1  0
  8  9  1  0
  8  7  2  0
  9 10  2  0
 10 11  1  0
 12  3  1  0
 13 12  2  0
 14 12  1  0
 14 15  2  0
 16 15  1  0
 17 16  2  0
 18 19  2  0
 18 17  1  0
 19 14  1  0
  2 20  1  0
  2 21  1  0
  3 22  1  1
  4 23  1  0
  4 24  1  0
  5 25  1  0
  5 26  1  0
  6 27  1  0
  7 28  1  0
 10 29  1  0
 15 30  1  0
 16 31  1  0
 18 32  1  0
M  ISO  8  20  13  21  13  22  13  23  13  24  13  25  13  26  13  27  14
M  ISO  5  28  14  29  14  30  14  31  14  32  14
M  END
>  <minimizedAffinity>  (1) 
-4.57052469

>  <minimizedRMSD>  (1) 
3.66617632

$$$$
