
     RDKit          3D

 36 38  0  0  1  0  0  0  0  0999 V2000
   38.1300   25.4150   35.0610 N   0  0  0  0  0  0  0  0  0  0  0  0
   38.5290   25.4230   33.6460 C   0  0  0  0  0  0  0  0  0  0  0  0
   38.7200   26.9260   33.4570 C   0  0  2  0  0  0  0  0  0  0  0  0
   37.2930   27.3260   33.9360 C   0  0  0  0  0  0  0  0  0  0  0  0
   37.1780   26.4720   35.1830 C   0  0  0  0  0  0  0  0  0  0  0  0
   38.4070   23.6820   38.3340 C   0  0  0  0  0  0  0  0  0  0  0  0
   37.8920   24.5640   37.3580 C   0  0  0  0  0  0  0  0  0  0  0  0
   38.5500   24.5790   36.1180 C   0  0  0  0  0  0  0  0  0  0  0  0
   39.6290   23.7610   35.9190 N   0  0  0  0  0  0  0  0  0  0  0  0
   40.0830   22.9360   36.8840 C   0  0  0  0  0  0  0  0  0  0  0  0
   39.4680   22.9010   38.0900 N   0  0  0  0  0  0  0  0  0  0  0  0
   38.9570   27.3350   32.0750 C   0  0  0  0  0  0  0  0  0  0  0  0
   37.9490   27.7430   31.5220 O   0  0  0  0  0  0  0  0  0  0  0  0
   40.2060   27.3110   31.3290 N   0  0  0  0  0  0  0  0  0  0  0  0
   41.6700   27.4130   31.4290 C   0  0  0  0  0  0  0  0  0  0  0  0
   41.9300   28.5750   30.4660 C   0  0  0  0  0  0  0  0  0  0  0  0
   40.8020   28.4590   29.4380 C   0  0  0  0  0  0  0  0  0  0  0  0
   40.2010   27.1150   29.8660 C   0  0  0  0  0  0  0  0  0  0  0  0
   39.4618   24.8648   33.4778 H   0  0  0  0  0  0  0  0  0  0  0  0
   37.8199   24.9466   32.9530 H   0  0  0  0  0  0  0  0  0  0  0  0
   39.5890   27.3684   33.9660 H   0  0  0  0  0  0  0  0  0  0  0  0
   37.2278   28.3989   34.1698 H   0  0  0  0  0  0  0  0  0  0  0  0
   36.4965   27.1678   33.1940 H   0  0  0  0  0  0  0  0  0  0  0  0
   36.1625   26.0570   35.2630 H   0  0  0  0  0  0  0  0  0  0  0  0
   37.3730   27.0705   36.0851 H   0  0  0  0  0  0  0  0  0  0  0  0
   37.9238   23.6351   39.3211 H   0  0  0  0  0  0  0  0  0  0  0  0
   37.0212   25.2053   37.5591 H   0  0  0  0  0  0  0  0  0  0  0  0
   40.9532   22.2912   36.6916 H   0  0  0  0  0  0  0  0  0  0  0  0
   41.9922   27.6532   32.4530 H   0  0  0  0  0  0  0  0  0  0  0  0
   42.2134   26.4869   31.1902 H   0  0  0  0  0  0  0  0  0  0  0  0
   41.8814   29.5391   30.9935 H   0  0  0  0  0  0  0  0  0  0  0  0
   42.9288   28.5310   30.0073 H   0  0  0  0  0  0  0  0  0  0  0  0
   41.1878   28.4259   28.4084 H   0  0  0  0  0  0  0  0  0  0  0  0
   40.0958   29.3023   29.4230 H   0  0  0  0  0  0  0  0  0  0  0  0
   39.1833   26.9750   29.4727 H   0  0  0  0  0  0  0  0  0  0  0  0
   40.7365   26.2234   29.5078 H   0  0  0  0  0  0  0  0  0  0  0  0
  1  5  1  0
  1  8  1  0
  2  1  1  0
  3  2  1  0
  3  4  1  0
  4  5  1  0
  7  6  2  0
  8  7  1  0
  9  8  2  0
  9 10  1  0
 10 11  2  0
 11  6  1  0
 12  3  1  0
 13 12  2  0
 14 15  1  0
 14 12  1  0
 16 15  1  0
 17 18  1  0
 17 16  1  0
 18 14  1  0
  2 19  1  0
  2 20  1  0
  3 21  1  1
  4 22  1  0
  4 23  1  0
  5 24  1  0
  5 25  1  0
  6 26  1  0
  7 27  1  0
 10 28  1  0
 15 29  1  0
 15 30  1  0
 16 31  1  0
 16 32  1  0
 17 33  1  0
 17 34  1  0
 18 35  1  0
 18 36  1  0
M  ISO  8  19  13  20  13  21  13  22  13  23  13  24  13  25  13  26  14
M  ISO  8  27  14  28  14  29  13  30  13  31  13  32  13  33  13  34  13
M  ISO  2  35  13  36  13
M  END
>  <minimizedAffinity>  (1) 
-4.31167507

>  <minimizedRMSD>  (1) 
1.6708461

$$$$
