
     RDKit          3D

 31 33  0  0  1  0  0  0  0  0999 V2000
   38.0170   25.2470   33.7290 N   0  0  0  0  0  0  0  0  0  0  0  0
   39.3620   24.7030   33.6990 C   0  0  0  0  0  0  0  0  0  0  0  0
   39.3170   23.8170   34.9450 C   0  0  2  0  0  0  0  0  0  0  0  0
   38.9060   24.9680   35.9230 C   0  0  0  0  0  0  0  0  0  0  0  0
   37.8390   25.6520   35.0880 C   0  0  0  0  0  0  0  0  0  0  0  0
   35.6400   26.6380   31.2410 C   0  0  0  0  0  0  0  0  0  0  0  0
   36.6120   26.6440   32.2640 C   0  0  0  0  0  0  0  0  0  0  0  0
   37.0420   25.3900   32.7170 C   0  0  0  0  0  0  0  0  0  0  0  0
   36.5200   24.2400   32.1670 N   0  0  0  0  0  0  0  0  0  0  0  0
   35.5890   24.3020   31.1870 C   0  0  0  0  0  0  0  0  0  0  0  0
   35.1500   25.4870   30.7250 N   0  0  0  0  0  0  0  0  0  0  0  0
   40.5690   23.2070   35.3460 C   0  0  0  0  0  0  0  0  0  0  0  0
   41.2710   22.7990   34.4670 O   0  0  0  0  0  0  0  0  0  0  0  0
   41.2840   22.9350   36.6190 C   0  0  0  0  0  0  0  0  0  0  0  0
   40.5490   22.1870   37.6890 C   0  0  0  0  0  0  0  0  0  0  0  0
   41.7360   21.5890   37.0170 C   0  0  0  0  0  0  0  0  0  0  0  0
   39.5448   24.1160   32.7869 H   0  0  0  0  0  0  0  0  0  0  0  0
   40.1658   25.4539   33.6928 H   0  0  0  0  0  0  0  0  0  0  0  0
   38.6847   22.9211   34.8579 H   0  0  0  0  0  0  0  0  0  0  0  0
   38.4978   24.5763   36.8664 H   0  0  0  0  0  0  0  0  0  0  0  0
   39.7313   25.6197   36.2457 H   0  0  0  0  0  0  0  0  0  0  0  0
   37.9440   26.7440   35.1692 H   0  0  0  0  0  0  0  0  0  0  0  0
   36.8365   25.3711   35.4430 H   0  0  0  0  0  0  0  0  0  0  0  0
   35.2696   27.5977   30.8514 H   0  0  0  0  0  0  0  0  0  0  0  0
   37.0096   27.5805   32.6822 H   0  0  0  0  0  0  0  0  0  0  0  0
   35.1856   23.3710   30.7623 H   0  0  0  0  0  0  0  0  0  0  0  0
   41.8057   23.8983   36.5195 H   0  0  0  0  0  0  0  0  0  0  0  0
   40.6145   22.5152   38.7368 H   0  0  0  0  0  0  0  0  0  0  0  0
   39.5056   21.8802   37.8538 H   0  0  0  0  0  0  0  0  0  0  0  0
   41.6065   20.7414   36.3279 H   0  0  0  0  0  0  0  0  0  0  0  0
   42.6894   21.1645   37.3645 H   0  0  0  0  0  0  0  0  0  0  0  0
  1  5  1  0
  2  1  1  0
  2  3  1  0
  3 12  1  0
  3  4  1  0
  5  4  1  0
  6  7  2  0
  7  8  1  0
  8  1  1  0
  9  8  2  0
 10  9  1  0
 11 10  2  0
 11  6  1  0
 12 14  1  0
 13 12  2  0
 14 16  1  0
 14 15  1  0
 16 15  1  0
  2 17  1  0
  2 18  1  0
  3 19  1  6
  4 20  1  0
  4 21  1  0
  5 22  1  0
  5 23  1  0
  6 24  1  0
  7 25  1  0
 10 26  1  0
 14 27  1  0
 15 28  1  0
 15 29  1  0
 16 30  1  0
 16 31  1  0
M  ISO  8  17  13  18  13  19  13  20  13  21  13  22  13  23  13  24  14
M  ISO  7  25  14  26  14  27  13  28  13  29  13  30  13  31  13
M  END
>  <minimizedAffinity>  (1) 
-3.95520759

>  <minimizedRMSD>  (1) 
6.03488493

$$$$
