
     RDKit          3D

 51 55  0  0  1  0  0  0  0  0999 V2000
   39.2210   26.3680   30.9790 C   0  0  2  0  0  0  0  0  0  0  0  0
   40.6740   26.2460   31.4160 C   0  0  0  0  0  0  0  0  0  0  0  0
   41.2310   27.6100   31.1370 C   0  0  0  0  0  0  0  0  0  0  0  0
   40.3780   28.1830   30.0320 C   0  0  0  0  0  0  0  0  0  0  0  0
   39.3450   27.1500   29.6890 C   0  0  1  0  0  0  0  0  0  0  0  0
   39.6920   26.2890   28.6070 N   0  0  0  0  0  0  0  0  0  0  0  0
   39.7710   24.9560   28.7820 C   0  0  0  0  0  0  0  0  0  0  0  0
   40.1090   24.3990   27.6220 N   0  0  0  0  0  0  0  0  0  0  0  0
   40.2530   25.3330   26.6940 C   0  0  0  0  0  0  0  0  0  0  0  0
   40.5910   25.2760   25.3550 C   0  0  0  0  0  0  0  0  0  0  0  0
   40.8330   24.1830   24.7820 O   0  0  0  0  0  0  0  0  0  0  0  0
   40.6450   26.4530   24.7070 N   0  0  0  0  0  0  0  0  0  0  0  0
   40.3810   27.6170   25.3400 C   0  0  0  0  0  0  0  0  0  0  0  0
   40.4780   28.7680   24.5270 N   0  0  0  0  0  0  0  0  0  0  0  0
   40.0490   27.6800   26.6510 N   0  0  0  0  0  0  0  0  0  0  0  0
   39.9860   26.5250   27.3360 C   0  0  0  0  0  0  0  0  0  0  0  0
   38.3990   27.0950   31.9680 C   0  0  0  0  0  0  0  0  0  0  0  0
   37.6840   28.0270   31.6850 O   0  0  0  0  0  0  0  0  0  0  0  0
   37.9590   25.3930   35.1610 N   0  0  0  0  0  0  0  0  0  0  0  0
   37.8970   25.3080   33.7080 C   0  0  0  0  0  0  0  0  0  0  0  0
   38.3860   26.7440   33.3770 C   0  0  2  0  0  0  0  0  0  0  0  0
   37.3270   27.4790   34.2140 C   0  0  0  0  0  0  0  0  0  0  0  0
   37.3060   26.6220   35.4650 C   0  0  0  0  0  0  0  0  0  0  0  0
   38.5840   23.4450   38.2610 C   0  0  0  0  0  0  0  0  0  0  0  0
   37.9300   24.3380   37.3950 C   0  0  0  0  0  0  0  0  0  0  0  0
   38.5080   24.5260   36.1420 C   0  0  0  0  0  0  0  0  0  0  0  0
   39.6520   23.8500   35.8230 N   0  0  0  0  0  0  0  0  0  0  0  0
   40.2520   22.9960   36.6920 C   0  0  0  0  0  0  0  0  0  0  0  0
   39.7120   22.8000   37.9040 N   0  0  0  0  0  0  0  0  0  0  0  0
   38.7184   25.3957   30.8698 H   0  0  0  0  0  0  0  0  0  0  0  0
   40.7449   26.0023   32.4863 H   0  0  0  0  0  0  0  0  0  0  0  0
   41.2157   25.4436   30.8939 H   0  0  0  0  0  0  0  0  0  0  0  0
   41.1682   28.2408   32.0359 H   0  0  0  0  0  0  0  0  0  0  0  0
   42.2913   27.5635   30.8479 H   0  0  0  0  0  0  0  0  0  0  0  0
   39.8884   29.1067   30.3741 H   0  0  0  0  0  0  0  0  0  0  0  0
   40.9912   28.4295   29.1527 H   0  0  0  0  0  0  0  0  0  0  0  0
   38.4160   27.6224   29.3371 H   0  0  0  0  0  0  0  0  0  0  0  0
   39.5872   24.4189   29.7242 H   0  0  0  0  0  0  0  0  0  0  0  0
   40.8928   26.4675   23.7073 H   0  0  0  0  0  0  0  0  0  0  0  0
   40.2931   29.6987   24.9278 H   0  0  0  0  0  0  0  0  0  0  0  0
   40.7336   28.6767   23.5334 H   0  0  0  0  0  0  0  0  0  0  0  0
   38.5720   24.5370   33.3080 H   0  0  0  0  0  0  0  0  0  0  0  0
   36.9217   25.0245   33.2856 H   0  0  0  0  0  0  0  0  0  0  0  0
   39.4406   26.9612   33.6023 H   0  0  0  0  0  0  0  0  0  0  0  0
   37.6326   28.5120   34.4364 H   0  0  0  0  0  0  0  0  0  0  0  0
   36.3503   27.5858   33.7195 H   0  0  0  0  0  0  0  0  0  0  0  0
   36.2666   26.4285   35.7688 H   0  0  0  0  0  0  0  0  0  0  0  0
   37.8186   27.1356   36.2917 H   0  0  0  0  0  0  0  0  0  0  0  0
   38.1621   23.2671   39.2612 H   0  0  0  0  0  0  0  0  0  0  0  0
   37.0091   24.8614   37.6916 H   0  0  0  0  0  0  0  0  0  0  0  0
   41.1737   22.4691   36.4041 H   0  0  0  0  0  0  0  0  0  0  0  0
  1  2  1  0
  1 17  1  0
  3  2  1  0
  4  3  1  0
  5  4  1  0
  5  1  1  0
  6  7  1  0
  6  5  1  0
  8  7  2  0
  9 16  2  0
  9  8  1  0
 10  9  1  0
 11 10  2  0
 12 13  1  0
 12 10  1  0
 13 15  2  0
 14 13  1  0
 15 16  1  0
 16  6  1  0
 17 21  1  0
 18 17  2  0
 19 23  1  0
 19 26  1  0
 20 19  1  0
 21 20  1  0
 21 22  1  0
 22 23  1  0
 25 24  2  0
 26 25  1  0
 27 26  2  0
 27 28  1  0
 28 29  2  0
 29 24  1  0
  1 30  1  6
  2 31  1  0
  2 32  1  0
  3 33  1  0
  3 34  1  0
  4 35  1  0
  4 36  1  0
  5 37  1  6
  7 38  1  0
 12 39  1  0
 14 40  1  0
 14 41  1  0
 20 42  1  0
 20 43  1  0
 21 44  1  1
 22 45  1  0
 22 46  1  0
 23 47  1  0
 23 48  1  0
 24 49  1  0
 25 50  1  0
 28 51  1  0
M  ISO  8  30  13  31  13  32  13  33  13  34  13  35  13  36  13  37  13
M  ISO  8  38  14  39   9  42  13  43  13  44  13  45  13  46  13  47  13
M  ISO  4  48  13  49  14  50  14  51  14
M  END
>  <minimizedAffinity>  (1) 
-5.57909679

>  <minimizedRMSD>  (1) 
2.0120244

$$$$
