
     RDKit          3D

 44 47  0  0  1  0  0  0  0  0999 V2000
   37.8810   25.4620   34.9280 N   0  0  0  0  0  0  0  0  0  0  0  0
   37.7840   25.4190   33.4760 C   0  0  0  0  0  0  0  0  0  0  0  0
   38.2660   26.8590   33.1620 C   0  0  2  0  0  0  0  0  0  0  0  0
   37.2060   27.5650   34.0230 C   0  0  0  0  0  0  0  0  0  0  0  0
   37.2380   26.6910   35.2610 C   0  0  0  0  0  0  0  0  0  0  0  0
   38.5560   23.4680   37.9770 C   0  0  0  0  0  0  0  0  0  0  0  0
   37.8950   24.3720   37.1470 C   0  0  0  0  0  0  0  0  0  0  0  0
   38.4440   24.5780   35.8800 C   0  0  0  0  0  0  0  0  0  0  0  0
   39.5780   23.9050   35.5110 N   0  0  0  0  0  0  0  0  0  0  0  0
   40.1780   23.0350   36.3690 C   0  0  0  0  0  0  0  0  0  0  0  0
   39.6810   22.8180   37.5780 N   0  0  0  0  0  0  0  0  0  0  0  0
   38.2600   27.2430   31.7640 C   0  0  0  0  0  0  0  0  0  0  0  0
   37.5580   28.1910   31.5090 O   0  0  0  0  0  0  0  0  0  0  0  0
   39.0670   26.5090   30.7380 C   0  0  2  0  0  0  0  0  0  0  0  0
   40.5040   26.3290   31.1760 C   0  0  0  0  0  0  0  0  0  0  0  0
   41.1090   27.6830   30.9540 C   0  0  0  0  0  0  0  0  0  0  0  0
   40.3030   28.3440   29.8940 C   0  0  0  0  0  0  0  0  0  0  0  0
   39.2010   27.3490   29.4860 C   0  0  1  0  0  0  0  0  0  0  0  0
   39.6550   26.6240   28.3220 C   0  0  0  0  0  0  0  0  0  0  0  0
   39.8980   25.4130   27.7930 C   0  0  0  0  0  0  0  0  0  0  0  0
   40.3930   25.2300   26.5530 C   0  0  0  0  0  0  0  0  0  0  0  0
   40.6440   26.4230   25.8300 C   0  0  0  0  0  0  0  0  0  0  0  0
   40.1370   27.7270   27.0210 S   0  0  0  0  0  0  0  0  0  0  0  0
   38.4470   24.6572   33.0401 H   0  0  0  0  0  0  0  0  0  0  0  0
   36.7957   25.1512   33.0742 H   0  0  0  0  0  0  0  0  0  0  0  0
   39.3236   27.0744   33.3744 H   0  0  0  0  0  0  0  0  0  0  0  0
   37.4911   28.6029   34.2499 H   0  0  0  0  0  0  0  0  0  0  0  0
   36.2169   27.6591   33.5509 H   0  0  0  0  0  0  0  0  0  0  0  0
   36.2113   26.4926   35.6023 H   0  0  0  0  0  0  0  0  0  0  0  0
   37.7872   27.1984   36.0678 H   0  0  0  0  0  0  0  0  0  0  0  0
   38.1558   23.2752   38.9833 H   0  0  0  0  0  0  0  0  0  0  0  0
   36.9856   24.8972   37.4742 H   0  0  0  0  0  0  0  0  0  0  0  0
   41.0887   22.5044   36.0541 H   0  0  0  0  0  0  0  0  0  0  0  0
   38.5500   25.5502   30.5853 H   0  0  0  0  0  0  0  0  0  0  0  0
   40.5590   26.0428   32.2367 H   0  0  0  0  0  0  0  0  0  0  0  0
   41.0236   25.5316   30.6246 H   0  0  0  0  0  0  0  0  0  0  0  0
   41.0702   28.2721   31.8822 H   0  0  0  0  0  0  0  0  0  0  0  0
   42.1641   27.6000   30.6541 H   0  0  0  0  0  0  0  0  0  0  0  0
   39.8526   29.2692   30.2826 H   0  0  0  0  0  0  0  0  0  0  0  0
   40.9305   28.6128   29.0315 H   0  0  0  0  0  0  0  0  0  0  0  0
   38.2298   27.7726   29.1906 H   0  0  0  0  0  0  0  0  0  0  0  0
   39.6815   24.5244   28.4041 H   0  0  0  0  0  0  0  0  0  0  0  0
   40.5873   24.2316   26.1342 H   0  0  0  0  0  0  0  0  0  0  0  0
   41.0424   26.5391   24.8113 H   0  0  0  0  0  0  0  0  0  0  0  0
  1  5  1  0
  1  8  1  0
  2  1  1  0
  3  2  1  0
  3  4  1  0
  4  5  1  0
  7  6  2  0
  8  7  1  0
  9  8  2  0
  9 10  1  0
 10 11  2  0
 11  6  1  0
 12  3  1  0
 13 12  2  0
 14 15  1  0
 14 12  1  0
 16 15  1  0
 17 16  1  0
 18 17  1  0
 18 14  1  0
 19 18  1  0
 20 19  2  0
 21 20  1  0
 22 21  2  0
 22 23  1  0
 23 19  1  0
  2 24  1  0
  2 25  1  0
  3 26  1  1
  4 27  1  0
  4 28  1  0
  5 29  1  0
  5 30  1  0
  6 31  1  0
  7 32  1  0
 10 33  1  0
 14 34  1  6
 15 35  1  0
 15 36  1  0
 16 37  1  0
 16 38  1  0
 17 39  1  0
 17 40  1  0
 18 41  1  6
 20 42  1  0
 21 43  1  0
 22 44  1  0
M  ISO  8  24  13  25  13  26  13  27  13  28  13  29  13  30  13  31  14
M  ISO  8  32  14  33  14  34  13  35  13  36  13  37  13  38  13  39  13
M  ISO  5  40  13  41  13  42  14  43  14  44  14
M  END
>  <minimizedAffinity>  (1) 
-4.82331657

>  <minimizedRMSD>  (1) 
0.869882166

$$$$
