
     RDKit          3D

 45 48  0  0  1  0  0  0  0  0999 V2000
   38.3370   27.1370   31.9220 C   0  0  0  0  0  0  0  0  0  0  0  0
   37.6150   28.0670   31.6550 O   0  0  0  0  0  0  0  0  0  0  0  0
   37.9350   25.3810   35.0920 N   0  0  0  0  0  0  0  0  0  0  0  0
   37.8490   25.3390   33.6540 C   0  0  0  0  0  0  0  0  0  0  0  0
   38.3490   26.7770   33.3290 C   0  0  2  0  0  0  0  0  0  0  0  0
   37.3120   27.5100   34.1910 C   0  0  0  0  0  0  0  0  0  0  0  0
   37.2750   26.6170   35.4170 C   0  0  0  0  0  0  0  0  0  0  0  0
   38.6020   23.4370   38.1830 C   0  0  0  0  0  0  0  0  0  0  0  0
   37.9310   24.3240   37.3310 C   0  0  0  0  0  0  0  0  0  0  0  0
   38.4850   24.5210   36.0680 C   0  0  0  0  0  0  0  0  0  0  0  0
   39.6360   23.8520   35.7260 N   0  0  0  0  0  0  0  0  0  0  0  0
   40.2420   23.0010   36.5980 C   0  0  0  0  0  0  0  0  0  0  0  0
   39.7380   22.7940   37.8060 N   0  0  0  0  0  0  0  0  0  0  0  0
   39.1480   26.4200   30.9160 C   0  0  2  0  0  0  0  0  0  0  0  0
   40.6020   26.2750   31.3300 C   0  0  0  0  0  0  0  0  0  0  0  0
   41.1670   27.6370   31.0590 C   0  0  0  0  0  0  0  0  0  0  0  0
   40.3010   28.2740   30.0040 C   0  0  0  0  0  0  0  0  0  0  0  0
   39.2580   27.2130   29.6340 C   0  0  1  0  0  0  0  0  0  0  0  0
   39.6650   26.4420   28.4760 C   0  0  0  0  0  0  0  0  0  0  0  0
   40.0920   27.1870   27.3850 C   0  0  0  0  0  0  0  0  0  0  0  0
   40.5220   26.6180   26.1820 C   0  0  0  0  0  0  0  0  0  0  0  0
   40.5000   25.2710   26.1340 N   0  0  0  0  0  0  0  0  0  0  0  0
   40.0780   24.5590   27.2170 C   0  0  0  0  0  0  0  0  0  0  0  0
   39.6690   25.1280   28.3640 N   0  0  0  0  0  0  0  0  0  0  0  0
   38.5066   24.5685   33.2252 H   0  0  0  0  0  0  0  0  0  0  0  0
   36.8583   25.0835   33.2499 H   0  0  0  0  0  0  0  0  0  0  0  0
   39.4085   26.9860   33.5381 H   0  0  0  0  0  0  0  0  0  0  0  0
   37.6425   28.5286   34.4425 H   0  0  0  0  0  0  0  0  0  0  0  0
   36.3362   27.6537   33.7039 H   0  0  0  0  0  0  0  0  0  0  0  0
   36.2312   26.4183   35.7017 H   0  0  0  0  0  0  0  0  0  0  0  0
   37.7818   27.1083   36.2607 H   0  0  0  0  0  0  0  0  0  0  0  0
   38.1962   23.2554   39.1892 H   0  0  0  0  0  0  0  0  0  0  0  0
   37.0113   24.8399   37.6441 H   0  0  0  0  0  0  0  0  0  0  0  0
   41.1617   22.4784   36.2964 H   0  0  0  0  0  0  0  0  0  0  0  0
   38.6382   25.4516   30.8046 H   0  0  0  0  0  0  0  0  0  0  0  0
   40.6857   26.0171   32.3961 H   0  0  0  0  0  0  0  0  0  0  0  0
   41.1280   25.4725   30.7921 H   0  0  0  0  0  0  0  0  0  0  0  0
   41.1496   28.2422   31.9774 H   0  0  0  0  0  0  0  0  0  0  0  0
   42.2108   27.5672   30.7190 H   0  0  0  0  0  0  0  0  0  0  0  0
   39.8093   29.1738   30.4022 H   0  0  0  0  0  0  0  0  0  0  0  0
   40.8891   28.5901   29.1298 H   0  0  0  0  0  0  0  0  0  0  0  0
   38.2840   27.6127   29.3153 H   0  0  0  0  0  0  0  0  0  0  0  0
   40.0921   28.2836   27.4715 H   0  0  0  0  0  0  0  0  0  0  0  0
   40.8562   27.2294   25.3309 H   0  0  0  0  0  0  0  0  0  0  0  0
   40.0718   23.4611   27.1487 H   0  0  0  0  0  0  0  0  0  0  0  0
  1  5  1  0
  2  1  2  0
  3  7  1  0
  3 10  1  0
  4  3  1  0
  5  4  1  0
  5  6  1  0
  6  7  1  0
  9  8  2  0
 10  9  1  0
 11 10  2  0
 11 12  1  0
 12 13  2  0
 13  8  1  0
 14 15  1  0
 14  1  1  0
 16 15  1  0
 17 16  1  0
 18 17  1  0
 18 14  1  0
 19 18  1  0
 20 19  2  0
 21 20  1  0
 22 21  2  0
 22 23  1  0
 23 24  2  0
 24 19  1  0
  4 25  1  0
  4 26  1  0
  5 27  1  1
  6 28  1  0
  6 29  1  0
  7 30  1  0
  7 31  1  0
  8 32  1  0
  9 33  1  0
 12 34  1  0
 14 35  1  6
 15 36  1  0
 15 37  1  0
 16 38  1  0
 16 39  1  0
 17 40  1  0
 17 41  1  0
 18 42  1  6
 20 43  1  0
 21 44  1  0
 23 45  1  0
M  ISO  8  25  13  26  13  27  13  28  13  29  13  30  13  31  13  32  14
M  ISO  8  33  14  34  14  35  13  36  13  37  13  38  13  39  13  40  13
M  ISO  5  41  13  42  13  43  14  44  14  45  14
M  END
>  <minimizedAffinity>  (1) 
-4.87698793

>  <minimizedRMSD>  (1) 
0.785856068

$$$$
