
     RDKit          3D

 49 52  0  0  1  0  0  0  0  0999 V2000
   38.0210   25.3730   35.0170 N   0  0  0  0  0  0  0  0  0  0  0  0
   38.0030   25.2420   33.5660 C   0  0  0  0  0  0  0  0  0  0  0  0
   38.5570   26.6490   33.2070 C   0  0  2  0  0  0  0  0  0  0  0  0
   37.5040   27.4530   33.9830 C   0  0  0  0  0  0  0  0  0  0  0  0
   37.4010   26.6360   35.2570 C   0  0  0  0  0  0  0  0  0  0  0  0
   38.4700   23.5450   38.2150 C   0  0  0  0  0  0  0  0  0  0  0  0
   37.8680   24.4240   37.3010 C   0  0  0  0  0  0  0  0  0  0  0  0
   38.5050   24.5270   36.0550 C   0  0  0  0  0  0  0  0  0  0  0  0
   39.6340   23.8030   35.7940 N   0  0  0  0  0  0  0  0  0  0  0  0
   40.1630   22.9690   36.7310 C   0  0  0  0  0  0  0  0  0  0  0  0
   39.5880   22.8430   37.9250 N   0  0  0  0  0  0  0  0  0  0  0  0
   38.6340   26.9460   31.7880 C   0  0  0  0  0  0  0  0  0  0  0  0
   37.8730   27.8120   31.4230 O   0  0  0  0  0  0  0  0  0  0  0  0
   39.5680   26.2410   30.8840 C   0  0  2  0  0  0  0  0  0  0  0  0
   40.6280   25.4580   31.6340 C   0  0  0  0  0  0  0  0  0  0  0  0
   41.5890   26.5260   32.0690 C   0  0  0  0  0  0  0  0  0  0  0  0
   41.4290   27.6800   31.1060 C   0  0  0  0  0  0  0  0  0  0  0  0
   40.4040   27.2250   30.0850 C   0  0  2  0  0  0  0  0  0  0  0  0
   39.5200   28.2440   29.6530 N   0  0  0  0  0  0  0  0  0  0  0  0
   38.9500   28.0120   28.3470 C   0  0  0  0  0  0  0  0  0  0  0  0
   38.0120   29.2180   28.2350 C   0  0  0  0  0  0  0  0  0  0  0  0
   38.8140   30.2850   28.9470 C   0  0  0  0  0  0  0  0  0  0  0  0
   40.0330   29.5580   29.5370 C   0  0  0  0  0  0  0  0  0  0  0  0
   38.6611   24.4341   33.2136 H   0  0  0  0  0  0  0  0  0  0  0  0
   37.0322   24.9803   33.1198 H   0  0  0  0  0  0  0  0  0  0  0  0
   39.6099   26.8375   33.4635 H   0  0  0  0  0  0  0  0  0  0  0  0
   37.8471   28.4781   34.1866 H   0  0  0  0  0  0  0  0  0  0  0  0
   36.5508   27.5866   33.4504 H   0  0  0  0  0  0  0  0  0  0  0  0
   36.3438   26.4893   35.5229 H   0  0  0  0  0  0  0  0  0  0  0  0
   37.8989   27.1565   36.0884 H   0  0  0  0  0  0  0  0  0  0  0  0
   38.0131   23.4225   39.2081 H   0  0  0  0  0  0  0  0  0  0  0  0
   36.9589   24.9932   37.5449 H   0  0  0  0  0  0  0  0  0  0  0  0
   41.0724   22.3949   36.4997 H   0  0  0  0  0  0  0  0  0  0  0  0
   38.9163   25.5994   30.2727 H   0  0  0  0  0  0  0  0  0  0  0  0
   40.1959   24.9374   32.5013 H   0  0  0  0  0  0  0  0  0  0  0  0
   41.0988   24.6716   31.0258 H   0  0  0  0  0  0  0  0  0  0  0  0
   41.3536   26.8523   33.0928 H   0  0  0  0  0  0  0  0  0  0  0  0
   42.6229   26.1505   32.0649 H   0  0  0  0  0  0  0  0  0  0  0  0
   41.0709   28.5748   31.6361 H   0  0  0  0  0  0  0  0  0  0  0  0
   42.3843   27.9467   30.6304 H   0  0  0  0  0  0  0  0  0  0  0  0
   40.9077   26.8500   29.1818 H   0  0  0  0  0  0  0  0  0  0  0  0
   39.7191   28.0210   27.5606 H   0  0  0  0  0  0  0  0  0  0  0  0
   38.4580   27.0354   28.2279 H   0  0  0  0  0  0  0  0  0  0  0  0
   37.8264   29.4875   27.1848 H   0  0  0  0  0  0  0  0  0  0  0  0
   37.0104   29.0503   28.6577 H   0  0  0  0  0  0  0  0  0  0  0  0
   39.1359   31.0615   28.2374 H   0  0  0  0  0  0  0  0  0  0  0  0
   38.2225   30.7880   29.7262 H   0  0  0  0  0  0  0  0  0  0  0  0
   40.8973   29.5978   28.8577 H   0  0  0  0  0  0  0  0  0  0  0  0
   40.4110   29.9866   30.4769 H   0  0  0  0  0  0  0  0  0  0  0  0
  1  5  1  0
  1  8  1  0
  2  1  1  0
  3  2  1  0
  3  4  1  0
  4  5  1  0
  7  6  2  0
  8  7  1  0
  9  8  2  0
  9 10  1  0
 10 11  2  0
 11  6  1  0
 12  3  1  0
 13 12  2  0
 14 15  1  0
 14 12  1  0
 15 16  1  0
 17 16  1  0
 18 14  1  0
 18 17  1  0
 19 20  1  0
 19 18  1  0
 21 20  1  0
 21 22  1  0
 22 23  1  0
 23 19  1  0
  2 24  1  0
  2 25  1  0
  3 26  1  1
  4 27  1  0
  4 28  1  0
  5 29  1  0
  5 30  1  0
  6 31  1  0
  7 32  1  0
 10 33  1  0
 14 34  1  6
 15 35  1  0
 15 36  1  0
 16 37  1  0
 16 38  1  0
 17 39  1  0
 17 40  1  0
 18 41  1  6
 20 42  1  0
 20 43  1  0
 21 44  1  0
 21 45  1  0
 22 46  1  0
 22 47  1  0
 23 48  1  0
 23 49  1  0
M  ISO  8  24  13  25  13  26  13  27  13  28  13  29  13  30  13  31  14
M  ISO  8  32  14  33  14  34  13  35  13  36  13  37  13  38  13  39  13
M  ISO  8  40  13  41  13  42  13  43  13  44  13  45  13  46  13  47  13
M  ISO  2  48  13  49  13
M  END
>  <minimizedAffinity>  (1) 
-4.72478342

>  <minimizedRMSD>  (1) 
1.36926365

$$$$
