
     RDKit          3D

 43 46  0  0  1  0  0  0  0  0999 V2000
   37.9670   25.4340   35.0960 N   0  0  0  0  0  0  0  0  0  0  0  0
   37.9170   25.3460   33.6440 C   0  0  0  0  0  0  0  0  0  0  0  0
   38.4490   26.7630   33.3010 C   0  0  2  0  0  0  0  0  0  0  0  0
   37.3990   27.5300   34.1200 C   0  0  0  0  0  0  0  0  0  0  0  0
   37.3450   26.6780   35.3730 C   0  0  0  0  0  0  0  0  0  0  0  0
   38.5160   23.5080   38.2190 C   0  0  0  0  0  0  0  0  0  0  0  0
   37.9020   24.4020   37.3390 C   0  0  0  0  0  0  0  0  0  0  0  0
   38.4830   24.5630   36.0880 C   0  0  0  0  0  0  0  0  0  0  0  0
   39.6090   23.8510   35.7840 N   0  0  0  0  0  0  0  0  0  0  0  0
   40.1660   22.9930   36.6790 C   0  0  0  0  0  0  0  0  0  0  0  0
   39.6200   22.8270   37.8840 N   0  0  0  0  0  0  0  0  0  0  0  0
   38.4850   27.1120   31.9010 C   0  0  0  0  0  0  0  0  0  0  0  0
   37.8380   28.0630   31.6000 O   0  0  0  0  0  0  0  0  0  0  0  0
   39.2650   26.3520   30.9210 C   0  0  2  0  0  0  0  0  0  0  0  0
   40.3510   25.4860   31.5710 C   0  0  0  0  0  0  0  0  0  0  0  0
   41.4220   26.4870   31.8940 C   0  0  0  0  0  0  0  0  0  0  0  0
   41.2480   27.6410   30.9340 C   0  0  0  0  0  0  0  0  0  0  0  0
   40.1140   27.1960   30.0070 C   0  0  2  0  0  0  0  0  0  0  0  0
   39.4530   28.2860   29.3020 C   0  0  0  0  0  0  0  0  0  0  0  0
   40.2580   29.5400   29.4500 C   0  0  0  0  0  0  0  0  0  0  0  0
   39.2550   30.7300   28.5400 S   0  0  0  0  0  0  0  0  0  0  0  0
   37.9660   29.4870   28.1020 C   0  0  0  0  0  0  0  0  0  0  0  0
   38.3370   28.3970   28.6090 N   0  0  0  0  0  0  0  0  0  0  0  0
   38.5729   24.5531   33.2553 H   0  0  0  0  0  0  0  0  0  0  0  0
   36.9356   25.0912   33.2174 H   0  0  0  0  0  0  0  0  0  0  0  0
   39.5094   26.9453   33.5298 H   0  0  0  0  0  0  0  0  0  0  0  0
   37.7276   28.5562   34.3412 H   0  0  0  0  0  0  0  0  0  0  0  0
   36.4310   27.6610   33.6142 H   0  0  0  0  0  0  0  0  0  0  0  0
   36.2974   26.5126   35.6649 H   0  0  0  0  0  0  0  0  0  0  0  0
   37.8664   27.1857   36.1978 H   0  0  0  0  0  0  0  0  0  0  0  0
   38.0798   23.3585   39.2177 H   0  0  0  0  0  0  0  0  0  0  0  0
   36.9956   24.9557   37.6250 H   0  0  0  0  0  0  0  0  0  0  0  0
   41.0726   22.4323   36.4076 H   0  0  0  0  0  0  0  0  0  0  0  0
   38.4703   25.7991   30.3987 H   0  0  0  0  0  0  0  0  0  0  0  0
   39.9762   24.9980   32.4828 H   0  0  0  0  0  0  0  0  0  0  0  0
   40.6999   24.6663   30.9257 H   0  0  0  0  0  0  0  0  0  0  0  0
   41.3119   26.8375   32.9308 H   0  0  0  0  0  0  0  0  0  0  0  0
   42.4220   26.0396   31.7948 H   0  0  0  0  0  0  0  0  0  0  0  0
   40.9720   28.5587   31.4741 H   0  0  0  0  0  0  0  0  0  0  0  0
   42.1724   27.8731   30.3848 H   0  0  0  0  0  0  0  0  0  0  0  0
   40.4468   26.6203   29.1307 H   0  0  0  0  0  0  0  0  0  0  0  0
   41.2116   29.6946   29.9761 H   0  0  0  0  0  0  0  0  0  0  0  0
   37.0533   29.6634   27.5139 H   0  0  0  0  0  0  0  0  0  0  0  0
  1  5  1  0
  1  8  1  0
  2  1  1  0
  3  2  1  0
  3  4  1  0
  4  5  1  0
  7  6  2  0
  8  7  1  0
  9  8  2  0
  9 10  1  0
 10 11  2  0
 11  6  1  0
 12  3  1  0
 13 12  2  0
 14 15  1  0
 14 12  1  0
 15 16  1  0
 17 16  1  0
 18 14  1  0
 18 17  1  0
 19 20  2  0
 19 18  1  0
 21 20  1  0
 22 21  1  0
 22 23  2  0
 23 19  1  0
  2 24  1  0
  2 25  1  0
  3 26  1  1
  4 27  1  0
  4 28  1  0
  5 29  1  0
  5 30  1  0
  6 31  1  0
  7 32  1  0
 10 33  1  0
 14 34  1  6
 15 35  1  0
 15 36  1  0
 16 37  1  0
 16 38  1  0
 17 39  1  0
 17 40  1  0
 18 41  1  6
 20 42  1  0
 22 43  1  0
M  ISO  8  24  13  25  13  26  13  27  13  28  13  29  13  30  13  31  14
M  ISO  8  32  14  33  14  34  13  35  13  36  13  37  13  38  13  39  13
M  ISO  4  40  13  41  13  42  14  43  14
M  END
>  <minimizedAffinity>  (1) 
-4.80997229

>  <minimizedRMSD>  (1) 
1.17656159

$$$$
