
     RDKit          3D

 43 46  0  0  1  0  0  0  0  0999 V2000
   37.9440   25.3520   35.0790 N   0  0  0  0  0  0  0  0  0  0  0  0
   37.9060   25.2890   33.6470 C   0  0  0  0  0  0  0  0  0  0  0  0
   38.4020   26.7220   33.3080 C   0  0  2  0  0  0  0  0  0  0  0  0
   37.3390   27.4660   34.1320 C   0  0  0  0  0  0  0  0  0  0  0  0
   37.2670   26.5810   35.3640 C   0  0  0  0  0  0  0  0  0  0  0  0
   38.5440   23.4630   38.2230 C   0  0  0  0  0  0  0  0  0  0  0  0
   37.8780   24.3320   37.3380 C   0  0  0  0  0  0  0  0  0  0  0  0
   38.4660   24.5150   36.0900 C   0  0  0  0  0  0  0  0  0  0  0  0
   39.6440   23.8490   35.7920 N   0  0  0  0  0  0  0  0  0  0  0  0
   40.2390   23.0250   36.6790 C   0  0  0  0  0  0  0  0  0  0  0  0
   39.6900   22.8350   37.8910 N   0  0  0  0  0  0  0  0  0  0  0  0
   38.4300   27.0610   31.8970 C   0  0  0  0  0  0  0  0  0  0  0  0
   37.7020   27.9740   31.5940 O   0  0  0  0  0  0  0  0  0  0  0  0
   39.2840   26.3440   30.9290 C   0  0  2  0  0  0  0  0  0  0  0  0
   40.7310   26.2690   31.3860 C   0  0  0  0  0  0  0  0  0  0  0  0
   41.2580   27.6380   31.0900 C   0  0  0  0  0  0  0  0  0  0  0  0
   40.4040   28.1880   29.9760 C   0  0  0  0  0  0  0  0  0  0  0  0
   39.3890   27.1110   29.6310 C   0  0  1  0  0  0  0  0  0  0  0  0
   39.7050   26.3130   28.5080 N   0  0  0  0  0  0  0  0  0  0  0  0
   40.1220   26.6990   27.2860 C   0  0  0  0  0  0  0  0  0  0  0  0
   40.3130   25.6050   26.4990 N   0  0  0  0  0  0  0  0  0  0  0  0
   40.0060   24.5410   27.2550 C   0  0  0  0  0  0  0  0  0  0  0  0
   39.6410   24.9940   28.4710 N   0  0  0  0  0  0  0  0  0  0  0  0
   38.5837   24.5173   33.2530 H   0  0  0  0  0  0  0  0  0  0  0  0
   36.9293   25.0203   33.2181 H   0  0  0  0  0  0  0  0  0  0  0  0
   39.4552   26.9393   33.5394 H   0  0  0  0  0  0  0  0  0  0  0  0
   37.6629   28.4865   34.3844 H   0  0  0  0  0  0  0  0  0  0  0  0
   36.3783   27.6084   33.6155 H   0  0  0  0  0  0  0  0  0  0  0  0
   36.2153   26.3765   35.6133 H   0  0  0  0  0  0  0  0  0  0  0  0
   37.7423   27.0844   36.2188 H   0  0  0  0  0  0  0  0  0  0  0  0
   38.1142   23.2902   39.2207 H   0  0  0  0  0  0  0  0  0  0  0  0
   36.9429   24.8392   37.6180 H   0  0  0  0  0  0  0  0  0  0  0  0
   41.1727   22.5090   36.4106 H   0  0  0  0  0  0  0  0  0  0  0  0
   38.8181   25.3528   30.8266 H   0  0  0  0  0  0  0  0  0  0  0  0
   40.7934   26.0470   32.4616 H   0  0  0  0  0  0  0  0  0  0  0  0
   41.2995   25.4717   30.8848 H   0  0  0  0  0  0  0  0  0  0  0  0
   41.1793   28.2775   31.9816 H   0  0  0  0  0  0  0  0  0  0  0  0
   42.3189   27.6044   30.8014 H   0  0  0  0  0  0  0  0  0  0  0  0
   39.8892   29.1014   30.3086 H   0  0  0  0  0  0  0  0  0  0  0  0
   41.0163   28.4495   29.1004 H   0  0  0  0  0  0  0  0  0  0  0  0
   38.4319   27.5340   29.2918 H   0  0  0  0  0  0  0  0  0  0  0  0
   40.2836   27.7408   26.9720 H   0  0  0  0  0  0  0  0  0  0  0  0
   40.0450   23.4879   26.9396 H   0  0  0  0  0  0  0  0  0  0  0  0
  1  5  1  0
  1  8  1  0
  2  1  1  0
  3  2  1  0
  3  4  1  0
  4  5  1  0
  7  6  2  0
  8  7  1  0
  9  8  2  0
  9 10  1  0
 10 11  2  0
 11  6  1  0
 12  3  1  0
 13 12  2  0
 14 15  1  0
 14 12  1  0
 16 15  1  0
 17 16  1  0
 18 17  1  0
 18 14  1  0
 19 18  1  0
 20 19  1  0
 21 22  1  0
 21 20  2  0
 22 23  2  0
 23 19  1  0
  2 24  1  0
  2 25  1  0
  3 26  1  1
  4 27  1  0
  4 28  1  0
  5 29  1  0
  5 30  1  0
  6 31  1  0
  7 32  1  0
 10 33  1  0
 14 34  1  6
 15 35  1  0
 15 36  1  0
 16 37  1  0
 16 38  1  0
 17 39  1  0
 17 40  1  0
 18 41  1  6
 20 42  1  0
 22 43  1  0
M  ISO  8  24  13  25  13  26  13  27  13  28  13  29  13  30  13  31  14
M  ISO  8  32  14  33  14  34  13  35  13  36  13  37  13  38  13  39  13
M  ISO  4  40  13  41  13  42  14  43  14
M  END
>  <minimizedAffinity>  (1) 
-4.79826164

>  <minimizedRMSD>  (1) 
0.212049216

$$$$
