
     RDKit          3D

 43 45  0  0  1  0  0  0  0  0999 V2000
   37.9840   25.4070   35.0760 N   0  0  0  0  0  0  0  0  0  0  0  0
   37.9730   25.3410   33.6200 C   0  0  0  0  0  0  0  0  0  0  0  0
   38.4520   26.7870   33.3250 C   0  0  2  0  0  0  0  0  0  0  0  0
   37.3460   27.4920   34.1210 C   0  0  0  0  0  0  0  0  0  0  0  0
   37.3020   26.6380   35.3700 C   0  0  0  0  0  0  0  0  0  0  0  0
   38.5280   23.4730   38.1980 C   0  0  0  0  0  0  0  0  0  0  0  0
   37.8780   24.3670   37.3220 C   0  0  0  0  0  0  0  0  0  0  0  0
   38.5010   24.5450   36.0770 C   0  0  0  0  0  0  0  0  0  0  0  0
   39.6560   23.8740   35.7860 N   0  0  0  0  0  0  0  0  0  0  0  0
   40.2240   23.0270   36.6860 C   0  0  0  0  0  0  0  0  0  0  0  0
   39.6600   22.8320   37.8790 N   0  0  0  0  0  0  0  0  0  0  0  0
   38.5240   27.1550   31.9250 C   0  0  0  0  0  0  0  0  0  0  0  0
   37.8220   28.0850   31.6210 O   0  0  0  0  0  0  0  0  0  0  0  0
   39.3820   26.4520   30.9570 C   0  0  2  0  0  0  0  0  0  0  0  0
   40.7720   26.1580   31.5350 C   0  0  0  0  0  0  0  0  0  0  0  0
   41.4670   27.4850   31.4420 C   0  0  0  0  0  0  0  0  0  0  0  0
   40.7830   28.2460   30.3300 C   0  0  0  0  0  0  0  0  0  0  0  0
   39.7490   27.2690   29.7620 C   0  0  2  0  0  0  0  0  0  0  0  0
   38.6860   27.9700   29.0280 C   0  0  0  0  0  0  0  0  0  0  0  0
   39.1500   28.6980   27.7970 C   0  0  0  0  0  0  0  0  0  0  0  0
   38.6723   24.5850   33.2334 H   0  0  0  0  0  0  0  0  0  0  0  0
   37.0169   25.0498   33.1607 H   0  0  0  0  0  0  0  0  0  0  0  0
   39.4921   27.0190   33.5978 H   0  0  0  0  0  0  0  0  0  0  0  0
   37.6155   28.5331   34.3524 H   0  0  0  0  0  0  0  0  0  0  0  0
   36.3853   27.5712   33.5911 H   0  0  0  0  0  0  0  0  0  0  0  0
   36.2577   26.4318   35.6474 H   0  0  0  0  0  0  0  0  0  0  0  0
   37.7846   27.1569   36.2114 H   0  0  0  0  0  0  0  0  0  0  0  0
   38.0849   23.2939   39.1888 H   0  0  0  0  0  0  0  0  0  0  0  0
   36.9485   24.8879   37.5952 H   0  0  0  0  0  0  0  0  0  0  0  0
   41.1543   22.4995   36.4285 H   0  0  0  0  0  0  0  0  0  0  0  0
   38.7774   25.5673   30.7083 H   0  0  0  0  0  0  0  0  0  0  0  0
   40.7020   25.8213   32.5798 H   0  0  0  0  0  0  0  0  0  0  0  0
   41.3010   25.3545   31.0015 H   0  0  0  0  0  0  0  0  0  0  0  0
   41.3723   28.0318   32.3918 H   0  0  0  0  0  0  0  0  0  0  0  0
   42.5408   27.3601   31.2388 H   0  0  0  0  0  0  0  0  0  0  0  0
   40.2891   29.1464   30.7241 H   0  0  0  0  0  0  0  0  0  0  0  0
   41.4943   28.5880   29.5638 H   0  0  0  0  0  0  0  0  0  0  0  0
   40.0977   26.5955   28.9653 H   0  0  0  0  0  0  0  0  0  0  0  0
   37.9324   27.2284   28.7243 H   0  0  0  0  0  0  0  0  0  0  0  0
   38.2882   28.7350   29.7110 H   0  0  0  0  0  0  0  0  0  0  0  0
   39.7195   29.5916   28.0923 H   0  0  0  0  0  0  0  0  0  0  0  0
   39.7924   28.0348   27.1991 H   0  0  0  0  0  0  0  0  0  0  0  0
   38.2776   29.0003   27.1991 H   0  0  0  0  0  0  0  0  0  0  0  0
  1  5  1  0
  1  8  1  0
  2  1  1  0
  3  2  1  0
  3  4  1  0
  4  5  1  0
  7  6  2  0
  8  7  1  0
  9  8  2  0
  9 10  1  0
 10 11  2  0
 11  6  1  0
 12  3  1  0
 13 12  2  0
 14 15  1  0
 14 12  1  0
 16 15  1  0
 17 16  1  0
 18 17  1  0
 18 14  1  0
 19 18  1  0
 20 19  1  0
  2 21  1  0
  2 22  1  0
  3 23  1  1
  4 24  1  0
  4 25  1  0
  5 26  1  0
  5 27  1  0
  6 28  1  0
  7 29  1  0
 10 30  1  0
 14 31  1  6
 15 32  1  0
 15 33  1  0
 16 34  1  0
 16 35  1  0
 17 36  1  0
 17 37  1  0
 18 38  1  6
 19 39  1  0
 19 40  1  0
 20 41  1  0
 20 42  1  0
 20 43  1  0
M  ISO  8  21  13  22  13  23  13  24  13  25  13  26  13  27  13  28  14
M  ISO  8  29  14  30  14  31  13  32  13  33  13  34  13  35  13  36  13
M  ISO  7  37  13  38  13  39   8  40   8  41   8  42   8  43   8
M  END
>  <minimizedAffinity>  (1) 
-4.46117115

>  <minimizedRMSD>  (1) 
0.235538423

$$$$
