
     RDKit          3D

 40 42  0  0  1  0  0  0  0  0999 V2000
   37.9230   25.3530   35.0580 N   0  0  0  0  0  0  0  0  0  0  0  0
   37.8610   25.2770   33.6230 C   0  0  0  0  0  0  0  0  0  0  0  0
   38.3730   26.7030   33.2690 C   0  0  2  0  0  0  0  0  0  0  0  0
   37.3300   27.4670   34.0960 C   0  0  0  0  0  0  0  0  0  0  0  0
   37.2570   26.5960   35.3390 C   0  0  0  0  0  0  0  0  0  0  0  0
   38.5440   23.4980   38.2140 C   0  0  0  0  0  0  0  0  0  0  0  0
   37.8900   24.3600   37.3300 C   0  0  0  0  0  0  0  0  0  0  0  0
   38.4580   24.5190   36.0640 C   0  0  0  0  0  0  0  0  0  0  0  0
   39.6050   23.8330   35.7600 N   0  0  0  0  0  0  0  0  0  0  0  0
   40.1980   23.0050   36.6630 C   0  0  0  0  0  0  0  0  0  0  0  0
   39.6750   22.8430   37.8680 N   0  0  0  0  0  0  0  0  0  0  0  0
   38.3830   27.0240   31.8510 C   0  0  0  0  0  0  0  0  0  0  0  0
   37.6200   27.9060   31.5380 O   0  0  0  0  0  0  0  0  0  0  0  0
   39.2600   26.3250   30.8900 C   0  0  2  0  0  0  0  0  0  0  0  0
   40.6700   26.1420   31.4120 C   0  0  0  0  0  0  0  0  0  0  0  0
   41.2790   27.4990   31.2320 C   0  0  0  0  0  0  0  0  0  0  0  0
   40.5140   28.1790   30.1250 C   0  0  0  0  0  0  0  0  0  0  0  0
   39.4810   27.1570   29.6420 C   0  0  1  0  0  0  0  0  0  0  0  0
   39.9630   26.3390   28.4830 C   0  0  0  0  0  0  0  0  0  0  0  0
   39.4980   25.0650   28.6140 F   0  0  0  0  0  0  0  0  0  0  0  0
   39.3830   26.8560   27.3160 F   0  0  0  0  0  0  0  0  0  0  0  0
   41.3150   26.4130   28.2760 F   0  0  0  0  0  0  0  0  0  0  0  0
   38.5217   24.4930   33.2245 H   0  0  0  0  0  0  0  0  0  0  0  0
   36.8753   25.0170   33.2097 H   0  0  0  0  0  0  0  0  0  0  0  0
   39.4302   26.9119   33.4895 H   0  0  0  0  0  0  0  0  0  0  0  0
   37.6701   28.4855   34.3350 H   0  0  0  0  0  0  0  0  0  0  0  0
   36.3661   27.6157   33.5873 H   0  0  0  0  0  0  0  0  0  0  0  0
   36.2052   26.4044   35.5979 H   0  0  0  0  0  0  0  0  0  0  0  0
   37.7416   27.1029   36.1864 H   0  0  0  0  0  0  0  0  0  0  0  0
   38.1266   23.3479   39.2206 H   0  0  0  0  0  0  0  0  0  0  0  0
   36.9697   24.8893   37.6180 H   0  0  0  0  0  0  0  0  0  0  0  0
   41.1177   22.4671   36.3896 H   0  0  0  0  0  0  0  0  0  0  0  0
   38.7477   25.3689   30.7074 H   0  0  0  0  0  0  0  0  0  0  0  0
   40.6635   25.8498   32.4725 H   0  0  0  0  0  0  0  0  0  0  0  0
   41.2239   25.3474   30.8906 H   0  0  0  0  0  0  0  0  0  0  0  0
   41.1929   28.0788   32.1628 H   0  0  0  0  0  0  0  0  0  0  0  0
   42.3474   27.4211   30.9821 H   0  0  0  0  0  0  0  0  0  0  0  0
   40.0117   29.0810   30.5046 H   0  0  0  0  0  0  0  0  0  0  0  0
   41.1799   28.4976   29.3095 H   0  0  0  0  0  0  0  0  0  0  0  0
   38.5633   27.6181   29.2481 H   0  0  0  0  0  0  0  0  0  0  0  0
  1  5  1  0
  1  8  1  0
  2  1  1  0
  3  2  1  0
  3  4  1  0
  4  5  1  0
  7  6  2  0
  8  7  1  0
  9  8  2  0
  9 10  1  0
 10 11  2  0
 11  6  1  0
 12  3  1  0
 13 12  2  0
 14 15  1  0
 14 12  1  0
 16 15  1  0
 17 16  1  0
 18 17  1  0
 18 14  1  0
 19 20  1  0
 19 18  1  0
 21 19  1  0
 22 19  1  0
  2 23  1  0
  2 24  1  0
  3 25  1  1
  4 26  1  0
  4 27  1  0
  5 28  1  0
  5 29  1  0
  6 30  1  0
  7 31  1  0
 10 32  1  0
 14 33  1  6
 15 34  1  0
 15 35  1  0
 16 36  1  0
 16 37  1  0
 17 38  1  0
 17 39  1  0
 18 40  1  6
M  ISO  8  23  13  24  13  25  13  26  13  27  13  28  13  29  13  30  14
M  ISO  8  31  14  32  14  33  13  34  13  35  13  36  13  37  13  38  13
M  ISO  2  39  13  40  13
M  END
>  <minimizedAffinity>  (1) 
-4.68660927

>  <minimizedRMSD>  (1) 
0.13852936

$$$$
