
     RDKit          3D

 40 42  0  0  1  0  0  0  0  0999 V2000
   37.9280   25.3760   35.1320 N   0  0  0  0  0  0  0  0  0  0  0  0
   37.8900   25.2870   33.6780 C   0  0  0  0  0  0  0  0  0  0  0  0
   38.3820   26.7200   33.3420 C   0  0  2  0  0  0  0  0  0  0  0  0
   37.3320   27.4700   34.1720 C   0  0  0  0  0  0  0  0  0  0  0  0
   37.2500   26.5870   35.4060 C   0  0  0  0  0  0  0  0  0  0  0  0
   38.5380   23.4590   38.2470 C   0  0  0  0  0  0  0  0  0  0  0  0
   37.8930   24.3290   37.3660 C   0  0  0  0  0  0  0  0  0  0  0  0
   38.4790   24.5230   36.1190 C   0  0  0  0  0  0  0  0  0  0  0  0
   39.6370   23.8600   35.8260 N   0  0  0  0  0  0  0  0  0  0  0  0
   40.2340   23.0220   36.7080 C   0  0  0  0  0  0  0  0  0  0  0  0
   39.6800   22.8260   37.9130 N   0  0  0  0  0  0  0  0  0  0  0  0
   38.4040   27.0650   31.9300 C   0  0  0  0  0  0  0  0  0  0  0  0
   37.6760   27.9800   31.6290 O   0  0  0  0  0  0  0  0  0  0  0  0
   39.2540   26.3460   30.9590 C   0  0  2  0  0  0  0  0  0  0  0  0
   40.6950   26.2170   31.4300 C   0  0  0  0  0  0  0  0  0  0  0  0
   41.2570   27.5870   31.1910 C   0  0  0  0  0  0  0  0  0  0  0  0
   40.4430   28.1870   30.0770 C   0  0  0  0  0  0  0  0  0  0  0  0
   39.4180   27.1280   29.6720 C   0  0  1  0  0  0  0  0  0  0  0  0
   39.8650   26.2900   28.5600 C   0  0  0  0  0  0  0  0  0  0  0  0
   40.5670   25.2720   28.6340 O   0  0  0  0  0  0  0  0  0  0  0  0
   39.4520   26.6900   27.3000 O   0  0  0  0  0  0  0  0  0  0  0  0
   38.5719   24.5146   33.2929 H   0  0  0  0  0  0  0  0  0  0  0  0
   36.9201   25.0028   33.2438 H   0  0  0  0  0  0  0  0  0  0  0  0
   39.4371   26.9310   33.5707 H   0  0  0  0  0  0  0  0  0  0  0  0
   37.6680   28.4865   34.4247 H   0  0  0  0  0  0  0  0  0  0  0  0
   36.3711   27.6197   33.6579 H   0  0  0  0  0  0  0  0  0  0  0  0
   36.1967   26.3778   35.6442 H   0  0  0  0  0  0  0  0  0  0  0  0
   37.7124   27.0938   36.2659 H   0  0  0  0  0  0  0  0  0  0  0  0
   38.1018   23.2853   39.2418 H   0  0  0  0  0  0  0  0  0  0  0  0
   36.9600   24.8400   37.6461 H   0  0  0  0  0  0  0  0  0  0  0  0
   41.1669   22.5061   36.4370 H   0  0  0  0  0  0  0  0  0  0  0  0
   38.7476   25.3773   30.8353 H   0  0  0  0  0  0  0  0  0  0  0  0
   40.7392   25.9530   32.4969 H   0  0  0  0  0  0  0  0  0  0  0  0
   41.2509   25.4251   30.9067 H   0  0  0  0  0  0  0  0  0  0  0  0
   41.1683   28.1994   32.1005 H   0  0  0  0  0  0  0  0  0  0  0  0
   42.3241   27.5419   30.9279 H   0  0  0  0  0  0  0  0  0  0  0  0
   39.9324   29.0965   30.4263 H   0  0  0  0  0  0  0  0  0  0  0  0
   41.0799   28.4711   29.2263 H   0  0  0  0  0  0  0  0  0  0  0  0
   38.4799   27.5564   29.2893 H   0  0  0  0  0  0  0  0  0  0  0  0
   38.8897   27.4982   27.1968 H   0  0  0  0  0  0  0  0  0  0  0  0
  1  5  1  0
  1  8  1  0
  2  1  1  0
  3  2  1  0
  3  4  1  0
  4  5  1  0
  7  6  2  0
  8  7  1  0
  9  8  2  0
  9 10  1  0
 10 11  2  0
 11  6  1  0
 12  3  1  0
 13 12  2  0
 14 15  1  0
 14 12  1  0
 16 15  1  0
 17 16  1  0
 18 17  1  0
 18 14  1  0
 19 20  2  0
 19 18  1  0
 21 19  1  0
  2 22  1  0
  2 23  1  0
  3 24  1  1
  4 25  1  0
  4 26  1  0
  5 27  1  0
  5 28  1  0
  6 29  1  0
  7 30  1  0
 10 31  1  0
 14 32  1  6
 15 33  1  0
 15 34  1  0
 16 35  1  0
 16 36  1  0
 17 37  1  0
 17 38  1  0
 18 39  1  6
 21 40  1  0
M  ISO  8  22  13  23  13  24  13  25  13  26  13  27  13  28  13  29  14
M  ISO  8  30  14  31  14  32  13  33  13  34  13  35  13  36  13  37  13
M  ISO  3  38  13  39  13  40   3
M  END
>  <minimizedAffinity>  (1) 
-4.6835084

>  <minimizedRMSD>  (1) 
0.0841669515

$$$$
