
     RDKit          3D

 44 47  0  0  1  0  0  0  0  0999 V2000
   37.9580   25.3710   35.0620 N   0  0  0  0  0  0  0  0  0  0  0  0
   37.9350   25.2690   33.6080 C   0  0  0  0  0  0  0  0  0  0  0  0
   38.4130   26.7080   33.2760 C   0  0  2  0  0  0  0  0  0  0  0  0
   37.3170   27.4350   34.0690 C   0  0  0  0  0  0  0  0  0  0  0  0
   37.2850   26.6100   35.3400 C   0  0  0  0  0  0  0  0  0  0  0  0
   38.5160   23.5000   38.2170 C   0  0  0  0  0  0  0  0  0  0  0  0
   37.8770   24.3700   37.3290 C   0  0  0  0  0  0  0  0  0  0  0  0
   38.4830   24.5260   36.0760 C   0  0  0  0  0  0  0  0  0  0  0  0
   39.6320   23.8450   35.7850 N   0  0  0  0  0  0  0  0  0  0  0  0
   40.1970   23.0130   36.7010 C   0  0  0  0  0  0  0  0  0  0  0  0
   39.6450   22.8440   37.9020 N   0  0  0  0  0  0  0  0  0  0  0  0
   38.4730   27.0450   31.8670 C   0  0  0  0  0  0  0  0  0  0  0  0
   37.7220   27.9350   31.5450 O   0  0  0  0  0  0  0  0  0  0  0  0
   39.3790   26.3540   30.9240 C   0  0  2  0  0  0  0  0  0  0  0  0
   40.7780   26.2250   31.4870 C   0  0  0  0  0  0  0  0  0  0  0  0
   41.3690   27.5740   31.2900 C   0  0  0  0  0  0  0  0  0  0  0  0
   40.6060   28.2180   30.1560 C   0  0  0  0  0  0  0  0  0  0  0  0
   39.5980   27.2030   29.6870 C   0  0  1  0  0  0  0  0  0  0  0  0
   39.8990   26.4900   28.4430 C   0  0  0  0  0  0  0  0  0  0  0  0
   41.1810   26.5020   27.7390 C   0  0  0  0  0  0  0  0  0  0  0  0
   39.9090   27.0850   27.0840 C   0  0  0  0  0  0  0  0  0  0  0  0
   38.6307   24.5034   33.2341 H   0  0  0  0  0  0  0  0  0  0  0  0
   36.9755   24.9670   33.1629 H   0  0  0  0  0  0  0  0  0  0  0  0
   39.4563   26.9435   33.5330 H   0  0  0  0  0  0  0  0  0  0  0  0
   37.5917   28.4805   34.2727 H   0  0  0  0  0  0  0  0  0  0  0  0
   36.3504   27.5040   33.5485 H   0  0  0  0  0  0  0  0  0  0  0  0
   36.2437   26.4147   35.6359 H   0  0  0  0  0  0  0  0  0  0  0  0
   37.7790   27.1452   36.1644 H   0  0  0  0  0  0  0  0  0  0  0  0
   38.0767   23.3464   39.2137 H   0  0  0  0  0  0  0  0  0  0  0  0
   36.9522   24.9011   37.5985 H   0  0  0  0  0  0  0  0  0  0  0  0
   41.1211   22.4730   36.4471 H   0  0  0  0  0  0  0  0  0  0  0  0
   38.9075   25.3805   30.7238 H   0  0  0  0  0  0  0  0  0  0  0  0
   40.7474   25.9634   32.5550 H   0  0  0  0  0  0  0  0  0  0  0  0
   41.3607   25.4312   30.9968 H   0  0  0  0  0  0  0  0  0  0  0  0
   41.2630   28.1724   32.2069 H   0  0  0  0  0  0  0  0  0  0  0  0
   42.4423   27.5070   31.0584 H   0  0  0  0  0  0  0  0  0  0  0  0
   40.0949   29.1257   30.5093 H   0  0  0  0  0  0  0  0  0  0  0  0
   41.2816   28.5136   29.3398 H   0  0  0  0  0  0  0  0  0  0  0  0
   38.6699   27.6760   29.3335 H   0  0  0  0  0  0  0  0  0  0  0  0
   39.3026   25.7016   28.9254 H   0  0  0  0  0  0  0  0  0  0  0  0
   41.9879   27.1716   28.0716 H   0  0  0  0  0  0  0  0  0  0  0  0
   41.9290   25.7451   27.4606 H   0  0  0  0  0  0  0  0  0  0  0  0
   39.7995   28.1715   26.9517 H   0  0  0  0  0  0  0  0  0  0  0  0
   39.3575   26.9240   26.1459 H   0  0  0  0  0  0  0  0  0  0  0  0
  1  5  1  0
  1  8  1  0
  2  1  1  0
  3  2  1  0
  3  4  1  0
  4  5  1  0
  7  6  2  0
  8  7  1  0
  9  8  2  0
  9 10  1  0
 10 11  2  0
 11  6  1  0
 12  3  1  0
 13 12  2  0
 14 15  1  0
 14 12  1  0
 16 15  1  0
 17 16  1  0
 18 17  1  0
 18 14  1  0
 19 18  1  0
 20 19  1  0
 21 20  1  0
 21 19  1  0
  2 22  1  0
  2 23  1  0
  3 24  1  1
  4 25  1  0
  4 26  1  0
  5 27  1  0
  5 28  1  0
  6 29  1  0
  7 30  1  0
 10 31  1  0
 14 32  1  6
 15 33  1  0
 15 34  1  0
 16 35  1  0
 16 36  1  0
 17 37  1  0
 17 38  1  0
 18 39  1  6
 19 40  1  0
 20 41  1  0
 20 42  1  0
 21 43  1  0
 21 44  1  0
M  ISO  8  22  13  23  13  24  13  25  13  26  13  27  13  28  13  29  14
M  ISO  8  30  14  31  14  32  13  33  13  34  13  35  13  36  13  37  13
M  ISO  7  38  13  39  13  40  13  41  13  42  13  43  13  44  13
M  END
>  <minimizedAffinity>  (1) 
-4.56907654

>  <minimizedRMSD>  (1) 
0.315588564

$$$$
