
     RDKit          3D

 33 36  0  0  0  0  0  0  0  0999 V2000
   38.4870   25.7900   35.5890 C   0  0  0  0  0  0  0  0  0  0  0  0
   38.3820   27.0050   36.2340 C   0  0  0  0  0  0  0  0  0  0  0  0
   37.8730   27.8900   35.3010 C   0  0  0  0  0  0  0  0  0  0  0  0
   37.6890   27.1970   34.1440 C   0  0  0  0  0  0  0  0  0  0  0  0
   38.0660   25.9880   34.3880 O   0  0  0  0  0  0  0  0  0  0  0  0
   37.1550   27.9100   32.9930 C   0  0  0  0  0  0  0  0  0  0  0  0
   37.6870   27.8290   31.7170 C   0  0  0  0  0  0  0  0  0  0  0  0
   37.1960   28.4940   30.6210 C   0  0  0  0  0  0  0  0  0  0  0  0
   36.0990   29.3100   30.7500 C   0  0  0  0  0  0  0  0  0  0  0  0
   35.5210   29.4350   31.9940 C   0  0  0  0  0  0  0  0  0  0  0  0
   34.4250   30.2570   32.0940 C   0  0  0  0  0  0  0  0  0  0  0  0
   33.7940   30.4310   33.3070 C   0  0  0  0  0  0  0  0  0  0  0  0
   34.2960   29.7560   34.4090 C   0  0  0  0  0  0  0  0  0  0  0  0
   35.3960   28.9490   34.2360 C   0  0  0  0  0  0  0  0  0  0  0  0
   36.0640   28.7400   33.0510 C   0  0  0  0  0  0  0  0  0  0  0  0
   38.4650   24.1000   37.4620 C   0  0  0  0  0  0  0  0  0  0  0  0
   38.9910   24.5860   36.2450 C   0  0  0  0  0  0  0  0  0  0  0  0
   40.0430   23.8820   35.6490 C   0  0  0  0  0  0  0  0  0  0  0  0
   40.5090   22.7590   36.2790 N   0  0  0  0  0  0  0  0  0  0  0  0
   39.9660   22.3320   37.4570 C   0  0  0  0  0  0  0  0  0  0  0  0
   38.9540   23.0000   38.0380 N   0  0  0  0  0  0  0  0  0  0  0  0
   38.6489   27.2251   37.2782 H   0  0  0  0  0  0  0  0  0  0  0  0
   37.6569   28.9562   35.4638 H   0  0  0  0  0  0  0  0  0  0  0  0
   38.5668   27.1851   31.5711 H   0  0  0  0  0  0  0  0  0  0  0  0
   37.6806   28.3734   29.6409 H   0  0  0  0  0  0  0  0  0  0  0  0
   35.6923   29.8499   29.8822 H   0  0  0  0  0  0  0  0  0  0  0  0
   34.0491   30.7789   31.2017 H   0  0  0  0  0  0  0  0  0  0  0  0
   32.9161   31.0875   33.3982 H   0  0  0  0  0  0  0  0  0  0  0  0
   33.8259   29.8633   35.3977 H   0  0  0  0  0  0  0  0  0  0  0  0
   35.7761   28.4234   35.1244 H   0  0  0  0  0  0  0  0  0  0  0  0
   37.6361   24.6386   37.9446 H   0  0  0  0  0  0  0  0  0  0  0  0
   40.4838   24.2214   34.7001 H   0  0  0  0  0  0  0  0  0  0  0  0
   40.3632   21.4263   37.9387 H   0  0  0  0  0  0  0  0  0  0  0  0
  1  2  2  0
  1 17  1  0
  3  2  1  0
  4  5  1  0
  4  3  2  0
  5  1  1  0
  6 15  1  0
  6  4  1  0
  7  6  2  0
  8  9  2  0
  8  7  1  0
  9 10  1  0
 10 11  1  0
 10 15  2  0
 11 12  2  0
 12 13  1  0
 14 13  2  0
 15 14  1  0
 16 21  2  0
 17 16  1  0
 18 17  2  0
 18 19  1  0
 19 20  2  0
 20 21  1  0
  2 22  1  0
  3 23  1  0
  7 24  1  0
  8 25  1  0
  9 26  1  0
 11 27  1  0
 12 28  1  0
 13 29  1  0
 14 30  1  0
 16 31  1  0
 18 32  1  0
 20 33  1  0
M  ISO  8  22  14  23  14  24  14  25  14  26  14  27  14  28  14  29  14
M  ISO  4  30  14  31  14  32  14  33  14
M  END
>  <minimizedAffinity>  (1) 
-5.67119551

>  <minimizedRMSD>  (1) 
1.01337051

$$$$
