
     RDKit          3D

 17 18  0  0  0  0  0  0  0  0999 V2000
   38.1440   24.3250   37.6080 C   0  0  0  0  0  0  0  0  0  0  0  0
   38.6360   24.6810   36.3420 C   0  0  0  0  0  0  0  0  0  0  0  0
   39.7410   23.9860   35.8460 C   0  0  0  0  0  0  0  0  0  0  0  0
   40.2890   22.9900   36.6180 N   0  0  0  0  0  0  0  0  0  0  0  0
   39.7810   22.6810   37.8350 C   0  0  0  0  0  0  0  0  0  0  0  0
   38.7080   23.3510   38.3250 N   0  0  0  0  0  0  0  0  0  0  0  0
   38.0450   25.7410   35.5270 C   0  0  0  0  0  0  0  0  0  0  0  0
   38.0950   27.0810   35.9120 C   0  0  0  0  0  0  0  0  0  0  0  0
   37.4500   27.8090   34.9250 C   0  0  0  0  0  0  0  0  0  0  0  0
   37.0460   26.8840   34.0020 C   0  0  0  0  0  0  0  0  0  0  0  0
   37.4090   25.6770   34.3810 O   0  0  0  0  0  0  0  0  0  0  0  0
   37.2749   24.8605   38.0176 H   0  0  0  0  0  0  0  0  0  0  0  0
   40.1631   24.2302   34.8600 H   0  0  0  0  0  0  0  0  0  0  0  0
   40.2424   21.8799   38.4311 H   0  0  0  0  0  0  0  0  0  0  0  0
   38.5582   27.4831   36.8251 H   0  0  0  0  0  0  0  0  0  0  0  0
   37.2959   28.8976   34.8911 H   0  0  0  0  0  0  0  0  0  0  0  0
   36.4973   27.1153   33.0771 H   0  0  0  0  0  0  0  0  0  0  0  0
  1  6  2  0
  2  1  1  0
  3  2  2  0
  3  4  1  0
  4  5  2  0
  5  6  1  0
  7  8  2  0
  7  2  1  0
  9  8  1  0
 10 11  1  0
 10  9  2  0
 11  7  1  0
  1 12  1  0
  3 13  1  0
  5 14  1  0
  8 15  1  0
  9 16  1  0
 10 17  1  0
M  ISO  6  12  14  13  14  14  14  15  14  16  14  17  14
M  END
>  <minimizedAffinity>  (1) 
-3.6240375

>  <minimizedRMSD>  (1) 
4.82540989

$$$$
