
     RDKit          3D

 43 46  0  0  1  0  0  0  0  0999 V2000
   37.8030   23.2060   32.6440 C   0  0  1  0  0  0  0  0  0  0  0  0
   38.1040   22.0450   31.7440 C   0  0  0  0  0  0  0  0  0  0  0  0
   36.7410   21.5390   31.3830 C   0  0  0  0  0  0  0  0  0  0  0  0
   35.9270   22.7960   31.1890 C   0  0  0  0  0  0  0  0  0  0  0  0
   36.5380   23.8050   32.0820 C   0  0  2  0  0  0  0  0  0  0  0  0
   36.7690   25.1140   31.5460 N   0  0  0  0  0  0  0  0  0  0  0  0
   37.9950   25.7210   31.5380 C   0  0  0  0  0  0  0  0  0  0  0  0
   38.2470   26.9800   31.0290 C   0  0  0  0  0  0  0  0  0  0  0  0
   39.6560   27.5090   31.0960 C   0  0  0  0  0  0  0  0  0  0  0  0
   37.1960   27.6900   30.4840 C   0  0  0  0  0  0  0  0  0  0  0  0
   37.5150   28.8260   30.0450 O   0  0  0  0  0  0  0  0  0  0  0  0
   35.9860   27.1000   30.4880 N   0  0  0  0  0  0  0  0  0  0  0  0
   35.8230   25.8760   31.0010 C   0  0  0  0  0  0  0  0  0  0  0  0
   34.6450   25.4650   30.9310 O   0  0  0  0  0  0  0  0  0  0  0  0
   38.0730   23.4600   35.0850 C   0  0  0  0  0  0  0  0  0  0  0  0
   37.7720   22.7670   36.2580 C   0  0  0  0  0  0  0  0  0  0  0  0
   37.1470   21.6250   35.8330 N   0  0  0  0  0  0  0  0  0  0  0  0
   37.1070   21.6890   34.4920 C   0  0  0  0  0  0  0  0  0  0  0  0
   37.6660   22.8010   34.0090 N   0  0  0  0  0  0  0  0  0  0  0  0
   38.7560   24.7590   35.0220 C   0  0  0  0  0  0  0  0  0  0  0  0
   38.0230   25.9320   35.2470 C   0  0  0  0  0  0  0  0  0  0  0  0
   38.7730   27.1350   35.1650 C   0  0  0  0  0  0  0  0  0  0  0  0
   40.0860   27.0930   34.8880 N   0  0  0  0  0  0  0  0  0  0  0  0
   40.7340   25.9420   34.6830 C   0  0  0  0  0  0  0  0  0  0  0  0
   40.0930   24.7520   34.7430 N   0  0  0  0  0  0  0  0  0  0  0  0
   38.6206   23.9417   32.6646 H   0  0  0  0  0  0  0  0  0  0  0  0
   38.6551   22.3703   30.8493 H   0  0  0  0  0  0  0  0  0  0  0  0
   38.7393   21.2819   32.2173 H   0  0  0  0  0  0  0  0  0  0  0  0
   36.7757   20.9481   30.4558 H   0  0  0  0  0  0  0  0  0  0  0  0
   36.3183   20.8739   32.1504 H   0  0  0  0  0  0  0  0  0  0  0  0
   35.9775   23.1288   30.1418 H   0  0  0  0  0  0  0  0  0  0  0  0
   34.8645   22.6341   31.4232 H   0  0  0  0  0  0  0  0  0  0  0  0
   35.7865   24.0173   32.8567 H   0  0  0  0  0  0  0  0  0  0  0  0
   38.8417   25.1660   31.9682 H   0  0  0  0  0  0  0  0  0  0  0  0
   39.9557   27.6215   32.1484 H   0  0  0  0  0  0  0  0  0  0  0  0
   40.3362   26.8050   30.5943 H   0  0  0  0  0  0  0  0  0  0  0  0
   39.7048   28.4867   30.5943 H   0  0  0  0  0  0  0  0  0  0  0  0
   35.1761   27.5974   30.0911 H   0  0  0  0  0  0  0  0  0  0  0  0
   37.9884   23.0702   37.2930 H   0  0  0  0  0  0  0  0  0  0  0  0
   36.6609   20.9079   33.8588 H   0  0  0  0  0  0  0  0  0  0  0  0
   36.9460   25.9216   35.4707 H   0  0  0  0  0  0  0  0  0  0  0  0
   38.2772   28.1032   35.3288 H   0  0  0  0  0  0  0  0  0  0  0  0
   41.8111   25.9627   34.4608 H   0  0  0  0  0  0  0  0  0  0  0  0
  1 19  1  0
  2  1  1  0
  3  2  1  0
  4  3  1  0
  4  5  1  0
  5  1  1  0
  6  5  1  0
  7  6  1  0
  8  9  1  0
  8  7  2  0
 10 12  1  0
 10  8  1  0
 11 10  2  0
 12 13  1  0
 13  6  1  0
 14 13  2  0
 15 16  2  0
 17 16  1  0
 18 17  2  0
 19 18  1  0
 19 15  1  0
 20 15  1  0
 20 21  2  0
 22 21  1  0
 23 22  2  0
 24 25  2  0
 24 23  1  0
 25 20  1  0
  1 26  1  1
  2 27  1  0
  2 28  1  0
  3 29  1  0
  3 30  1  0
  4 31  1  0
  4 32  1  0
  5 33  1  1
  7 34  1  0
  9 35  1  0
  9 36  1  0
  9 37  1  0
 12 38  1  0
 16 39  1  0
 18 40  1  0
 21 41  1  0
 22 42  1  0
 24 43  1  0
M  ISO  8  26  13  27  13  28  13  29  13  30  13  31  13  32  13  33  13
M  ISO  8  34  14  35   8  36   8  37   8  38   9  39  14  40  14  41  14
M  ISO  2  42  14  43  14
M  END
>  <minimizedAffinity>  (1) 
-5.75762129

>  <minimizedRMSD>  (1) 
6.33837652

$$$$
