
     RDKit          3D

 30 32  0  0  0  0  0  0  0  0999 V2000
   38.2030   25.7470   34.9810 C   0  0  0  0  0  0  0  0  0  0  0  0
   37.4570   26.8700   35.3790 C   0  0  0  0  0  0  0  0  0  0  0  0
   37.2220   27.5860   34.2070 C   0  0  0  0  0  0  0  0  0  0  0  0
   37.8170   26.8860   33.2040 C   0  0  0  0  0  0  0  0  0  0  0  0
   38.3930   25.7990   33.6770 O   0  0  0  0  0  0  0  0  0  0  0  0
   37.7420   27.3850   31.8720 N   0  0  0  0  0  0  0  0  0  0  0  0
   38.8330   27.9010   31.2910 C   0  0  0  0  0  0  0  0  0  0  0  0
   38.8630   28.4100   30.0080 C   0  0  0  0  0  0  0  0  0  0  0  0
   40.1340   28.9720   29.4300 C   0  0  0  0  0  0  0  0  0  0  0  0
   37.6890   28.3820   29.2790 C   0  0  0  0  0  0  0  0  0  0  0  0
   37.7260   28.8480   28.1070 O   0  0  0  0  0  0  0  0  0  0  0  0
   36.5970   27.8630   29.8630 N   0  0  0  0  0  0  0  0  0  0  0  0
   36.6210   27.3780   31.1280 C   0  0  0  0  0  0  0  0  0  0  0  0
   35.5670   26.9040   31.6250 O   0  0  0  0  0  0  0  0  0  0  0  0
   37.9890   24.5400   37.1890 C   0  0  0  0  0  0  0  0  0  0  0  0
   38.6420   24.7480   35.9530 C   0  0  0  0  0  0  0  0  0  0  0  0
   39.7530   23.9570   35.6600 C   0  0  0  0  0  0  0  0  0  0  0  0
   40.1600   23.0210   36.5750 N   0  0  0  0  0  0  0  0  0  0  0  0
   39.5030   22.8570   37.7460 C   0  0  0  0  0  0  0  0  0  0  0  0
   38.4200   23.6160   38.0520 N   0  0  0  0  0  0  0  0  0  0  0  0
   37.1292   27.1280   36.3968 H   0  0  0  0  0  0  0  0  0  0  0  0
   36.6656   28.5301   34.1118 H   0  0  0  0  0  0  0  0  0  0  0  0
   39.7656   27.9205   31.8739 H   0  0  0  0  0  0  0  0  0  0  0  0
   40.8079   29.2700   30.2468 H   0  0  0  0  0  0  0  0  0  0  0  0
   40.6247   28.2070   28.8104 H   0  0  0  0  0  0  0  0  0  0  0  0
   39.8983   29.8498   28.8104 H   0  0  0  0  0  0  0  0  0  0  0  0
   35.7142   27.8326   29.3333 H   0  0  0  0  0  0  0  0  0  0  0  0
   37.1101   25.1499   37.4449 H   0  0  0  0  0  0  0  0  0  0  0  0
   40.2936   24.0823   34.7103 H   0  0  0  0  0  0  0  0  0  0  0  0
   39.8516   22.0972   38.4610 H   0  0  0  0  0  0  0  0  0  0  0  0
  1  2  2  0
  1 16  1  0
  3  2  1  0
  4  5  1  0
  4  3  2  0
  5  1  1  0
  6  4  1  0
  7  6  1  0
  8  7  2  0
  9  8  1  0
 10 12  1  0
 10  8  1  0
 11 10  2  0
 12 13  1  0
 13 14  2  0
 13  6  1  0
 15 20  2  0
 16 15  1  0
 17 16  2  0
 17 18  1  0
 18 19  2  0
 19 20  1  0
  2 21  1  0
  3 22  1  0
  7 23  1  0
  9 24  1  0
  9 25  1  0
  9 26  1  0
 12 27  1  0
 15 28  1  0
 17 29  1  0
 19 30  1  0
M  ISO  8  21  14  22  14  23  14  24   8  25   8  26   8  27   9  28  14
M  ISO  2  29  14  30  14
M  END
>  <minimizedAffinity>  (1) 
-5.21225309

>  <minimizedRMSD>  (1) 
2.27229357

$$$$
