
     RDKit          3D

 30 33  0  0  0  0  0  0  0  0999 V2000
   38.1950   25.8170   35.5720 C   0  0  0  0  0  0  0  0  0  0  0  0
   38.4420   27.0440   36.2090 C   0  0  0  0  0  0  0  0  0  0  0  0
   37.7980   28.0140   35.4620 C   0  0  0  0  0  0  0  0  0  0  0  0
   37.1990   27.3390   34.4220 C   0  0  0  0  0  0  0  0  0  0  0  0
   37.4510   26.0470   34.5140 O   0  0  0  0  0  0  0  0  0  0  0  0
   38.4170   24.0730   37.3770 C   0  0  0  0  0  0  0  0  0  0  0  0
   38.7340   24.5750   36.1000 C   0  0  0  0  0  0  0  0  0  0  0  0
   39.6160   23.8330   35.2980 C   0  0  0  0  0  0  0  0  0  0  0  0
   40.1140   22.6570   35.8190 N   0  0  0  0  0  0  0  0  0  0  0  0
   39.7800   22.2180   37.0480 C   0  0  0  0  0  0  0  0  0  0  0  0
   38.9350   22.9250   37.8220 N   0  0  0  0  0  0  0  0  0  0  0  0
   36.4410   28.0490   33.4500 N   0  0  0  0  0  0  0  0  0  0  0  0
   36.3780   27.7960   32.1110 C   0  0  0  0  0  0  0  0  0  0  0  0
   35.5630   28.6660   31.4880 N   0  0  0  0  0  0  0  0  0  0  0  0
   35.0850   29.4940   32.4080 C   0  0  0  0  0  0  0  0  0  0  0  0
   34.2120   30.5500   32.2430 C   0  0  0  0  0  0  0  0  0  0  0  0
   33.8890   31.2360   33.3730 N   0  0  0  0  0  0  0  0  0  0  0  0
   34.4240   30.8600   34.5690 C   0  0  0  0  0  0  0  0  0  0  0  0
   35.2810   29.8150   34.6960 N   0  0  0  0  0  0  0  0  0  0  0  0
   35.6290   29.1110   33.6190 C   0  0  0  0  0  0  0  0  0  0  0  0
   33.6850   30.8960   30.9690 N   0  0  0  0  0  0  0  0  0  0  0  0
   39.0324   27.2028   37.1235 H   0  0  0  0  0  0  0  0  0  0  0  0
   37.7703   29.0961   35.6575 H   0  0  0  0  0  0  0  0  0  0  0  0
   37.7281   24.6384   38.0218 H   0  0  0  0  0  0  0  0  0  0  0  0
   39.8991   24.1767   34.2921 H   0  0  0  0  0  0  0  0  0  0  0  0
   40.2014   21.2735   37.4226 H   0  0  0  0  0  0  0  0  0  0  0  0
   36.9233   26.9851   31.6059 H   0  0  0  0  0  0  0  0  0  0  0  0
   34.1494   31.4279   35.4702 H   0  0  0  0  0  0  0  0  0  0  0  0
   33.0352   31.6901   30.8788 H   0  0  0  0  0  0  0  0  0  0  0  0
   33.9529   30.3526   30.1360 H   0  0  0  0  0  0  0  0  0  0  0  0
  1  7  1  0
  1  2  2  0
  3  2  1  0
  4  5  1  0
  4  3  2  0
  5  1  1  0
  6 11  2  0
  7  6  1  0
  8  9  1  0
  8  7  2  0
  9 10  2  0
 10 11  1  0
 12 20  1  0
 12  4  1  0
 13 12  1  0
 14 13  2  0
 14 15  1  0
 15 20  2  0
 16 15  1  0
 16 17  2  0
 17 18  1  0
 18 19  2  0
 20 19  1  0
 21 16  1  0
  2 22  1  0
  3 23  1  0
  6 24  1  0
  8 25  1  0
 10 26  1  0
 13 27  1  0
 18 28  1  0
 21 29  1  0
 21 30  1  0
M  ISO  7  22  14  23  14  24  14  25  14  26  14  27  14  28  14
M  END
>  <minimizedAffinity>  (1) 
-5.20055962

>  <minimizedRMSD>  (1) 
1.15055215

$$$$
