
     RDKit          3D

 28 31  0  0  0  0  0  0  0  0999 V2000
   38.3560   25.7440   35.6190 C   0  0  0  0  0  0  0  0  0  0  0  0
   38.4910   26.9960   36.2420 C   0  0  0  0  0  0  0  0  0  0  0  0
   37.8150   27.8960   35.4220 C   0  0  0  0  0  0  0  0  0  0  0  0
   37.3220   27.1490   34.3780 C   0  0  0  0  0  0  0  0  0  0  0  0
   37.6610   25.8960   34.5300 O   0  0  0  0  0  0  0  0  0  0  0  0
   36.5740   27.7960   33.3620 N   0  0  0  0  0  0  0  0  0  0  0  0
   36.6780   27.4100   32.0800 C   0  0  0  0  0  0  0  0  0  0  0  0
   35.8690   28.1830   31.3320 N   0  0  0  0  0  0  0  0  0  0  0  0
   35.2320   29.0800   32.1240 C   0  0  0  0  0  0  0  0  0  0  0  0
   34.3060   30.1080   31.9550 C   0  0  0  0  0  0  0  0  0  0  0  0
   33.9200   30.7800   33.0530 N   0  0  0  0  0  0  0  0  0  0  0  0
   34.3980   30.4840   34.2700 C   0  0  0  0  0  0  0  0  0  0  0  0
   35.2970   29.5010   34.5020 N   0  0  0  0  0  0  0  0  0  0  0  0
   35.7050   28.8060   33.4100 C   0  0  0  0  0  0  0  0  0  0  0  0
   38.5130   23.9780   37.4180 C   0  0  0  0  0  0  0  0  0  0  0  0
   38.9560   24.5490   36.2160 C   0  0  0  0  0  0  0  0  0  0  0  0
   40.0340   23.9360   35.5520 C   0  0  0  0  0  0  0  0  0  0  0  0
   40.6070   22.8170   36.0970 N   0  0  0  0  0  0  0  0  0  0  0  0
   40.1360   22.3030   37.2710 C   0  0  0  0  0  0  0  0  0  0  0  0
   39.1020   22.8830   37.9140 N   0  0  0  0  0  0  0  0  0  0  0  0
   39.0197   27.2186   37.1806 H   0  0  0  0  0  0  0  0  0  0  0  0
   37.6995   28.9789   35.5771 H   0  0  0  0  0  0  0  0  0  0  0  0
   37.3175   26.5978   31.7040 H   0  0  0  0  0  0  0  0  0  0  0  0
   33.9066   30.3595   30.9614 H   0  0  0  0  0  0  0  0  0  0  0  0
   34.0392   31.0731   35.1268 H   0  0  0  0  0  0  0  0  0  0  0  0
   37.6717   24.4353   37.9595 H   0  0  0  0  0  0  0  0  0  0  0  0
   40.4127   24.3503   34.6060 H   0  0  0  0  0  0  0  0  0  0  0  0
   40.6058   21.4046   37.6977 H   0  0  0  0  0  0  0  0  0  0  0  0
  1 16  1  0
  1  2  2  0
  3  2  1  0
  4  5  1  0
  4  3  2  0
  5  1  1  0
  6 14  1  0
  6  4  1  0
  7  6  1  0
  8  7  2  0
  8  9  1  0
  9 14  2  0
 10  9  1  0
 10 11  2  0
 11 12  1  0
 12 13  2  0
 14 13  1  0
 15 20  2  0
 16 15  1  0
 17 18  1  0
 17 16  2  0
 18 19  2  0
 19 20  1  0
  2 21  1  0
  3 22  1  0
  7 23  1  0
 10 24  1  0
 12 25  1  0
 15 26  1  0
 17 27  1  0
 19 28  1  0
M  ISO  8  21  14  22  14  23  14  24  14  25  14  26  14  27  14  28  14
M  END
>  <minimizedAffinity>  (1) 
-5.04788542

>  <minimizedRMSD>  (1) 
0.927141786

$$$$
