
     RDKit          3D

 24 26  0  0  0  0  0  0  0  0999 V2000
   38.4060   25.5410   35.6070 C   0  0  0  0  0  0  0  0  0  0  0  0
   38.2510   26.8160   36.1390 C   0  0  0  0  0  0  0  0  0  0  0  0
   37.6430   27.6010   35.1780 C   0  0  0  0  0  0  0  0  0  0  0  0
   37.4560   26.7760   34.1100 C   0  0  0  0  0  0  0  0  0  0  0  0
   37.9150   25.5640   34.3860 O   0  0  0  0  0  0  0  0  0  0  0  0
   38.5560   24.0150   37.5930 C   0  0  0  0  0  0  0  0  0  0  0  0
   39.0180   24.4520   36.3550 C   0  0  0  0  0  0  0  0  0  0  0  0
   40.1250   23.8060   35.8110 C   0  0  0  0  0  0  0  0  0  0  0  0
   40.7040   22.7750   36.5180 N   0  0  0  0  0  0  0  0  0  0  0  0
   40.2150   22.3920   37.7140 C   0  0  0  0  0  0  0  0  0  0  0  0
   39.1350   23.0170   38.2530 N   0  0  0  0  0  0  0  0  0  0  0  0
   36.8570   27.0430   32.7980 C   0  0  0  0  0  0  0  0  0  0  0  0
   36.8930   28.3220   32.2280 C   0  0  0  0  0  0  0  0  0  0  0  0
   36.2510   28.2330   31.0100 C   0  0  0  0  0  0  0  0  0  0  0  0
   35.8550   26.9190   30.8900 C   0  0  0  0  0  0  0  0  0  0  0  0
   36.2260   26.2620   31.9500 O   0  0  0  0  0  0  0  0  0  0  0  0
   38.5573   27.1414   37.1441 H   0  0  0  0  0  0  0  0  0  0  0  0
   37.3690   28.6633   35.2580 H   0  0  0  0  0  0  0  0  0  0  0  0
   37.6826   24.5121   38.0402 H   0  0  0  0  0  0  0  0  0  0  0  0
   40.5296   24.1130   34.8353 H   0  0  0  0  0  0  0  0  0  0  0  0
   40.6945   21.5657   38.2592 H   0  0  0  0  0  0  0  0  0  0  0  0
   37.3457   29.2234   32.6668 H   0  0  0  0  0  0  0  0  0  0  0  0
   36.0888   29.0438   30.2846 H   0  0  0  0  0  0  0  0  0  0  0  0
   35.3114   26.4929   30.0339 H   0  0  0  0  0  0  0  0  0  0  0  0
  1  2  2  0
  1  7  1  0
  3  2  1  0
  4  5  1  0
  4  3  2  0
  5  1  1  0
  6 11  2  0
  7  6  1  0
  8  7  2  0
  8  9  1  0
  9 10  2  0
 10 11  1  0
 12  4  1  0
 13 12  2  0
 14 13  1  0
 15 14  2  0
 15 16  1  0
 16 12  1  0
  2 17  1  0
  3 18  1  0
  6 19  1  0
  8 20  1  0
 10 21  1  0
 13 22  1  0
 14 23  1  0
 15 24  1  0
M  ISO  8  17  14  18  14  19  14  20  14  21  14  22  14  23  14  24  14
M  END
>  <minimizedAffinity>  (1) 
-4.46658993

>  <minimizedRMSD>  (1) 
0.535382152

$$$$
