
     RDKit          3D

 35 38  0  0  0  0  0  0  0  0999 V2000
   37.2130   27.7640   33.0110 C   0  0  0  0  0  0  0  0  0  0  0  0
   35.9610   28.3280   32.9570 C   0  0  0  0  0  0  0  0  0  0  0  0
   35.4750   28.9060   31.8020 C   0  0  0  0  0  0  0  0  0  0  0  0
   36.2430   28.9170   30.7080 N   0  0  0  0  0  0  0  0  0  0  0  0
   37.4800   28.3580   30.7670 C   0  0  0  0  0  0  0  0  0  0  0  0
   37.9800   27.7870   31.8850 N   0  0  0  0  0  0  0  0  0  0  0  0
   38.2950   28.3860   29.5580 C   0  0  0  0  0  0  0  0  0  0  0  0
   38.2170   29.4400   28.6750 C   0  0  0  0  0  0  0  0  0  0  0  0
   38.9240   29.5730   27.5230 C   0  0  0  0  0  0  0  0  0  0  0  0
   39.8010   28.5360   27.2280 C   0  0  0  0  0  0  0  0  0  0  0  0
   39.9070   27.4610   28.0910 C   0  0  0  0  0  0  0  0  0  0  0  0
   39.1620   27.3650   29.2630 C   0  0  0  0  0  0  0  0  0  0  0  0
   38.5850   25.6680   35.5440 C   0  0  0  0  0  0  0  0  0  0  0  0
   38.3390   26.8170   36.3160 C   0  0  0  0  0  0  0  0  0  0  0  0
   37.7830   27.7650   35.4450 C   0  0  0  0  0  0  0  0  0  0  0  0
   37.7260   27.1540   34.2320 C   0  0  0  0  0  0  0  0  0  0  0  0
   38.1990   25.9320   34.3170 O   0  0  0  0  0  0  0  0  0  0  0  0
   38.6680   23.8630   37.2870 C   0  0  0  0  0  0  0  0  0  0  0  0
   39.1660   24.4770   36.1330 C   0  0  0  0  0  0  0  0  0  0  0  0
   40.2770   23.9110   35.5250 C   0  0  0  0  0  0  0  0  0  0  0  0
   40.8380   22.7800   36.0750 N   0  0  0  0  0  0  0  0  0  0  0  0
   40.3120   22.2250   37.1970 C   0  0  0  0  0  0  0  0  0  0  0  0
   39.2410   22.7660   37.7890 N   0  0  0  0  0  0  0  0  0  0  0  0
   35.3298   28.3185   33.8579 H   0  0  0  0  0  0  0  0  0  0  0  0
   34.4695   29.3515   31.7819 H   0  0  0  0  0  0  0  0  0  0  0  0
   37.5165   30.2500   28.9263 H   0  0  0  0  0  0  0  0  0  0  0  0
   38.8096   30.4468   26.8647 H   0  0  0  0  0  0  0  0  0  0  0  0
   40.4084   28.5704   26.3115 H   0  0  0  0  0  0  0  0  0  0  0  0
   40.6072   26.6501   27.8418 H   0  0  0  0  0  0  0  0  0  0  0  0
   39.2654   26.4976   29.9315 H   0  0  0  0  0  0  0  0  0  0  0  0
   38.5422   26.9465   37.3893 H   0  0  0  0  0  0  0  0  0  0  0  0
   37.4609   28.7875   35.6914 H   0  0  0  0  0  0  0  0  0  0  0  0
   37.7886   24.2914   37.7901 H   0  0  0  0  0  0  0  0  0  0  0  0
   40.7041   24.3595   34.6159 H   0  0  0  0  0  0  0  0  0  0  0  0
   40.7712   21.3211   37.6238 H   0  0  0  0  0  0  0  0  0  0  0  0
  1 16  1  0
  2  1  2  0
  3  2  1  0
  4  5  1  0
  4  3  2  0
  5  6  2  0
  6  1  1  0
  7  5  1  0
  8  7  2  0
  9  8  1  0
 10  9  2  0
 10 11  1  0
 11 12  2  0
 12  7  1  0
 13 19  1  0
 13 14  2  0
 15 14  1  0
 16 17  1  0
 16 15  2  0
 17 13  1  0
 18 23  2  0
 19 18  1  0
 20 21  1  0
 20 19  2  0
 21 22  2  0
 22 23  1  0
  2 24  1  0
  3 25  1  0
  8 26  1  0
  9 27  1  0
 10 28  1  0
 11 29  1  0
 12 30  1  0
 14 31  1  0
 15 32  1  0
 18 33  1  0
 20 34  1  0
 22 35  1  0
M  ISO  8  24  14  25  14  26  14  27  14  28  14  29  14  30  14  31  14
M  ISO  4  32  14  33  14  34  14  35  14
M  END
>  <minimizedAffinity>  (1) 
-5.16292048

>  <minimizedRMSD>  (1) 
1.0736804

$$$$
