
     RDKit          3D

 35 38  0  0  0  0  0  0  0  0999 V2000
   38.5500   25.6690   35.4760 C   0  0  0  0  0  0  0  0  0  0  0  0
   38.3680   26.7920   36.3080 C   0  0  0  0  0  0  0  0  0  0  0  0
   37.7850   27.7780   35.5060 C   0  0  0  0  0  0  0  0  0  0  0  0
   37.6510   27.2130   34.2760 C   0  0  0  0  0  0  0  0  0  0  0  0
   38.1090   25.9790   34.2940 O   0  0  0  0  0  0  0  0  0  0  0  0
   38.6900   23.8190   37.1900 C   0  0  0  0  0  0  0  0  0  0  0  0
   39.1450   24.4450   36.0070 C   0  0  0  0  0  0  0  0  0  0  0  0
   40.2130   23.8900   35.2950 C   0  0  0  0  0  0  0  0  0  0  0  0
   40.7850   22.7330   35.7930 N   0  0  0  0  0  0  0  0  0  0  0  0
   40.3240   22.1590   36.9280 C   0  0  0  0  0  0  0  0  0  0  0  0
   39.3040   22.6950   37.6020 N   0  0  0  0  0  0  0  0  0  0  0  0
   37.0900   27.8710   33.1130 C   0  0  0  0  0  0  0  0  0  0  0  0
   35.8440   28.4410   33.1220 C   0  0  0  0  0  0  0  0  0  0  0  0
   35.2950   29.0760   32.0330 C   0  0  0  0  0  0  0  0  0  0  0  0
   36.0300   29.1320   30.9030 N   0  0  0  0  0  0  0  0  0  0  0  0
   37.2490   28.5730   30.8950 C   0  0  0  0  0  0  0  0  0  0  0  0
   37.8090   27.9460   31.9500 N   0  0  0  0  0  0  0  0  0  0  0  0
   38.0520   28.6380   29.6520 C   0  0  0  0  0  0  0  0  0  0  0  0
   38.9680   27.6450   29.3620 C   0  0  0  0  0  0  0  0  0  0  0  0
   39.7190   27.7000   28.2050 C   0  0  0  0  0  0  0  0  0  0  0  0
   39.5850   28.7350   27.3040 C   0  0  0  0  0  0  0  0  0  0  0  0
   38.6690   29.7260   27.5950 C   0  0  0  0  0  0  0  0  0  0  0  0
   37.9120   29.6840   28.7480 C   0  0  0  0  0  0  0  0  0  0  0  0
   38.6313   26.8758   37.3727 H   0  0  0  0  0  0  0  0  0  0  0  0
   37.4958   28.7959   35.8064 H   0  0  0  0  0  0  0  0  0  0  0  0
   37.8511   24.2422   37.7620 H   0  0  0  0  0  0  0  0  0  0  0  0
   40.5853   24.3571   34.3713 H   0  0  0  0  0  0  0  0  0  0  0  0
   40.7961   21.2380   37.3006 H   0  0  0  0  0  0  0  0  0  0  0  0
   35.2526   28.3879   34.0480 H   0  0  0  0  0  0  0  0  0  0  0  0
   34.2911   29.5230   32.0814 H   0  0  0  0  0  0  0  0  0  0  0  0
   39.0999   26.8040   30.0586 H   0  0  0  0  0  0  0  0  0  0  0  0
   40.4425   26.8980   27.9967 H   0  0  0  0  0  0  0  0  0  0  0  0
   40.1876   28.7699   26.3844 H   0  0  0  0  0  0  0  0  0  0  0  0
   38.5402   30.5646   26.8949 H   0  0  0  0  0  0  0  0  0  0  0  0
   37.1896   30.4876   28.9538 H   0  0  0  0  0  0  0  0  0  0  0  0
  1  7  1  0
  1  2  2  0
  3  2  1  0
  4  5  1  0
  4  3  2  0
  5  1  1  0
  6 11  2  0
  7  6  1  0
  8  9  1  0
  8  7  2  0
  9 10  2  0
 10 11  1  0
 12 13  2  0
 12  4  1  0
 14 13  1  0
 15 14  2  0
 16 15  1  0
 16 17  2  0
 17 12  1  0
 18 16  1  0
 19 18  2  0
 20 19  1  0
 21 22  1  0
 21 20  2  0
 22 23  2  0
 23 18  1  0
  2 24  1  0
  3 25  1  0
  6 26  1  0
  8 27  1  0
 10 28  1  0
 13 29  1  0
 14 30  1  0
 19 31  1  0
 20 32  1  0
 21 33  1  0
 22 34  1  0
 23 35  1  0
M  ISO  8  24  14  25  14  26  14  27  14  28  14  29  14  30  14  31  14
M  ISO  4  32  14  33  14  34  14  35  14
M  END
>  <minimizedAffinity>  (1) 
-5.18613148

>  <minimizedRMSD>  (1) 
1.22108448

$$$$
