
     RDKit          3D

 37 39  0  0  0  0  0  0  0  0999 V2000
   38.6560   25.6110   35.4660 C   0  0  0  0  0  0  0  0  0  0  0  0
   38.2150   26.7630   36.1470 C   0  0  0  0  0  0  0  0  0  0  0  0
   37.7620   27.6530   35.1650 C   0  0  0  0  0  0  0  0  0  0  0  0
   37.9520   27.0030   33.9780 C   0  0  0  0  0  0  0  0  0  0  0  0
   38.4710   25.8240   34.1920 O   0  0  0  0  0  0  0  0  0  0  0  0
   38.6150   23.9540   37.3570 C   0  0  0  0  0  0  0  0  0  0  0  0
   39.1960   24.4760   36.1960 C   0  0  0  0  0  0  0  0  0  0  0  0
   40.3520   23.8730   35.7170 C   0  0  0  0  0  0  0  0  0  0  0  0
   40.8920   22.8010   36.3760 N   0  0  0  0  0  0  0  0  0  0  0  0
   40.2830   22.3330   37.5040 C   0  0  0  0  0  0  0  0  0  0  0  0
   39.1690   22.9030   37.9780 N   0  0  0  0  0  0  0  0  0  0  0  0
   37.6210   27.5530   32.6760 C   0  0  0  0  0  0  0  0  0  0  0  0
   36.4100   28.1750   32.4270 C   0  0  0  0  0  0  0  0  0  0  0  0
   36.1010   28.6950   31.1890 C   0  0  0  0  0  0  0  0  0  0  0  0
   37.0020   28.5950   30.2010 N   0  0  0  0  0  0  0  0  0  0  0  0
   38.1780   27.9900   30.4480 C   0  0  0  0  0  0  0  0  0  0  0  0
   38.5190   27.4670   31.6480 N   0  0  0  0  0  0  0  0  0  0  0  0
   39.2220   27.8450   29.3970 C   0  0  0  0  0  0  0  0  0  0  0  0
   39.5800   26.3850   29.1770 C   0  0  0  0  0  0  0  0  0  0  0  0
   38.7420   28.4350   28.0890 C   0  0  0  0  0  0  0  0  0  0  0  0
   40.5120   28.5290   29.8400 C   0  0  0  0  0  0  0  0  0  0  0  0
   38.2246   26.9302   37.2342 H   0  0  0  0  0  0  0  0  0  0  0  0
   37.3433   28.6589   35.3166 H   0  0  0  0  0  0  0  0  0  0  0  0
   37.6989   24.4084   37.7623 H   0  0  0  0  0  0  0  0  0  0  0  0
   40.8347   24.2574   34.8064 H   0  0  0  0  0  0  0  0  0  0  0  0
   40.7158   21.4713   38.0333 H   0  0  0  0  0  0  0  0  0  0  0  0
   35.6736   28.2565   33.2401 H   0  0  0  0  0  0  0  0  0  0  0  0
   35.1313   29.1840   31.0141 H   0  0  0  0  0  0  0  0  0  0  0  0
   39.7022   25.8868   30.1501 H   0  0  0  0  0  0  0  0  0  0  0  0
   38.7762   25.8917   28.6108 H   0  0  0  0  0  0  0  0  0  0  0  0
   40.5208   26.3195   28.6108 H   0  0  0  0  0  0  0  0  0  0  0  0
   38.0599   29.2734   28.2934 H   0  0  0  0  0  0  0  0  0  0  0  0
   39.6053   28.7971   27.5114 H   0  0  0  0  0  0  0  0  0  0  0  0
   38.2119   27.6634   27.5114 H   0  0  0  0  0  0  0  0  0  0  0  0
   40.5560   28.5523   30.9389 H   0  0  0  0  0  0  0  0  0  0  0  0
   41.3757   27.9704   29.4502 H   0  0  0  0  0  0  0  0  0  0  0  0
   40.5343   29.5574   29.4502 H   0  0  0  0  0  0  0  0  0  0  0  0
  1  2  2  0
  1  7  1  0
  3  2  1  0
  4  5  1  0
  4  3  2  0
  5  1  1  0
  6 11  2  0
  7  6  1  0
  8  7  2  0
  8  9  1  0
  9 10  2  0
 10 11  1  0
 12  4  1  0
 13 12  2  0
 14 13  1  0
 15 16  1  0
 15 14  2  0
 16 17  2  0
 17 12  1  0
 18 21  1  0
 18 16  1  0
 19 18  1  0
 20 18  1  0
  2 22  1  0
  3 23  1  0
  6 24  1  0
  8 25  1  0
 10 26  1  0
 13 27  1  0
 14 28  1  0
 19 29  1  0
 19 30  1  0
 19 31  1  0
 20 32  1  0
 20 33  1  0
 20 34  1  0
 21 35  1  0
 21 36  1  0
 21 37  1  0
M  ISO  8  22  14  23  14  24  14  25  14  26  14  27  14  28  14  29   8
M  ISO  8  30   8  31   8  32   8  33   8  34   8  35   8  36   8  37   8
M  END
>  <minimizedAffinity>  (1) 
-4.85110283

>  <minimizedRMSD>  (1) 
0.973221838

$$$$
