
     RDKit          3D

 46 49  0  0  1  0  0  0  0  0999 V2000
   39.0510   24.0080   35.5570 C   0  0  1  0  0  0  0  0  0  0  0  0
   38.1810   24.5400   36.6650 C   0  0  0  0  0  0  0  0  0  0  0  0
   38.1490   23.4170   37.6620 C   0  0  0  0  0  0  0  0  0  0  0  0
   39.5740   22.9200   37.6380 C   0  0  0  0  0  0  0  0  0  0  0  0
   40.0830   23.1790   36.2750 C   0  0  2  0  0  0  0  0  0  0  0  0
   37.7860   23.6900   33.4580 C   0  0  0  0  0  0  0  0  0  0  0  0
   37.0900   22.6840   32.7880 C   0  0  0  0  0  0  0  0  0  0  0  0
   37.1860   21.5930   33.6000 N   0  0  0  0  0  0  0  0  0  0  0  0
   37.9010   21.9660   34.6730 C   0  0  0  0  0  0  0  0  0  0  0  0
   38.2840   23.2620   34.6080 N   0  0  0  0  0  0  0  0  0  0  0  0
   37.9600   25.0600   32.9740 C   0  0  0  0  0  0  0  0  0  0  0  0
   39.0790   25.3870   32.1960 C   0  0  0  0  0  0  0  0  0  0  0  0
   39.1540   26.7370   31.7790 C   0  0  0  0  0  0  0  0  0  0  0  0
   38.1900   27.6080   32.1310 N   0  0  0  0  0  0  0  0  0  0  0  0
   37.1430   27.2430   32.8740 C   0  0  0  0  0  0  0  0  0  0  0  0
   37.0010   25.9740   33.3110 N   0  0  0  0  0  0  0  0  0  0  0  0
   41.4320   23.8040   36.1870 C   0  0  0  0  0  0  0  0  0  0  0  0
   41.6980   24.4400   34.8410 C   0  0  0  0  0  0  0  0  0  0  0  0
   42.8090   25.4510   35.0610 C   0  0  0  0  0  0  0  0  0  0  0  0
   44.0330   24.6130   35.4130 C   0  0  0  0  0  0  0  0  0  0  0  0
   43.8410   23.7340   36.6000 C   0  0  0  0  0  0  0  0  0  0  0  0
   42.5730   22.9020   36.5690 C   0  0  0  0  0  0  0  0  0  0  0  0
   39.5222   24.7979   34.9537 H   0  0  0  0  0  0  0  0  0  0  0  0
   38.6203   25.4458   37.1083 H   0  0  0  0  0  0  0  0  0  0  0  0
   37.1786   24.8310   36.3179 H   0  0  0  0  0  0  0  0  0  0  0  0
   37.8715   23.7809   38.6623 H   0  0  0  0  0  0  0  0  0  0  0  0
   37.4087   22.6392   37.4236 H   0  0  0  0  0  0  0  0  0  0  0  0
   40.1788   23.4626   38.3795 H   0  0  0  0  0  0  0  0  0  0  0  0
   39.6275   21.8499   37.8871 H   0  0  0  0  0  0  0  0  0  0  0  0
   40.2358   22.1993   35.7987 H   0  0  0  0  0  0  0  0  0  0  0  0
   36.5765   22.7552   31.8178 H   0  0  0  0  0  0  0  0  0  0  0  0
   38.1473   21.2950   35.5092 H   0  0  0  0  0  0  0  0  0  0  0  0
   39.8459   24.6454   31.9281 H   0  0  0  0  0  0  0  0  0  0  0  0
   40.0021   27.0755   31.1657 H   0  0  0  0  0  0  0  0  0  0  0  0
   36.3805   27.9915   33.1354 H   0  0  0  0  0  0  0  0  0  0  0  0
   41.3938   24.5957   36.9497 H   0  0  0  0  0  0  0  0  0  0  0  0
   40.7923   24.9433   34.4717 H   0  0  0  0  0  0  0  0  0  0  0  0
   41.9845   23.6870   34.0920 H   0  0  0  0  0  0  0  0  0  0  0  0
   42.9888   26.0346   34.1461 H   0  0  0  0  0  0  0  0  0  0  0  0
   42.5608   26.1760   35.8502 H   0  0  0  0  0  0  0  0  0  0  0  0
   44.2790   23.9789   34.5485 H   0  0  0  0  0  0  0  0  0  0  0  0
   44.8405   25.3166   35.6637 H   0  0  0  0  0  0  0  0  0  0  0  0
   44.6996   23.0493   36.6628 H   0  0  0  0  0  0  0  0  0  0  0  0
   43.7567   24.3998   37.4716 H   0  0  0  0  0  0  0  0  0  0  0  0
   42.3880   22.4670   37.5623 H   0  0  0  0  0  0  0  0  0  0  0  0
   42.6719   22.0833   35.8410 H   0  0  0  0  0  0  0  0  0  0  0  0
  1  5  1  0
  1  2  1  0
  2  3  1  0
  4  3  1  0
  5  4  1  0
  6 10  1  0
  7  6  2  0
  7  8  1  0
  8  9  2  0
 10  9  1  0
 10  1  1  0
 11 16  1  0
 11  6  1  0
 12 11  2  0
 13 14  2  0
 13 12  1  0
 14 15  1  0
 15 16  2  0
 17  5  1  0
 17 22  1  0
 18 19  1  0
 18 17  1  0
 19 20  1  0
 20 21  1  0
 22 21  1  0
  1 23  1  6
  2 24  1  0
  2 25  1  0
  3 26  1  0
  3 27  1  0
  4 28  1  0
  4 29  1  0
  5 30  1  6
  7 31  1  0
  9 32  1  0
 12 33  1  0
 13 34  1  0
 15 35  1  0
 17 36  1  0
 18 37  1  0
 18 38  1  0
 19 39  1  0
 19 40  1  0
 20 41  1  0
 20 42  1  0
 21 43  1  0
 21 44  1  0
 22 45  1  0
 22 46  1  0
M  ISO  8  23  13  24  13  25  13  26  13  27  13  28  13  29  13  30  13
M  ISO  8  31  14  32  14  33  14  34  14  35  14  36  13  37  13  38  13
M  ISO  8  39  13  40  13  41  13  42  13  43  13  44  13  45  13  46  13
M  END
>  <minimizedAffinity>  (1) 
-5.20111561

>  <minimizedRMSD>  (1) 
1.05811608

$$$$
