
     RDKit          3D

 34 36  0  0  0  0  0  0  0  0999 V2000
   38.5930   25.6830   35.5630 C   0  0  0  0  0  0  0  0  0  0  0  0
   38.3280   26.8250   36.3080 C   0  0  0  0  0  0  0  0  0  0  0  0
   37.7850   27.7580   35.4310 C   0  0  0  0  0  0  0  0  0  0  0  0
   37.7450   27.1590   34.2240 C   0  0  0  0  0  0  0  0  0  0  0  0
   38.2250   25.9430   34.3360 O   0  0  0  0  0  0  0  0  0  0  0  0
   38.6510   23.9050   37.3410 C   0  0  0  0  0  0  0  0  0  0  0  0
   39.1740   24.4870   36.1560 C   0  0  0  0  0  0  0  0  0  0  0  0
   40.2610   23.8890   35.5610 C   0  0  0  0  0  0  0  0  0  0  0  0
   40.8070   22.7590   36.1220 N   0  0  0  0  0  0  0  0  0  0  0  0
   40.2790   22.2360   37.2530 C   0  0  0  0  0  0  0  0  0  0  0  0
   39.2230   22.8010   37.8450 N   0  0  0  0  0  0  0  0  0  0  0  0
   37.2570   27.7240   32.9730 C   0  0  0  0  0  0  0  0  0  0  0  0
   36.0240   28.3450   32.9240 C   0  0  0  0  0  0  0  0  0  0  0  0
   35.5330   28.8890   31.7550 C   0  0  0  0  0  0  0  0  0  0  0  0
   36.2860   28.8070   30.6350 N   0  0  0  0  0  0  0  0  0  0  0  0
   37.4950   28.1920   30.7020 C   0  0  0  0  0  0  0  0  0  0  0  0
   37.9720   27.6660   31.8330 N   0  0  0  0  0  0  0  0  0  0  0  0
   38.3000   28.1170   29.4540 C   0  0  0  0  0  0  0  0  0  0  0  0
   37.8480   29.1960   28.4700 C   0  0  0  0  0  0  0  0  0  0  0  0
   39.7630   28.4330   29.7380 C   0  0  0  0  0  0  0  0  0  0  0  0
   38.5120   26.9645   37.3835 H   0  0  0  0  0  0  0  0  0  0  0  0
   37.4548   28.7789   35.6734 H   0  0  0  0  0  0  0  0  0  0  0  0
   37.7823   24.3565   37.8426 H   0  0  0  0  0  0  0  0  0  0  0  0
   40.6908   24.3128   34.6414 H   0  0  0  0  0  0  0  0  0  0  0  0
   40.7262   21.3318   37.6916 H   0  0  0  0  0  0  0  0  0  0  0  0
   35.4184   28.4073   33.8401 H   0  0  0  0  0  0  0  0  0  0  0  0
   34.5487   29.3796   31.7346 H   0  0  0  0  0  0  0  0  0  0  0  0
   38.1701   27.1016   29.0515 H   0  0  0  0  0  0  0  0  0  0  0  0
   37.4816   30.0705   29.0276 H   0  0  0  0  0  0  0  0  0  0  0  0
   38.6969   29.4940   27.8371 H   0  0  0  0  0  0  0  0  0  0  0  0
   37.0402   28.7999   27.8371 H   0  0  0  0  0  0  0  0  0  0  0  0
   39.9261   28.4682   30.8253 H   0  0  0  0  0  0  0  0  0  0  0  0
   40.3992   27.6516   29.2969 H   0  0  0  0  0  0  0  0  0  0  0  0
   40.0200   29.4074   29.2969 H   0  0  0  0  0  0  0  0  0  0  0  0
  1  7  1  0
  1  2  2  0
  3  2  1  0
  4  5  1  0
  4  3  2  0
  5  1  1  0
  6 11  2  0
  7  6  1  0
  8  9  1  0
  8  7  2  0
  9 10  2  0
 10 11  1  0
 12  4  1  0
 13 12  2  0
 14 13  1  0
 15 16  1  0
 15 14  2  0
 16 17  2  0
 17 12  1  0
 18 20  1  0
 18 16  1  0
 19 18  1  0
  2 21  1  0
  3 22  1  0
  6 23  1  0
  8 24  1  0
 10 25  1  0
 13 26  1  0
 14 27  1  0
 18 28  1  0
 19 29  1  0
 19 30  1  0
 19 31  1  0
 20 32  1  0
 20 33  1  0
 20 34  1  0
M  ISO  8  21  14  22  14  23  14  24  14  25  14  26  14  27  14  28   8
M  ISO  6  29   8  30   8  31   8  32   8  33   8  34   8
M  END
>  <minimizedAffinity>  (1) 
-4.85974598

>  <minimizedRMSD>  (1) 
0.711591244

$$$$
