
     RDKit          3D

 31 33  0  0  0  0  0  0  0  0999 V2000
   38.5770   25.6690   35.5430 C   0  0  0  0  0  0  0  0  0  0  0  0
   38.3220   26.8330   36.2960 C   0  0  0  0  0  0  0  0  0  0  0  0
   37.7820   27.7560   35.4000 C   0  0  0  0  0  0  0  0  0  0  0  0
   37.7400   27.1230   34.1910 C   0  0  0  0  0  0  0  0  0  0  0  0
   38.2100   25.9120   34.3100 O   0  0  0  0  0  0  0  0  0  0  0  0
   38.6480   23.9070   37.3290 C   0  0  0  0  0  0  0  0  0  0  0  0
   39.1460   24.4890   36.1580 C   0  0  0  0  0  0  0  0  0  0  0  0
   40.2530   23.8910   35.5610 C   0  0  0  0  0  0  0  0  0  0  0  0
   40.8060   22.7700   36.1320 N   0  0  0  0  0  0  0  0  0  0  0  0
   40.2750   22.2490   37.2740 C   0  0  0  0  0  0  0  0  0  0  0  0
   39.2100   22.8160   37.8580 N   0  0  0  0  0  0  0  0  0  0  0  0
   37.2470   27.7180   32.9670 C   0  0  0  0  0  0  0  0  0  0  0  0
   36.0200   28.3470   32.9010 C   0  0  0  0  0  0  0  0  0  0  0  0
   35.5400   28.9180   31.7410 C   0  0  0  0  0  0  0  0  0  0  0  0
   36.3020   28.8510   30.6360 N   0  0  0  0  0  0  0  0  0  0  0  0
   37.4950   28.2380   30.7050 C   0  0  0  0  0  0  0  0  0  0  0  0
   37.9920   27.6700   31.8270 N   0  0  0  0  0  0  0  0  0  0  0  0
   38.3690   28.1440   29.5030 C   0  0  0  0  0  0  0  0  0  0  0  0
   37.8420   29.1440   28.4800 C   0  0  0  0  0  0  0  0  0  0  0  0
   38.5101   26.9828   37.3694 H   0  0  0  0  0  0  0  0  0  0  0  0
   37.4568   28.7831   35.6220 H   0  0  0  0  0  0  0  0  0  0  0  0
   37.7753   24.3571   37.8247 H   0  0  0  0  0  0  0  0  0  0  0  0
   40.6813   24.3126   34.6397 H   0  0  0  0  0  0  0  0  0  0  0  0
   40.7263   21.3516   37.7223 H   0  0  0  0  0  0  0  0  0  0  0  0
   35.4010   28.3947   33.8090 H   0  0  0  0  0  0  0  0  0  0  0  0
   34.5590   29.4153   31.7208 H   0  0  0  0  0  0  0  0  0  0  0  0
   39.4065   28.3917   29.7717 H   0  0  0  0  0  0  0  0  0  0  0  0
   38.3575   27.1237   29.0920 H   0  0  0  0  0  0  0  0  0  0  0  0
   37.3908   30.0002   29.0029 H   0  0  0  0  0  0  0  0  0  0  0  0
   38.6720   29.4954   27.8495 H   0  0  0  0  0  0  0  0  0  0  0  0
   37.0829   28.6580   27.8495 H   0  0  0  0  0  0  0  0  0  0  0  0
  1  7  1  0
  1  2  2  0
  3  2  1  0
  4  5  1  0
  4  3  2  0
  5  1  1  0
  6 11  2  0
  7  6  1  0
  8  9  1  0
  8  7  2  0
  9 10  2  0
 10 11  1  0
 12  4  1  0
 13 12  2  0
 14 13  1  0
 15 16  1  0
 15 14  2  0
 16 17  2  0
 17 12  1  0
 18 16  1  0
 19 18  1  0
  2 20  1  0
  3 21  1  0
  6 22  1  0
  8 23  1  0
 10 24  1  0
 13 25  1  0
 14 26  1  0
 18 27  1  0
 18 28  1  0
 19 29  1  0
 19 30  1  0
 19 31  1  0
M  ISO  8  20  14  21  14  22  14  23  14  24  14  25  14  26  14  27   8
M  ISO  4  28   8  29   8  30   8  31   8
M  END
>  <minimizedAffinity>  (1) 
-4.7176795

>  <minimizedRMSD>  (1) 
0.568586111

$$$$
