
     RDKit          3D

 39 42  0  0  1  0  0  0  0  0999 V2000
   39.1090   24.0090   35.2750 C   0  0  1  0  0  0  0  0  0  0  0  0
   38.3020   24.5100   36.4350 C   0  0  0  0  0  0  0  0  0  0  0  0
   38.3120   23.3500   37.3890 C   0  0  0  0  0  0  0  0  0  0  0  0
   39.7230   22.8480   37.2970 C   0  0  0  0  0  0  0  0  0  0  0  0
   40.1810   23.1550   35.9010 C   0  0  2  0  0  0  0  0  0  0  0  0
   37.7280   23.7770   33.2290 C   0  0  0  0  0  0  0  0  0  0  0  0
   37.0110   22.7930   32.5550 C   0  0  0  0  0  0  0  0  0  0  0  0
   37.1710   21.6650   33.3080 N   0  0  0  0  0  0  0  0  0  0  0  0
   37.9420   22.0060   34.3560 C   0  0  0  0  0  0  0  0  0  0  0  0
   38.3000   23.2970   34.3350 N   0  0  0  0  0  0  0  0  0  0  0  0
   37.8600   25.1720   32.8100 C   0  0  0  0  0  0  0  0  0  0  0  0
   38.9020   25.5560   31.9540 C   0  0  0  0  0  0  0  0  0  0  0  0
   38.9570   26.9190   31.6010 C   0  0  0  0  0  0  0  0  0  0  0  0
   38.0220   27.7690   32.0950 N   0  0  0  0  0  0  0  0  0  0  0  0
   37.0400   27.3510   32.9140 C   0  0  0  0  0  0  0  0  0  0  0  0
   36.9380   26.0500   33.2870 N   0  0  0  0  0  0  0  0  0  0  0  0
   41.5280   23.7750   35.8380 C   0  0  0  0  0  0  0  0  0  0  0  0
   42.5500   23.2220   36.5940 C   0  0  0  0  0  0  0  0  0  0  0  0
   43.8580   23.7210   36.6150 C   0  0  0  0  0  0  0  0  0  0  0  0
   44.1080   24.8230   35.8270 C   0  0  0  0  0  0  0  0  0  0  0  0
   43.0810   25.3530   35.0880 C   0  0  0  0  0  0  0  0  0  0  0  0
   41.8280   24.8490   35.0890 N   0  0  0  0  0  0  0  0  0  0  0  0
   39.5473   24.8246   34.6812 H   0  0  0  0  0  0  0  0  0  0  0  0
   38.7705   25.3964   36.8875 H   0  0  0  0  0  0  0  0  0  0  0  0
   37.2872   24.8243   36.1498 H   0  0  0  0  0  0  0  0  0  0  0  0
   38.0751   23.6776   38.4120 H   0  0  0  0  0  0  0  0  0  0  0  0
   37.5626   22.5825   37.1454 H   0  0  0  0  0  0  0  0  0  0  0  0
   40.3606   23.3633   38.0305 H   0  0  0  0  0  0  0  0  0  0  0  0
   39.7824   21.7710   37.5129 H   0  0  0  0  0  0  0  0  0  0  0  0
   40.3116   22.2207   35.3354 H   0  0  0  0  0  0  0  0  0  0  0  0
   36.4405   22.9003   31.6206 H   0  0  0  0  0  0  0  0  0  0  0  0
   38.2456   21.3017   35.1445 H   0  0  0  0  0  0  0  0  0  0  0  0
   39.6384   24.8308   31.5775 H   0  0  0  0  0  0  0  0  0  0  0  0
   39.7485   27.2895   30.9329 H   0  0  0  0  0  0  0  0  0  0  0  0
   36.3049   28.0783   33.2889 H   0  0  0  0  0  0  0  0  0  0  0  0
   42.3204   22.3416   37.2122 H   0  0  0  0  0  0  0  0  0  0  0  0
   44.6447   23.2575   37.2284 H   0  0  0  0  0  0  0  0  0  0  0  0
   45.1126   25.2697   35.7911 H   0  0  0  0  0  0  0  0  0  0  0  0
   43.2887   26.2337   34.4625 H   0  0  0  0  0  0  0  0  0  0  0  0
  1  5  1  0
  1  2  1  0
  2  3  1  0
  4  3  1  0
  5  4  1  0
  6 10  1  0
  7  6  2  0
  7  8  1  0
  8  9  2  0
 10  9  1  0
 10  1  1  0
 11  6  1  0
 11 16  1  0
 12 11  2  0
 13 12  1  0
 13 14  2  0
 14 15  1  0
 15 16  2  0
 17  5  1  0
 17 18  2  0
 18 19  1  0
 20 19  2  0
 21 22  2  0
 21 20  1  0
 22 17  1  0
  1 23  1  6
  2 24  1  0
  2 25  1  0
  3 26  1  0
  3 27  1  0
  4 28  1  0
  4 29  1  0
  5 30  1  6
  7 31  1  0
  9 32  1  0
 12 33  1  0
 13 34  1  0
 15 35  1  0
 18 36  1  0
 19 37  1  0
 20 38  1  0
 21 39  1  0
M  ISO  8  23  13  24  13  25  13  26  13  27  13  28  13  29  13  30  13
M  ISO  8  31  14  32  14  33  14  34  14  35  14  36  14  37  14  38  14
M  ISO  1  39  14
M  END
>  <minimizedAffinity>  (1) 
-5.15998602

>  <minimizedRMSD>  (1) 
1.17445564

$$$$
