
     RDKit          3D

 26 28  0  0  0  0  0  0  0  0999 V2000
   38.6200   25.6950   35.4650 C   0  0  0  0  0  0  0  0  0  0  0  0
   38.2790   26.8340   36.1810 C   0  0  0  0  0  0  0  0  0  0  0  0
   37.7760   27.7430   35.2540 C   0  0  0  0  0  0  0  0  0  0  0  0
   37.8390   27.1140   34.0430 C   0  0  0  0  0  0  0  0  0  0  0  0
   38.3380   25.9110   34.1970 O   0  0  0  0  0  0  0  0  0  0  0  0
   38.6350   23.9500   37.2780 C   0  0  0  0  0  0  0  0  0  0  0  0
   39.1830   24.5190   36.1010 C   0  0  0  0  0  0  0  0  0  0  0  0
   40.2940   23.9090   35.5610 C   0  0  0  0  0  0  0  0  0  0  0  0
   40.8370   22.7960   36.1500 N   0  0  0  0  0  0  0  0  0  0  0  0
   40.2680   22.2920   37.2830 C   0  0  0  0  0  0  0  0  0  0  0  0
   39.1730   22.8650   37.8440 N   0  0  0  0  0  0  0  0  0  0  0  0
   37.4190   27.6820   32.7750 C   0  0  0  0  0  0  0  0  0  0  0  0
   36.2150   28.3120   32.6310 C   0  0  0  0  0  0  0  0  0  0  0  0
   35.7940   28.8610   31.4350 C   0  0  0  0  0  0  0  0  0  0  0  0
   36.6130   28.7630   30.3770 N   0  0  0  0  0  0  0  0  0  0  0  0
   37.7950   28.1470   30.5090 C   0  0  0  0  0  0  0  0  0  0  0  0
   38.2130   27.6070   31.6810 N   0  0  0  0  0  0  0  0  0  0  0  0
   39.0030   27.9350   29.1850 S   0  0  0  0  0  0  0  0  0  0  0  0
   38.3850   26.9879   37.2650 H   0  0  0  0  0  0  0  0  0  0  0  0
   37.4044   28.7586   35.4553 H   0  0  0  0  0  0  0  0  0  0  0  0
   37.7475   24.4114   37.7357 H   0  0  0  0  0  0  0  0  0  0  0  0
   40.7502   24.3190   34.6479 H   0  0  0  0  0  0  0  0  0  0  0  0
   40.7073   21.3998   37.7531 H   0  0  0  0  0  0  0  0  0  0  0  0
   35.5519   28.3853   33.5056 H   0  0  0  0  0  0  0  0  0  0  0  0
   34.8184   29.3624   31.3530 H   0  0  0  0  0  0  0  0  0  0  0  0
   40.2420   27.7176   29.7278 H   0  0  0  0  0  0  0  0  0  0  0  0
  1  7  1  0
  1  2  2  0
  3  2  1  0
  4  5  1  0
  4  3  2  0
  5  1  1  0
  6 11  2  0
  7  6  1  0
  8  7  2  0
  8  9  1  0
  9 10  2  0
 10 11  1  0
 12  4  1  0
 13 12  2  0
 14 13  1  0
 15 16  1  0
 15 14  2  0
 16 17  2  0
 17 12  1  0
 18 16  1  0
  2 19  1  0
  3 20  1  0
  6 21  1  0
  8 22  1  0
 10 23  1  0
 13 24  1  0
 14 25  1  0
 18 26  1  0
M  ISO  8  19  14  20  14  21  14  22  14  23  14  24  14  25  14  26  11
M  END
>  <minimizedAffinity>  (1) 
-4.60112762

>  <minimizedRMSD>  (1) 
0.474537313

$$$$
