
     RDKit          3D

 37 40  0  0  0  0  0  0  0  0999 V2000
   36.7490   28.0600   33.3330 C   0  0  0  0  0  0  0  0  0  0  0  0
   35.6320   28.8480   33.5850 C   0  0  0  0  0  0  0  0  0  0  0  0
   34.9630   29.5320   32.5860 C   0  0  0  0  0  0  0  0  0  0  0  0
   35.4170   29.4250   31.3300 N   0  0  0  0  0  0  0  0  0  0  0  0
   36.4890   28.6700   31.0860 C   0  0  0  0  0  0  0  0  0  0  0  0
   37.1750   27.9810   32.0350 N   0  0  0  0  0  0  0  0  0  0  0  0
   38.4030   25.7470   35.4460 C   0  0  0  0  0  0  0  0  0  0  0  0
   38.4290   26.8680   36.2890 C   0  0  0  0  0  0  0  0  0  0  0  0
   37.7980   27.8850   35.5770 C   0  0  0  0  0  0  0  0  0  0  0  0
   37.4350   27.3530   34.3850 C   0  0  0  0  0  0  0  0  0  0  0  0
   37.8040   26.1070   34.3470 O   0  0  0  0  0  0  0  0  0  0  0  0
   38.7140   23.8830   37.0980 C   0  0  0  0  0  0  0  0  0  0  0  0
   38.9790   24.4830   35.8610 C   0  0  0  0  0  0  0  0  0  0  0  0
   39.8420   23.8230   34.9870 C   0  0  0  0  0  0  0  0  0  0  0  0
   40.3920   22.6220   35.3710 N   0  0  0  0  0  0  0  0  0  0  0  0
   40.0980   22.0850   36.5910 C   0  0  0  0  0  0  0  0  0  0  0  0
   39.2660   22.7160   37.4390 N   0  0  0  0  0  0  0  0  0  0  0  0
   37.0240   28.5230   29.7200 C   0  0  0  0  0  0  0  0  0  0  0  0
   37.3760   29.9300   29.2130 C   0  0  0  0  0  0  0  0  0  0  0  0
   38.4260   29.7010   28.1860 C   0  0  0  0  0  0  0  0  0  0  0  0
   38.7610   28.3120   28.3050 C   0  0  0  0  0  0  0  0  0  0  0  0
   40.0920   28.0660   26.9850 S   0  0  0  0  0  0  0  0  0  0  0  0
   39.9300   29.9000   26.5350 C   0  0  0  0  0  0  0  0  0  0  0  0
   39.1450   30.2510   27.2430 N   0  0  0  0  0  0  0  0  0  0  0  0
   35.2659   28.9309   34.6190 H   0  0  0  0  0  0  0  0  0  0  0  0
   34.0812   30.1478   32.8168 H   0  0  0  0  0  0  0  0  0  0  0  0
   38.8578   26.9306   37.3001 H   0  0  0  0  0  0  0  0  0  0  0  0
   37.6277   28.9176   35.9159 H   0  0  0  0  0  0  0  0  0  0  0  0
   38.0360   24.3841   37.8046 H   0  0  0  0  0  0  0  0  0  0  0  0
   40.0796   24.2565   34.0044 H   0  0  0  0  0  0  0  0  0  0  0  0
   40.5469   21.1245   36.8843 H   0  0  0  0  0  0  0  0  0  0  0  0
   37.9248   27.8919   29.7345 H   0  0  0  0  0  0  0  0  0  0  0  0
   36.2836   28.0457   29.0612 H   0  0  0  0  0  0  0  0  0  0  0  0
   36.4949   30.4149   28.7674 H   0  0  0  0  0  0  0  0  0  0  0  0
   37.7175   30.5936   30.0211 H   0  0  0  0  0  0  0  0  0  0  0  0
   38.3434   27.5674   28.9986 H   0  0  0  0  0  0  0  0  0  0  0  0
   40.4734   30.4726   25.7689 H   0  0  0  0  0  0  0  0  0  0  0  0
  1  2  2  0
  1 10  1  0
  3  2  1  0
  4  3  2  0
  5  4  1  0
  5  6  2  0
  6  1  1  0
  7 13  1  0
  7  8  2  0
  9  8  1  0
 10  9  2  0
 11 10  1  0
 11  7  1  0
 12 17  2  0
 13 12  1  0
 14 15  1  0
 14 13  2  0
 15 16  2  0
 16 17  1  0
 18  5  1  0
 19 18  1  0
 20 21  2  0
 20 19  1  0
 22 21  1  0
 23 22  1  0
 23 24  2  0
 24 20  1  0
  2 25  1  0
  3 26  1  0
  8 27  1  0
  9 28  1  0
 12 29  1  0
 14 30  1  0
 16 31  1  0
 18 32  1  0
 18 33  1  0
 19 34  1  0
 19 35  1  0
 21 36  1  0
 23 37  1  0
M  ISO  8  25  14  26  14  27  14  28  14  29  14  30  14  31  14  32   8
M  ISO  5  33   8  34   8  35   8  36  14  37  14
M  END
>  <minimizedAffinity>  (1) 
-4.95831299

>  <minimizedRMSD>  (1) 
0.963280261

$$$$
