
     RDKit          3D

 38 40  0  0  0  0  0  0  0  0999 V2000
   37.1820   27.7350   33.0020 C   0  0  0  0  0  0  0  0  0  0  0  0
   35.9660   28.3820   32.9550 C   0  0  0  0  0  0  0  0  0  0  0  0
   35.4640   28.9500   31.8140 C   0  0  0  0  0  0  0  0  0  0  0  0
   36.2020   28.8710   30.6860 N   0  0  0  0  0  0  0  0  0  0  0  0
   37.3810   28.2460   30.7290 C   0  0  0  0  0  0  0  0  0  0  0  0
   37.8900   27.6800   31.8410 N   0  0  0  0  0  0  0  0  0  0  0  0
   38.5690   25.6760   35.5360 C   0  0  0  0  0  0  0  0  0  0  0  0
   38.3450   26.8470   36.2880 C   0  0  0  0  0  0  0  0  0  0  0  0
   37.7900   27.7680   35.4060 C   0  0  0  0  0  0  0  0  0  0  0  0
   37.7030   27.1400   34.2020 C   0  0  0  0  0  0  0  0  0  0  0  0
   38.1680   25.9170   34.3140 O   0  0  0  0  0  0  0  0  0  0  0  0
   38.6480   23.9060   37.3130 C   0  0  0  0  0  0  0  0  0  0  0  0
   39.1460   24.4980   36.1480 C   0  0  0  0  0  0  0  0  0  0  0  0
   40.2580   23.9190   35.5470 C   0  0  0  0  0  0  0  0  0  0  0  0
   40.8160   22.7970   36.1210 N   0  0  0  0  0  0  0  0  0  0  0  0
   40.2900   22.2650   37.2540 C   0  0  0  0  0  0  0  0  0  0  0  0
   39.2230   22.8180   37.8320 N   0  0  0  0  0  0  0  0  0  0  0  0
   38.2200   28.1380   29.5140 C   0  0  0  0  0  0  0  0  0  0  0  0
   37.9490   29.3640   28.6460 C   0  0  0  0  0  0  0  0  0  0  0  0
   38.5240   30.5530   29.2580 N   0  0  0  0  0  0  0  0  0  0  0  0
   37.6700   31.7060   29.3810 C   0  0  0  0  0  0  0  0  0  0  0  0
   36.4040   31.6290   29.1360 N   0  0  0  0  0  0  0  0  0  0  0  0
   38.2150   32.9700   29.7790 N   0  0  0  0  0  0  0  0  0  0  0  0
   35.7870   32.4590   29.2240 H   0  0  0  0  0  0  0  0  0  0  0  0
   35.3703   28.4453   33.8776 H   0  0  0  0  0  0  0  0  0  0  0  0
   34.4874   29.4561   31.8166 H   0  0  0  0  0  0  0  0  0  0  0  0
   38.5644   27.0010   37.3548 H   0  0  0  0  0  0  0  0  0  0  0  0
   37.4826   28.7988   35.6359 H   0  0  0  0  0  0  0  0  0  0  0  0
   37.7692   24.3432   37.8095 H   0  0  0  0  0  0  0  0  0  0  0  0
   40.6852   24.3490   34.6291 H   0  0  0  0  0  0  0  0  0  0  0  0
   40.7482   21.3696   37.6993 H   0  0  0  0  0  0  0  0  0  0  0  0
   39.2829   28.1069   29.7954 H   0  0  0  0  0  0  0  0  0  0  0  0
   37.9789   27.2173   28.9625 H   0  0  0  0  0  0  0  0  0  0  0  0
   36.8627   29.5000   28.5391 H   0  0  0  0  0  0  0  0  0  0  0  0
   38.4086   29.2119   27.6583 H   0  0  0  0  0  0  0  0  0  0  0  0
   39.4993   30.5690   29.5887 H   0  0  0  0  0  0  0  0  0  0  0  0
   37.6000   33.7917   29.8655 H   0  0  0  0  0  0  0  0  0  0  0  0
   39.2217   33.0569   29.9786 H   0  0  0  0  0  0  0  0  0  0  0  0
  1 10  1  0
  2  1  2  0
  3  2  1  0
  4  5  1  0
  4  3  2  0
  5  6  2  0
  6  1  1  0
  7 13  1  0
  7  8  2  0
  9  8  1  0
 10 11  1  0
 10  9  2  0
 11  7  1  0
 12 17  2  0
 13 12  1  0
 14 15  1  0
 14 13  2  0
 15 16  2  0
 16 17  1  0
 18  5  1  0
 19 20  1  0
 19 18  1  0
 20 21  1  0
 21 23  1  0
 22 24  1  0
 22 21  2  0
  2 25  1  0
  3 26  1  0
  8 27  1  0
  9 28  1  0
 12 29  1  0
 14 30  1  0
 16 31  1  0
 18 32  1  0
 18 33  1  0
 19 34  1  0
 19 35  1  0
 20 36  1  0
 23 37  1  0
 23 38  1  0
M  ISO  8  25  14  26  14  27  14  28  14  29  14  30  14  31  14  32   8
M  ISO  3  33   8  34   8  35   8
M  END
>  <minimizedAffinity>  (1) 
-4.87904453

>  <minimizedRMSD>  (1) 
0.628077686

$$$$
