
     RDKit          3D

 44 47  0  0  0  0  0  0  0  0999 V2000
   37.4570   27.1560   34.1160 C   0  0  0  0  0  0  0  0  0  0  0  0
   37.8200   27.6330   35.3540 C   0  0  0  0  0  0  0  0  0  0  0  0
   38.3010   26.8200   36.3600 C   0  0  0  0  0  0  0  0  0  0  0  0
   38.4140   25.5040   36.1030 N   0  0  0  0  0  0  0  0  0  0  0  0
   38.0590   25.0360   34.8870 C   0  0  0  0  0  0  0  0  0  0  0  0
   37.5880   25.8130   33.8950 N   0  0  0  0  0  0  0  0  0  0  0  0
   36.8750   29.1580   31.2440 C   0  0  0  0  0  0  0  0  0  0  0  0
   35.6270   29.3130   31.8880 C   0  0  0  0  0  0  0  0  0  0  0  0
   35.6970   28.5640   33.0710 C   0  0  0  0  0  0  0  0  0  0  0  0
   36.9540   28.0130   33.0680 C   0  0  0  0  0  0  0  0  0  0  0  0
   37.5930   28.3780   32.0060 O   0  0  0  0  0  0  0  0  0  0  0  0
   36.7610   31.1220   29.6790 C   0  0  0  0  0  0  0  0  0  0  0  0
   37.1410   29.8080   29.9800 C   0  0  0  0  0  0  0  0  0  0  0  0
   37.8220   29.0780   28.9980 C   0  0  0  0  0  0  0  0  0  0  0  0
   38.0820   29.6900   27.7840 N   0  0  0  0  0  0  0  0  0  0  0  0
   37.6890   30.9550   27.5610 C   0  0  0  0  0  0  0  0  0  0  0  0
   37.0370   31.6680   28.4890 N   0  0  0  0  0  0  0  0  0  0  0  0
   38.1750   23.5960   34.5830 C   0  0  0  0  0  0  0  0  0  0  0  0
   38.4090   23.4450   33.0660 C   0  0  0  0  0  0  0  0  0  0  0  0
   37.3170   22.6920   32.4930 C   0  0  0  0  0  0  0  0  0  0  0  0
   36.4740   22.8050   31.4420 C   0  0  0  0  0  0  0  0  0  0  0  0
   35.5210   21.8950   31.1630 C   0  0  0  0  0  0  0  0  0  0  0  0
   35.4740   20.7920   32.0710 C   0  0  0  0  0  0  0  0  0  0  0  0
   36.7950   21.1210   33.2760 S   0  0  0  0  0  0  0  0  0  0  0  0
   34.5780   19.6370   32.0680 C   0  0  0  0  0  0  0  0  0  0  0  0
   35.1970   18.3660   32.5790 C   0  0  0  0  0  0  0  0  0  0  0  0
   37.7225   28.7108   35.5510 H   0  0  0  0  0  0  0  0  0  0  0  0
   38.5827   27.2340   37.3394 H   0  0  0  0  0  0  0  0  0  0  0  0
   34.7704   29.9041   31.5318 H   0  0  0  0  0  0  0  0  0  0  0  0
   34.9149   28.4441   33.8351 H   0  0  0  0  0  0  0  0  0  0  0  0
   36.2259   31.7159   30.4346 H   0  0  0  0  0  0  0  0  0  0  0  0
   38.1427   28.0429   29.1869 H   0  0  0  0  0  0  0  0  0  0  0  0
   37.9089   31.4189   26.5882 H   0  0  0  0  0  0  0  0  0  0  0  0
   39.0227   23.1651   35.1359 H   0  0  0  0  0  0  0  0  0  0  0  0
   37.2576   23.0678   34.8820 H   0  0  0  0  0  0  0  0  0  0  0  0
   38.4554   24.4400   32.5994 H   0  0  0  0  0  0  0  0  0  0  0  0
   39.3575   22.9173   32.8875 H   0  0  0  0  0  0  0  0  0  0  0  0
   36.5710   23.6811   30.7840 H   0  0  0  0  0  0  0  0  0  0  0  0
   34.8361   21.9925   30.3078 H   0  0  0  0  0  0  0  0  0  0  0  0
   33.7095   19.8744   32.7000 H   0  0  0  0  0  0  0  0  0  0  0  0
   34.3084   19.4531   31.0175 H   0  0  0  0  0  0  0  0  0  0  0  0
   35.1936   18.3729   33.6790 H   0  0  0  0  0  0  0  0  0  0  0  0
   34.6177   17.5042   32.2160 H   0  0  0  0  0  0  0  0  0  0  0  0
   36.2326   18.2908   32.2160 H   0  0  0  0  0  0  0  0  0  0  0  0
  1  2  2  0
  2  3  1  0
  4  3  2  0
  5  4  1  0
  6  1  1  0
  6  5  2  0
  7  8  2  0
  7 11  1  0
  8  9  1  0
 10  9  2  0
 10  1  1  0
 11 10  1  0
 12 13  2  0
 13  7  1  0
 14 13  1  0
 15 14  2  0
 16 15  1  0
 16 17  2  0
 17 12  1  0
 18  5  1  0
 19 18  1  0
 20 19  1  0
 20 24  1  0
 21 20  2  0
 22 21  1  0
 22 23  2  0
 23 24  1  0
 25 23  1  0
 25 26  1  0
  2 27  1  0
  3 28  1  0
  8 29  1  0
  9 30  1  0
 12 31  1  0
 14 32  1  0
 16 33  1  0
 18 34  1  0
 18 35  1  0
 19 36  1  0
 19 37  1  0
 21 38  1  0
 22 39  1  0
 25 40  1  0
 25 41  1  0
 26 42  1  0
 26 43  1  0
 26 44  1  0
M  ISO  8  27  14  28  14  29  14  30  14  31  14  32  14  33  14  34   8
M  ISO  8  35   8  36   8  37   8  38  14  39  14  40   8  41   8  42   8
M  ISO  2  43   8  44   8
M  END
>  <minimizedAffinity>  (1) 
-5.49524641

>  <minimizedRMSD>  (1) 
1.73166871

$$$$
