
     RDKit          3D

 30 32  0  0  0  0  0  0  0  0999 V2000
   39.0260   22.9400   34.2410 C   0  0  0  0  0  0  0  0  0  0  0  0
   38.2410   21.7790   34.3580 C   0  0  0  0  0  0  0  0  0  0  0  0
   37.1990   21.9110   33.4520 C   0  0  0  0  0  0  0  0  0  0  0  0
   37.3950   23.1070   32.8490 C   0  0  0  0  0  0  0  0  0  0  0  0
   38.4940   23.6850   33.3500 O   0  0  0  0  0  0  0  0  0  0  0  0
   40.2180   23.0960   35.0830 C   0  0  0  0  0  0  0  0  0  0  0  0
   41.2960   23.9260   34.7440 C   0  0  0  0  0  0  0  0  0  0  0  0
   42.3700   23.9850   35.6320 C   0  0  0  0  0  0  0  0  0  0  0  0
   42.3280   23.2470   36.7730 N   0  0  0  0  0  0  0  0  0  0  0  0
   41.2660   22.4520   37.0710 C   0  0  0  0  0  0  0  0  0  0  0  0
   40.2330   22.3890   36.2290 N   0  0  0  0  0  0  0  0  0  0  0  0
   36.1030   20.9680   33.1850 C   0  0  0  0  0  0  0  0  0  0  0  0
   35.1230   21.4820   32.1380 C   0  0  0  0  0  0  0  0  0  0  0  0
   34.2470   20.2330   31.9810 C   0  0  0  0  0  0  0  0  0  0  0  0
   35.2280   19.0740   32.1310 C   0  0  0  0  0  0  0  0  0  0  0  0
   36.5700   19.7140   32.4730 C   0  0  0  0  0  0  0  0  0  0  0  0
   38.4187   20.9312   35.0360 H   0  0  0  0  0  0  0  0  0  0  0  0
   36.7509   23.5375   32.0681 H   0  0  0  0  0  0  0  0  0  0  0  0
   41.2948   24.5095   33.8115 H   0  0  0  0  0  0  0  0  0  0  0  0
   43.2402   24.6208   35.4118 H   0  0  0  0  0  0  0  0  0  0  0  0
   41.2585   21.8643   38.0008 H   0  0  0  0  0  0  0  0  0  0  0  0
   35.6808   20.8121   34.1887 H   0  0  0  0  0  0  0  0  0  0  0  0
   34.5466   22.3448   32.5032 H   0  0  0  0  0  0  0  0  0  0  0  0
   35.5806   21.8541   31.2095 H   0  0  0  0  0  0  0  0  0  0  0  0
   33.7671   20.2137   30.9914 H   0  0  0  0  0  0  0  0  0  0  0  0
   33.4293   20.1938   32.7158 H   0  0  0  0  0  0  0  0  0  0  0  0
   34.9064   18.4010   32.9395 H   0  0  0  0  0  0  0  0  0  0  0  0
   35.2873   18.4696   31.2138 H   0  0  0  0  0  0  0  0  0  0  0  0
   37.1701   19.0712   33.1338 H   0  0  0  0  0  0  0  0  0  0  0  0
   37.2260   19.8944   31.6086 H   0  0  0  0  0  0  0  0  0  0  0  0
  1  2  2  0
  1  6  1  0
  3  2  1  0
  4  5  1  0
  4  3  2  0
  5  1  1  0
  6 11  1  0
  7  6  2  0
  7  8  1  0
  8  9  2  0
  9 10  1  0
 11 10  2  0
 12  3  1  0
 13 12  1  0
 14 15  1  0
 14 13  1  0
 15 16  1  0
 16 12  1  0
  2 17  1  0
  4 18  1  0
  7 19  1  0
  8 20  1  0
 10 21  1  0
 12 22  1  0
 13 23  1  0
 13 24  1  0
 14 25  1  0
 14 26  1  0
 15 27  1  0
 15 28  1  0
 16 29  1  0
 16 30  1  0
M  ISO  8  17  14  18  14  19  14  20  14  21  14  22  13  23  13  24  13
M  ISO  6  25  13  26  13  27  13  28  13  29  13  30  13
M  END
>  <minimizedAffinity>  (1) 
-3.80284119

>  <minimizedRMSD>  (1) 
2.65202284

$$$$
