
     RDKit          3D

 39 42  0  0  0  0  0  0  0  0999 V2000
   37.7820   25.4460   34.8430 C   0  0  0  0  0  0  0  0  0  0  0  0
   37.9310   25.5190   36.2110 C   0  0  0  0  0  0  0  0  0  0  0  0
   38.2910   24.4280   36.9760 C   0  0  0  0  0  0  0  0  0  0  0  0
   38.5020   23.2570   36.3520 N   0  0  0  0  0  0  0  0  0  0  0  0
   38.3530   23.1900   35.0060 C   0  0  0  0  0  0  0  0  0  0  0  0
   38.0040   24.2420   34.2500 N   0  0  0  0  0  0  0  0  0  0  0  0
   37.2520   27.9350   32.3660 C   0  0  0  0  0  0  0  0  0  0  0  0
   36.5180   28.5080   33.4260 C   0  0  0  0  0  0  0  0  0  0  0  0
   36.6260   27.6330   34.5050 C   0  0  0  0  0  0  0  0  0  0  0  0
   37.4020   26.6000   34.0490 C   0  0  0  0  0  0  0  0  0  0  0  0
   37.7430   26.8090   32.8150 O   0  0  0  0  0  0  0  0  0  0  0  0
   36.8250   29.8590   30.8070 C   0  0  0  0  0  0  0  0  0  0  0  0
   37.3530   28.5850   31.0830 C   0  0  0  0  0  0  0  0  0  0  0  0
   38.0130   27.9170   30.0410 C   0  0  0  0  0  0  0  0  0  0  0  0
   38.1100   28.5450   28.8110 N   0  0  0  0  0  0  0  0  0  0  0  0
   37.5810   29.7660   28.6200 C   0  0  0  0  0  0  0  0  0  0  0  0
   36.9540   30.4020   29.6010 N   0  0  0  0  0  0  0  0  0  0  0  0
   38.5800   21.9180   34.3100 C   0  0  0  0  0  0  0  0  0  0  0  0
   39.6160   22.1760   33.1930 C   0  0  0  0  0  0  0  0  0  0  0  0
   39.1550   21.5860   31.9620 C   0  0  0  0  0  0  0  0  0  0  0  0
   39.4270   21.6920   30.6410 C   0  0  0  0  0  0  0  0  0  0  0  0
   38.7900   20.9660   29.7000 C   0  0  0  0  0  0  0  0  0  0  0  0
   37.7980   20.0700   30.2140 C   0  0  0  0  0  0  0  0  0  0  0  0
   37.8320   20.3170   32.0250 S   0  0  0  0  0  0  0  0  0  0  0  0
   36.7650   18.9660   29.3170 S   0  0  0  0  0  0  0  0  0  0  0  0
   37.7565   26.4826   36.7120 H   0  0  0  0  0  0  0  0  0  0  0  0
   38.4021   24.5149   38.0669 H   0  0  0  0  0  0  0  0  0  0  0  0
   35.9676   29.4602   33.4047 H   0  0  0  0  0  0  0  0  0  0  0  0
   36.1841   27.7469   35.5059 H   0  0  0  0  0  0  0  0  0  0  0  0
   36.2990   30.4125   31.5988 H   0  0  0  0  0  0  0  0  0  0  0  0
   38.4437   26.9170   30.1976 H   0  0  0  0  0  0  0  0  0  0  0  0
   37.6695   30.2457   27.6341 H   0  0  0  0  0  0  0  0  0  0  0  0
   38.9676   21.1682   35.0154 H   0  0  0  0  0  0  0  0  0  0  0  0
   37.6399   21.5367   33.8848 H   0  0  0  0  0  0  0  0  0  0  0  0
   39.7432   23.2598   33.0546 H   0  0  0  0  0  0  0  0  0  0  0  0
   40.5789   21.7260   33.4762 H   0  0  0  0  0  0  0  0  0  0  0  0
   40.2029   22.4026   30.3200 H   0  0  0  0  0  0  0  0  0  0  0  0
   39.0137   21.0546   28.6266 H   0  0  0  0  0  0  0  0  0  0  0  0
   36.0464   18.1980   30.1948 H   0  0  0  0  0  0  0  0  0  0  0  0
  1  2  2  0
  2  3  1  0
  4  3  2  0
  5  4  1  0
  6  1  1  0
  6  5  2  0
  7 11  1  0
  7  8  2  0
  8  9  1  0
 10  9  2  0
 10  1  1  0
 11 10  1  0
 12 13  2  0
 13  7  1  0
 14 13  1  0
 15 14  2  0
 16 15  1  0
 16 17  2  0
 17 12  1  0
 18  5  1  0
 19 18  1  0
 20 24  1  0
 20 19  1  0
 21 20  2  0
 22 23  2  0
 22 21  1  0
 23 24  1  0
 25 23  1  0
  2 26  1  0
  3 27  1  0
  8 28  1  0
  9 29  1  0
 12 30  1  0
 14 31  1  0
 16 32  1  0
 18 33  1  0
 18 34  1  0
 19 35  1  0
 19 36  1  0
 21 37  1  0
 22 38  1  0
 25 39  1  0
M  ISO  8  26  14  27  14  28  14  29  14  30  14  31  14  32  14  33   8
M  ISO  6  34   8  35   8  36   8  37  14  38  14  39  11
M  END
>  <minimizedAffinity>  (1) 
-4.64445877

>  <minimizedRMSD>  (1) 
1.64642227

$$$$
