
     RDKit          3D

 20 21  0  0  0  0  0  0  0  0999 V2000
   38.2360   22.5100   36.0710 C   0  0  0  0  0  0  0  0  0  0  0  0
   39.5800   22.3260   36.3870 C   0  0  0  0  0  0  0  0  0  0  0  0
   40.0280   22.7170   37.6380 C   0  0  0  0  0  0  0  0  0  0  0  0
   39.1310   23.2680   38.5110 N   0  0  0  0  0  0  0  0  0  0  0  0
   37.8230   23.4360   38.1760 C   0  0  0  0  0  0  0  0  0  0  0  0
   37.3680   23.0620   36.9630 N   0  0  0  0  0  0  0  0  0  0  0  0
   37.6290   22.1460   34.7910 C   0  0  0  0  0  0  0  0  0  0  0  0
   36.6200   21.2020   34.6970 C   0  0  0  0  0  0  0  0  0  0  0  0
   36.2600   21.0810   33.3680 C   0  0  0  0  0  0  0  0  0  0  0  0
   37.0780   21.9700   32.7130 C   0  0  0  0  0  0  0  0  0  0  0  0
   37.8660   22.5730   33.5910 O   0  0  0  0  0  0  0  0  0  0  0  0
   35.1960   20.1460   32.8970 C   0  0  0  0  0  0  0  0  0  0  0  0
   40.2717   21.8792   35.6577 H   0  0  0  0  0  0  0  0  0  0  0  0
   41.0824   22.5871   37.9231 H   0  0  0  0  0  0  0  0  0  0  0  0
   37.1286   23.8821   38.9032 H   0  0  0  0  0  0  0  0  0  0  0  0
   36.1802   20.6438   35.5366 H   0  0  0  0  0  0  0  0  0  0  0  0
   37.0785   22.1526   31.6283 H   0  0  0  0  0  0  0  0  0  0  0  0
   34.6888   19.7003   33.7654 H   0  0  0  0  0  0  0  0  0  0  0  0
   34.4647   20.6990   32.2892 H   0  0  0  0  0  0  0  0  0  0  0  0
   35.6504   19.3497   32.2892 H   0  0  0  0  0  0  0  0  0  0  0  0
  1  2  2  0
  1  6  1  0
  2  3  1  0
  3  4  2  0
  5  4  1  0
  6  5  2  0
  7  1  1  0
  8  7  2  0
  9  8  1  0
 10  9  2  0
 10 11  1  0
 11  7  1  0
 12  9  1  0
  2 13  1  0
  3 14  1  0
  5 15  1  0
  8 16  1  0
 10 17  1  0
 12 18  1  0
 12 19  1  0
 12 20  1  0
M  ISO  8  13  14  14  14  15  14  16  14  17  14  18   8  19   8  20   8
M  END
>  <minimizedAffinity>  (1) 
-3.77749848

>  <minimizedRMSD>  (1) 
0.723632097

$$$$
