
     RDKit          3D

 37 40  0  0  0  0  0  0  0  0999 V2000
   37.7370   22.2280   34.8100 C   0  0  0  0  0  0  0  0  0  0  0  0
   36.6500   21.3800   34.7130 C   0  0  0  0  0  0  0  0  0  0  0  0
   36.2960   21.2780   33.3850 C   0  0  0  0  0  0  0  0  0  0  0  0
   37.1920   22.0750   32.7260 C   0  0  0  0  0  0  0  0  0  0  0  0
   38.0390   22.6260   33.6140 O   0  0  0  0  0  0  0  0  0  0  0  0
   38.3580   22.5470   36.0980 C   0  0  0  0  0  0  0  0  0  0  0  0
   39.6850   22.3050   36.4140 C   0  0  0  0  0  0  0  0  0  0  0  0
   40.1410   22.6570   37.6720 C   0  0  0  0  0  0  0  0  0  0  0  0
   39.2830   23.2250   38.5530 N   0  0  0  0  0  0  0  0  0  0  0  0
   37.9910   23.4540   38.2280 C   0  0  0  0  0  0  0  0  0  0  0  0
   37.5410   23.1150   37.0100 N   0  0  0  0  0  0  0  0  0  0  0  0
   35.1780   20.4700   32.8130 C   0  0  0  0  0  0  0  0  0  0  0  0
   35.4100   18.9780   32.9710 C   0  0  0  0  0  0  0  0  0  0  0  0
   35.9500   18.3670   31.7330 C   0  0  0  0  0  0  0  0  0  0  0  0
   36.1450   19.0740   30.5620 C   0  0  0  0  0  0  0  0  0  0  0  0
   36.6490   18.2110   29.6380 N   0  0  0  0  0  0  0  0  0  0  0  0
   36.7600   17.0080   30.2320 C   0  0  0  0  0  0  0  0  0  0  0  0
   37.2250   15.8060   29.6950 C   0  0  0  0  0  0  0  0  0  0  0  0
   37.2380   14.6980   30.5240 C   0  0  0  0  0  0  0  0  0  0  0  0
   36.8130   14.7420   31.8350 C   0  0  0  0  0  0  0  0  0  0  0  0
   36.3510   15.9460   32.3580 C   0  0  0  0  0  0  0  0  0  0  0  0
   36.3310   17.0620   31.5480 C   0  0  0  0  0  0  0  0  0  0  0  0
   36.1522   20.8729   35.5527 H   0  0  0  0  0  0  0  0  0  0  0  0
   37.2160   22.2396   31.6387 H   0  0  0  0  0  0  0  0  0  0  0  0
   40.3618   21.8428   35.6803 H   0  0  0  0  0  0  0  0  0  0  0  0
   41.1891   22.4775   37.9537 H   0  0  0  0  0  0  0  0  0  0  0  0
   37.3113   23.9163   38.9589 H   0  0  0  0  0  0  0  0  0  0  0  0
   35.0846   20.7026   31.7419 H   0  0  0  0  0  0  0  0  0  0  0  0
   34.2596   20.7289   33.3602 H   0  0  0  0  0  0  0  0  0  0  0  0
   36.1263   18.8145   33.7897 H   0  0  0  0  0  0  0  0  0  0  0  0
   34.4416   18.5043   33.1899 H   0  0  0  0  0  0  0  0  0  0  0  0
   35.9315   20.1416   30.4049 H   0  0  0  0  0  0  0  0  0  0  0  0
   36.8991   18.4365   28.6646 H   0  0  0  0  0  0  0  0  0  0  0  0
   37.5682   15.7421   28.6519 H   0  0  0  0  0  0  0  0  0  0  0  0
   37.6027   13.7420   30.1201 H   0  0  0  0  0  0  0  0  0  0  0  0
   36.8388   13.8369   32.4595 H   0  0  0  0  0  0  0  0  0  0  0  0
   36.0072   16.0066   33.4011 H   0  0  0  0  0  0  0  0  0  0  0  0
  1  6  1  0
  2  1  2  0
  3  2  1  0
  4  3  2  0
  4  5  1  0
  5  1  1  0
  6  7  2  0
  6 11  1  0
  7  8  1  0
  8  9  2  0
 10  9  1  0
 11 10  2  0
 12 13  1  0
 12  3  1  0
 14 13  1  0
 15 14  2  0
 16 17  1  0
 16 15  1  0
 17 22  2  0
 18 17  1  0
 18 19  2  0
 19 20  1  0
 20 21  2  0
 22 14  1  0
 22 21  1  0
  2 23  1  0
  4 24  1  0
  7 25  1  0
  8 26  1  0
 10 27  1  0
 12 28  1  0
 12 29  1  0
 13 30  1  0
 13 31  1  0
 15 32  1  0
 16 33  1  0
 18 34  1  0
 19 35  1  0
 20 36  1  0
 21 37  1  0
M  ISO  8  23  14  24  14  25  14  26  14  27  14  28   8  29   8  30   8
M  ISO  7  31   8  32  14  33   9  34  14  35  14  36  14  37  14
M  END
>  <minimizedAffinity>  (1) 
-5.10238314

>  <minimizedRMSD>  (1) 
2.15851974

$$$$
