
     RDKit          3D

 39 42  0  0  0  0  0  0  0  0999 V2000
   37.7140   22.2700   34.8240 C   0  0  0  0  0  0  0  0  0  0  0  0
   36.6580   21.3840   34.7080 C   0  0  0  0  0  0  0  0  0  0  0  0
   36.2670   21.2940   33.4060 C   0  0  0  0  0  0  0  0  0  0  0  0
   37.1280   22.1590   32.7540 C   0  0  0  0  0  0  0  0  0  0  0  0
   37.9650   22.7130   33.6330 O   0  0  0  0  0  0  0  0  0  0  0  0
   38.3400   22.5680   36.1060 C   0  0  0  0  0  0  0  0  0  0  0  0
   39.6840   22.3040   36.3990 C   0  0  0  0  0  0  0  0  0  0  0  0
   40.1760   22.6260   37.6490 C   0  0  0  0  0  0  0  0  0  0  0  0
   39.3270   23.1910   38.5450 N   0  0  0  0  0  0  0  0  0  0  0  0
   38.0360   23.4370   38.2440 C   0  0  0  0  0  0  0  0  0  0  0  0
   37.5320   23.1300   37.0280 N   0  0  0  0  0  0  0  0  0  0  0  0
   35.1800   20.4730   32.7950 C   0  0  0  0  0  0  0  0  0  0  0  0
   35.4850   18.9930   32.8690 C   0  0  0  0  0  0  0  0  0  0  0  0
   36.0170   18.4890   31.6070 C   0  0  0  0  0  0  0  0  0  0  0  0
   36.2360   19.3380   30.5150 C   0  0  0  0  0  0  0  0  0  0  0  0
   36.7150   18.9870   29.2790 C   0  0  0  0  0  0  0  0  0  0  0  0
   37.0130   17.6510   29.0930 C   0  0  0  0  0  0  0  0  0  0  0  0
   36.8250   16.7510   30.1210 C   0  0  0  0  0  0  0  0  0  0  0  0
   37.1490   15.4270   29.8670 C   0  0  0  0  0  0  0  0  0  0  0  0
   36.9680   14.5210   30.8920 C   0  0  0  0  0  0  0  0  0  0  0  0
   36.4820   14.9160   32.1270 C   0  0  0  0  0  0  0  0  0  0  0  0
   36.1690   16.2450   32.3430 C   0  0  0  0  0  0  0  0  0  0  0  0
   36.3380   17.1740   31.3420 C   0  0  0  0  0  0  0  0  0  0  0  0
   36.2014   20.8334   35.5437 H   0  0  0  0  0  0  0  0  0  0  0  0
   37.1231   22.3599   31.6725 H   0  0  0  0  0  0  0  0  0  0  0  0
   40.3393   21.8461   35.6434 H   0  0  0  0  0  0  0  0  0  0  0  0
   41.2262   22.4301   37.9110 H   0  0  0  0  0  0  0  0  0  0  0  0
   37.3820   23.8951   39.0006 H   0  0  0  0  0  0  0  0  0  0  0  0
   35.0668   20.7609   31.7394 H   0  0  0  0  0  0  0  0  0  0  0  0
   34.2531   20.6598   33.3572 H   0  0  0  0  0  0  0  0  0  0  0  0
   36.2267   18.8209   33.6629 H   0  0  0  0  0  0  0  0  0  0  0  0
   34.5474   18.4594   33.0840 H   0  0  0  0  0  0  0  0  0  0  0  0
   35.9980   20.4014   30.6650 H   0  0  0  0  0  0  0  0  0  0  0  0
   36.8544   19.7290   28.4790 H   0  0  0  0  0  0  0  0  0  0  0  0
   37.4008   17.3045   28.1237 H   0  0  0  0  0  0  0  0  0  0  0  0
   37.5353   15.1111   28.8867 H   0  0  0  0  0  0  0  0  0  0  0  0
   37.2151   13.4623   30.7244 H   0  0  0  0  0  0  0  0  0  0  0  0
   36.3459   14.1773   32.9306 H   0  0  0  0  0  0  0  0  0  0  0  0
   35.7819   16.5624   33.3225 H   0  0  0  0  0  0  0  0  0  0  0  0
  1  6  1  0
  2  1  2  0
  3  2  1  0
  4  3  2  0
  4  5  1  0
  5  1  1  0
  6  7  2  0
  6 11  1  0
  7  8  1  0
  8  9  2  0
 10  9  1  0
 11 10  2  0
 12 13  1  0
 12  3  1  0
 14 13  1  0
 15 14  2  0
 16 15  1  0
 17 16  2  0
 17 18  1  0
 18 23  2  0
 19 18  1  0
 19 20  2  0
 20 21  1  0
 21 22  2  0
 23 14  1  0
 23 22  1  0
  2 24  1  0
  4 25  1  0
  7 26  1  0
  8 27  1  0
 10 28  1  0
 12 29  1  0
 12 30  1  0
 13 31  1  0
 13 32  1  0
 15 33  1  0
 16 34  1  0
 17 35  1  0
 19 36  1  0
 20 37  1  0
 21 38  1  0
 22 39  1  0
M  ISO  8  24  14  25  14  26  14  27  14  28  14  29   8  30   8  31   8
M  ISO  8  32   8  33  14  34  14  35  14  36  14  37  14  38  14  39  14
M  END
>  <minimizedAffinity>  (1) 
-5.41778421

>  <minimizedRMSD>  (1) 
2.35777903

$$$$
