
     RDKit          3D

 42 45  0  0  1  0  0  0  0  0999 V2000
   38.9790   23.7920   35.3680 C   0  0  1  0  0  0  0  0  0  0  0  0
   38.2900   24.8850   36.1050 C   0  0  0  0  0  0  0  0  0  0  0  0
   37.6110   24.1630   37.2400 C   0  0  0  0  0  0  0  0  0  0  0  0
   38.6120   23.1470   37.6630 C   0  0  0  0  0  0  0  0  0  0  0  0
   39.4350   22.8260   36.4460 C   0  0  2  0  0  0  0  0  0  0  0  0
   37.7130   23.6680   33.2470 C   0  0  0  0  0  0  0  0  0  0  0  0
   36.8980   22.7930   32.5470 C   0  0  0  0  0  0  0  0  0  0  0  0
   36.8250   21.6820   33.3460 N   0  0  0  0  0  0  0  0  0  0  0  0
   37.5670   21.9370   34.4370 C   0  0  0  0  0  0  0  0  0  0  0  0
   38.1250   23.1510   34.4000 N   0  0  0  0  0  0  0  0  0  0  0  0
   38.0910   25.0110   32.7870 C   0  0  0  0  0  0  0  0  0  0  0  0
   39.3310   25.2070   32.1400 C   0  0  0  0  0  0  0  0  0  0  0  0
   39.6230   26.5210   31.7280 C   0  0  0  0  0  0  0  0  0  0  0  0
   38.7280   27.4970   31.9650 N   0  0  0  0  0  0  0  0  0  0  0  0
   37.5590   27.2640   32.5850 C   0  0  0  0  0  0  0  0  0  0  0  0
   37.1990   26.0220   33.0160 N   0  0  0  0  0  0  0  0  0  0  0  0
   40.7980   22.9690   36.8130 N   0  0  0  0  0  0  0  0  0  0  0  0
   41.2650   21.6840   37.3030 C   0  0  0  0  0  0  0  0  0  0  0  0
   42.6840   21.5120   36.8540 C   0  0  0  0  0  0  0  0  0  0  0  0
   42.7710   22.3770   35.6370 C   0  0  0  0  0  0  0  0  0  0  0  0
   41.7080   23.4600   35.8520 C   0  0  0  0  0  0  0  0  0  0  0  0
   39.8200   24.1778   34.7732 H   0  0  0  0  0  0  0  0  0  0  0  0
   39.0134   25.6221   36.4835 H   0  0  0  0  0  0  0  0  0  0  0  0
   37.5893   25.4535   35.4758 H   0  0  0  0  0  0  0  0  0  0  0  0
   37.3827   24.8550   38.0640 H   0  0  0  0  0  0  0  0  0  0  0  0
   36.6496   23.7166   36.9459 H   0  0  0  0  0  0  0  0  0  0  0  0
   39.2532   23.5537   38.4589 H   0  0  0  0  0  0  0  0  0  0  0  0
   38.1211   22.2463   38.0602 H   0  0  0  0  0  0  0  0  0  0  0  0
   39.3134   21.8027   36.0611 H   0  0  0  0  0  0  0  0  0  0  0  0
   36.4180   22.9538   31.5704 H   0  0  0  0  0  0  0  0  0  0  0  0
   37.7001   21.2270   35.2666 H   0  0  0  0  0  0  0  0  0  0  0  0
   40.0316   24.3768   31.9672 H   0  0  0  0  0  0  0  0  0  0  0  0
   40.5714   26.7470   31.2185 H   0  0  0  0  0  0  0  0  0  0  0  0
   36.8688   28.1044   32.7504 H   0  0  0  0  0  0  0  0  0  0  0  0
   41.2146   21.6615   38.4016 H   0  0  0  0  0  0  0  0  0  0  0  0
   40.6362   20.8711   36.9107 H   0  0  0  0  0  0  0  0  0  0  0  0
   43.3860   21.8523   37.6295 H   0  0  0  0  0  0  0  0  0  0  0  0
   42.9465   20.4626   36.6541 H   0  0  0  0  0  0  0  0  0  0  0  0
   42.5526   21.7938   34.7303 H   0  0  0  0  0  0  0  0  0  0  0  0
   43.7762   22.8022   35.4998 H   0  0  0  0  0  0  0  0  0  0  0  0
   42.1801   24.3837   36.2179 H   0  0  0  0  0  0  0  0  0  0  0  0
   41.1915   23.6919   34.9089 H   0  0  0  0  0  0  0  0  0  0  0  0
  1  2  1  0
  1  5  1  0
  2  3  1  0
  3  4  1  0
  5 17  1  0
  5  4  1  0
  6 10  1  0
  7  6  2  0
  7  8  1  0
  8  9  2  0
 10  9  1  0
 10  1  1  0
 11 16  1  0
 11  6  1  0
 12 11  2  0
 13 14  2  0
 13 12  1  0
 14 15  1  0
 15 16  2  0
 17 18  1  0
 19 18  1  0
 20 21  1  0
 20 19  1  0
 21 17  1  0
  1 22  1  6
  2 23  1  0
  2 24  1  0
  3 25  1  0
  3 26  1  0
  4 27  1  0
  4 28  1  0
  5 29  1  6
  7 30  1  0
  9 31  1  0
 12 32  1  0
 13 33  1  0
 15 34  1  0
 18 35  1  0
 18 36  1  0
 19 37  1  0
 19 38  1  0
 20 39  1  0
 20 40  1  0
 21 41  1  0
 21 42  1  0
M  ISO  8  22  13  23  13  24  13  25  13  26  13  27  13  28  13  29  13
M  ISO  8  30  14  31  14  32  14  33  14  34  14  35  13  36  13  37  13
M  ISO  5  38  13  39  13  40  13  41  13  42  13
M  END
>  <minimizedAffinity>  (1) 
-4.84478378

>  <minimizedRMSD>  (1) 
0.752883971

$$$$
