
     RDKit          3D

 38 40  0  0  0  0  0  0  0  0999 V2000
   38.0670   24.4420   34.8910 C   0  0  0  0  0  0  0  0  0  0  0  0
   38.0620   23.5520   33.8170 C   0  0  0  0  0  0  0  0  0  0  0  0
   37.6250   24.2320   32.7080 C   0  0  0  0  0  0  0  0  0  0  0  0
   37.3770   25.5180   33.1500 C   0  0  0  0  0  0  0  0  0  0  0  0
   37.6580   25.5820   34.4580 O   0  0  0  0  0  0  0  0  0  0  0  0
   38.4880   24.0100   36.2220 C   0  0  0  0  0  0  0  0  0  0  0  0
   39.5740   23.1930   36.4830 C   0  0  0  0  0  0  0  0  0  0  0  0
   39.8630   22.8600   37.7990 C   0  0  0  0  0  0  0  0  0  0  0  0
   39.0690   23.3480   38.7880 N   0  0  0  0  0  0  0  0  0  0  0  0
   38.0170   24.1420   38.5160 C   0  0  0  0  0  0  0  0  0  0  0  0
   37.7170   24.4790   37.2470 N   0  0  0  0  0  0  0  0  0  0  0  0
   37.4410   23.7350   31.3120 C   0  0  0  0  0  0  0  0  0  0  0  0
   36.2510   22.8100   31.1810 C   0  0  0  0  0  0  0  0  0  0  0  0
   36.4230   21.6890   32.0280 N   0  0  0  0  0  0  0  0  0  0  0  0
   37.1340   20.6370   31.3550 C   0  0  0  0  0  0  0  0  0  0  0  0
   36.0840   19.6780   30.7900 C   0  0  0  0  0  0  0  0  0  0  0  0
   35.5220   18.8930   31.9340 C   0  0  0  0  0  0  0  0  0  0  0  0
   35.3580   19.7890   33.1410 C   0  0  0  0  0  0  0  0  0  0  0  0
   35.2270   21.2210   32.6520 C   0  0  0  0  0  0  0  0  0  0  0  0
   38.3562   22.4927   33.8526 H   0  0  0  0  0  0  0  0  0  0  0  0
   37.0101   26.3499   32.5309 H   0  0  0  0  0  0  0  0  0  0  0  0
   40.1982   22.8136   35.6606 H   0  0  0  0  0  0  0  0  0  0  0  0
   40.7197   22.2125   38.0373 H   0  0  0  0  0  0  0  0  0  0  0  0
   37.3945   24.5204   39.3402 H   0  0  0  0  0  0  0  0  0  0  0  0
   37.2924   24.5981   30.6465 H   0  0  0  0  0  0  0  0  0  0  0  0
   38.3408   23.1647   31.0378 H   0  0  0  0  0  0  0  0  0  0  0  0
   35.3359   23.3485   31.4683 H   0  0  0  0  0  0  0  0  0  0  0  0
   36.1671   22.4695   30.1384 H   0  0  0  0  0  0  0  0  0  0  0  0
   37.7426   21.0541   30.5392 H   0  0  0  0  0  0  0  0  0  0  0  0
   37.8105   20.1148   32.0476 H   0  0  0  0  0  0  0  0  0  0  0  0
   35.2826   20.2480   30.2973 H   0  0  0  0  0  0  0  0  0  0  0  0
   36.5369   19.0053   30.0468 H   0  0  0  0  0  0  0  0  0  0  0  0
   34.5422   18.4826   31.6484 H   0  0  0  0  0  0  0  0  0  0  0  0
   36.2104   18.0720   32.1830 H   0  0  0  0  0  0  0  0  0  0  0  0
   34.4545   19.5014   33.6987 H   0  0  0  0  0  0  0  0  0  0  0  0
   36.2273   19.6923   33.8080 H   0  0  0  0  0  0  0  0  0  0  0  0
   34.9984   21.8692   33.5108 H   0  0  0  0  0  0  0  0  0  0  0  0
   34.4216   21.2500   31.9033 H   0  0  0  0  0  0  0  0  0  0  0  0
  1  6  1  0
  2  1  2  0
  3  4  2  0
  3  2  1  0
  4  5  1  0
  5  1  1  0
  6  7  2  0
  6 11  1  0
  7  8  1  0
  8  9  2  0
 10  9  1  0
 11 10  2  0
 12  3  1  0
 13 12  1  0
 13 14  1  0
 14 19  1  0
 15 14  1  0
 16 15  1  0
 16 17  1  0
 17 18  1  0
 19 18  1  0
  2 20  1  0
  4 21  1  0
  7 22  1  0
  8 23  1  0
 10 24  1  0
 12 25  1  0
 12 26  1  0
 13 27  1  0
 13 28  1  0
 15 29  1  0
 15 30  1  0
 16 31  1  0
 16 32  1  0
 17 33  1  0
 17 34  1  0
 18 35  1  0
 18 36  1  0
 19 37  1  0
 19 38  1  0
M  ISO  8  20  14  21  14  22  14  23  14  24  14  25   8  26   8  27   8
M  ISO  8  28   8  29  13  30  13  31  13  32  13  33  13  34  13  35  13
M  ISO  3  36  13  37  13  38  13
M  END
>  <minimizedAffinity>  (1) 
-4.86013699

>  <minimizedRMSD>  (1) 
2.85763144

$$$$
