
     RDKit          3D

 24 25  0  0  0  0  0  0  0  0999 V2000
   37.6420   22.1350   34.7580 C   0  0  0  0  0  0  0  0  0  0  0  0
   36.5630   21.2570   34.6880 C   0  0  0  0  0  0  0  0  0  0  0  0
   36.2080   21.0830   33.3830 C   0  0  0  0  0  0  0  0  0  0  0  0
   37.1000   21.8780   32.6910 C   0  0  0  0  0  0  0  0  0  0  0  0
   37.9360   22.4850   33.5580 O   0  0  0  0  0  0  0  0  0  0  0  0
   38.2240   22.4980   36.0350 C   0  0  0  0  0  0  0  0  0  0  0  0
   39.5720   22.3030   36.3630 C   0  0  0  0  0  0  0  0  0  0  0  0
   40.0390   22.6810   37.6080 C   0  0  0  0  0  0  0  0  0  0  0  0
   39.1450   23.2360   38.4800 N   0  0  0  0  0  0  0  0  0  0  0  0
   37.8430   23.4170   38.1470 C   0  0  0  0  0  0  0  0  0  0  0  0
   37.3990   23.0500   36.9410 N   0  0  0  0  0  0  0  0  0  0  0  0
   35.1370   20.2590   32.7750 C   0  0  0  0  0  0  0  0  0  0  0  0
   35.4450   18.7750   32.8300 C   0  0  0  0  0  0  0  0  0  0  0  0
   34.5420   18.1130   32.0300 O   0  0  0  0  0  0  0  0  0  0  0  0
   36.0742   20.7792   35.5498 H   0  0  0  0  0  0  0  0  0  0  0  0
   37.1250   21.9981   31.5979 H   0  0  0  0  0  0  0  0  0  0  0  0
   40.2573   21.8501   35.6314 H   0  0  0  0  0  0  0  0  0  0  0  0
   41.0936   22.5400   37.8871 H   0  0  0  0  0  0  0  0  0  0  0  0
   37.1496   23.8676   38.8723 H   0  0  0  0  0  0  0  0  0  0  0  0
   35.0178   20.5559   31.7226 H   0  0  0  0  0  0  0  0  0  0  0  0
   34.2153   20.4309   33.3502 H   0  0  0  0  0  0  0  0  0  0  0  0
   36.4668   18.5941   32.4650 H   0  0  0  0  0  0  0  0  0  0  0  0
   35.3691   18.4118   33.8655 H   0  0  0  0  0  0  0  0  0  0  0  0
   33.8878   17.6334   32.5976 H   0  0  0  0  0  0  0  0  0  0  0  0
  1  6  1  0
  2  1  2  0
  3  2  1  0
  4  3  2  0
  4  5  1  0
  5  1  1  0
  6  7  2  0
  6 11  1  0
  7  8  1  0
  8  9  2  0
 10  9  1  0
 11 10  2  0
 12 13  1  0
 12  3  1  0
 14 13  1  0
  2 15  1  0
  4 16  1  0
  7 17  1  0
  8 18  1  0
 10 19  1  0
 12 20  1  0
 12 21  1  0
 13 22  1  0
 13 23  1  0
 14 24  1  0
M  ISO  8  15  14  16  14  17  14  18  14  19  14  20   8  21   8  22   8
M  ISO  2  23   8  24   3
M  END
>  <minimizedAffinity>  (1) 
-4.38583231

>  <minimizedRMSD>  (1) 
0.0840739012

$$$$
