
     RDKit          3D

 36 38  0  0  0  0  0  0  0  0999 V2000
   37.6250   22.3110   34.6790 C   0  0  0  0  0  0  0  0  0  0  0  0
   36.6600   21.3240   34.5260 C   0  0  0  0  0  0  0  0  0  0  0  0
   36.2590   21.2880   33.2090 C   0  0  0  0  0  0  0  0  0  0  0  0
   37.0210   22.2800   32.6150 C   0  0  0  0  0  0  0  0  0  0  0  0
   37.8170   22.8630   33.5180 O   0  0  0  0  0  0  0  0  0  0  0  0
   38.2360   22.5820   35.9680 C   0  0  0  0  0  0  0  0  0  0  0  0
   39.5570   22.3210   36.2850 C   0  0  0  0  0  0  0  0  0  0  0  0
   40.0520   22.6120   37.5380 C   0  0  0  0  0  0  0  0  0  0  0  0
   39.2050   23.1570   38.4410 N   0  0  0  0  0  0  0  0  0  0  0  0
   37.9010   23.4130   38.1240 C   0  0  0  0  0  0  0  0  0  0  0  0
   37.4190   23.1280   36.8980 N   0  0  0  0  0  0  0  0  0  0  0  0
   35.2640   20.4210   32.5470 C   0  0  0  0  0  0  0  0  0  0  0  0
   35.3160   19.0050   33.0550 C   0  0  0  0  0  0  0  0  0  0  0  0
   35.8270   18.0050   32.0750 C   0  0  0  0  0  0  0  0  0  0  0  0
   37.2970   18.0760   31.8170 C   0  0  0  0  0  0  0  0  0  0  0  0
   37.5410   16.7200   31.1590 C   0  0  0  0  0  0  0  0  0  0  0  0
   36.7570   15.8070   32.0810 C   0  0  0  0  0  0  0  0  0  0  0  0
   35.4780   16.5850   32.3940 C   0  0  0  0  0  0  0  0  0  0  0  0
   36.2775   20.6753   35.3278 H   0  0  0  0  0  0  0  0  0  0  0  0
   36.9777   22.5506   31.5497 H   0  0  0  0  0  0  0  0  0  0  0  0
   40.2200   21.8761   35.5284 H   0  0  0  0  0  0  0  0  0  0  0  0
   41.1018   22.4077   37.7954 H   0  0  0  0  0  0  0  0  0  0  0  0
   37.2359   23.8574   38.8790 H   0  0  0  0  0  0  0  0  0  0  0  0
   35.4620   20.4167   31.4650 H   0  0  0  0  0  0  0  0  0  0  0  0
   34.2646   20.8231   32.7695 H   0  0  0  0  0  0  0  0  0  0  0  0
   35.9707   18.9828   33.9387 H   0  0  0  0  0  0  0  0  0  0  0  0
   34.2772   18.7180   33.2754 H   0  0  0  0  0  0  0  0  0  0  0  0
   35.2933   18.3064   31.1616 H   0  0  0  0  0  0  0  0  0  0  0  0
   37.5490   18.9053   31.1397 H   0  0  0  0  0  0  0  0  0  0  0  0
   37.9070   18.2623   32.7132 H   0  0  0  0  0  0  0  0  0  0  0  0
   37.1472   16.6923   30.1323 H   0  0  0  0  0  0  0  0  0  0  0  0
   38.6025   16.4526   31.0506 H   0  0  0  0  0  0  0  0  0  0  0  0
   36.5212   14.8570   31.5790 H   0  0  0  0  0  0  0  0  0  0  0  0
   37.3204   15.5458   32.9890 H   0  0  0  0  0  0  0  0  0  0  0  0
   35.2059   16.4786   33.4545 H   0  0  0  0  0  0  0  0  0  0  0  0
   34.6127   16.2236   31.8190 H   0  0  0  0  0  0  0  0  0  0  0  0
  1  6  1  0
  2  1  2  0
  3  2  1  0
  4  3  2  0
  4  5  1  0
  5  1  1  0
  6  7  2  0
  6 11  1  0
  7  8  1  0
  8  9  2  0
 10  9  1  0
 11 10  2  0
 12 13  1  0
 12  3  1  0
 14 18  1  0
 14 13  1  0
 15 14  1  0
 16 15  1  0
 16 17  1  0
 17 18  1  0
  2 19  1  0
  4 20  1  0
  7 21  1  0
  8 22  1  0
 10 23  1  0
 12 24  1  0
 12 25  1  0
 13 26  1  0
 13 27  1  0
 14 28  1  0
 15 29  1  0
 15 30  1  0
 16 31  1  0
 16 32  1  0
 17 33  1  0
 17 34  1  0
 18 35  1  0
 18 36  1  0
M  ISO  8  19  14  20  14  21  14  22  14  23  14  24   8  25   8  26   8
M  ISO  8  27   8  28  13  29  13  30  13  31  13  32  13  33  13  34  13
M  ISO  2  35  13  36  13
M  END
>  <minimizedAffinity>  (1) 
-4.63021994

>  <minimizedRMSD>  (1) 
1.45614922

$$$$
