
     RDKit          3D

 42 46  0  0  0  0  0  0  0  0999 V2000
   35.4720   18.8940   32.6390 C   0  0  0  0  0  0  0  0  0  0  0  0
   36.2320   18.5110   31.4550 C   0  0  0  0  0  0  0  0  0  0  0  0
   36.6780   17.3190   31.0600 N   0  0  0  0  0  0  0  0  0  0  0  0
   37.3110   17.4060   29.9360 O   0  0  0  0  0  0  0  0  0  0  0  0
   37.3240   18.6650   29.5130 C   0  0  0  0  0  0  0  0  0  0  0  0
   36.6470   19.3150   30.4830 N   0  0  0  0  0  0  0  0  0  0  0  0
   37.9880   18.9840   28.2620 C   0  0  0  0  0  0  0  0  0  0  0  0
   39.2810   19.3110   28.1950 N   0  0  0  0  0  0  0  0  0  0  0  0
   39.9160   19.6090   27.0570 C   0  0  0  0  0  0  0  0  0  0  0  0
   39.2990   19.6050   25.8700 N   0  0  0  0  0  0  0  0  0  0  0  0
   37.9960   19.2860   25.8410 C   0  0  0  0  0  0  0  0  0  0  0  0
   37.3280   19.2710   24.6350 C   0  0  0  0  0  0  0  0  0  0  0  0
   35.9890   18.9500   24.5580 C   0  0  0  0  0  0  0  0  0  0  0  0
   35.3640   18.6480   25.7440 C   0  0  0  0  0  0  0  0  0  0  0  0
   36.0430   18.6700   26.9240 C   0  0  0  0  0  0  0  0  0  0  0  0
   37.3710   18.9840   27.0320 C   0  0  0  0  0  0  0  0  0  0  0  0
   35.0740   20.3880   32.6140 C   0  0  0  0  0  0  0  0  0  0  0  0
   37.5530   22.2140   34.6650 C   0  0  0  0  0  0  0  0  0  0  0  0
   36.5410   21.2810   34.5510 C   0  0  0  0  0  0  0  0  0  0  0  0
   36.1110   21.2090   33.2520 C   0  0  0  0  0  0  0  0  0  0  0  0
   36.9080   22.1340   32.6130 C   0  0  0  0  0  0  0  0  0  0  0  0
   37.7490   22.7080   33.4820 O   0  0  0  0  0  0  0  0  0  0  0  0
   38.2060   22.5080   35.9300 C   0  0  0  0  0  0  0  0  0  0  0  0
   39.5460   22.2570   36.2140 C   0  0  0  0  0  0  0  0  0  0  0  0
   40.0460   22.5820   37.4540 C   0  0  0  0  0  0  0  0  0  0  0  0
   39.2180   23.1390   38.3690 N   0  0  0  0  0  0  0  0  0  0  0  0
   37.9240   23.3770   38.0850 C   0  0  0  0  0  0  0  0  0  0  0  0
   37.4030   23.0670   36.8700 N   0  0  0  0  0  0  0  0  0  0  0  0
   34.5580   18.2838   32.6870 H   0  0  0  0  0  0  0  0  0  0  0  0
   36.1089   18.7269   33.5202 H   0  0  0  0  0  0  0  0  0  0  0  0
   40.9846   19.8668   27.0981 H   0  0  0  0  0  0  0  0  0  0  0  0
   37.8751   19.5206   23.7139 H   0  0  0  0  0  0  0  0  0  0  0  0
   35.4503   18.9364   23.5990 H   0  0  0  0  0  0  0  0  0  0  0  0
   34.2962   18.3838   25.7400 H   0  0  0  0  0  0  0  0  0  0  0  0
   35.4928   18.4211   27.8434 H   0  0  0  0  0  0  0  0  0  0  0  0
   34.9481   20.7113   31.5702 H   0  0  0  0  0  0  0  0  0  0  0  0
   34.1315   20.5136   33.1671 H   0  0  0  0  0  0  0  0  0  0  0  0
   36.1388   20.6829   35.3820 H   0  0  0  0  0  0  0  0  0  0  0  0
   36.8598   22.3679   31.5392 H   0  0  0  0  0  0  0  0  0  0  0  0
   40.1988   21.8030   35.4539 H   0  0  0  0  0  0  0  0  0  0  0  0
   41.1017   22.3923   37.6980 H   0  0  0  0  0  0  0  0  0  0  0  0
   37.2773   23.8305   38.8505 H   0  0  0  0  0  0  0  0  0  0  0  0
  2  1  1  0
  3  2  2  0
  4  3  1  0
  5  4  1  0
  5  6  2  0
  6  2  1  0
  7  5  1  0
  8  7  2  0
  9  8  1  0
 10  9  2  0
 11 10  1  0
 11 16  2  0
 12 11  1  0
 13 12  2  0
 13 14  1  0
 14 15  2  0
 15 16  1  0
 16  7  1  0
 17  1  1  0
 17 20  1  0
 18 23  1  0
 19 18  2  0
 20 19  1  0
 21 20  2  0
 21 22  1  0
 22 18  1  0
 23 24  2  0
 23 28  1  0
 24 25  1  0
 25 26  2  0
 27 26  1  0
 28 27  2  0
  1 29  1  0
  1 30  1  0
  9 31  1  0
 12 32  1  0
 13 33  1  0
 14 34  1  0
 15 35  1  0
 17 36  1  0
 17 37  1  0
 19 38  1  0
 21 39  1  0
 24 40  1  0
 25 41  1  0
 27 42  1  0
M  ISO  8  29   8  30   8  31  14  32  14  33  14  34  14  35  14  36   8
M  ISO  6  37   8  38  14  39  14  40  14  41  14  42  14
M  END
>  <minimizedAffinity>  (1) 
-5.54863882

>  <minimizedRMSD>  (1) 
1.55678356

$$$$
