
     RDKit          3D

 41 44  0  0  0  0  0  0  0  0999 V2000
   35.1590   20.2530   32.7570 C   0  0  0  0  0  0  0  0  0  0  0  0
   37.6120   22.1330   34.7840 C   0  0  0  0  0  0  0  0  0  0  0  0
   36.5850   21.2350   34.6730 C   0  0  0  0  0  0  0  0  0  0  0  0
   36.2040   21.0920   33.3680 C   0  0  0  0  0  0  0  0  0  0  0  0
   37.0670   21.9570   32.7010 C   0  0  0  0  0  0  0  0  0  0  0  0
   37.8830   22.5540   33.5710 O   0  0  0  0  0  0  0  0  0  0  0  0
   38.2270   22.4920   36.0420 C   0  0  0  0  0  0  0  0  0  0  0  0
   39.5520   22.3070   36.3650 C   0  0  0  0  0  0  0  0  0  0  0  0
   40.0240   22.6950   37.6050 C   0  0  0  0  0  0  0  0  0  0  0  0
   39.1630   23.2480   38.4730 N   0  0  0  0  0  0  0  0  0  0  0  0
   37.8530   23.4300   38.1540 C   0  0  0  0  0  0  0  0  0  0  0  0
   37.3910   23.0550   36.9490 N   0  0  0  0  0  0  0  0  0  0  0  0
   35.5660   18.7690   32.7480 C   0  0  0  0  0  0  0  0  0  0  0  0
   36.1370   18.3860   31.4530 C   0  0  0  0  0  0  0  0  0  0  0  0
   36.7050   17.2050   31.1180 N   0  0  0  0  0  0  0  0  0  0  0  0
   37.1020   17.2310   29.8650 O   0  0  0  0  0  0  0  0  0  0  0  0
   36.8110   18.4070   29.3550 C   0  0  0  0  0  0  0  0  0  0  0  0
   36.2100   19.1390   30.3250 N   0  0  0  0  0  0  0  0  0  0  0  0
   37.6020   19.6430   25.4480 C   0  0  0  0  0  0  0  0  0  0  0  0
   36.3630   19.0570   25.7160 C   0  0  0  0  0  0  0  0  0  0  0  0
   36.1170   18.6500   27.0270 C   0  0  0  0  0  0  0  0  0  0  0  0
   37.0870   18.8390   27.9890 C   0  0  0  0  0  0  0  0  0  0  0  0
   38.3000   19.4220   27.6890 C   0  0  0  0  0  0  0  0  0  0  0  0
   38.5860   19.8400   26.4060 C   0  0  0  0  0  0  0  0  0  0  0  0
   38.0180   20.1950   23.8190 S   0  0  0  0  0  0  0  0  0  0  0  0
   38.8040   21.4820   23.9880 O   0  0  0  0  0  0  0  0  0  0  0  0
   36.7290   20.5120   23.1160 O   0  0  0  0  0  0  0  0  0  0  0  0
   34.2279   20.3655   33.3318 H   0  0  0  0  0  0  0  0  0  0  0  0
   35.0165   20.5797   31.7164 H   0  0  0  0  0  0  0  0  0  0  0  0
   36.1282   20.7008   35.5192 H   0  0  0  0  0  0  0  0  0  0  0  0
   37.0749   22.1240   31.6138 H   0  0  0  0  0  0  0  0  0  0  0  0
   40.2365   21.8497   35.6353 H   0  0  0  0  0  0  0  0  0  0  0  0
   41.0812   22.5537   37.8740 H   0  0  0  0  0  0  0  0  0  0  0  0
   37.1693   23.8859   38.8853 H   0  0  0  0  0  0  0  0  0  0  0  0
   36.3144   18.5970   33.5356 H   0  0  0  0  0  0  0  0  0  0  0  0
   34.6682   18.1594   32.9279 H   0  0  0  0  0  0  0  0  0  0  0  0
   35.6111   18.9218   24.9246 H   0  0  0  0  0  0  0  0  0  0  0  0
   35.1573   18.1821   27.2916 H   0  0  0  0  0  0  0  0  0  0  0  0
   39.0493   19.5555   28.4832 H   0  0  0  0  0  0  0  0  0  0  0  0
   39.5492   20.3077   26.1542 H   0  0  0  0  0  0  0  0  0  0  0  0
   38.7353   19.2633   23.1159 H   0  0  0  0  0  0  0  0  0  0  0  0
  1  4  1  0
  2  7  1  0
  3  2  2  0
  4  3  1  0
  5  4  2  0
  5  6  1  0
  6  2  1  0
  7  8  2  0
  7 12  1  0
  8  9  1  0
  9 10  2  0
 11 10  1  0
 12 11  2  0
 13  1  1  0
 14 13  1  0
 15 14  2  0
 16 15  1  0
 17 16  1  0
 17 18  2  0
 18 14  1  0
 19 20  2  0
 19 24  1  0
 20 21  1  0
 21 22  2  0
 22 17  1  0
 23 22  1  0
 24 23  2  0
 25 26  2  0
 25 19  1  0
 27 25  2  0
  1 28  1  0
  1 29  1  0
  3 30  1  0
  5 31  1  0
  8 32  1  0
  9 33  1  0
 11 34  1  0
 13 35  1  0
 13 36  1  0
 20 37  1  0
 21 38  1  0
 23 39  1  0
 24 40  1  0
 25 41  1  0
M  ISO  8  28   8  29   8  30  14  31  14  32  14  33  14  34  14  35   8
M  ISO  6  36   8  37  14  38  14  39  14  40  14  41  11
M  END
>  <minimizedAffinity>  (1) 
-5.50066805

>  <minimizedRMSD>  (1) 
0.54543823

$$$$
