
     RDKit          3D

 42 45  0  0  0  0  0  0  0  0999 V2000
   35.1270   20.3620   32.8090 C   0  0  0  0  0  0  0  0  0  0  0  0
   37.6420   22.1850   34.8140 C   0  0  0  0  0  0  0  0  0  0  0  0
   36.5990   21.2780   34.7190 C   0  0  0  0  0  0  0  0  0  0  0  0
   36.1820   21.1740   33.4160 C   0  0  0  0  0  0  0  0  0  0  0  0
   37.0240   22.0530   32.7560 C   0  0  0  0  0  0  0  0  0  0  0  0
   37.8720   22.6320   33.6110 O   0  0  0  0  0  0  0  0  0  0  0  0
   38.2960   22.5140   36.0650 C   0  0  0  0  0  0  0  0  0  0  0  0
   39.6200   22.2820   36.3640 C   0  0  0  0  0  0  0  0  0  0  0  0
   40.1270   22.6380   37.5950 C   0  0  0  0  0  0  0  0  0  0  0  0
   39.2960   23.2150   38.4920 N   0  0  0  0  0  0  0  0  0  0  0  0
   37.9950   23.4400   38.1940 C   0  0  0  0  0  0  0  0  0  0  0  0
   37.4780   23.1000   36.9950 N   0  0  0  0  0  0  0  0  0  0  0  0
   35.5080   18.8850   32.7570 C   0  0  0  0  0  0  0  0  0  0  0  0
   36.0430   18.5110   31.4470 C   0  0  0  0  0  0  0  0  0  0  0  0
   36.4350   17.2860   31.0120 N   0  0  0  0  0  0  0  0  0  0  0  0
   36.8610   17.3490   29.7860 O   0  0  0  0  0  0  0  0  0  0  0  0
   36.7730   18.5900   29.3620 C   0  0  0  0  0  0  0  0  0  0  0  0
   36.2600   19.3180   30.4020 N   0  0  0  0  0  0  0  0  0  0  0  0
   37.1860   18.8660   28.0580 N   0  0  0  0  0  0  0  0  0  0  0  0
   36.2780   18.4840   27.0000 C   0  0  0  0  0  0  0  0  0  0  0  0
   36.7740   19.1090   25.7100 C   0  0  0  0  0  0  0  0  0  0  0  0
   38.1330   18.7590   25.4040 N   0  0  0  0  0  0  0  0  0  0  0  0
   38.9970   18.6630   26.5440 C   0  0  0  0  0  0  0  0  0  0  0  0
   38.4410   19.5080   27.6720 C   0  0  0  0  0  0  0  0  0  0  0  0
   34.2072   20.4718   33.4023 H   0  0  0  0  0  0  0  0  0  0  0  0
   34.9762   20.7128   31.7774 H   0  0  0  0  0  0  0  0  0  0  0  0
   36.1681   20.7223   35.5649 H   0  0  0  0  0  0  0  0  0  0  0  0
   36.9983   22.2483   31.6738 H   0  0  0  0  0  0  0  0  0  0  0  0
   40.2757   21.8105   35.6171 H   0  0  0  0  0  0  0  0  0  0  0  0
   41.1835   22.4569   37.8421 H   0  0  0  0  0  0  0  0  0  0  0  0
   37.3447   23.9105   38.9461 H   0  0  0  0  0  0  0  0  0  0  0  0
   36.2711   18.6862   33.5239 H   0  0  0  0  0  0  0  0  0  0  0  0
   34.6013   18.2898   32.9404 H   0  0  0  0  0  0  0  0  0  0  0  0
   36.2592   17.3886   26.9013 H   0  0  0  0  0  0  0  0  0  0  0  0
   35.2590   18.8311   27.2263 H   0  0  0  0  0  0  0  0  0  0  0  0
   36.1302   18.7691   24.8854 H   0  0  0  0  0  0  0  0  0  0  0  0
   36.7357   20.2010   25.8370 H   0  0  0  0  0  0  0  0  0  0  0  0
   38.1297   17.8467   24.9260 H   0  0  0  0  0  0  0  0  0  0  0  0
   39.0604   17.6139   26.8687 H   0  0  0  0  0  0  0  0  0  0  0  0
   40.0003   19.0250   26.2750 H   0  0  0  0  0  0  0  0  0  0  0  0
   39.1409   19.5254   28.5204 H   0  0  0  0  0  0  0  0  0  0  0  0
   38.2871   20.5523   27.3624 H   0  0  0  0  0  0  0  0  0  0  0  0
  1  4  1  0
  2  7  1  0
  3  2  2  0
  4  3  1  0
  5  4  2  0
  5  6  1  0
  6  2  1  0
  7  8  2  0
  7 12  1  0
  8  9  1  0
  9 10  2  0
 11 10  1  0
 12 11  2  0
 13  1  1  0
 14 13  1  0
 15 14  2  0
 16 15  1  0
 17 16  1  0
 17 18  2  0
 18 14  1  0
 19 17  1  0
 20 19  1  0
 21 20  1  0
 22 21  1  0
 22 23  1  0
 23 24  1  0
 24 19  1  0
  1 25  1  0
  1 26  1  0
  3 27  1  0
  5 28  1  0
  8 29  1  0
  9 30  1  0
 11 31  1  0
 13 32  1  0
 13 33  1  0
 20 34  1  0
 20 35  1  0
 21 36  1  0
 21 37  1  0
 22 38  1  0
 23 39  1  0
 23 40  1  0
 24 41  1  0
 24 42  1  0
M  ISO  8  25   8  26   8  27  14  28  14  29  14  30  14  31  14  32   8
M  ISO  8  33   8  34  13  35  13  36  13  37  13  38   5  39  13  40  13
M  ISO  2  41  13  42  13
M  END
>  <minimizedAffinity>  (1) 
-5.25659895

>  <minimizedRMSD>  (1) 
0.0897933543

$$$$
