
     RDKit          3D

 44 47  0  0  0  0  0  0  0  0999 V2000
   35.1140   20.3130   32.8280 C   0  0  0  0  0  0  0  0  0  0  0  0
   37.6440   22.1350   34.8110 C   0  0  0  0  0  0  0  0  0  0  0  0
   36.5870   21.2630   34.7280 C   0  0  0  0  0  0  0  0  0  0  0  0
   36.1880   21.1220   33.4260 C   0  0  0  0  0  0  0  0  0  0  0  0
   37.0610   21.9530   32.7420 C   0  0  0  0  0  0  0  0  0  0  0  0
   37.9050   22.5330   33.5940 O   0  0  0  0  0  0  0  0  0  0  0  0
   38.2870   22.4880   36.0600 C   0  0  0  0  0  0  0  0  0  0  0  0
   39.6210   22.2730   36.3600 C   0  0  0  0  0  0  0  0  0  0  0  0
   40.1090   22.6610   37.5980 C   0  0  0  0  0  0  0  0  0  0  0  0
   39.2660   23.2340   38.4720 N   0  0  0  0  0  0  0  0  0  0  0  0
   37.9640   23.4410   38.1780 C   0  0  0  0  0  0  0  0  0  0  0  0
   37.4650   23.0700   36.9730 N   0  0  0  0  0  0  0  0  0  0  0  0
   35.4970   18.8200   32.8030 C   0  0  0  0  0  0  0  0  0  0  0  0
   36.0660   18.4570   31.5030 C   0  0  0  0  0  0  0  0  0  0  0  0
   36.5750   17.2610   31.1490 N   0  0  0  0  0  0  0  0  0  0  0  0
   36.9930   17.2900   29.9150 O   0  0  0  0  0  0  0  0  0  0  0  0
   36.7760   18.5020   29.4180 C   0  0  0  0  0  0  0  0  0  0  0  0
   36.1990   19.2350   30.3970 N   0  0  0  0  0  0  0  0  0  0  0  0
   37.0740   19.0290   28.0690 C   0  0  0  0  0  0  0  0  0  0  0  0
   36.1400   18.3710   27.0770 C   0  0  0  0  0  0  0  0  0  0  0  0
   36.3170   18.9420   25.6860 C   0  0  0  0  0  0  0  0  0  0  0  0
   37.7730   19.0240   25.3280 C   0  0  0  0  0  0  0  0  0  0  0  0
   38.6330   18.2180   26.2990 C   0  0  0  0  0  0  0  0  0  0  0  0
   38.4950   18.7480   27.7100 C   0  0  0  0  0  0  0  0  0  0  0  0
   34.1959   20.4392   33.4206 H   0  0  0  0  0  0  0  0  0  0  0  0
   34.9541   20.6516   31.7937 H   0  0  0  0  0  0  0  0  0  0  0  0
   36.1263   20.7506   35.5854 H   0  0  0  0  0  0  0  0  0  0  0  0
   37.0575   22.1108   31.6534 H   0  0  0  0  0  0  0  0  0  0  0  0
   40.2869   21.7992   35.6237 H   0  0  0  0  0  0  0  0  0  0  0  0
   41.1657   22.5027   37.8592 H   0  0  0  0  0  0  0  0  0  0  0  0
   37.3044   23.9135   38.9207 H   0  0  0  0  0  0  0  0  0  0  0  0
   36.2396   18.6237   33.5905 H   0  0  0  0  0  0  0  0  0  0  0  0
   34.5925   18.2182   32.9755 H   0  0  0  0  0  0  0  0  0  0  0  0
   36.9256   20.1188   28.0510 H   0  0  0  0  0  0  0  0  0  0  0  0
   36.3501   17.2916   27.0498 H   0  0  0  0  0  0  0  0  0  0  0  0
   35.1053   18.5603   27.3989 H   0  0  0  0  0  0  0  0  0  0  0  0
   35.8028   18.2937   24.9613 H   0  0  0  0  0  0  0  0  0  0  0  0
   35.8890   19.9551   25.6621 H   0  0  0  0  0  0  0  0  0  0  0  0
   37.9143   18.6279   24.3116 H   0  0  0  0  0  0  0  0  0  0  0  0
   38.0839   20.0777   25.3837 H   0  0  0  0  0  0  0  0  0  0  0  0
   38.3123   17.1660   26.2764 H   0  0  0  0  0  0  0  0  0  0  0  0
   39.6857   18.3052   25.9920 H   0  0  0  0  0  0  0  0  0  0  0  0
   38.8963   18.0006   28.4102 H   0  0  0  0  0  0  0  0  0  0  0  0
   39.0529   19.6940   27.7720 H   0  0  0  0  0  0  0  0  0  0  0  0
  1  4  1  0
  2  7  1  0
  3  2  2  0
  4  3  1  0
  5  4  2  0
  5  6  1  0
  6  2  1  0
  7  8  2  0
  7 12  1  0
  8  9  1  0
  9 10  2  0
 11 10  1  0
 12 11  2  0
 13  1  1  0
 14 13  1  0
 15 14  2  0
 16 15  1  0
 17 16  1  0
 17 18  2  0
 18 14  1  0
 19 17  1  0
 20 19  1  0
 21 20  1  0
 22 21  1  0
 22 23  1  0
 23 24  1  0
 24 19  1  0
  1 25  1  0
  1 26  1  0
  3 27  1  0
  5 28  1  0
  8 29  1  0
  9 30  1  0
 11 31  1  0
 13 32  1  0
 13 33  1  0
 19 34  1  0
 20 35  1  0
 20 36  1  0
 21 37  1  0
 21 38  1  0
 22 39  1  0
 22 40  1  0
 23 41  1  0
 23 42  1  0
 24 43  1  0
 24 44  1  0
M  ISO  8  25   8  26   8  27  14  28  14  29  14  30  14  31  14  32   8
M  ISO  8  33   8  34  13  35  13  36  13  37  13  38  13  39  13  40  13
M  ISO  4  41  13  42  13  43  13  44  13
M  END
>  <minimizedAffinity>  (1) 
-5.20234108

>  <minimizedRMSD>  (1) 
1.06027079

$$$$
