
     RDKit          3D

 35 38  0  0  0  0  0  0  0  0999 V2000
   37.6300   22.1570   34.7710 C   0  0  0  0  0  0  0  0  0  0  0  0
   36.5730   21.2910   34.6690 C   0  0  0  0  0  0  0  0  0  0  0  0
   36.1950   21.1540   33.3550 C   0  0  0  0  0  0  0  0  0  0  0  0
   37.0880   21.9870   32.6910 C   0  0  0  0  0  0  0  0  0  0  0  0
   37.9210   22.5640   33.5550 O   0  0  0  0  0  0  0  0  0  0  0  0
   38.2510   22.5040   36.0410 C   0  0  0  0  0  0  0  0  0  0  0  0
   39.5770   22.3000   36.3590 C   0  0  0  0  0  0  0  0  0  0  0  0
   40.0660   22.6660   37.5960 C   0  0  0  0  0  0  0  0  0  0  0  0
   39.2040   23.2250   38.4690 N   0  0  0  0  0  0  0  0  0  0  0  0
   37.9070   23.4220   38.1550 C   0  0  0  0  0  0  0  0  0  0  0  0
   37.4060   23.0700   36.9450 N   0  0  0  0  0  0  0  0  0  0  0  0
   35.1310   20.3510   32.7400 C   0  0  0  0  0  0  0  0  0  0  0  0
   35.4210   18.8470   32.8550 C   0  0  0  0  0  0  0  0  0  0  0  0
   36.0420   18.3340   31.6300 C   0  0  0  0  0  0  0  0  0  0  0  0
   36.5450   17.1130   31.4080 N   0  0  0  0  0  0  0  0  0  0  0  0
   37.0230   17.0140   30.1890 O   0  0  0  0  0  0  0  0  0  0  0  0
   36.8510   18.1620   29.5680 C   0  0  0  0  0  0  0  0  0  0  0  0
   36.2440   18.9720   30.4690 N   0  0  0  0  0  0  0  0  0  0  0  0
   37.1640   18.6300   28.2620 N   0  0  0  0  0  0  0  0  0  0  0  0
   38.2920   19.1830   27.7600 C   0  0  0  0  0  0  0  0  0  0  0  0
   38.1440   19.4850   26.4390 C   0  0  0  0  0  0  0  0  0  0  0  0
   36.8900   19.1150   26.0810 N   0  0  0  0  0  0  0  0  0  0  0  0
   36.3320   18.6110   27.1900 C   0  0  0  0  0  0  0  0  0  0  0  0
   36.0955   20.7789   35.5174 H   0  0  0  0  0  0  0  0  0  0  0  0
   37.1043   22.1473   31.6029 H   0  0  0  0  0  0  0  0  0  0  0  0
   40.2507   21.8415   35.6201 H   0  0  0  0  0  0  0  0  0  0  0  0
   41.1218   22.5074   37.8607 H   0  0  0  0  0  0  0  0  0  0  0  0
   37.2388   23.8798   38.8993 H   0  0  0  0  0  0  0  0  0  0  0  0
   35.0508   20.6190   31.6762 H   0  0  0  0  0  0  0  0  0  0  0  0
   34.1903   20.5620   33.2696 H   0  0  0  0  0  0  0  0  0  0  0  0
   36.1021   18.6762   33.7017 H   0  0  0  0  0  0  0  0  0  0  0  0
   34.4690   18.3186   33.0118 H   0  0  0  0  0  0  0  0  0  0  0  0
   39.2080   19.3650   28.3413 H   0  0  0  0  0  0  0  0  0  0  0  0
   38.9009   19.9434   25.7855 H   0  0  0  0  0  0  0  0  0  0  0  0
   35.3040   18.2214   27.2277 H   0  0  0  0  0  0  0  0  0  0  0  0
  1  6  1  0
  2  1  2  0
  3  2  1  0
  4  3  2  0
  4  5  1  0
  5  1  1  0
  6  7  2  0
  6 11  1  0
  7  8  1  0
  8  9  2  0
 10  9  1  0
 11 10  2  0
 12 13  1  0
 12  3  1  0
 14 13  1  0
 15 14  2  0
 16 15  1  0
 17 16  1  0
 17 18  2  0
 18 14  1  0
 19 17  1  0
 20 19  1  0
 21 20  2  0
 22 21  1  0
 22 23  2  0
 23 19  1  0
  2 24  1  0
  4 25  1  0
  7 26  1  0
  8 27  1  0
 10 28  1  0
 12 29  1  0
 12 30  1  0
 13 31  1  0
 13 32  1  0
 20 33  1  0
 21 34  1  0
 23 35  1  0
M  ISO  8  24  14  25  14  26  14  27  14  28  14  29   8  30   8  31   8
M  ISO  4  32   8  33  14  34  14  35  14
M  END
>  <minimizedAffinity>  (1) 
-5.16603184

>  <minimizedRMSD>  (1) 
0.464579076

$$$$
