
     RDKit          3D

 36 39  0  0  0  0  0  0  0  0999 V2000
   35.1470   20.3260   32.8040 C   0  0  0  0  0  0  0  0  0  0  0  0
   37.6510   22.1690   34.7970 C   0  0  0  0  0  0  0  0  0  0  0  0
   36.5940   21.2770   34.7190 C   0  0  0  0  0  0  0  0  0  0  0  0
   36.2050   21.1400   33.4080 C   0  0  0  0  0  0  0  0  0  0  0  0
   37.0770   21.9880   32.7310 C   0  0  0  0  0  0  0  0  0  0  0  0
   37.9130   22.5750   33.5920 O   0  0  0  0  0  0  0  0  0  0  0  0
   38.2760   22.5130   36.0620 C   0  0  0  0  0  0  0  0  0  0  0  0
   39.6060   22.2940   36.3700 C   0  0  0  0  0  0  0  0  0  0  0  0
   40.1040   22.6610   37.6090 C   0  0  0  0  0  0  0  0  0  0  0  0
   39.2440   23.2330   38.4940 N   0  0  0  0  0  0  0  0  0  0  0  0
   37.9420   23.4420   38.1770 C   0  0  0  0  0  0  0  0  0  0  0  0
   37.4490   23.0860   36.9700 N   0  0  0  0  0  0  0  0  0  0  0  0
   35.5040   18.8280   32.8110 C   0  0  0  0  0  0  0  0  0  0  0  0
   36.0590   18.4100   31.5220 C   0  0  0  0  0  0  0  0  0  0  0  0
   36.5760   17.2030   31.1920 N   0  0  0  0  0  0  0  0  0  0  0  0
   36.9750   17.2070   29.9410 O   0  0  0  0  0  0  0  0  0  0  0  0
   36.7340   18.3910   29.4220 C   0  0  0  0  0  0  0  0  0  0  0  0
   36.1660   19.1520   30.3880 N   0  0  0  0  0  0  0  0  0  0  0  0
   37.0330   18.7940   28.0540 C   0  0  0  0  0  0  0  0  0  0  0  0
   38.2800   19.3180   27.7790 C   0  0  0  0  0  0  0  0  0  0  0  0
   38.5060   19.6840   26.4610 C   0  0  0  0  0  0  0  0  0  0  0  0
   37.5570   19.5370   25.4930 N   0  0  0  0  0  0  0  0  0  0  0  0
   36.3560   19.0230   25.8040 C   0  0  0  0  0  0  0  0  0  0  0  0
   36.1140   18.6580   27.0880 N   0  0  0  0  0  0  0  0  0  0  0  0
   34.9971   20.6515   31.7640 H   0  0  0  0  0  0  0  0  0  0  0  0
   34.2303   20.4620   33.3967 H   0  0  0  0  0  0  0  0  0  0  0  0
   36.1366   20.7583   35.5744 H   0  0  0  0  0  0  0  0  0  0  0  0
   37.0776   22.1513   31.6432 H   0  0  0  0  0  0  0  0  0  0  0  0
   40.2707   21.8267   35.6285 H   0  0  0  0  0  0  0  0  0  0  0  0
   41.1600   22.4954   37.8688 H   0  0  0  0  0  0  0  0  0  0  0  0
   37.2749   23.9099   38.9159 H   0  0  0  0  0  0  0  0  0  0  0  0
   36.2474   18.6400   33.5997 H   0  0  0  0  0  0  0  0  0  0  0  0
   34.5858   18.2519   32.9982 H   0  0  0  0  0  0  0  0  0  0  0  0
   39.0475   19.4379   28.5579 H   0  0  0  0  0  0  0  0  0  0  0  0
   39.4837   20.1072   26.1870 H   0  0  0  0  0  0  0  0  0  0  0  0
   35.5825   18.9001   25.0316 H   0  0  0  0  0  0  0  0  0  0  0  0
  1 13  1  0
  1  4  1  0
  2  7  1  0
  3  2  2  0
  4  3  1  0
  5  4  2  0
  5  6  1  0
  6  2  1  0
  7  8  2  0
  7 12  1  0
  8  9  1  0
  9 10  2  0
 11 10  1  0
 12 11  2  0
 14 13  1  0
 15 14  2  0
 16 15  1  0
 17 16  1  0
 17 18  2  0
 18 14  1  0
 19 17  1  0
 20 19  2  0
 21 20  1  0
 22 23  1  0
 22 21  2  0
 23 24  2  0
 24 19  1  0
  1 25  1  0
  1 26  1  0
  3 27  1  0
  5 28  1  0
  8 29  1  0
  9 30  1  0
 11 31  1  0
 13 32  1  0
 13 33  1  0
 20 34  1  0
 21 35  1  0
 23 36  1  0
M  ISO  8  25   8  26   8  27  14  28  14  29  14  30  14  31  14  32   8
M  ISO  4  33   8  34  14  35  14  36  14
M  END
>  <minimizedAffinity>  (1) 
-5.15155363

>  <minimizedRMSD>  (1) 
0.385377824

$$$$
