
     RDKit          3D

 35 37  0  0  0  0  0  0  0  0999 V2000
   35.1390   20.3750   32.8570 C   0  0  0  0  0  0  0  0  0  0  0  0
   37.6800   22.1930   34.8380 C   0  0  0  0  0  0  0  0  0  0  0  0
   36.6170   21.3080   34.7560 C   0  0  0  0  0  0  0  0  0  0  0  0
   36.2170   21.1870   33.4510 C   0  0  0  0  0  0  0  0  0  0  0  0
   37.0760   22.0280   32.7710 C   0  0  0  0  0  0  0  0  0  0  0  0
   37.9290   22.6090   33.6190 O   0  0  0  0  0  0  0  0  0  0  0  0
   38.3170   22.5240   36.0890 C   0  0  0  0  0  0  0  0  0  0  0  0
   39.6480   22.2920   36.3920 C   0  0  0  0  0  0  0  0  0  0  0  0
   40.1600   22.6460   37.6190 C   0  0  0  0  0  0  0  0  0  0  0  0
   39.3310   23.2220   38.5110 N   0  0  0  0  0  0  0  0  0  0  0  0
   38.0290   23.4500   38.2170 C   0  0  0  0  0  0  0  0  0  0  0  0
   37.5190   23.1040   37.0140 N   0  0  0  0  0  0  0  0  0  0  0  0
   35.4760   18.8810   32.8870 C   0  0  0  0  0  0  0  0  0  0  0  0
   36.0630   18.4460   31.6090 C   0  0  0  0  0  0  0  0  0  0  0  0
   36.6410   17.2670   31.3340 N   0  0  0  0  0  0  0  0  0  0  0  0
   37.0460   17.2300   30.1030 O   0  0  0  0  0  0  0  0  0  0  0  0
   36.7500   18.3900   29.5130 C   0  0  0  0  0  0  0  0  0  0  0  0
   36.1370   19.1490   30.4510 N   0  0  0  0  0  0  0  0  0  0  0  0
   37.0180   18.7770   28.1610 N   0  0  0  0  0  0  0  0  0  0  0  0
   36.2570   18.2720   27.0520 C   0  0  0  0  0  0  0  0  0  0  0  0
   35.8120   17.0680   27.1810 N   0  0  0  0  0  0  0  0  0  0  0  0
   36.0730   19.1460   25.9380 N   0  0  0  0  0  0  0  0  0  0  0  0
   35.2580   16.6080   26.4530 H   0  0  0  0  0  0  0  0  0  0  0  0
   34.9916   20.6867   31.8124 H   0  0  0  0  0  0  0  0  0  0  0  0
   34.2243   20.5331   33.4472 H   0  0  0  0  0  0  0  0  0  0  0  0
   36.1631   20.7823   35.6090 H   0  0  0  0  0  0  0  0  0  0  0  0
   37.0600   22.1958   31.6840 H   0  0  0  0  0  0  0  0  0  0  0  0
   40.3025   21.8200   35.6444 H   0  0  0  0  0  0  0  0  0  0  0  0
   41.2166   22.4638   37.8647 H   0  0  0  0  0  0  0  0  0  0  0  0
   37.3779   23.9229   38.9669 H   0  0  0  0  0  0  0  0  0  0  0  0
   36.1961   18.6910   33.6966 H   0  0  0  0  0  0  0  0  0  0  0  0
   34.5475   18.3160   33.0561 H   0  0  0  0  0  0  0  0  0  0  0  0
   37.7835   19.4410   27.9768 H   0  0  0  0  0  0  0  0  0  0  0  0
   36.4803   20.0919   25.9528 H   0  0  0  0  0  0  0  0  0  0  0  0
   35.5330   18.8306   25.1196 H   0  0  0  0  0  0  0  0  0  0  0  0
  1 13  1  0
  1  4  1  0
  2  7  1  0
  3  2  2  0
  4  3  1  0
  5  4  2  0
  5  6  1  0
  6  2  1  0
  7  8  2  0
  7 12  1  0
  8  9  1  0
  9 10  2  0
 11 10  1  0
 12 11  2  0
 14 13  1  0
 15 14  2  0
 16 15  1  0
 17 16  1  0
 17 18  2  0
 18 14  1  0
 19 17  1  0
 20 21  2  0
 20 19  1  0
 22 20  1  0
 23 21  1  0
  1 24  1  0
  1 25  1  0
  3 26  1  0
  5 27  1  0
  8 28  1  0
  9 29  1  0
 11 30  1  0
 13 31  1  0
 13 32  1  0
 19 33  1  0
 22 34  1  0
 22 35  1  0
M  ISO  8  24   8  25   8  26  14  27  14  28  14  29  14  30  14  31   8
M  ISO  1  32   8
M  END
>  <minimizedAffinity>  (1) 
-5.23098087

>  <minimizedRMSD>  (1) 
0.332152307

$$$$
