
     RDKit          3D

 34 37  0  0  0  0  0  0  0  0999 V2000
   37.6360   22.1760   34.7460 C   0  0  0  0  0  0  0  0  0  0  0  0
   36.5760   21.2910   34.6490 C   0  0  0  0  0  0  0  0  0  0  0  0
   36.2030   21.1630   33.3320 C   0  0  0  0  0  0  0  0  0  0  0  0
   37.0880   22.0070   32.6770 C   0  0  0  0  0  0  0  0  0  0  0  0
   37.9140   22.5840   33.5490 O   0  0  0  0  0  0  0  0  0  0  0  0
   38.2480   22.5120   36.0260 C   0  0  0  0  0  0  0  0  0  0  0  0
   39.5730   22.2970   36.3490 C   0  0  0  0  0  0  0  0  0  0  0  0
   40.0500   22.6550   37.5980 C   0  0  0  0  0  0  0  0  0  0  0  0
   39.1760   23.2160   38.4720 N   0  0  0  0  0  0  0  0  0  0  0  0
   37.8810   23.4220   38.1420 C   0  0  0  0  0  0  0  0  0  0  0  0
   37.4160   23.0750   36.9330 N   0  0  0  0  0  0  0  0  0  0  0  0
   35.1460   20.3540   32.7110 C   0  0  0  0  0  0  0  0  0  0  0  0
   35.4150   18.8520   32.8730 C   0  0  0  0  0  0  0  0  0  0  0  0
   35.9990   18.2730   31.6500 C   0  0  0  0  0  0  0  0  0  0  0  0
   36.3480   17.0070   31.4120 N   0  0  0  0  0  0  0  0  0  0  0  0
   36.8340   16.8800   30.2050 O   0  0  0  0  0  0  0  0  0  0  0  0
   36.8220   18.0540   29.6130 C   0  0  0  0  0  0  0  0  0  0  0  0
   36.3030   18.9330   30.5030 N   0  0  0  0  0  0  0  0  0  0  0  0
   37.1960   18.5880   28.3480 N   0  0  0  0  0  0  0  0  0  0  0  0
   36.3470   18.4480   27.2890 C   0  0  0  0  0  0  0  0  0  0  0  0
   36.8680   19.0120   26.1880 N   0  0  0  0  0  0  0  0  0  0  0  0
   38.0720   19.5140   26.5790 C   0  0  0  0  0  0  0  0  0  0  0  0
   38.2500   19.2440   27.8960 N   0  0  0  0  0  0  0  0  0  0  0  0
   36.1046   20.7702   35.4955 H   0  0  0  0  0  0  0  0  0  0  0  0
   37.1054   22.1762   31.5902 H   0  0  0  0  0  0  0  0  0  0  0  0
   40.2506   21.8405   35.6125 H   0  0  0  0  0  0  0  0  0  0  0  0
   41.1022   22.4904   37.8732 H   0  0  0  0  0  0  0  0  0  0  0  0
   37.2002   23.8801   38.8746 H   0  0  0  0  0  0  0  0  0  0  0  0
   35.0963   20.5941   31.6387 H   0  0  0  0  0  0  0  0  0  0  0  0
   34.1947   20.5889   33.2108 H   0  0  0  0  0  0  0  0  0  0  0  0
   36.1145   18.7022   33.7087 H   0  0  0  0  0  0  0  0  0  0  0  0
   34.4567   18.3489   33.0695 H   0  0  0  0  0  0  0  0  0  0  0  0
   35.3708   17.9429   27.3316 H   0  0  0  0  0  0  0  0  0  0  0  0
   38.7829   20.0501   25.9331 H   0  0  0  0  0  0  0  0  0  0  0  0
  1  6  1  0
  2  1  2  0
  3  2  1  0
  4  3  2  0
  4  5  1  0
  5  1  1  0
  6  7  2  0
  6 11  1  0
  7  8  1  0
  8  9  2  0
 10  9  1  0
 11 10  2  0
 12 13  1  0
 12  3  1  0
 14 13  1  0
 15 14  2  0
 16 15  1  0
 17 16  1  0
 17 18  2  0
 18 14  1  0
 19 17  1  0
 20 19  1  0
 21 22  1  0
 21 20  2  0
 22 23  2  0
 23 19  1  0
  2 24  1  0
  4 25  1  0
  7 26  1  0
  8 27  1  0
 10 28  1  0
 12 29  1  0
 12 30  1  0
 13 31  1  0
 13 32  1  0
 20 33  1  0
 22 34  1  0
M  ISO  8  24  14  25  14  26  14  27  14  28  14  29   8  30   8  31   8
M  ISO  3  32   8  33  14  34  14
M  END
>  <minimizedAffinity>  (1) 
-5.12670279

>  <minimizedRMSD>  (1) 
0.548263729

$$$$
