
     RDKit          3D

 34 36  0  0  0  0  0  0  0  0999 V2000
   37.6380   22.1570   34.7960 C   0  0  0  0  0  0  0  0  0  0  0  0
   36.5620   21.3040   34.6970 C   0  0  0  0  0  0  0  0  0  0  0  0
   36.1790   21.1660   33.3950 C   0  0  0  0  0  0  0  0  0  0  0  0
   37.0810   21.9820   32.7160 C   0  0  0  0  0  0  0  0  0  0  0  0
   37.9230   22.5460   33.5830 O   0  0  0  0  0  0  0  0  0  0  0  0
   38.2680   22.4990   36.0530 C   0  0  0  0  0  0  0  0  0  0  0  0
   39.5930   22.2890   36.3680 C   0  0  0  0  0  0  0  0  0  0  0  0
   40.0730   22.6670   37.6180 C   0  0  0  0  0  0  0  0  0  0  0  0
   39.2200   23.2290   38.4890 N   0  0  0  0  0  0  0  0  0  0  0  0
   37.9180   23.4330   38.1750 C   0  0  0  0  0  0  0  0  0  0  0  0
   37.4370   23.0710   36.9650 N   0  0  0  0  0  0  0  0  0  0  0  0
   35.0990   20.3770   32.7820 C   0  0  0  0  0  0  0  0  0  0  0  0
   35.4470   18.8750   32.7870 C   0  0  0  0  0  0  0  0  0  0  0  0
   36.0410   18.4730   31.5110 C   0  0  0  0  0  0  0  0  0  0  0  0
   36.4970   17.2560   31.1790 N   0  0  0  0  0  0  0  0  0  0  0  0
   36.9610   17.2670   29.9520 O   0  0  0  0  0  0  0  0  0  0  0  0
   36.8220   18.4760   29.4520 C   0  0  0  0  0  0  0  0  0  0  0  0
   36.2510   19.2400   30.4100 N   0  0  0  0  0  0  0  0  0  0  0  0
   37.2420   18.8650   28.0680 C   0  0  0  0  0  0  0  0  0  0  0  0
   36.2180   18.5400   27.0340 C   0  0  0  0  0  0  0  0  0  0  0  0
   36.0785   20.8035   35.5489 H   0  0  0  0  0  0  0  0  0  0  0  0
   37.0965   22.1379   31.6272 H   0  0  0  0  0  0  0  0  0  0  0  0
   40.2683   21.8245   35.6343 H   0  0  0  0  0  0  0  0  0  0  0  0
   41.1279   22.5089   37.8866 H   0  0  0  0  0  0  0  0  0  0  0  0
   37.2461   23.8976   38.9117 H   0  0  0  0  0  0  0  0  0  0  0  0
   34.9539   20.7100   31.7437 H   0  0  0  0  0  0  0  0  0  0  0  0
   34.1783   20.5274   33.3648 H   0  0  0  0  0  0  0  0  0  0  0  0
   36.1634   18.6738   33.5972 H   0  0  0  0  0  0  0  0  0  0  0  0
   34.5219   18.3001   32.9411 H   0  0  0  0  0  0  0  0  0  0  0  0
   37.4264   19.9493   28.0497 H   0  0  0  0  0  0  0  0  0  0  0  0
   38.1476   18.2896   27.8257 H   0  0  0  0  0  0  0  0  0  0  0  0
   35.2807   18.2425   27.5270 H   0  0  0  0  0  0  0  0  0  0  0  0
   36.0372   19.4249   26.4061 H   0  0  0  0  0  0  0  0  0  0  0  0
   36.5806   17.7128   26.4061 H   0  0  0  0  0  0  0  0  0  0  0  0
  1  6  1  0
  2  1  2  0
  3  2  1  0
  4  3  2  0
  4  5  1  0
  5  1  1  0
  6  7  2  0
  6 11  1  0
  7  8  1  0
  8  9  2  0
 10  9  1  0
 11 10  2  0
 12 13  1  0
 12  3  1  0
 14 13  1  0
 15 14  2  0
 16 15  1  0
 17 16  1  0
 17 18  2  0
 18 14  1  0
 19 17  1  0
 20 19  1  0
  2 21  1  0
  4 22  1  0
  7 23  1  0
  8 24  1  0
 10 25  1  0
 12 26  1  0
 12 27  1  0
 13 28  1  0
 13 29  1  0
 19 30  1  0
 19 31  1  0
 20 32  1  0
 20 33  1  0
 20 34  1  0
M  ISO  8  21  14  22  14  23  14  24  14  25  14  26   8  27   8  28   8
M  ISO  6  29   8  30   8  31   8  32   8  33   8  34   8
M  END
>  <minimizedAffinity>  (1) 
-4.77462482

>  <minimizedRMSD>  (1) 
0.162056983

$$$$
