
     RDKit          3D

 35 38  0  0  0  0  0  0  0  0999 V2000
   35.1230   20.3860   32.7950 C   0  0  0  0  0  0  0  0  0  0  0  0
   37.6700   22.1630   34.7990 C   0  0  0  0  0  0  0  0  0  0  0  0
   36.6050   21.3120   34.7070 C   0  0  0  0  0  0  0  0  0  0  0  0
   36.2100   21.1790   33.4050 C   0  0  0  0  0  0  0  0  0  0  0  0
   37.1020   22.0030   32.7220 C   0  0  0  0  0  0  0  0  0  0  0  0
   37.9530   22.5700   33.5830 O   0  0  0  0  0  0  0  0  0  0  0  0
   38.3100   22.4990   36.0570 C   0  0  0  0  0  0  0  0  0  0  0  0
   39.6300   22.2780   36.3620 C   0  0  0  0  0  0  0  0  0  0  0  0
   40.1270   22.6460   37.6090 C   0  0  0  0  0  0  0  0  0  0  0  0
   39.2850   23.2150   38.4840 N   0  0  0  0  0  0  0  0  0  0  0  0
   37.9760   23.4330   38.1780 C   0  0  0  0  0  0  0  0  0  0  0  0
   37.4800   23.0800   36.9720 N   0  0  0  0  0  0  0  0  0  0  0  0
   35.4470   18.8800   32.8390 C   0  0  0  0  0  0  0  0  0  0  0  0
   36.0270   18.4260   31.5700 C   0  0  0  0  0  0  0  0  0  0  0  0
   36.5120   17.2090   31.2830 N   0  0  0  0  0  0  0  0  0  0  0  0
   36.9460   17.1840   30.0440 O   0  0  0  0  0  0  0  0  0  0  0  0
   36.7620   18.3610   29.4870 C   0  0  0  0  0  0  0  0  0  0  0  0
   36.1890   19.1450   30.4310 N   0  0  0  0  0  0  0  0  0  0  0  0
   37.1030   18.7590   28.1270 C   0  0  0  0  0  0  0  0  0  0  0  0
   36.3220   18.5760   27.0170 C   0  0  0  0  0  0  0  0  0  0  0  0
   37.0650   19.1130   25.9670 C   0  0  0  0  0  0  0  0  0  0  0  0
   38.2310   19.5920   26.4280 N   0  0  0  0  0  0  0  0  0  0  0  0
   38.2150   19.3600   27.7300 N   0  0  0  0  0  0  0  0  0  0  0  0
   34.9956   20.6962   31.7473 H   0  0  0  0  0  0  0  0  0  0  0  0
   34.1983   20.5625   33.3641 H   0  0  0  0  0  0  0  0  0  0  0  0
   36.1318   20.8050   35.5608 H   0  0  0  0  0  0  0  0  0  0  0  0
   37.1055   22.1635   31.6338 H   0  0  0  0  0  0  0  0  0  0  0  0
   40.2949   21.8102   35.6210 H   0  0  0  0  0  0  0  0  0  0  0  0
   41.1819   22.4747   37.8697 H   0  0  0  0  0  0  0  0  0  0  0  0
   37.3148   23.9020   38.9215 H   0  0  0  0  0  0  0  0  0  0  0  0
   36.1655   18.6909   33.6502 H   0  0  0  0  0  0  0  0  0  0  0  0
   34.5122   18.3270   33.0130 H   0  0  0  0  0  0  0  0  0  0  0  0
   35.3277   18.1084   26.9654 H   0  0  0  0  0  0  0  0  0  0  0  0
   36.7432   19.1402   24.9155 H   0  0  0  0  0  0  0  0  0  0  0  0
   38.9793   20.0442   25.8835 H   0  0  0  0  0  0  0  0  0  0  0  0
  1 13  1  0
  1  4  1  0
  2  7  1  0
  3  2  2  0
  4  3  1  0
  5  4  2  0
  5  6  1  0
  6  2  1  0
  7  8  2  0
  7 12  1  0
  8  9  1  0
  9 10  2  0
 11 10  1  0
 12 11  2  0
 14 13  1  0
 15 14  2  0
 16 15  1  0
 17 16  1  0
 17 18  2  0
 18 14  1  0
 19 17  1  0
 20 19  1  0
 21 22  1  0
 21 20  2  0
 22 23  1  0
 23 19  2  0
  1 24  1  0
  1 25  1  0
  3 26  1  0
  5 27  1  0
  8 28  1  0
  9 29  1  0
 11 30  1  0
 13 31  1  0
 13 32  1  0
 20 33  1  0
 21 34  1  0
 22 35  1  0
M  ISO  8  24   8  25   8  26  14  27  14  28  14  29  14  30  14  31   8
M  ISO  4  32   8  33  14  34  14  35   9
M  END
>  <minimizedAffinity>  (1) 
-5.03499031

>  <minimizedRMSD>  (1) 
0.301274568

$$$$
