
     RDKit          3D

 31 33  0  0  0  0  0  0  0  0999 V2000
   37.6660   22.1640   34.7990 C   0  0  0  0  0  0  0  0  0  0  0  0
   36.5890   21.3080   34.7190 C   0  0  0  0  0  0  0  0  0  0  0  0
   36.1980   21.1700   33.4060 C   0  0  0  0  0  0  0  0  0  0  0  0
   37.0960   21.9860   32.7270 C   0  0  0  0  0  0  0  0  0  0  0  0
   37.9390   22.5470   33.5900 O   0  0  0  0  0  0  0  0  0  0  0  0
   38.3000   22.5040   36.0630 C   0  0  0  0  0  0  0  0  0  0  0  0
   39.6220   22.2800   36.3620 C   0  0  0  0  0  0  0  0  0  0  0  0
   40.1170   22.6480   37.6090 C   0  0  0  0  0  0  0  0  0  0  0  0
   39.2690   23.2190   38.4890 N   0  0  0  0  0  0  0  0  0  0  0  0
   37.9730   23.4320   38.1800 C   0  0  0  0  0  0  0  0  0  0  0  0
   37.4830   23.0790   36.9750 N   0  0  0  0  0  0  0  0  0  0  0  0
   35.1080   20.3750   32.8040 C   0  0  0  0  0  0  0  0  0  0  0  0
   35.4350   18.8810   32.8160 C   0  0  0  0  0  0  0  0  0  0  0  0
   36.0330   18.4510   31.5390 C   0  0  0  0  0  0  0  0  0  0  0  0
   36.5190   17.2430   31.2110 N   0  0  0  0  0  0  0  0  0  0  0  0
   36.9660   17.2400   29.9960 O   0  0  0  0  0  0  0  0  0  0  0  0
   36.8000   18.4330   29.4620 C   0  0  0  0  0  0  0  0  0  0  0  0
   36.2170   19.1850   30.4310 N   0  0  0  0  0  0  0  0  0  0  0  0
   37.1870   18.8460   28.0680 C   0  0  0  0  0  0  0  0  0  0  0  0
   36.1128   20.8094   35.5761 H   0  0  0  0  0  0  0  0  0  0  0  0
   37.1077   22.1442   31.6385 H   0  0  0  0  0  0  0  0  0  0  0  0
   40.2854   21.8123   35.6196 H   0  0  0  0  0  0  0  0  0  0  0  0
   41.1719   22.4779   37.8704 H   0  0  0  0  0  0  0  0  0  0  0  0
   37.3079   23.8997   38.9209 H   0  0  0  0  0  0  0  0  0  0  0  0
   34.9599   20.7006   31.7638 H   0  0  0  0  0  0  0  0  0  0  0  0
   34.1951   20.5344   33.3966 H   0  0  0  0  0  0  0  0  0  0  0  0
   36.1454   18.6767   33.6306 H   0  0  0  0  0  0  0  0  0  0  0  0
   34.4989   18.3229   32.9652 H   0  0  0  0  0  0  0  0  0  0  0  0
   37.9384   19.6478   28.1184 H   0  0  0  0  0  0  0  0  0  0  0  0
   37.6082   17.9819   27.5332 H   0  0  0  0  0  0  0  0  0  0  0  0
   36.2974   19.2102   27.5332 H   0  0  0  0  0  0  0  0  0  0  0  0
  1  6  1  0
  2  1  2  0
  3  2  1  0
  4  3  2  0
  4  5  1  0
  5  1  1  0
  6  7  2  0
  6 11  1  0
  7  8  1  0
  8  9  2  0
 10  9  1  0
 11 10  2  0
 12 13  1  0
 12  3  1  0
 14 13  1  0
 15 14  2  0
 16 15  1  0
 17 16  1  0
 17 18  2  0
 18 14  1  0
 19 17  1  0
  2 20  1  0
  4 21  1  0
  7 22  1  0
  8 23  1  0
 10 24  1  0
 12 25  1  0
 12 26  1  0
 13 27  1  0
 13 28  1  0
 19 29  1  0
 19 30  1  0
 19 31  1  0
M  ISO  8  20  14  21  14  22  14  23  14  24  14  25   8  26   8  27   8
M  ISO  4  28   8  29   8  30   8  31   8
M  END
>  <minimizedAffinity>  (1) 
-4.71071577

>  <minimizedRMSD>  (1) 
0.151258171

$$$$
