
     RDKit          3D

 42 46  0  0  0  0  0  0  0  0999 V2000
   35.4880   18.8650   32.8410 C   0  0  0  0  0  0  0  0  0  0  0  0
   36.0900   18.4230   31.5740 C   0  0  0  0  0  0  0  0  0  0  0  0
   36.7250   17.2550   31.3320 N   0  0  0  0  0  0  0  0  0  0  0  0
   37.1280   17.2160   30.0840 O   0  0  0  0  0  0  0  0  0  0  0  0
   36.7820   18.3200   29.4800 C   0  0  0  0  0  0  0  0  0  0  0  0
   36.1330   19.0830   30.4020 N   0  0  0  0  0  0  0  0  0  0  0  0
   37.0290   18.6970   28.0900 C   0  0  0  0  0  0  0  0  0  0  0  0
   36.2690   18.3710   27.0110 C   0  0  0  0  0  0  0  0  0  0  0  0
   36.8930   18.9470   25.9150 C   0  0  0  0  0  0  0  0  0  0  0  0
   37.9880   19.5960   26.3170 N   0  0  0  0  0  0  0  0  0  0  0  0
   38.0310   19.4210   27.6260 N   0  0  0  0  0  0  0  0  0  0  0  0
   40.9950   20.7850   24.8320 N   0  0  0  0  0  0  0  0  0  0  0  0
   40.2420   19.8560   25.4000 N   0  0  0  0  0  0  0  0  0  0  0  0
   39.0150   20.3600   25.6990 C   0  0  0  0  0  0  0  0  0  0  0  0
   39.0680   21.6690   25.2720 C   0  0  0  0  0  0  0  0  0  0  0  0
   40.3040   21.9340   24.7320 C   0  0  0  0  0  0  0  0  0  0  0  0
   35.1360   20.3550   32.7940 C   0  0  0  0  0  0  0  0  0  0  0  0
   37.6480   22.1720   34.8040 C   0  0  0  0  0  0  0  0  0  0  0  0
   36.6080   21.2890   34.7070 C   0  0  0  0  0  0  0  0  0  0  0  0
   36.2100   21.1770   33.4020 C   0  0  0  0  0  0  0  0  0  0  0  0
   37.0680   22.0410   32.7290 C   0  0  0  0  0  0  0  0  0  0  0  0
   37.9120   22.6190   33.5880 O   0  0  0  0  0  0  0  0  0  0  0  0
   38.2910   22.5060   36.0550 C   0  0  0  0  0  0  0  0  0  0  0  0
   39.6010   22.2870   36.3620 C   0  0  0  0  0  0  0  0  0  0  0  0
   40.1240   22.6460   37.5980 C   0  0  0  0  0  0  0  0  0  0  0  0
   39.2860   23.2180   38.4820 N   0  0  0  0  0  0  0  0  0  0  0  0
   37.9860   23.4380   38.1830 C   0  0  0  0  0  0  0  0  0  0  0  0
   37.4810   23.0870   36.9780 N   0  0  0  0  0  0  0  0  0  0  0  0
   34.5716   18.2850   33.0250 H   0  0  0  0  0  0  0  0  0  0  0  0
   36.2166   18.7034   33.6491 H   0  0  0  0  0  0  0  0  0  0  0  0
   35.3464   17.7720   27.0081 H   0  0  0  0  0  0  0  0  0  0  0  0
   36.5403   18.8796   24.8752 H   0  0  0  0  0  0  0  0  0  0  0  0
   41.9651   20.6480   24.5142 H   0  0  0  0  0  0  0  0  0  0  0  0
   38.2443   22.3937   25.3514 H   0  0  0  0  0  0  0  0  0  0  0  0
   40.6543   22.8863   24.3072 H   0  0  0  0  0  0  0  0  0  0  0  0
   35.0007   20.6592   31.7456 H   0  0  0  0  0  0  0  0  0  0  0  0
   34.2094   20.5131   33.3653 H   0  0  0  0  0  0  0  0  0  0  0  0
   36.1578   20.7486   35.5528 H   0  0  0  0  0  0  0  0  0  0  0  0
   37.0534   22.2223   31.6441 H   0  0  0  0  0  0  0  0  0  0  0  0
   40.2576   21.8162   35.6155 H   0  0  0  0  0  0  0  0  0  0  0  0
   41.1815   22.4696   37.8443 H   0  0  0  0  0  0  0  0  0  0  0  0
   37.3298   23.9089   38.9298 H   0  0  0  0  0  0  0  0  0  0  0  0
  2  1  1  0
  3  2  2  0
  4  3  1  0
  5  4  1  0
  5  6  2  0
  6  2  1  0
  7  5  1  0
  8  7  1  0
  9 10  1  0
  9  8  2  0
 10 11  1  0
 11  7  2  0
 12 13  1  0
 13 14  2  0
 14 10  1  0
 15 14  1  0
 16 12  1  0
 16 15  2  0
 17  1  1  0
 17 20  1  0
 18 23  1  0
 19 18  2  0
 20 19  1  0
 21 20  2  0
 21 22  1  0
 22 18  1  0
 23 24  2  0
 23 28  1  0
 24 25  1  0
 25 26  2  0
 27 26  1  0
 28 27  2  0
  1 29  1  0
  1 30  1  0
  8 31  1  0
  9 32  1  0
 12 33  1  0
 15 34  1  0
 16 35  1  0
 17 36  1  0
 17 37  1  0
 19 38  1  0
 21 39  1  0
 24 40  1  0
 25 41  1  0
 27 42  1  0
M  ISO  8  29   8  30   8  31  14  32  14  33   9  34  14  35  14  36   8
M  ISO  6  37   8  38  14  39  14  40  14  41  14  42  14
M  END
>  <minimizedAffinity>  (1) 
-5.36578274

>  <minimizedRMSD>  (1) 
0.248991042

$$$$
