
     RDKit          3D

 40 44  0  0  0  0  0  0  0  0999 V2000
   35.4900   18.8500   32.8390 C   0  0  0  0  0  0  0  0  0  0  0  0
   36.0900   18.4240   31.5740 C   0  0  0  0  0  0  0  0  0  0  0  0
   36.7320   17.2720   31.3300 N   0  0  0  0  0  0  0  0  0  0  0  0
   37.1330   17.2430   30.0800 O   0  0  0  0  0  0  0  0  0  0  0  0
   36.7780   18.3510   29.4710 C   0  0  0  0  0  0  0  0  0  0  0  0
   36.1280   19.0900   30.3980 N   0  0  0  0  0  0  0  0  0  0  0  0
   37.0280   18.7160   28.0880 C   0  0  0  0  0  0  0  0  0  0  0  0
   36.2330   18.4050   27.0080 C   0  0  0  0  0  0  0  0  0  0  0  0
   36.8820   18.9670   25.9130 C   0  0  0  0  0  0  0  0  0  0  0  0
   38.0010   19.5780   26.3160 N   0  0  0  0  0  0  0  0  0  0  0  0
   38.0660   19.4140   27.6270 N   0  0  0  0  0  0  0  0  0  0  0  0
   39.0360   20.3010   25.6860 C   0  0  0  0  0  0  0  0  0  0  0  0
   38.7760   21.5150   25.1810 N   0  0  0  0  0  0  0  0  0  0  0  0
   39.9030   21.9520   24.6600 O   0  0  0  0  0  0  0  0  0  0  0  0
   40.8560   21.0470   24.8250 C   0  0  0  0  0  0  0  0  0  0  0  0
   40.3250   20.0030   25.4690 N   0  0  0  0  0  0  0  0  0  0  0  0
   35.1330   20.3580   32.7930 C   0  0  0  0  0  0  0  0  0  0  0  0
   37.6630   22.1680   34.7860 C   0  0  0  0  0  0  0  0  0  0  0  0
   36.6150   21.3020   34.7000 C   0  0  0  0  0  0  0  0  0  0  0  0
   36.2140   21.1710   33.3930 C   0  0  0  0  0  0  0  0  0  0  0  0
   37.0900   22.0130   32.7170 C   0  0  0  0  0  0  0  0  0  0  0  0
   37.9310   22.5820   33.5810 O   0  0  0  0  0  0  0  0  0  0  0  0
   38.3020   22.5060   36.0550 C   0  0  0  0  0  0  0  0  0  0  0  0
   39.6200   22.2830   36.3590 C   0  0  0  0  0  0  0  0  0  0  0  0
   40.1250   22.6450   37.6010 C   0  0  0  0  0  0  0  0  0  0  0  0
   39.2700   23.2160   38.4750 N   0  0  0  0  0  0  0  0  0  0  0  0
   37.9680   23.4360   38.1740 C   0  0  0  0  0  0  0  0  0  0  0  0
   37.4830   23.0840   36.9710 N   0  0  0  0  0  0  0  0  0  0  0  0
   34.5747   18.2671   33.0194 H   0  0  0  0  0  0  0  0  0  0  0  0
   36.2143   18.6816   33.6496 H   0  0  0  0  0  0  0  0  0  0  0  0
   35.2911   17.8368   27.0102 H   0  0  0  0  0  0  0  0  0  0  0  0
   36.5279   18.9163   24.8728 H   0  0  0  0  0  0  0  0  0  0  0  0
   41.9001   21.1384   24.4910 H   0  0  0  0  0  0  0  0  0  0  0  0
   34.9905   20.6634   31.7459 H   0  0  0  0  0  0  0  0  0  0  0  0
   34.2090   20.5199   33.3674 H   0  0  0  0  0  0  0  0  0  0  0  0
   36.1561   20.7826   35.5542 H   0  0  0  0  0  0  0  0  0  0  0  0
   37.0893   22.1843   31.6304 H   0  0  0  0  0  0  0  0  0  0  0  0
   40.2813   21.8147   35.6150 H   0  0  0  0  0  0  0  0  0  0  0  0
   41.1797   22.4732   37.8619 H   0  0  0  0  0  0  0  0  0  0  0  0
   37.3053   23.9043   38.9166 H   0  0  0  0  0  0  0  0  0  0  0  0
  2  1  1  0
  3  2  2  0
  4  3  1  0
  5  4  1  0
  5  6  2  0
  6  2  1  0
  7  5  1  0
  8  7  1  0
  9 10  1  0
  9  8  2  0
 10 11  1  0
 11  7  2  0
 12 10  1  0
 13 12  2  0
 14 15  1  0
 14 13  1  0
 15 16  2  0
 16 12  1  0
 17  1  1  0
 17 20  1  0
 18 23  1  0
 19 18  2  0
 20 19  1  0
 21 20  2  0
 21 22  1  0
 22 18  1  0
 23 24  2  0
 23 28  1  0
 24 25  1  0
 25 26  2  0
 27 26  1  0
 28 27  2  0
  1 29  1  0
  1 30  1  0
  8 31  1  0
  9 32  1  0
 15 33  1  0
 17 34  1  0
 17 35  1  0
 19 36  1  0
 21 37  1  0
 24 38  1  0
 25 39  1  0
 27 40  1  0
M  ISO  8  29   8  30   8  31  14  32  14  33  14  34   8  35   8  36  14
M  ISO  4  37  14  38  14  39  14  40  14
M  END
>  <minimizedAffinity>  (1) 
-5.33559418

>  <minimizedRMSD>  (1) 
0.246729508

$$$$
