
     RDKit          3D

 44 47  0  0  0  0  0  0  0  0999 V2000
   35.1170   20.3640   32.8180 C   0  0  0  0  0  0  0  0  0  0  0  0
   37.6600   22.1440   34.8170 C   0  0  0  0  0  0  0  0  0  0  0  0
   36.6050   21.2890   34.7240 C   0  0  0  0  0  0  0  0  0  0  0  0
   36.1960   21.1570   33.4260 C   0  0  0  0  0  0  0  0  0  0  0  0
   37.0790   21.9920   32.7410 C   0  0  0  0  0  0  0  0  0  0  0  0
   37.9360   22.5640   33.5960 O   0  0  0  0  0  0  0  0  0  0  0  0
   38.3140   22.4870   36.0630 C   0  0  0  0  0  0  0  0  0  0  0  0
   39.6280   22.2730   36.3640 C   0  0  0  0  0  0  0  0  0  0  0  0
   40.1270   22.6550   37.6080 C   0  0  0  0  0  0  0  0  0  0  0  0
   39.2850   23.2320   38.4850 N   0  0  0  0  0  0  0  0  0  0  0  0
   37.9750   23.4430   38.1790 C   0  0  0  0  0  0  0  0  0  0  0  0
   37.4970   23.0730   36.9790 N   0  0  0  0  0  0  0  0  0  0  0  0
   35.4550   18.8590   32.8630 C   0  0  0  0  0  0  0  0  0  0  0  0
   36.0530   18.4140   31.6020 C   0  0  0  0  0  0  0  0  0  0  0  0
   36.6150   17.2150   31.3420 N   0  0  0  0  0  0  0  0  0  0  0  0
   37.0380   17.1920   30.1030 O   0  0  0  0  0  0  0  0  0  0  0  0
   36.7820   18.3370   29.5140 C   0  0  0  0  0  0  0  0  0  0  0  0
   36.1620   19.1170   30.4450 N   0  0  0  0  0  0  0  0  0  0  0  0
   37.0840   18.7240   28.1520 C   0  0  0  0  0  0  0  0  0  0  0  0
   36.3360   18.4400   27.0420 C   0  0  0  0  0  0  0  0  0  0  0  0
   37.0350   19.0220   25.9740 C   0  0  0  0  0  0  0  0  0  0  0  0
   38.1350   19.6150   26.4330 N   0  0  0  0  0  0  0  0  0  0  0  0
   38.1310   19.4180   27.7310 N   0  0  0  0  0  0  0  0  0  0  0  0
   39.1250   20.3290   25.6540 C   0  0  0  0  0  0  0  0  0  0  0  0
   39.8640   21.3260   26.5520 C   0  0  0  0  0  0  0  0  0  0  0  0
   38.3730   21.1600   24.6260 C   0  0  0  0  0  0  0  0  0  0  0  0
   34.9872   20.6739   31.7706 H   0  0  0  0  0  0  0  0  0  0  0  0
   34.1896   20.5355   33.3842 H   0  0  0  0  0  0  0  0  0  0  0  0
   36.1432   20.7732   35.5788 H   0  0  0  0  0  0  0  0  0  0  0  0
   37.0721   22.1570   31.6535 H   0  0  0  0  0  0  0  0  0  0  0  0
   40.2922   21.7997   35.6258 H   0  0  0  0  0  0  0  0  0  0  0  0
   41.1832   22.4889   37.8666 H   0  0  0  0  0  0  0  0  0  0  0  0
   37.3079   23.9165   38.9144 H   0  0  0  0  0  0  0  0  0  0  0  0
   36.1657   18.6749   33.6821 H   0  0  0  0  0  0  0  0  0  0  0  0
   34.5235   18.2968   33.0251 H   0  0  0  0  0  0  0  0  0  0  0  0
   35.3917   17.8775   26.9969 H   0  0  0  0  0  0  0  0  0  0  0  0
   36.7224   18.9929   24.9198 H   0  0  0  0  0  0  0  0  0  0  0  0
   39.8293   19.6162   25.2003 H   0  0  0  0  0  0  0  0  0  0  0  0
   39.6789   21.0762   27.6071 H   0  0  0  0  0  0  0  0  0  0  0  0
   40.9435   21.2740   26.3469 H   0  0  0  0  0  0  0  0  0  0  0  0
   39.5004   22.3437   26.3469 H   0  0  0  0  0  0  0  0  0  0  0  0
   37.7213   21.8801   25.1424 H   0  0  0  0  0  0  0  0  0  0  0  0
   39.0928   21.7031   23.9960 H   0  0  0  0  0  0  0  0  0  0  0  0
   37.7609   20.4978   23.9960 H   0  0  0  0  0  0  0  0  0  0  0  0
  1 13  1  0
  1  4  1  0
  2  7  1  0
  3  2  2  0
  4  3  1  0
  5  4  2  0
  5  6  1  0
  6  2  1  0
  7  8  2  0
  7 12  1  0
  8  9  1  0
  9 10  2  0
 11 10  1  0
 12 11  2  0
 14 13  1  0
 15 14  2  0
 16 15  1  0
 17 16  1  0
 17 18  2  0
 18 14  1  0
 19 17  1  0
 20 19  1  0
 21 22  1  0
 21 20  2  0
 22 23  1  0
 23 19  2  0
 24 22  1  0
 24 25  1  0
 26 24  1  0
  1 27  1  0
  1 28  1  0
  3 29  1  0
  5 30  1  0
  8 31  1  0
  9 32  1  0
 11 33  1  0
 13 34  1  0
 13 35  1  0
 20 36  1  0
 21 37  1  0
 24 38  1  0
 25 39  1  0
 25 40  1  0
 25 41  1  0
 26 42  1  0
 26 43  1  0
 26 44  1  0
M  ISO  8  27   8  28   8  29  14  30  14  31  14  32  14  33  14  34   8
M  ISO  8  35   8  36  14  37  14  38   8  39   8  40   8  41   8  42   8
M  ISO  2  43   8  44   8
M  END
>  <minimizedAffinity>  (1) 
-5.17912817

>  <minimizedRMSD>  (1) 
0.0933641419

$$$$
