
     RDKit          3D

 43 47  0  0  0  0  0  0  0  0999 V2000
   35.4790   18.8450   32.8560 C   0  0  0  0  0  0  0  0  0  0  0  0
   36.0870   18.4140   31.5810 C   0  0  0  0  0  0  0  0  0  0  0  0
   36.7080   17.2430   31.3290 N   0  0  0  0  0  0  0  0  0  0  0  0
   37.1150   17.2260   30.0810 O   0  0  0  0  0  0  0  0  0  0  0  0
   36.7830   18.3520   29.4950 C   0  0  0  0  0  0  0  0  0  0  0  0
   36.1360   19.1090   30.4270 N   0  0  0  0  0  0  0  0  0  0  0  0
   37.0480   18.7400   28.1120 C   0  0  0  0  0  0  0  0  0  0  0  0
   36.2430   18.4870   27.0410 C   0  0  0  0  0  0  0  0  0  0  0  0
   36.8960   19.0360   25.9500 C   0  0  0  0  0  0  0  0  0  0  0  0
   38.0510   19.6000   26.3470 N   0  0  0  0  0  0  0  0  0  0  0  0
   38.1060   19.4000   27.6580 N   0  0  0  0  0  0  0  0  0  0  0  0
   38.9580   20.2520   25.4640 C   0  0  0  0  0  0  0  0  0  0  0  0
   38.4750   21.3080   24.7170 C   0  0  0  0  0  0  0  0  0  0  0  0
   39.4040   21.8970   23.8830 C   0  0  0  0  0  0  0  0  0  0  0  0
   40.6840   21.5140   23.7670 N   0  0  0  0  0  0  0  0  0  0  0  0
   41.1180   20.4800   24.5110 C   0  0  0  0  0  0  0  0  0  0  0  0
   40.2410   19.8610   25.3540 N   0  0  0  0  0  0  0  0  0  0  0  0
   35.1270   20.3420   32.8210 C   0  0  0  0  0  0  0  0  0  0  0  0
   37.6620   22.1550   34.8070 C   0  0  0  0  0  0  0  0  0  0  0  0
   36.6070   21.2830   34.7310 C   0  0  0  0  0  0  0  0  0  0  0  0
   36.2130   21.1570   33.4260 C   0  0  0  0  0  0  0  0  0  0  0  0
   37.0910   22.0000   32.7340 C   0  0  0  0  0  0  0  0  0  0  0  0
   37.9360   22.5720   33.5920 O   0  0  0  0  0  0  0  0  0  0  0  0
   38.3070   22.4980   36.0650 C   0  0  0  0  0  0  0  0  0  0  0  0
   39.6340   22.2740   36.3660 C   0  0  0  0  0  0  0  0  0  0  0  0
   40.1380   22.6480   37.6050 C   0  0  0  0  0  0  0  0  0  0  0  0
   39.3040   23.2200   38.4770 N   0  0  0  0  0  0  0  0  0  0  0  0
   37.9990   23.4380   38.1760 C   0  0  0  0  0  0  0  0  0  0  0  0
   37.4770   23.0880   36.9830 N   0  0  0  0  0  0  0  0  0  0  0  0
   34.5617   18.2639   33.0316 H   0  0  0  0  0  0  0  0  0  0  0  0
   36.2043   18.6745   33.6653 H   0  0  0  0  0  0  0  0  0  0  0  0
   35.2784   17.9583   27.0431 H   0  0  0  0  0  0  0  0  0  0  0  0
   36.5258   19.0142   24.9144 H   0  0  0  0  0  0  0  0  0  0  0  0
   37.4324   21.6527   24.7814 H   0  0  0  0  0  0  0  0  0  0  0  0
   39.0691   22.7446   23.2670 H   0  0  0  0  0  0  0  0  0  0  0  0
   42.1616   20.1395   24.4409 H   0  0  0  0  0  0  0  0  0  0  0  0
   34.9825   20.6536   31.7760 H   0  0  0  0  0  0  0  0  0  0  0  0
   34.2052   20.4997   33.4002 H   0  0  0  0  0  0  0  0  0  0  0  0
   36.1482   20.7649   35.5860 H   0  0  0  0  0  0  0  0  0  0  0  0
   37.0846   22.1654   31.6465 H   0  0  0  0  0  0  0  0  0  0  0  0
   40.2934   21.7990   35.6247 H   0  0  0  0  0  0  0  0  0  0  0  0
   41.1942   22.4778   37.8607 H   0  0  0  0  0  0  0  0  0  0  0  0
   37.3492   23.9132   38.9256 H   0  0  0  0  0  0  0  0  0  0  0  0
  2  1  1  0
  3  2  2  0
  4  3  1  0
  5  4  1  0
  5  6  2  0
  6  2  1  0
  7  5  1  0
  8  7  1  0
  9 10  1  0
  9  8  2  0
 10 11  1  0
 11  7  2  0
 12 10  1  0
 13 12  2  0
 14 13  1  0
 15 14  2  0
 15 16  1  0
 16 17  2  0
 17 12  1  0
 18  1  1  0
 18 21  1  0
 19 24  1  0
 20 19  2  0
 21 20  1  0
 22 21  2  0
 22 23  1  0
 23 19  1  0
 24 25  2  0
 24 29  1  0
 25 26  1  0
 26 27  2  0
 28 27  1  0
 29 28  2  0
  1 30  1  0
  1 31  1  0
  8 32  1  0
  9 33  1  0
 13 34  1  0
 14 35  1  0
 16 36  1  0
 18 37  1  0
 18 38  1  0
 20 39  1  0
 22 40  1  0
 25 41  1  0
 26 42  1  0
 28 43  1  0
M  ISO  8  30   8  31   8  32  14  33  14  34  14  35  14  36  14  37   8
M  ISO  6  38   8  39  14  40  14  41  14  42  14  43  14
M  END
>  <minimizedAffinity>  (1) 
-5.30847406

>  <minimizedRMSD>  (1) 
0.187886164

$$$$
