
     RDKit          3D

 27 29  0  0  0  0  0  0  0  0999 V2000
   37.7230   26.0990   35.3680 S   0  0  0  0  0  0  0  0  0  0  0  0
   39.0250   26.6080   34.2720 C   0  0  0  0  0  0  0  0  0  0  0  0
   40.3230   26.7470   34.7290 C   0  0  0  0  0  0  0  0  0  0  0  0
   41.3660   27.1370   33.9250 C   0  0  0  0  0  0  0  0  0  0  0  0
   41.1510   27.4140   32.5890 C   0  0  0  0  0  0  0  0  0  0  0  0
   39.8540   27.2800   32.1180 C   0  0  0  0  0  0  0  0  0  0  0  0
   39.6700   27.5670   30.7650 C   0  0  0  0  0  0  0  0  0  0  0  0
   38.3720   27.4270   30.3150 C   0  0  0  0  0  0  0  0  0  0  0  0
   37.2870   27.0410   31.0710 C   0  0  0  0  0  0  0  0  0  0  0  0
   37.5530   26.7730   32.4060 C   0  0  0  0  0  0  0  0  0  0  0  0
   38.8220   26.8880   32.9360 C   0  0  0  0  0  0  0  0  0  0  0  0
   39.5570   22.9030   36.8560 C   0  0  0  0  0  0  0  0  0  0  0  0
   39.1950   22.8890   38.2070 C   0  0  0  0  0  0  0  0  0  0  0  0
   38.3440   23.9120   38.6850 C   0  0  0  0  0  0  0  0  0  0  0  0
   37.9290   24.8600   37.7810 N   0  0  0  0  0  0  0  0  0  0  0  0
   38.3000   24.8340   36.4970 C   0  0  0  0  0  0  0  0  0  0  0  0
   39.1060   23.8680   36.0330 N   0  0  0  0  0  0  0  0  0  0  0  0
   40.5301   26.5348   35.7883 H   0  0  0  0  0  0  0  0  0  0  0  0
   42.3776   27.2292   34.3471 H   0  0  0  0  0  0  0  0  0  0  0  0
   41.9726   27.7271   31.9280 H   0  0  0  0  0  0  0  0  0  0  0  0
   40.4947   27.8804   30.1080 H   0  0  0  0  0  0  0  0  0  0  0  0
   38.1870   27.6442   29.2527 H   0  0  0  0  0  0  0  0  0  0  0  0
   36.2770   26.9512   30.6446 H   0  0  0  0  0  0  0  0  0  0  0  0
   36.7275   26.4594   33.0618 H   0  0  0  0  0  0  0  0  0  0  0  0
   40.2175   22.1167   36.4617 H   0  0  0  0  0  0  0  0  0  0  0  0
   39.5633   22.1015   38.8810 H   0  0  0  0  0  0  0  0  0  0  0  0
   38.0270   23.9475   39.7377 H   0  0  0  0  0  0  0  0  0  0  0  0
  1 16  1  0
  2  3  2  0
  2  1  1  0
  4  3  1  0
  5  4  2  0
  6  5  1  0
  6 11  2  0
  7  6  1  0
  8  7  2  0
  8  9  1  0
  9 10  2  0
 10 11  1  0
 11  2  1  0
 12 13  2  0
 13 14  1  0
 15 14  2  0
 16 15  1  0
 17 16  2  0
 17 12  1  0
  3 18  1  0
  4 19  1  0
  5 20  1  0
  7 21  1  0
  8 22  1  0
  9 23  1  0
 10 24  1  0
 12 25  1  0
 13 26  1  0
 14 27  1  0
M  ISO  8  18  14  19  14  20  14  21  14  22  14  23  14  24  14  25  14
M  ISO  2  26  14  27  14
M  END
>  <minimizedAffinity>  (1) 
-4.70665884

>  <minimizedRMSD>  (1) 
3.44998574

$$$$
