
     RDKit          3D

 23 23  0  0  0  0  0  0  0  0999 V2000
   39.8120   22.8650   37.6920 C   0  0  0  0  0  0  0  0  0  0  0  0
   38.9190   23.2610   38.6930 C   0  0  0  0  0  0  0  0  0  0  0  0
   37.9150   24.1730   38.3530 C   0  0  0  0  0  0  0  0  0  0  0  0
   37.8470   24.6370   37.0680 N   0  0  0  0  0  0  0  0  0  0  0  0
   38.7290   24.2340   36.1230 C   0  0  0  0  0  0  0  0  0  0  0  0
   39.7020   23.3530   36.4440 N   0  0  0  0  0  0  0  0  0  0  0  0
   38.6330   24.8450   34.4500 S   0  0  0  0  0  0  0  0  0  0  0  0
   39.3630   26.5130   34.4830 C   0  0  0  0  0  0  0  0  0  0  0  0
   40.8300   26.3110   34.8050 C   0  0  0  0  0  0  0  0  0  0  0  0
   39.1430   27.1380   33.1250 C   0  0  0  0  0  0  0  0  0  0  0  0
   38.7090   27.3550   35.5590 C   0  0  0  0  0  0  0  0  0  0  0  0
   40.6118   22.1476   37.9280 H   0  0  0  0  0  0  0  0  0  0  0  0
   39.0039   22.8670   39.7165 H   0  0  0  0  0  0  0  0  0  0  0  0
   37.1904   24.5124   39.1079 H   0  0  0  0  0  0  0  0  0  0  0  0
   40.9666   26.2922   35.8963 H   0  0  0  0  0  0  0  0  0  0  0  0
   41.1716   25.3573   34.3762 H   0  0  0  0  0  0  0  0  0  0  0  0
   41.4166   27.1368   34.3762 H   0  0  0  0  0  0  0  0  0  0  0  0
   38.7801   28.1688   33.2502 H   0  0  0  0  0  0  0  0  0  0  0  0
   40.0915   27.1483   32.5681 H   0  0  0  0  0  0  0  0  0  0  0  0
   38.3972   26.5519   32.5681 H   0  0  0  0  0  0  0  0  0  0  0  0
   39.0026   26.9770   36.5494 H   0  0  0  0  0  0  0  0  0  0  0  0
   39.0341   28.4007   35.4545 H   0  0  0  0  0  0  0  0  0  0  0  0
   37.6154   27.2988   35.4545 H   0  0  0  0  0  0  0  0  0  0  0  0
  1  2  2  0
  3  2  1  0
  4  3  2  0
  5  6  2  0
  5  4  1  0
  6  1  1  0
  7  8  1  0
  7  5  1  0
  8  9  1  0
  8 11  1  0
 10  8  1  0
  1 12  1  0
  2 13  1  0
  3 14  1  0
  9 15  1  0
  9 16  1  0
  9 17  1  0
 10 18  1  0
 10 19  1  0
 10 20  1  0
 11 21  1  0
 11 22  1  0
 11 23  1  0
M  ISO  8  12  14  13  14  14  14  15   8  16   8  17   8  18   8  19   8
M  ISO  4  20   8  21   8  22   8  23   8
M  END
>  <minimizedAffinity>  (1) 
-3.7341876

>  <minimizedRMSD>  (1) 
3.09052086

$$$$
