
     RDKit          3D

 44 48  0  0  1  0  0  0  0  0999 V2000
   39.5230   23.6680   35.1240 C   0  0  1  0  0  0  0  0  0  0  0  0
   38.9530   24.2820   36.3590 C   0  0  0  0  0  0  0  0  0  0  0  0
   38.8970   23.1290   37.3320 C   0  0  0  0  0  0  0  0  0  0  0  0
   40.2020   22.4350   37.0900 C   0  0  0  0  0  0  0  0  0  0  0  0
   40.5290   22.6560   35.6390 C   0  0  2  0  0  0  0  0  0  0  0  0
   41.8490   23.3130   35.5920 C   0  0  0  0  0  0  0  0  0  0  0  0
   42.5490   23.5560   36.7360 N   0  0  0  0  0  0  0  0  0  0  0  0
   43.7500   24.1500   36.7330 C   0  0  0  0  0  0  0  0  0  0  0  0
   44.3800   24.5620   35.6100 N   0  0  0  0  0  0  0  0  0  0  0  0
   43.7250   24.3440   34.4380 C   0  0  0  0  0  0  0  0  0  0  0  0
   44.2870   24.7310   33.2220 C   0  0  0  0  0  0  0  0  0  0  0  0
   43.6390   24.5190   32.0120 C   0  0  0  0  0  0  0  0  0  0  0  0
   42.4020   23.9060   32.0400 C   0  0  0  0  0  0  0  0  0  0  0  0
   41.8600   23.5290   33.2470 C   0  0  0  0  0  0  0  0  0  0  0  0
   42.4770   23.7260   34.4570 C   0  0  0  0  0  0  0  0  0  0  0  0
   37.8110   23.6550   33.3310 C   0  0  0  0  0  0  0  0  0  0  0  0
   36.9180   22.7700   32.7410 C   0  0  0  0  0  0  0  0  0  0  0  0
   37.1060   21.5870   33.4030 N   0  0  0  0  0  0  0  0  0  0  0  0
   38.0600   21.7990   34.3210 C   0  0  0  0  0  0  0  0  0  0  0  0
   38.5150   23.0590   34.3040 N   0  0  0  0  0  0  0  0  0  0  0  0
   37.9840   25.0590   32.9610 C   0  0  0  0  0  0  0  0  0  0  0  0
   38.9030   25.4100   31.9550 C   0  0  0  0  0  0  0  0  0  0  0  0
   39.0180   26.7780   31.6500 C   0  0  0  0  0  0  0  0  0  0  0  0
   38.2630   27.6590   32.3190 N   0  0  0  0  0  0  0  0  0  0  0  0
   37.3890   27.2870   33.2810 C   0  0  0  0  0  0  0  0  0  0  0  0
   37.2410   25.9870   33.6120 N   0  0  0  0  0  0  0  0  0  0  0  0
   39.9876   24.4181   34.4671 H   0  0  0  0  0  0  0  0  0  0  0  0
   39.6048   25.0837   36.7364 H   0  0  0  0  0  0  0  0  0  0  0  0
   37.9714   24.7494   36.1914 H   0  0  0  0  0  0  0  0  0  0  0  0
   38.8242   23.4877   38.3693 H   0  0  0  0  0  0  0  0  0  0  0  0
   38.0218   22.4780   37.1897 H   0  0  0  0  0  0  0  0  0  0  0  0
   40.9876   22.8657   37.7283 H   0  0  0  0  0  0  0  0  0  0  0  0
   40.1375   21.3631   37.3287 H   0  0  0  0  0  0  0  0  0  0  0  0
   40.5152   21.7190   35.0629 H   0  0  0  0  0  0  0  0  0  0  0  0
   44.2516   24.3115   37.6986 H   0  0  0  0  0  0  0  0  0  0  0  0
   45.2730   25.2187   33.2210 H   0  0  0  0  0  0  0  0  0  0  0  0
   44.0968   24.8297   31.0613 H   0  0  0  0  0  0  0  0  0  0  0  0
   41.8541   23.7205   31.1044 H   0  0  0  0  0  0  0  0  0  0  0  0
   40.8742   23.0410   33.2420 H   0  0  0  0  0  0  0  0  0  0  0  0
   36.2138   22.9750   31.9212 H   0  0  0  0  0  0  0  0  0  0  0  0
   38.4279   21.0251   35.0108 H   0  0  0  0  0  0  0  0  0  0  0  0
   39.5029   24.6506   31.4321 H   0  0  0  0  0  0  0  0  0  0  0  0
   39.7179   27.1195   30.8732 H   0  0  0  0  0  0  0  0  0  0  0  0
   36.7922   28.0519   33.7994 H   0  0  0  0  0  0  0  0  0  0  0  0
  1  5  1  0
  1  2  1  0
  2  3  1  0
  4  3  1  0
  5  4  1  0
  6  5  1  0
  6  7  2  0
  8  7  1  0
  9  8  2  0
 10 15  2  0
 10  9  1  0
 11 10  1  0
 12 13  1  0
 12 11  2  0
 13 14  2  0
 14 15  1  0
 15  6  1  0
 16 20  1  0
 17 16  2  0
 17 18  1  0
 18 19  2  0
 20 19  1  0
 20  1  1  0
 21 16  1  0
 21 26  1  0
 22 21  2  0
 23 22  1  0
 23 24  2  0
 24 25  1  0
 25 26  2  0
  1 27  1  6
  2 28  1  0
  2 29  1  0
  3 30  1  0
  3 31  1  0
  4 32  1  0
  4 33  1  0
  5 34  1  6
  8 35  1  0
 11 36  1  0
 12 37  1  0
 13 38  1  0
 14 39  1  0
 17 40  1  0
 19 41  1  0
 22 42  1  0
 23 43  1  0
 25 44  1  0
M  ISO  8  27  13  28  13  29  13  30  13  31  13  32  13  33  13  34  13
M  ISO  8  35  14  36  14  37  14  38  14  39  14  40  14  41  14  42  14
M  ISO  2  43  14  44  14
M  END
>  <minimizedAffinity>  (1) 
-4.58569765

>  <minimizedRMSD>  (1) 
1.48407221

$$$$
