
     RDKit          3D

 26 27  0  0  0  0  0  0  0  0999 V2000
   40.0070   22.6820   37.4900 C   0  0  0  0  0  0  0  0  0  0  0  0
   39.1640   23.2680   38.4610 C   0  0  0  0  0  0  0  0  0  0  0  0
   37.7990   23.4420   38.1250 C   0  0  0  0  0  0  0  0  0  0  0  0
   37.3760   23.0360   36.8890 N   0  0  0  0  0  0  0  0  0  0  0  0
   38.2110   22.4830   35.9950 C   0  0  0  0  0  0  0  0  0  0  0  0
   39.5030   22.3100   36.2940 N   0  0  0  0  0  0  0  0  0  0  0  0
   37.6240   21.9660   34.3950 S   0  0  0  0  0  0  0  0  0  0  0  0
   36.9000   25.5490   31.8360 N   0  0  0  0  0  0  0  0  0  0  0  0
   36.8900   24.2830   31.1470 C   0  0  0  0  0  0  0  0  0  0  0  0
   36.7600   23.1920   32.1870 C   0  0  0  0  0  0  0  0  0  0  0  0
   37.9380   23.2570   33.1490 C   0  0  0  0  0  0  0  0  0  0  0  0
   37.9250   24.6420   33.7900 C   0  0  0  0  0  0  0  0  0  0  0  0
   38.0700   25.6450   32.6630 C   0  0  0  0  0  0  0  0  0  0  0  0
   41.0741   22.5289   37.7086 H   0  0  0  0  0  0  0  0  0  0  0  0
   39.5536   23.5777   39.4420 H   0  0  0  0  0  0  0  0  0  0  0  0
   37.0959   23.8928   38.8408 H   0  0  0  0  0  0  0  0  0  0  0  0
   36.0583   25.6242   32.4248 H   0  0  0  0  0  0  0  0  0  0  0  0
   36.0379   24.2415   30.4526 H   0  0  0  0  0  0  0  0  0  0  0  0
   37.8160   24.1534   30.5676 H   0  0  0  0  0  0  0  0  0  0  0  0
   35.8230   23.3300   32.7465 H   0  0  0  0  0  0  0  0  0  0  0  0
   36.7512   22.2119   31.6876 H   0  0  0  0  0  0  0  0  0  0  0  0
   38.9136   23.0976   32.6666 H   0  0  0  0  0  0  0  0  0  0  0  0
   36.9762   24.8045   34.3223 H   0  0  0  0  0  0  0  0  0  0  0  0
   38.7404   24.7474   34.5208 H   0  0  0  0  0  0  0  0  0  0  0  0
   38.9673   25.4142   32.0700 H   0  0  0  0  0  0  0  0  0  0  0  0
   38.1728   26.6633   33.0661 H   0  0  0  0  0  0  0  0  0  0  0  0
  1  2  2  0
  3  2  1  0
  4  3  2  0
  5  6  2  0
  5  4  1  0
  6  1  1  0
  7  5  1  0
  8 13  1  0
  9  8  1  0
  9 10  1  0
 10 11  1  0
 11 12  1  0
 11  7  1  0
 13 12  1  0
  1 14  1  0
  2 15  1  0
  3 16  1  0
  8 17  1  0
  9 18  1  0
  9 19  1  0
 10 20  1  0
 10 21  1  0
 11 22  1  0
 12 23  1  0
 12 24  1  0
 13 25  1  0
 13 26  1  0
M  ISO  8  14  14  15  14  16  14  17   5  18  13  19  13  20  13  21  13
M  ISO  5  22  13  23  13  24  13  25  13  26  13
M  END
>  <minimizedAffinity>  (1) 
-3.65456462

>  <minimizedRMSD>  (1) 
2.65021729

$$$$
