
     RDKit          3D

 18 19  0  0  0  0  0  0  0  0999 V2000
   39.7630   22.7750   37.6880 C   0  0  0  0  0  0  0  0  0  0  0  0
   38.8710   23.3640   38.5800 C   0  0  0  0  0  0  0  0  0  0  0  0
   37.8740   24.2290   38.0610 C   0  0  0  0  0  0  0  0  0  0  0  0
   37.8690   24.4190   36.7050 N   0  0  0  0  0  0  0  0  0  0  0  0
   38.7440   23.8330   35.8780 C   0  0  0  0  0  0  0  0  0  0  0  0
   39.6850   23.0140   36.3780 N   0  0  0  0  0  0  0  0  0  0  0  0
   38.6790   24.1250   34.1150 S   0  0  0  0  0  0  0  0  0  0  0  0
   37.5070   23.0170   33.3360 C   0  0  0  0  0  0  0  0  0  0  0  0
   36.8090   23.1480   32.1440 C   0  0  0  0  0  0  0  0  0  0  0  0
   36.0600   21.9870   32.0630 C   0  0  0  0  0  0  0  0  0  0  0  0
   36.3160   21.2090   33.1740 C   0  0  0  0  0  0  0  0  0  0  0  0
   37.1840   21.8680   33.8980 O   0  0  0  0  0  0  0  0  0  0  0  0
   40.5447   22.1017   38.0696 H   0  0  0  0  0  0  0  0  0  0  0  0
   38.9378   23.1637   39.6595 H   0  0  0  0  0  0  0  0  0  0  0  0
   37.1408   24.7229   38.7156 H   0  0  0  0  0  0  0  0  0  0  0  0
   36.8431   23.9825   31.4282 H   0  0  0  0  0  0  0  0  0  0  0  0
   35.3719   21.7264   31.2453 H   0  0  0  0  0  0  0  0  0  0  0  0
   35.8765   20.2275   33.4053 H   0  0  0  0  0  0  0  0  0  0  0  0
  1  2  2  0
  3  2  1  0
  4  3  2  0
  5  6  2  0
  5  4  1  0
  6  1  1  0
  7  5  1  0
  8 12  1  0
  8  7  1  0
  9  8  2  0
 10  9  1  0
 10 11  2  0
 11 12  1  0
  1 13  1  0
  2 14  1  0
  3 15  1  0
  9 16  1  0
 10 17  1  0
 11 18  1  0
M  ISO  6  13  14  14  14  15  14  16  14  17  14  18  14
M  END
>  <minimizedAffinity>  (1) 
-3.48331642

>  <minimizedRMSD>  (1) 
2.46878862

$$$$
