
     RDKit          3D

 18 19  0  0  0  0  0  0  0  0999 V2000
   39.7400   22.8100   37.6900 C   0  0  0  0  0  0  0  0  0  0  0  0
   38.9240   23.3270   38.6980 C   0  0  0  0  0  0  0  0  0  0  0  0
   37.8940   24.2130   38.3440 C   0  0  0  0  0  0  0  0  0  0  0  0
   37.7530   24.5200   37.0110 N   0  0  0  0  0  0  0  0  0  0  0  0
   38.5600   24.0010   36.0680 C   0  0  0  0  0  0  0  0  0  0  0  0
   39.5450   23.1540   36.4100 N   0  0  0  0  0  0  0  0  0  0  0  0
   38.3220   24.4410   34.3540 S   0  0  0  0  0  0  0  0  0  0  0  0
   37.5370   26.0460   34.3110 C   0  0  0  0  0  0  0  0  0  0  0  0
   37.1020   26.4330   33.0420 C   0  0  0  0  0  0  0  0  0  0  0  0
   36.5270   27.6590   33.1400 N   0  0  0  0  0  0  0  0  0  0  0  0
   36.6040   28.0250   34.4290 C   0  0  0  0  0  0  0  0  0  0  0  0
   37.2140   27.0560   35.1540 N   0  0  0  0  0  0  0  0  0  0  0  0
   40.5509   22.1134   37.9493 H   0  0  0  0  0  0  0  0  0  0  0  0
   39.0849   23.0456   39.7492 H   0  0  0  0  0  0  0  0  0  0  0  0
   37.2257   24.6449   39.1035 H   0  0  0  0  0  0  0  0  0  0  0  0
   37.2073   25.8441   32.1189 H   0  0  0  0  0  0  0  0  0  0  0  0
   36.2267   28.9740   34.8377 H   0  0  0  0  0  0  0  0  0  0  0  0
   37.3993   27.0828   36.1669 H   0  0  0  0  0  0  0  0  0  0  0  0
  1  2  2  0
  3  2  1  0
  4  3  2  0
  5  6  2  0
  5  4  1  0
  6  1  1  0
  7  5  1  0
  8  7  1  0
  8 12  1  0
  9 10  1  0
  9  8  2  0
 10 11  2  0
 11 12  1  0
  1 13  1  0
  2 14  1  0
  3 15  1  0
  9 16  1  0
 11 17  1  0
 12 18  1  0
M  ISO  6  13  14  14  14  15  14  16  14  17  14  18   9
M  END
>  <minimizedAffinity>  (1) 
-3.65284157

>  <minimizedRMSD>  (1) 
1.90870905

$$$$
