
     RDKit          3D

 31 33  0  0  0  0  0  0  0  0999 V2000
   37.4600   22.6270   33.2730 C   0  0  0  0  0  0  0  0  0  0  0  0
   36.9900   21.3960   33.6680 C   0  0  0  0  0  0  0  0  0  0  0  0
   35.8660   20.8010   33.1600 C   0  0  0  0  0  0  0  0  0  0  0  0
   35.1310   21.4700   32.1730 C   0  0  0  0  0  0  0  0  0  0  0  0
   35.6190   22.7020   31.7920 C   0  0  0  0  0  0  0  0  0  0  0  0
   36.7350   23.2870   32.3010 C   0  0  0  0  0  0  0  0  0  0  0  0
   37.1110   24.5660   31.8030 N   0  0  0  0  0  0  0  0  0  0  0  0
   36.7350   25.7060   32.4050 C   0  0  0  0  0  0  0  0  0  0  0  0
   37.1730   26.8930   31.8130 C   0  0  0  0  0  0  0  0  0  0  0  0
   37.9510   26.8940   30.6690 C   0  0  0  0  0  0  0  0  0  0  0  0
   38.3400   27.9750   30.1420 O   0  0  0  0  0  0  0  0  0  0  0  0
   38.3010   25.7080   30.1010 N   0  0  0  0  0  0  0  0  0  0  0  0
   37.8670   24.5680   30.6890 C   0  0  0  0  0  0  0  0  0  0  0  0
   38.2540   23.5250   30.0750 O   0  0  0  0  0  0  0  0  0  0  0  0
   38.9340   23.3820   33.9560 S   0  0  0  0  0  0  0  0  0  0  0  0
   39.7930   22.7940   37.8000 C   0  0  0  0  0  0  0  0  0  0  0  0
   38.7420   23.3930   38.4940 C   0  0  0  0  0  0  0  0  0  0  0  0
   37.7370   23.9990   37.7410 C   0  0  0  0  0  0  0  0  0  0  0  0
   37.8070   23.9870   36.3800 N   0  0  0  0  0  0  0  0  0  0  0  0
   38.8390   23.3980   35.7360 C   0  0  0  0  0  0  0  0  0  0  0  0
   39.8100   22.8130   36.4730 N   0  0  0  0  0  0  0  0  0  0  0  0
   37.5535   20.8545   34.4421 H   0  0  0  0  0  0  0  0  0  0  0  0
   35.5453   19.8128   33.5215 H   0  0  0  0  0  0  0  0  0  0  0  0
   34.2212   21.0393   31.7295 H   0  0  0  0  0  0  0  0  0  0  0  0
   35.0636   23.2524   31.0183 H   0  0  0  0  0  0  0  0  0  0  0  0
   36.1161   25.7051   33.3144 H   0  0  0  0  0  0  0  0  0  0  0  0
   36.8915   27.8536   32.2691 H   0  0  0  0  0  0  0  0  0  0  0  0
   38.8790   25.6783   29.2490 H   0  0  0  0  0  0  0  0  0  0  0  0
   40.6087   22.3053   38.3530 H   0  0  0  0  0  0  0  0  0  0  0  0
   38.7072   23.3876   39.5934 H   0  0  0  0  0  0  0  0  0  0  0  0
   36.8890   24.4860   38.2447 H   0  0  0  0  0  0  0  0  0  0  0  0
  1  2  2  0
  1 15  1  0
  3  2  1  0
  4  3  2  0
  5  4  1  0
  5  6  2  0
  6  1  1  0
  7  6  1  0
  7  8  1  0
  9  8  2  0
 10  9  1  0
 11 10  2  0
 12 10  1  0
 12 13  1  0
 13  7  1  0
 14 13  2  0
 15 20  1  0
 16 17  2  0
 18 17  1  0
 19 18  2  0
 20 19  1  0
 20 21  2  0
 21 16  1  0
  2 22  1  0
  3 23  1  0
  4 24  1  0
  5 25  1  0
  8 26  1  0
  9 27  1  0
 12 28  1  0
 16 29  1  0
 17 30  1  0
 18 31  1  0
M  ISO  8  22  14  23  14  24  14  25  14  26  14  27  14  28   9  29  14
M  ISO  2  30  14  31  14
M  END
>  <minimizedAffinity>  (1) 
-5.48541403

>  <minimizedRMSD>  (1) 
1.10700548

$$$$
