
     RDKit          3D

 37 39  0  0  0  0  0  0  0  0999 V2000
   37.6580   23.7310   33.0870 C   0  0  0  0  0  0  0  0  0  0  0  0
   37.4190   22.3780   33.1960 C   0  0  0  0  0  0  0  0  0  0  0  0
   36.4130   21.7470   32.5060 C   0  0  0  0  0  0  0  0  0  0  0  0
   35.5810   22.4810   31.6530 C   0  0  0  0  0  0  0  0  0  0  0  0
   35.8360   23.8310   31.5600 C   0  0  0  0  0  0  0  0  0  0  0  0
   36.8310   24.4570   32.2400 C   0  0  0  0  0  0  0  0  0  0  0  0
   37.1170   25.9350   32.1430 C   0  0  0  0  0  0  0  0  0  0  0  0
   36.7240   26.6670   33.3810 C   0  0  0  0  0  0  0  0  0  0  0  0
   36.5840   28.1330   33.0450 C   0  0  0  0  0  0  0  0  0  0  0  0
   37.3320   28.4740   31.7700 C   0  0  0  0  0  0  0  0  0  0  0  0
   36.6810   27.8340   30.5680 C   0  0  0  0  0  0  0  0  0  0  0  0
   36.2680   26.4430   30.9940 C   0  0  0  0  0  0  0  0  0  0  0  0
   38.9780   24.5540   33.9930 S   0  0  0  0  0  0  0  0  0  0  0  0
   39.8230   22.8400   37.4700 C   0  0  0  0  0  0  0  0  0  0  0  0
   38.8680   23.3350   38.3680 C   0  0  0  0  0  0  0  0  0  0  0  0
   37.9300   24.2360   37.8600 C   0  0  0  0  0  0  0  0  0  0  0  0
   37.9910   24.5790   36.5490 N   0  0  0  0  0  0  0  0  0  0  0  0
   38.9160   24.0910   35.7080 C   0  0  0  0  0  0  0  0  0  0  0  0
   39.8230   23.2230   36.1880 N   0  0  0  0  0  0  0  0  0  0  0  0
   38.0590   21.7802   33.8616 H   0  0  0  0  0  0  0  0  0  0  0  0
   36.2611   20.6639   32.6239 H   0  0  0  0  0  0  0  0  0  0  0  0
   34.7668   22.0049   31.0870 H   0  0  0  0  0  0  0  0  0  0  0  0
   35.1985   24.4358   30.8983 H   0  0  0  0  0  0  0  0  0  0  0  0
   38.1950   26.0986   31.9974 H   0  0  0  0  0  0  0  0  0  0  0  0
   35.7648   26.2782   33.7536 H   0  0  0  0  0  0  0  0  0  0  0  0
   37.4886   26.5295   34.1598 H   0  0  0  0  0  0  0  0  0  0  0  0
   35.5184   28.3709   32.9111 H   0  0  0  0  0  0  0  0  0  0  0  0
   37.0108   28.7231   33.8694 H   0  0  0  0  0  0  0  0  0  0  0  0
   37.3357   29.5660   31.6372 H   0  0  0  0  0  0  0  0  0  0  0  0
   38.3594   28.0904   31.8555 H   0  0  0  0  0  0  0  0  0  0  0  0
   37.3950   27.7796   29.7330 H   0  0  0  0  0  0  0  0  0  0  0  0
   35.8147   28.4192   30.2257 H   0  0  0  0  0  0  0  0  0  0  0  0
   35.2149   26.4648   31.3110 H   0  0  0  0  0  0  0  0  0  0  0  0
   36.4072   25.7660   30.1383 H   0  0  0  0  0  0  0  0  0  0  0  0
   40.5826   22.1273   37.8236 H   0  0  0  0  0  0  0  0  0  0  0  0
   38.8577   23.0280   39.4242 H   0  0  0  0  0  0  0  0  0  0  0  0
   37.1535   24.6611   38.5129 H   0  0  0  0  0  0  0  0  0  0  0  0
  1  2  2  0
  1 13  1  0
  3  2  1  0
  4  3  2  0
  5  4  1  0
  5  6  2  0
  6  1  1  0
  7  6  1  0
  7  8  1  0
  9  8  1  0
 10  9  1  0
 11 12  1  0
 11 10  1  0
 12  7  1  0
 13 18  1  0
 14 15  2  0
 16 15  1  0
 17 16  2  0
 18 19  2  0
 18 17  1  0
 19 14  1  0
  2 20  1  0
  3 21  1  0
  4 22  1  0
  5 23  1  0
  7 24  1  0
  8 25  1  0
  8 26  1  0
  9 27  1  0
  9 28  1  0
 10 29  1  0
 10 30  1  0
 11 31  1  0
 11 32  1  0
 12 33  1  0
 12 34  1  0
 14 35  1  0
 15 36  1  0
 16 37  1  0
M  ISO  8  20  14  21  14  22  14  23  14  24  13  25  13  26  13  27  13
M  ISO  8  28  13  29  13  30  13  31  13  32  13  33  13  34  13  35  14
M  ISO  2  36  14  37  14
M  END
>  <minimizedAffinity>  (1) 
-5.09520197

>  <minimizedRMSD>  (1) 
1.93572164

$$$$
