
     RDKit          3D

 33 35  0  0  1  0  0  0  0  0999 V2000
   37.8250   23.6050   33.5240 C   0  0  0  0  0  0  0  0  0  0  0  0
   37.0570   22.6460   32.8650 C   0  0  0  0  0  0  0  0  0  0  0  0
   37.0830   21.5650   33.6840 N   0  0  0  0  0  0  0  0  0  0  0  0
   37.8270   21.8930   34.7520 C   0  0  0  0  0  0  0  0  0  0  0  0
   38.2960   23.1410   34.6810 N   0  0  0  0  0  0  0  0  0  0  0  0
   39.1220   23.8460   35.6240 C   0  0  1  0  0  0  0  0  0  0  0  0
   38.3350   24.7840   36.4720 C   0  0  0  0  0  0  0  0  0  0  0  0
   37.8690   23.9010   37.6110 C   0  0  0  0  0  0  0  0  0  0  0  0
   39.0870   23.0720   37.9060 C   0  0  0  0  0  0  0  0  0  0  0  0
   39.8060   22.9160   36.6020 C   0  0  2  0  0  0  0  0  0  0  0  0
   41.2940   23.1600   36.7070 C   0  0  0  0  0  0  0  0  0  0  0  0
   38.0980   24.9590   33.0350 C   0  0  0  0  0  0  0  0  0  0  0  0
   39.2820   25.2310   32.3370 C   0  0  0  0  0  0  0  0  0  0  0  0
   39.4720   26.5590   31.8990 C   0  0  0  0  0  0  0  0  0  0  0  0
   38.5200   27.4770   32.1720 N   0  0  0  0  0  0  0  0  0  0  0  0
   37.4060   27.1720   32.8420 C   0  0  0  0  0  0  0  0  0  0  0  0
   37.1720   25.9170   33.2840 N   0  0  0  0  0  0  0  0  0  0  0  0
   36.5443   22.7441   31.8968 H   0  0  0  0  0  0  0  0  0  0  0  0
   38.0277   21.2106   35.5911 H   0  0  0  0  0  0  0  0  0  0  0  0
   39.8514   24.3786   34.9961 H   0  0  0  0  0  0  0  0  0  0  0  0
   38.9648   25.6068   36.8413 H   0  0  0  0  0  0  0  0  0  0  0  0
   37.5083   25.2684   35.9317 H   0  0  0  0  0  0  0  0  0  0  0  0
   37.5770   24.5019   38.4849 H   0  0  0  0  0  0  0  0  0  0  0  0
   36.9817   23.3001   37.3626 H   0  0  0  0  0  0  0  0  0  0  0  0
   39.7294   23.5836   38.6378 H   0  0  0  0  0  0  0  0  0  0  0  0
   38.8158   22.0964   38.3357 H   0  0  0  0  0  0  0  0  0  0  0  0
   39.7443   21.8743   36.2541 H   0  0  0  0  0  0  0  0  0  0  0  0
   41.5839   23.2075   37.7671 H   0  0  0  0  0  0  0  0  0  0  0  0
   41.8358   22.3387   36.2152 H   0  0  0  0  0  0  0  0  0  0  0  0
   41.5452   24.1113   36.2152 H   0  0  0  0  0  0  0  0  0  0  0  0
   40.0278   24.4469   32.1398 H   0  0  0  0  0  0  0  0  0  0  0  0
   40.3794   26.8413   31.3451 H   0  0  0  0  0  0  0  0  0  0  0  0
   36.6631   27.9592   33.0382 H   0  0  0  0  0  0  0  0  0  0  0  0
  1  5  1  0
  2  1  2  0
  2  3  1  0
  3  4  2  0
  5  4  1  0
  5  6  1  0
  6  7  1  0
  6 10  1  0
  7  8  1  0
  8  9  1  0
 10 11  1  0
 10  9  1  0
 12 17  1  0
 12  1  1  0
 13 12  2  0
 14 15  2  0
 14 13  1  0
 15 16  1  0
 16 17  2  0
  2 18  1  0
  4 19  1  0
  6 20  1  6
  7 21  1  0
  7 22  1  0
  8 23  1  0
  8 24  1  0
  9 25  1  0
  9 26  1  0
 10 27  1  6
 11 28  1  0
 11 29  1  0
 11 30  1  0
 13 31  1  0
 14 32  1  0
 16 33  1  0
M  ISO  8  18  14  19  14  20  13  21  13  22  13  23  13  24  13  25  13
M  ISO  8  26  13  27  13  28   8  29   8  30   8  31  14  32  14  33  14
M  END
>  <minimizedAffinity>  (1) 
-4.28111458

>  <minimizedRMSD>  (1) 
0.27100566

$$$$
