
     RDKit          3D

 34 36  0  0  0  0  0  0  0  0999 V2000
   37.3050   22.2160   33.4730 C   0  0  0  0  0  0  0  0  0  0  0  0
   36.6750   21.2840   34.2610 C   0  0  0  0  0  0  0  0  0  0  0  0
   35.5870   20.5590   33.8450 C   0  0  0  0  0  0  0  0  0  0  0  0
   35.0740   20.7620   32.5630 C   0  0  0  0  0  0  0  0  0  0  0  0
   35.7240   21.7030   31.7930 C   0  0  0  0  0  0  0  0  0  0  0  0
   36.8040   22.4250   32.1990 C   0  0  0  0  0  0  0  0  0  0  0  0
   37.4030   23.3770   31.3230 N   0  0  0  0  0  0  0  0  0  0  0  0
   37.1270   24.7900   31.0940 C   0  0  0  0  0  0  0  0  0  0  0  0
   38.4180   25.6100   31.0160 C   0  0  0  0  0  0  0  0  0  0  0  0
   39.3970   24.9630   30.2930 O   0  0  0  0  0  0  0  0  0  0  0  0
   38.8300   23.9550   29.5230 C   0  0  0  0  0  0  0  0  0  0  0  0
   38.4690   22.8510   30.5220 C   0  0  0  0  0  0  0  0  0  0  0  0
   38.7390   23.1700   34.0260 S   0  0  0  0  0  0  0  0  0  0  0  0
   39.7580   22.7660   37.8470 C   0  0  0  0  0  0  0  0  0  0  0  0
   38.7680   23.4190   38.5640 C   0  0  0  0  0  0  0  0  0  0  0  0
   37.7330   24.0140   37.8240 C   0  0  0  0  0  0  0  0  0  0  0  0
   37.7560   23.9200   36.4680 N   0  0  0  0  0  0  0  0  0  0  0  0
   38.7300   23.2790   35.7990 C   0  0  0  0  0  0  0  0  0  0  0  0
   39.7180   22.7120   36.5110 N   0  0  0  0  0  0  0  0  0  0  0  0
   37.0619   21.1102   35.2759 H   0  0  0  0  0  0  0  0  0  0  0  0
   35.1222   19.8228   34.5173 H   0  0  0  0  0  0  0  0  0  0  0  0
   34.2027   20.2043   32.1891 H   0  0  0  0  0  0  0  0  0  0  0  0
   35.3422   21.8833   30.7773 H   0  0  0  0  0  0  0  0  0  0  0  0
   36.5777   24.8977   30.1471 H   0  0  0  0  0  0  0  0  0  0  0  0
   36.5306   25.1658   31.9385 H   0  0  0  0  0  0  0  0  0  0  0  0
   38.1982   26.5737   30.5333 H   0  0  0  0  0  0  0  0  0  0  0  0
   38.7914   25.7546   32.0405 H   0  0  0  0  0  0  0  0  0  0  0  0
   37.9292   24.3212   29.0088 H   0  0  0  0  0  0  0  0  0  0  0  0
   39.5150   23.5971   28.7402 H   0  0  0  0  0  0  0  0  0  0  0  0
   38.1373   21.9473   29.9898 H   0  0  0  0  0  0  0  0  0  0  0  0
   39.3343   22.5667   31.1388 H   0  0  0  0  0  0  0  0  0  0  0  0
   40.5887   22.2851   38.3843 H   0  0  0  0  0  0  0  0  0  0  0  0
   38.7917   23.4691   39.6626 H   0  0  0  0  0  0  0  0  0  0  0  0
   36.9170   24.5474   38.3335 H   0  0  0  0  0  0  0  0  0  0  0  0
  1 13  1  0
  1  2  2  0
  3  2  1  0
  4  3  2  0
  5  6  2  0
  5  4  1  0
  6  1  1  0
  7  6  1  0
  8  7  1  0
  9  8  1  0
 10  9  1  0
 11 10  1  0
 11 12  1  0
 12  7  1  0
 13 18  1  0
 14 15  2  0
 16 15  1  0
 17 16  2  0
 18 17  1  0
 18 19  2  0
 19 14  1  0
  2 20  1  0
  3 21  1  0
  4 22  1  0
  5 23  1  0
  8 24  1  0
  8 25  1  0
  9 26  1  0
  9 27  1  0
 11 28  1  0
 11 29  1  0
 12 30  1  0
 12 31  1  0
 14 32  1  0
 15 33  1  0
 16 34  1  0
M  ISO  8  20  14  21  14  22  14  23  14  24  13  25  13  26  13  27  13
M  ISO  7  28  13  29  13  30  13  31  13  32  14  33  14  34  14
M  END
>  <minimizedAffinity>  (1) 
-4.89760876

>  <minimizedRMSD>  (1) 
0.526191294

$$$$
