
     RDKit          3D

 24 25  0  0  0  0  0  0  0  0999 V2000
   37.1410   22.3830   33.4540 C   0  0  0  0  0  0  0  0  0  0  0  0
   36.7690   21.2470   34.1260 C   0  0  0  0  0  0  0  0  0  0  0  0
   35.7120   20.4560   33.7100 C   0  0  0  0  0  0  0  0  0  0  0  0
   34.9960   20.8110   32.5810 C   0  0  0  0  0  0  0  0  0  0  0  0
   35.3860   21.9570   31.9220 C   0  0  0  0  0  0  0  0  0  0  0  0
   36.4260   22.7380   32.3270 C   0  0  0  0  0  0  0  0  0  0  0  0
   36.7560   23.9660   31.5230 C   0  0  0  0  0  0  0  0  0  0  0  0
   36.7660   25.0900   32.3380 F   0  0  0  0  0  0  0  0  0  0  0  0
   35.7660   24.1970   30.5760 F   0  0  0  0  0  0  0  0  0  0  0  0
   37.9830   23.8230   30.9270 F   0  0  0  0  0  0  0  0  0  0  0  0
   38.5210   23.4250   33.9880 S   0  0  0  0  0  0  0  0  0  0  0  0
   39.7510   22.7550   37.7120 C   0  0  0  0  0  0  0  0  0  0  0  0
   38.8110   23.3810   38.5190 C   0  0  0  0  0  0  0  0  0  0  0  0
   37.7580   24.0340   37.8920 C   0  0  0  0  0  0  0  0  0  0  0  0
   37.6820   24.0410   36.5340 N   0  0  0  0  0  0  0  0  0  0  0  0
   38.6110   23.4230   35.7710 C   0  0  0  0  0  0  0  0  0  0  0  0
   39.6280   22.7920   36.3920 N   0  0  0  0  0  0  0  0  0  0  0  0
   37.3296   20.9544   35.0261 H   0  0  0  0  0  0  0  0  0  0  0  0
   35.4430   19.5506   34.2738 H   0  0  0  0  0  0  0  0  0  0  0  0
   34.1508   20.2042   32.2241 H   0  0  0  0  0  0  0  0  0  0  0  0
   34.8285   22.2565   31.0223 H   0  0  0  0  0  0  0  0  0  0  0  0
   40.6007   22.2265   38.1688 H   0  0  0  0  0  0  0  0  0  0  0  0
   38.8971   23.3606   39.6154 H   0  0  0  0  0  0  0  0  0  0  0  0
   36.9887   24.5434   38.4910 H   0  0  0  0  0  0  0  0  0  0  0  0
  1 11  1  0
  1  2  2  0
  3  2  1  0
  4  3  2  0
  5  6  2  0
  5  4  1  0
  6  1  1  0
  7  6  1  0
  7  8  1  0
  9  7  1  0
 10  7  1  0
 11 16  1  0
 12 13  2  0
 14 13  1  0
 15 14  2  0
 16 17  2  0
 16 15  1  0
 17 12  1  0
  2 18  1  0
  3 19  1  0
  4 20  1  0
  5 21  1  0
 12 22  1  0
 13 23  1  0
 14 24  1  0
M  ISO  7  18  14  19  14  20  14  21  14  22  14  23  14  24  14
M  END
>  <minimizedAffinity>  (1) 
-4.73321199

>  <minimizedRMSD>  (1) 
0.354565501

$$$$
