
     RDKit          3D

 31 33  0  0  1  0  0  0  0  0999 V2000
   37.8180   23.6320   33.5180 C   0  0  0  0  0  0  0  0  0  0  0  0
   37.0710   22.6700   32.8480 C   0  0  0  0  0  0  0  0  0  0  0  0
   37.1110   21.5790   33.6710 N   0  0  0  0  0  0  0  0  0  0  0  0
   37.8450   21.9200   34.7490 C   0  0  0  0  0  0  0  0  0  0  0  0
   38.2920   23.1820   34.6760 N   0  0  0  0  0  0  0  0  0  0  0  0
   39.0960   23.9000   35.6190 C   0  0  1  0  0  0  0  0  0  0  0  0
   38.2750   24.7900   36.4900 C   0  0  0  0  0  0  0  0  0  0  0  0
   37.8420   23.8850   37.6220 C   0  0  0  0  0  0  0  0  0  0  0  0
   39.0980   23.0960   37.8970 C   0  0  0  0  0  0  0  0  0  0  0  0
   39.8110   22.9810   36.5910 C   0  0  2  0  0  0  0  0  0  0  0  0
   41.1440   23.3650   36.6550 O   0  0  0  0  0  0  0  0  0  0  0  0
   38.0690   24.9930   33.0290 C   0  0  0  0  0  0  0  0  0  0  0  0
   39.2670   25.2610   32.3160 C   0  0  0  0  0  0  0  0  0  0  0  0
   39.4400   26.5840   31.8790 C   0  0  0  0  0  0  0  0  0  0  0  0
   38.4950   27.5070   32.1460 N   0  0  0  0  0  0  0  0  0  0  0  0
   37.3720   27.1930   32.8310 C   0  0  0  0  0  0  0  0  0  0  0  0
   37.1400   25.9350   33.2830 N   0  0  0  0  0  0  0  0  0  0  0  0
   36.5633   22.7649   31.8768 H   0  0  0  0  0  0  0  0  0  0  0  0
   38.0529   21.2423   35.5901 H   0  0  0  0  0  0  0  0  0  0  0  0
   39.8034   24.4640   34.9933 H   0  0  0  0  0  0  0  0  0  0  0  0
   38.8751   25.6309   36.8679 H   0  0  0  0  0  0  0  0  0  0  0  0
   37.4254   25.2418   35.9570 H   0  0  0  0  0  0  0  0  0  0  0  0
   37.5358   24.4674   38.5035 H   0  0  0  0  0  0  0  0  0  0  0  0
   36.9713   23.2585   37.3783 H   0  0  0  0  0  0  0  0  0  0  0  0
   39.7268   23.6230   38.6297 H   0  0  0  0  0  0  0  0  0  0  0  0
   38.8660   22.1057   38.3159 H   0  0  0  0  0  0  0  0  0  0  0  0
   39.7992   21.9252   36.2825 H   0  0  0  0  0  0  0  0  0  0  0  0
   41.4194   23.4443   37.6026 H   0  0  0  0  0  0  0  0  0  0  0  0
   40.0148   24.4790   32.1178 H   0  0  0  0  0  0  0  0  0  0  0  0
   40.3444   26.8664   31.3202 H   0  0  0  0  0  0  0  0  0  0  0  0
   36.6270   27.9783   33.0269 H   0  0  0  0  0  0  0  0  0  0  0  0
  1  5  1  0
  2  1  2  0
  2  3  1  0
  3  4  2  0
  5  4  1  0
  5  6  1  0
  6  7  1  0
  6 10  1  0
  7  8  1  0
  8  9  1  0
 10 11  1  0
 10  9  1  0
 12 17  1  0
 12  1  1  0
 13 12  2  0
 14 15  2  0
 14 13  1  0
 15 16  1  0
 16 17  2  0
  2 18  1  0
  4 19  1  0
  6 20  1  6
  7 21  1  0
  7 22  1  0
  8 23  1  0
  8 24  1  0
  9 25  1  0
  9 26  1  0
 10 27  1  6
 11 28  1  0
 13 29  1  0
 14 30  1  0
 16 31  1  0
M  ISO  8  18  14  19  14  20  13  21  13  22  13  23  13  24  13  25  13
M  ISO  6  26  13  27  13  28   3  29  14  30  14  31  14
M  END
>  <minimizedAffinity>  (1) 
-4.19791889

>  <minimizedRMSD>  (1) 
0.253625929

$$$$
