
     RDKit          3D

 28 30  0  0  0  0  0  0  0  0999 V2000
   37.4230   22.4950   33.3560 C   0  0  0  0  0  0  0  0  0  0  0  0
   36.8560   21.3510   33.8440 C   0  0  0  0  0  0  0  0  0  0  0  0
   35.7000   20.7970   33.3460 C   0  0  0  0  0  0  0  0  0  0  0  0
   35.0680   21.4290   32.2900 C   0  0  0  0  0  0  0  0  0  0  0  0
   35.6340   22.5850   31.7900 C   0  0  0  0  0  0  0  0  0  0  0  0
   36.7790   23.1210   32.2940 C   0  0  0  0  0  0  0  0  0  0  0  0
   37.3150   24.3170   31.7370 N   0  0  0  0  0  0  0  0  0  0  0  0
   38.2760   24.5750   30.8670 N   0  0  0  0  0  0  0  0  0  0  0  0
   38.3850   25.9090   30.6790 C   0  0  0  0  0  0  0  0  0  0  0  0
   37.4270   26.5280   31.4870 C   0  0  0  0  0  0  0  0  0  0  0  0
   36.7740   25.4820   32.1380 C   0  0  0  0  0  0  0  0  0  0  0  0
   38.9410   23.2170   34.0140 S   0  0  0  0  0  0  0  0  0  0  0  0
   39.7780   22.8020   37.8750 C   0  0  0  0  0  0  0  0  0  0  0  0
   38.7150   23.4290   38.5410 C   0  0  0  0  0  0  0  0  0  0  0  0
   37.7130   23.9940   37.7630 C   0  0  0  0  0  0  0  0  0  0  0  0
   37.8050   23.9170   36.4130 N   0  0  0  0  0  0  0  0  0  0  0  0
   38.8370   23.3080   35.7850 C   0  0  0  0  0  0  0  0  0  0  0  0
   39.7990   22.7660   36.5470 N   0  0  0  0  0  0  0  0  0  0  0  0
   37.3533   20.8440   34.6840 H   0  0  0  0  0  0  0  0  0  0  0  0
   35.2875   19.8729   33.7772 H   0  0  0  0  0  0  0  0  0  0  0  0
   34.1406   21.0220   31.8607 H   0  0  0  0  0  0  0  0  0  0  0  0
   35.1390   23.0937   30.9496 H   0  0  0  0  0  0  0  0  0  0  0  0
   39.0979   26.4154   30.0116 H   0  0  0  0  0  0  0  0  0  0  0  0
   37.2309   27.6057   31.5874 H   0  0  0  0  0  0  0  0  0  0  0  0
   35.9518   25.5912   32.8605 H   0  0  0  0  0  0  0  0  0  0  0  0
   40.5934   22.3406   38.4514 H   0  0  0  0  0  0  0  0  0  0  0  0
   38.6763   23.4717   39.6395 H   0  0  0  0  0  0  0  0  0  0  0  0
   36.8566   24.4970   38.2358 H   0  0  0  0  0  0  0  0  0  0  0  0
  1  2  2  0
  1 12  1  0
  3  2  1  0
  4  3  2  0
  5  4  1  0
  5  6  2  0
  6  1  1  0
  7 11  1  0
  7  6  1  0
  8  7  1  0
  9  8  2  0
  9 10  1  0
 10 11  2  0
 12 17  1  0
 13 14  2  0
 15 14  1  0
 16 15  2  0
 17 16  1  0
 17 18  2  0
 18 13  1  0
  2 19  1  0
  3 20  1  0
  4 21  1  0
  5 22  1  0
  9 23  1  0
 10 24  1  0
 11 25  1  0
 13 26  1  0
 14 27  1  0
 15 28  1  0
M  ISO  8  19  14  20  14  21  14  22  14  23  14  24  14  25  14  26  14
M  ISO  2  27  14  28  14
M  END
>  <minimizedAffinity>  (1) 
-4.79156065

>  <minimizedRMSD>  (1) 
0.865836918

$$$$
