
     RDKit          3D

 34 36  0  0  0  0  0  0  0  0999 V2000
   37.4960   22.3130   33.2180 C   0  0  0  0  0  0  0  0  0  0  0  0
   36.9490   21.2610   33.8840 C   0  0  0  0  0  0  0  0  0  0  0  0
   35.7340   20.7160   33.5900 C   0  0  0  0  0  0  0  0  0  0  0  0
   34.9800   21.2570   32.5340 C   0  0  0  0  0  0  0  0  0  0  0  0
   35.5420   22.3290   31.8580 C   0  0  0  0  0  0  0  0  0  0  0  0
   36.7500   22.8550   32.1680 C   0  0  0  0  0  0  0  0  0  0  0  0
   37.3240   23.9550   31.4720 N   0  0  0  0  0  0  0  0  0  0  0  0
   36.9840   25.1660   31.9030 C   0  0  0  0  0  0  0  0  0  0  0  0
   37.5270   26.2550   31.2460 C   0  0  0  0  0  0  0  0  0  0  0  0
   38.3810   25.9900   30.1940 C   0  0  0  0  0  0  0  0  0  0  0  0
   38.9750   27.0460   29.4730 N   0  0  0  0  0  0  0  0  0  0  0  0
   38.6820   24.7300   29.8110 N   0  0  0  0  0  0  0  0  0  0  0  0
   38.1520   23.6690   30.4540 C   0  0  0  0  0  0  0  0  0  0  0  0
   38.4120   22.4810   30.1240 O   0  0  0  0  0  0  0  0  0  0  0  0
   39.1010   23.0200   33.6220 S   0  0  0  0  0  0  0  0  0  0  0  0
   40.7410   22.2070   37.1400 C   0  0  0  0  0  0  0  0  0  0  0  0
   39.8610   22.7460   38.0800 C   0  0  0  0  0  0  0  0  0  0  0  0
   38.7320   23.3750   37.6010 C   0  0  0  0  0  0  0  0  0  0  0  0
   38.5030   23.4580   36.2520 N   0  0  0  0  0  0  0  0  0  0  0  0
   39.3820   22.9220   35.3780 C   0  0  0  0  0  0  0  0  0  0  0  0
   40.4910   22.3030   35.8180 N   0  0  0  0  0  0  0  0  0  0  0  0
   37.7700   23.9590   38.5190 C   0  0  0  0  0  0  0  0  0  0  0  0
   37.9930   25.0900   39.0250 O   0  0  0  0  0  0  0  0  0  0  0  0
   37.5234   20.8216   34.7129 H   0  0  0  0  0  0  0  0  0  0  0  0
   35.3493   19.8649   34.1711 H   0  0  0  0  0  0  0  0  0  0  0  0
   33.9955   20.8509   32.2585 H   0  0  0  0  0  0  0  0  0  0  0  0
   34.9768   22.7753   31.0265 H   0  0  0  0  0  0  0  0  0  0  0  0
   36.2959   25.2969   32.7512 H   0  0  0  0  0  0  0  0  0  0  0  0
   37.2893   27.2857   31.5479 H   0  0  0  0  0  0  0  0  0  0  0  0
   39.6111   26.8407   28.6893 H   0  0  0  0  0  0  0  0  0  0  0  0
   38.7728   28.0227   29.7299 H   0  0  0  0  0  0  0  0  0  0  0  0
   41.6527   21.6959   37.4828 H   0  0  0  0  0  0  0  0  0  0  0  0
   40.0605   22.6718   39.1592 H   0  0  0  0  0  0  0  0  0  0  0  0
   36.8484   23.4142   38.7717 H   0  0  0  0  0  0  0  0  0  0  0  0
  1 15  1  0
  1  2  2  0
  3  2  1  0
  4  3  2  0
  5  6  2  0
  5  4  1  0
  6  1  1  0
  7  8  1  0
  7  6  1  0
  9  8  2  0
 10  9  1  0
 11 10  1  0
 12 10  2  0
 12 13  1  0
 13  7  1  0
 14 13  2  0
 15 20  1  0
 16 17  2  0
 18 17  1  0
 18 22  1  0
 19 18  2  0
 20 21  2  0
 20 19  1  0
 21 16  1  0
 22 23  2  0
  2 24  1  0
  3 25  1  0
  4 26  1  0
  5 27  1  0
  8 28  1  0
  9 29  1  0
 11 30  1  0
 11 31  1  0
 16 32  1  0
 17 33  1  0
 22 34  1  0
M  ISO  8  24  14  25  14  26  14  27  14  28  14  29  14  32  14  33  14
M  ISO  1  34   6
M  END
>  <minimizedAffinity>  (1) 
-5.24296713

>  <minimizedRMSD>  (1) 
0.784186125

$$$$
