
     RDKit          3D

 36 38  0  0  0  0  0  0  0  0999 V2000
   38.1220   22.2550   32.6870 C   0  0  0  0  0  0  0  0  0  0  0  0
   37.6510   21.0280   33.0450 C   0  0  0  0  0  0  0  0  0  0  0  0
   36.3370   20.6370   32.8800 C   0  0  0  0  0  0  0  0  0  0  0  0
   35.4320   21.5340   32.3190 C   0  0  0  0  0  0  0  0  0  0  0  0
   35.9120   22.7720   31.9590 C   0  0  0  0  0  0  0  0  0  0  0  0
   37.2060   23.1330   32.1310 C   0  0  0  0  0  0  0  0  0  0  0  0
   37.7090   24.4240   31.7570 N   0  0  0  0  0  0  0  0  0  0  0  0
   37.5970   25.3910   32.6830 C   0  0  0  0  0  0  0  0  0  0  0  0
   38.0710   26.6360   32.3510 C   0  0  0  0  0  0  0  0  0  0  0  0
   38.6170   26.7900   31.1010 C   0  0  0  0  0  0  0  0  0  0  0  0
   39.1240   28.0500   30.6960 N   0  0  0  0  0  0  0  0  0  0  0  0
   38.6990   25.7740   30.2140 N   0  0  0  0  0  0  0  0  0  0  0  0
   38.2350   24.5440   30.5320 C   0  0  0  0  0  0  0  0  0  0  0  0
   38.2870   23.5640   29.7450 O   0  0  0  0  0  0  0  0  0  0  0  0
   39.8400   22.7550   32.9080 S   0  0  0  0  0  0  0  0  0  0  0  0
   41.8910   21.3790   36.0040 C   0  0  0  0  0  0  0  0  0  0  0  0
   41.2060   21.8540   37.1190 C   0  0  0  0  0  0  0  0  0  0  0  0
   40.0830   22.6180   36.9230 C   0  0  0  0  0  0  0  0  0  0  0  0
   39.6640   22.8950   35.6400 N   0  0  0  0  0  0  0  0  0  0  0  0
   40.3480   22.4210   34.5790 C   0  0  0  0  0  0  0  0  0  0  0  0
   41.4470   21.6730   34.7790 N   0  0  0  0  0  0  0  0  0  0  0  0
   39.2210   23.2150   38.3460 S   0  0  0  0  0  0  0  0  0  0  0  0
   37.8590   24.3120   37.9350 C   0  0  0  0  0  0  0  0  0  0  0  0
   37.3730   24.8080   39.1520 F   0  0  0  0  0  0  0  0  0  0  0  0
   38.3070   25.4100   37.2250 F   0  0  0  0  0  0  0  0  0  0  0  0
   36.8730   23.6070   37.2580 F   0  0  0  0  0  0  0  0  0  0  0  0
   38.3556   20.3097   33.4896 H   0  0  0  0  0  0  0  0  0  0  0  0
   36.0104   19.6325   33.1870 H   0  0  0  0  0  0  0  0  0  0  0  0
   34.3762   21.2638   32.1697 H   0  0  0  0  0  0  0  0  0  0  0  0
   35.2164   23.4983   31.5133 H   0  0  0  0  0  0  0  0  0  0  0  0
   37.1445   25.1935   33.6660 H   0  0  0  0  0  0  0  0  0  0  0  0
   38.0155   27.4765   33.0584 H   0  0  0  0  0  0  0  0  0  0  0  0
   39.5332   28.1630   29.7575 H   0  0  0  0  0  0  0  0  0  0  0  0
   39.0833   28.8527   31.3401 H   0  0  0  0  0  0  0  0  0  0  0  0
   42.7942   20.7641   36.1313 H   0  0  0  0  0  0  0  0  0  0  0  0
   41.5573   21.6219   38.1352 H   0  0  0  0  0  0  0  0  0  0  0  0
  1 15  1  0
  1  2  2  0
  3  2  1  0
  4  3  2  0
  5  6  2  0
  5  4  1  0
  6  1  1  0
  7  6  1  0
  7  8  1  0
  9  8  2  0
 10  9  1  0
 11 10  1  0
 12 13  1  0
 12 10  2  0
 13  7  1  0
 14 13  2  0
 15 20  1  0
 16 17  2  0
 18 17  1  0
 18 22  1  0
 19 18  2  0
 20 21  2  0
 20 19  1  0
 21 16  1  0
 23 22  1  0
 23 24  1  0
 25 23  1  0
 26 23  1  0
  2 27  1  0
  3 28  1  0
  4 29  1  0
  5 30  1  0
  8 31  1  0
  9 32  1  0
 11 33  1  0
 11 34  1  0
 16 35  1  0
 17 36  1  0
M  ISO  8  27  14  28  14  29  14  30  14  31  14  32  14  35  14  36  14
M  END
>  <minimizedAffinity>  (1) 
-5.19339705

>  <minimizedRMSD>  (1) 
1.38065588

$$$$
