
     RDKit          3D

 36 38  0  0  0  0  0  0  0  0999 V2000
   37.6950   22.5020   33.0950 C   0  0  0  0  0  0  0  0  0  0  0  0
   37.1920   21.4420   33.7950 C   0  0  0  0  0  0  0  0  0  0  0  0
   35.9610   20.8790   33.5390 C   0  0  0  0  0  0  0  0  0  0  0  0
   35.1660   21.4070   32.5120 C   0  0  0  0  0  0  0  0  0  0  0  0
   35.6860   22.4730   31.8170 C   0  0  0  0  0  0  0  0  0  0  0  0
   36.9030   23.0170   32.0820 C   0  0  0  0  0  0  0  0  0  0  0  0
   37.4380   24.1240   31.3590 N   0  0  0  0  0  0  0  0  0  0  0  0
   37.0880   25.3370   31.7860 C   0  0  0  0  0  0  0  0  0  0  0  0
   37.5960   26.4220   31.0970 C   0  0  0  0  0  0  0  0  0  0  0  0
   38.4150   26.1640   30.0390 C   0  0  0  0  0  0  0  0  0  0  0  0
   38.9720   27.2410   29.2880 N   0  0  0  0  0  0  0  0  0  0  0  0
   38.7360   24.9140   29.6520 N   0  0  0  0  0  0  0  0  0  0  0  0
   38.2430   23.8340   30.3200 C   0  0  0  0  0  0  0  0  0  0  0  0
   38.5070   22.6630   30.0050 O   0  0  0  0  0  0  0  0  0  0  0  0
   39.3150   23.2330   33.4420 S   0  0  0  0  0  0  0  0  0  0  0  0
   41.3380   21.6490   36.4530 C   0  0  0  0  0  0  0  0  0  0  0  0
   40.6860   22.0640   37.5910 C   0  0  0  0  0  0  0  0  0  0  0  0
   39.5680   22.8720   37.4300 C   0  0  0  0  0  0  0  0  0  0  0  0
   39.1500   23.2280   36.1780 N   0  0  0  0  0  0  0  0  0  0  0  0
   39.8260   22.7930   35.0820 C   0  0  0  0  0  0  0  0  0  0  0  0
   40.9150   22.0080   35.2360 N   0  0  0  0  0  0  0  0  0  0  0  0
   38.7220   23.4110   38.8920 S   0  0  0  0  0  0  0  0  0  0  0  0
   37.8140   24.9560   38.6380 C   0  0  0  0  0  0  0  0  0  0  0  0
   37.8018   21.0159   34.6053 H   0  0  0  0  0  0  0  0  0  0  0  0
   35.6058   20.0246   34.1338 H   0  0  0  0  0  0  0  0  0  0  0  0
   34.1764   20.9895   32.2744 H   0  0  0  0  0  0  0  0  0  0  0  0
   35.0860   22.9083   31.0043 H   0  0  0  0  0  0  0  0  0  0  0  0
   36.4220   25.4692   32.6514 H   0  0  0  0  0  0  0  0  0  0  0  0
   37.3490   27.4528   31.3910 H   0  0  0  0  0  0  0  0  0  0  0  0
   39.5910   27.0453   28.4884 H   0  0  0  0  0  0  0  0  0  0  0  0
   38.7552   28.2145   29.5453 H   0  0  0  0  0  0  0  0  0  0  0  0
   42.2269   21.0077   36.5460 H   0  0  0  0  0  0  0  0  0  0  0  0
   41.0368   21.7672   38.5904 H   0  0  0  0  0  0  0  0  0  0  0  0
   37.5563   25.3945   39.6134 H   0  0  0  0  0  0  0  0  0  0  0  0
   38.4412   25.6613   38.0731 H   0  0  0  0  0  0  0  0  0  0  0  0
   36.8926   24.7512   38.0731 H   0  0  0  0  0  0  0  0  0  0  0  0
  1 15  1  0
  1  2  2  0
  3  2  1  0
  4  3  2  0
  5  6  2  0
  5  4  1  0
  6  1  1  0
  7  8  1  0
  7  6  1  0
  9  8  2  0
 10  9  1  0
 11 10  1  0
 12 10  2  0
 12 13  1  0
 13  7  1  0
 14 13  2  0
 15 20  1  0
 16 17  2  0
 18 17  1  0
 18 22  1  0
 19 18  2  0
 20 21  2  0
 20 19  1  0
 21 16  1  0
 23 22  1  0
  2 24  1  0
  3 25  1  0
  4 26  1  0
  5 27  1  0
  8 28  1  0
  9 29  1  0
 11 30  1  0
 11 31  1  0
 16 32  1  0
 17 33  1  0
 23 34  1  0
 23 35  1  0
 23 36  1  0
M  ISO  8  24  14  25  14  26  14  27  14  28  14  29  14  32  14  33  14
M  ISO  3  34   8  35   8  36   8
M  END
>  <minimizedAffinity>  (1) 
-4.65223455

>  <minimizedRMSD>  (1) 
0.627940178

$$$$
