
     RDKit          3D

 48 51  0  0  0  0  0  0  0  0999 V2000
   38.5070   21.4250   31.9080 C   0  0  0  0  0  0  0  0  0  0  0  0
   37.8990   20.2060   32.0070 C   0  0  0  0  0  0  0  0  0  0  0  0
   36.5630   20.0630   32.2850 C   0  0  0  0  0  0  0  0  0  0  0  0
   35.7720   21.1910   32.4780 C   0  0  0  0  0  0  0  0  0  0  0  0
   36.4040   22.4160   32.3740 C   0  0  0  0  0  0  0  0  0  0  0  0
   37.7280   22.5460   32.0990 C   0  0  0  0  0  0  0  0  0  0  0  0
   38.3830   23.8130   31.9920 N   0  0  0  0  0  0  0  0  0  0  0  0
   38.8010   24.3510   33.1460 C   0  0  0  0  0  0  0  0  0  0  0  0
   39.4360   25.5750   33.0620 C   0  0  0  0  0  0  0  0  0  0  0  0
   39.5860   26.1340   31.8190 C   0  0  0  0  0  0  0  0  0  0  0  0
   40.2290   27.3900   31.6640 N   0  0  0  0  0  0  0  0  0  0  0  0
   39.1360   25.5250   30.6980 N   0  0  0  0  0  0  0  0  0  0  0  0
   38.5130   24.3290   30.7690 C   0  0  0  0  0  0  0  0  0  0  0  0
   38.0830   23.7350   29.7520 O   0  0  0  0  0  0  0  0  0  0  0  0
   40.2720   21.6020   31.5420 S   0  0  0  0  0  0  0  0  0  0  0  0
   42.9320   20.0170   34.0090 C   0  0  0  0  0  0  0  0  0  0  0  0
   42.7500   20.6780   35.2090 C   0  0  0  0  0  0  0  0  0  0  0  0
   41.7660   21.6570   35.2680 C   0  0  0  0  0  0  0  0  0  0  0  0
   41.0230   21.9290   34.1530 N   0  0  0  0  0  0  0  0  0  0  0  0
   41.2310   21.2570   32.9930 C   0  0  0  0  0  0  0  0  0  0  0  0
   42.1800   20.3160   32.9410 N   0  0  0  0  0  0  0  0  0  0  0  0
   41.5240   22.5130   36.8030 S   0  0  0  0  0  0  0  0  0  0  0  0
   37.1020   22.5960   37.5970 N   0  0  0  0  0  0  0  0  0  0  0  0
   37.4770   22.5330   36.2110 C   0  0  0  0  0  0  0  0  0  0  0  0
   38.9070   22.1040   36.0480 C   0  0  0  0  0  0  0  0  0  0  0  0
   39.7820   23.0490   36.8050 C   0  0  0  0  0  0  0  0  0  0  0  0
   39.3780   23.1790   38.2540 C   0  0  0  0  0  0  0  0  0  0  0  0
   37.9150   23.6120   38.2490 C   0  0  0  0  0  0  0  0  0  0  0  0
   38.5059   19.3008   31.8576 H   0  0  0  0  0  0  0  0  0  0  0  0
   36.1186   19.0592   32.3551 H   0  0  0  0  0  0  0  0  0  0  0  0
   34.6979   21.1121   32.7020 H   0  0  0  0  0  0  0  0  0  0  0  0
   35.8070   23.3281   32.5208 H   0  0  0  0  0  0  0  0  0  0  0  0
   38.6465   23.8443   34.1101 H   0  0  0  0  0  0  0  0  0  0  0  0
   39.8090   26.0844   33.9627 H   0  0  0  0  0  0  0  0  0  0  0  0
   40.3366   27.8012   30.7258 H   0  0  0  0  0  0  0  0  0  0  0  0
   40.5880   27.8902   32.4897 H   0  0  0  0  0  0  0  0  0  0  0  0
   43.7030   19.2365   33.9297 H   0  0  0  0  0  0  0  0  0  0  0  0
   43.3644   20.4368   36.0890 H   0  0  0  0  0  0  0  0  0  0  0  0
   37.2646   21.6819   38.0429 H   0  0  0  0  0  0  0  0  0  0  0  0
   36.8260   21.8106   35.6968 H   0  0  0  0  0  0  0  0  0  0  0  0
   37.3658   23.5375   35.7768 H   0  0  0  0  0  0  0  0  0  0  0  0
   39.0347   21.0852   36.4426 H   0  0  0  0  0  0  0  0  0  0  0  0
   39.1809   22.1127   34.9827 H   0  0  0  0  0  0  0  0  0  0  0  0
   39.6645   24.0123   36.2871 H   0  0  0  0  0  0  0  0  0  0  0  0
   39.4884   22.2133   38.7691 H   0  0  0  0  0  0  0  0  0  0  0  0
   40.0104   23.9069   38.7834 H   0  0  0  0  0  0  0  0  0  0  0  0
   37.8175   24.5627   37.7043 H   0  0  0  0  0  0  0  0  0  0  0  0
   37.5713   23.7418   39.2858 H   0  0  0  0  0  0  0  0  0  0  0  0
  1  2  2  0
  1  6  1  0
  2  3  1  0
  3  4  2  0
  5  4  1  0
  6  5  2  0
  7  6  1  0
  7  8  1  0
  9  8  2  0
 10  9  1  0
 11 10  1  0
 12 13  1  0
 12 10  2  0
 13  7  1  0
 14 13  2  0
 15  1  1  0
 15 20  1  0
 16 17  2  0
 17 18  1  0
 18 22  1  0
 19 18  2  0
 20 19  1  0
 21 20  2  0
 21 16  1  0
 22 26  1  0
 23 28  1  0
 24 23  1  0
 25 24  1  0
 25 26  1  0
 26 27  1  0
 28 27  1  0
  2 29  1  0
  3 30  1  0
  4 31  1  0
  5 32  1  0
  8 33  1  0
  9 34  1  0
 11 35  1  0
 11 36  1  0
 16 37  1  0
 17 38  1  0
 23 39  1  0
 24 40  1  0
 24 41  1  0
 25 42  1  0
 25 43  1  0
 26 44  1  0
 27 45  1  0
 27 46  1  0
 28 47  1  0
 28 48  1  0
M  ISO  8  29  14  30  14  31  14  32  14  33  14  34  14  37  14  38  14
M  ISO  8  39   5  40  13  41  13  42  13  43  13  44  13  45  13  46  13
M  ISO  2  47  13  48  13
M  END
>  <minimizedAffinity>  (1) 
-4.72027588

>  <minimizedRMSD>  (1) 
3.33305669

$$$$
