
     RDKit          3D

 32 33  0  0  1  0  0  0  0  0999 V2000
   39.9580   23.0290   35.2130 C   0  0  2  0  0  0  0  0  0  0  0  0
   38.4510   24.6570   36.4150 C   0  0  0  0  0  0  0  0  0  0  0  0
   39.3380   23.5500   36.4160 C   0  0  0  0  0  0  0  0  0  0  0  0
   39.5510   22.9060   37.6220 C   0  0  0  0  0  0  0  0  0  0  0  0
   38.8910   23.3690   38.7530 N   0  0  0  0  0  0  0  0  0  0  0  0
   38.0540   24.4300   38.6920 C   0  0  0  0  0  0  0  0  0  0  0  0
   37.8340   25.0730   37.5300 N   0  0  0  0  0  0  0  0  0  0  0  0
   40.4210   21.8040   37.7980 N   0  0  0  0  0  0  0  0  0  0  0  0
   41.0680   24.0560   34.8200 C   0  0  0  0  0  0  0  0  0  0  0  0
   39.0240   22.8330   34.0930 C   0  0  0  0  0  0  0  0  0  0  0  0
   37.6050   21.8580   34.5890 S   0  0  0  0  0  0  0  0  0  0  0  0
   36.8800   21.1180   33.1400 C   0  0  0  0  0  0  0  0  0  0  0  0
   35.6960   20.4450   33.4100 C   0  0  0  0  0  0  0  0  0  0  0  0
   34.9540   19.8040   32.4120 C   0  0  0  0  0  0  0  0  0  0  0  0
   35.5000   19.9040   31.1500 C   0  0  0  0  0  0  0  0  0  0  0  0
   36.6630   20.5540   30.8120 C   0  0  0  0  0  0  0  0  0  0  0  0
   37.3450   21.1620   31.8430 C   0  0  0  0  0  0  0  0  0  0  0  0
   40.3577   22.0255   35.4210 H   0  0  0  0  0  0  0  0  0  0  0  0
   38.2639   25.1900   35.4711 H   0  0  0  0  0  0  0  0  0  0  0  0
   37.5457   24.7724   39.6054 H   0  0  0  0  0  0  0  0  0  0  0  0
   40.5281   21.3759   38.7287 H   0  0  0  0  0  0  0  0  0  0  0  0
   40.9472   21.4300   36.9954 H   0  0  0  0  0  0  0  0  0  0  0  0
   41.5200   24.4742   35.7315 H   0  0  0  0  0  0  0  0  0  0  0  0
   41.8427   23.5492   34.2259 H   0  0  0  0  0  0  0  0  0  0  0  0
   40.6228   24.8677   34.2259 H   0  0  0  0  0  0  0  0  0  0  0  0
   39.5476   22.3136   33.2769 H   0  0  0  0  0  0  0  0  0  0  0  0
   38.6678   23.8198   33.7622 H   0  0  0  0  0  0  0  0  0  0  0  0
   35.3280   20.4147   34.4462 H   0  0  0  0  0  0  0  0  0  0  0  0
   34.0162   19.2668   32.6165 H   0  0  0  0  0  0  0  0  0  0  0  0
   34.9503   19.4150   30.3323 H   0  0  0  0  0  0  0  0  0  0  0  0
   37.0290   20.5869   29.7752 H   0  0  0  0  0  0  0  0  0  0  0  0
   38.2825   21.6950   31.6263 H   0  0  0  0  0  0  0  0  0  0  0  0
  1  3  1  0
  2  3  2  0
  2  7  1  0
  3  4  1  0
  4  8  1  0
  4  5  2  0
  6  5  1  0
  7  6  2  0
  9  1  1  0
 10 11  1  0
 10  1  1  0
 12 13  2  0
 12 11  1  0
 14 13  1  0
 15 14  2  0
 16 15  1  0
 16 17  2  0
 17 12  1  0
  1 18  1  1
  2 19  1  0
  6 20  1  0
  8 21  1  0
  8 22  1  0
  9 23  1  0
  9 24  1  0
  9 25  1  0
 10 26  1  0
 10 27  1  0
 13 28  1  0
 14 29  1  0
 15 30  1  0
 16 31  1  0
 17 32  1  0
M  ISO  8  18   8  19  14  20  14  23   8  24   8  25   8  26   8  27   8
M  ISO  5  28  14  29  14  30  14  31  14  32  14
M  END
>  <minimizedAffinity>  (1) 
-4.7563324

>  <minimizedRMSD>  (1) 
2.82873321

$$$$
