
     RDKit          3D

 31 32  0  0  1  0  0  0  0  0999 V2000
   39.8630   23.0110   35.2770 C   0  0  2  0  0  0  0  0  0  0  0  0
   38.4060   24.6640   36.4650 C   0  0  0  0  0  0  0  0  0  0  0  0
   39.2840   23.5510   36.4660 C   0  0  0  0  0  0  0  0  0  0  0  0
   39.5170   22.9340   37.6830 C   0  0  0  0  0  0  0  0  0  0  0  0
   38.8790   23.4400   38.8200 N   0  0  0  0  0  0  0  0  0  0  0  0
   38.0590   24.4960   38.7560 C   0  0  0  0  0  0  0  0  0  0  0  0
   37.8140   25.1200   37.5760 N   0  0  0  0  0  0  0  0  0  0  0  0
   40.3810   21.8330   37.8670 N   0  0  0  0  0  0  0  0  0  0  0  0
   40.9420   24.0400   34.7960 C   0  0  0  0  0  0  0  0  0  0  0  0
   38.9260   22.7460   34.1770 C   0  0  0  0  0  0  0  0  0  0  0  0
   37.4970   21.7920   34.7500 S   0  0  0  0  0  0  0  0  0  0  0  0
   36.7490   21.0530   33.2900 C   0  0  0  0  0  0  0  0  0  0  0  0
   35.4990   20.4610   33.3060 C   0  0  0  0  0  0  0  0  0  0  0  0
   34.9430   19.8990   32.1620 C   0  0  0  0  0  0  0  0  0  0  0  0
   35.7100   19.9650   31.0030 C   0  0  0  0  0  0  0  0  0  0  0  0
   36.9710   20.5630   30.9850 C   0  0  0  0  0  0  0  0  0  0  0  0
   37.4380   21.0810   32.1280 N   0  0  0  0  0  0  0  0  0  0  0  0
   40.2727   22.0233   35.5353 H   0  0  0  0  0  0  0  0  0  0  0  0
   38.2026   25.1742   35.5119 H   0  0  0  0  0  0  0  0  0  0  0  0
   37.5765   24.8636   39.6736 H   0  0  0  0  0  0  0  0  0  0  0  0
   40.5041   21.4261   38.8052 H   0  0  0  0  0  0  0  0  0  0  0  0
   40.8884   21.4365   37.0631 H   0  0  0  0  0  0  0  0  0  0  0  0
   41.4250   24.5006   35.6704 H   0  0  0  0  0  0  0  0  0  0  0  0
   41.6992   23.5210   34.1899 H   0  0  0  0  0  0  0  0  0  0  0  0
   40.4595   24.8209   34.1899 H   0  0  0  0  0  0  0  0  0  0  0  0
   39.4458   22.1772   33.3920 H   0  0  0  0  0  0  0  0  0  0  0  0
   38.5675   23.7092   33.7849 H   0  0  0  0  0  0  0  0  0  0  0  0
   34.9305   20.4341   34.2473 H   0  0  0  0  0  0  0  0  0  0  0  0
   33.9494   19.4272   32.1728 H   0  0  0  0  0  0  0  0  0  0  0  0
   35.3108   19.5331   30.0734 H   0  0  0  0  0  0  0  0  0  0  0  0
   37.5636   20.6074   30.0593 H   0  0  0  0  0  0  0  0  0  0  0  0
  1  3  1  0
  2  3  2  0
  2  7  1  0
  3  4  1  0
  4  8  1  0
  4  5  2  0
  6  5  1  0
  7  6  2  0
  9  1  1  0
 10 11  1  0
 10  1  1  0
 12 13  2  0
 12 11  1  0
 14 13  1  0
 15 14  2  0
 16 15  1  0
 16 17  2  0
 17 12  1  0
  1 18  1  1
  2 19  1  0
  6 20  1  0
  8 21  1  0
  8 22  1  0
  9 23  1  0
  9 24  1  0
  9 25  1  0
 10 26  1  0
 10 27  1  0
 13 28  1  0
 14 29  1  0
 15 30  1  0
 16 31  1  0
M  ISO  8  18   8  19  14  20  14  23   8  24   8  25   8  26   8  27   8
M  ISO  4  28  14  29  14  30  14  31  14
M  END
>  <minimizedAffinity>  (1) 
-4.64766884

>  <minimizedRMSD>  (1) 
2.90434837

$$$$
