
     RDKit          3D

 34 34  0  0  1  0  0  0  0  0999 V2000
   39.8600   22.9350   35.1650 C   0  0  2  0  0  0  0  0  0  0  0  0
   38.4000   24.5850   36.3890 C   0  0  0  0  0  0  0  0  0  0  0  0
   39.2900   23.4780   36.3650 C   0  0  0  0  0  0  0  0  0  0  0  0
   39.5330   22.8760   37.5900 C   0  0  0  0  0  0  0  0  0  0  0  0
   38.9160   23.3710   38.7350 N   0  0  0  0  0  0  0  0  0  0  0  0
   38.0880   24.4220   38.6790 C   0  0  0  0  0  0  0  0  0  0  0  0
   37.8210   25.0390   37.5020 N   0  0  0  0  0  0  0  0  0  0  0  0
   40.4070   21.7700   37.7580 N   0  0  0  0  0  0  0  0  0  0  0  0
   41.0850   23.8520   34.8250 C   0  0  0  0  0  0  0  0  0  0  0  0
   38.9260   22.8850   34.0280 C   0  0  0  0  0  0  0  0  0  0  0  0
   37.5350   21.8070   34.3790 S   0  0  0  0  0  0  0  0  0  0  0  0
   36.7050   21.1920   32.9120 C   0  0  0  0  0  0  0  0  0  0  0  0
   35.5390   20.3360   33.3650 C   0  0  0  0  0  0  0  0  0  0  0  0
   36.0990   22.3080   32.0830 C   0  0  0  0  0  0  0  0  0  0  0  0
   37.6430   20.3760   32.0790 C   0  0  0  0  0  0  0  0  0  0  0  0
   40.1423   21.8860   35.3377 H   0  0  0  0  0  0  0  0  0  0  0  0
   38.1765   25.0946   35.4401 H   0  0  0  0  0  0  0  0  0  0  0  0
   37.6173   24.7903   39.6025 H   0  0  0  0  0  0  0  0  0  0  0  0
   40.5490   21.3633   38.6936 H   0  0  0  0  0  0  0  0  0  0  0  0
   40.8991   21.3743   36.9443 H   0  0  0  0  0  0  0  0  0  0  0  0
   41.5516   24.2013   35.7579 H   0  0  0  0  0  0  0  0  0  0  0  0
   41.8197   23.2801   34.2393 H   0  0  0  0  0  0  0  0  0  0  0  0
   40.7433   24.7181   34.2393 H   0  0  0  0  0  0  0  0  0  0  0  0
   39.4583   22.5074   33.1425 H   0  0  0  0  0  0  0  0  0  0  0  0
   38.5432   23.9001   33.8463 H   0  0  0  0  0  0  0  0  0  0  0  0
   35.5068   20.3124   34.4643 H   0  0  0  0  0  0  0  0  0  0  0  0
   34.6005   20.7612   32.9797 H   0  0  0  0  0  0  0  0  0  0  0  0
   35.6635   19.3132   32.9797 H   0  0  0  0  0  0  0  0  0  0  0  0
   35.6820   23.0760   32.7510 H   0  0  0  0  0  0  0  0  0  0  0  0
   36.8770   22.7573   31.4484 H   0  0  0  0  0  0  0  0  0  0  0  0
   35.2985   21.9001   31.4484 H   0  0  0  0  0  0  0  0  0  0  0  0
   38.3083   19.7972   32.7365 H   0  0  0  0  0  0  0  0  0  0  0  0
   37.0656   19.6879   31.4441 H   0  0  0  0  0  0  0  0  0  0  0  0
   38.2445   21.0431   31.4441 H   0  0  0  0  0  0  0  0  0  0  0  0
  1  3  1  0
  2  7  2  0
  3  2  1  0
  3  4  2  0
  4  8  1  0
  4  5  1  0
  6  5  2  0
  7  6  1  0
  9  1  1  0
 10 11  1  0
 10  1  1  0
 12 13  1  0
 12 11  1  0
 14 12  1  0
 15 12  1  0
  1 16  1  1
  2 17  1  0
  6 18  1  0
  8 19  1  0
  8 20  1  0
  9 21  1  0
  9 22  1  0
  9 23  1  0
 10 24  1  0
 10 25  1  0
 13 26  1  0
 13 27  1  0
 13 28  1  0
 14 29  1  0
 14 30  1  0
 14 31  1  0
 15 32  1  0
 15 33  1  0
 15 34  1  0
M  ISO  8  16   8  17  14  18  14  21   8  22   8  23   8  24   8  25   8
M  ISO  8  26   8  27   8  28   8  29   8  30   8  31   8  32   8  33   8
M  ISO  1  34   8
M  END
>  <minimizedAffinity>  (1) 
-4.19215488

>  <minimizedRMSD>  (1) 
1.27979016

$$$$
