
     RDKit          3D

 34 35  0  0  1  0  0  0  0  0999 V2000
   39.9730   23.0610   35.1960 C   0  0  2  0  0  0  0  0  0  0  0  0
   38.4340   24.6410   36.4010 C   0  0  0  0  0  0  0  0  0  0  0  0
   39.3280   23.5580   36.3780 C   0  0  0  0  0  0  0  0  0  0  0  0
   39.5560   22.9090   37.5940 C   0  0  0  0  0  0  0  0  0  0  0  0
   38.8980   23.3550   38.7300 N   0  0  0  0  0  0  0  0  0  0  0  0
   38.0740   24.4150   38.6830 C   0  0  0  0  0  0  0  0  0  0  0  0
   37.8200   25.0450   37.5210 N   0  0  0  0  0  0  0  0  0  0  0  0
   40.4180   21.7930   37.7600 N   0  0  0  0  0  0  0  0  0  0  0  0
   41.0700   24.0580   34.7970 C   0  0  0  0  0  0  0  0  0  0  0  0
   39.0330   22.8430   34.0560 C   0  0  0  0  0  0  0  0  0  0  0  0
   37.6510   21.7900   34.5510 S   0  0  0  0  0  0  0  0  0  0  0  0
   37.4950   20.2570   32.3150 N   0  0  0  0  0  0  0  0  0  0  0  0
   36.4770   19.4230   31.7140 C   0  0  0  0  0  0  0  0  0  0  0  0
   35.5410   19.1860   32.8710 C   0  0  0  0  0  0  0  0  0  0  0  0
   35.4400   20.5860   33.4640 C   0  0  0  0  0  0  0  0  0  0  0  0
   36.7540   21.2340   33.0660 C   0  0  1  0  0  0  0  0  0  0  0  0
   40.3965   22.0727   35.4282 H   0  0  0  0  0  0  0  0  0  0  0  0
   38.2301   25.1783   35.4630 H   0  0  0  0  0  0  0  0  0  0  0  0
   37.5996   24.7736   39.6084 H   0  0  0  0  0  0  0  0  0  0  0  0
   40.5355   21.3669   38.6903 H   0  0  0  0  0  0  0  0  0  0  0  0
   40.9258   21.4095   36.9501 H   0  0  0  0  0  0  0  0  0  0  0  0
   41.5315   24.4774   35.7031 H   0  0  0  0  0  0  0  0  0  0  0  0
   41.8363   23.5408   34.2010 H   0  0  0  0  0  0  0  0  0  0  0  0
   40.6282   24.8701   34.2010 H   0  0  0  0  0  0  0  0  0  0  0  0
   39.5753   22.3604   33.2295 H   0  0  0  0  0  0  0  0  0  0  0  0
   38.6351   23.8179   33.7377 H   0  0  0  0  0  0  0  0  0  0  0  0
   38.0690   20.7117   31.5907 H   0  0  0  0  0  0  0  0  0  0  0  0
   35.9689   19.9445   30.8895 H   0  0  0  0  0  0  0  0  0  0  0  0
   36.8696   18.4986   31.2653 H   0  0  0  0  0  0  0  0  0  0  0  0
   34.5611   18.8220   32.5284 H   0  0  0  0  0  0  0  0  0  0  0  0
   35.8865   18.4198   33.5806 H   0  0  0  0  0  0  0  0  0  0  0  0
   34.5864   21.1332   33.0374 H   0  0  0  0  0  0  0  0  0  0  0  0
   35.2769   20.5802   34.5518 H   0  0  0  0  0  0  0  0  0  0  0  0
   36.5952   22.1287   32.4461 H   0  0  0  0  0  0  0  0  0  0  0  0
  1  3  1  0
  2  7  2  0
  3  2  1  0
  3  4  2  0
  4  8  1  0
  4  5  1  0
  6  5  2  0
  7  6  1  0
  9  1  1  0
 10 11  1  0
 10  1  1  0
 12 16  1  0
 13 12  1  0
 13 14  1  0
 14 15  1  0
 16 15  1  0
 16 11  1  0
  1 17  1  1
  2 18  1  0
  6 19  1  0
  8 20  1  0
  8 21  1  0
  9 22  1  0
  9 23  1  0
  9 24  1  0
 10 25  1  0
 10 26  1  0
 12 27  1  0
 13 28  1  0
 13 29  1  0
 14 30  1  0
 14 31  1  0
 15 32  1  0
 15 33  1  0
 16 34  1  6
M  ISO  8  17   8  18  14  19  14  22   8  23   8  24   8  25   8  26   8
M  ISO  8  27   5  28  13  29  13  30  13  31  13  32  13  33  13  34  13
M  END
>  <minimizedAffinity>  (1) 
-4.44297504

>  <minimizedRMSD>  (1) 
2.38353896

$$$$
