
     RDKit          3D

 30 31  0  0  1  0  0  0  0  0999 V2000
   39.8500   23.0040   35.2620 C   0  0  2  0  0  0  0  0  0  0  0  0
   38.4100   24.6580   36.4590 C   0  0  0  0  0  0  0  0  0  0  0  0
   39.2860   23.5430   36.4570 C   0  0  0  0  0  0  0  0  0  0  0  0
   39.5060   22.9380   37.6820 C   0  0  0  0  0  0  0  0  0  0  0  0
   38.8840   23.4270   38.8090 N   0  0  0  0  0  0  0  0  0  0  0  0
   38.0590   24.4920   38.7460 C   0  0  0  0  0  0  0  0  0  0  0  0
   37.8170   25.1160   37.5670 N   0  0  0  0  0  0  0  0  0  0  0  0
   40.3870   21.8310   37.8560 N   0  0  0  0  0  0  0  0  0  0  0  0
   40.9420   24.0250   34.7910 C   0  0  0  0  0  0  0  0  0  0  0  0
   38.9040   22.7430   34.1690 C   0  0  0  0  0  0  0  0  0  0  0  0
   37.4980   21.7850   34.7500 S   0  0  0  0  0  0  0  0  0  0  0  0
   36.7250   21.0570   33.2880 C   0  0  0  0  0  0  0  0  0  0  0  0
   35.4840   20.4080   33.3000 C   0  0  0  0  0  0  0  0  0  0  0  0
   35.0040   19.8980   32.1200 C   0  0  0  0  0  0  0  0  0  0  0  0
   35.6830   19.9990   30.9710 N   0  0  0  0  0  0  0  0  0  0  0  0
   36.8630   20.6160   30.9580 C   0  0  0  0  0  0  0  0  0  0  0  0
   37.3860   21.1410   32.0970 N   0  0  0  0  0  0  0  0  0  0  0  0
   40.2505   22.0086   35.5043 H   0  0  0  0  0  0  0  0  0  0  0  0
   38.2090   25.1695   35.5061 H   0  0  0  0  0  0  0  0  0  0  0  0
   37.5760   24.8593   39.6635 H   0  0  0  0  0  0  0  0  0  0  0  0
   40.5154   21.4169   38.7903 H   0  0  0  0  0  0  0  0  0  0  0  0
   40.8952   21.4452   37.0474 H   0  0  0  0  0  0  0  0  0  0  0  0
   41.4251   24.4767   35.6700 H   0  0  0  0  0  0  0  0  0  0  0  0
   41.6970   23.5014   34.1862 H   0  0  0  0  0  0  0  0  0  0  0  0
   40.4702   24.8135   34.1862 H   0  0  0  0  0  0  0  0  0  0  0  0
   39.4180   22.1821   33.3745 H   0  0  0  0  0  0  0  0  0  0  0  0
   38.5374   23.7063   33.7848 H   0  0  0  0  0  0  0  0  0  0  0  0
   34.9084   20.3095   34.2322 H   0  0  0  0  0  0  0  0  0  0  0  0
   34.0287   19.3892   32.1183 H   0  0  0  0  0  0  0  0  0  0  0  0
   37.4210   20.7017   30.0139 H   0  0  0  0  0  0  0  0  0  0  0  0
  1  3  1  0
  2  7  2  0
  3  2  1  0
  3  4  2  0
  4  8  1  0
  4  5  1  0
  6  5  2  0
  7  6  1  0
  9  1  1  0
 10 11  1  0
 10  1  1  0
 12 13  2  0
 12 11  1  0
 14 13  1  0
 15 14  2  0
 16 15  1  0
 16 17  2  0
 17 12  1  0
  1 18  1  1
  2 19  1  0
  6 20  1  0
  8 21  1  0
  8 22  1  0
  9 23  1  0
  9 24  1  0
  9 25  1  0
 10 26  1  0
 10 27  1  0
 13 28  1  0
 14 29  1  0
 16 30  1  0
M  ISO  8  18   8  19  14  20  14  23   8  24   8  25   8  26   8  27   8
M  ISO  3  28  14  29  14  30  14
M  END
>  <minimizedAffinity>  (1) 
-4.48083496

>  <minimizedRMSD>  (1) 
2.87694001

$$$$
