
     RDKit          3D

 37 38  0  0  1  0  0  0  0  0999 V2000
   40.4500   22.9840   35.1940 C   0  0  2  0  0  0  0  0  0  0  0  0
   38.7030   24.5230   36.1740 C   0  0  0  0  0  0  0  0  0  0  0  0
   39.6300   23.4580   36.2930 C   0  0  0  0  0  0  0  0  0  0  0  0
   39.6680   22.8110   37.5170 C   0  0  0  0  0  0  0  0  0  0  0  0
   38.8190   23.2280   38.5300 N   0  0  0  0  0  0  0  0  0  0  0  0
   37.9630   24.2450   38.3500 C   0  0  0  0  0  0  0  0  0  0  0  0
   37.8980   24.9000   37.1730 N   0  0  0  0  0  0  0  0  0  0  0  0
   40.5580   21.7400   37.8090 N   0  0  0  0  0  0  0  0  0  0  0  0
   41.7620   23.8420   35.2560 C   0  0  0  0  0  0  0  0  0  0  0  0
   39.8200   23.1030   33.8690 C   0  0  0  0  0  0  0  0  0  0  0  0
   38.6970   21.7360   33.5600 S   0  0  0  0  0  0  0  0  0  0  0  0
   36.9570   20.3200   30.2930 N   0  0  0  0  0  0  0  0  0  0  0  0
   38.2760   20.6780   29.8570 C   0  0  0  0  0  0  0  0  0  0  0  0
   39.0740   21.4610   30.8680 C   0  0  0  0  0  0  0  0  0  0  0  0
   39.2310   20.6820   32.1760 C   0  0  0  0  0  0  0  0  0  0  0  0
   38.2600   19.5260   32.1050 C   0  0  0  0  0  0  0  0  0  0  0  0
   36.9230   20.1440   31.7150 C   0  0  0  0  0  0  0  0  0  0  0  0
   40.6275   21.9047   35.3106 H   0  0  0  0  0  0  0  0  0  0  0  0
   38.6429   25.0634   35.2178 H   0  0  0  0  0  0  0  0  0  0  0  0
   37.3034   24.5496   39.1759 H   0  0  0  0  0  0  0  0  0  0  0  0
   40.5418   21.2957   38.7381 H   0  0  0  0  0  0  0  0  0  0  0  0
   41.2184   21.4090   37.0913 H   0  0  0  0  0  0  0  0  0  0  0  0
   42.0343   24.0201   36.3068 H   0  0  0  0  0  0  0  0  0  0  0  0
   42.5774   23.3021   34.7523 H   0  0  0  0  0  0  0  0  0  0  0  0
   41.5942   24.8054   34.7523 H   0  0  0  0  0  0  0  0  0  0  0  0
   39.2576   24.0472   33.8224 H   0  0  0  0  0  0  0  0  0  0  0  0
   40.6104   23.0848   33.1041 H   0  0  0  0  0  0  0  0  0  0  0  0
   36.6775   19.4399   29.8367 H   0  0  0  0  0  0  0  0  0  0  0  0
   38.8252   19.7532   29.6266 H   0  0  0  0  0  0  0  0  0  0  0  0
   38.1509   21.3315   28.9810 H   0  0  0  0  0  0  0  0  0  0  0  0
   40.0712   21.6699   30.4534 H   0  0  0  0  0  0  0  0  0  0  0  0
   38.5383   22.3973   31.0835 H   0  0  0  0  0  0  0  0  0  0  0  0
   40.2726   20.3577   32.3175 H   0  0  0  0  0  0  0  0  0  0  0  0
   38.5833   18.7979   31.3465 H   0  0  0  0  0  0  0  0  0  0  0  0
   38.1974   18.9851   33.0608 H   0  0  0  0  0  0  0  0  0  0  0  0
   36.7925   21.1149   32.2153 H   0  0  0  0  0  0  0  0  0  0  0  0
   36.0835   19.5005   32.0168 H   0  0  0  0  0  0  0  0  0  0  0  0
  1  9  1  0
  1  3  1  0
  2  3  2  0
  2  7  1  0
  3  4  1  0
  4  8  1  0
  4  5  2  0
  6  5  1  0
  7  6  2  0
 10  1  1  0
 11 10  1  0
 12 17  1  0
 13 12  1  0
 13 14  1  0
 14 15  1  0
 15 11  1  0
 16 15  1  0
 17 16  1  0
  1 18  1  1
  2 19  1  0
  6 20  1  0
  8 21  1  0
  8 22  1  0
  9 23  1  0
  9 24  1  0
  9 25  1  0
 10 26  1  0
 10 27  1  0
 12 28  1  0
 13 29  1  0
 13 30  1  0
 14 31  1  0
 14 32  1  0
 15 33  1  0
 16 34  1  0
 16 35  1  0
 17 36  1  0
 17 37  1  0
M  ISO  8  18   8  19  14  20  14  23   8  24   8  25   8  26   8  27   8
M  ISO  8  28   5  29  13  30  13  31  13  32  13  33  13  34  13  35  13
M  ISO  2  36  13  37  13
M  END
>  <minimizedAffinity>  (1) 
-3.94380355

>  <minimizedRMSD>  (1) 
1.11247015

$$$$
