
     RDKit          3D

 25 25  0  0  1  0  0  0  0  0999 V2000
   39.8420   22.9770   35.1330 C   0  0  2  0  0  0  0  0  0  0  0  0
   38.3820   24.5940   36.3690 C   0  0  0  0  0  0  0  0  0  0  0  0
   39.2730   23.4940   36.3390 C   0  0  0  0  0  0  0  0  0  0  0  0
   39.5260   22.8670   37.5670 C   0  0  0  0  0  0  0  0  0  0  0  0
   38.9190   23.3290   38.7170 N   0  0  0  0  0  0  0  0  0  0  0  0
   38.0760   24.3880   38.6710 C   0  0  0  0  0  0  0  0  0  0  0  0
   37.7960   25.0320   37.5040 N   0  0  0  0  0  0  0  0  0  0  0  0
   40.3980   21.7730   37.7160 N   0  0  0  0  0  0  0  0  0  0  0  0
   41.1970   23.7190   34.9230 C   0  0  0  0  0  0  0  0  0  0  0  0
   38.9800   23.1260   33.9510 C   0  0  0  0  0  0  0  0  0  0  0  0
   37.7470   21.8290   33.8700 S   0  0  0  0  0  0  0  0  0  0  0  0
   36.6100   22.2090   32.4910 C   0  0  0  0  0  0  0  0  0  0  0  0
   37.0260   21.4620   31.3730 F   0  0  0  0  0  0  0  0  0  0  0  0
   36.4190   23.5280   32.2880 F   0  0  0  0  0  0  0  0  0  0  0  0
   35.3200   21.6470   32.8130 F   0  0  0  0  0  0  0  0  0  0  0  0
   39.9750   21.8907   35.2432 H   0  0  0  0  0  0  0  0  0  0  0  0
   38.1573   25.1146   35.4264 H   0  0  0  0  0  0  0  0  0  0  0  0
   37.6047   24.7375   39.6014 H   0  0  0  0  0  0  0  0  0  0  0  0
   40.5439   21.3536   38.6454 H   0  0  0  0  0  0  0  0  0  0  0  0
   40.8905   21.3915   36.8957 H   0  0  0  0  0  0  0  0  0  0  0  0
   41.6382   23.9606   35.9013 H   0  0  0  0  0  0  0  0  0  0  0  0
   41.8858   23.0722   34.3598 H   0  0  0  0  0  0  0  0  0  0  0  0
   41.0230   24.6477   34.3598 H   0  0  0  0  0  0  0  0  0  0  0  0
   38.4714   24.1001   34.0000 H   0  0  0  0  0  0  0  0  0  0  0  0
   39.6113   23.0586   33.0527 H   0  0  0  0  0  0  0  0  0  0  0  0
  1  3  1  0
  2  7  2  0
  3  2  1  0
  3  4  2  0
  4  8  1  0
  4  5  1  0
  6  5  2  0
  7  6  1  0
  9  1  1  0
 10  1  1  0
 11 10  1  0
 12 15  1  0
 12 11  1  0
 13 12  1  0
 14 12  1  0
  1 16  1  1
  2 17  1  0
  6 18  1  0
  8 19  1  0
  8 20  1  0
  9 21  1  0
  9 22  1  0
  9 23  1  0
 10 24  1  0
 10 25  1  0
M  ISO  8  16   8  17  14  18  14  21   8  22   8  23   8  24   8  25   8
M  END
>  <minimizedAffinity>  (1) 
-4.01441193

>  <minimizedRMSD>  (1) 
0.770866692

$$$$
