
     RDKit          3D

 25 25  0  0  1  0  0  0  0  0999 V2000
   40.5970   23.0650   35.2650 C   0  0  2  0  0  0  0  0  0  0  0  0
   38.7970   24.5520   36.1720 C   0  0  0  0  0  0  0  0  0  0  0  0
   39.7320   23.4900   36.3200 C   0  0  0  0  0  0  0  0  0  0  0  0
   39.7300   22.8030   37.5190 C   0  0  0  0  0  0  0  0  0  0  0  0
   38.8260   23.1790   38.5080 N   0  0  0  0  0  0  0  0  0  0  0  0
   37.9590   24.1970   38.3130 C   0  0  0  0  0  0  0  0  0  0  0  0
   37.9430   24.8780   37.1560 N   0  0  0  0  0  0  0  0  0  0  0  0
   40.6130   21.7430   37.8360 N   0  0  0  0  0  0  0  0  0  0  0  0
   41.8970   23.9340   35.3800 C   0  0  0  0  0  0  0  0  0  0  0  0
   40.0420   23.1860   33.9070 C   0  0  0  0  0  0  0  0  0  0  0  0
   39.0610   21.7490   33.4760 S   0  0  0  0  0  0  0  0  0  0  0  0
   37.3580   21.7940   33.9800 C   0  0  0  0  0  0  0  0  0  0  0  0
   40.7739   21.9869   35.3930 H   0  0  0  0  0  0  0  0  0  0  0  0
   38.7729   25.1193   35.2299 H   0  0  0  0  0  0  0  0  0  0  0  0
   37.2564   24.4716   39.1135 H   0  0  0  0  0  0  0  0  0  0  0  0
   40.5510   21.2778   38.7529 H   0  0  0  0  0  0  0  0  0  0  0  0
   41.3175   21.4369   37.1498 H   0  0  0  0  0  0  0  0  0  0  0  0
   42.1378   24.0949   36.4412 H   0  0  0  0  0  0  0  0  0  0  0  0
   42.7318   23.4117   34.8897 H   0  0  0  0  0  0  0  0  0  0  0  0
   41.7335   24.9050   34.8897 H   0  0  0  0  0  0  0  0  0  0  0  0
   39.4060   24.0822   33.8580 H   0  0  0  0  0  0  0  0  0  0  0  0
   40.8773   23.2632   33.1954 H   0  0  0  0  0  0  0  0  0  0  0  0
   37.3006   21.7955   35.0785 H   0  0  0  0  0  0  0  0  0  0  0  0
   36.8832   22.7050   33.5868 H   0  0  0  0  0  0  0  0  0  0  0  0
   36.8357   20.9093   33.5868 H   0  0  0  0  0  0  0  0  0  0  0  0
  1  9  1  0
  1  3  1  0
  2  3  2  0
  2  7  1  0
  3  4  1  0
  4  8  1  0
  4  5  2  0
  6  5  1  0
  7  6  2  0
 10  1  1  0
 11 10  1  0
 11 12  1  0
  1 13  1  1
  2 14  1  0
  6 15  1  0
  8 16  1  0
  8 17  1  0
  9 18  1  0
  9 19  1  0
  9 20  1  0
 10 21  1  0
 10 22  1  0
 12 23  1  0
 12 24  1  0
 12 25  1  0
M  ISO  8  13   8  14  14  15  14  18   8  19   8  20   8  21   8  22   8
M  ISO  3  23   8  24   8  25   8
M  END
>  <minimizedAffinity>  (1) 
-3.59432054

>  <minimizedRMSD>  (1) 
0.361893833

$$$$
