
     RDKit          3D

 36 38  0  0  1  0  0  0  0  0999 V2000
   37.7230   25.5870   34.1300 C   0  0  0  0  0  0  0  0  0  0  0  0
   38.9890   25.3930   34.8250 C   0  0  2  0  0  0  0  0  0  0  0  0
   38.0170   25.0290   37.0990 C   0  0  0  0  0  0  0  0  0  0  0  0
   38.9260   24.6750   36.0640 C   0  0  0  0  0  0  0  0  0  0  0  0
   39.7190   23.5730   36.2740 C   0  0  0  0  0  0  0  0  0  0  0  0
   39.5960   22.8700   37.4650 N   0  0  0  0  0  0  0  0  0  0  0  0
   38.7080   23.2500   38.4250 C   0  0  0  0  0  0  0  0  0  0  0  0
   37.9210   24.3300   38.2410 N   0  0  0  0  0  0  0  0  0  0  0  0
   40.6870   23.1100   35.3530 N   0  0  0  0  0  0  0  0  0  0  0  0
   39.6320   26.7980   35.1590 C   0  0  0  0  0  0  0  0  0  0  0  0
   37.8610   25.2180   32.3760 S   0  0  0  0  0  0  0  0  0  0  0  0
   35.3180   22.6050   30.9700 N   0  0  0  0  0  0  0  0  0  0  0  0
   35.8340   23.8160   31.0700 N   0  0  0  0  0  0  0  0  0  0  0  0
   36.8680   23.8100   31.9320 C   0  0  0  0  0  0  0  0  0  0  0  0
   36.9330   22.5070   32.3400 C   0  0  0  0  0  0  0  0  0  0  0  0
   35.9710   21.7140   31.7550 C   0  0  0  0  0  0  0  0  0  0  0  0
   35.7150   20.2890   31.9290 C   0  0  0  0  0  0  0  0  0  0  0  0
   36.7180   19.3560   32.0910 C   0  0  0  0  0  0  0  0  0  0  0  0
   36.0100   18.1580   32.2160 C   0  0  0  0  0  0  0  0  0  0  0  0
   34.6720   18.3850   32.1320 N   0  0  0  0  0  0  0  0  0  0  0  0
   34.5030   19.6850   31.9570 N   0  0  0  0  0  0  0  0  0  0  0  0
   36.9671   24.9233   34.5751 H   0  0  0  0  0  0  0  0  0  0  0  0
   37.4333   26.6429   34.2355 H   0  0  0  0  0  0  0  0  0  0  0  0
   39.5803   24.7841   34.1253 H   0  0  0  0  0  0  0  0  0  0  0  0
   37.3694   25.9070   36.9587 H   0  0  0  0  0  0  0  0  0  0  0  0
   38.6319   22.6718   39.3577 H   0  0  0  0  0  0  0  0  0  0  0  0
   41.2493   22.2755   35.5728 H   0  0  0  0  0  0  0  0  0  0  0  0
   40.8298   23.6073   34.4624 H   0  0  0  0  0  0  0  0  0  0  0  0
   39.6900   26.9246   36.2501 H   0  0  0  0  0  0  0  0  0  0  0  0
   40.6434   26.8498   34.7296 H   0  0  0  0  0  0  0  0  0  0  0  0
   39.0101   27.5973   34.7296 H   0  0  0  0  0  0  0  0  0  0  0  0
   34.5166   22.3664   30.3685 H   0  0  0  0  0  0  0  0  0  0  0  0
   37.6754   22.1315   33.0596 H   0  0  0  0  0  0  0  0  0  0  0  0
   37.8061   19.5157   32.1157 H   0  0  0  0  0  0  0  0  0  0  0  0
   36.4705   17.1697   32.3619 H   0  0  0  0  0  0  0  0  0  0  0  0
   33.9277   17.6757   32.1933 H   0  0  0  0  0  0  0  0  0  0  0  0
  1  2  1  0
  2 10  1  0
  2  4  1  0
  3  8  2  0
  4  5  2  0
  4  3  1  0
  5  6  1  0
  6  7  2  0
  8  7  1  0
  9  5  1  0
 11  1  1  0
 12 13  1  0
 12 16  1  0
 13 14  2  0
 14 15  1  0
 14 11  1  0
 16 17  1  0
 16 15  2  0
 17 21  2  0
 17 18  1  0
 18 19  2  0
 20 19  1  0
 21 20  1  0
  1 22  1  0
  1 23  1  0
  2 24  1  6
  3 25  1  0
  7 26  1  0
  9 27  1  0
  9 28  1  0
 10 29  1  0
 10 30  1  0
 10 31  1  0
 12 32  1  0
 15 33  1  0
 18 34  1  0
 19 35  1  0
 20 36  1  0
M  ISO  8  22   8  23   8  24   8  25  14  26  14  29   8  30   8  31   8
M  ISO  5  32   9  33  14  34  14  35  14  36   9
M  END
>  <minimizedAffinity>  (1) 
-5.17669153

>  <minimizedRMSD>  (1) 
3.05672574

$$$$
