
     RDKit          3D

 32 33  0  0  1  0  0  0  0  0999 V2000
   40.8230   23.0410   35.2890 C   0  0  2  0  0  0  0  0  0  0  0  0
   38.9140   24.4750   36.0320 C   0  0  0  0  0  0  0  0  0  0  0  0
   39.8550   23.4340   36.2710 C   0  0  0  0  0  0  0  0  0  0  0  0
   39.7760   22.7810   37.4750 C   0  0  0  0  0  0  0  0  0  0  0  0
   38.8020   23.1610   38.3810 N   0  0  0  0  0  0  0  0  0  0  0  0
   37.9210   24.1630   38.1090 C   0  0  0  0  0  0  0  0  0  0  0  0
   37.9770   24.8280   36.9220 N   0  0  0  0  0  0  0  0  0  0  0  0
   40.6480   21.7400   37.8680 N   0  0  0  0  0  0  0  0  0  0  0  0
   42.0560   24.0160   35.4590 C   0  0  0  0  0  0  0  0  0  0  0  0
   40.3700   23.0600   33.9060 C   0  0  0  0  0  0  0  0  0  0  0  0
   40.5240   21.4440   33.1320 S   0  0  0  0  0  0  0  0  0  0  0  0
   37.4550   19.5250   31.6540 N   0  0  0  0  0  0  0  0  0  0  0  0
   38.7310   19.6550   31.9680 N   0  0  0  0  0  0  0  0  0  0  0  0
   38.9440   20.8550   32.5510 C   0  0  0  0  0  0  0  0  0  0  0  0
   37.6980   21.4430   32.5670 C   0  0  0  0  0  0  0  0  0  0  0  0
   36.7430   20.6220   32.0060 C   0  0  0  0  0  0  0  0  0  0  0  0
   35.3080   20.8660   31.8290 C   0  0  0  0  0  0  0  0  0  0  0  0
   34.8540   21.6370   32.8850 F   0  0  0  0  0  0  0  0  0  0  0  0
   35.1240   21.6070   30.6680 F   0  0  0  0  0  0  0  0  0  0  0  0
   34.5410   19.7270   31.7970 F   0  0  0  0  0  0  0  0  0  0  0  0
   41.0646   21.9838   35.4736 H   0  0  0  0  0  0  0  0  0  0  0  0
   38.9582   25.0136   35.0739 H   0  0  0  0  0  0  0  0  0  0  0  0
   37.1588   24.4372   38.8532 H   0  0  0  0  0  0  0  0  0  0  0  0
   40.5329   21.2915   38.7881 H   0  0  0  0  0  0  0  0  0  0  0  0
   41.3985   21.4300   37.2343 H   0  0  0  0  0  0  0  0  0  0  0  0
   42.2545   24.1729   36.5295 H   0  0  0  0  0  0  0  0  0  0  0  0
   42.9428   23.5722   34.9829 H   0  0  0  0  0  0  0  0  0  0  0  0
   41.8286   24.9812   34.9829 H   0  0  0  0  0  0  0  0  0  0  0  0
   39.3142   23.3678   33.8811 H   0  0  0  0  0  0  0  0  0  0  0  0
   41.0009   23.7681   33.3487 H   0  0  0  0  0  0  0  0  0  0  0  0
   37.0518   18.6938   31.1986 H   0  0  0  0  0  0  0  0  0  0  0  0
   37.4910   22.4428   32.9763 H   0  0  0  0  0  0  0  0  0  0  0  0
  1  9  1  0
  1  3  1  0
  2  3  2  0
  2  7  1  0
  3  4  1  0
  4  8  1  0
  4  5  2  0
  6  5  1  0
  7  6  2  0
 10  1  1  0
 11 10  1  0
 12 13  1  0
 12 16  1  0
 13 14  2  0
 14 15  1  0
 14 11  1  0
 16 15  2  0
 17 16  1  0
 17 18  1  0
 19 17  1  0
 20 17  1  0
  1 21  1  1
  2 22  1  0
  6 23  1  0
  8 24  1  0
  8 25  1  0
  9 26  1  0
  9 27  1  0
  9 28  1  0
 10 29  1  0
 10 30  1  0
 12 31  1  0
 15 32  1  0
M  ISO  8  21   8  22  14  23  14  26   8  27   8  28   8  29   8  30   8
M  ISO  2  31   9  32  14
M  END
>  <minimizedAffinity>  (1) 
-4.92102623

>  <minimizedRMSD>  (1) 
1.59076452

$$$$
