
     RDKit          3D

 42 44  0  0  1  0  0  0  0  0999 V2000
   40.4000   23.1470   35.2770 C   0  0  2  0  0  0  0  0  0  0  0  0
   38.6520   24.5970   36.3230 C   0  0  0  0  0  0  0  0  0  0  0  0
   39.5890   23.5310   36.3990 C   0  0  0  0  0  0  0  0  0  0  0  0
   39.6630   22.8460   37.5860 C   0  0  0  0  0  0  0  0  0  0  0  0
   38.8370   23.2180   38.6320 N   0  0  0  0  0  0  0  0  0  0  0  0
   37.9530   24.2490   38.5120 C   0  0  0  0  0  0  0  0  0  0  0  0
   37.8590   24.9450   37.3460 N   0  0  0  0  0  0  0  0  0  0  0  0
   40.5550   21.7730   37.8230 N   0  0  0  0  0  0  0  0  0  0  0  0
   41.6770   24.0820   35.3150 C   0  0  0  0  0  0  0  0  0  0  0  0
   39.7610   23.2240   33.9700 C   0  0  0  0  0  0  0  0  0  0  0  0
   38.6730   21.8330   33.6710 S   0  0  0  0  0  0  0  0  0  0  0  0
   39.8360   20.7680   30.0860 N   0  0  0  0  0  0  0  0  0  0  0  0
   39.9510   21.4500   31.2240 N   0  0  0  0  0  0  0  0  0  0  0  0
   38.9190   21.1500   32.0430 C   0  0  0  0  0  0  0  0  0  0  0  0
   38.1760   20.2460   31.3290 C   0  0  0  0  0  0  0  0  0  0  0  0
   38.7320   19.9900   30.0950 C   0  0  0  0  0  0  0  0  0  0  0  0
   38.2000   19.0720   29.0700 C   0  0  0  0  0  0  0  0  0  0  0  0
   36.6980   19.0640   29.0510 C   0  0  0  0  0  0  0  0  0  0  0  0
   36.4400   18.3110   27.7430 C   0  0  0  0  0  0  0  0  0  0  0  0
   37.5620   18.7470   26.8070 C   0  0  0  0  0  0  0  0  0  0  0  0
   38.5130   19.5590   27.6600 C   0  0  0  0  0  0  0  0  0  0  0  0
   40.6309   22.0770   35.3853 H   0  0  0  0  0  0  0  0  0  0  0  0
   38.5741   25.1618   35.3823 H   0  0  0  0  0  0  0  0  0  0  0  0
   37.3113   24.5202   39.3633 H   0  0  0  0  0  0  0  0  0  0  0  0
   40.5603   21.3002   38.7381 H   0  0  0  0  0  0  0  0  0  0  0  0
   41.1989   21.4649   37.0804 H   0  0  0  0  0  0  0  0  0  0  0  0
   41.9527   24.2838   36.3606 H   0  0  0  0  0  0  0  0  0  0  0  0
   42.5134   23.5812   34.8054 H   0  0  0  0  0  0  0  0  0  0  0  0
   41.4522   25.0306   34.8054 H   0  0  0  0  0  0  0  0  0  0  0  0
   39.1733   24.1523   33.9163 H   0  0  0  0  0  0  0  0  0  0  0  0
   40.5508   23.2078   33.2046 H   0  0  0  0  0  0  0  0  0  0  0  0
   40.5015   20.8262   29.3020 H   0  0  0  0  0  0  0  0  0  0  0  0
   37.2490   19.7817   31.6966 H   0  0  0  0  0  0  0  0  0  0  0  0
   38.6502   18.1005   29.3220 H   0  0  0  0  0  0  0  0  0  0  0  0
   36.2837   18.5273   29.9172 H   0  0  0  0  0  0  0  0  0  0  0  0
   36.2334   20.0595   29.1063 H   0  0  0  0  0  0  0  0  0  0  0  0
   36.4759   17.2242   27.9093 H   0  0  0  0  0  0  0  0  0  0  0  0
   35.4461   18.5340   27.3277 H   0  0  0  0  0  0  0  0  0  0  0  0
   37.1611   19.3618   25.9877 H   0  0  0  0  0  0  0  0  0  0  0  0
   38.0651   17.8842   26.3460 H   0  0  0  0  0  0  0  0  0  0  0  0
   39.5599   19.3527   27.3926 H   0  0  0  0  0  0  0  0  0  0  0  0
   38.3901   20.6451   27.5367 H   0  0  0  0  0  0  0  0  0  0  0  0
  1  9  1  0
  1  3  1  0
  2  3  2  0
  2  7  1  0
  3  4  1  0
  4  8  1  0
  4  5  2  0
  6  5  1  0
  7  6  2  0
 10  1  1  0
 11 10  1  0
 12 16  1  0
 12 13  1  0
 13 14  2  0
 14 11  1  0
 15 14  1  0
 16 15  2  0
 17 16  1  0
 18 17  1  0
 19 18  1  0
 20 21  1  0
 20 19  1  0
 21 17  1  0
  1 22  1  1
  2 23  1  0
  6 24  1  0
  8 25  1  0
  8 26  1  0
  9 27  1  0
  9 28  1  0
  9 29  1  0
 10 30  1  0
 10 31  1  0
 12 32  1  0
 15 33  1  0
 17 34  1  0
 18 35  1  0
 18 36  1  0
 19 37  1  0
 19 38  1  0
 20 39  1  0
 20 40  1  0
 21 41  1  0
 21 42  1  0
M  ISO  8  22   8  23  14  24  14  27   8  28   8  29   8  30   8  31   8
M  ISO  8  32   9  33  14  34  13  35  13  36  13  37  13  38  13  39  13
M  ISO  3  40  13  41  13  42  13
M  END
>  <minimizedAffinity>  (1) 
-4.3507638

>  <minimizedRMSD>  (1) 
2.89038539

$$$$
