
     RDKit          3D

 39 40  0  0  1  0  0  0  0  0999 V2000
   41.4280   23.4510   35.0810 C   0  0  2  0  0  0  0  0  0  0  0  0
   39.2680   24.6380   35.6030 C   0  0  0  0  0  0  0  0  0  0  0  0
   40.2670   23.6720   35.9110 C   0  0  0  0  0  0  0  0  0  0  0  0
   40.0620   22.9060   37.0290 C   0  0  0  0  0  0  0  0  0  0  0  0
   38.9270   23.1010   37.7830 N   0  0  0  0  0  0  0  0  0  0  0  0
   38.0020   24.0290   37.4540 C   0  0  0  0  0  0  0  0  0  0  0  0
   38.1720   24.8020   36.3610 N   0  0  0  0  0  0  0  0  0  0  0  0
   40.9740   21.9160   37.4830 N   0  0  0  0  0  0  0  0  0  0  0  0
   42.5360   24.4480   35.6240 C   0  0  0  0  0  0  0  0  0  0  0  0
   41.2250   23.6890   33.6560 C   0  0  0  0  0  0  0  0  0  0  0  0
   41.7780   22.3090   32.6640 S   0  0  0  0  0  0  0  0  0  0  0  0
   39.4410   19.3170   31.7090 N   0  0  0  0  0  0  0  0  0  0  0  0
   40.6220   19.9230   31.8360 N   0  0  0  0  0  0  0  0  0  0  0  0
   40.4640   21.1530   32.3320 C   0  0  0  0  0  0  0  0  0  0  0  0
   39.1170   21.2610   32.5010 C   0  0  0  0  0  0  0  0  0  0  0  0
   38.4570   20.1290   32.1200 C   0  0  0  0  0  0  0  0  0  0  0  0
   37.0260   19.8820   32.1630 C   0  0  0  0  0  0  0  0  0  0  0  0
   36.0990   20.8140   31.7650 C   0  0  0  0  0  0  0  0  0  0  0  0
   34.4750   20.0200   32.0140 S   0  0  0  0  0  0  0  0  0  0  0  0
   35.3170   18.4400   32.6620 C   0  0  0  0  0  0  0  0  0  0  0  0
   36.0700   19.1420   32.4160 N   0  0  0  0  0  0  0  0  0  0  0  0
   41.7032   22.3881   35.1482 H   0  0  0  0  0  0  0  0  0  0  0  0
   39.3984   25.2719   34.7135 H   0  0  0  0  0  0  0  0  0  0  0  0
   37.1062   24.1551   38.0799 H   0  0  0  0  0  0  0  0  0  0  0  0
   40.7631   21.3721   38.3319 H   0  0  0  0  0  0  0  0  0  0  0  0
   41.8461   21.7421   36.9633 H   0  0  0  0  0  0  0  0  0  0  0  0
   42.5282   24.4410   36.7240 H   0  0  0  0  0  0  0  0  0  0  0  0
   43.5248   24.1295   35.2623 H   0  0  0  0  0  0  0  0  0  0  0  0
   42.3233   25.4648   35.2623 H   0  0  0  0  0  0  0  0  0  0  0  0
   40.1528   23.8521   33.4720 H   0  0  0  0  0  0  0  0  0  0  0  0
   41.8154   24.5721   33.3705 H   0  0  0  0  0  0  0  0  0  0  0  0
   39.3046   18.3624   31.3472 H   0  0  0  0  0  0  0  0  0  0  0  0
   38.6185   22.1573   32.8987 H   0  0  0  0  0  0  0  0  0  0  0  0
   35.0256   20.5790   31.8167 H   0  0  0  0  0  0  0  0  0  0  0  0
   36.4299   21.7955   31.3946 H   0  0  0  0  0  0  0  0  0  0  0  0
   33.8404   20.3693   33.1768 H   0  0  0  0  0  0  0  0  0  0  0  0
   35.2325   18.3612   33.7559 H   0  0  0  0  0  0  0  0  0  0  0  0
   34.3555   18.7716   32.2429 H   0  0  0  0  0  0  0  0  0  0  0  0
   35.5804   17.4577   32.2429 H   0  0  0  0  0  0  0  0  0  0  0  0
  1  9  1  0
  1  3  1  0
  2  3  2  0
  2  7  1  0
  3  4  1  0
  4  8  1  0
  4  5  2  0
  6  5  1  0
  7  6  2  0
 10  1  1  0
 11 10  1  0
 12 13  1  0
 12 16  1  0
 13 14  2  0
 14 15  1  0
 14 11  1  0
 16 17  1  0
 16 15  2  0
 17 21  1  0
 18 17  2  0
 19 21  1  0
 21 20  1  0
  1 22  1  6
  2 23  1  0
  6 24  1  0
  8 25  1  0
  8 26  1  0
  9 27  1  0
  9 28  1  0
  9 29  1  0
 10 30  1  0
 10 31  1  0
 12 32  1  0
 15 33  1  0
 18 34  1  0
 18 35  1  0
 19 36  1  0
 20 37  1  0
 20 38  1  0
 20 39  1  0
M  ISO  8  22   8  23  14  24  14  27   8  28   8  29   8  30   8  31   8
M  ISO  6  32   9  33  14  36  11  37   8  38   8  39   8
M  END
>  <minimizedAffinity>  (1) 
-3.84131169

>  <minimizedRMSD>  (1) 
3.0006721

$$$$
