
     RDKit          3D

 30 31  0  0  1  0  0  0  0  0999 V2000
   40.5520   23.0570   35.2790 C   0  0  2  0  0  0  0  0  0  0  0  0
   38.7400   24.5150   36.2040 C   0  0  0  0  0  0  0  0  0  0  0  0
   39.6890   23.4630   36.3510 C   0  0  0  0  0  0  0  0  0  0  0  0
   39.7170   22.8110   37.5590 C   0  0  0  0  0  0  0  0  0  0  0  0
   38.8390   23.2020   38.5510 N   0  0  0  0  0  0  0  0  0  0  0  0
   37.9470   24.2130   38.3670 C   0  0  0  0  0  0  0  0  0  0  0  0
   37.8970   24.8770   37.1810 N   0  0  0  0  0  0  0  0  0  0  0  0
   40.6120   21.7600   37.8660 N   0  0  0  0  0  0  0  0  0  0  0  0
   41.7730   24.0690   35.2910 C   0  0  0  0  0  0  0  0  0  0  0  0
   39.9490   23.0250   33.9550 C   0  0  0  0  0  0  0  0  0  0  0  0
   40.2210   21.4570   33.1350 S   0  0  0  0  0  0  0  0  0  0  0  0
   36.8060   21.0160   31.2740 N   0  0  0  0  0  0  0  0  0  0  0  0
   37.6130   21.5840   32.1530 N   0  0  0  0  0  0  0  0  0  0  0  0
   38.8270   21.0070   32.1190 C   0  0  0  0  0  0  0  0  0  0  0  0
   38.7000   20.0470   31.1540 C   0  0  0  0  0  0  0  0  0  0  0  0
   37.4360   20.0260   30.6000 C   0  0  0  0  0  0  0  0  0  0  0  0
   36.7340   19.0090   29.3380 S   0  0  0  0  0  0  0  0  0  0  0  0
   40.8383   22.0104   35.4596 H   0  0  0  0  0  0  0  0  0  0  0  0
   38.6971   25.0542   35.2462 H   0  0  0  0  0  0  0  0  0  0  0  0
   37.2631   24.4946   39.1813 H   0  0  0  0  0  0  0  0  0  0  0  0
   40.5814   21.3117   38.7928 H   0  0  0  0  0  0  0  0  0  0  0  0
   41.2945   21.4428   37.1628 H   0  0  0  0  0  0  0  0  0  0  0  0
   42.0493   24.2980   36.3308 H   0  0  0  0  0  0  0  0  0  0  0  0
   42.6315   23.6140   34.7752 H   0  0  0  0  0  0  0  0  0  0  0  0
   41.4852   24.9970   34.7752 H   0  0  0  0  0  0  0  0  0  0  0  0
   38.8662   23.1917   34.0533 H   0  0  0  0  0  0  0  0  0  0  0  0
   40.4182   23.8131   33.3477 H   0  0  0  0  0  0  0  0  0  0  0  0
   35.8251   21.2910   31.1217 H   0  0  0  0  0  0  0  0  0  0  0  0
   39.5123   19.3689   30.8534 H   0  0  0  0  0  0  0  0  0  0  0  0
   36.0282   17.9866   29.9154 H   0  0  0  0  0  0  0  0  0  0  0  0
  1  9  1  0
  1  3  1  0
  2  3  2  0
  2  7  1  0
  3  4  1  0
  4  8  1  0
  4  5  2  0
  6  5  1  0
  7  6  2  0
 10  1  1  0
 11 10  1  0
 12 13  1  0
 14 13  2  0
 14 11  1  0
 15 14  1  0
 16 15  2  0
 16 12  1  0
 17 16  1  0
  1 18  1  1
  2 19  1  0
  6 20  1  0
  8 21  1  0
  8 22  1  0
  9 23  1  0
  9 24  1  0
  9 25  1  0
 10 26  1  0
 10 27  1  0
 12 28  1  0
 15 29  1  0
 17 30  1  0
M  ISO  8  18   8  19  14  20  14  23   8  24   8  25   8  26   8  27   8
M  ISO  3  28   9  29  14  30  11
M  END
>  <minimizedAffinity>  (1) 
-4.07605791

>  <minimizedRMSD>  (1) 
1.68762314

$$$$
