
     RDKit          3D

 43 45  0  0  1  0  0  0  0  0999 V2000
   38.6140   22.2140   33.5660 S   0  0  0  0  0  0  0  0  0  0  0  0
   35.4520   23.3050   31.5190 N   0  0  0  0  0  0  0  0  0  0  0  0
   36.2210   22.4180   32.1460 N   0  0  0  0  0  0  0  0  0  0  0  0
   37.3120   23.0180   32.6500 C   0  0  0  0  0  0  0  0  0  0  0  0
   37.1550   24.3250   32.2900 C   0  0  0  0  0  0  0  0  0  0  0  0
   36.0010   24.5360   31.5810 C   0  0  0  0  0  0  0  0  0  0  0  0
   35.5150   25.8090   31.0380 C   0  0  0  0  0  0  0  0  0  0  0  0
   35.8940   26.9940   31.8350 C   0  0  0  0  0  0  0  0  0  0  0  0
   36.2390   28.2020   31.0840 C   0  0  0  0  0  0  0  0  0  0  0  0
   35.9710   29.5340   31.2970 C   0  0  0  0  0  0  0  0  0  0  0  0
   36.4290   30.4900   30.4170 C   0  0  0  0  0  0  0  0  0  0  0  0
   37.1430   30.1740   29.3340 N   0  0  0  0  0  0  0  0  0  0  0  0
   37.4040   28.8680   29.1290 C   0  0  0  0  0  0  0  0  0  0  0  0
   36.9730   27.9050   29.9690 N   0  0  0  0  0  0  0  0  0  0  0  0
   39.9670   23.3170   33.9040 C   0  0  0  0  0  0  0  0  0  0  0  0
   40.4940   23.1410   35.2350 C   0  0  2  0  0  0  0  0  0  0  0  0
   38.7650   24.6560   36.2170 C   0  0  0  0  0  0  0  0  0  0  0  0
   39.6700   23.5440   36.3310 C   0  0  0  0  0  0  0  0  0  0  0  0
   39.6350   22.8630   37.5110 C   0  0  0  0  0  0  0  0  0  0  0  0
   38.7790   23.2310   38.5220 N   0  0  0  0  0  0  0  0  0  0  0  0
   37.9370   24.2980   38.3630 C   0  0  0  0  0  0  0  0  0  0  0  0
   37.9260   25.0210   37.2000 N   0  0  0  0  0  0  0  0  0  0  0  0
   40.5040   21.7540   37.7660 N   0  0  0  0  0  0  0  0  0  0  0  0
   41.8420   24.0170   35.4080 C   0  0  0  0  0  0  0  0  0  0  0  0
   34.5616   23.0827   31.0514 H   0  0  0  0  0  0  0  0  0  0  0  0
   37.8734   25.1194   32.5405 H   0  0  0  0  0  0  0  0  0  0  0  0
   35.9248   25.9301   30.0244 H   0  0  0  0  0  0  0  0  0  0  0  0
   34.4162   25.7584   31.0516 H   0  0  0  0  0  0  0  0  0  0  0  0
   35.0470   27.2395   32.4925 H   0  0  0  0  0  0  0  0  0  0  0  0
   36.8145   26.7070   32.3644 H   0  0  0  0  0  0  0  0  0  0  0  0
   35.3861   29.8386   32.1774 H   0  0  0  0  0  0  0  0  0  0  0  0
   36.1990   31.5477   30.6130 H   0  0  0  0  0  0  0  0  0  0  0  0
   37.9897   28.5769   28.2446 H   0  0  0  0  0  0  0  0  0  0  0  0
   40.7700   23.1258   33.1769 H   0  0  0  0  0  0  0  0  0  0  0  0
   39.5908   24.3475   33.8233 H   0  0  0  0  0  0  0  0  0  0  0  0
   40.6189   22.0496   35.2915 H   0  0  0  0  0  0  0  0  0  0  0  0
   38.7598   25.2343   35.2813 H   0  0  0  0  0  0  0  0  0  0  0  0
   37.2586   24.5793   39.1819 H   0  0  0  0  0  0  0  0  0  0  0  0
   40.4551   21.2581   38.6674 H   0  0  0  0  0  0  0  0  0  0  0  0
   41.1780   21.4522   37.0480 H   0  0  0  0  0  0  0  0  0  0  0  0
   42.0546   24.1552   36.4784 H   0  0  0  0  0  0  0  0  0  0  0  0
   42.6836   23.4928   34.9317 H   0  0  0  0  0  0  0  0  0  0  0  0
   41.7048   24.9990   34.9317 H   0  0  0  0  0  0  0  0  0  0  0  0
  1 15  1  0
  2  6  1  0
  2  3  1  0
  3  4  2  0
  4  1  1  0
  5  4  1  0
  6  5  2  0
  7  6  1  0
  7  8  1  0
  9 10  2  0
  9  8  1  0
 11 10  1  0
 12 11  2  0
 13 12  1  0
 13 14  2  0
 14  9  1  0
 15 16  1  0
 16 24  1  0
 16 18  1  0
 17 18  2  0
 17 22  1  0
 18 19  1  0
 19 23  1  0
 19 20  2  0
 21 20  1  0
 22 21  2  0
  2 25  1  0
  5 26  1  0
  7 27  1  0
  7 28  1  0
  8 29  1  0
  8 30  1  0
 10 31  1  0
 11 32  1  0
 13 33  1  0
 15 34  1  0
 15 35  1  0
 16 36  1  1
 17 37  1  0
 21 38  1  0
 23 39  1  0
 23 40  1  0
 24 41  1  0
 24 42  1  0
 24 43  1  0
M  ISO  8  25   9  26  14  27   8  28   8  29   8  30   8  31  14  32  14
M  ISO  8  33  14  34   8  35   8  36   8  37  14  38  14  41   8  42   8
M  ISO  1  43   8
M  END
>  <minimizedAffinity>  (1) 
-5.32170534

>  <minimizedRMSD>  (1) 
1.80888867

$$$$
