
     RDKit          3D

 48 50  0  0  1  0  0  0  0  0999 V2000
   39.9720   23.0610   33.8400 C   0  0  0  0  0  0  0  0  0  0  0  0
   40.4870   22.9400   35.1810 C   0  0  2  0  0  0  0  0  0  0  0  0
   38.7650   24.5030   36.0750 C   0  0  0  0  0  0  0  0  0  0  0  0
   39.6770   23.4070   36.2540 C   0  0  0  0  0  0  0  0  0  0  0  0
   39.6540   22.8150   37.4750 C   0  0  0  0  0  0  0  0  0  0  0  0
   38.8100   23.2400   38.4710 N   0  0  0  0  0  0  0  0  0  0  0  0
   37.9600   24.2910   38.2430 C   0  0  0  0  0  0  0  0  0  0  0  0
   37.9330   24.9340   37.0340 N   0  0  0  0  0  0  0  0  0  0  0  0
   40.5390   21.7270   37.7980 N   0  0  0  0  0  0  0  0  0  0  0  0
   41.8600   23.7820   35.3100 C   0  0  0  0  0  0  0  0  0  0  0  0
   38.7710   21.8030   33.4590 S   0  0  0  0  0  0  0  0  0  0  0  0
   35.6070   22.5020   31.2530 N   0  0  0  0  0  0  0  0  0  0  0  0
   36.5110   21.7130   31.8260 N   0  0  0  0  0  0  0  0  0  0  0  0
   37.3900   22.4460   32.5320 C   0  0  0  0  0  0  0  0  0  0  0  0
   36.9690   23.7510   32.3590 C   0  0  0  0  0  0  0  0  0  0  0  0
   35.8530   23.7980   31.5600 C   0  0  0  0  0  0  0  0  0  0  0  0
   35.1330   24.9980   31.1510 C   0  0  0  0  0  0  0  0  0  0  0  0
   35.9920   26.1870   30.9420 C   0  0  0  0  0  0  0  0  0  0  0  0
   36.1970   27.0540   32.0450 N   0  0  0  0  0  0  0  0  0  0  0  0
   35.3740   28.2160   32.1050 C   0  0  0  0  0  0  0  0  0  0  0  0
   35.8930   29.3360   31.2390 C   0  0  0  0  0  0  0  0  0  0  0  0
   36.7520   28.8920   30.2380 O   0  0  0  0  0  0  0  0  0  0  0  0
   37.8860   28.3970   30.8450 C   0  0  0  0  0  0  0  0  0  0  0  0
   37.5790   27.5180   32.0160 C   0  0  0  0  0  0  0  0  0  0  0  0
   39.4972   24.0473   33.7314 H   0  0  0  0  0  0  0  0  0  0  0  0
   40.8156   22.9414   33.1443 H   0  0  0  0  0  0  0  0  0  0  0  0
   40.5766   21.8495   35.2937 H   0  0  0  0  0  0  0  0  0  0  0  0
   38.7486   25.0146   35.1013 H   0  0  0  0  0  0  0  0  0  0  0  0
   37.2867   24.6243   39.0464 H   0  0  0  0  0  0  0  0  0  0  0  0
   40.5029   21.2936   38.7317 H   0  0  0  0  0  0  0  0  0  0  0  0
   41.2084   21.3817   37.0955 H   0  0  0  0  0  0  0  0  0  0  0  0
   42.1010   23.9298   36.3731 H   0  0  0  0  0  0  0  0  0  0  0  0
   42.6764   23.2291   34.8224 H   0  0  0  0  0  0  0  0  0  0  0  0
   41.7373   24.7604   34.8224 H   0  0  0  0  0  0  0  0  0  0  0  0
   34.8308   22.1745   30.6605 H   0  0  0  0  0  0  0  0  0  0  0  0
   37.4601   24.6307   32.8004 H   0  0  0  0  0  0  0  0  0  0  0  0
   34.6109   24.7809   30.2075 H   0  0  0  0  0  0  0  0  0  0  0  0
   34.4469   25.2477   31.9738 H   0  0  0  0  0  0  0  0  0  0  0  0
   36.9799   25.8261   30.6198 H   0  0  0  0  0  0  0  0  0  0  0  0
   35.4479   26.7972   30.2061 H   0  0  0  0  0  0  0  0  0  0  0  0
   34.3616   27.9492   31.7675 H   0  0  0  0  0  0  0  0  0  0  0  0
   35.3725   28.5714   33.1460 H   0  0  0  0  0  0  0  0  0  0  0  0
   35.0369   29.8416   30.7683 H   0  0  0  0  0  0  0  0  0  0  0  0
   36.4644   30.0170   31.8868 H   0  0  0  0  0  0  0  0  0  0  0  0
   38.4538   27.8127   30.1060 H   0  0  0  0  0  0  0  0  0  0  0  0
   38.4644   29.2554   31.2174 H   0  0  0  0  0  0  0  0  0  0  0  0
   38.2408   26.6402   31.9761 H   0  0  0  0  0  0  0  0  0  0  0  0
   37.7391   28.1184   32.9236 H   0  0  0  0  0  0  0  0  0  0  0  0
  1  2  1  0
  2 10  1  0
  2  4  1  0
  3  4  2  0
  3  8  1  0
  4  5  1  0
  5  9  1  0
  5  6  2  0
  7  6  1  0
  8  7  2  0
 11  1  1  0
 12 16  1  0
 12 13  1  0
 13 14  2  0
 14 11  1  0
 15 14  1  0
 16 15  2  0
 17 16  1  0
 18 17  1  0
 18 19  1  0
 19 20  1  0
 21 20  1  0
 22 23  1  0
 22 21  1  0
 23 24  1  0
 24 19  1  0
  1 25  1  0
  1 26  1  0
  2 27  1  1
  3 28  1  0
  7 29  1  0
  9 30  1  0
  9 31  1  0
 10 32  1  0
 10 33  1  0
 10 34  1  0
 12 35  1  0
 15 36  1  0
 17 37  1  0
 17 38  1  0
 18 39  1  0
 18 40  1  0
 20 41  1  0
 20 42  1  0
 21 43  1  0
 21 44  1  0
 23 45  1  0
 23 46  1  0
 24 47  1  0
 24 48  1  0
M  ISO  8  25   8  26   8  27   8  28  14  29  14  32   8  33   8  34   8
M  ISO  8  35   9  36  14  37   8  38   8  39   8  40   8  41  13  42  13
M  ISO  6  43  13  44  13  45  13  46  13  47  13  48  13
M  END
>  <minimizedAffinity>  (1) 
-5.36343575

>  <minimizedRMSD>  (1) 
0.646050394

$$$$
