
     RDKit          3D

 42 44  0  0  1  0  0  0  0  0999 V2000
   39.8150   23.1590   33.8870 C   0  0  0  0  0  0  0  0  0  0  0  0
   40.3880   23.0210   35.2020 C   0  0  2  0  0  0  0  0  0  0  0  0
   38.6900   24.5590   36.1940 C   0  0  0  0  0  0  0  0  0  0  0  0
   39.6130   23.4620   36.3120 C   0  0  0  0  0  0  0  0  0  0  0  0
   39.6330   22.8360   37.5250 C   0  0  0  0  0  0  0  0  0  0  0  0
   38.8150   23.2370   38.5590 N   0  0  0  0  0  0  0  0  0  0  0  0
   37.9540   24.2890   38.3860 C   0  0  0  0  0  0  0  0  0  0  0  0
   37.8890   24.9570   37.1960 N   0  0  0  0  0  0  0  0  0  0  0  0
   40.5300   21.7460   37.7880 N   0  0  0  0  0  0  0  0  0  0  0  0
   41.7520   23.8800   35.3010 C   0  0  0  0  0  0  0  0  0  0  0  0
   38.6010   21.9070   33.5390 S   0  0  0  0  0  0  0  0  0  0  0  0
   35.5550   22.5630   31.1550 N   0  0  0  0  0  0  0  0  0  0  0  0
   36.4160   21.7780   31.8110 N   0  0  0  0  0  0  0  0  0  0  0  0
   37.2750   22.5410   32.5160 C   0  0  0  0  0  0  0  0  0  0  0  0
   36.8900   23.8340   32.2540 C   0  0  0  0  0  0  0  0  0  0  0  0
   35.8070   23.8560   31.3970 C   0  0  0  0  0  0  0  0  0  0  0  0
   35.1370   25.0680   30.9060 C   0  0  0  0  0  0  0  0  0  0  0  0
   35.6070   26.3290   31.5210 C   0  0  0  0  0  0  0  0  0  0  0  0
   36.4170   27.2290   30.6500 C   0  0  0  0  0  0  0  0  0  0  0  0
   36.3990   28.7020   30.8150 C   0  0  0  0  0  0  0  0  0  0  0  0
   37.5280   28.0010   31.4350 C   0  0  0  0  0  0  0  0  0  0  0  0
   39.3351   24.1460   33.8130 H   0  0  0  0  0  0  0  0  0  0  0  0
   40.6283   23.0490   33.1546 H   0  0  0  0  0  0  0  0  0  0  0  0
   40.5013   21.9300   35.2854 H   0  0  0  0  0  0  0  0  0  0  0  0
   38.6376   25.0981   35.2366 H   0  0  0  0  0  0  0  0  0  0  0  0
   37.3053   24.6004   39.2180 H   0  0  0  0  0  0  0  0  0  0  0  0
   40.5278   21.2884   38.7108 H   0  0  0  0  0  0  0  0  0  0  0  0
   41.1756   21.4217   37.0539 H   0  0  0  0  0  0  0  0  0  0  0  0
   42.0079   24.0411   36.3586 H   0  0  0  0  0  0  0  0  0  0  0  0
   42.5672   23.3320   34.8059 H   0  0  0  0  0  0  0  0  0  0  0  0
   41.6100   24.8520   34.8059 H   0  0  0  0  0  0  0  0  0  0  0  0
   34.7993   22.2194   30.5453 H   0  0  0  0  0  0  0  0  0  0  0  0
   37.3773   24.7283   32.6696 H   0  0  0  0  0  0  0  0  0  0  0  0
   35.3020   25.1344   29.8205 H   0  0  0  0  0  0  0  0  0  0  0  0
   34.0760   24.9673   31.1783 H   0  0  0  0  0  0  0  0  0  0  0  0
   34.7210   26.8911   31.8512 H   0  0  0  0  0  0  0  0  0  0  0  0
   36.2817   26.0241   32.3345 H   0  0  0  0  0  0  0  0  0  0  0  0
   36.3030   26.5792   29.7698 H   0  0  0  0  0  0  0  0  0  0  0  0
   36.5788   29.3440   29.9401 H   0  0  0  0  0  0  0  0  0  0  0  0
   35.6478   29.4076   31.1995 H   0  0  0  0  0  0  0  0  0  0  0  0
   37.5939   27.9159   32.5297 H   0  0  0  0  0  0  0  0  0  0  0  0
   38.6243   28.0727   31.3806 H   0  0  0  0  0  0  0  0  0  0  0  0
  1  2  1  0
  2 10  1  0
  2  4  1  0
  3  4  2  0
  3  8  1  0
  4  5  1  0
  5  9  1  0
  5  6  2  0
  7  6  1  0
  8  7  2  0
 11  1  1  0
 12 16  1  0
 12 13  1  0
 13 14  2  0
 14 11  1  0
 15 14  1  0
 16 15  2  0
 17 16  1  0
 17 18  1  0
 19 20  1  0
 19 21  1  0
 19 18  1  0
 20 21  1  0
  1 22  1  0
  1 23  1  0
  2 24  1  1
  3 25  1  0
  7 26  1  0
  9 27  1  0
  9 28  1  0
 10 29  1  0
 10 30  1  0
 10 31  1  0
 12 32  1  0
 15 33  1  0
 17 34  1  0
 17 35  1  0
 18 36  1  0
 18 37  1  0
 19 38  1  0
 20 39  1  0
 20 40  1  0
 21 41  1  0
 21 42  1  0
M  ISO  8  22   8  23   8  24   8  25  14  26  14  29   8  30   8  31   8
M  ISO  8  32   9  33  14  34   8  35   8  36   8  37   8  38  13  39  13
M  ISO  3  40  13  41  13  42  13
M  END
>  <minimizedAffinity>  (1) 
-4.98609781

>  <minimizedRMSD>  (1) 
0.479104072

$$$$
