
     RDKit          3D

 40 42  0  0  1  0  0  0  0  0999 V2000
   39.9980   23.0380   33.9050 C   0  0  0  0  0  0  0  0  0  0  0  0
   40.5380   22.9880   35.2410 C   0  0  2  0  0  0  0  0  0  0  0  0
   38.7930   24.5270   36.1340 C   0  0  0  0  0  0  0  0  0  0  0  0
   39.7120   23.4350   36.3100 C   0  0  0  0  0  0  0  0  0  0  0  0
   39.6800   22.8190   37.5270 C   0  0  0  0  0  0  0  0  0  0  0  0
   38.8070   23.2350   38.5160 N   0  0  0  0  0  0  0  0  0  0  0  0
   37.9570   24.2760   38.2940 C   0  0  0  0  0  0  0  0  0  0  0  0
   37.9450   24.9330   37.0920 N   0  0  0  0  0  0  0  0  0  0  0  0
   40.5640   21.7380   37.8430 N   0  0  0  0  0  0  0  0  0  0  0  0
   41.8580   23.9170   35.3360 C   0  0  0  0  0  0  0  0  0  0  0  0
   38.7100   21.8420   33.6440 S   0  0  0  0  0  0  0  0  0  0  0  0
   35.5010   22.6050   31.5400 N   0  0  0  0  0  0  0  0  0  0  0  0
   36.3270   21.7960   32.2040 N   0  0  0  0  0  0  0  0  0  0  0  0
   37.3590   22.5160   32.6930 C   0  0  0  0  0  0  0  0  0  0  0  0
   37.1070   23.7960   32.2860 C   0  0  0  0  0  0  0  0  0  0  0  0
   35.9410   23.8690   31.5580 C   0  0  0  0  0  0  0  0  0  0  0  0
   35.3690   25.0880   30.9690 C   0  0  0  0  0  0  0  0  0  0  0  0
   35.7700   26.3460   31.6390 C   0  0  0  0  0  0  0  0  0  0  0  0
   36.5660   27.2800   30.8170 C   0  0  0  0  0  0  0  0  0  0  0  0
   37.8550   26.8920   30.5800 N   0  0  0  0  0  0  0  0  0  0  0  0
   38.4740   27.7500   29.8590 O   0  0  0  0  0  0  0  0  0  0  0  0
   37.6600   28.7390   29.5770 C   0  0  0  0  0  0  0  0  0  0  0  0
   36.4980   28.4480   30.1630 N   0  0  0  0  0  0  0  0  0  0  0  0
   39.5868   24.0429   33.7285 H   0  0  0  0  0  0  0  0  0  0  0  0
   40.8152   22.8058   33.2062 H   0  0  0  0  0  0  0  0  0  0  0  0
   40.7001   21.9086   35.3773 H   0  0  0  0  0  0  0  0  0  0  0  0
   38.7846   25.0545   35.1687 H   0  0  0  0  0  0  0  0  0  0  0  0
   37.2698   24.5939   39.0920 H   0  0  0  0  0  0  0  0  0  0  0  0
   40.5192   21.2901   38.7694 H   0  0  0  0  0  0  0  0  0  0  0  0
   41.2447   21.4082   37.1439 H   0  0  0  0  0  0  0  0  0  0  0  0
   42.1075   24.0926   36.3928 H   0  0  0  0  0  0  0  0  0  0  0  0
   42.6992   23.4107   34.8399 H   0  0  0  0  0  0  0  0  0  0  0  0
   41.6653   24.8797   34.8399 H   0  0  0  0  0  0  0  0  0  0  0  0
   34.6359   22.2970   31.0734 H   0  0  0  0  0  0  0  0  0  0  0  0
   37.7530   24.6574   32.5112 H   0  0  0  0  0  0  0  0  0  0  0  0
   35.6882   25.1429   29.9178 H   0  0  0  0  0  0  0  0  0  0  0  0
   34.2783   25.0075   31.0866 H   0  0  0  0  0  0  0  0  0  0  0  0
   34.8547   26.8682   31.9546 H   0  0  0  0  0  0  0  0  0  0  0  0
   36.4218   26.0484   32.4736 H   0  0  0  0  0  0  0  0  0  0  0  0
   37.8901   29.6313   28.9764 H   0  0  0  0  0  0  0  0  0  0  0  0
  1  2  1  0
  2 10  1  0
  2  4  1  0
  3  4  2  0
  3  8  1  0
  4  5  1  0
  5  9  1  0
  5  6  2  0
  7  6  1  0
  8  7  2  0
 11  1  1  0
 12 16  1  0
 12 13  1  0
 13 14  2  0
 14 11  1  0
 15 14  1  0
 16 15  2  0
 17 16  1  0
 17 18  1  0
 19 18  1  0
 20 19  2  0
 21 20  1  0
 22 21  1  0
 22 23  2  0
 23 19  1  0
  1 24  1  0
  1 25  1  0
  2 26  1  1
  3 27  1  0
  7 28  1  0
  9 29  1  0
  9 30  1  0
 10 31  1  0
 10 32  1  0
 10 33  1  0
 12 34  1  0
 15 35  1  0
 17 36  1  0
 17 37  1  0
 18 38  1  0
 18 39  1  0
 22 40  1  0
M  ISO  8  24   8  25   8  26   8  27  14  28  14  31   8  32   8  33   8
M  ISO  7  34   9  35  14  36   8  37   8  38   8  39   8  40  14
M  END
>  <minimizedAffinity>  (1) 
-5.12241459

>  <minimizedRMSD>  (1) 
0.867677987

$$$$
