
     RDKit          3D

 48 50  0  0  1  0  0  0  0  0999 V2000
   40.4110   22.9490   33.8950 C   0  0  0  0  0  0  0  0  0  0  0  0
   40.8330   22.9710   35.2740 C   0  0  2  0  0  0  0  0  0  0  0  0
   39.0000   24.5080   35.9770 C   0  0  0  0  0  0  0  0  0  0  0  0
   39.8960   23.4160   36.2480 C   0  0  0  0  0  0  0  0  0  0  0  0
   39.7290   22.8060   37.4520 C   0  0  0  0  0  0  0  0  0  0  0  0
   38.7680   23.2050   38.3490 N   0  0  0  0  0  0  0  0  0  0  0  0
   37.9410   24.2530   38.0330 C   0  0  0  0  0  0  0  0  0  0  0  0
   38.0530   24.9140   36.8380 N   0  0  0  0  0  0  0  0  0  0  0  0
   40.5850   21.7260   37.8660 N   0  0  0  0  0  0  0  0  0  0  0  0
   42.0970   23.9570   35.4460 C   0  0  0  0  0  0  0  0  0  0  0  0
   39.1440   21.7430   33.5860 S   0  0  0  0  0  0  0  0  0  0  0  0
   35.7600   22.6170   31.8060 N   0  0  0  0  0  0  0  0  0  0  0  0
   36.6380   21.7800   32.3600 N   0  0  0  0  0  0  0  0  0  0  0  0
   37.7210   22.4630   32.7820 C   0  0  0  0  0  0  0  0  0  0  0  0
   37.4500   23.7710   32.4500 C   0  0  0  0  0  0  0  0  0  0  0  0
   36.2220   23.8850   31.8350 C   0  0  0  0  0  0  0  0  0  0  0  0
   35.6130   25.1160   31.3540 C   0  0  0  0  0  0  0  0  0  0  0  0
   36.2470   26.3520   31.8670 C   0  0  0  0  0  0  0  0  0  0  0  0
   35.6620   27.5800   31.2370 C   0  0  0  0  0  0  0  0  0  0  0  0
   36.6570   28.0650   30.2020 C   0  0  0  0  0  0  0  0  0  0  0  0
   37.5070   29.0130   31.0220 C   0  0  0  0  0  0  0  0  0  0  0  0
   36.4270   29.8080   31.7480 C   0  0  0  0  0  0  0  0  0  0  0  0
   35.5320   28.6770   32.2550 C   0  0  0  0  0  0  0  0  0  0  0  0
   40.0227   23.9434   33.6297 H   0  0  0  0  0  0  0  0  0  0  0  0
   41.2846   22.6776   33.2841 H   0  0  0  0  0  0  0  0  0  0  0  0
   41.0288   21.9060   35.4672 H   0  0  0  0  0  0  0  0  0  0  0  0
   39.0952   25.0366   35.0171 H   0  0  0  0  0  0  0  0  0  0  0  0
   37.1724   24.5691   38.7536 H   0  0  0  0  0  0  0  0  0  0  0  0
   40.4417   21.2774   38.7820 H   0  0  0  0  0  0  0  0  0  0  0  0
   41.3411   21.4015   37.2463 H   0  0  0  0  0  0  0  0  0  0  0  0
   42.2972   24.1132   36.5163 H   0  0  0  0  0  0  0  0  0  0  0  0
   42.9805   23.5071   34.9695 H   0  0  0  0  0  0  0  0  0  0  0  0
   41.8757   24.9234   34.9695 H   0  0  0  0  0  0  0  0  0  0  0  0
   34.8523   22.3342   31.4097 H   0  0  0  0  0  0  0  0  0  0  0  0
   38.1258   24.6156   32.6496 H   0  0  0  0  0  0  0  0  0  0  0  0
   35.6779   25.1260   30.2560 H   0  0  0  0  0  0  0  0  0  0  0  0
   34.5763   25.1185   31.7217 H   0  0  0  0  0  0  0  0  0  0  0  0
   36.0967   26.4040   32.9554 H   0  0  0  0  0  0  0  0  0  0  0  0
   37.3177   26.3163   31.6172 H   0  0  0  0  0  0  0  0  0  0  0  0
   34.6760   27.3427   30.8109 H   0  0  0  0  0  0  0  0  0  0  0  0
   36.1542   28.5886   29.3756 H   0  0  0  0  0  0  0  0  0  0  0  0
   37.2260   27.2596   29.7147 H   0  0  0  0  0  0  0  0  0  0  0  0
   38.1535   28.4703   31.7273 H   0  0  0  0  0  0  0  0  0  0  0  0
   38.2051   29.6254   30.4324 H   0  0  0  0  0  0  0  0  0  0  0  0
   36.8459   30.3959   32.5780 H   0  0  0  0  0  0  0  0  0  0  0  0
   35.9113   30.5521   31.1233 H   0  0  0  0  0  0  0  0  0  0  0  0
   34.4875   29.0148   32.3258 H   0  0  0  0  0  0  0  0  0  0  0  0
   35.8271   28.3403   33.2598 H   0  0  0  0  0  0  0  0  0  0  0  0
  1  2  1  0
  2 10  1  0
  2  4  1  0
  3  4  2  0
  3  8  1  0
  4  5  1  0
  5  9  1  0
  5  6  2  0
  7  6  1  0
  8  7  2  0
 11  1  1  0
 12 16  1  0
 12 13  1  0
 13 14  2  0
 14 11  1  0
 15 14  1  0
 16 15  2  0
 17 16  1  0
 17 18  1  0
 19 18  1  0
 19 23  1  0
 20 21  1  0
 20 19  1  0
 21 22  1  0
 22 23  1  0
  1 24  1  0
  1 25  1  0
  2 26  1  1
  3 27  1  0
  7 28  1  0
  9 29  1  0
  9 30  1  0
 10 31  1  0
 10 32  1  0
 10 33  1  0
 12 34  1  0
 15 35  1  0
 17 36  1  0
 17 37  1  0
 18 38  1  0
 18 39  1  0
 19 40  1  0
 20 41  1  0
 20 42  1  0
 21 43  1  0
 21 44  1  0
 22 45  1  0
 22 46  1  0
 23 47  1  0
 23 48  1  0
M  ISO  8  24   8  25   8  26   8  27  14  28  14  31   8  32   8  33   8
M  ISO  8  34   9  35  14  36   8  37   8  38   8  39   8  40  13  41  13
M  ISO  7  42  13  43  13  44  13  45  13  46  13  47  13  48  13
M  END
>  <minimizedAffinity>  (1) 
-4.95755768

>  <minimizedRMSD>  (1) 
0.709564924

$$$$
