
     RDKit          3D

 26 28  0  0  0  0  0  0  0  0999 V2000
   37.8590   24.7220   33.6350 C   0  0  0  0  0  0  0  0  0  0  0  0
   37.9230   24.1350   32.4100 N   0  0  0  0  0  0  0  0  0  0  0  0
   37.5270   24.7190   31.2790 C   0  0  0  0  0  0  0  0  0  0  0  0
   37.0220   25.9630   31.2480 N   0  0  0  0  0  0  0  0  0  0  0  0
   36.9210   26.6190   32.4080 C   0  0  0  0  0  0  0  0  0  0  0  0
   36.4010   27.8950   32.3670 C   0  0  0  0  0  0  0  0  0  0  0  0
   36.2690   28.6260   33.5170 C   0  0  0  0  0  0  0  0  0  0  0  0
   36.6790   28.0240   34.7010 C   0  0  0  0  0  0  0  0  0  0  0  0
   37.1930   26.7460   34.6900 C   0  0  0  0  0  0  0  0  0  0  0  0
   37.3360   25.9970   33.5670 C   0  0  0  0  0  0  0  0  0  0  0  0
   40.2560   23.4090   35.9530 C   0  0  0  0  0  0  0  0  0  0  0  0
   39.5370   22.9140   37.0330 C   0  0  0  0  0  0  0  0  0  0  0  0
   38.1530   23.0260   36.9840 C   0  0  0  0  0  0  0  0  0  0  0  0
   37.6130   23.6030   35.9010 N   0  0  0  0  0  0  0  0  0  0  0  0
   38.2970   24.0730   34.8740 C   0  0  0  0  0  0  0  0  0  0  0  0
   39.6310   23.9640   34.9210 N   0  0  0  0  0  0  0  0  0  0  0  0
   40.2420   22.3300   38.1070 N   0  0  0  0  0  0  0  0  0  0  0  0
   37.6173   24.1608   30.3354 H   0  0  0  0  0  0  0  0  0  0  0  0
   36.0904   28.3283   31.4048 H   0  0  0  0  0  0  0  0  0  0  0  0
   35.8564   29.6456   33.5046 H   0  0  0  0  0  0  0  0  0  0  0  0
   36.5926   28.5709   35.6515 H   0  0  0  0  0  0  0  0  0  0  0  0
   37.5062   26.3062   35.6484 H   0  0  0  0  0  0  0  0  0  0  0  0
   41.3539   23.3407   35.9523 H   0  0  0  0  0  0  0  0  0  0  0  0
   37.5224   22.6543   37.8051 H   0  0  0  0  0  0  0  0  0  0  0  0
   39.7283   21.9566   38.9179 H   0  0  0  0  0  0  0  0  0  0  0  0
   41.2703   22.2771   38.0800 H   0  0  0  0  0  0  0  0  0  0  0  0
  1 15  1  0
  2  1  2  0
  3  2  1  0
  4  3  2  0
  4  5  1  0
  5 10  2  0
  6  5  1  0
  6  7  2  0
  7  8  1  0
  9  8  2  0
 10  1  1  0
 10  9  1  0
 11 12  2  0
 12 17  1  0
 13 12  1  0
 14 13  2  0
 15 16  2  0
 15 14  1  0
 16 11  1  0
  3 18  1  0
  6 19  1  0
  7 20  1  0
  8 21  1  0
  9 22  1  0
 11 23  1  0
 13 24  1  0
 17 25  1  0
 17 26  1  0
M  ISO  7  18  14  19  14  20  14  21  14  22  14  23  14  24  14
M  END
>  <minimizedAffinity>  (1) 
-4.95769453

>  <minimizedRMSD>  (1) 
5.72711754

$$$$
