
     RDKit          3D

 28 30  0  0  0  0  0  0  0  0999 V2000
   39.8460   22.0890   36.0230 C   0  0  0  0  0  0  0  0  0  0  0  0
   39.4430   22.7480   37.1780 C   0  0  0  0  0  0  0  0  0  0  0  0
   38.3260   23.5680   37.0710 C   0  0  0  0  0  0  0  0  0  0  0  0
   37.7260   23.6650   35.8760 N   0  0  0  0  0  0  0  0  0  0  0  0
   38.1060   23.0400   34.7810 C   0  0  0  0  0  0  0  0  0  0  0  0
   39.1830   22.2500   34.8870 N   0  0  0  0  0  0  0  0  0  0  0  0
   37.5560   23.0510   33.4310 C   0  0  0  0  0  0  0  0  0  0  0  0
   37.8490   24.0440   32.4870 C   0  0  0  0  0  0  0  0  0  0  0  0
   37.3580   24.0900   31.2200 C   0  0  0  0  0  0  0  0  0  0  0  0
   36.5050   23.1130   30.7840 C   0  0  0  0  0  0  0  0  0  0  0  0
   36.1670   22.1010   31.6480 C   0  0  0  0  0  0  0  0  0  0  0  0
   35.3130   21.1480   31.1690 C   0  0  0  0  0  0  0  0  0  0  0  0
   34.9250   20.1050   31.9670 C   0  0  0  0  0  0  0  0  0  0  0  0
   35.4370   20.0780   33.2490 C   0  0  0  0  0  0  0  0  0  0  0  0
   36.2940   21.0620   33.6880 C   0  0  0  0  0  0  0  0  0  0  0  0
   36.6960   22.1070   32.9190 C   0  0  0  0  0  0  0  0  0  0  0  0
   40.1910   22.5340   38.3540 N   0  0  0  0  0  0  0  0  0  0  0  0
   40.7241   21.4271   36.0519 H   0  0  0  0  0  0  0  0  0  0  0  0
   37.9451   24.1216   37.9419 H   0  0  0  0  0  0  0  0  0  0  0  0
   38.5305   24.8505   32.7955 H   0  0  0  0  0  0  0  0  0  0  0  0
   37.6459   24.9109   30.5468 H   0  0  0  0  0  0  0  0  0  0  0  0
   36.0984   23.1379   29.7622 H   0  0  0  0  0  0  0  0  0  0  0  0
   34.9356   21.2189   30.1382 H   0  0  0  0  0  0  0  0  0  0  0  0
   34.2383   19.3260   31.6041 H   0  0  0  0  0  0  0  0  0  0  0  0
   35.1565   19.2596   33.9284 H   0  0  0  0  0  0  0  0  0  0  0  0
   36.6741   20.9984   34.7183 H   0  0  0  0  0  0  0  0  0  0  0  0
   39.9214   23.0060   39.2289 H   0  0  0  0  0  0  0  0  0  0  0  0
   41.0070   21.9057   38.3381 H   0  0  0  0  0  0  0  0  0  0  0  0
  1  2  2  0
  2 17  1  0
  3  2  1  0
  4  3  2  0
  5  6  2  0
  5  4  1  0
  6  1  1  0
  7  5  1  0
  8  7  2  0
  9  8  1  0
 10  9  2  0
 10 11  1  0
 11 16  2  0
 12 11  1  0
 12 13  2  0
 13 14  1  0
 14 15  2  0
 16  7  1  0
 16 15  1  0
  1 18  1  0
  3 19  1  0
  8 20  1  0
  9 21  1  0
 10 22  1  0
 12 23  1  0
 13 24  1  0
 14 25  1  0
 15 26  1  0
 17 27  1  0
 17 28  1  0
M  ISO  8  18  14  19  14  20  14  21  14  22  14  23  14  24  14  25  14
M  ISO  1  26  14
M  END
>  <minimizedAffinity>  (1) 
-5.05030298

>  <minimizedRMSD>  (1) 
2.37654757

$$$$
