
     RDKit          3D

 17 18  0  0  0  0  0  0  0  0999 V2000
   40.2220   23.3230   36.0720 C   0  0  0  0  0  0  0  0  0  0  0  0
   39.6500   22.8750   37.2630 C   0  0  0  0  0  0  0  0  0  0  0  0
   38.4290   23.4160   37.6650 C   0  0  0  0  0  0  0  0  0  0  0  0
   37.8810   24.3520   36.8580 N   0  0  0  0  0  0  0  0  0  0  0  0
   38.4350   24.7770   35.7180 C   0  0  0  0  0  0  0  0  0  0  0  0
   39.6210   24.2580   35.3170 N   0  0  0  0  0  0  0  0  0  0  0  0
   37.7600   25.7920   34.9200 C   0  0  0  0  0  0  0  0  0  0  0  0
   37.2450   25.8650   33.6680 N   0  0  0  0  0  0  0  0  0  0  0  0
   36.7470   27.0540   33.4800 O   0  0  0  0  0  0  0  0  0  0  0  0
   36.9040   27.7890   34.5550 C   0  0  0  0  0  0  0  0  0  0  0  0
   37.5370   27.0110   35.4600 N   0  0  0  0  0  0  0  0  0  0  0  0
   40.3940   21.8780   37.9690 N   0  0  0  0  0  0  0  0  0  0  0  0
   41.1842   22.9024   35.7445 H   0  0  0  0  0  0  0  0  0  0  0  0
   37.9353   23.0963   38.5945 H   0  0  0  0  0  0  0  0  0  0  0  0
   36.5837   28.8323   34.6924 H   0  0  0  0  0  0  0  0  0  0  0  0
   40.0342   21.4992   38.8567 H   0  0  0  0  0  0  0  0  0  0  0  0
   41.2896   21.5389   37.5897 H   0  0  0  0  0  0  0  0  0  0  0  0
  1  2  2  0
  2  3  1  0
  2 12  1  0
  4  3  2  0
  5  4  1  0
  6  5  2  0
  6  1  1  0
  7 11  1  0
  7  5  1  0
  8  7  2  0
  9  8  1  0
  9 10  1  0
 10 11  2  0
  1 13  1  0
  3 14  1  0
 10 15  1  0
 12 16  1  0
 12 17  1  0
M  ISO  3  13  14  14  14  15  14
M  END
>  <minimizedAffinity>  (1) 
-3.96432757

>  <minimizedRMSD>  (1) 
4.28019142

$$$$
