
     RDKit          3D

 19 20  0  0  0  0  0  0  0  0999 V2000
   39.5430   22.9810   37.2250 C   0  0  0  0  0  0  0  0  0  0  0  0
   38.5300   23.3720   38.1220 C   0  0  0  0  0  0  0  0  0  0  0  0
   37.8370   24.5550   37.8300 C   0  0  0  0  0  0  0  0  0  0  0  0
   38.1850   25.2280   36.7210 N   0  0  0  0  0  0  0  0  0  0  0  0
   39.1540   24.8370   35.8780 C   0  0  0  0  0  0  0  0  0  0  0  0
   39.8500   23.6950   36.1290 N   0  0  0  0  0  0  0  0  0  0  0  0
   38.3030   22.5370   39.2390 N   0  0  0  0  0  0  0  0  0  0  0  0
   39.5380   25.5750   34.6610 C   0  0  0  0  0  0  0  0  0  0  0  0
   40.6890   26.5060   34.7020 C   0  0  0  0  0  0  0  0  0  0  0  0
   39.2750   27.0430   34.6390 C   0  0  0  0  0  0  0  0  0  0  0  0
   40.1036   22.0569   37.4293 H   0  0  0  0  0  0  0  0  0  0  0  0
   37.0344   24.9202   38.4876 H   0  0  0  0  0  0  0  0  0  0  0  0
   37.5730   22.7801   39.9238 H   0  0  0  0  0  0  0  0  0  0  0  0
   38.8675   21.6852   39.3685 H   0  0  0  0  0  0  0  0  0  0  0  0
   39.2769   24.7217   34.0178 H   0  0  0  0  0  0  0  0  0  0  0  0
   41.2782   26.6130   35.6247 H   0  0  0  0  0  0  0  0  0  0  0  0
   41.6022   26.6432   34.1043 H   0  0  0  0  0  0  0  0  0  0  0  0
   38.9072   27.5249   33.7211 H   0  0  0  0  0  0  0  0  0  0  0  0
   38.6743   27.7404   35.2413 H   0  0  0  0  0  0  0  0  0  0  0  0
  1  2  2  0
  2  7  1  0
  3  2  1  0
  4  3  2  0
  5  6  2  0
  5  4  1  0
  6  1  1  0
  8  9  1  0
  8  5  1  0
 10  8  1  0
 10  9  1  0
  1 11  1  0
  3 12  1  0
  7 13  1  0
  7 14  1  0
  8 15  1  0
  9 16  1  0
  9 17  1  0
 10 18  1  0
 10 19  1  0
M  ISO  7  11  14  12  14  15  13  16  13  17  13  18  13  19  13
M  END
>  <minimizedAffinity>  (1) 
-3.59876919

>  <minimizedRMSD>  (1) 
3.46566129

$$$$
