
     RDKit          3D

 19 20  0  0  0  0  0  0  0  0999 V2000
   39.4390   23.0140   37.1190 C   0  0  0  0  0  0  0  0  0  0  0  0
   38.5120   23.4000   38.0930 C   0  0  0  0  0  0  0  0  0  0  0  0
   37.8290   24.5950   37.8690 C   0  0  0  0  0  0  0  0  0  0  0  0
   38.1040   25.2950   36.7330 N   0  0  0  0  0  0  0  0  0  0  0  0
   38.9990   24.8840   35.8300 C   0  0  0  0  0  0  0  0  0  0  0  0
   39.6780   23.7340   36.0170 N   0  0  0  0  0  0  0  0  0  0  0  0
   39.2850   25.6430   34.6170 C   0  0  0  0  0  0  0  0  0  0  0  0
   39.8690   26.8780   34.4190 C   0  0  0  0  0  0  0  0  0  0  0  0
   39.8730   27.0770   33.0530 C   0  0  0  0  0  0  0  0  0  0  0  0
   39.3160   26.0070   32.4570 N   0  0  0  0  0  0  0  0  0  0  0  0
   38.9550   25.1290   33.3960 N   0  0  0  0  0  0  0  0  0  0  0  0
   38.3550   22.5410   39.2210 N   0  0  0  0  0  0  0  0  0  0  0  0
   39.9961   22.0769   37.2657 H   0  0  0  0  0  0  0  0  0  0  0  0
   37.0863   24.9635   38.5919 H   0  0  0  0  0  0  0  0  0  0  0  0
   40.2521   27.5622   35.1904 H   0  0  0  0  0  0  0  0  0  0  0  0
   40.2669   27.9647   32.5365 H   0  0  0  0  0  0  0  0  0  0  0  0
   39.1888   25.8851   31.4422 H   0  0  0  0  0  0  0  0  0  0  0  0
   37.6841   22.7839   39.9639 H   0  0  0  0  0  0  0  0  0  0  0  0
   38.9125   21.6779   39.2926 H   0  0  0  0  0  0  0  0  0  0  0  0
  1  2  2  0
  2 12  1  0
  3  2  1  0
  4  3  2  0
  5  6  2  0
  5  4  1  0
  6  1  1  0
  7  5  1  0
  8  7  1  0
  9  8  2  0
 10  9  1  0
 10 11  1  0
 11  7  2  0
  1 13  1  0
  3 14  1  0
  8 15  1  0
  9 16  1  0
 10 17  1  0
 12 18  1  0
 12 19  1  0
M  ISO  5  13  14  14  14  15  14  16  14  17   9
M  END
>  <minimizedAffinity>  (1) 
-3.64704251

>  <minimizedRMSD>  (1) 
3.66942716

$$$$
