
     RDKit          3D

 38 40  0  0  0  0  0  0  0  0999 V2000
   39.2390   25.6380   34.5500 C   0  0  0  0  0  0  0  0  0  0  0  0
   39.4410   22.9610   37.1010 C   0  0  0  0  0  0  0  0  0  0  0  0
   38.5340   23.3650   38.0740 C   0  0  0  0  0  0  0  0  0  0  0  0
   37.8610   24.5570   37.8480 C   0  0  0  0  0  0  0  0  0  0  0  0
   38.1460   25.2260   36.6950 N   0  0  0  0  0  0  0  0  0  0  0  0
   39.0270   24.8040   35.7780 C   0  0  0  0  0  0  0  0  0  0  0  0
   39.6920   23.6350   35.9930 N   0  0  0  0  0  0  0  0  0  0  0  0
   38.3550   22.5530   39.2220 N   0  0  0  0  0  0  0  0  0  0  0  0
   39.6090   27.0500   34.9810 C   0  0  0  0  0  0  0  0  0  0  0  0
   40.3260   25.0120   33.7010 C   0  0  0  0  0  0  0  0  0  0  0  0
   37.9620   25.6210   33.7780 C   0  0  0  0  0  0  0  0  0  0  0  0
   37.2170   26.8950   33.7390 C   0  0  0  0  0  0  0  0  0  0  0  0
   36.5290   27.7500   34.5750 C   0  0  0  0  0  0  0  0  0  0  0  0
   36.0560   28.8210   33.9150 N   0  0  0  0  0  0  0  0  0  0  0  0
   36.4390   28.6650   32.6350 C   0  0  0  0  0  0  0  0  0  0  0  0
   36.1770   29.5350   31.5680 C   0  0  0  0  0  0  0  0  0  0  0  0
   36.6530   29.2110   30.3180 C   0  0  0  0  0  0  0  0  0  0  0  0
   37.3740   28.0570   30.0920 C   0  0  0  0  0  0  0  0  0  0  0  0
   37.5910   27.2550   31.1870 C   0  0  0  0  0  0  0  0  0  0  0  0
   37.1510   27.5050   32.4790 C   0  0  0  0  0  0  0  0  0  0  0  0
   39.9849   22.0190   37.2644 H   0  0  0  0  0  0  0  0  0  0  0  0
   37.1276   24.9462   38.5695 H   0  0  0  0  0  0  0  0  0  0  0  0
   37.6875   22.8357   39.9538 H   0  0  0  0  0  0  0  0  0  0  0  0
   38.8924   21.6803   39.3244 H   0  0  0  0  0  0  0  0  0  0  0  0
   39.6237   27.1061   36.0795 H   0  0  0  0  0  0  0  0  0  0  0  0
   40.6042   27.3046   34.5875 H   0  0  0  0  0  0  0  0  0  0  0  0
   38.8665   27.7599   34.5875 H   0  0  0  0  0  0  0  0  0  0  0  0
   41.0929   24.5704   34.3543 H   0  0  0  0  0  0  0  0  0  0  0  0
   39.8890   24.2272   33.0660 H   0  0  0  0  0  0  0  0  0  0  0  0
   40.7855   25.7838   33.0660 H   0  0  0  0  0  0  0  0  0  0  0  0
   38.1979   25.3363   32.7420 H   0  0  0  0  0  0  0  0  0  0  0  0
   37.3070   24.9081   34.3003 H   0  0  0  0  0  0  0  0  0  0  0  0
   36.3850   27.5762   35.6516 H   0  0  0  0  0  0  0  0  0  0  0  0
   35.5115   29.6016   34.3088 H   0  0  0  0  0  0  0  0  0  0  0  0
   35.6019   30.4592   31.7266 H   0  0  0  0  0  0  0  0  0  0  0  0
   36.4531   29.8906   29.4765 H   0  0  0  0  0  0  0  0  0  0  0  0
   37.7533   27.7938   29.0935 H   0  0  0  0  0  0  0  0  0  0  0  0
   38.1656   26.3312   31.0243 H   0  0  0  0  0  0  0  0  0  0  0  0
  1  9  1  0
  1  6  1  0
  2  3  2  0
  3  8  1  0
  4  3  1  0
  5  4  2  0
  6  7  2  0
  6  5  1  0
  7  2  1  0
 10  1  1  0
 11  1  1  0
 12 11  1  0
 12 13  2  0
 14 13  1  0
 15 14  1  0
 16 15  2  0
 17 16  1  0
 18 17  2  0
 18 19  1  0
 19 20  2  0
 20 15  1  0
 20 12  1  0
  2 21  1  0
  4 22  1  0
  8 23  1  0
  8 24  1  0
  9 25  1  0
  9 26  1  0
  9 27  1  0
 10 28  1  0
 10 29  1  0
 10 30  1  0
 11 31  1  0
 11 32  1  0
 13 33  1  0
 14 34  1  0
 16 35  1  0
 17 36  1  0
 18 37  1  0
 19 38  1  0
M  ISO  8  21  14  22  14  25   8  26   8  27   8  28   8  29   8  30   8
M  ISO  8  31   8  32   8  33  14  34   9  35  14  36  14  37  14  38  14
M  END
>  <minimizedAffinity>  (1) 
-5.50144577

>  <minimizedRMSD>  (1) 
1.81574023

$$$$
