
     RDKit          3D

 51 56  0  0  1  0  0  0  0  0999 V2000
   36.2560   26.3610   31.8490 C   0  0  0  0  0  0  0  0  0  0  0  0
   35.6540   25.3150   31.1730 C   0  0  0  0  0  0  0  0  0  0  0  0
   36.2550   24.1970   31.6930 N   0  0  0  0  0  0  0  0  0  0  0  0
   37.1460   24.6120   32.6150 C   0  0  0  0  0  0  0  0  0  0  0  0
   37.1720   25.9390   32.7350 N   0  0  0  0  0  0  0  0  0  0  0  0
   37.9680   26.7480   33.5950 C   0  0  1  0  0  0  0  0  0  0  0  0
   37.3610   26.9490   34.9260 C   0  0  0  0  0  0  0  0  0  0  0  0
   37.8100   25.7320   35.7130 C   0  0  0  0  0  0  0  0  0  0  0  0
   39.2300   25.5840   35.3000 C   0  0  0  0  0  0  0  0  0  0  0  0
   39.3070   26.1170   33.9040 C   0  0  2  0  0  0  0  0  0  0  0  0
   40.3630   27.2090   33.7830 C   0  0  0  0  0  0  0  0  0  0  0  0
   41.2860   26.9970   32.5820 C   0  0  0  0  0  0  0  0  0  0  0  0
   41.7940   26.9510   33.9870 C   0  0  0  0  0  0  0  0  0  0  0  0
   35.9450   27.7710   31.6410 C   0  0  0  0  0  0  0  0  0  0  0  0
   36.5500   28.4870   30.6160 C   0  0  0  0  0  0  0  0  0  0  0  0
   36.1890   29.8500   30.5090 C   0  0  0  0  0  0  0  0  0  0  0  0
   35.3130   30.3730   31.3690 N   0  0  0  0  0  0  0  0  0  0  0  0
   34.7470   29.6670   32.3430 C   0  0  0  0  0  0  0  0  0  0  0  0
   35.0640   28.3730   32.4740 N   0  0  0  0  0  0  0  0  0  0  0  0
   33.7680   30.0580   33.3840 C   0  0  0  0  0  0  0  0  0  0  0  0
   32.4370   29.8390   33.2940 N   0  0  0  0  0  0  0  0  0  0  0  0
   31.5600   30.1950   34.2350 C   0  0  0  0  0  0  0  0  0  0  0  0
   31.9270   30.8090   35.3710 N   0  0  0  0  0  0  0  0  0  0  0  0
   33.2350   31.0660   35.5460 C   0  0  0  0  0  0  0  0  0  0  0  0
   33.6120   31.6970   36.7100 C   0  0  0  0  0  0  0  0  0  0  0  0
   34.9300   31.9870   36.9480 C   0  0  0  0  0  0  0  0  0  0  0  0
   35.8510   31.6160   35.9640 C   0  0  0  0  0  0  0  0  0  0  0  0
   35.4180   30.9910   34.8240 C   0  0  0  0  0  0  0  0  0  0  0  0
   34.1130   30.6870   34.5570 C   0  0  0  0  0  0  0  0  0  0  0  0
   34.8746   25.3676   30.3986 H   0  0  0  0  0  0  0  0  0  0  0  0
   37.7804   23.9319   33.2024 H   0  0  0  0  0  0  0  0  0  0  0  0
   38.0620   27.6916   33.0375 H   0  0  0  0  0  0  0  0  0  0  0  0
   37.7312   27.8750   35.3903 H   0  0  0  0  0  0  0  0  0  0  0  0
   36.2664   27.0502   34.8847 H   0  0  0  0  0  0  0  0  0  0  0  0
   37.7277   25.9069   36.7959 H   0  0  0  0  0  0  0  0  0  0  0  0
   37.2021   24.8363   35.5177 H   0  0  0  0  0  0  0  0  0  0  0  0
   39.8853   26.1628   35.9676 H   0  0  0  0  0  0  0  0  0  0  0  0
   39.5591   24.5357   35.3515 H   0  0  0  0  0  0  0  0  0  0  0  0
   39.5646   25.2961   33.2186 H   0  0  0  0  0  0  0  0  0  0  0  0
   39.7017   27.9792   34.2066 H   0  0  0  0  0  0  0  0  0  0  0  0
   41.2183   26.0752   31.9856 H   0  0  0  0  0  0  0  0  0  0  0  0
   41.5365   27.5596   31.6705 H   0  0  0  0  0  0  0  0  0  0  0  0
   42.4448   27.7571   34.3568 H   0  0  0  0  0  0  0  0  0  0  0  0
   42.3625   26.2123   34.5711 H   0  0  0  0  0  0  0  0  0  0  0  0
   37.2691   28.0203   29.9267 H   0  0  0  0  0  0  0  0  0  0  0  0
   36.6288   30.4770   29.7195 H   0  0  0  0  0  0  0  0  0  0  0  0
   30.4941   29.9766   34.0733 H   0  0  0  0  0  0  0  0  0  0  0  0
   32.8497   31.9704   37.4544 H   0  0  0  0  0  0  0  0  0  0  0  0
   35.2493   32.4897   37.8729 H   0  0  0  0  0  0  0  0  0  0  0  0
   36.9217   31.8255   36.1046 H   0  0  0  0  0  0  0  0  0  0  0  0
   36.1725   30.7152   34.0726 H   0  0  0  0  0  0  0  0  0  0  0  0
  1  5  1  0
  2  3  1  0
  2  1  2  0
  3  4  2  0
  4  5  1  0
  5  6  1  0
  6 10  1  0
  6  7  1  0
  7  8  1  0
  9  8  1  0
 10  9  1  0
 11 10  1  0
 11 13  1  0
 12 11  1  0
 12 13  1  0
 14  1  1  0
 14 19  1  0
 15 14  2  0
 16 15  1  0
 16 17  2  0
 17 18  1  0
 18 19  2  0
 18 20  1  0
 20 29  1  0
 21 20  2  0
 21 22  1  0
 22 23  2  0
 23 24  1  0
 24 25  2  0
 25 26  1  0
 27 26  2  0
 28 27  1  0
 29 28  2  0
 29 24  1  0
  2 30  1  0
  4 31  1  0
  6 32  1  6
  7 33  1  0
  7 34  1  0
  8 35  1  0
  8 36  1  0
  9 37  1  0
  9 38  1  0
 10 39  1  6
 11 40  1  0
 12 41  1  0
 12 42  1  0
 13 43  1  0
 13 44  1  0
 15 45  1  0
 16 46  1  0
 22 47  1  0
 25 48  1  0
 26 49  1  0
 27 50  1  0
 28 51  1  0
M  ISO  8  30  14  31  14  32  13  33  13  34  13  35  13  36  13  37  13
M  ISO  8  38  13  39  13  40  13  41  13  42  13  43  13  44  13  45  14
M  ISO  6  46  14  47  14  48  14  49  14  50  14  51  14
M  END
>  <minimizedAffinity>  (1) 
-6.93005657

>  <minimizedRMSD>  (1) 
3.90674567

$$$$
