
     RDKit          3D

 31 31  0  0  0  0  0  0  0  0999 V2000
   38.4070   26.4680   35.3090 C   0  0  0  0  0  0  0  0  0  0  0  0
   36.6480   25.6420   32.1780 C   0  0  0  0  0  0  0  0  0  0  0  0
   36.8750   24.2640   32.0320 C   0  0  0  0  0  0  0  0  0  0  0  0
   37.6310   23.6520   33.0170 C   0  0  0  0  0  0  0  0  0  0  0  0
   38.0930   24.4160   34.0400 N   0  0  0  0  0  0  0  0  0  0  0  0
   37.8500   25.7400   34.1420 C   0  0  0  0  0  0  0  0  0  0  0  0
   37.1130   26.3680   33.1930 N   0  0  0  0  0  0  0  0  0  0  0  0
   36.3050   23.6380   30.9000 N   0  0  0  0  0  0  0  0  0  0  0  0
   37.7270   27.7940   35.4880 C   0  0  0  0  0  0  0  0  0  0  0  0
   38.2210   25.6190   36.5800 C   0  0  0  0  0  0  0  0  0  0  0  0
   39.8840   26.6170   35.1190 C   0  0  0  0  0  0  0  0  0  0  0  0
   40.2890   26.5670   33.7370 N   0  0  0  0  0  0  0  0  0  0  0  0
   41.4510   27.2370   33.2360 C   0  0  0  0  0  0  0  0  0  0  0  0
   42.4250   27.3850   34.0680 N   0  0  0  0  0  0  0  0  0  0  0  0
   41.4840   27.6970   31.8870 N   0  0  0  0  0  0  0  0  0  0  0  0
   43.3290   27.8440   33.8660 H   0  0  0  0  0  0  0  0  0  0  0  0
   36.0505   26.1522   31.4081 H   0  0  0  0  0  0  0  0  0  0  0  0
   37.8516   22.5753   32.9721 H   0  0  0  0  0  0  0  0  0  0  0  0
   36.4417   22.6288   30.7462 H   0  0  0  0  0  0  0  0  0  0  0  0
   35.7530   24.1911   30.2290 H   0  0  0  0  0  0  0  0  0  0  0  0
   37.6173   28.0079   36.5614 H   0  0  0  0  0  0  0  0  0  0  0  0
   38.3318   28.5828   35.0169 H   0  0  0  0  0  0  0  0  0  0  0  0
   36.7335   27.7631   35.0169 H   0  0  0  0  0  0  0  0  0  0  0  0
   38.3599   26.2531   37.4681 H   0  0  0  0  0  0  0  0  0  0  0  0
   37.2078   25.1909   36.5900 H   0  0  0  0  0  0  0  0  0  0  0  0
   38.9624   24.8065   36.5900 H   0  0  0  0  0  0  0  0  0  0  0  0
   40.1941   27.5853   35.5388 H   0  0  0  0  0  0  0  0  0  0  0  0
   40.3652   25.7702   35.6303 H   0  0  0  0  0  0  0  0  0  0  0  0
   39.7147   26.0228   33.0775 H   0  0  0  0  0  0  0  0  0  0  0  0
   42.3203   28.1789   31.5275 H   0  0  0  0  0  0  0  0  0  0  0  0
   40.6715   27.5475   31.2719 H   0  0  0  0  0  0  0  0  0  0  0  0
  1  9  1  0
  1 10  1  0
  2  7  2  0
  3  2  1  0
  3  4  2  0
  4  5  1  0
  5  6  2  0
  6  1  1  0
  7  6  1  0
  8  3  1  0
 11  1  1  0
 12 11  1  0
 13 12  1  0
 13 14  2  0
 15 13  1  0
 16 14  1  0
  2 17  1  0
  4 18  1  0
  8 19  1  0
  8 20  1  0
  9 21  1  0
  9 22  1  0
  9 23  1  0
 10 24  1  0
 10 25  1  0
 10 26  1  0
 11 27  1  0
 11 28  1  0
 12 29  1  0
 15 30  1  0
 15 31  1  0
M  ISO  8  17  14  18  14  21   8  22   8  23   8  24   8  25   8  26   8
M  ISO  2  27   8  28   8
M  END
>  <minimizedAffinity>  (1) 
-3.80298114

>  <minimizedRMSD>  (1) 
4.85436726

$$$$
