
     RDKit          3D

 49 52  0  0  0  0  0  0  0  0999 V2000
   37.1790   26.0960   33.8670 C   0  0  0  0  0  0  0  0  0  0  0  0
   36.7820   27.3780   33.3820 N   0  0  0  0  0  0  0  0  0  0  0  0
   36.3340   28.2390   34.3250 C   0  0  0  0  0  0  0  0  0  0  0  0
   35.9100   29.5190   34.0130 C   0  0  0  0  0  0  0  0  0  0  0  0
   35.9570   29.9030   32.6810 C   0  0  0  0  0  0  0  0  0  0  0  0
   35.5100   31.2160   32.3960 N   0  0  0  0  0  0  0  0  0  0  0  0
   36.4000   29.0460   31.7570 N   0  0  0  0  0  0  0  0  0  0  0  0
   36.7980   27.8170   32.1200 C   0  0  0  0  0  0  0  0  0  0  0  0
   37.2210   26.9920   31.2580 O   0  0  0  0  0  0  0  0  0  0  0  0
   35.4360   30.4100   35.0730 C   0  0  0  0  0  0  0  0  0  0  0  0
   36.2280   31.2730   35.7730 C   0  0  0  0  0  0  0  0  0  0  0  0
   35.4430   31.9210   36.6590 N   0  0  0  0  0  0  0  0  0  0  0  0
   34.1650   31.5100   36.5610 C   0  0  0  0  0  0  0  0  0  0  0  0
   32.9860   31.8300   37.2060 C   0  0  0  0  0  0  0  0  0  0  0  0
   31.8210   31.1830   36.8290 C   0  0  0  0  0  0  0  0  0  0  0  0
   31.8140   30.2190   35.8180 C   0  0  0  0  0  0  0  0  0  0  0  0
   33.0130   29.9140   35.1850 C   0  0  0  0  0  0  0  0  0  0  0  0
   34.1580   30.5640   35.5690 C   0  0  0  0  0  0  0  0  0  0  0  0
   38.6030   25.9280   34.2400 C   0  0  0  0  0  0  0  0  0  0  0  0
   39.5640   23.2560   36.6020 C   0  0  0  0  0  0  0  0  0  0  0  0
   38.7410   23.4800   37.6950 C   0  0  0  0  0  0  0  0  0  0  0  0
   37.8630   24.5500   37.6050 C   0  0  0  0  0  0  0  0  0  0  0  0
   37.8700   25.2990   36.4610 N   0  0  0  0  0  0  0  0  0  0  0  0
   38.6810   25.0570   35.4190 C   0  0  0  0  0  0  0  0  0  0  0  0
   39.5450   24.0090   35.5010 N   0  0  0  0  0  0  0  0  0  0  0  0
   38.8550   22.6110   38.8060 N   0  0  0  0  0  0  0  0  0  0  0  0
   39.2650   27.2520   34.5070 C   0  0  0  0  0  0  0  0  0  0  0  0
   39.3190   25.2410   33.0540 C   0  0  0  0  0  0  0  0  0  0  0  0
   36.9529   25.3598   33.0816 H   0  0  0  0  0  0  0  0  0  0  0  0
   36.6207   25.9607   34.8051 H   0  0  0  0  0  0  0  0  0  0  0  0
   36.3059   27.9106   35.3745 H   0  0  0  0  0  0  0  0  0  0  0  0
   35.5188   31.5640   31.4266 H   0  0  0  0  0  0  0  0  0  0  0  0
   35.1761   31.8231   33.1581 H   0  0  0  0  0  0  0  0  0  0  0  0
   37.3106   31.4148   35.6393 H   0  0  0  0  0  0  0  0  0  0  0  0
   35.7773   32.6350   37.3219 H   0  0  0  0  0  0  0  0  0  0  0  0
   32.9728   32.5857   38.0052 H   0  0  0  0  0  0  0  0  0  0  0  0
   30.8787   31.4342   37.3378 H   0  0  0  0  0  0  0  0  0  0  0  0
   30.8809   29.7130   35.5296 H   0  0  0  0  0  0  0  0  0  0  0  0
   33.0434   29.1597   34.3849 H   0  0  0  0  0  0  0  0  0  0  0  0
   40.2696   22.4132   36.6449 H   0  0  0  0  0  0  0  0  0  0  0  0
   37.1789   24.7898   38.4323 H   0  0  0  0  0  0  0  0  0  0  0  0
   38.2574   22.7514   39.6331 H   0  0  0  0  0  0  0  0  0  0  0  0
   39.5355   21.8381   38.7876 H   0  0  0  0  0  0  0  0  0  0  0  0
   39.3440   27.4101   35.5927 H   0  0  0  0  0  0  0  0  0  0  0  0
   40.2709   27.2554   34.0618 H   0  0  0  0  0  0  0  0  0  0  0  0
   38.6642   28.0587   34.0618 H   0  0  0  0  0  0  0  0  0  0  0  0
   40.0627   24.5274   33.4383 H   0  0  0  0  0  0  0  0  0  0  0  0
   38.5800   24.7054   32.4400 H   0  0  0  0  0  0  0  0  0  0  0  0
   39.8236   26.0015   32.4400 H   0  0  0  0  0  0  0  0  0  0  0  0
  1 19  1  0
  2  1  1  0
  2  3  1  0
  4  3  2  0
  4 10  1  0
  5  4  1  0
  6  5  1  0
  7  8  1  0
  7  5  2  0
  8  2  1  0
  9  8  2  0
 10 18  1  0
 10 11  2  0
 11 12  1  0
 13 12  1  0
 13 14  2  0
 15 14  1  0
 16 15  2  0
 17 18  2  0
 17 16  1  0
 18 13  1  0
 19 27  1  0
 19 24  1  0
 20 21  2  0
 21 26  1  0
 22 21  1  0
 23 22  2  0
 24 25  2  0
 24 23  1  0
 25 20  1  0
 28 19  1  0
  1 29  1  0
  1 30  1  0
  3 31  1  0
  6 32  1  0
  6 33  1  0
 11 34  1  0
 12 35  1  0
 14 36  1  0
 15 37  1  0
 16 38  1  0
 17 39  1  0
 20 40  1  0
 22 41  1  0
 26 42  1  0
 26 43  1  0
 27 44  1  0
 27 45  1  0
 27 46  1  0
 28 47  1  0
 28 48  1  0
 28 49  1  0
M  ISO  8  29   8  30   8  31  14  34  14  35   9  36  14  37  14  38  14
M  ISO  8  39  14  40  14  41  14  44   8  45   8  46   8  47   8  48   8
M  ISO  1  49   8
M  END
>  <minimizedAffinity>  (1) 
-6.90826702

>  <minimizedRMSD>  (1) 
1.51655018

$$$$
