
     RDKit          3D

 48 50  0  0  0  0  0  0  0  0999 V2000
   37.6890   25.5920   33.7660 C   0  0  0  0  0  0  0  0  0  0  0  0
   37.2650   26.8340   33.1830 N   0  0  0  0  0  0  0  0  0  0  0  0
   36.5830   27.6520   34.0070 C   0  0  0  0  0  0  0  0  0  0  0  0
   36.1110   28.8830   33.5900 C   0  0  0  0  0  0  0  0  0  0  0  0
   36.3630   29.2590   32.2740 C   0  0  0  0  0  0  0  0  0  0  0  0
   35.8590   30.5230   31.8790 N   0  0  0  0  0  0  0  0  0  0  0  0
   37.0420   28.4390   31.4630 N   0  0  0  0  0  0  0  0  0  0  0  0
   37.4730   27.2610   31.9260 C   0  0  0  0  0  0  0  0  0  0  0  0
   38.1140   26.4670   31.1860 O   0  0  0  0  0  0  0  0  0  0  0  0
   34.1220   31.5440   36.2650 C   0  0  0  0  0  0  0  0  0  0  0  0
   35.4910   31.5640   36.1380 C   0  0  0  0  0  0  0  0  0  0  0  0
   36.0750   30.6890   35.2650 C   0  0  0  0  0  0  0  0  0  0  0  0
   35.3670   29.7740   34.4940 C   0  0  0  0  0  0  0  0  0  0  0  0
   33.9940   29.7590   34.6270 C   0  0  0  0  0  0  0  0  0  0  0  0
   33.3830   30.6480   35.5150 C   0  0  0  0  0  0  0  0  0  0  0  0
   33.3270   32.6390   37.3630 S   0  0  0  0  0  0  0  0  0  0  0  0
   32.1030   33.2590   36.7570 O   0  0  0  0  0  0  0  0  0  0  0  0
   34.2820   33.7340   37.7330 O   0  0  0  0  0  0  0  0  0  0  0  0
   38.9760   25.6180   34.4990 C   0  0  0  0  0  0  0  0  0  0  0  0
   39.3320   22.9510   37.0310 C   0  0  0  0  0  0  0  0  0  0  0  0
   38.4960   23.3790   38.0640 C   0  0  0  0  0  0  0  0  0  0  0  0
   37.8350   24.5720   37.8630 C   0  0  0  0  0  0  0  0  0  0  0  0
   38.0230   25.2540   36.6980 N   0  0  0  0  0  0  0  0  0  0  0  0
   38.8410   24.8030   35.7220 C   0  0  0  0  0  0  0  0  0  0  0  0
   39.5030   23.6310   35.8990 N   0  0  0  0  0  0  0  0  0  0  0  0
   38.4030   22.5630   39.2140 N   0  0  0  0  0  0  0  0  0  0  0  0
   39.4260   27.0260   34.8330 C   0  0  0  0  0  0  0  0  0  0  0  0
   40.0500   24.9630   33.5970 C   0  0  0  0  0  0  0  0  0  0  0  0
   37.7798   24.8545   32.9549 H   0  0  0  0  0  0  0  0  0  0  0  0
   36.9265   25.3457   34.5196 H   0  0  0  0  0  0  0  0  0  0  0  0
   36.3958   27.3315   35.0425 H   0  0  0  0  0  0  0  0  0  0  0  0
   36.0113   30.8607   30.9179 H   0  0  0  0  0  0  0  0  0  0  0  0
   35.3404   31.1041   32.5530 H   0  0  0  0  0  0  0  0  0  0  0  0
   36.1012   32.2667   36.7244 H   0  0  0  0  0  0  0  0  0  0  0  0
   37.1704   30.7101   35.1667 H   0  0  0  0  0  0  0  0  0  0  0  0
   33.3865   29.0544   34.0400 H   0  0  0  0  0  0  0  0  0  0  0  0
   32.2881   30.6347   35.6199 H   0  0  0  0  0  0  0  0  0  0  0  0
   32.9399   31.9193   38.4626 H   0  0  0  0  0  0  0  0  0  0  0  0
   39.8770   22.0041   37.1587 H   0  0  0  0  0  0  0  0  0  0  0  0
   37.1616   24.9701   38.6363 H   0  0  0  0  0  0  0  0  0  0  0  0
   37.7967   22.8446   39.9976 H   0  0  0  0  0  0  0  0  0  0  0  0
   38.9415   21.6867   39.2686 H   0  0  0  0  0  0  0  0  0  0  0  0
   39.4653   27.1489   35.9254 H   0  0  0  0  0  0  0  0  0  0  0  0
   40.4252   27.2021   34.4080 H   0  0  0  0  0  0  0  0  0  0  0  0
   38.7142   27.7490   34.4080 H   0  0  0  0  0  0  0  0  0  0  0  0
   40.8203   24.4932   34.2262 H   0  0  0  0  0  0  0  0  0  0  0  0
   39.5788   24.1984   32.9619 H   0  0  0  0  0  0  0  0  0  0  0  0
   40.5141   25.7320   32.9619 H   0  0  0  0  0  0  0  0  0  0  0  0
  1 19  1  0
  2  1  1  0
  2  3  1  0
  4  3  2  0
  4 13  1  0
  5  4  1  0
  6  5  1  0
  7  8  1  0
  7  5  2  0
  8  2  1  0
  9  8  2  0
 10 16  1  0
 11 10  2  0
 12 11  1  0
 13 14  1  0
 13 12  2  0
 14 15  2  0
 15 10  1  0
 16 18  2  0
 17 16  2  0
 19 27  1  0
 19 24  1  0
 20 21  2  0
 21 26  1  0
 22 21  1  0
 23 22  2  0
 24 25  2  0
 24 23  1  0
 25 20  1  0
 28 19  1  0
  1 29  1  0
  1 30  1  0
  3 31  1  0
  6 32  1  0
  6 33  1  0
 11 34  1  0
 12 35  1  0
 14 36  1  0
 15 37  1  0
 16 38  1  0
 20 39  1  0
 22 40  1  0
 26 41  1  0
 26 42  1  0
 27 43  1  0
 27 44  1  0
 27 45  1  0
 28 46  1  0
 28 47  1  0
 28 48  1  0
M  ISO  8  29   8  30   8  31  14  34  14  35  14  36  14  37  14  38  11
M  ISO  8  39  14  40  14  43   8  44   8  45   8  46   8  47   8  48   8
M  END
>  <minimizedAffinity>  (1) 
-6.62921047

>  <minimizedRMSD>  (1) 
1.59491086

$$$$
