
     RDKit          3D

 48 51  0  0  0  0  0  0  0  0999 V2000
   37.5100   25.7050   33.6430 C   0  0  0  0  0  0  0  0  0  0  0  0
   37.0910   26.9610   33.0870 N   0  0  0  0  0  0  0  0  0  0  0  0
   36.4610   27.8030   33.9370 C   0  0  0  0  0  0  0  0  0  0  0  0
   36.0090   29.0500   33.5110 C   0  0  0  0  0  0  0  0  0  0  0  0
   36.2180   29.4170   32.1880 C   0  0  0  0  0  0  0  0  0  0  0  0
   35.7370   30.6780   31.8360 N   0  0  0  0  0  0  0  0  0  0  0  0
   36.8430   28.5670   31.3680 N   0  0  0  0  0  0  0  0  0  0  0  0
   37.2660   27.3720   31.8120 C   0  0  0  0  0  0  0  0  0  0  0  0
   37.8560   26.5660   31.0470 O   0  0  0  0  0  0  0  0  0  0  0  0
   35.3480   29.8830   34.4820 N   0  0  0  0  0  0  0  0  0  0  0  0
   36.0100   30.7170   35.3060 C   0  0  0  0  0  0  0  0  0  0  0  0
   35.1310   31.3530   36.0890 N   0  0  0  0  0  0  0  0  0  0  0  0
   33.9100   30.9170   35.7570 C   0  0  0  0  0  0  0  0  0  0  0  0
   32.6410   31.2340   36.2420 C   0  0  0  0  0  0  0  0  0  0  0  0
   31.5950   30.6000   35.6770 N   0  0  0  0  0  0  0  0  0  0  0  0
   31.7790   29.7000   34.6890 C   0  0  0  0  0  0  0  0  0  0  0  0
   32.9910   29.3600   34.1860 N   0  0  0  0  0  0  0  0  0  0  0  0
   34.0410   29.9880   34.7430 C   0  0  0  0  0  0  0  0  0  0  0  0
   32.5650   32.1970   37.2870 N   0  0  0  0  0  0  0  0  0  0  0  0
   38.8820   25.6840   34.2530 C   0  0  0  0  0  0  0  0  0  0  0  0
   39.5320   23.0980   36.8060 C   0  0  0  0  0  0  0  0  0  0  0  0
   38.6430   23.4220   37.8300 C   0  0  0  0  0  0  0  0  0  0  0  0
   37.8370   24.5250   37.6170 C   0  0  0  0  0  0  0  0  0  0  0  0
   37.9540   25.2190   36.4490 N   0  0  0  0  0  0  0  0  0  0  0  0
   38.8320   24.8700   35.4810 C   0  0  0  0  0  0  0  0  0  0  0  0
   39.6430   23.7850   35.6590 N   0  0  0  0  0  0  0  0  0  0  0  0
   38.6400   22.6070   38.9790 N   0  0  0  0  0  0  0  0  0  0  0  0
   39.3950   27.0650   34.5390 C   0  0  0  0  0  0  0  0  0  0  0  0
   39.8300   25.0040   33.2330 C   0  0  0  0  0  0  0  0  0  0  0  0
   37.4873   24.9556   32.8381 H   0  0  0  0  0  0  0  0  0  0  0  0
   36.8134   25.4972   34.4686 H   0  0  0  0  0  0  0  0  0  0  0  0
   36.3028   27.4983   34.9821 H   0  0  0  0  0  0  0  0  0  0  0  0
   35.8533   31.0231   30.8725 H   0  0  0  0  0  0  0  0  0  0  0  0
   35.2655   31.2642   32.5395 H   0  0  0  0  0  0  0  0  0  0  0  0
   37.1012   30.8539   35.3315 H   0  0  0  0  0  0  0  0  0  0  0  0
   30.8895   29.2113   34.2649 H   0  0  0  0  0  0  0  0  0  0  0  0
   31.6494   32.4628   37.6768 H   0  0  0  0  0  0  0  0  0  0  0  0
   33.4256   32.6282   37.6535 H   0  0  0  0  0  0  0  0  0  0  0  0
   40.1839   22.2234   36.9476 H   0  0  0  0  0  0  0  0  0  0  0  0
   37.1101   24.8390   38.3806 H   0  0  0  0  0  0  0  0  0  0  0  0
   37.9971   22.8151   39.7563 H   0  0  0  0  0  0  0  0  0  0  0  0
   39.2807   21.8030   39.0418 H   0  0  0  0  0  0  0  0  0  0  0  0
   39.4515   27.2171   35.6270 H   0  0  0  0  0  0  0  0  0  0  0  0
   40.3967   27.1823   34.0998 H   0  0  0  0  0  0  0  0  0  0  0  0
   38.7128   27.8078   34.0998 H   0  0  0  0  0  0  0  0  0  0  0  0
   40.6090   24.4452   33.7724 H   0  0  0  0  0  0  0  0  0  0  0  0
   39.2535   24.3122   32.6013 H   0  0  0  0  0  0  0  0  0  0  0  0
   40.3005   25.7718   32.6013 H   0  0  0  0  0  0  0  0  0  0  0  0
  1 20  1  0
  2  1  1  0
  2  3  1  0
  4  3  2  0
  4 10  1  0
  5  4  1  0
  6  5  1  0
  7  8  1  0
  7  5  2  0
  8  2  1  0
  9  8  2  0
 10 18  1  0
 10 11  1  0
 11 12  2  0
 13 12  1  0
 13 14  2  0
 14 19  1  0
 15 14  1  0
 16 15  2  0
 17 16  1  0
 17 18  2  0
 18 13  1  0
 20 28  1  0
 20 25  1  0
 21 22  2  0
 22 27  1  0
 23 22  1  0
 24 23  2  0
 25 26  2  0
 25 24  1  0
 26 21  1  0
 29 20  1  0
  1 30  1  0
  1 31  1  0
  3 32  1  0
  6 33  1  0
  6 34  1  0
 11 35  1  0
 16 36  1  0
 19 37  1  0
 19 38  1  0
 21 39  1  0
 23 40  1  0
 27 41  1  0
 27 42  1  0
 28 43  1  0
 28 44  1  0
 28 45  1  0
 29 46  1  0
 29 47  1  0
 29 48  1  0
M  ISO  8  30   8  31   8  32  14  35  14  36  14  39  14  40  14  43   8
M  ISO  5  44   8  45   8  46   8  47   8  48   8
M  END
>  <minimizedAffinity>  (1) 
-6.37284994

>  <minimizedRMSD>  (1) 
1.60218513

$$$$
