
     RDKit          3D

 46 49  0  0  0  0  0  0  0  0999 V2000
   37.5350   25.7960   33.7080 C   0  0  0  0  0  0  0  0  0  0  0  0
   37.1020   27.0530   33.1850 N   0  0  0  0  0  0  0  0  0  0  0  0
   36.4350   27.8420   34.0580 C   0  0  0  0  0  0  0  0  0  0  0  0
   35.9550   29.0880   33.6990 C   0  0  0  0  0  0  0  0  0  0  0  0
   36.1750   29.5260   32.3870 C   0  0  0  0  0  0  0  0  0  0  0  0
   35.6700   30.7910   32.0500 N   0  0  0  0  0  0  0  0  0  0  0  0
   36.8390   28.7230   31.5410 N   0  0  0  0  0  0  0  0  0  0  0  0
   37.2810   27.5300   31.9400 C   0  0  0  0  0  0  0  0  0  0  0  0
   37.9030   26.7700   31.1600 O   0  0  0  0  0  0  0  0  0  0  0  0
   35.2570   29.9180   34.6130 N   0  0  0  0  0  0  0  0  0  0  0  0
   35.9500   30.7730   35.3710 C   0  0  0  0  0  0  0  0  0  0  0  0
   35.1580   31.4940   36.1890 N   0  0  0  0  0  0  0  0  0  0  0  0
   33.8920   31.0600   35.9220 C   0  0  0  0  0  0  0  0  0  0  0  0
   32.6360   31.3860   36.4090 C   0  0  0  0  0  0  0  0  0  0  0  0
   31.5600   30.7270   35.8940 N   0  0  0  0  0  0  0  0  0  0  0  0
   31.7010   29.7800   34.9360 C   0  0  0  0  0  0  0  0  0  0  0  0
   32.9180   29.4270   34.4290 N   0  0  0  0  0  0  0  0  0  0  0  0
   33.9710   30.0860   34.9470 C   0  0  0  0  0  0  0  0  0  0  0  0
   38.8820   25.7620   34.3230 C   0  0  0  0  0  0  0  0  0  0  0  0
   39.5150   23.1240   36.8330 C   0  0  0  0  0  0  0  0  0  0  0  0
   38.6350   23.4330   37.8550 C   0  0  0  0  0  0  0  0  0  0  0  0
   37.8410   24.5450   37.6580 C   0  0  0  0  0  0  0  0  0  0  0  0
   37.9590   25.2600   36.5050 N   0  0  0  0  0  0  0  0  0  0  0  0
   38.8310   24.9220   35.5340 C   0  0  0  0  0  0  0  0  0  0  0  0
   39.6220   23.8290   35.7090 N   0  0  0  0  0  0  0  0  0  0  0  0
   38.6230   22.5980   38.9950 N   0  0  0  0  0  0  0  0  0  0  0  0
   39.4090   27.1470   34.6450 C   0  0  0  0  0  0  0  0  0  0  0  0
   39.8390   25.0870   33.3070 C   0  0  0  0  0  0  0  0  0  0  0  0
   37.5271   25.0701   32.8815 H   0  0  0  0  0  0  0  0  0  0  0  0
   36.8367   25.5664   34.5264 H   0  0  0  0  0  0  0  0  0  0  0  0
   36.2695   27.4817   35.0841 H   0  0  0  0  0  0  0  0  0  0  0  0
   35.8035   31.1621   31.0985 H   0  0  0  0  0  0  0  0  0  0  0  0
   35.1658   31.3485   32.7541 H   0  0  0  0  0  0  0  0  0  0  0  0
   37.0444   30.8767   35.3317 H   0  0  0  0  0  0  0  0  0  0  0  0
   32.5115   32.1532   37.1874 H   0  0  0  0  0  0  0  0  0  0  0  0
   30.8013   29.2767   34.5523 H   0  0  0  0  0  0  0  0  0  0  0  0
   40.1640   22.2445   36.9565 H   0  0  0  0  0  0  0  0  0  0  0  0
   37.1174   24.8517   38.4277 H   0  0  0  0  0  0  0  0  0  0  0  0
   37.9802   22.7994   39.7742 H   0  0  0  0  0  0  0  0  0  0  0  0
   39.2571   21.7880   39.0468 H   0  0  0  0  0  0  0  0  0  0  0  0
   39.4581   27.2761   35.7363 H   0  0  0  0  0  0  0  0  0  0  0  0
   40.4150   27.2654   34.2161 H   0  0  0  0  0  0  0  0  0  0  0  0
   38.7362   27.9042   34.2161 H   0  0  0  0  0  0  0  0  0  0  0  0
   40.6207   24.5356   33.8501 H   0  0  0  0  0  0  0  0  0  0  0  0
   39.2700   24.3893   32.6750 H   0  0  0  0  0  0  0  0  0  0  0  0
   40.3053   25.8572   32.6750 H   0  0  0  0  0  0  0  0  0  0  0  0
  1 19  1  0
  2  1  1  0
  2  3  1  0
  4  3  2  0
  4 10  1  0
  5  4  1  0
  6  5  1  0
  7  8  1  0
  7  5  2  0
  8  2  1  0
  9  8  2  0
 10 18  1  0
 10 11  1  0
 11 12  2  0
 13 12  1  0
 13 14  2  0
 15 14  1  0
 16 15  2  0
 17 16  1  0
 17 18  2  0
 18 13  1  0
 19 27  1  0
 19 24  1  0
 20 21  2  0
 21 26  1  0
 22 21  1  0
 23 22  2  0
 24 25  2  0
 24 23  1  0
 25 20  1  0
 28 19  1  0
  1 29  1  0
  1 30  1  0
  3 31  1  0
  6 32  1  0
  6 33  1  0
 11 34  1  0
 14 35  1  0
 16 36  1  0
 20 37  1  0
 22 38  1  0
 26 39  1  0
 26 40  1  0
 27 41  1  0
 27 42  1  0
 27 43  1  0
 28 44  1  0
 28 45  1  0
 28 46  1  0
M  ISO  8  29   8  30   8  31  14  34  14  35  14  36  14  37  14  38  14
M  ISO  6  41   8  42   8  43   8  44   8  45   8  46   8
M  END
>  <minimizedAffinity>  (1) 
-6.21880293

>  <minimizedRMSD>  (1) 
1.82808423

$$$$
