
     RDKit          3D

 50 55  0  0  1  0  0  0  0  0999 V2000
   37.9400   23.5930   33.3150 C   0  0  0  0  0  0  0  0  0  0  0  0
   37.0900   22.7810   32.5870 C   0  0  0  0  0  0  0  0  0  0  0  0
   36.8380   21.7160   33.4100 N   0  0  0  0  0  0  0  0  0  0  0  0
   37.5230   21.9320   34.5470 C   0  0  0  0  0  0  0  0  0  0  0  0
   38.2090   23.0730   34.5250 N   0  0  0  0  0  0  0  0  0  0  0  0
   38.4930   24.8670   32.8520 C   0  0  0  0  0  0  0  0  0  0  0  0
   39.8770   25.0380   32.7850 C   0  0  0  0  0  0  0  0  0  0  0  0
   40.3320   26.3080   32.3370 C   0  0  0  0  0  0  0  0  0  0  0  0
   39.4250   27.2540   32.0100 N   0  0  0  0  0  0  0  0  0  0  0  0
   38.1070   27.0340   32.0930 C   0  0  0  0  0  0  0  0  0  0  0  0
   37.6180   25.8460   32.5120 N   0  0  0  0  0  0  0  0  0  0  0  0
   37.1890   28.0720   31.7330 N   0  0  0  0  0  0  0  0  0  0  0  0
   36.9800   28.5590   30.4960 C   0  0  0  0  0  0  0  0  0  0  0  0
   36.0400   29.5390   30.5220 N   0  0  0  0  0  0  0  0  0  0  0  0
   35.6620   29.6550   31.8060 C   0  0  0  0  0  0  0  0  0  0  0  0
   34.7590   30.4680   32.4200 C   0  0  0  0  0  0  0  0  0  0  0  0
   34.5350   30.4140   33.7480 N   0  0  0  0  0  0  0  0  0  0  0  0
   35.2350   29.5230   34.4830 C   0  0  0  0  0  0  0  0  0  0  0  0
   36.1450   28.6950   33.9050 N   0  0  0  0  0  0  0  0  0  0  0  0
   36.3800   28.7360   32.5800 C   0  0  0  0  0  0  0  0  0  0  0  0
   34.0140   31.4120   31.6560 N   0  0  0  0  0  0  0  0  0  0  0  0
   39.0430   23.6360   35.5320 C   0  0  1  0  0  0  0  0  0  0  0  0
   38.4600   24.8310   36.1780 C   0  0  0  0  0  0  0  0  0  0  0  0
   37.5980   24.2380   37.2790 C   0  0  0  0  0  0  0  0  0  0  0  0
   38.4700   23.1620   37.8240 C   0  0  0  0  0  0  0  0  0  0  0  0
   39.3020   22.6910   36.6780 C   0  0  2  0  0  0  0  0  0  0  0  0
   40.7880   22.7550   37.0030 C   0  0  0  0  0  0  0  0  0  0  0  0
   41.6240   21.8160   36.1380 C   0  0  0  0  0  0  0  0  0  0  0  0
   41.5150   21.6340   37.6170 C   0  0  0  0  0  0  0  0  0  0  0  0
   36.7023   22.9525   31.5720 H   0  0  0  0  0  0  0  0  0  0  0  0
   37.5172   21.2408   35.4027 H   0  0  0  0  0  0  0  0  0  0  0  0
   40.5758   24.2353   33.0632 H   0  0  0  0  0  0  0  0  0  0  0  0
   41.4089   26.5177   32.2576 H   0  0  0  0  0  0  0  0  0  0  0  0
   37.4983   28.2117   29.5900 H   0  0  0  0  0  0  0  0  0  0  0  0
   35.0658   29.4664   35.5684 H   0  0  0  0  0  0  0  0  0  0  0  0
   33.3310   32.0268   32.1212 H   0  0  0  0  0  0  0  0  0  0  0  0
   34.1584   31.4797   30.6384 H   0  0  0  0  0  0  0  0  0  0  0  0
   39.9607   23.8787   34.9762 H   0  0  0  0  0  0  0  0  0  0  0  0
   39.2458   25.4774   36.5960 H   0  0  0  0  0  0  0  0  0  0  0  0
   37.8956   25.4684   35.4815 H   0  0  0  0  0  0  0  0  0  0  0  0
   37.3638   24.9883   38.0486 H   0  0  0  0  0  0  0  0  0  0  0  0
   36.6217   23.8751   36.9251 H   0  0  0  0  0  0  0  0  0  0  0  0
   39.1112   23.5581   38.6252 H   0  0  0  0  0  0  0  0  0  0  0  0
   37.8778   22.3425   38.2572 H   0  0  0  0  0  0  0  0  0  0  0  0
   39.0406   21.6485   36.4437 H   0  0  0  0  0  0  0  0  0  0  0  0
   40.7384   23.8197   37.2750 H   0  0  0  0  0  0  0  0  0  0  0  0
   41.1335   21.1076   35.4542 H   0  0  0  0  0  0  0  0  0  0  0  0
   42.4466   21.9321   35.4169 H   0  0  0  0  0  0  0  0  0  0  0  0
   42.3873   21.8355   38.2562 H   0  0  0  0  0  0  0  0  0  0  0  0
   41.2231   20.7954   38.2663 H   0  0  0  0  0  0  0  0  0  0  0  0
  1  5  1  0
  2  1  2  0
  2  3  1  0
  3  4  2  0
  5  4  1  0
  5 22  1  0
  6  1  1  0
  7  6  2  0
  8  7  1  0
  9 10  1  0
  9  8  2  0
 10 11  2  0
 11  6  1  0
 12 10  1  0
 12 20  1  0
 13 14  2  0
 13 12  1  0
 14 15  1  0
 15 16  1  0
 15 20  2  0
 16 17  2  0
 17 18  1  0
 19 18  2  0
 20 19  1  0
 21 16  1  0
 22 23  1  0
 22 26  1  0
 23 24  1  0
 24 25  1  0
 26 27  1  0
 26 25  1  0
 27 29  1  0
 28 27  1  0
 28 29  1  0
  2 30  1  0
  4 31  1  0
  7 32  1  0
  8 33  1  0
 13 34  1  0
 18 35  1  0
 21 36  1  0
 21 37  1  0
 22 38  1  6
 23 39  1  0
 23 40  1  0
 24 41  1  0
 24 42  1  0
 25 43  1  0
 25 44  1  0
 26 45  1  6
 27 46  1  0
 28 47  1  0
 28 48  1  0
 29 49  1  0
 29 50  1  0
M  ISO  8  30  14  31  14  32  14  33  14  34  14  35  14  38  13  39  13
M  ISO  8  40  13  41  13  42  13  43  13  44  13  45  13  46  13  47  13
M  ISO  3  48  13  49  13  50  13
M  END
>  <minimizedAffinity>  (1) 
-6.31937981

>  <minimizedRMSD>  (1) 
1.1234169

$$$$
