
     RDKit          3D

 40 42  0  0  0  0  0  0  0  0999 V2000
   39.0840   25.6010   34.5020 C   0  0  0  0  0  0  0  0  0  0  0  0
   39.4000   22.9640   37.0640 C   0  0  0  0  0  0  0  0  0  0  0  0
   38.5210   23.3750   38.0570 C   0  0  0  0  0  0  0  0  0  0  0  0
   37.8390   24.5520   37.8240 C   0  0  0  0  0  0  0  0  0  0  0  0
   38.0510   25.2340   36.6680 N   0  0  0  0  0  0  0  0  0  0  0  0
   38.9150   24.8010   35.7240 C   0  0  0  0  0  0  0  0  0  0  0  0
   39.6140   23.6330   35.9190 N   0  0  0  0  0  0  0  0  0  0  0  0
   38.4010   22.5660   39.2080 N   0  0  0  0  0  0  0  0  0  0  0  0
   39.4730   27.0200   34.8420 C   0  0  0  0  0  0  0  0  0  0  0  0
   40.1950   24.9790   33.6370 C   0  0  0  0  0  0  0  0  0  0  0  0
   37.8230   25.5580   33.7260 C   0  0  0  0  0  0  0  0  0  0  0  0
   37.3970   26.7850   33.1200 N   0  0  0  0  0  0  0  0  0  0  0  0
   36.6600   27.5900   33.9280 C   0  0  0  0  0  0  0  0  0  0  0  0
   36.1730   28.8070   33.4850 C   0  0  0  0  0  0  0  0  0  0  0  0
   36.4610   29.1850   32.1840 C   0  0  0  0  0  0  0  0  0  0  0  0
   35.9340   30.4350   31.7660 N   0  0  0  0  0  0  0  0  0  0  0  0
   37.1930   28.3840   31.3850 N   0  0  0  0  0  0  0  0  0  0  0  0
   37.6390   27.2150   31.8680 C   0  0  0  0  0  0  0  0  0  0  0  0
   38.3220   26.4450   31.1530 O   0  0  0  0  0  0  0  0  0  0  0  0
   35.3850   29.6560   34.3690 C   0  0  0  0  0  0  0  0  0  0  0  0
   34.0610   29.5810   34.5690 N   0  0  0  0  0  0  0  0  0  0  0  0
   33.7070   30.5060   35.4300 O   0  0  0  0  0  0  0  0  0  0  0  0
   34.7970   31.1730   35.7850 C   0  0  0  0  0  0  0  0  0  0  0  0
   35.8700   30.6540   35.1260 N   0  0  0  0  0  0  0  0  0  0  0  0
   39.9575   22.0296   37.2254 H   0  0  0  0  0  0  0  0  0  0  0  0
   37.1277   24.9359   38.5701 H   0  0  0  0  0  0  0  0  0  0  0  0
   37.7586   22.8397   39.9651 H   0  0  0  0  0  0  0  0  0  0  0  0
   38.9559   21.7022   39.2905 H   0  0  0  0  0  0  0  0  0  0  0  0
   39.5057   27.1393   35.9350 H   0  0  0  0  0  0  0  0  0  0  0  0
   40.4645   27.2397   34.4193 H   0  0  0  0  0  0  0  0  0  0  0  0
   38.7321   27.7146   34.4193 H   0  0  0  0  0  0  0  0  0  0  0  0
   40.9682   24.5461   34.2888 H   0  0  0  0  0  0  0  0  0  0  0  0
   39.7666   24.1895   33.0020 H   0  0  0  0  0  0  0  0  0  0  0  0
   40.6441   25.7569   33.0020 H   0  0  0  0  0  0  0  0  0  0  0  0
   37.9509   24.8168   32.9233 H   0  0  0  0  0  0  0  0  0  0  0  0
   37.0410   25.3115   34.4593 H   0  0  0  0  0  0  0  0  0  0  0  0
   36.4454   27.2674   34.9575 H   0  0  0  0  0  0  0  0  0  0  0  0
   36.1115   30.7750   30.8101 H   0  0  0  0  0  0  0  0  0  0  0  0
   35.3741   31.0020   32.4186 H   0  0  0  0  0  0  0  0  0  0  0  0
   34.8292   32.0107   36.4972 H   0  0  0  0  0  0  0  0  0  0  0  0
  1  9  1  0
  1  6  1  0
  2  3  2  0
  3  8  1  0
  4  3  1  0
  5  4  2  0
  6  7  2  0
  6  5  1  0
  7  2  1  0
 10  1  1  0
 11  1  1  0
 12 11  1  0
 12 13  1  0
 14 13  2  0
 14 20  1  0
 15 14  1  0
 16 15  1  0
 17 18  1  0
 17 15  2  0
 18 12  1  0
 19 18  2  0
 20 21  2  0
 20 24  1  0
 21 22  1  0
 22 23  1  0
 24 23  2  0
  2 25  1  0
  4 26  1  0
  8 27  1  0
  8 28  1  0
  9 29  1  0
  9 30  1  0
  9 31  1  0
 10 32  1  0
 10 33  1  0
 10 34  1  0
 11 35  1  0
 11 36  1  0
 13 37  1  0
 16 38  1  0
 16 39  1  0
 23 40  1  0
M  ISO  8  25  14  26  14  29   8  30   8  31   8  32   8  33   8  34   8
M  ISO  4  35   8  36   8  37  14  40  14
M  END
>  <minimizedAffinity>  (1) 
-5.65361309

>  <minimizedRMSD>  (1) 
1.04648638

$$$$
