
     RDKit          3D

 41 43  0  0  0  0  0  0  0  0999 V2000
   38.8880   25.6770   34.2450 C   0  0  0  0  0  0  0  0  0  0  0  0
   39.5260   23.0930   36.7970 C   0  0  0  0  0  0  0  0  0  0  0  0
   38.6370   23.4180   37.8210 C   0  0  0  0  0  0  0  0  0  0  0  0
   37.8330   24.5250   37.6090 C   0  0  0  0  0  0  0  0  0  0  0  0
   37.9530   25.2180   36.4430 N   0  0  0  0  0  0  0  0  0  0  0  0
   38.8320   24.8660   35.4730 C   0  0  0  0  0  0  0  0  0  0  0  0
   39.6290   23.7800   35.6660 N   0  0  0  0  0  0  0  0  0  0  0  0
   38.6190   22.6070   38.9850 N   0  0  0  0  0  0  0  0  0  0  0  0
   39.4590   27.0530   34.5340 C   0  0  0  0  0  0  0  0  0  0  0  0
   39.7980   24.9780   33.2220 C   0  0  0  0  0  0  0  0  0  0  0  0
   37.5190   25.7570   33.6610 C   0  0  0  0  0  0  0  0  0  0  0  0
   37.1230   27.0150   33.1340 N   0  0  0  0  0  0  0  0  0  0  0  0
   36.4720   27.8420   33.9790 C   0  0  0  0  0  0  0  0  0  0  0  0
   36.0190   29.1050   33.6210 C   0  0  0  0  0  0  0  0  0  0  0  0
   36.2720   29.4970   32.3070 C   0  0  0  0  0  0  0  0  0  0  0  0
   35.8060   30.7830   31.9580 N   0  0  0  0  0  0  0  0  0  0  0  0
   36.9160   28.6830   31.4610 N   0  0  0  0  0  0  0  0  0  0  0  0
   37.3180   27.4790   31.8940 C   0  0  0  0  0  0  0  0  0  0  0  0
   37.9300   26.6980   31.1070 O   0  0  0  0  0  0  0  0  0  0  0  0
   35.3150   29.9660   34.5830 C   0  0  0  0  0  0  0  0  0  0  0  0
   33.9240   29.8700   34.7760 C   0  0  0  0  0  0  0  0  0  0  0  0
   33.6190   31.1580   36.0630 S   0  0  0  0  0  0  0  0  0  0  0  0
   35.4670   31.5990   36.1070 C   0  0  0  0  0  0  0  0  0  0  0  0
   35.9500   30.8730   35.3170 N   0  0  0  0  0  0  0  0  0  0  0  0
   40.1786   22.2182   36.9343 H   0  0  0  0  0  0  0  0  0  0  0  0
   37.1067   24.8406   38.3725 H   0  0  0  0  0  0  0  0  0  0  0  0
   37.9715   22.8262   39.7554 H   0  0  0  0  0  0  0  0  0  0  0  0
   39.2535   21.7991   39.0596 H   0  0  0  0  0  0  0  0  0  0  0  0
   39.5213   27.2030   35.6219 H   0  0  0  0  0  0  0  0  0  0  0  0
   40.4644   27.1324   34.0948 H   0  0  0  0  0  0  0  0  0  0  0  0
   38.8053   27.8209   34.0948 H   0  0  0  0  0  0  0  0  0  0  0  0
   40.5624   24.3909   33.7521 H   0  0  0  0  0  0  0  0  0  0  0  0
   39.1943   24.3092   32.5909 H   0  0  0  0  0  0  0  0  0  0  0  0
   40.2885   25.7338   32.5909 H   0  0  0  0  0  0  0  0  0  0  0  0
   37.4608   25.0208   32.8457 H   0  0  0  0  0  0  0  0  0  0  0  0
   36.8347   25.5671   34.5011 H   0  0  0  0  0  0  0  0  0  0  0  0
   36.2903   27.4967   35.0075 H   0  0  0  0  0  0  0  0  0  0  0  0
   35.9551   31.1437   31.0048 H   0  0  0  0  0  0  0  0  0  0  0  0
   35.3169   31.3607   32.6566 H   0  0  0  0  0  0  0  0  0  0  0  0
   33.2032   29.1992   34.2855 H   0  0  0  0  0  0  0  0  0  0  0  0
   35.9685   32.3568   36.7269 H   0  0  0  0  0  0  0  0  0  0  0  0
  1  9  1  0
  1  6  1  0
  2  3  2  0
  3  8  1  0
  4  3  1  0
  5  4  2  0
  6  7  2  0
  6  5  1  0
  7  2  1  0
 10  1  1  0
 11  1  1  0
 12 11  1  0
 12 13  1  0
 14 13  2  0
 14 20  1  0
 15 14  1  0
 16 15  1  0
 17 18  1  0
 17 15  2  0
 18 12  1  0
 19 18  2  0
 20 21  2  0
 20 24  1  0
 21 22  1  0
 22 23  1  0
 24 23  2  0
  2 25  1  0
  4 26  1  0
  8 27  1  0
  8 28  1  0
  9 29  1  0
  9 30  1  0
  9 31  1  0
 10 32  1  0
 10 33  1  0
 10 34  1  0
 11 35  1  0
 11 36  1  0
 13 37  1  0
 16 38  1  0
 16 39  1  0
 21 40  1  0
 23 41  1  0
M  ISO  8  25  14  26  14  29   8  30   8  31   8  32   8  33   8  34   8
M  ISO  5  35   8  36   8  37  14  40  14  41  14
M  END
>  <minimizedAffinity>  (1) 
-5.72493029

>  <minimizedRMSD>  (1) 
1.17859149

$$$$
