
     RDKit          3D

 42 44  0  0  0  0  0  0  0  0999 V2000
   37.3210   25.9380   33.7330 C   0  0  0  0  0  0  0  0  0  0  0  0
   36.9150   27.2110   33.2140 N   0  0  0  0  0  0  0  0  0  0  0  0
   36.3930   28.0590   34.1290 C   0  0  0  0  0  0  0  0  0  0  0  0
   35.9510   29.3240   33.7860 C   0  0  0  0  0  0  0  0  0  0  0  0
   36.0620   29.7010   32.4560 C   0  0  0  0  0  0  0  0  0  0  0  0
   35.5810   31.0010   32.1440 N   0  0  0  0  0  0  0  0  0  0  0  0
   36.5810   28.8580   31.5480 N   0  0  0  0  0  0  0  0  0  0  0  0
   36.9920   27.6450   31.9420 C   0  0  0  0  0  0  0  0  0  0  0  0
   37.4820   26.8340   31.1210 O   0  0  0  0  0  0  0  0  0  0  0  0
   35.3910   30.2250   34.7840 C   0  0  0  0  0  0  0  0  0  0  0  0
   36.1340   30.9860   35.6600 C   0  0  0  0  0  0  0  0  0  0  0  0
   35.1780   31.6590   36.3920 C   0  0  0  0  0  0  0  0  0  0  0  0
   33.9260   31.3230   35.9800 N   0  0  0  0  0  0  0  0  0  0  0  0
   34.0930   30.4480   35.0000 N   0  0  0  0  0  0  0  0  0  0  0  0
   38.7180   25.8250   34.2040 C   0  0  0  0  0  0  0  0  0  0  0  0
   39.5870   23.2050   36.6480 C   0  0  0  0  0  0  0  0  0  0  0  0
   38.7240   23.4610   37.7100 C   0  0  0  0  0  0  0  0  0  0  0  0
   37.8570   24.5370   37.5640 C   0  0  0  0  0  0  0  0  0  0  0  0
   37.9030   25.2630   36.4070 N   0  0  0  0  0  0  0  0  0  0  0  0
   38.7500   24.9820   35.4070 C   0  0  0  0  0  0  0  0  0  0  0  0
   39.6140   23.9240   35.5300 N   0  0  0  0  0  0  0  0  0  0  0  0
   38.7930   22.6190   38.8460 N   0  0  0  0  0  0  0  0  0  0  0  0
   39.3350   27.1680   34.4640 C   0  0  0  0  0  0  0  0  0  0  0  0
   39.5380   25.1390   33.0870 C   0  0  0  0  0  0  0  0  0  0  0  0
   37.1769   25.1927   32.9369 H   0  0  0  0  0  0  0  0  0  0  0  0
   36.7017   25.7814   34.6285 H   0  0  0  0  0  0  0  0  0  0  0  0
   36.3177   27.7332   35.1769 H   0  0  0  0  0  0  0  0  0  0  0  0
   35.6306   31.3499   31.1762 H   0  0  0  0  0  0  0  0  0  0  0  0
   35.1827   31.5945   32.8857 H   0  0  0  0  0  0  0  0  0  0  0  0
   37.2285   31.0432   35.7533 H   0  0  0  0  0  0  0  0  0  0  0  0
   35.3985   32.3717   37.2004 H   0  0  0  0  0  0  0  0  0  0  0  0
   33.0331   31.6759   36.3529 H   0  0  0  0  0  0  0  0  0  0  0  0
   40.2858   22.3604   36.7390 H   0  0  0  0  0  0  0  0  0  0  0  0
   37.1482   24.7991   38.3633 H   0  0  0  0  0  0  0  0  0  0  0  0
   38.1674   22.7833   39.6476 H   0  0  0  0  0  0  0  0  0  0  0  0
   39.4688   21.8421   38.8709 H   0  0  0  0  0  0  0  0  0  0  0  0
   39.4107   27.3329   35.5489 H   0  0  0  0  0  0  0  0  0  0  0  0
   40.3394   27.2028   34.0168 H   0  0  0  0  0  0  0  0  0  0  0  0
   38.7071   27.9527   34.0168 H   0  0  0  0  0  0  0  0  0  0  0  0
   40.3071   24.4956   33.5392 H   0  0  0  0  0  0  0  0  0  0  0  0
   38.8688   24.5278   32.4636 H   0  0  0  0  0  0  0  0  0  0  0  0
   40.0214   25.9056   32.4636 H   0  0  0  0  0  0  0  0  0  0  0  0
  1 15  1  0
  2  1  1  0
  2  3  1  0
  4  3  2  0
  4 10  1  0
  5  4  1  0
  6  5  1  0
  7  8  1  0
  7  5  2  0
  8  2  1  0
  9  8  2  0
 10 14  2  0
 10 11  1  0
 11 12  2  0
 13 12  1  0
 14 13  1  0
 15 23  1  0
 15 20  1  0
 16 17  2  0
 17 22  1  0
 18 17  1  0
 19 18  2  0
 20 21  2  0
 20 19  1  0
 21 16  1  0
 24 15  1  0
  1 25  1  0
  1 26  1  0
  3 27  1  0
  6 28  1  0
  6 29  1  0
 11 30  1  0
 12 31  1  0
 13 32  1  0
 16 33  1  0
 18 34  1  0
 22 35  1  0
 22 36  1  0
 23 37  1  0
 23 38  1  0
 23 39  1  0
 24 40  1  0
 24 41  1  0
 24 42  1  0
M  ISO  8  25   8  26   8  27  14  30  14  31  14  32   9  33  14  34  14
M  ISO  6  37   8  38   8  39   8  40   8  41   8  42   8
M  END
>  <minimizedAffinity>  (1) 
-5.79359484

>  <minimizedRMSD>  (1) 
1.26781845

$$$$
