
     RDKit          3D

 42 44  0  0  0  0  0  0  0  0999 V2000
   38.9030   25.5110   34.0700 C   0  0  0  0  0  0  0  0  0  0  0  0
   39.7020   23.1500   36.7870 C   0  0  0  0  0  0  0  0  0  0  0  0
   38.7120   23.3830   37.7210 C   0  0  0  0  0  0  0  0  0  0  0  0
   37.7780   24.3540   37.4050 C   0  0  0  0  0  0  0  0  0  0  0  0
   37.8910   25.0070   36.2130 N   0  0  0  0  0  0  0  0  0  0  0  0
   38.8740   24.7490   35.3260 C   0  0  0  0  0  0  0  0  0  0  0  0
   39.7880   23.7990   35.6370 N   0  0  0  0  0  0  0  0  0  0  0  0
   38.7180   22.6270   38.9230 N   0  0  0  0  0  0  0  0  0  0  0  0
   39.2300   26.9700   34.3280 C   0  0  0  0  0  0  0  0  0  0  0  0
   40.0110   24.9330   33.1670 C   0  0  0  0  0  0  0  0  0  0  0  0
   37.5950   25.3440   33.3780 C   0  0  0  0  0  0  0  0  0  0  0  0
   37.1790   26.4230   32.5290 N   0  0  0  0  0  0  0  0  0  0  0  0
   36.6270   27.4690   33.1680 C   0  0  0  0  0  0  0  0  0  0  0  0
   36.1730   28.6050   32.4920 C   0  0  0  0  0  0  0  0  0  0  0  0
   36.3170   28.6140   31.1150 C   0  0  0  0  0  0  0  0  0  0  0  0
   35.8790   29.7480   30.4180 N   0  0  0  0  0  0  0  0  0  0  0  0
   36.8750   27.5570   30.4730 N   0  0  0  0  0  0  0  0  0  0  0  0
   37.2900   26.4940   31.1960 C   0  0  0  0  0  0  0  0  0  0  0  0
   37.8120   25.4960   30.6380 O   0  0  0  0  0  0  0  0  0  0  0  0
   35.5890   29.6800   33.2840 C   0  0  0  0  0  0  0  0  0  0  0  0
   35.1600   30.9030   32.8160 C   0  0  0  0  0  0  0  0  0  0  0  0
   34.6750   31.6560   33.8160 N   0  0  0  0  0  0  0  0  0  0  0  0
   34.7820   30.9370   34.9370 C   0  0  0  0  0  0  0  0  0  0  0  0
   35.3310   29.7630   34.5960 N   0  0  0  0  0  0  0  0  0  0  0  0
   40.4593   22.3843   37.0108 H   0  0  0  0  0  0  0  0  0  0  0  0
   36.9609   24.5943   38.1012 H   0  0  0  0  0  0  0  0  0  0  0  0
   37.9893   22.7840   39.6338 H   0  0  0  0  0  0  0  0  0  0  0  0
   39.4511   21.9216   39.0841 H   0  0  0  0  0  0  0  0  0  0  0  0
   39.2705   27.1505   35.4123 H   0  0  0  0  0  0  0  0  0  0  0  0
   40.2047   27.2122   33.8794 H   0  0  0  0  0  0  0  0  0  0  0  0
   38.4519   27.6050   33.8794 H   0  0  0  0  0  0  0  0  0  0  0  0
   40.8130   24.5146   33.7929 H   0  0  0  0  0  0  0  0  0  0  0  0
   39.5898   24.1397   32.5319 H   0  0  0  0  0  0  0  0  0  0  0  0
   40.4206   25.7323   32.5319 H   0  0  0  0  0  0  0  0  0  0  0  0
   37.6574   24.4366   32.7593 H   0  0  0  0  0  0  0  0  0  0  0  0
   36.8442   25.2982   34.1806 H   0  0  0  0  0  0  0  0  0  0  0  0
   36.5290   27.4294   34.2629 H   0  0  0  0  0  0  0  0  0  0  0  0
   35.9704   29.7896   29.3929 H   0  0  0  0  0  0  0  0  0  0  0  0
   35.4657   30.5399   30.9308 H   0  0  0  0  0  0  0  0  0  0  0  0
   35.2085   31.2199   31.7638 H   0  0  0  0  0  0  0  0  0  0  0  0
   34.4776   31.2491   35.9469 H   0  0  0  0  0  0  0  0  0  0  0  0
   35.5322   29.0086   35.2678 H   0  0  0  0  0  0  0  0  0  0  0  0
  1  9  1  0
  1  6  1  0
  2  3  2  0
  3  8  1  0
  4  3  1  0
  5  4  2  0
  6  7  2  0
  6  5  1  0
  7  2  1  0
 10  1  1  0
 11  1  1  0
 12 13  1  0
 12 11  1  0
 14 13  2  0
 14 20  1  0
 15 14  1  0
 16 15  1  0
 17 15  2  0
 17 18  1  0
 18 12  1  0
 19 18  2  0
 20 24  1  0
 21 20  2  0
 21 22  1  0
 22 23  2  0
 24 23  1  0
  2 25  1  0
  4 26  1  0
  8 27  1  0
  8 28  1  0
  9 29  1  0
  9 30  1  0
  9 31  1  0
 10 32  1  0
 10 33  1  0
 10 34  1  0
 11 35  1  0
 11 36  1  0
 13 37  1  0
 16 38  1  0
 16 39  1  0
 21 40  1  0
 23 41  1  0
 24 42  1  0
M  ISO  8  25  14  26  14  29   8  30   8  31   8  32   8  33   8  34   8
M  ISO  6  35   8  36   8  37  14  40  14  41  14  42   9
M  END
>  <minimizedAffinity>  (1) 
-5.58489037

>  <minimizedRMSD>  (1) 
0.209954396

$$$$
