
     RDKit          3D

 37 38  0  0  0  0  0  0  0  0999 V2000
   38.8200   25.5760   34.0740 C   0  0  0  0  0  0  0  0  0  0  0  0
   39.6930   23.1850   36.7500 C   0  0  0  0  0  0  0  0  0  0  0  0
   38.7230   23.3930   37.7120 C   0  0  0  0  0  0  0  0  0  0  0  0
   37.7830   24.3580   37.4170 C   0  0  0  0  0  0  0  0  0  0  0  0
   37.8480   25.0370   36.2380 N   0  0  0  0  0  0  0  0  0  0  0  0
   38.8130   24.8010   35.3290 C   0  0  0  0  0  0  0  0  0  0  0  0
   39.7460   23.8520   35.6070 N   0  0  0  0  0  0  0  0  0  0  0  0
   38.7540   22.6280   38.9000 N   0  0  0  0  0  0  0  0  0  0  0  0
   39.2040   27.0030   34.3360 C   0  0  0  0  0  0  0  0  0  0  0  0
   39.8310   24.9390   33.0970 C   0  0  0  0  0  0  0  0  0  0  0  0
   37.4530   25.4670   33.4670 C   0  0  0  0  0  0  0  0  0  0  0  0
   37.0740   26.5230   32.5860 N   0  0  0  0  0  0  0  0  0  0  0  0
   36.5980   27.6350   33.2040 C   0  0  0  0  0  0  0  0  0  0  0  0
   36.1860   28.7530   32.4800 C   0  0  0  0  0  0  0  0  0  0  0  0
   36.2760   28.6980   31.0880 C   0  0  0  0  0  0  0  0  0  0  0  0
   35.8530   29.8400   30.3930 N   0  0  0  0  0  0  0  0  0  0  0  0
   36.7490   27.5910   30.4920 N   0  0  0  0  0  0  0  0  0  0  0  0
   37.1310   26.5450   31.2400 C   0  0  0  0  0  0  0  0  0  0  0  0
   37.5800   25.4900   30.7030 O   0  0  0  0  0  0  0  0  0  0  0  0
   35.6880   29.9170   33.1310 N   0  0  0  0  0  0  0  0  0  0  0  0
   40.4631   22.4239   36.9441 H   0  0  0  0  0  0  0  0  0  0  0  0
   36.9796   24.5797   38.1349 H   0  0  0  0  0  0  0  0  0  0  0  0
   38.0369   22.7732   39.6249 H   0  0  0  0  0  0  0  0  0  0  0  0
   39.4937   21.9252   39.0409 H   0  0  0  0  0  0  0  0  0  0  0  0
   39.2508   27.1768   35.4212 H   0  0  0  0  0  0  0  0  0  0  0  0
   40.1886   27.2057   33.8894 H   0  0  0  0  0  0  0  0  0  0  0  0
   38.4540   27.6724   33.8894 H   0  0  0  0  0  0  0  0  0  0  0  0
   40.6266   24.4377   33.6678 H   0  0  0  0  0  0  0  0  0  0  0  0
   39.3147   24.2028   32.4635 H   0  0  0  0  0  0  0  0  0  0  0  0
   40.2723   25.7225   32.4635 H   0  0  0  0  0  0  0  0  0  0  0  0
   37.4103   24.5248   32.9010 H   0  0  0  0  0  0  0  0  0  0  0  0
   36.7490   25.5176   34.3107 H   0  0  0  0  0  0  0  0  0  0  0  0
   36.5361   27.6539   34.3021 H   0  0  0  0  0  0  0  0  0  0  0  0
   35.8946   29.8616   29.3641 H   0  0  0  0  0  0  0  0  0  0  0  0
   35.5006   30.6573   30.9114 H   0  0  0  0  0  0  0  0  0  0  0  0
   35.3896   30.7306   32.5743 H   0  0  0  0  0  0  0  0  0  0  0  0
   35.6260   29.9456   34.1587 H   0  0  0  0  0  0  0  0  0  0  0  0
  1  9  1  0
  1  6  1  0
  2  3  2  0
  3  8  1  0
  4  3  1  0
  5  4  2  0
  6  7  2  0
  6  5  1  0
  7  2  1  0
 10  1  1  0
 11  1  1  0
 12 13  1  0
 12 11  1  0
 14 20  1  0
 14 13  2  0
 15 14  1  0
 16 15  1  0
 17 15  2  0
 17 18  1  0
 18 12  1  0
 19 18  2  0
  2 21  1  0
  4 22  1  0
  8 23  1  0
  8 24  1  0
  9 25  1  0
  9 26  1  0
  9 27  1  0
 10 28  1  0
 10 29  1  0
 10 30  1  0
 11 31  1  0
 11 32  1  0
 13 33  1  0
 16 34  1  0
 16 35  1  0
 20 36  1  0
 20 37  1  0
M  ISO  8  21  14  22  14  25   8  26   8  27   8  28   8  29   8  30   8
M  ISO  3  31   8  32   8  33  14
M  END
>  <minimizedAffinity>  (1) 
-5.12446594

>  <minimizedRMSD>  (1) 
0.0158572756

$$$$
