
     RDKit          3D

 48 52  0  0  1  0  0  0  0  0999 V2000
   37.7740   23.5300   33.5520 C   0  0  0  0  0  0  0  0  0  0  0  0
   36.9610   22.6720   32.8350 C   0  0  0  0  0  0  0  0  0  0  0  0
   36.9330   21.5220   33.5780 N   0  0  0  0  0  0  0  0  0  0  0  0
   37.7010   21.7360   34.6590 C   0  0  0  0  0  0  0  0  0  0  0  0
   38.2340   22.9580   34.6780 N   0  0  0  0  0  0  0  0  0  0  0  0
   38.1100   24.8930   33.1570 C   0  0  0  0  0  0  0  0  0  0  0  0
   39.4040   25.1690   32.6630 C   0  0  0  0  0  0  0  0  0  0  0  0
   39.6580   26.5200   32.3090 C   0  0  0  0  0  0  0  0  0  0  0  0
   38.6780   27.4400   32.4600 N   0  0  0  0  0  0  0  0  0  0  0  0
   37.4690   27.1190   32.9330 C   0  0  0  0  0  0  0  0  0  0  0  0
   37.1680   25.8500   33.2870 N   0  0  0  0  0  0  0  0  0  0  0  0
   36.4740   28.1320   33.0710 N   0  0  0  0  0  0  0  0  0  0  0  0
   36.3100   28.6450   34.3030 C   0  0  0  0  0  0  0  0  0  0  0  0
   35.3580   29.6290   34.4860 C   0  0  0  0  0  0  0  0  0  0  0  0
   34.6530   29.9970   33.3580 C   0  0  0  0  0  0  0  0  0  0  0  0
   33.6610   30.9970   33.4540 N   0  0  0  0  0  0  0  0  0  0  0  0
   34.8210   29.4800   32.1290 N   0  0  0  0  0  0  0  0  0  0  0  0
   35.7650   28.5140   31.9770 C   0  0  0  0  0  0  0  0  0  0  0  0
   36.0330   27.9400   30.8900 O   0  0  0  0  0  0  0  0  0  0  0  0
   39.0930   23.5470   35.6480 C   0  0  1  0  0  0  0  0  0  0  0  0
   38.4970   24.7220   36.3230 C   0  0  0  0  0  0  0  0  0  0  0  0
   37.7150   24.1000   37.4640 C   0  0  0  0  0  0  0  0  0  0  0  0
   38.6370   23.0480   37.9600 C   0  0  0  0  0  0  0  0  0  0  0  0
   39.4340   22.6070   36.7770 C   0  0  2  0  0  0  0  0  0  0  0  0
   40.9290   22.7210   37.0380 C   0  0  0  0  0  0  0  0  0  0  0  0
   41.7570   21.8020   36.1460 C   0  0  0  0  0  0  0  0  0  0  0  0
   41.7170   21.6340   37.6320 C   0  0  0  0  0  0  0  0  0  0  0  0
   36.4506   22.8691   31.8807 H   0  0  0  0  0  0  0  0  0  0  0  0
   37.8718   20.9843   35.4438 H   0  0  0  0  0  0  0  0  0  0  0  0
   40.1684   24.3849   32.5589 H   0  0  0  0  0  0  0  0  0  0  0  0
   40.6419   26.8157   31.9159 H   0  0  0  0  0  0  0  0  0  0  0  0
   36.9202   28.2891   35.1462 H   0  0  0  0  0  0  0  0  0  0  0  0
   35.1736   30.0897   35.4677 H   0  0  0  0  0  0  0  0  0  0  0  0
   33.1301   31.2778   32.6172 H   0  0  0  0  0  0  0  0  0  0  0  0
   33.4682   31.4458   34.3608 H   0  0  0  0  0  0  0  0  0  0  0  0
   39.9774   23.8230   35.0550 H   0  0  0  0  0  0  0  0  0  0  0  0
   39.2775   25.3986   36.7013 H   0  0  0  0  0  0  0  0  0  0  0  0
   37.8749   25.3360   35.6553 H   0  0  0  0  0  0  0  0  0  0  0  0
   37.5012   24.8412   38.2481 H   0  0  0  0  0  0  0  0  0  0  0  0
   36.7336   23.7093   37.1571 H   0  0  0  0  0  0  0  0  0  0  0  0
   39.3002   23.4564   38.7367 H   0  0  0  0  0  0  0  0  0  0  0  0
   38.0858   22.2089   38.4095 H   0  0  0  0  0  0  0  0  0  0  0  0
   39.1989   21.5568   36.5495 H   0  0  0  0  0  0  0  0  0  0  0  0
   40.8559   23.7863   37.3023 H   0  0  0  0  0  0  0  0  0  0  0  0
   41.2616   21.0701   35.4911 H   0  0  0  0  0  0  0  0  0  0  0  0
   42.5432   21.9369   35.3885 H   0  0  0  0  0  0  0  0  0  0  0  0
   42.6083   21.8720   38.2312 H   0  0  0  0  0  0  0  0  0  0  0  0
   41.4812   20.7942   38.3022 H   0  0  0  0  0  0  0  0  0  0  0  0
  1  5  1  0
  2  1  2  0
  2  3  1  0
  3  4  2  0
  4  5  1  0
  5 20  1  0
  6 11  1  0
  6  1  1  0
  7  6  2  0
  8  9  2  0
  8  7  1  0
  9 10  1  0
 10 12  1  0
 10 11  2  0
 12 13  1  0
 13 14  2  0
 15 16  1  0
 15 14  1  0
 17 15  2  0
 18 17  1  0
 18 12  1  0
 19 18  2  0
 20 21  1  0
 20 24  1  0
 21 22  1  0
 22 23  1  0
 24 25  1  0
 24 23  1  0
 25 27  1  0
 26 25  1  0
 26 27  1  0
  2 28  1  0
  4 29  1  0
  7 30  1  0
  8 31  1  0
 13 32  1  0
 14 33  1  0
 16 34  1  0
 16 35  1  0
 20 36  1  6
 21 37  1  0
 21 38  1  0
 22 39  1  0
 22 40  1  0
 23 41  1  0
 23 42  1  0
 24 43  1  6
 25 44  1  0
 26 45  1  0
 26 46  1  0
 27 47  1  0
 27 48  1  0
M  ISO  8  28  14  29  14  30  14  31  14  32  14  33  14  36  13  37  13
M  ISO  8  38  13  39  13  40  13  41  13  42  13  43  13  44  13  45  13
M  ISO  3  46  13  47  13  48  13
M  END
>  <minimizedAffinity>  (1) 
-6.14683294

>  <minimizedRMSD>  (1) 
0.538072169

$$$$
