
     RDKit          3D

 57 60  0  0  1  0  0  0  0  0999 V2000
   37.3500   26.0570   34.1970 C   0  0  0  0  0  0  0  0  0  0  0  0
   36.8940   27.2720   33.5890 N   0  0  0  0  0  0  0  0  0  0  0  0
   36.2780   28.1420   34.4270 C   0  0  0  0  0  0  0  0  0  0  0  0
   35.7870   29.3650   34.0000 C   0  0  0  0  0  0  0  0  0  0  0  0
   35.9490   29.6850   32.6550 C   0  0  0  0  0  0  0  0  0  0  0  0
   35.4370   30.9410   32.2410 N   0  0  0  0  0  0  0  0  0  0  0  0
   36.5590   28.8190   31.8290 N   0  0  0  0  0  0  0  0  0  0  0  0
   37.0080   27.6540   32.3150 C   0  0  0  0  0  0  0  0  0  0  0  0
   37.5760   26.8410   31.5540 O   0  0  0  0  0  0  0  0  0  0  0  0
   35.1370   30.2680   34.9460 C   0  0  0  0  0  0  0  0  0  0  0  0
   35.8770   31.1820   35.6780 C   0  0  0  0  0  0  0  0  0  0  0  0
   35.2660   32.0380   36.5760 C   0  0  0  0  0  0  0  0  0  0  0  0
   33.9110   31.9320   36.6980 C   0  0  0  0  0  0  0  0  0  0  0  0
   33.1350   31.0370   35.9900 C   0  0  0  0  0  0  0  0  0  0  0  0
   33.7680   30.1840   35.0900 C   0  0  0  0  0  0  0  0  0  0  0  0
   38.6480   26.1600   34.9670 C   0  0  2  0  0  0  0  0  0  0  0  0
   38.7750   23.0680   36.9980 C   0  0  0  0  0  0  0  0  0  0  0  0
   38.3080   23.4520   38.2340 C   0  0  0  0  0  0  0  0  0  0  0  0
   37.9500   24.7690   38.3500 C   0  0  0  0  0  0  0  0  0  0  0  0
   38.0660   25.6040   37.2890 N   0  0  0  0  0  0  0  0  0  0  0  0
   38.5270   25.2010   36.0920 C   0  0  0  0  0  0  0  0  0  0  0  0
   38.8910   23.8850   35.9550 N   0  0  0  0  0  0  0  0  0  0  0  0
   38.2520   22.4800   39.2540 N   0  0  0  0  0  0  0  0  0  0  0  0
   38.8860   27.5240   35.4790 C   0  0  0  0  0  0  0  0  0  0  0  0
   39.7490   25.6780   34.0280 C   0  0  0  0  0  0  0  0  0  0  0  0
   40.9900   26.3000   34.2500 N   0  0  0  0  0  0  0  0  0  0  0  0
   41.4800   27.2920   33.4100 C   0  0  0  0  0  0  0  0  0  0  0  0
   43.0100   27.1160   33.4440 C   0  0  0  0  0  0  0  0  0  0  0  0
   43.2130   25.7220   34.0370 C   0  0  0  0  0  0  0  0  0  0  0  0
   41.9910   25.5800   34.9450 C   0  0  0  0  0  0  0  0  0  0  0  0
   37.4869   25.3105   33.4008 H   0  0  0  0  0  0  0  0  0  0  0  0
   36.5823   25.7828   34.9355 H   0  0  0  0  0  0  0  0  0  0  0  0
   36.1638   27.8663   35.4858 H   0  0  0  0  0  0  0  0  0  0  0  0
   35.5263   31.2348   31.2578 H   0  0  0  0  0  0  0  0  0  0  0  0
   34.9758   31.5594   32.9235 H   0  0  0  0  0  0  0  0  0  0  0  0
   36.9677   31.2276   35.5429 H   0  0  0  0  0  0  0  0  0  0  0  0
   35.8434   32.7678   37.1626 H   0  0  0  0  0  0  0  0  0  0  0  0
   33.4044   32.6036   37.4067 H   0  0  0  0  0  0  0  0  0  0  0  0
   32.0450   30.9986   36.1330 H   0  0  0  0  0  0  0  0  0  0  0  0
   33.1868   29.4564   34.5045 H   0  0  0  0  0  0  0  0  0  0  0  0
   39.0716   22.0173   36.8639 H   0  0  0  0  0  0  0  0  0  0  0  0
   37.5669   25.1503   39.3080 H   0  0  0  0  0  0  0  0  0  0  0  0
   37.9073   22.7354   40.1904 H   0  0  0  0  0  0  0  0  0  0  0  0
   38.5558   21.5146   39.0627 H   0  0  0  0  0  0  0  0  0  0  0  0
   38.8833   27.5084   36.5789 H   0  0  0  0  0  0  0  0  0  0  0  0
   39.8608   27.8856   35.1198 H   0  0  0  0  0  0  0  0  0  0  0  0
   38.0913   28.1943   35.1198 H   0  0  0  0  0  0  0  0  0  0  0  0
   39.8738   24.5938   34.1659 H   0  0  0  0  0  0  0  0  0  0  0  0
   39.4369   25.9364   33.0053 H   0  0  0  0  0  0  0  0  0  0  0  0
   41.1962   28.2882   33.7801 H   0  0  0  0  0  0  0  0  0  0  0  0
   41.0752   27.2102   32.3905 H   0  0  0  0  0  0  0  0  0  0  0  0
   43.4322   27.1740   32.4299 H   0  0  0  0  0  0  0  0  0  0  0  0
   43.5118   27.9005   34.0294 H   0  0  0  0  0  0  0  0  0  0  0  0
   43.2193   24.9512   33.2523 H   0  0  0  0  0  0  0  0  0  0  0  0
   44.1717   25.5994   34.5622 H   0  0  0  0  0  0  0  0  0  0  0  0
   42.1805   26.0220   35.9343 H   0  0  0  0  0  0  0  0  0  0  0  0
   41.7152   24.5329   35.1386 H   0  0  0  0  0  0  0  0  0  0  0  0
 16  1  1  6
  2  1  1  0
  2  3  1  0
  4  3  2  0
  4 10  1  0
  5  4  1  0
  6  5  1  0
  7  8  1  0
  7  5  2  0
  8  2  1  0
  9  8  2  0
 10 15  1  0
 10 11  2  0
 11 12  1  0
 12 13  2  0
 14 13  1  0
 15 14  2  0
 16 25  1  0
 16 24  1  0
 16 21  1  0
 17 18  2  0
 18 19  1  0
 18 23  1  0
 20 19  2  0
 21 20  1  0
 22 21  2  0
 22 17  1  0
 25 26  1  0
 26 30  1  0
 27 28  1  0
 27 26  1  0
 28 29  1  0
 29 30  1  0
  1 31  1  0
  1 32  1  0
  3 33  1  0
  6 34  1  0
  6 35  1  0
 11 36  1  0
 12 37  1  0
 13 38  1  0
 14 39  1  0
 15 40  1  0
 17 41  1  0
 19 42  1  0
 23 43  1  0
 23 44  1  0
 24 45  1  0
 24 46  1  0
 24 47  1  0
 25 48  1  0
 25 49  1  0
 27 50  1  0
 27 51  1  0
 28 52  1  0
 28 53  1  0
 29 54  1  0
 29 55  1  0
 30 56  1  0
 30 57  1  0
M  ISO  8  31   8  32   8  33  14  36  14  37  14  38  14  39  14  40  14
M  ISO  8  41  14  42  14  45   8  46   8  47   8  48   8  49   8  50  13
M  ISO  7  51  13  52  13  53  13  54  13  55  13  56  13  57  13
M  END
>  <minimizedAffinity>  (1) 
-6.62424517

>  <minimizedRMSD>  (1) 
1.0741632

$$$$
