
     RDKit          3D

 58 61  0  0  1  0  0  0  0  0999 V2000
   37.3770   26.1100   34.2950 C   0  0  0  0  0  0  0  0  0  0  0  0
   36.8620   27.2770   33.6600 N   0  0  0  0  0  0  0  0  0  0  0  0
   36.2690   28.1680   34.4880 C   0  0  0  0  0  0  0  0  0  0  0  0
   35.7340   29.3600   34.0280 C   0  0  0  0  0  0  0  0  0  0  0  0
   35.8200   29.6260   32.6670 C   0  0  0  0  0  0  0  0  0  0  0  0
   35.2660   30.8540   32.2220 N   0  0  0  0  0  0  0  0  0  0  0  0
   36.4070   28.7360   31.8620 N   0  0  0  0  0  0  0  0  0  0  0  0
   36.9050   27.6030   32.3640 C   0  0  0  0  0  0  0  0  0  0  0  0
   37.4510   26.7710   31.6150 O   0  0  0  0  0  0  0  0  0  0  0  0
   35.1050   30.2990   34.9680 C   0  0  0  0  0  0  0  0  0  0  0  0
   35.8420   31.2190   35.6650 C   0  0  0  0  0  0  0  0  0  0  0  0
   35.2610   32.1020   36.5480 C   0  0  0  0  0  0  0  0  0  0  0  0
   33.9130   32.0110   36.6890 C   0  0  0  0  0  0  0  0  0  0  0  0
   33.1270   31.1100   36.0180 C   0  0  0  0  0  0  0  0  0  0  0  0
   33.7390   30.2250   35.1280 C   0  0  0  0  0  0  0  0  0  0  0  0
   38.6030   26.2880   35.1600 C   0  0  2  0  0  0  0  0  0  0  0  0
   38.7450   23.0920   37.0180 C   0  0  0  0  0  0  0  0  0  0  0  0
   38.2810   23.4050   38.2730 C   0  0  0  0  0  0  0  0  0  0  0  0
   37.9210   24.7140   38.4660 C   0  0  0  0  0  0  0  0  0  0  0  0
   38.0330   25.6140   37.4580 N   0  0  0  0  0  0  0  0  0  0  0  0
   38.4950   25.2700   36.2340 C   0  0  0  0  0  0  0  0  0  0  0  0
   38.8540   23.9720   36.0300 N   0  0  0  0  0  0  0  0  0  0  0  0
   38.2150   22.3750   39.2390 N   0  0  0  0  0  0  0  0  0  0  0  0
   38.6300   27.6520   35.7320 C   0  0  0  0  0  0  0  0  0  0  0  0
   39.7900   25.9490   34.2920 C   0  0  0  0  0  0  0  0  0  0  0  0
   41.0850   26.6540   34.5240 C   0  0  0  0  0  0  0  0  0  0  0  0
   41.7060   27.3080   33.3550 C   0  0  0  0  0  0  0  0  0  0  0  0
   43.1970   27.0570   33.5250 C   0  0  0  0  0  0  0  0  0  0  0  0
   43.1870   25.6000   33.8800 C   0  0  0  0  0  0  0  0  0  0  0  0
   42.0640   25.5170   34.8820 C   0  0  0  0  0  0  0  0  0  0  0  0
   37.6290   25.3860   33.5061 H   0  0  0  0  0  0  0  0  0  0  0  0
   36.5840   25.7846   34.9844 H   0  0  0  0  0  0  0  0  0  0  0  0
   36.2098   27.9380   35.5621 H   0  0  0  0  0  0  0  0  0  0  0  0
   35.3016   31.1031   31.2232 H   0  0  0  0  0  0  0  0  0  0  0  0
   34.8282   31.4964   32.8977 H   0  0  0  0  0  0  0  0  0  0  0  0
   36.9312   31.2538   35.5151 H   0  0  0  0  0  0  0  0  0  0  0  0
   35.8551   32.8395   37.1076 H   0  0  0  0  0  0  0  0  0  0  0  0
   33.4204   32.7047   37.3863 H   0  0  0  0  0  0  0  0  0  0  0  0
   32.0389   31.0849   36.1772 H   0  0  0  0  0  0  0  0  0  0  0  0
   33.1450   29.4872   34.5687 H   0  0  0  0  0  0  0  0  0  0  0  0
   39.0435   22.0518   36.8205 H   0  0  0  0  0  0  0  0  0  0  0  0
   37.5386   25.0363   39.4457 H   0  0  0  0  0  0  0  0  0  0  0  0
   37.8713   22.5803   40.1880 H   0  0  0  0  0  0  0  0  0  0  0  0
   38.5106   21.4193   38.9938 H   0  0  0  0  0  0  0  0  0  0  0  0
   38.6288   27.5892   36.8302 H   0  0  0  0  0  0  0  0  0  0  0  0
   39.5386   28.1728   35.3956 H   0  0  0  0  0  0  0  0  0  0  0  0
   37.7427   28.2083   35.3956 H   0  0  0  0  0  0  0  0  0  0  0  0
   39.9827   24.8732   34.4164 H   0  0  0  0  0  0  0  0  0  0  0  0
   39.4855   26.2831   33.2892 H   0  0  0  0  0  0  0  0  0  0  0  0
   40.8912   27.4457   35.2627 H   0  0  0  0  0  0  0  0  0  0  0  0
   41.4911   28.3868   33.3534 H   0  0  0  0  0  0  0  0  0  0  0  0
   41.3216   26.9143   32.4025 H   0  0  0  0  0  0  0  0  0  0  0  0
   43.7498   27.2446   32.5927 H   0  0  0  0  0  0  0  0  0  0  0  0
   43.6912   27.7064   34.2627 H   0  0  0  0  0  0  0  0  0  0  0  0
   42.9794   24.9771   32.9975 H   0  0  0  0  0  0  0  0  0  0  0  0
   44.1497   25.2364   34.2686 H   0  0  0  0  0  0  0  0  0  0  0  0
   42.4519   25.6545   35.9021 H   0  0  0  0  0  0  0  0  0  0  0  0
   41.5685   24.5354   34.8493 H   0  0  0  0  0  0  0  0  0  0  0  0
 16  1  1  6
  2  1  1  0
  2  3  1  0
  4  3  2  0
  4 10  1  0
  5  4  1  0
  6  5  1  0
  7  8  1  0
  7  5  2  0
  8  2  1  0
  9  8  2  0
 10 15  1  0
 10 11  2  0
 11 12  1  0
 12 13  2  0
 14 13  1  0
 15 14  2  0
 16 25  1  0
 16 24  1  0
 16 21  1  0
 17 18  2  0
 18 19  1  0
 18 23  1  0
 20 19  2  0
 21 20  1  0
 22 21  2  0
 22 17  1  0
 25 26  1  0
 26 30  1  0
 27 28  1  0
 27 26  1  0
 28 29  1  0
 29 30  1  0
  1 31  1  0
  1 32  1  0
  3 33  1  0
  6 34  1  0
  6 35  1  0
 11 36  1  0
 12 37  1  0
 13 38  1  0
 14 39  1  0
 15 40  1  0
 17 41  1  0
 19 42  1  0
 23 43  1  0
 23 44  1  0
 24 45  1  0
 24 46  1  0
 24 47  1  0
 25 48  1  0
 25 49  1  0
 26 50  1  0
 27 51  1  0
 27 52  1  0
 28 53  1  0
 28 54  1  0
 29 55  1  0
 29 56  1  0
 30 57  1  0
 30 58  1  0
M  ISO  8  31   8  32   8  33  14  36  14  37  14  38  14  39  14  40  14
M  ISO  8  41  14  42  14  45   8  46   8  47   8  48   8  49   8  50  13
M  ISO  8  51  13  52  13  53  13  54  13  55  13  56  13  57  13  58  13
M  END
>  <minimizedAffinity>  (1) 
-6.86900616

>  <minimizedRMSD>  (1) 
1.02632987

$$$$
