
     RDKit          3D

 53 56  0  0  1  0  0  0  0  0999 V2000
   38.3820   25.6890   33.7520 C   0  0  2  0  0  0  0  0  0  0  0  0
   39.7880   23.5970   36.4460 C   0  0  0  0  0  0  0  0  0  0  0  0
   38.8050   23.5830   37.4030 C   0  0  0  0  0  0  0  0  0  0  0  0
   37.6720   24.2940   37.1070 C   0  0  0  0  0  0  0  0  0  0  0  0
   37.5680   24.9600   35.9260 N   0  0  0  0  0  0  0  0  0  0  0  0
   38.5670   24.9480   35.0020 C   0  0  0  0  0  0  0  0  0  0  0  0
   39.7070   24.2450   35.2730 N   0  0  0  0  0  0  0  0  0  0  0  0
   39.0320   22.8510   38.5940 N   0  0  0  0  0  0  0  0  0  0  0  0
   39.2700   26.9060   33.7160 C   0  0  0  0  0  0  0  0  0  0  0  0
   36.9580   26.0650   33.6320 C   0  0  0  0  0  0  0  0  0  0  0  0
   36.6670   27.3860   33.1820 N   0  0  0  0  0  0  0  0  0  0  0  0
   36.1440   28.2250   34.1040 C   0  0  0  0  0  0  0  0  0  0  0  0
   35.8110   29.5330   33.8140 C   0  0  0  0  0  0  0  0  0  0  0  0
   36.0300   29.9730   32.5280 C   0  0  0  0  0  0  0  0  0  0  0  0
   35.6770   31.3270   32.2620 N   0  0  0  0  0  0  0  0  0  0  0  0
   36.5460   29.1460   31.6180 N   0  0  0  0  0  0  0  0  0  0  0  0
   36.8500   27.8860   31.9560 C   0  0  0  0  0  0  0  0  0  0  0  0
   37.3370   27.0890   31.1150 O   0  0  0  0  0  0  0  0  0  0  0  0
   35.2430   30.3940   34.8710 C   0  0  0  0  0  0  0  0  0  0  0  0
   36.0280   31.2460   35.6000 C   0  0  0  0  0  0  0  0  0  0  0  0
   35.4640   32.0360   36.5800 C   0  0  0  0  0  0  0  0  0  0  0  0
   34.1240   31.9310   36.7840 C   0  0  0  0  0  0  0  0  0  0  0  0
   33.2960   31.0950   36.0810 C   0  0  0  0  0  0  0  0  0  0  0  0
   33.8650   30.2970   35.0920 C   0  0  0  0  0  0  0  0  0  0  0  0
   38.7580   24.7800   32.5610 C   0  0  0  0  0  0  0  0  0  0  0  0
   37.8120   23.6490   32.4370 C   0  0  0  0  0  0  0  0  0  0  0  0
   36.9600   23.8250   31.3550 C   0  0  0  0  0  0  0  0  0  0  0  0
   35.9830   22.8910   31.0360 C   0  0  0  0  0  0  0  0  0  0  0  0
   35.8480   21.7860   31.7830 N   0  0  0  0  0  0  0  0  0  0  0  0
   36.6710   21.6250   32.8210 C   0  0  0  0  0  0  0  0  0  0  0  0
   37.6030   22.5130   33.1270 N   0  0  0  0  0  0  0  0  0  0  0  0
   40.7107   23.0358   36.6553 H   0  0  0  0  0  0  0  0  0  0  0  0
   36.8422   24.3263   37.8283 H   0  0  0  0  0  0  0  0  0  0  0  0
   38.3098   22.8247   39.3279 H   0  0  0  0  0  0  0  0  0  0  0  0
   39.9193   22.3450   38.7263 H   0  0  0  0  0  0  0  0  0  0  0  0
   39.5007   27.2221   34.7440 H   0  0  0  0  0  0  0  0  0  0  0  0
   40.2043   26.6627   33.1888 H   0  0  0  0  0  0  0  0  0  0  0  0
   38.7532   27.7215   33.1888 H   0  0  0  0  0  0  0  0  0  0  0  0
   36.4895   25.3643   32.9252 H   0  0  0  0  0  0  0  0  0  0  0  0
   36.5671   26.0238   34.6594 H   0  0  0  0  0  0  0  0  0  0  0  0
   35.9773   27.8510   35.1249 H   0  0  0  0  0  0  0  0  0  0  0  0
   35.8152   31.7197   31.3199 H   0  0  0  0  0  0  0  0  0  0  0  0
   35.2835   31.9134   33.0118 H   0  0  0  0  0  0  0  0  0  0  0  0
   37.1091   31.3007   35.4042 H   0  0  0  0  0  0  0  0  0  0  0  0
   36.0776   32.7274   37.1762 H   0  0  0  0  0  0  0  0  0  0  0  0
   33.6737   32.5596   37.5663 H   0  0  0  0  0  0  0  0  0  0  0  0
   32.2170   31.0558   36.2913 H   0  0  0  0  0  0  0  0  0  0  0  0
   33.2463   29.6073   34.4991 H   0  0  0  0  0  0  0  0  0  0  0  0
   38.7334   25.3726   31.6346 H   0  0  0  0  0  0  0  0  0  0  0  0
   39.7664   24.3758   32.7337 H   0  0  0  0  0  0  0  0  0  0  0  0
   37.0614   24.7275   30.7344 H   0  0  0  0  0  0  0  0  0  0  0  0
   35.3218   23.0574   30.1728 H   0  0  0  0  0  0  0  0  0  0  0  0
   36.5712   20.7235   33.4434 H   0  0  0  0  0  0  0  0  0  0  0  0
  1 25  1  6
  1  6  1  0
  2  3  2  0
  3  8  1  0
  4  3  1  0
  5  4  2  0
  6  7  2  0
  6  5  1  0
  7  2  1  0
  9  1  1  0
 10  1  1  0
 11 10  1  0
 11 12  1  0
 13 12  2  0
 13 19  1  0
 14 13  1  0
 15 14  1  0
 16 17  1  0
 16 14  2  0
 17 11  1  0
 18 17  2  0
 19 24  1  0
 19 20  2  0
 20 21  1  0
 21 22  2  0
 23 22  1  0
 24 23  2  0
 26 25  1  0
 26 31  1  0
 27 26  2  0
 28 27  1  0
 28 29  2  0
 29 30  1  0
 30 31  2  0
  2 32  1  0
  4 33  1  0
  8 34  1  0
  8 35  1  0
  9 36  1  0
  9 37  1  0
  9 38  1  0
 10 39  1  0
 10 40  1  0
 12 41  1  0
 15 42  1  0
 15 43  1  0
 20 44  1  0
 21 45  1  0
 22 46  1  0
 23 47  1  0
 24 48  1  0
 25 49  1  0
 25 50  1  0
 27 51  1  0
 28 52  1  0
 30 53  1  0
M  ISO  8  32  14  33  14  36   8  37   8  38   8  39   8  40   8  41  14
M  ISO  8  44  14  45  14  46  14  47  14  48  14  49   8  50   8  51  14
M  ISO  2  52  14  53  14
M  END
>  <minimizedAffinity>  (1) 
-6.65348387

>  <minimizedRMSD>  (1) 
1.26790202

$$$$
