
     RDKit          3D

 50 53  0  0  1  0  0  0  0  0999 V2000
   37.2600   26.0140   34.1500 C   0  0  0  0  0  0  0  0  0  0  0  0
   36.8830   27.2690   33.5680 N   0  0  0  0  0  0  0  0  0  0  0  0
   36.2780   28.1470   34.4120 C   0  0  0  0  0  0  0  0  0  0  0  0
   35.8590   29.3960   33.9960 C   0  0  0  0  0  0  0  0  0  0  0  0
   36.0720   29.7410   32.6800 C   0  0  0  0  0  0  0  0  0  0  0  0
   35.6320   31.0310   32.2770 N   0  0  0  0  0  0  0  0  0  0  0  0
   36.6720   28.8690   31.8520 N   0  0  0  0  0  0  0  0  0  0  0  0
   37.0570   27.6720   32.3110 C   0  0  0  0  0  0  0  0  0  0  0  0
   37.6140   26.8480   31.5580 O   0  0  0  0  0  0  0  0  0  0  0  0
   35.2100   30.3020   34.9520 C   0  0  0  0  0  0  0  0  0  0  0  0
   35.9360   31.1990   35.6890 C   0  0  0  0  0  0  0  0  0  0  0  0
   35.3180   32.0510   36.5880 C   0  0  0  0  0  0  0  0  0  0  0  0
   33.9650   31.9490   36.6990 C   0  0  0  0  0  0  0  0  0  0  0  0
   33.1800   31.0630   35.9820 C   0  0  0  0  0  0  0  0  0  0  0  0
   33.8180   30.2140   35.0820 C   0  0  0  0  0  0  0  0  0  0  0  0
   38.6250   25.9410   34.7400 C   0  0  2  0  0  0  0  0  0  0  0  0
   38.8860   23.0010   36.9660 C   0  0  0  0  0  0  0  0  0  0  0  0
   38.3700   23.4440   38.1660 C   0  0  0  0  0  0  0  0  0  0  0  0
   37.9410   24.7510   38.1910 C   0  0  0  0  0  0  0  0  0  0  0  0
   38.0360   25.5270   37.0800 N   0  0  0  0  0  0  0  0  0  0  0  0
   38.5500   25.0510   35.9160 C   0  0  0  0  0  0  0  0  0  0  0  0
   38.9780   23.7610   35.8790 N   0  0  0  0  0  0  0  0  0  0  0  0
   38.3220   22.5400   39.2500 N   0  0  0  0  0  0  0  0  0  0  0  0
   39.1320   27.3030   35.1420 C   0  0  0  0  0  0  0  0  0  0  0  0
   39.5880   25.3480   33.7140 C   0  0  0  0  0  0  0  0  0  0  0  0
   40.8820   26.0830   33.7470 C   0  0  0  0  0  0  0  0  0  0  0  0
   41.0170   27.0730   32.8260 N   0  0  0  0  0  0  0  0  0  0  0  0
   42.1840   27.6320   32.9540 O   0  0  0  0  0  0  0  0  0  0  0  0
   42.8490   27.0520   33.9360 C   0  0  0  0  0  0  0  0  0  0  0  0
   42.0450   26.1140   34.4070 N   0  0  0  0  0  0  0  0  0  0  0  0
   37.1938   25.2473   33.3640 H   0  0  0  0  0  0  0  0  0  0  0  0
   36.5692   25.8636   34.9927 H   0  0  0  0  0  0  0  0  0  0  0  0
   36.1170   27.8533   35.4598 H   0  0  0  0  0  0  0  0  0  0  0  0
   35.7664   31.3402   31.3038 H   0  0  0  0  0  0  0  0  0  0  0  0
   35.1787   31.6566   32.9582 H   0  0  0  0  0  0  0  0  0  0  0  0
   37.0281   31.2433   35.5646 H   0  0  0  0  0  0  0  0  0  0  0  0
   35.8924   32.7755   37.1840 H   0  0  0  0  0  0  0  0  0  0  0  0
   33.4593   32.6191   37.4098 H   0  0  0  0  0  0  0  0  0  0  0  0
   32.0890   31.0308   36.1186 H   0  0  0  0  0  0  0  0  0  0  0  0
   33.2421   29.4904   34.4864 H   0  0  0  0  0  0  0  0  0  0  0  0
   39.2410   21.9616   36.9050 H   0  0  0  0  0  0  0  0  0  0  0  0
   37.5186   25.1701   39.1161 H   0  0  0  0  0  0  0  0  0  0  0  0
   37.9417   22.8440   40.1577 H   0  0  0  0  0  0  0  0  0  0  0  0
   38.6673   21.5767   39.1329 H   0  0  0  0  0  0  0  0  0  0  0  0
   39.1588   27.3751   36.2393 H   0  0  0  0  0  0  0  0  0  0  0  0
   40.1452   27.4504   34.7400 H   0  0  0  0  0  0  0  0  0  0  0  0
   38.4618   28.0771   34.7400 H   0  0  0  0  0  0  0  0  0  0  0  0
   39.7647   24.2883   33.9501 H   0  0  0  0  0  0  0  0  0  0  0  0
   39.1469   25.4378   32.7103 H   0  0  0  0  0  0  0  0  0  0  0  0
   43.8614   27.2980   34.2889 H   0  0  0  0  0  0  0  0  0  0  0  0
 16  1  1  6
  2  1  1  0
  2  3  1  0
  4  3  2  0
  4 10  1  0
  5  4  1  0
  6  5  1  0
  7  8  1  0
  7  5  2  0
  8  2  1  0
  9  8  2  0
 10 15  1  0
 10 11  2  0
 11 12  1  0
 12 13  2  0
 14 13  1  0
 15 14  2  0
 16 25  1  0
 16 24  1  0
 16 21  1  0
 17 18  2  0
 18 19  1  0
 18 23  1  0
 20 19  2  0
 21 20  1  0
 22 21  2  0
 22 17  1  0
 25 26  1  0
 26 30  1  0
 27 28  1  0
 27 26  2  0
 28 29  1  0
 29 30  2  0
  1 31  1  0
  1 32  1  0
  3 33  1  0
  6 34  1  0
  6 35  1  0
 11 36  1  0
 12 37  1  0
 13 38  1  0
 14 39  1  0
 15 40  1  0
 17 41  1  0
 19 42  1  0
 23 43  1  0
 23 44  1  0
 24 45  1  0
 24 46  1  0
 24 47  1  0
 25 48  1  0
 25 49  1  0
 29 50  1  0
M  ISO  8  31   8  32   8  33  14  36  14  37  14  38  14  39  14  40  14
M  ISO  8  41  14  42  14  45   8  46   8  47   8  48   8  49   8  50  14
M  END
>  <minimizedAffinity>  (1) 
-6.53616333

>  <minimizedRMSD>  (1) 
1.02918196

$$$$
