
     RDKit          3D

 26 28  0  0  0  0  0  0  0  0999 V2000
   37.9770   24.9790   34.9060 C   0  0  0  0  0  0  0  0  0  0  0  0
   37.7740   24.5970   33.5870 C   0  0  0  0  0  0  0  0  0  0  0  0
   37.2630   25.5210   32.6550 C   0  0  0  0  0  0  0  0  0  0  0  0
   36.9880   26.7690   33.1110 N   0  0  0  0  0  0  0  0  0  0  0  0
   37.1890   27.1220   34.3850 C   0  0  0  0  0  0  0  0  0  0  0  0
   37.6750   26.2310   35.2590 N   0  0  0  0  0  0  0  0  0  0  0  0
   38.4390   24.3020   36.1020 C   0  0  0  0  0  0  0  0  0  0  0  0
   37.7570   24.5810   37.2980 C   0  0  0  0  0  0  0  0  0  0  0  0
   38.0300   24.0920   38.5750 C   0  0  0  0  0  0  0  0  0  0  0  0
   39.1020   23.2410   38.6020 C   0  0  0  0  0  0  0  0  0  0  0  0
   39.8510   22.8880   37.5050 C   0  0  0  0  0  0  0  0  0  0  0  0
   39.4850   23.4360   36.2990 C   0  0  0  0  0  0  0  0  0  0  0  0
   38.0860   23.2610   33.2490 N   0  0  0  0  0  0  0  0  0  0  0  0
   37.4170   22.0650   33.3640 C   0  0  0  0  0  0  0  0  0  0  0  0
   38.1830   21.0720   32.8690 N   0  0  0  0  0  0  0  0  0  0  0  0
   39.3360   21.6380   32.4430 C   0  0  0  0  0  0  0  0  0  0  0  0
   39.2250   22.9580   32.6950 N   0  0  0  0  0  0  0  0  0  0  0  0
   37.0943   25.2433   31.6041 H   0  0  0  0  0  0  0  0  0  0  0  0
   36.9551   28.1448   34.7154 H   0  0  0  0  0  0  0  0  0  0  0  0
   36.9030   25.2696   37.2173 H   0  0  0  0  0  0  0  0  0  0  0  0
   37.4454   24.3617   39.4669 H   0  0  0  0  0  0  0  0  0  0  0  0
   39.3846   22.8080   39.5729 H   0  0  0  0  0  0  0  0  0  0  0  0
   40.7041   22.1986   37.5885 H   0  0  0  0  0  0  0  0  0  0  0  0
   40.0807   23.1569   35.4174 H   0  0  0  0  0  0  0  0  0  0  0  0
   36.4123   21.9381   33.7934 H   0  0  0  0  0  0  0  0  0  0  0  0
   40.1928   21.1239   31.9830 H   0  0  0  0  0  0  0  0  0  0  0  0
  1  6  1  0
  1  7  1  0
  2  1  2  0
  3  4  2  0
  3  2  1  0
  4  5  1  0
  5  6  2  0
  7 12  1  0
  7  8  2  0
  8  9  1  0
  9 10  2  0
 11 10  1  0
 12 11  2  0
 13 14  1  0
 13  2  1  0
 15 14  2  0
 16 17  2  0
 16 15  1  0
 17 13  1  0
  3 18  1  0
  5 19  1  0
  8 20  1  0
  9 21  1  0
 10 22  1  0
 11 23  1  0
 12 24  1  0
 14 25  1  0
 16 26  1  0
M  ISO  8  18  14  19  14  20  14  21  14  22  14  23  14  24  14  25  14
M  ISO  1  26  14
M  END
>  <minimizedAffinity>  (1) 
-4.56879282

>  <minimizedRMSD>  (1) 
4.3818655

$$$$
