
     RDKit          3D

 25 27  0  0  0  0  0  0  0  0999 V2000
   41.1760   23.7160   35.6300 C   0  0  0  0  0  0  0  0  0  0  0  0
   40.7100   22.7830   36.5320 C   0  0  0  0  0  0  0  0  0  0  0  0
   41.5620   21.7880   37.0400 C   0  0  0  0  0  0  0  0  0  0  0  0
   42.8530   21.7820   36.6130 N   0  0  0  0  0  0  0  0  0  0  0  0
   43.3020   22.6890   35.7390 C   0  0  0  0  0  0  0  0  0  0  0  0
   42.4760   23.6100   35.2810 N   0  0  0  0  0  0  0  0  0  0  0  0
   39.3380   22.8970   36.9200 N   0  0  0  0  0  0  0  0  0  0  0  0
   38.1690   22.5920   36.2640 C   0  0  0  0  0  0  0  0  0  0  0  0
   37.1330   22.9020   37.0920 N   0  0  0  0  0  0  0  0  0  0  0  0
   37.6730   23.3930   38.2510 C   0  0  0  0  0  0  0  0  0  0  0  0
   39.0080   23.3690   38.0960 N   0  0  0  0  0  0  0  0  0  0  0  0
   40.4620   24.7880   34.9650 C   0  0  0  0  0  0  0  0  0  0  0  0
   39.9770   24.6290   33.6850 C   0  0  0  0  0  0  0  0  0  0  0  0
   39.2900   25.5400   32.9330 C   0  0  0  0  0  0  0  0  0  0  0  0
   39.0390   26.7680   33.4930 C   0  0  0  0  0  0  0  0  0  0  0  0
   39.5040   26.9670   34.7600 C   0  0  0  0  0  0  0  0  0  0  0  0
   40.1560   25.9990   35.3780 N   0  0  0  0  0  0  0  0  0  0  0  0
   41.1971   21.0394   37.7586 H   0  0  0  0  0  0  0  0  0  0  0  0
   44.3499   22.6674   35.4052 H   0  0  0  0  0  0  0  0  0  0  0  0
   38.0853   22.1723   35.2507 H   0  0  0  0  0  0  0  0  0  0  0  0
   37.1211   23.7398   39.1371 H   0  0  0  0  0  0  0  0  0  0  0  0
   40.1651   23.6535   33.2128 H   0  0  0  0  0  0  0  0  0  0  0  0
   38.9502   25.2980   31.9152 H   0  0  0  0  0  0  0  0  0  0  0  0
   38.4912   27.5511   32.9482 H   0  0  0  0  0  0  0  0  0  0  0  0
   39.3365   27.9299   35.2648 H   0  0  0  0  0  0  0  0  0  0  0  0
  1  2  1  0
  2  7  1  0
  2  3  2  0
  4  3  1  0
  5  4  2  0
  6  1  2  0
  6  5  1  0
  7 11  1  0
  8  7  1  0
  8  9  2  0
  9 10  1  0
 11 10  2  0
 12 17  1  0
 12  1  1  0
 13 12  2  0
 14 15  2  0
 14 13  1  0
 15 16  1  0
 16 17  2  0
  3 18  1  0
  5 19  1  0
  8 20  1  0
 10 21  1  0
 13 22  1  0
 14 23  1  0
 15 24  1  0
 16 25  1  0
M  ISO  8  18  14  19  14  20  14  21  14  22  14  23  14  24  14  25  14
M  END
>  <minimizedAffinity>  (1) 
-3.94223976

>  <minimizedRMSD>  (1) 
5.25197887

$$$$
