
     RDKit          3D

 26 28  0  0  0  0  0  0  0  0999 V2000
   40.4500   24.4140   35.3990 C   0  0  0  0  0  0  0  0  0  0  0  0
   40.4790   25.7080   34.8880 C   0  0  0  0  0  0  0  0  0  0  0  0
   41.7010   26.2270   34.4330 C   0  0  0  0  0  0  0  0  0  0  0  0
   42.8030   25.4150   34.5240 N   0  0  0  0  0  0  0  0  0  0  0  0
   42.7330   24.1640   35.0260 C   0  0  0  0  0  0  0  0  0  0  0  0
   41.5500   23.6680   35.4640 N   0  0  0  0  0  0  0  0  0  0  0  0
   39.2720   23.7220   35.9140 C   0  0  0  0  0  0  0  0  0  0  0  0
   38.6740   23.9070   37.1430 C   0  0  0  0  0  0  0  0  0  0  0  0
   37.5640   23.2110   37.5320 C   0  0  0  0  0  0  0  0  0  0  0  0
   36.9750   22.2800   36.7220 C   0  0  0  0  0  0  0  0  0  0  0  0
   37.5170   22.0480   35.4950 C   0  0  0  0  0  0  0  0  0  0  0  0
   38.6460   22.7640   35.1110 C   0  0  0  0  0  0  0  0  0  0  0  0
   39.2620   26.4170   34.8480 N   0  0  0  0  0  0  0  0  0  0  0  0
   38.6780   27.3030   35.7090 C   0  0  0  0  0  0  0  0  0  0  0  0
   37.4920   27.6980   35.1850 N   0  0  0  0  0  0  0  0  0  0  0  0
   37.3390   27.0600   34.0020 C   0  0  0  0  0  0  0  0  0  0  0  0
   38.4420   26.2680   33.8020 N   0  0  0  0  0  0  0  0  0  0  0  0
   41.7723   27.2440   34.0200 H   0  0  0  0  0  0  0  0  0  0  0  0
   43.6401   23.5442   35.0799 H   0  0  0  0  0  0  0  0  0  0  0  0
   39.1070   24.6428   37.8366 H   0  0  0  0  0  0  0  0  0  0  0  0
   37.1322   23.4053   38.5249 H   0  0  0  0  0  0  0  0  0  0  0  0
   36.0822   21.7302   37.0548 H   0  0  0  0  0  0  0  0  0  0  0  0
   37.0691   21.3059   34.8178 H   0  0  0  0  0  0  0  0  0  0  0  0
   39.0716   22.5646   34.1164 H   0  0  0  0  0  0  0  0  0  0  0  0
   39.1000   27.6395   36.6675 H   0  0  0  0  0  0  0  0  0  0  0  0
   36.4814   27.1586   33.3202 H   0  0  0  0  0  0  0  0  0  0  0  0
  1  6  1  0
  1  7  1  0
  2  1  2  0
  3  4  2  0
  3  2  1  0
  4  5  1  0
  5  6  2  0
  7  8  2  0
  8  9  1  0
 10  9  2  0
 11 10  1  0
 12 11  2  0
 12  7  1  0
 13  2  1  0
 13 14  1  0
 15 14  2  0
 16 15  1  0
 17 16  2  0
 17 13  1  0
  3 18  1  0
  5 19  1  0
  8 20  1  0
  9 21  1  0
 10 22  1  0
 11 23  1  0
 12 24  1  0
 14 25  1  0
 16 26  1  0
M  ISO  8  18  14  19  14  20  14  21  14  22  14  23  14  24  14  25  14
M  ISO  1  26  14
M  END
>  <minimizedAffinity>  (1) 
-3.95887423

>  <minimizedRMSD>  (1) 
4.97829723

$$$$
