
     RDKit          3D

 23 25  0  0  0  0  0  0  0  0999 V2000
   40.1100   23.8650   35.7930 C   0  0  0  0  0  0  0  0  0  0  0  0
   40.2530   25.0420   35.0780 C   0  0  0  0  0  0  0  0  0  0  0  0
   41.4540   25.3280   34.3950 C   0  0  0  0  0  0  0  0  0  0  0  0
   42.4550   24.4060   34.4680 N   0  0  0  0  0  0  0  0  0  0  0  0
   42.3090   23.2750   35.1580 C   0  0  0  0  0  0  0  0  0  0  0  0
   41.1710   23.0360   35.7880 N   0  0  0  0  0  0  0  0  0  0  0  0
   39.1360   25.9260   35.0740 N   0  0  0  0  0  0  0  0  0  0  0  0
   38.8550   27.0580   35.7920 C   0  0  0  0  0  0  0  0  0  0  0  0
   37.6410   27.5320   35.4100 N   0  0  0  0  0  0  0  0  0  0  0  0
   37.1770   26.6720   34.4430 C   0  0  0  0  0  0  0  0  0  0  0  0
   38.1180   25.7210   34.2780 N   0  0  0  0  0  0  0  0  0  0  0  0
   38.9690   23.4150   36.5760 C   0  0  0  0  0  0  0  0  0  0  0  0
   38.7810   23.6500   37.9140 C   0  0  0  0  0  0  0  0  0  0  0  0
   37.6110   23.1000   38.3690 C   0  0  0  0  0  0  0  0  0  0  0  0
   37.0750   22.5240   37.3110 N   0  0  0  0  0  0  0  0  0  0  0  0
   37.8630   22.7170   36.3090 N   0  0  0  0  0  0  0  0  0  0  0  0
   41.5778   26.2605   33.8248 H   0  0  0  0  0  0  0  0  0  0  0  0
   43.1303   22.5446   35.2032 H   0  0  0  0  0  0  0  0  0  0  0  0
   39.5068   27.5098   36.5543 H   0  0  0  0  0  0  0  0  0  0  0  0
   36.2198   26.7459   33.9060 H   0  0  0  0  0  0  0  0  0  0  0  0
   39.4844   24.2121   38.5458 H   0  0  0  0  0  0  0  0  0  0  0  0
   37.2078   23.1321   39.3919 H   0  0  0  0  0  0  0  0  0  0  0  0
   36.1828   22.0098   37.2889 H   0  0  0  0  0  0  0  0  0  0  0  0
  1 12  1  0
  2  1  2  0
  3  4  2  0
  3  2  1  0
  4  5  1  0
  5  6  2  0
  6  1  1  0
  7  2  1  0
  7  8  1  0
  9  8  2  0
 10  9  1  0
 11 10  2  0
 11  7  1  0
 12 13  1  0
 13 14  2  0
 15 14  1  0
 16 12  2  0
 16 15  1  0
  3 17  1  0
  5 18  1  0
  8 19  1  0
 10 20  1  0
 13 21  1  0
 14 22  1  0
 15 23  1  0
M  ISO  7  17  14  18  14  19  14  20  14  21  14  22  14  23   9
M  END
>  <minimizedAffinity>  (1) 
-4.07687283

>  <minimizedRMSD>  (1) 
4.60945892

$$$$
