
     RDKit          3D

 30 33  0  0  0  0  0  0  0  0999 V2000
   39.8980   22.9930   34.0350 C   0  0  0  0  0  0  0  0  0  0  0  0
   40.2230   23.7430   35.1790 C   0  0  0  0  0  0  0  0  0  0  0  0
   41.2940   23.3360   35.9710 C   0  0  0  0  0  0  0  0  0  0  0  0
   41.9820   22.2110   35.5900 N   0  0  0  0  0  0  0  0  0  0  0  0
   41.6570   21.5110   34.4990 C   0  0  0  0  0  0  0  0  0  0  0  0
   40.6310   21.9070   33.7450 N   0  0  0  0  0  0  0  0  0  0  0  0
   38.8070   23.3110   33.1260 C   0  0  0  0  0  0  0  0  0  0  0  0
   38.6250   24.2950   32.1730 C   0  0  0  0  0  0  0  0  0  0  0  0
   37.4340   24.1790   31.5610 N   0  0  0  0  0  0  0  0  0  0  0  0
   36.8120   23.1100   32.1060 C   0  0  0  0  0  0  0  0  0  0  0  0
   35.5580   22.6210   31.7820 C   0  0  0  0  0  0  0  0  0  0  0  0
   35.1130   21.5000   32.4820 C   0  0  0  0  0  0  0  0  0  0  0  0
   35.9130   20.9340   33.4430 C   0  0  0  0  0  0  0  0  0  0  0  0
   37.1710   21.4560   33.7420 C   0  0  0  0  0  0  0  0  0  0  0  0
   37.6200   22.5690   33.0530 C   0  0  0  0  0  0  0  0  0  0  0  0
   39.4270   24.8730   35.4540 N   0  0  0  0  0  0  0  0  0  0  0  0
   38.1980   25.0230   36.0440 C   0  0  0  0  0  0  0  0  0  0  0  0
   37.8630   26.3270   36.0740 N   0  0  0  0  0  0  0  0  0  0  0  0
   38.8970   26.9980   35.4960 C   0  0  0  0  0  0  0  0  0  0  0  0
   39.8450   26.0890   35.1220 N   0  0  0  0  0  0  0  0  0  0  0  0
   41.5792   23.8979   36.8726 H   0  0  0  0  0  0  0  0  0  0  0  0
   42.2320   20.6142   34.2248 H   0  0  0  0  0  0  0  0  0  0  0  0
   39.3639   25.0769   31.9435 H   0  0  0  0  0  0  0  0  0  0  0  0
   37.0652   24.7891   30.8176 H   0  0  0  0  0  0  0  0  0  0  0  0
   34.9396   23.0960   31.0062 H   0  0  0  0  0  0  0  0  0  0  0  0
   34.1238   21.0707   32.2646 H   0  0  0  0  0  0  0  0  0  0  0  0
   35.5539   20.0493   33.9892 H   0  0  0  0  0  0  0  0  0  0  0  0
   37.7984   20.9891   34.5156 H   0  0  0  0  0  0  0  0  0  0  0  0
   37.5790   24.2016   36.4341 H   0  0  0  0  0  0  0  0  0  0  0  0
   38.9584   28.0871   35.3543 H   0  0  0  0  0  0  0  0  0  0  0  0
  1  2  1  0
  2 16  1  0
  2  3  2  0
  4  3  1  0
  5  4  2  0
  6  1  2  0
  6  5  1  0
  7  1  1  0
  8  7  2  0
  9 10  1  0
  9  8  1  0
 10 15  2  0
 11 10  1  0
 11 12  2  0
 12 13  1  0
 13 14  2  0
 15  7  1  0
 15 14  1  0
 16 17  1  0
 17 18  2  0
 19 18  1  0
 20 16  1  0
 20 19  2  0
  3 21  1  0
  5 22  1  0
  8 23  1  0
  9 24  1  0
 11 25  1  0
 12 26  1  0
 13 27  1  0
 14 28  1  0
 17 29  1  0
 19 30  1  0
M  ISO  8  21  14  22  14  23  14  24   9  25  14  26  14  27  14  28  14
M  ISO  2  29  14  30  14
M  END
>  <minimizedAffinity>  (1) 
-4.40004349

>  <minimizedRMSD>  (1) 
5.30967474

$$$$
