
     RDKit          3D

 21 23  0  0  0  0  0  0  0  0999 V2000
   40.1270   24.4090   35.5020 C   0  0  0  0  0  0  0  0  0  0  0  0
   40.1820   25.6910   34.9800 C   0  0  0  0  0  0  0  0  0  0  0  0
   41.4150   26.2650   34.6110 C   0  0  0  0  0  0  0  0  0  0  0  0
   42.5350   25.5130   34.7900 N   0  0  0  0  0  0  0  0  0  0  0  0
   42.4760   24.2780   35.2940 C   0  0  0  0  0  0  0  0  0  0  0  0
   41.3060   23.7590   35.6320 N   0  0  0  0  0  0  0  0  0  0  0  0
   38.9470   26.3840   34.8300 N   0  0  0  0  0  0  0  0  0  0  0  0
   38.2780   27.2850   35.6260 C   0  0  0  0  0  0  0  0  0  0  0  0
   37.1220   27.6280   34.9880 N   0  0  0  0  0  0  0  0  0  0  0  0
   37.0820   26.9480   33.8180 C   0  0  0  0  0  0  0  0  0  0  0  0
   38.2040   26.2070   33.7610 N   0  0  0  0  0  0  0  0  0  0  0  0
   38.9480   23.6780   35.9590 C   0  0  0  0  0  0  0  0  0  0  0  0
   38.1160   23.8220   37.0010 N   0  0  0  0  0  0  0  0  0  0  0  0
   37.1860   22.9210   37.0080 O   0  0  0  0  0  0  0  0  0  0  0  0
   37.3630   22.1480   35.9790 C   0  0  0  0  0  0  0  0  0  0  0  0
   38.4300   22.6050   35.3440 N   0  0  0  0  0  0  0  0  0  0  0  0
   41.4700   27.2816   34.1944 H   0  0  0  0  0  0  0  0  0  0  0  0
   43.3978   23.6929   35.4281 H   0  0  0  0  0  0  0  0  0  0  0  0
   38.6152   27.6617   36.6029 H   0  0  0  0  0  0  0  0  0  0  0  0
   36.2860   26.9926   33.0601 H   0  0  0  0  0  0  0  0  0  0  0  0
   36.7467   21.2832   35.6920 H   0  0  0  0  0  0  0  0  0  0  0  0
  1  6  1  0
  1 12  1  0
  2  1  2  0
  3  4  2  0
  3  2  1  0
  4  5  1  0
  5  6  2  0
  7  2  1  0
  7  8  1  0
  9  8  2  0
 10  9  1  0
 11 10  2  0
 11  7  1  0
 12 13  2  0
 13 14  1  0
 15 14  1  0
 16 12  1  0
 16 15  2  0
  3 17  1  0
  5 18  1  0
  8 19  1  0
 10 20  1  0
 15 21  1  0
M  ISO  5  17  14  18  14  19  14  20  14  21  14
M  END
>  <minimizedAffinity>  (1) 
-3.76927757

>  <minimizedRMSD>  (1) 
4.80019474

$$$$
