
     RDKit          3D

 28 30  0  0  0  0  0  0  0  0999 V2000
   41.1780   23.7620   35.9970 C   0  0  0  0  0  0  0  0  0  0  0  0
   41.3710   24.8640   35.1740 C   0  0  0  0  0  0  0  0  0  0  0  0
   42.6750   25.2280   34.8430 C   0  0  0  0  0  0  0  0  0  0  0  0
   43.6860   24.4720   35.3520 N   0  0  0  0  0  0  0  0  0  0  0  0
   43.4740   23.4160   36.1420 C   0  0  0  0  0  0  0  0  0  0  0  0
   42.2100   23.0520   36.4710 N   0  0  0  0  0  0  0  0  0  0  0  0
   39.9550   23.1870   36.4670 N   0  0  0  0  0  0  0  0  0  0  0  0
   38.9880   23.3410   37.5400 C   0  0  0  0  0  0  0  0  0  0  0  0
   37.6110   23.3320   36.9020 C   0  0  0  0  0  0  0  0  0  0  0  0
   37.8690   22.6320   35.5850 C   0  0  0  0  0  0  0  0  0  0  0  0
   39.2490   22.0630   35.8350 C   0  0  0  0  0  0  0  0  0  0  0  0
   40.2130   25.5310   34.7350 N   0  0  0  0  0  0  0  0  0  0  0  0
   39.5070   26.5970   35.2450 C   0  0  0  0  0  0  0  0  0  0  0  0
   38.4590   26.8720   34.4500 N   0  0  0  0  0  0  0  0  0  0  0  0
   38.5050   25.9690   33.4240 C   0  0  0  0  0  0  0  0  0  0  0  0
   39.5860   25.1740   33.6390 N   0  0  0  0  0  0  0  0  0  0  0  0
   42.8793   26.0932   34.1952 H   0  0  0  0  0  0  0  0  0  0  0  0
   44.3280   22.8395   36.5271 H   0  0  0  0  0  0  0  0  0  0  0  0
   39.0793   22.5084   38.2530 H   0  0  0  0  0  0  0  0  0  0  0  0
   39.1590   24.2777   38.0907 H   0  0  0  0  0  0  0  0  0  0  0  0
   36.8911   22.7715   37.5165 H   0  0  0  0  0  0  0  0  0  0  0  0
   37.1718   24.3342   36.7890 H   0  0  0  0  0  0  0  0  0  0  0  0
   37.8689   23.3398   34.7430 H   0  0  0  0  0  0  0  0  0  0  0  0
   37.1103   21.8849   35.3089 H   0  0  0  0  0  0  0  0  0  0  0  0
   39.2035   21.1946   36.5086 H   0  0  0  0  0  0  0  0  0  0  0  0
   39.7414   21.6975   34.9218 H   0  0  0  0  0  0  0  0  0  0  0  0
   39.7625   27.1422   36.1656 H   0  0  0  0  0  0  0  0  0  0  0  0
   37.7996   25.8993   32.5828 H   0  0  0  0  0  0  0  0  0  0  0  0
  1  7  1  0
  1  6  2  0
  2  1  1  0
  3  2  2  0
  3  4  1  0
  4  5  2  0
  5  6  1  0
  7  8  1  0
  9  8  1  0
 10 11  1  0
 10  9  1  0
 11  7  1  0
 12  2  1  0
 12 13  1  0
 14 13  2  0
 15 16  2  0
 15 14  1  0
 16 12  1  0
  3 17  1  0
  5 18  1  0
  8 19  1  0
  8 20  1  0
  9 21  1  0
  9 22  1  0
 10 23  1  0
 10 24  1  0
 11 25  1  0
 11 26  1  0
 13 27  1  0
 15 28  1  0
M  ISO  8  17  14  18  14  19  13  20  13  21  13  22  13  23  13  24  13
M  ISO  4  25  13  26  13  27  14  28  14
M  END
>  <minimizedAffinity>  (1) 
-3.57257056

>  <minimizedRMSD>  (1) 
4.89976692

$$$$
