
     RDKit          3D

 18 19  0  0  0  0  0  0  0  0999 V2000
   38.4510   22.5690   36.4760 C   0  0  0  0  0  0  0  0  0  0  0  0
   38.7640   22.2680   35.1540 C   0  0  0  0  0  0  0  0  0  0  0  0
   40.1110   22.2210   34.7930 C   0  0  0  0  0  0  0  0  0  0  0  0
   41.0440   22.4730   35.7570 N   0  0  0  0  0  0  0  0  0  0  0  0
   40.7050   22.7600   37.0190 C   0  0  0  0  0  0  0  0  0  0  0  0
   39.4130   22.8050   37.3630 N   0  0  0  0  0  0  0  0  0  0  0  0
   37.1310   22.6560   37.0010 N   0  0  0  0  0  0  0  0  0  0  0  0
   37.6940   22.0290   34.2660 N   0  0  0  0  0  0  0  0  0  0  0  0
   37.3590   22.5690   33.0560 C   0  0  0  0  0  0  0  0  0  0  0  0
   36.2250   21.9910   32.6060 N   0  0  0  0  0  0  0  0  0  0  0  0
   35.8500   21.0760   33.5550 C   0  0  0  0  0  0  0  0  0  0  0  0
   36.7720   21.1240   34.5600 N   0  0  0  0  0  0  0  0  0  0  0  0
   40.4124   21.9876   33.7612 H   0  0  0  0  0  0  0  0  0  0  0  0
   41.4844   22.9579   37.7696 H   0  0  0  0  0  0  0  0  0  0  0  0
   36.3207   22.4887   36.3875 H   0  0  0  0  0  0  0  0  0  0  0  0
   36.9860   22.8862   37.9944 H   0  0  0  0  0  0  0  0  0  0  0  0
   37.9251   23.3524   32.5307 H   0  0  0  0  0  0  0  0  0  0  0  0
   34.9665   20.4219   33.5140 H   0  0  0  0  0  0  0  0  0  0  0  0
  1  7  1  0
  1  6  2  0
  2  1  1  0
  3  2  2  0
  3  4  1  0
  4  5  2  0
  5  6  1  0
  8 12  1  0
  8  2  1  0
  9  8  1  0
 10  9  2  0
 10 11  1  0
 11 12  2  0
  3 13  1  0
  5 14  1  0
  7 15  1  0
  7 16  1  0
  9 17  1  0
 11 18  1  0
M  ISO  4  13  14  14  14  17  14  18  14
M  END
>  <minimizedAffinity>  (1) 
-3.01666594

>  <minimizedRMSD>  (1) 
1.4116168

$$$$
