
     RDKit          3D

 24 25  0  0  0  0  0  0  0  0999 V2000
   37.2190   21.7780   35.1150 C   0  0  0  0  0  0  0  0  0  0  0  0
   37.5730   22.0350   33.8100 C   0  0  0  0  0  0  0  0  0  0  0  0
   38.7240   22.8080   33.5390 C   0  0  0  0  0  0  0  0  0  0  0  0
   39.4390   23.2710   34.6040 N   0  0  0  0  0  0  0  0  0  0  0  0
   39.0740   23.0090   35.8680 C   0  0  0  0  0  0  0  0  0  0  0  0
   37.9800   22.2730   36.1090 N   0  0  0  0  0  0  0  0  0  0  0  0
   36.7640   21.5080   32.7970 N   0  0  0  0  0  0  0  0  0  0  0  0
   35.6410   21.9650   32.1380 C   0  0  0  0  0  0  0  0  0  0  0  0
   35.2460   21.0560   31.2310 N   0  0  0  0  0  0  0  0  0  0  0  0
   36.1220   20.0160   31.3150 C   0  0  0  0  0  0  0  0  0  0  0  0
   37.0140   20.3450   32.2750 N   0  0  0  0  0  0  0  0  0  0  0  0
   36.0740   21.0040   35.6250 C   0  0  0  0  0  0  0  0  0  0  0  0
   35.6700   21.4940   36.9910 C   0  0  0  0  0  0  0  0  0  0  0  0
   34.6240   20.5650   37.4470 N   0  0  0  0  0  0  0  0  0  0  0  0
   39.0323   23.0284   32.5064 H   0  0  0  0  0  0  0  0  0  0  0  0
   39.6718   23.3977   36.7056 H   0  0  0  0  0  0  0  0  0  0  0  0
   35.1442   22.9281   32.3268 H   0  0  0  0  0  0  0  0  0  0  0  0
   36.1062   19.0915   30.7192 H   0  0  0  0  0  0  0  0  0  0  0  0
   35.2250   21.1167   34.9347 H   0  0  0  0  0  0  0  0  0  0  0  0
   36.3656   19.9460   35.6993 H   0  0  0  0  0  0  0  0  0  0  0  0
   36.5295   21.4723   37.6772 H   0  0  0  0  0  0  0  0  0  0  0  0
   35.3096   22.5329   36.9624 H   0  0  0  0  0  0  0  0  0  0  0  0
   34.6049   20.5481   38.4767 H   0  0  0  0  0  0  0  0  0  0  0  0
   33.7090   20.8771   37.0918 H   0  0  0  0  0  0  0  0  0  0  0  0
  1 12  1  0
  1  6  2  0
  2  1  1  0
  3  2  2  0
  3  4  1  0
  4  5  2  0
  5  6  1  0
  7  2  1  0
  8  7  1  0
  9 10  1  0
  9  8  2  0
 10 11  2  0
 11  7  1  0
 12 13  1  0
 13 14  1  0
  3 15  1  0
  5 16  1  0
  8 17  1  0
 10 18  1  0
 12 19  1  0
 12 20  1  0
 13 21  1  0
 13 22  1  0
 14 23  1  0
 14 24  1  0
M  ISO  8  15  14  16  14  17  14  18  14  19   8  20   8  21   8  22   8
M  ISO  2  23   5  24   5
M  END
>  <minimizedAffinity>  (1) 
-3.59476757

>  <minimizedRMSD>  (1) 
1.45498943

$$$$
