
     RDKit          3D

 22 23  0  0  0  0  0  0  0  0999 V2000
   37.0440   22.0450   35.7760 C   0  0  0  0  0  0  0  0  0  0  0  0
   37.8300   22.5300   34.7440 C   0  0  0  0  0  0  0  0  0  0  0  0
   38.7270   23.5850   34.9910 C   0  0  0  0  0  0  0  0  0  0  0  0
   38.7760   24.0870   36.2610 N   0  0  0  0  0  0  0  0  0  0  0  0
   38.0060   23.6020   37.2410 C   0  0  0  0  0  0  0  0  0  0  0  0
   37.1620   22.6030   36.9940 N   0  0  0  0  0  0  0  0  0  0  0  0
   37.6810   21.9380   33.4760 N   0  0  0  0  0  0  0  0  0  0  0  0
   36.7520   22.0540   32.4720 C   0  0  0  0  0  0  0  0  0  0  0  0
   37.0850   21.2520   31.4480 N   0  0  0  0  0  0  0  0  0  0  0  0
   38.2450   20.6140   31.8090 C   0  0  0  0  0  0  0  0  0  0  0  0
   38.5560   21.0680   33.0420 N   0  0  0  0  0  0  0  0  0  0  0  0
   36.0660   20.9260   35.7550 C   0  0  0  0  0  0  0  0  0  0  0  0
   35.1690   21.0140   36.9560 C   0  0  0  0  0  0  0  0  0  0  0  0
   39.3650   23.9906   34.1920 H   0  0  0  0  0  0  0  0  0  0  0  0
   38.0703   24.0293   38.2526 H   0  0  0  0  0  0  0  0  0  0  0  0
   35.8670   22.7065   32.5020 H   0  0  0  0  0  0  0  0  0  0  0  0
   38.8082   19.8803   31.2136 H   0  0  0  0  0  0  0  0  0  0  0  0
   35.4588   20.9885   34.8399 H   0  0  0  0  0  0  0  0  0  0  0  0
   36.6077   19.9688   35.7748 H   0  0  0  0  0  0  0  0  0  0  0  0
   35.7755   20.9545   37.8718 H   0  0  0  0  0  0  0  0  0  0  0  0
   34.6249   21.9698   36.9380 H   0  0  0  0  0  0  0  0  0  0  0  0
   34.4495   20.1821   36.9380 H   0  0  0  0  0  0  0  0  0  0  0  0
  1  6  2  0
  2  3  2  0
  2  1  1  0
  3  4  1  0
  4  5  2  0
  6  5  1  0
  7  2  1  0
  8  7  1  0
  9 10  1  0
  9  8  2  0
 10 11  2  0
 11  7  1  0
 12  1  1  0
 12 13  1  0
  3 14  1  0
  5 15  1  0
  8 16  1  0
 10 17  1  0
 12 18  1  0
 12 19  1  0
 13 20  1  0
 13 21  1  0
 13 22  1  0
M  ISO  8  14  14  15  14  16  14  17  14  18   8  19   8  20   8  21   8
M  ISO  1  22   8
M  END
>  <minimizedAffinity>  (1) 
-3.31268334

>  <minimizedRMSD>  (1) 
2.0426023

$$$$
