
     RDKit          3D

 25 26  0  0  0  0  0  0  0  0999 V2000
   37.3300   22.8330   33.1630 C   0  0  0  0  0  0  0  0  0  0  0  0
   36.3810   22.6560   32.1770 C   0  0  0  0  0  0  0  0  0  0  0  0
   35.8970   23.7760   31.4520 C   0  0  0  0  0  0  0  0  0  0  0  0
   36.4050   24.9990   31.7720 N   0  0  0  0  0  0  0  0  0  0  0  0
   37.3140   25.1440   32.7210 C   0  0  0  0  0  0  0  0  0  0  0  0
   37.7630   24.0890   33.3970 N   0  0  0  0  0  0  0  0  0  0  0  0
   35.9300   21.3530   31.9330 N   0  0  0  0  0  0  0  0  0  0  0  0
   34.9240   20.5750   32.4130 C   0  0  0  0  0  0  0  0  0  0  0  0
   34.9410   19.3640   31.8170 N   0  0  0  0  0  0  0  0  0  0  0  0
   35.9840   19.3790   30.9370 C   0  0  0  0  0  0  0  0  0  0  0  0
   36.5520   20.6010   31.0430 N   0  0  0  0  0  0  0  0  0  0  0  0
   37.9580   21.8190   34.0230 C   0  0  0  0  0  0  0  0  0  0  0  0
   38.0880   22.3370   35.4210 C   0  0  0  0  0  0  0  0  0  0  0  0
   36.9960   22.1000   36.2100 O   0  0  0  0  0  0  0  0  0  0  0  0
   36.0650   21.1020   35.9790 C   0  0  0  0  0  0  0  0  0  0  0  0
   35.0610   21.0210   36.7390 O   0  0  0  0  0  0  0  0  0  0  0  0
   35.1405   23.6610   30.6618 H   0  0  0  0  0  0  0  0  0  0  0  0
   37.7030   26.1462   32.9542 H   0  0  0  0  0  0  0  0  0  0  0  0
   34.1988   20.8879   33.1786 H   0  0  0  0  0  0  0  0  0  0  0  0
   36.2995   18.5601   30.2738 H   0  0  0  0  0  0  0  0  0  0  0  0
   37.3367   20.9113   34.0280 H   0  0  0  0  0  0  0  0  0  0  0  0
   38.9593   21.5861   33.6316 H   0  0  0  0  0  0  0  0  0  0  0  0
   38.9612   21.8570   35.8871 H   0  0  0  0  0  0  0  0  0  0  0  0
   38.1924   23.4294   35.3452 H   0  0  0  0  0  0  0  0  0  0  0  0
   36.1979   20.3929   35.1486 H   0  0  0  0  0  0  0  0  0  0  0  0
  1  6  2  0
  1 12  1  0
  2  1  1  0
  3  4  1  0
  3  2  2  0
  4  5  2  0
  5  6  1  0
  7  2  1  0
  7  8  1  0
  9  8  2  0
 10 11  2  0
 10  9  1  0
 11  7  1  0
 12 13  1  0
 13 14  1  0
 15 14  1  0
 15 16  2  0
  3 17  1  0
  5 18  1  0
  8 19  1  0
 10 20  1  0
 12 21  1  0
 12 22  1  0
 13 23  1  0
 13 24  1  0
 15 25  1  0
M  ISO  8  17  14  18  14  19  14  20  14  21   8  22   8  23   8  24   8
M  ISO  1  25   6
M  END
>  <minimizedAffinity>  (1) 
-3.55876374

>  <minimizedRMSD>  (1) 
2.78733635

$$$$
