
     RDKit          3D

 27 28  0  0  0  0  0  0  0  0999 V2000
   37.9010   23.3670   34.0960 C   0  0  0  0  0  0  0  0  0  0  0  0
   37.2610   23.6110   32.8850 C   0  0  0  0  0  0  0  0  0  0  0  0
   37.1530   24.9390   32.4210 C   0  0  0  0  0  0  0  0  0  0  0  0
   37.6860   25.9340   33.1850 N   0  0  0  0  0  0  0  0  0  0  0  0
   38.2900   25.6690   34.3350 C   0  0  0  0  0  0  0  0  0  0  0  0
   38.3940   24.4280   34.7740 N   0  0  0  0  0  0  0  0  0  0  0  0
   36.7480   22.5130   32.1780 N   0  0  0  0  0  0  0  0  0  0  0  0
   35.5450   21.9050   32.0870 C   0  0  0  0  0  0  0  0  0  0  0  0
   35.6130   20.8640   31.2370 N   0  0  0  0  0  0  0  0  0  0  0  0
   36.9030   20.8160   30.7800 C   0  0  0  0  0  0  0  0  0  0  0  0
   37.5490   21.8340   31.3800 N   0  0  0  0  0  0  0  0  0  0  0  0
   38.1230   22.0770   34.7590 C   0  0  0  0  0  0  0  0  0  0  0  0
   37.8200   22.2120   36.2370 C   0  0  0  0  0  0  0  0  0  0  0  0
   36.4770   22.1580   36.5030 O   0  0  0  0  0  0  0  0  0  0  0  0
   35.6380   21.0680   36.4540 C   0  0  0  0  0  0  0  0  0  0  0  0
   35.0840   20.6190   37.7020 N   0  0  0  0  0  0  0  0  0  0  0  0
   35.4310   20.5570   35.3020 O   0  0  0  0  0  0  0  0  0  0  0  0
   36.6521   25.1653   31.4682 H   0  0  0  0  0  0  0  0  0  0  0  0
   38.7096   26.4930   34.9308 H   0  0  0  0  0  0  0  0  0  0  0  0
   34.6401   22.2161   32.6296 H   0  0  0  0  0  0  0  0  0  0  0  0
   37.3258   20.0926   30.0673 H   0  0  0  0  0  0  0  0  0  0  0  0
   37.4609   21.3182   34.3165 H   0  0  0  0  0  0  0  0  0  0  0  0
   39.1710   21.7708   34.6253 H   0  0  0  0  0  0  0  0  0  0  0  0
   38.3198   21.3937   36.7760 H   0  0  0  0  0  0  0  0  0  0  0  0
   38.1872   23.1954   36.5657 H   0  0  0  0  0  0  0  0  0  0  0  0
   34.4501   19.8074   37.7218 H   0  0  0  0  0  0  0  0  0  0  0  0
   35.3209   21.1088   38.5765 H   0  0  0  0  0  0  0  0  0  0  0  0
  1 12  1  0
  1  6  2  0
  2  1  1  0
  3  2  2  0
  3  4  1  0
  4  5  2  0
  5  6  1  0
  7  2  1  0
  8  7  1  0
  9  8  2  0
 10  9  1  0
 10 11  2  0
 11  7  1  0
 12 13  1  0
 13 14  1  0
 15 14  1  0
 15 16  1  0
 17 15  2  0
  3 18  1  0
  5 19  1  0
  8 20  1  0
 10 21  1  0
 12 22  1  0
 12 23  1  0
 13 24  1  0
 13 25  1  0
 16 26  1  0
 16 27  1  0
M  ISO  8  18  14  19  14  20  14  21  14  22   8  23   8  24   8  25   8
M  END
>  <minimizedAffinity>  (1) 
-4.02436686

>  <minimizedRMSD>  (1) 
2.47335649

$$$$
