
     RDKit          3D

 36 38  0  0  1  0  0  0  0  0999 V2000
   38.5520   22.5990   33.6550 C   0  0  0  0  0  0  0  0  0  0  0  0
   37.7520   23.6150   33.0120 C   0  0  0  0  0  0  0  0  0  0  0  0
   36.9340   23.4770   31.9040 C   0  0  0  0  0  0  0  0  0  0  0  0
   36.2290   24.6040   31.4310 C   0  0  0  0  0  0  0  0  0  0  0  0
   36.3890   25.7860   32.0940 N   0  0  0  0  0  0  0  0  0  0  0  0
   37.1850   25.8810   33.1570 C   0  0  0  0  0  0  0  0  0  0  0  0
   37.8300   24.8190   33.5780 N   0  0  0  0  0  0  0  0  0  0  0  0
   36.8380   22.2030   31.3010 N   0  0  0  0  0  0  0  0  0  0  0  0
   35.8490   21.2880   31.1480 C   0  0  0  0  0  0  0  0  0  0  0  0
   36.2910   20.2180   30.4820 N   0  0  0  0  0  0  0  0  0  0  0  0
   37.6180   20.4700   30.2010 C   0  0  0  0  0  0  0  0  0  0  0  0
   37.8820   21.6780   30.7210 N   0  0  0  0  0  0  0  0  0  0  0  0
   37.8990   22.0220   34.8900 C   0  0  1  0  0  0  0  0  0  0  0  0
   38.1200   22.5590   36.1610 C   0  0  0  0  0  0  0  0  0  0  0  0
   39.4620   22.3540   36.5150 C   0  0  0  0  0  0  0  0  0  0  0  0
   39.9990   22.7950   37.7320 C   0  0  0  0  0  0  0  0  0  0  0  0
   39.1910   23.4590   38.6280 C   0  0  0  0  0  0  0  0  0  0  0  0
   37.8810   23.6420   38.2480 C   0  0  0  0  0  0  0  0  0  0  0  0
   37.4120   23.2150   37.0970 N   0  0  0  0  0  0  0  0  0  0  0  0
   36.5650   21.7430   34.6350 O   0  0  0  0  0  0  0  0  0  0  0  0
   35.8020   20.7270   35.0970 C   0  0  0  0  0  0  0  0  0  0  0  0
   35.4380   20.6580   36.4710 N   0  0  0  0  0  0  0  0  0  0  0  0
   35.4670   19.8830   34.1770 O   0  0  0  0  0  0  0  0  0  0  0  0
   39.5158   23.0435   33.9441 H   0  0  0  0  0  0  0  0  0  0  0  0
   38.6765   21.7762   32.9356 H   0  0  0  0  0  0  0  0  0  0  0  0
   35.5697   24.5319   30.5535 H   0  0  0  0  0  0  0  0  0  0  0  0
   37.3010   26.8427   33.6783 H   0  0  0  0  0  0  0  0  0  0  0  0
   34.8217   21.4104   31.5218 H   0  0  0  0  0  0  0  0  0  0  0  0
   38.3168   19.8143   29.6609 H   0  0  0  0  0  0  0  0  0  0  0  0
   38.4985   21.1116   35.0374 H   0  0  0  0  0  0  0  0  0  0  0  0
   40.1193   21.8257   35.8087 H   0  0  0  0  0  0  0  0  0  0  0  0
   41.0574   22.6123   37.9697 H   0  0  0  0  0  0  0  0  0  0  0  0
   39.5716   23.8229   39.5938 H   0  0  0  0  0  0  0  0  0  0  0  0
   37.1999   24.1662   38.9345 H   0  0  0  0  0  0  0  0  0  0  0  0
   34.8563   19.8790   36.8112 H   0  0  0  0  0  0  0  0  0  0  0  0
   35.7563   21.3870   37.1253 H   0  0  0  0  0  0  0  0  0  0  0  0
  1 13  1  0
  2  7  2  0
  2  1  1  0
  3  2  1  0
  4  3  2  0
  4  5  1  0
  5  6  2  0
  6  7  1  0
  8  3  1  0
  9  8  1  0
 10  9  2  0
 11 10  1  0
 11 12  2  0
 12  8  1  0
 13 14  1  0
 14 15  2  0
 14 19  1  0
 15 16  1  0
 16 17  2  0
 18 17  1  0
 19 18  2  0
 20 13  1  0
 20 21  1  0
 21 22  1  0
 23 21  2  0
  1 24  1  0
  1 25  1  0
  4 26  1  0
  6 27  1  0
  9 28  1  0
 11 29  1  0
 13 30  1  1
 15 31  1  0
 16 32  1  0
 17 33  1  0
 18 34  1  0
 22 35  1  0
 22 36  1  0
M  ISO  8  24   8  25   8  26  14  27  14  28  14  29  14  30   8  31  14
M  ISO  3  32  14  33  14  34  14
M  END
>  <minimizedAffinity>  (1) 
-5.29356146

>  <minimizedRMSD>  (1) 
1.38997591

$$$$
