
     RDKit          3D

 35 37  0  0  1  0  0  0  0  0999 V2000
   38.5330   22.4610   33.3990 C   0  0  0  0  0  0  0  0  0  0  0  0
   37.6660   23.3930   32.7290 C   0  0  0  0  0  0  0  0  0  0  0  0
   36.8310   23.1940   31.6490 C   0  0  0  0  0  0  0  0  0  0  0  0
   36.0690   24.2740   31.1570 C   0  0  0  0  0  0  0  0  0  0  0  0
   36.1950   25.4810   31.7790 N   0  0  0  0  0  0  0  0  0  0  0  0
   37.0050   25.6470   32.8150 C   0  0  0  0  0  0  0  0  0  0  0  0
   37.7140   24.6380   33.2710 N   0  0  0  0  0  0  0  0  0  0  0  0
   36.7900   21.9000   31.0820 N   0  0  0  0  0  0  0  0  0  0  0  0
   35.8450   20.9380   30.9690 C   0  0  0  0  0  0  0  0  0  0  0  0
   36.3410   19.8700   30.3250 N   0  0  0  0  0  0  0  0  0  0  0  0
   37.6400   20.1730   30.0270 C   0  0  0  0  0  0  0  0  0  0  0  0
   37.8600   21.4130   30.5080 N   0  0  0  0  0  0  0  0  0  0  0  0
   37.9390   21.8980   34.6750 C   0  0  1  0  0  0  0  0  0  0  0  0
   38.2880   22.3920   35.9420 C   0  0  0  0  0  0  0  0  0  0  0  0
   39.5930   22.2860   36.4550 C   0  0  0  0  0  0  0  0  0  0  0  0
   40.0150   22.7370   37.6890 C   0  0  0  0  0  0  0  0  0  0  0  0
   39.1000   23.3370   38.4820 N   0  0  0  0  0  0  0  0  0  0  0  0
   37.8430   23.4560   38.0250 C   0  0  0  0  0  0  0  0  0  0  0  0
   37.4830   23.0070   36.8330 N   0  0  0  0  0  0  0  0  0  0  0  0
   36.5800   21.7340   34.5270 O   0  0  0  0  0  0  0  0  0  0  0  0
   35.7710   20.7460   34.9460 C   0  0  0  0  0  0  0  0  0  0  0  0
   35.2660   20.7130   36.2760 N   0  0  0  0  0  0  0  0  0  0  0  0
   35.5220   19.8720   34.0250 O   0  0  0  0  0  0  0  0  0  0  0  0
   39.4723   22.9761   33.6490 H   0  0  0  0  0  0  0  0  0  0  0  0
   38.6928   21.6153   32.7140 H   0  0  0  0  0  0  0  0  0  0  0  0
   35.3938   24.1466   30.2980 H   0  0  0  0  0  0  0  0  0  0  0  0
   37.0844   26.6334   33.2954 H   0  0  0  0  0  0  0  0  0  0  0  0
   34.8166   21.0197   31.3507 H   0  0  0  0  0  0  0  0  0  0  0  0
   38.3622   19.5325   29.4996 H   0  0  0  0  0  0  0  0  0  0  0  0
   38.4852   20.9460   34.7487 H   0  0  0  0  0  0  0  0  0  0  0  0
   40.3446   21.8001   35.8155 H   0  0  0  0  0  0  0  0  0  0  0  0
   41.0581   22.6126   38.0152 H   0  0  0  0  0  0  0  0  0  0  0  0
   37.0887   23.9419   38.6613 H   0  0  0  0  0  0  0  0  0  0  0  0
   34.6474   19.9449   36.5731 H   0  0  0  0  0  0  0  0  0  0  0  0
   35.5190   21.4572   36.9416 H   0  0  0  0  0  0  0  0  0  0  0  0
  1 13  1  0
  2  7  2  0
  2  1  1  0
  3  2  1  0
  4  3  2  0
  4  5  1  0
  5  6  2  0
  6  7  1  0
  8  3  1  0
  9  8  1  0
 10  9  2  0
 11 10  1  0
 11 12  2  0
 12  8  1  0
 13 14  1  0
 14 15  2  0
 14 19  1  0
 15 16  1  0
 16 17  2  0
 18 17  1  0
 19 18  2  0
 20 13  1  0
 20 21  1  0
 21 22  1  0
 23 21  2  0
  1 24  1  0
  1 25  1  0
  4 26  1  0
  6 27  1  0
  9 28  1  0
 11 29  1  0
 13 30  1  1
 15 31  1  0
 16 32  1  0
 18 33  1  0
 22 34  1  0
 22 35  1  0
M  ISO  8  24   8  25   8  26  14  27  14  28  14  29  14  30   8  31  14
M  ISO  2  32  14  33  14
M  END
>  <minimizedAffinity>  (1) 
-5.21017408

>  <minimizedRMSD>  (1) 
1.55233622

$$$$
