
     RDKit          3D

 37 39  0  0  1  0  0  0  0  0999 V2000
   38.5470   22.4310   33.4880 C   0  0  0  0  0  0  0  0  0  0  0  0
   37.6900   23.4110   32.8600 C   0  0  0  0  0  0  0  0  0  0  0  0
   36.8250   23.2270   31.7920 C   0  0  0  0  0  0  0  0  0  0  0  0
   36.0720   24.3270   31.3240 C   0  0  0  0  0  0  0  0  0  0  0  0
   36.2360   25.5260   31.9550 N   0  0  0  0  0  0  0  0  0  0  0  0
   37.0740   25.6650   32.9750 C   0  0  0  0  0  0  0  0  0  0  0  0
   37.7720   24.6320   33.4030 N   0  0  0  0  0  0  0  0  0  0  0  0
   36.7420   21.9390   31.2170 N   0  0  0  0  0  0  0  0  0  0  0  0
   35.7670   21.0070   31.0970 C   0  0  0  0  0  0  0  0  0  0  0  0
   36.2280   19.9290   30.4430 N   0  0  0  0  0  0  0  0  0  0  0  0
   37.5320   20.1920   30.1430 C   0  0  0  0  0  0  0  0  0  0  0  0
   37.7890   21.4180   30.6340 N   0  0  0  0  0  0  0  0  0  0  0  0
   38.0000   21.9510   34.8220 C   0  0  1  0  0  0  0  0  0  0  0  0
   38.4370   22.4700   36.0350 C   0  0  0  0  0  0  0  0  0  0  0  0
   39.6620   22.2210   36.6610 C   0  0  0  0  0  0  0  0  0  0  0  0
   40.0830   22.7300   37.8600 C   0  0  0  0  0  0  0  0  0  0  0  0
   39.2370   23.5730   38.5360 C   0  0  0  0  0  0  0  0  0  0  0  0
   38.0000   23.8950   38.0190 C   0  0  0  0  0  0  0  0  0  0  0  0
   37.6630   23.3410   36.8150 C   0  0  0  0  0  0  0  0  0  0  0  0
   36.6300   21.8220   34.7490 O   0  0  0  0  0  0  0  0  0  0  0  0
   35.8350   20.7970   35.1240 C   0  0  0  0  0  0  0  0  0  0  0  0
   35.4310   20.6260   36.4760 N   0  0  0  0  0  0  0  0  0  0  0  0
   35.4990   20.0270   34.1400 O   0  0  0  0  0  0  0  0  0  0  0  0
   39.5365   22.8820   33.6539 H   0  0  0  0  0  0  0  0  0  0  0  0
   38.6071   21.5606   32.8181 H   0  0  0  0  0  0  0  0  0  0  0  0
   35.3763   24.2206   30.4787 H   0  0  0  0  0  0  0  0  0  0  0  0
   37.1862   26.6440   33.4640 H   0  0  0  0  0  0  0  0  0  0  0  0
   34.7422   21.1175   31.4811 H   0  0  0  0  0  0  0  0  0  0  0  0
   38.2325   19.5344   29.6075 H   0  0  0  0  0  0  0  0  0  0  0  0
   38.5184   20.9854   34.9162 H   0  0  0  0  0  0  0  0  0  0  0  0
   40.3574   21.5485   36.1375 H   0  0  0  0  0  0  0  0  0  0  0  0
   41.0705   22.4709   38.2696 H   0  0  0  0  0  0  0  0  0  0  0  0
   39.5495   23.9969   39.5018 H   0  0  0  0  0  0  0  0  0  0  0  0
   37.3134   24.5689   38.5524 H   0  0  0  0  0  0  0  0  0  0  0  0
   36.6744   23.6085   36.4136 H   0  0  0  0  0  0  0  0  0  0  0  0
   34.8240   19.8355   36.7361 H   0  0  0  0  0  0  0  0  0  0  0  0
   35.7452   21.2926   37.1956 H   0  0  0  0  0  0  0  0  0  0  0  0
  1 13  1  0
  2  7  2  0
  2  1  1  0
  3  2  1  0
  4  3  2  0
  4  5  1  0
  5  6  2  0
  6  7  1  0
  8  3  1  0
  9  8  1  0
 10  9  2  0
 11 10  1  0
 11 12  2  0
 12  8  1  0
 13 14  1  0
 14 15  2  0
 14 19  1  0
 15 16  1  0
 16 17  2  0
 18 17  1  0
 19 18  2  0
 20 13  1  0
 20 21  1  0
 21 22  1  0
 23 21  2  0
  1 24  1  0
  1 25  1  0
  4 26  1  0
  6 27  1  0
  9 28  1  0
 11 29  1  0
 13 30  1  1
 15 31  1  0
 16 32  1  0
 17 33  1  0
 18 34  1  0
 19 35  1  0
 22 36  1  0
 22 37  1  0
M  ISO  8  24   8  25   8  26  14  27  14  28  14  29  14  30   8  31  14
M  ISO  4  32  14  33  14  34  14  35  14
M  END
>  <minimizedAffinity>  (1) 
-5.36056137

>  <minimizedRMSD>  (1) 
1.38955343

$$$$
