
     RDKit          3D

 34 36  0  0  1  0  0  0  0  0999 V2000
   38.5440   22.3250   33.4600 C   0  0  0  0  0  0  0  0  0  0  0  0
   37.6980   23.3080   32.8270 C   0  0  0  0  0  0  0  0  0  0  0  0
   36.8440   23.1330   31.7470 C   0  0  0  0  0  0  0  0  0  0  0  0
   36.1030   24.2390   31.2820 C   0  0  0  0  0  0  0  0  0  0  0  0
   36.2640   25.4340   31.9220 N   0  0  0  0  0  0  0  0  0  0  0  0
   37.0860   25.5630   32.9450 C   0  0  0  0  0  0  0  0  0  0  0  0
   37.7880   24.5250   33.3910 N   0  0  0  0  0  0  0  0  0  0  0  0
   36.7640   21.8510   31.1590 N   0  0  0  0  0  0  0  0  0  0  0  0
   35.7940   20.9120   31.0420 C   0  0  0  0  0  0  0  0  0  0  0  0
   36.2600   19.8460   30.3720 N   0  0  0  0  0  0  0  0  0  0  0  0
   37.5570   20.1240   30.0620 C   0  0  0  0  0  0  0  0  0  0  0  0
   37.8120   21.3490   30.5610 N   0  0  0  0  0  0  0  0  0  0  0  0
   38.0190   21.8780   34.8110 C   0  0  1  0  0  0  0  0  0  0  0  0
   38.5370   22.3540   36.0020 C   0  0  0  0  0  0  0  0  0  0  0  0
   39.7690   22.1450   36.5700 C   0  0  0  0  0  0  0  0  0  0  0  0
   40.0600   22.7000   37.7790 C   0  0  0  0  0  0  0  0  0  0  0  0
   39.0170   23.4890   38.3850 C   0  0  0  0  0  0  0  0  0  0  0  0
   37.5790   23.4130   37.1530 S   0  0  0  0  0  0  0  0  0  0  0  0
   36.6340   21.8490   34.7890 O   0  0  0  0  0  0  0  0  0  0  0  0
   35.7890   20.8440   35.1080 C   0  0  0  0  0  0  0  0  0  0  0  0
   35.2420   20.7400   36.4170 N   0  0  0  0  0  0  0  0  0  0  0  0
   35.5570   20.0400   34.1230 O   0  0  0  0  0  0  0  0  0  0  0  0
   39.5448   22.7600   33.5986 H   0  0  0  0  0  0  0  0  0  0  0  0
   38.5695   21.4407   32.8062 H   0  0  0  0  0  0  0  0  0  0  0  0
   35.4156   24.1417   30.4288 H   0  0  0  0  0  0  0  0  0  0  0  0
   37.1925   26.5416   33.4358 H   0  0  0  0  0  0  0  0  0  0  0  0
   34.7726   21.0091   31.4386 H   0  0  0  0  0  0  0  0  0  0  0  0
   38.2570   19.4768   29.5133 H   0  0  0  0  0  0  0  0  0  0  0  0
   38.4707   20.8777   34.8848 H   0  0  0  0  0  0  0  0  0  0  0  0
   40.5191   21.5310   36.0501 H   0  0  0  0  0  0  0  0  0  0  0  0
   41.0357   22.5544   38.2656 H   0  0  0  0  0  0  0  0  0  0  0  0
   39.0487   24.0180   39.3489 H   0  0  0  0  0  0  0  0  0  0  0  0
   34.5990   19.9688   36.6467 H   0  0  0  0  0  0  0  0  0  0  0  0
   35.4889   21.4359   37.1351 H   0  0  0  0  0  0  0  0  0  0  0  0
  1 13  1  0
  2  7  2  0
  2  1  1  0
  3  2  1  0
  4  3  2  0
  4  5  1  0
  5  6  2  0
  6  7  1  0
  8  3  1  0
  9  8  1  0
 10  9  2  0
 11 10  1  0
 11 12  2  0
 12  8  1  0
 13 14  1  0
 14 15  2  0
 14 18  1  0
 15 16  1  0
 16 17  2  0
 18 17  1  0
 19 13  1  0
 19 20  1  0
 20 21  1  0
 22 20  2  0
  1 23  1  0
  1 24  1  0
  4 25  1  0
  6 26  1  0
  9 27  1  0
 11 28  1  0
 13 29  1  1
 15 30  1  0
 16 31  1  0
 17 32  1  0
 21 33  1  0
 21 34  1  0
M  ISO  8  23   8  24   8  25  14  26  14  27  14  28  14  29   8  30  14
M  ISO  2  31  14  32  14
M  END
>  <minimizedAffinity>  (1) 
-4.89361763

>  <minimizedRMSD>  (1) 
1.49394429

$$$$
