
     RDKit          3D

 40 42  0  0  1  0  0  0  0  0999 V2000
   38.9870   21.6050   33.6290 C   0  0  0  0  0  0  0  0  0  0  0  0
   39.3050   22.5360   32.5750 C   0  0  0  0  0  0  0  0  0  0  0  0
   38.6290   22.8050   31.4050 C   0  0  0  0  0  0  0  0  0  0  0  0
   39.1440   23.7580   30.5080 C   0  0  0  0  0  0  0  0  0  0  0  0
   40.3100   24.3870   30.8390 N   0  0  0  0  0  0  0  0  0  0  0  0
   40.9460   24.1110   31.9750 C   0  0  0  0  0  0  0  0  0  0  0  0
   40.4600   23.2170   32.8130 N   0  0  0  0  0  0  0  0  0  0  0  0
   37.4340   22.0890   31.1660 N   0  0  0  0  0  0  0  0  0  0  0  0
   36.1150   22.3810   31.2270 C   0  0  0  0  0  0  0  0  0  0  0  0
   35.3840   21.3080   30.8860 N   0  0  0  0  0  0  0  0  0  0  0  0
   36.2680   20.3130   30.6050 C   0  0  0  0  0  0  0  0  0  0  0  0
   37.4930   20.8370   30.7890 N   0  0  0  0  0  0  0  0  0  0  0  0
   37.9700   22.1690   34.6190 C   0  0  1  0  0  0  0  0  0  0  0  0
   38.0370   23.4930   34.9870 N   0  0  0  0  0  0  0  0  0  0  0  0
   37.6100   24.5330   34.2400 C   0  0  0  0  0  0  0  0  0  0  0  0
   37.7040   25.8360   34.6630 C   0  0  0  0  0  0  0  0  0  0  0  0
   37.2400   27.0080   33.8600 C   0  0  0  0  0  0  0  0  0  0  0  0
   38.2600   26.0920   35.9080 C   0  0  0  0  0  0  0  0  0  0  0  0
   38.3680   27.2770   36.3430 O   0  0  0  0  0  0  0  0  0  0  0  0
   38.6870   25.0620   36.6590 N   0  0  0  0  0  0  0  0  0  0  0  0
   38.5750   23.8030   36.2030 C   0  0  0  0  0  0  0  0  0  0  0  0
   39.0000   22.8810   36.9650 O   0  0  0  0  0  0  0  0  0  0  0  0
   36.7060   21.7540   34.2930 O   0  0  0  0  0  0  0  0  0  0  0  0
   35.9410   20.7940   34.8530 C   0  0  0  0  0  0  0  0  0  0  0  0
   35.7030   20.7520   36.2560 N   0  0  0  0  0  0  0  0  0  0  0  0
   35.4670   19.9550   33.9910 O   0  0  0  0  0  0  0  0  0  0  0  0
   39.9107   21.3592   34.1734 H   0  0  0  0  0  0  0  0  0  0  0  0
   38.5424   20.7126   33.1644 H   0  0  0  0  0  0  0  0  0  0  0  0
   38.6229   23.9899   29.5674 H   0  0  0  0  0  0  0  0  0  0  0  0
   41.8839   24.6326   32.2164 H   0  0  0  0  0  0  0  0  0  0  0  0
   35.7003   23.3583   31.5150 H   0  0  0  0  0  0  0  0  0  0  0  0
   36.0290   19.2863   30.2905 H   0  0  0  0  0  0  0  0  0  0  0  0
   38.2906   21.7224   35.5718 H   0  0  0  0  0  0  0  0  0  0  0  0
   37.1692   24.3286   33.2531 H   0  0  0  0  0  0  0  0  0  0  0  0
   36.9211   27.8136   34.5377 H   0  0  0  0  0  0  0  0  0  0  0  0
   38.0638   27.3671   33.2257 H   0  0  0  0  0  0  0  0  0  0  0  0
   36.3936   26.7059   33.2257 H   0  0  0  0  0  0  0  0  0  0  0  0
   39.1008   25.2382   37.5856 H   0  0  0  0  0  0  0  0  0  0  0  0
   35.1147   20.0074   36.6565 H   0  0  0  0  0  0  0  0  0  0  0  0
   36.1191   21.4662   36.8706 H   0  0  0  0  0  0  0  0  0  0  0  0
  1 13  1  0
  2  7  1  0
  2  1  1  0
  3  2  2  0
  4  5  2  0
  4  3  1  0
  5  6  1  0
  6  7  2  0
  8  9  1  0
  8  3  1  0
 10  9  2  0
 11 12  2  0
 11 10  1  0
 12  8  1  0
 13 14  1  0
 14 21  1  0
 15 16  2  0
 15 14  1  0
 16 18  1  0
 17 16  1  0
 18 19  2  0
 18 20  1  0
 21 20  1  0
 21 22  2  0
 23 13  1  0
 23 24  1  0
 24 25  1  0
 26 24  2  0
  1 27  1  0
  1 28  1  0
  4 29  1  0
  6 30  1  0
  9 31  1  0
 11 32  1  0
 13 33  1  1
 15 34  1  0
 17 35  1  0
 17 36  1  0
 17 37  1  0
 20 38  1  0
 25 39  1  0
 25 40  1  0
M  ISO  8  27   8  28   8  29  14  30  14  31  14  32  14  33   8  34  14
M  ISO  4  35   8  36   8  37   8  38   9
M  END
>  <minimizedAffinity>  (1) 
-4.60675049

>  <minimizedRMSD>  (1) 
2.56348515

$$$$
