
     RDKit          3D

 19 20  0  0  0  0  0  0  0  0999 V2000
   39.9890   22.7220   37.8210 C   0  0  0  0  0  0  0  0  0  0  0  0
   39.0680   23.4260   38.6370 C   0  0  0  0  0  0  0  0  0  0  0  0
   37.8100   23.7000   38.1010 C   0  0  0  0  0  0  0  0  0  0  0  0
   37.5460   23.2840   36.8460 N   0  0  0  0  0  0  0  0  0  0  0  0
   38.4340   22.6220   36.0950 C   0  0  0  0  0  0  0  0  0  0  0  0
   39.6750   22.3320   36.5800 N   0  0  0  0  0  0  0  0  0  0  0  0
   38.1720   22.1710   34.7660 N   0  0  0  0  0  0  0  0  0  0  0  0
   38.8050   22.1740   33.5580 C   0  0  0  0  0  0  0  0  0  0  0  0
   37.9880   21.5670   32.6650 N   0  0  0  0  0  0  0  0  0  0  0  0
   36.8750   21.1990   33.3130 C   0  0  0  0  0  0  0  0  0  0  0  0
   36.9800   21.5640   34.5960 N   0  0  0  0  0  0  0  0  0  0  0  0
   35.6820   20.4880   32.7260 C   0  0  0  0  0  0  0  0  0  0  0  0
   35.9740   19.8600   31.5530 F   0  0  0  0  0  0  0  0  0  0  0  0
   34.6090   21.3070   32.5500 F   0  0  0  0  0  0  0  0  0  0  0  0
   35.2740   19.4870   33.6180 F   0  0  0  0  0  0  0  0  0  0  0  0
   40.9882   22.4902   38.2184 H   0  0  0  0  0  0  0  0  0  0  0  0
   39.3357   23.7444   39.6553 H   0  0  0  0  0  0  0  0  0  0  0  0
   37.0528   24.2415   38.6870 H   0  0  0  0  0  0  0  0  0  0  0  0
   39.7997   22.5937   33.3472 H   0  0  0  0  0  0  0  0  0  0  0  0
  1  2  2  0
  3  2  1  0
  4  3  2  0
  5  6  2  0
  5  4  1  0
  6  1  1  0
  7  5  1  0
  8  7  1  0
  9 10  1  0
  9  8  2  0
 10 11  2  0
 11  7  1  0
 12 10  1  0
 12 15  1  0
 13 12  1  0
 14 12  1  0
  1 16  1  0
  2 17  1  0
  3 18  1  0
  8 19  1  0
M  ISO  4  16  14  17  14  18  14  19  14
M  END
>  <minimizedAffinity>  (1) 
-4.63255882

>  <minimizedRMSD>  (1) 
1.4027859

$$$$
