
     RDKit          3D

 28 29  0  0  0  0  0  0  0  0999 V2000
   39.9450   22.6160   37.7560 C   0  0  0  0  0  0  0  0  0  0  0  0
   39.0150   23.3860   38.4690 C   0  0  0  0  0  0  0  0  0  0  0  0
   37.8270   23.7270   37.8120 C   0  0  0  0  0  0  0  0  0  0  0  0
   37.6340   23.3030   36.5360 N   0  0  0  0  0  0  0  0  0  0  0  0
   38.5550   22.5660   35.8910 C   0  0  0  0  0  0  0  0  0  0  0  0
   39.7220   22.2150   36.4980 N   0  0  0  0  0  0  0  0  0  0  0  0
   38.4010   22.0960   34.5510 N   0  0  0  0  0  0  0  0  0  0  0  0
   39.1320   22.0130   33.4110 C   0  0  0  0  0  0  0  0  0  0  0  0
   38.3850   21.4440   32.4550 N   0  0  0  0  0  0  0  0  0  0  0  0
   37.1880   21.1710   32.9950 C   0  0  0  0  0  0  0  0  0  0  0  0
   37.1960   21.5660   34.2670 N   0  0  0  0  0  0  0  0  0  0  0  0
   36.0170   20.5280   32.3010 C   0  0  0  0  0  0  0  0  0  0  0  0
   35.5180   19.3620   33.1300 C   0  0  0  0  0  0  0  0  0  0  0  0
   34.9310   21.5490   32.1890 C   0  0  0  0  0  0  0  0  0  0  0  0
   36.4210   19.9800   30.9530 C   0  0  0  0  0  0  0  0  0  0  0  0
   40.8881   22.3322   38.2459 H   0  0  0  0  0  0  0  0  0  0  0  0
   39.2110   23.7088   39.5021 H   0  0  0  0  0  0  0  0  0  0  0  0
   37.0608   24.3296   38.3216 H   0  0  0  0  0  0  0  0  0  0  0  0
   40.1699   22.3571   33.2909 H   0  0  0  0  0  0  0  0  0  0  0  0
   35.6205   19.6015   34.1987 H   0  0  0  0  0  0  0  0  0  0  0  0
   34.4599   19.1724   32.8966 H   0  0  0  0  0  0  0  0  0  0  0  0
   36.1113   18.4656   32.8966 H   0  0  0  0  0  0  0  0  0  0  0  0
   34.6080   21.8527   33.1957 H   0  0  0  0  0  0  0  0  0  0  0  0
   35.3081   22.4272   31.6444 H   0  0  0  0  0  0  0  0  0  0  0  0
   34.0777   21.1185   31.6444 H   0  0  0  0  0  0  0  0  0  0  0  0
   37.0684   19.1018   31.0933 H   0  0  0  0  0  0  0  0  0  0  0  0
   35.5215   19.6865   30.3919 H   0  0  0  0  0  0  0  0  0  0  0  0
   36.9674   20.7525   30.3919 H   0  0  0  0  0  0  0  0  0  0  0  0
  1  2  2  0
  3  2  1  0
  4  3  2  0
  5  6  2  0
  5  4  1  0
  6  1  1  0
  7  5  1  0
  8  7  1  0
  9 10  1  0
  9  8  2  0
 10 11  2  0
 11  7  1  0
 12 10  1  0
 12 13  1  0
 14 12  1  0
 15 12  1  0
  1 16  1  0
  2 17  1  0
  3 18  1  0
  8 19  1  0
 13 20  1  0
 13 21  1  0
 13 22  1  0
 14 23  1  0
 14 24  1  0
 14 25  1  0
 15 26  1  0
 15 27  1  0
 15 28  1  0
M  ISO  8  16  14  17  14  18  14  19  14  20   8  21   8  22   8  23   8
M  ISO  5  24   8  25   8  26   8  27   8  28   8
M  END
>  <minimizedAffinity>  (1) 
-4.66677141

>  <minimizedRMSD>  (1) 
1.72292733

$$$$
