
     RDKit          3D

 22 23  0  0  0  0  0  0  0  0999 V2000
   40.0000   22.5860   37.5230 C   0  0  0  0  0  0  0  0  0  0  0  0
   39.1690   23.2590   38.4470 C   0  0  0  0  0  0  0  0  0  0  0  0
   37.8330   23.5040   38.0570 C   0  0  0  0  0  0  0  0  0  0  0  0
   37.4290   23.0900   36.8410 N   0  0  0  0  0  0  0  0  0  0  0  0
   38.2390   22.4520   35.9840 C   0  0  0  0  0  0  0  0  0  0  0  0
   39.5180   22.2110   36.3410 N   0  0  0  0  0  0  0  0  0  0  0  0
   37.8520   21.9970   34.6920 N   0  0  0  0  0  0  0  0  0  0  0  0
   38.3390   21.9820   33.4320 C   0  0  0  0  0  0  0  0  0  0  0  0
   37.4380   21.3730   32.6330 N   0  0  0  0  0  0  0  0  0  0  0  0
   36.3920   21.0090   33.3930 C   0  0  0  0  0  0  0  0  0  0  0  0
   36.6490   21.3910   34.6500 N   0  0  0  0  0  0  0  0  0  0  0  0
   35.1800   20.3040   32.8860 C   0  0  0  0  0  0  0  0  0  0  0  0
   35.4740   18.8000   32.8610 C   0  0  0  0  0  0  0  0  0  0  0  0
   41.0475   22.3718   37.7816 H   0  0  0  0  0  0  0  0  0  0  0  0
   39.5466   23.5790   39.4294 H   0  0  0  0  0  0  0  0  0  0  0  0
   37.1372   24.0224   38.7331 H   0  0  0  0  0  0  0  0  0  0  0  0
   39.3064   22.3962   33.1115 H   0  0  0  0  0  0  0  0  0  0  0  0
   34.3271   20.5054   33.5508 H   0  0  0  0  0  0  0  0  0  0  0  0
   34.9302   20.6584   31.8751 H   0  0  0  0  0  0  0  0  0  0  0  0
   35.5476   18.4236   33.8920 H   0  0  0  0  0  0  0  0  0  0  0  0
   34.6613   18.2762   32.3365 H   0  0  0  0  0  0  0  0  0  0  0  0
   36.4242   18.6208   32.3365 H   0  0  0  0  0  0  0  0  0  0  0  0
  1  2  2  0
  3  2  1  0
  4  3  2  0
  5  6  2  0
  5  4  1  0
  6  1  1  0
  7  5  1  0
  8  7  1  0
  9 10  1  0
  9  8  2  0
 10 11  2  0
 11  7  1  0
 12 10  1  0
 13 12  1  0
  1 14  1  0
  2 15  1  0
  3 16  1  0
  8 17  1  0
 12 18  1  0
 12 19  1  0
 13 20  1  0
 13 21  1  0
 13 22  1  0
M  ISO  8  14  14  15  14  16  14  17  14  18   8  19   8  20   8  21   8
M  ISO  1  22   8
M  END
>  <minimizedAffinity>  (1) 
-4.23257494

>  <minimizedRMSD>  (1) 
0.780734897

$$$$
