
     RDKit          3D

 18 19  0  0  0  0  0  0  0  0999 V2000
   39.9970   22.6400   37.5610 C   0  0  0  0  0  0  0  0  0  0  0  0
   39.1410   23.2910   38.4820 C   0  0  0  0  0  0  0  0  0  0  0  0
   37.8030   23.5130   38.1020 C   0  0  0  0  0  0  0  0  0  0  0  0
   37.4160   23.0920   36.8810 N   0  0  0  0  0  0  0  0  0  0  0  0
   38.2600   22.4730   36.0250 C   0  0  0  0  0  0  0  0  0  0  0  0
   39.5450   22.2470   36.3600 N   0  0  0  0  0  0  0  0  0  0  0  0
   37.8550   22.0250   34.7300 N   0  0  0  0  0  0  0  0  0  0  0  0
   38.3150   22.0530   33.4650 C   0  0  0  0  0  0  0  0  0  0  0  0
   37.4440   21.4370   32.6600 N   0  0  0  0  0  0  0  0  0  0  0  0
   36.4120   21.0090   33.4300 C   0  0  0  0  0  0  0  0  0  0  0  0
   36.6810   21.3750   34.6700 N   0  0  0  0  0  0  0  0  0  0  0  0
   35.2250   20.2930   33.0330 N   0  0  0  0  0  0  0  0  0  0  0  0
   41.0463   22.4539   37.8335 H   0  0  0  0  0  0  0  0  0  0  0  0
   39.5104   23.6142   39.4664 H   0  0  0  0  0  0  0  0  0  0  0  0
   37.0962   24.0140   38.7799 H   0  0  0  0  0  0  0  0  0  0  0  0
   39.2616   22.5120   33.1436 H   0  0  0  0  0  0  0  0  0  0  0  0
   34.5208   20.0323   33.7380 H   0  0  0  0  0  0  0  0  0  0  0  0
   35.0813   20.0423   32.0444 H   0  0  0  0  0  0  0  0  0  0  0  0
  1  2  2  0
  3  2  1  0
  4  3  2  0
  5  6  2  0
  5  4  1  0
  6  1  1  0
  7  5  1  0
  8  7  1  0
  9 10  1  0
  9  8  2  0
 10 11  2  0
 11  7  1  0
 12 10  1  0
  1 13  1  0
  2 14  1  0
  3 15  1  0
  8 16  1  0
 12 17  1  0
 12 18  1  0
M  ISO  4  13  14  14  14  15  14  16  14
M  END
>  <minimizedAffinity>  (1) 
-3.83609843

>  <minimizedRMSD>  (1) 
0.776733398

$$$$
