
     RDKit          3D

 32 34  0  0  1  0  0  0  0  0999 V2000
   35.3260   20.4200   33.0710 C   0  0  1  0  0  0  0  0  0  0  0  0
   39.9970   22.7640   37.7910 C   0  0  0  0  0  0  0  0  0  0  0  0
   39.1490   23.3820   38.7030 C   0  0  0  0  0  0  0  0  0  0  0  0
   37.8200   23.6030   38.3080 C   0  0  0  0  0  0  0  0  0  0  0  0
   37.4370   23.2060   37.0730 N   0  0  0  0  0  0  0  0  0  0  0  0
   38.2850   22.6100   36.2130 C   0  0  0  0  0  0  0  0  0  0  0  0
   39.5820   22.3840   36.5720 N   0  0  0  0  0  0  0  0  0  0  0  0
   37.9320   22.1750   34.9140 N   0  0  0  0  0  0  0  0  0  0  0  0
   38.4320   22.1960   33.6610 C   0  0  0  0  0  0  0  0  0  0  0  0
   37.5780   21.5790   32.8280 N   0  0  0  0  0  0  0  0  0  0  0  0
   36.5170   21.1630   33.5780 C   0  0  0  0  0  0  0  0  0  0  0  0
   36.7480   21.5310   34.8340 N   0  0  0  0  0  0  0  0  0  0  0  0
   34.9350   20.8940   31.6990 C   0  0  0  0  0  0  0  0  0  0  0  0
   35.6600   18.9400   32.9740 C   0  0  0  0  0  0  0  0  0  0  0  0
   36.0480   18.5030   31.6300 C   0  0  0  0  0  0  0  0  0  0  0  0
   36.5040   19.3510   30.6160 C   0  0  0  0  0  0  0  0  0  0  0  0
   36.7580   18.5510   29.5240 C   0  0  0  0  0  0  0  0  0  0  0  0
   36.4780   17.2860   29.8370 N   0  0  0  0  0  0  0  0  0  0  0  0
   36.0660   17.2810   31.0690 N   0  0  0  0  0  0  0  0  0  0  0  0
   34.4948   20.5959   33.7697 H   0  0  0  0  0  0  0  0  0  0  0  0
   41.0430   22.5802   38.0777 H   0  0  0  0  0  0  0  0  0  0  0  0
   39.5063   23.6867   39.6977 H   0  0  0  0  0  0  0  0  0  0  0  0
   37.1053   24.0888   38.9886 H   0  0  0  0  0  0  0  0  0  0  0  0
   39.3906   22.6484   33.3672 H   0  0  0  0  0  0  0  0  0  0  0  0
   34.2373   21.7398   31.7883 H   0  0  0  0  0  0  0  0  0  0  0  0
   35.8336   21.2161   31.1524 H   0  0  0  0  0  0  0  0  0  0  0  0
   34.4479   20.0730   31.1524 H   0  0  0  0  0  0  0  0  0  0  0  0
   36.4928   18.7277   33.6606 H   0  0  0  0  0  0  0  0  0  0  0  0
   34.7443   18.3894   33.2355 H   0  0  0  0  0  0  0  0  0  0  0  0
   36.6341   20.4415   30.6782 H   0  0  0  0  0  0  0  0  0  0  0  0
   37.1318   18.9000   28.5501 H   0  0  0  0  0  0  0  0  0  0  0  0
   36.5707   16.4673   29.2189 H   0  0  0  0  0  0  0  0  0  0  0  0
  1 11  1  0
  2  3  2  0
  4  3  1  0
  5  4  2  0
  6  7  2  0
  6  5  1  0
  7  2  1  0
  8  6  1  0
  9  8  1  0
 10 11  1  0
 10  9  2  0
 11 12  2  0
 12  8  1  0
 13  1  1  0
 14  1  1  0
 15 14  1  0
 16 15  1  0
 17 18  1  0
 17 16  2  0
 18 19  1  0
 19 15  2  0
  1 20  1  1
  2 21  1  0
  3 22  1  0
  4 23  1  0
  9 24  1  0
 13 25  1  0
 13 26  1  0
 13 27  1  0
 14 28  1  0
 14 29  1  0
 16 30  1  0
 17 31  1  0
 18 32  1  0
M  ISO  8  20   8  21  14  22  14  23  14  24  14  25   8  26   8  27   8
M  ISO  5  28   8  29   8  30  14  31  14  32   9
M  END
>  <minimizedAffinity>  (1) 
-5.10108137

>  <minimizedRMSD>  (1) 
0.777426422

$$$$
