
     RDKit          3D

 30 32  0  0  1  0  0  0  0  0999 V2000
   40.0500   22.5900   37.7090 C   0  0  0  0  0  0  0  0  0  0  0  0
   39.2330   23.3600   38.5350 C   0  0  0  0  0  0  0  0  0  0  0  0
   37.9660   23.6900   38.0790 C   0  0  0  0  0  0  0  0  0  0  0  0
   37.5980   23.2470   36.8590 N   0  0  0  0  0  0  0  0  0  0  0  0
   38.4010   22.5050   36.0760 C   0  0  0  0  0  0  0  0  0  0  0  0
   39.6440   22.1650   36.4950 N   0  0  0  0  0  0  0  0  0  0  0  0
   38.0280   22.0260   34.7890 N   0  0  0  0  0  0  0  0  0  0  0  0
   38.5690   21.9070   33.5600 C   0  0  0  0  0  0  0  0  0  0  0  0
   37.6680   21.3480   32.7320 N   0  0  0  0  0  0  0  0  0  0  0  0
   36.5450   21.1130   33.4490 C   0  0  0  0  0  0  0  0  0  0  0  0
   36.7760   21.5300   34.7010 N   0  0  0  0  0  0  0  0  0  0  0  0
   35.2860   20.4970   32.9560 C   0  0  1  0  0  0  0  0  0  0  0  0
   35.0210   20.8940   31.5290 C   0  0  0  0  0  0  0  0  0  0  0  0
   35.4100   18.9810   33.0130 C   0  0  0  0  0  0  0  0  0  0  0  0
   36.1890   18.4380   31.8870 C   0  0  0  0  0  0  0  0  0  0  0  0
   36.4260   18.6710   30.5820 N   0  0  0  0  0  0  0  0  0  0  0  0
   37.2490   17.8060   30.0990 O   0  0  0  0  0  0  0  0  0  0  0  0
   37.5810   16.9830   31.0450 C   0  0  0  0  0  0  0  0  0  0  0  0
   36.9460   17.3440   32.1600 N   0  0  0  0  0  0  0  0  0  0  0  0
   41.0577   22.3204   38.0582 H   0  0  0  0  0  0  0  0  0  0  0  0
   39.5839   23.6967   39.5217 H   0  0  0  0  0  0  0  0  0  0  0  0
   37.2820   24.2943   38.6929 H   0  0  0  0  0  0  0  0  0  0  0  0
   39.5860   22.2177   33.2787 H   0  0  0  0  0  0  0  0  0  0  0  0
   34.4592   20.8458   33.5921 H   0  0  0  0  0  0  0  0  0  0  0  0
   34.4104   21.8088   31.5103 H   0  0  0  0  0  0  0  0  0  0  0  0
   35.9765   21.0804   31.0168 H   0  0  0  0  0  0  0  0  0  0  0  0
   34.4824   20.0831   31.0168 H   0  0  0  0  0  0  0  0  0  0  0  0
   35.9077   18.7025   33.9536 H   0  0  0  0  0  0  0  0  0  0  0  0
   34.3958   18.5593   32.9531 H   0  0  0  0  0  0  0  0  0  0  0  0
   38.2699   16.1314   30.9442 H   0  0  0  0  0  0  0  0  0  0  0  0
  1  2  2  0
  3  2  1  0
  4  3  2  0
  5  6  2  0
  5  4  1  0
  6  1  1  0
  7  5  1  0
  8  7  1  0
  9 10  1  0
  9  8  2  0
 10 11  2  0
 11  7  1  0
 12 14  1  0
 12 10  1  0
 13 12  1  0
 15 19  1  0
 15 14  1  0
 16 15  2  0
 17 16  1  0
 17 18  1  0
 18 19  2  0
  1 20  1  0
  2 21  1  0
  3 22  1  0
  8 23  1  0
 12 24  1  1
 13 25  1  0
 13 26  1  0
 13 27  1  0
 14 28  1  0
 14 29  1  0
 18 30  1  0
M  ISO  8  20  14  21  14  22  14  23  14  24   8  25   8  26   8  27   8
M  ISO  3  28   8  29   8  30  14
M  END
>  <minimizedAffinity>  (1) 
-4.86881971

>  <minimizedRMSD>  (1) 
0.416189373

$$$$
