
     RDKit          3D

 37 39  0  0  1  0  0  0  0  0999 V2000
   39.9730   22.7060   37.8590 C   0  0  0  0  0  0  0  0  0  0  0  0
   39.0460   23.4490   38.5850 C   0  0  0  0  0  0  0  0  0  0  0  0
   37.8180   23.7500   37.9830 C   0  0  0  0  0  0  0  0  0  0  0  0
   37.6050   23.3000   36.7280 N   0  0  0  0  0  0  0  0  0  0  0  0
   38.5140   22.5860   36.0450 C   0  0  0  0  0  0  0  0  0  0  0  0
   39.7010   22.2860   36.6090 N   0  0  0  0  0  0  0  0  0  0  0  0
   38.3060   22.0980   34.7270 N   0  0  0  0  0  0  0  0  0  0  0  0
   39.0010   21.9910   33.5690 C   0  0  0  0  0  0  0  0  0  0  0  0
   38.2310   21.4090   32.6470 N   0  0  0  0  0  0  0  0  0  0  0  0
   37.0420   21.1430   33.2100 C   0  0  0  0  0  0  0  0  0  0  0  0
   37.1110   21.5730   34.4810 N   0  0  0  0  0  0  0  0  0  0  0  0
   35.8360   20.4740   32.5920 C   0  0  1  0  0  0  0  0  0  0  0  0
   34.8830   21.5820   32.1230 C   0  0  0  0  0  0  0  0  0  0  0  0
   36.2740   19.6980   31.3870 C   0  0  0  0  0  0  0  0  0  0  0  0
   36.2850   18.2940   31.4530 N   0  0  0  0  0  0  0  0  0  0  0  0
   37.4590   17.5910   31.7840 C   0  0  0  0  0  0  0  0  0  0  0  0
   36.9280   16.1380   31.7700 C   0  0  0  0  0  0  0  0  0  0  0  0
   35.5540   16.3100   32.3780 C   0  0  0  0  0  0  0  0  0  0  0  0
   35.3420   17.8000   32.4800 C   0  0  0  0  0  0  0  0  0  0  0  0
   40.9433   22.4581   38.3140 H   0  0  0  0  0  0  0  0  0  0  0  0
   39.2725   23.7909   39.6057 H   0  0  0  0  0  0  0  0  0  0  0  0
   37.0523   24.3337   38.5150 H   0  0  0  0  0  0  0  0  0  0  0  0
   40.0358   22.3300   33.4133 H   0  0  0  0  0  0  0  0  0  0  0  0
   35.3502   19.8046   33.3172 H   0  0  0  0  0  0  0  0  0  0  0  0
   34.4487   22.0869   32.9985 H   0  0  0  0  0  0  0  0  0  0  0  0
   35.4396   22.3122   31.5172 H   0  0  0  0  0  0  0  0  0  0  0  0
   34.0777   21.1409   31.5172 H   0  0  0  0  0  0  0  0  0  0  0  0
   37.2995   20.0186   31.1512 H   0  0  0  0  0  0  0  0  0  0  0  0
   35.5060   19.9228   30.6323 H   0  0  0  0  0  0  0  0  0  0  0  0
   38.2488   17.7424   31.0334 H   0  0  0  0  0  0  0  0  0  0  0  0
   37.9278   17.8996   32.7300 H   0  0  0  0  0  0  0  0  0  0  0  0
   36.8668   15.7429   30.7452 H   0  0  0  0  0  0  0  0  0  0  0  0
   37.5683   15.4226   32.3068 H   0  0  0  0  0  0  0  0  0  0  0  0
   34.7882   15.8561   31.7319 H   0  0  0  0  0  0  0  0  0  0  0  0
   35.4776   15.8188   33.3593 H   0  0  0  0  0  0  0  0  0  0  0  0
   35.6014   18.1768   33.4804 H   0  0  0  0  0  0  0  0  0  0  0  0
   34.3005   18.1198   32.3285 H   0  0  0  0  0  0  0  0  0  0  0  0
  1  2  2  0
  3  2  1  0
  4  3  2  0
  5  6  2  0
  5  4  1  0
  6  1  1  0
  7  5  1  0
  8  7  1  0
  9 10  1  0
  9  8  2  0
 10 11  2  0
 11  7  1  0
 12 10  1  0
 13 12  1  0
 14 15  1  0
 14 12  1  0
 15 16  1  0
 15 19  1  0
 17 16  1  0
 17 18  1  0
 18 19  1  0
  1 20  1  0
  2 21  1  0
  3 22  1  0
  8 23  1  0
 12 24  1  1
 13 25  1  0
 13 26  1  0
 13 27  1  0
 14 28  1  0
 14 29  1  0
 16 30  1  0
 16 31  1  0
 17 32  1  0
 17 33  1  0
 18 34  1  0
 18 35  1  0
 19 36  1  0
 19 37  1  0
M  ISO  8  20  14  21  14  22  14  23  14  24   8  25   8  26   8  27   8
M  ISO  8  28   8  29   8  30  13  31  13  32  13  33  13  34  13  35  13
M  ISO  2  36  13  37  13
M  END
>  <minimizedAffinity>  (1) 
-4.81968594

>  <minimizedRMSD>  (1) 
1.53183448

$$$$
