
     RDKit          3D

 40 42  0  0  1  0  0  0  0  0999 V2000
   36.3690   21.6380   31.9150 C   0  0  1  0  0  0  0  0  0  0  0  0
   39.9800   22.7670   37.8650 C   0  0  0  0  0  0  0  0  0  0  0  0
   38.9580   23.3090   38.6570 C   0  0  0  0  0  0  0  0  0  0  0  0
   37.7640   23.7000   38.0360 C   0  0  0  0  0  0  0  0  0  0  0  0
   37.6610   23.5360   36.7030 N   0  0  0  0  0  0  0  0  0  0  0  0
   38.6580   23.0120   35.9590 C   0  0  0  0  0  0  0  0  0  0  0  0
   39.8330   22.6200   36.5280 N   0  0  0  0  0  0  0  0  0  0  0  0
   38.5790   22.8200   34.5530 N   0  0  0  0  0  0  0  0  0  0  0  0
   39.3600   22.9870   33.4600 C   0  0  0  0  0  0  0  0  0  0  0  0
   38.6760   22.5940   32.3700 N   0  0  0  0  0  0  0  0  0  0  0  0
   37.4480   22.1740   32.7900 C   0  0  0  0  0  0  0  0  0  0  0  0
   37.4120   22.3190   34.1050 N   0  0  0  0  0  0  0  0  0  0  0  0
   35.6060   22.7450   31.2420 C   0  0  0  0  0  0  0  0  0  0  0  0
   37.0060   20.7760   30.8210 C   0  0  0  0  0  0  0  0  0  0  0  0
   36.1990   19.6520   30.4770 N   0  0  0  0  0  0  0  0  0  0  0  0
   36.1300   18.6310   31.4790 C   0  0  0  0  0  0  0  0  0  0  0  0
   37.4700   18.0040   31.7800 C   0  0  0  0  0  0  0  0  0  0  0  0
   37.9200   17.2950   30.4980 C   0  0  0  0  0  0  0  0  0  0  0  0
   37.9670   18.3290   29.4110 C   0  0  0  0  0  0  0  0  0  0  0  0
   36.6610   19.0700   29.2290 C   0  0  0  0  0  0  0  0  0  0  0  0
   35.6778   21.0556   32.5420 H   0  0  0  0  0  0  0  0  0  0  0  0
   40.9214   22.4546   38.3406 H   0  0  0  0  0  0  0  0  0  0  0  0
   39.0905   23.4249   39.7428 H   0  0  0  0  0  0  0  0  0  0  0  0
   36.9357   24.1280   38.6197 H   0  0  0  0  0  0  0  0  0  0  0  0
   40.3873   23.3802   33.4625 H   0  0  0  0  0  0  0  0  0  0  0  0
   35.1565   23.3972   32.0053 H   0  0  0  0  0  0  0  0  0  0  0  0
   36.2912   23.3336   30.6142 H   0  0  0  0  0  0  0  0  0  0  0  0
   34.8121   22.3142   30.6142 H   0  0  0  0  0  0  0  0  0  0  0  0
   37.1513   21.3948   29.9232 H   0  0  0  0  0  0  0  0  0  0  0  0
   37.9633   20.3963   31.2075 H   0  0  0  0  0  0  0  0  0  0  0  0
   35.7357   19.0753   32.4048 H   0  0  0  0  0  0  0  0  0  0  0  0
   35.4757   17.8359   31.0921 H   0  0  0  0  0  0  0  0  0  0  0  0
   38.1977   18.7799   32.0600 H   0  0  0  0  0  0  0  0  0  0  0  0
   37.3973   17.2970   32.6195 H   0  0  0  0  0  0  0  0  0  0  0  0
   38.9174   16.8539   30.6417 H   0  0  0  0  0  0  0  0  0  0  0  0
   37.2241   16.4845   30.2356 H   0  0  0  0  0  0  0  0  0  0  0  0
   38.7508   19.0599   29.6588 H   0  0  0  0  0  0  0  0  0  0  0  0
   38.1740   17.8002   28.4689 H   0  0  0  0  0  0  0  0  0  0  0  0
   36.8061   19.8738   28.4922 H   0  0  0  0  0  0  0  0  0  0  0  0
   35.9031   18.3521   28.8824 H   0  0  0  0  0  0  0  0  0  0  0  0
  1 11  1  0
  2  3  2  0
  4  3  1  0
  5  4  2  0
  6  7  2  0
  6  5  1  0
  7  2  1  0
  8  6  1  0
  9  8  1  0
 10 11  1  0
 10  9  2  0
 11 12  2  0
 12  8  1  0
 13  1  1  0
 14  1  1  0
 15 14  1  0
 15 16  1  0
 16 17  1  0
 18 17  1  0
 19 18  1  0
 20 19  1  0
 20 15  1  0
  1 21  1  1
  2 22  1  0
  3 23  1  0
  4 24  1  0
  9 25  1  0
 13 26  1  0
 13 27  1  0
 13 28  1  0
 14 29  1  0
 14 30  1  0
 16 31  1  0
 16 32  1  0
 17 33  1  0
 17 34  1  0
 18 35  1  0
 18 36  1  0
 19 37  1  0
 19 38  1  0
 20 39  1  0
 20 40  1  0
M  ISO  8  21   8  22  14  23  14  24  14  25  14  26   8  27   8  28   8
M  ISO  8  29   8  30   8  31  13  32  13  33  13  34  13  35  13  36  13
M  ISO  4  37  13  38  13  39  13  40  13
M  END
>  <minimizedAffinity>  (1) 
-4.64554834

>  <minimizedRMSD>  (1) 
2.07719541

$$$$
