
     RDKit          3D

 50 54  0  0  1  0  0  0  0  0999 V2000
   39.0460   23.3650   35.7580 C   0  0  1  0  0  0  0  0  0  0  0  0
   38.5320   24.6370   36.3190 C   0  0  0  0  0  0  0  0  0  0  0  0
   37.8200   24.1920   37.5810 C   0  0  0  0  0  0  0  0  0  0  0  0
   38.7430   23.1760   38.1440 C   0  0  0  0  0  0  0  0  0  0  0  0
   39.4400   22.5590   36.9730 C   0  0  2  0  0  0  0  0  0  0  0  0
   40.9520   22.6520   37.1190 C   0  0  0  0  0  0  0  0  0  0  0  0
   41.6890   21.7550   36.1260 C   0  0  0  0  0  0  0  0  0  0  0  0
   41.7660   21.5310   37.6040 C   0  0  0  0  0  0  0  0  0  0  0  0
   37.8370   22.9380   33.6400 C   0  0  0  0  0  0  0  0  0  0  0  0
   36.8560   22.0970   33.1470 C   0  0  0  0  0  0  0  0  0  0  0  0
   36.5140   21.3040   34.2090 N   0  0  0  0  0  0  0  0  0  0  0  0
   37.2740   21.6910   35.2470 C   0  0  0  0  0  0  0  0  0  0  0  0
   38.1000   22.6930   34.9350 N   0  0  0  0  0  0  0  0  0  0  0  0
   38.5190   23.9710   32.8710 C   0  0  0  0  0  0  0  0  0  0  0  0
   39.6800   23.6500   32.1510 C   0  0  0  0  0  0  0  0  0  0  0  0
   40.3030   24.7090   31.4400 C   0  0  0  0  0  0  0  0  0  0  0  0
   39.7540   25.9430   31.4960 N   0  0  0  0  0  0  0  0  0  0  0  0
   38.6470   26.1960   32.1970 C   0  0  0  0  0  0  0  0  0  0  0  0
   38.0100   25.2290   32.8920 N   0  0  0  0  0  0  0  0  0  0  0  0
   38.1460   27.6070   32.1750 C   0  0  0  0  0  0  0  0  0  0  0  0
   36.7540   27.7420   32.7020 C   0  0  0  0  0  0  0  0  0  0  0  0
   35.9150   27.5990   31.4450 C   0  0  0  0  0  0  0  0  0  0  0  0
   36.6740   28.3290   30.3720 C   0  0  0  0  0  0  0  0  0  0  0  0
   38.1080   28.1420   30.7420 C   0  0  0  0  0  0  0  0  0  0  0  0
   39.8930   23.5318   35.0762 H   0  0  0  0  0  0  0  0  0  0  0  0
   39.3560   25.3272   36.5527 H   0  0  0  0  0  0  0  0  0  0  0  0
   37.8786   25.1841   35.6234 H   0  0  0  0  0  0  0  0  0  0  0  0
   37.6860   25.0333   38.2769 H   0  0  0  0  0  0  0  0  0  0  0  0
   36.8085   23.8025   37.3937 H   0  0  0  0  0  0  0  0  0  0  0  0
   39.4724   23.6525   38.8155 H   0  0  0  0  0  0  0  0  0  0  0  0
   38.2012   22.4219   38.7338 H   0  0  0  0  0  0  0  0  0  0  0  0
   39.1591   21.4983   36.8948 H   0  0  0  0  0  0  0  0  0  0  0  0
   40.9195   23.7068   37.4294 H   0  0  0  0  0  0  0  0  0  0  0  0
   41.1289   21.0565   35.4869 H   0  0  0  0  0  0  0  0  0  0  0  0
   42.4133   21.9071   35.3122 H   0  0  0  0  0  0  0  0  0  0  0  0
   42.7071   21.7322   38.1367 H   0  0  0  0  0  0  0  0  0  0  0  0
   41.5698   20.6694   38.2591 H   0  0  0  0  0  0  0  0  0  0  0  0
   36.4425   22.0711   32.1280 H   0  0  0  0  0  0  0  0  0  0  0  0
   37.2216   21.2324   36.2455 H   0  0  0  0  0  0  0  0  0  0  0  0
   40.0872   22.6282   32.1382 H   0  0  0  0  0  0  0  0  0  0  0  0
   41.2162   24.5287   30.8539 H   0  0  0  0  0  0  0  0  0  0  0  0
   38.8429   28.1701   32.8132 H   0  0  0  0  0  0  0  0  0  0  0  0
   36.5239   26.9471   33.4267 H   0  0  0  0  0  0  0  0  0  0  0  0
   36.5781   28.6832   33.2434 H   0  0  0  0  0  0  0  0  0  0  0  0
   35.7979   26.5380   31.1793 H   0  0  0  0  0  0  0  0  0  0  0  0
   34.9030   28.0084   31.5803 H   0  0  0  0  0  0  0  0  0  0  0  0
   36.4094   29.3967   30.3653 H   0  0  0  0  0  0  0  0  0  0  0  0
   36.4471   27.9497   29.3647 H   0  0  0  0  0  0  0  0  0  0  0  0
   38.5814   27.4212   30.0591 H   0  0  0  0  0  0  0  0  0  0  0  0
   38.6548   29.0936   30.6686 H   0  0  0  0  0  0  0  0  0  0  0  0
  1  2  1  0
  1  5  1  0
  2  3  1  0
  3  4  1  0
  5  6  1  0
  5  4  1  0
  6  8  1  0
  7  6  1  0
  7  8  1  0
  9 13  1  0
 10  9  2  0
 10 11  1  0
 11 12  2  0
 13 12  1  0
 13  1  1  0
 14 19  1  0
 14  9  1  0
 15 14  2  0
 16 17  2  0
 16 15  1  0
 17 18  1  0
 18 19  2  0
 20 18  1  0
 20 21  1  0
 22 21  1  0
 23 24  1  0
 23 22  1  0
 24 20  1  0
  1 25  1  6
  2 26  1  0
  2 27  1  0
  3 28  1  0
  3 29  1  0
  4 30  1  0
  4 31  1  0
  5 32  1  6
  6 33  1  0
  7 34  1  0
  7 35  1  0
  8 36  1  0
  8 37  1  0
 10 38  1  0
 12 39  1  0
 15 40  1  0
 16 41  1  0
 20 42  1  0
 21 43  1  0
 21 44  1  0
 22 45  1  0
 22 46  1  0
 23 47  1  0
 23 48  1  0
 24 49  1  0
 24 50  1  0
M  ISO  8  25  13  26  13  27  13  28  13  29  13  30  13  31  13  32  13
M  ISO  8  33  13  34  13  35  13  36  13  37  13  38  14  39  14  40  14
M  ISO  8  41  14  42  13  43  13  44  13  45  13  46  13  47  13  48  13
M  ISO  2  49  13  50  13
M  END
>  <minimizedAffinity>  (1) 
-5.34784985

>  <minimizedRMSD>  (1) 
1.10238373

$$$$
