
     RDKit          3D

 48 51  0  0  1  0  0  0  0  0999 V2000
   36.2100   21.8180   31.9690 C   0  0  1  0  0  0  0  0  0  0  0  0
   39.9230   22.7070   37.8860 C   0  0  0  0  0  0  0  0  0  0  0  0
   38.9920   23.4370   38.6480 C   0  0  0  0  0  0  0  0  0  0  0  0
   37.8860   23.9690   38.0160 C   0  0  0  0  0  0  0  0  0  0  0  0
   37.7370   23.7630   36.6650 N   0  0  0  0  0  0  0  0  0  0  0  0
   38.6560   23.0540   35.9730 C   0  0  0  0  0  0  0  0  0  0  0  0
   39.7470   22.5270   36.5770 N   0  0  0  0  0  0  0  0  0  0  0  0
   38.5410   22.8100   34.5710 N   0  0  0  0  0  0  0  0  0  0  0  0
   39.3310   22.8430   33.4760 C   0  0  0  0  0  0  0  0  0  0  0  0
   38.6090   22.4940   32.4020 N   0  0  0  0  0  0  0  0  0  0  0  0
   37.3370   22.2370   32.8430 C   0  0  0  0  0  0  0  0  0  0  0  0
   37.3300   22.4360   34.1500 N   0  0  0  0  0  0  0  0  0  0  0  0
   35.4620   23.0150   31.4390 C   0  0  0  0  0  0  0  0  0  0  0  0
   36.7470   21.0670   30.7910 C   0  0  0  0  0  0  0  0  0  0  0  0
   36.5640   19.5870   30.8610 C   0  0  1  0  0  0  0  0  0  0  0  0
   36.7760   18.6850   29.7180 C   0  0  0  0  0  0  0  0  0  0  0  0
   37.7080   18.6980   30.9470 C   0  0  2  0  0  0  0  0  0  0  0  0
   37.4730   17.4670   31.8000 C   0  0  0  0  0  0  0  0  0  0  0  0
   38.3760   16.5990   31.9720 O   0  0  0  0  0  0  0  0  0  0  0  0
   36.3570   17.0810   32.4960 O   0  0  0  0  0  0  0  0  0  0  0  0
   35.3710   16.2320   32.0050 C   0  0  0  0  0  0  0  0  0  0  0  0
   35.9060   15.3980   30.8390 C   0  0  0  0  0  0  0  0  0  0  0  0
   35.1630   14.0990   30.8730 C   0  0  0  0  0  0  0  0  0  0  0  0
   34.2110   14.2100   32.0440 C   0  0  0  0  0  0  0  0  0  0  0  0
   34.9770   15.1360   32.9650 C   0  0  0  0  0  0  0  0  0  0  0  0
   35.5332   21.1922   32.5693 H   0  0  0  0  0  0  0  0  0  0  0  0
   40.8089   22.2787   38.3777 H   0  0  0  0  0  0  0  0  0  0  0  0
   39.1429   23.5811   39.7280 H   0  0  0  0  0  0  0  0  0  0  0  0
   37.1394   24.5458   38.5817 H   0  0  0  0  0  0  0  0  0  0  0  0
   40.3972   23.1133   33.4670 H   0  0  0  0  0  0  0  0  0  0  0  0
   35.0869   23.6153   32.2810 H   0  0  0  0  0  0  0  0  0  0  0  0
   36.1383   23.6275   30.8247 H   0  0  0  0  0  0  0  0  0  0  0  0
   34.6150   22.6756   30.8247 H   0  0  0  0  0  0  0  0  0  0  0  0
   37.8241   21.2761   30.7129 H   0  0  0  0  0  0  0  0  0  0  0  0
   36.1760   21.4105   29.9158 H   0  0  0  0  0  0  0  0  0  0  0  0
   35.6873   19.7816   31.4963 H   0  0  0  0  0  0  0  0  0  0  0  0
   36.0962   17.8379   29.5437 H   0  0  0  0  0  0  0  0  0  0  0  0
   36.8973   18.7992   28.6307 H   0  0  0  0  0  0  0  0  0  0  0  0
   38.7795   18.8420   31.1501 H   0  0  0  0  0  0  0  0  0  0  0  0
   34.5436   16.9175   31.7694 H   0  0  0  0  0  0  0  0  0  0  0  0
   36.9851   15.2224   30.9604 H   0  0  0  0  0  0  0  0  0  0  0  0
   35.7613   15.9153   29.8791 H   0  0  0  0  0  0  0  0  0  0  0  0
   34.6053   13.9502   29.9366 H   0  0  0  0  0  0  0  0  0  0  0  0
   35.8437   13.2415   30.9796 H   0  0  0  0  0  0  0  0  0  0  0  0
   33.2494   14.6495   31.7405 H   0  0  0  0  0  0  0  0  0  0  0  0
   33.9426   13.2449   32.4984 H   0  0  0  0  0  0  0  0  0  0  0  0
   35.8590   14.6393   33.3956 H   0  0  0  0  0  0  0  0  0  0  0  0
   34.4060   15.4815   33.8394 H   0  0  0  0  0  0  0  0  0  0  0  0
  1 11  1  0
  2  3  2  0
  4  3  1  0
  5  4  2  0
  6  7  2  0
  6  5  1  0
  7  2  1  0
  8  6  1  0
  9  8  1  0
 10 11  1  0
 10  9  2  0
 11 12  2  0
 12  8  1  0
 13  1  1  0
 14 15  1  0
 14  1  1  0
 15 17  1  0
 16 15  1  0
 16 17  1  0
 17 18  1  0
 18 19  2  0
 18 20  1  0
 21 20  1  0
 21 25  1  0
 22 23  1  0
 22 21  1  0
 23 24  1  0
 24 25  1  0
  1 26  1  1
  2 27  1  0
  3 28  1  0
  4 29  1  0
  9 30  1  0
 13 31  1  0
 13 32  1  0
 13 33  1  0
 14 34  1  0
 14 35  1  0
 15 36  1  1
 16 37  1  0
 16 38  1  0
 17 39  1  6
 21 40  1  0
 22 41  1  0
 22 42  1  0
 23 43  1  0
 23 44  1  0
 24 45  1  0
 24 46  1  0
 25 47  1  0
 25 48  1  0
M  ISO  8  26   8  27  14  28  14  29  14  30  14  31   8  32   8  33   8
M  ISO  8  34   8  35   8  36  13  37  13  38  13  39  13  40  13  41  13
M  ISO  7  42  13  43  13  44  13  45  13  46  13  47  13  48  13
M  END
>  <minimizedAffinity>  (1) 
-4.76091242

>  <minimizedRMSD>  (1) 
1.21814108

$$$$
