
     RDKit          3D

 42 45  0  0  1  0  0  0  0  0999 V2000
   36.3420   20.8500   32.2480 C   0  0  1  0  0  0  0  0  0  0  0  0
   39.9490   22.7220   38.0090 C   0  0  0  0  0  0  0  0  0  0  0  0
   38.9580   23.4730   38.6690 C   0  0  0  0  0  0  0  0  0  0  0  0
   37.8210   23.8330   37.9760 C   0  0  0  0  0  0  0  0  0  0  0  0
   37.7010   23.4470   36.6690 N   0  0  0  0  0  0  0  0  0  0  0  0
   38.6690   22.7300   36.0690 C   0  0  0  0  0  0  0  0  0  0  0  0
   39.7900   22.3630   36.7230 N   0  0  0  0  0  0  0  0  0  0  0  0
   38.5680   22.3030   34.7050 N   0  0  0  0  0  0  0  0  0  0  0  0
   39.3790   22.2620   33.6100 C   0  0  0  0  0  0  0  0  0  0  0  0
   38.6800   21.7350   32.5950 N   0  0  0  0  0  0  0  0  0  0  0  0
   37.4290   21.4470   33.0640 C   0  0  0  0  0  0  0  0  0  0  0  0
   37.4000   21.8030   34.3410 N   0  0  0  0  0  0  0  0  0  0  0  0
   35.1700   21.7910   32.1280 C   0  0  0  0  0  0  0  0  0  0  0  0
   36.8460   20.5820   30.8640 C   0  0  0  0  0  0  0  0  0  0  0  0
   36.4220   19.2680   30.2920 C   0  0  1  0  0  0  0  0  0  0  0  0
   36.6870   18.8540   28.9050 C   0  0  0  0  0  0  0  0  0  0  0  0
   37.3750   18.1920   30.1070 C   0  0  2  0  0  0  0  0  0  0  0  0
   36.7950   16.8060   30.3540 C   0  0  0  0  0  0  0  0  0  0  0  0
   36.8790   15.8810   29.4980 O   0  0  0  0  0  0  0  0  0  0  0  0
   36.1300   16.3070   31.4490 O   0  0  0  0  0  0  0  0  0  0  0  0
   36.7560   15.3970   32.2870 C   0  0  0  0  0  0  0  0  0  0  0  0
   38.1390   15.4350   32.4640 C   0  0  0  0  0  0  0  0  0  0  0  0
   38.4100   14.4110   33.3430 C   0  0  0  0  0  0  0  0  0  0  0  0
   37.2600   13.7840   33.6830 N   0  0  0  0  0  0  0  0  0  0  0  0
   36.2690   14.3910   33.0360 N   0  0  0  0  0  0  0  0  0  0  0  0
   36.0227   19.9223   32.7455 H   0  0  0  0  0  0  0  0  0  0  0  0
   40.8604   22.4266   38.5495 H   0  0  0  0  0  0  0  0  0  0  0  0
   39.0883   23.7681   39.7207 H   0  0  0  0  0  0  0  0  0  0  0  0
   37.0275   24.4181   38.4639 H   0  0  0  0  0  0  0  0  0  0  0  0
   40.4243   22.6020   33.5670 H   0  0  0  0  0  0  0  0  0  0  0  0
   34.8206   22.0715   33.1326 H   0  0  0  0  0  0  0  0  0  0  0  0
   35.4795   22.6943   31.5819 H   0  0  0  0  0  0  0  0  0  0  0  0
   34.3549   21.2937   31.5819 H   0  0  0  0  0  0  0  0  0  0  0  0
   36.4755   21.3796   30.2033 H   0  0  0  0  0  0  0  0  0  0  0  0
   37.9436   20.5535   30.9316 H   0  0  0  0  0  0  0  0  0  0  0  0
   35.4898   19.3882   30.8635 H   0  0  0  0  0  0  0  0  0  0  0  0
   37.2567   19.5078   28.2282 H   0  0  0  0  0  0  0  0  0  0  0  0
   36.0829   18.5124   28.0516 H   0  0  0  0  0  0  0  0  0  0  0  0
   38.4046   18.0095   30.4485 H   0  0  0  0  0  0  0  0  0  0  0  0
   38.8556   16.1304   32.0026 H   0  0  0  0  0  0  0  0  0  0  0  0
   39.4105   14.1428   33.7132 H   0  0  0  0  0  0  0  0  0  0  0  0
   37.1688   12.9837   34.3249 H   0  0  0  0  0  0  0  0  0  0  0  0
  1 11  1  0
  2  3  2  0
  4  3  1  0
  5  4  2  0
  6  5  1  0
  6  7  2  0
  7  2  1  0
  8  6  1  0
  9  8  1  0
 10 11  1  0
 10  9  2  0
 11 12  2  0
 12  8  1  0
 13  1  1  0
 14  1  1  0
 15 14  1  0
 16 17  1  0
 16 15  1  0
 17 15  1  0
 17 18  1  0
 18 20  1  0
 19 18  2  0
 20 21  1  0
 21 22  1  0
 21 25  2  0
 22 23  2  0
 23 24  1  0
 25 24  1  0
  1 26  1  1
  2 27  1  0
  3 28  1  0
  4 29  1  0
  9 30  1  0
 13 31  1  0
 13 32  1  0
 13 33  1  0
 14 34  1  0
 14 35  1  0
 15 36  1  1
 16 37  1  0
 16 38  1  0
 17 39  1  6
 22 40  1  0
 23 41  1  0
 24 42  1  0
M  ISO  8  26   8  27  14  28  14  29  14  30  14  31   8  32   8  33   8
M  ISO  8  34   8  35   8  36  13  37  13  38  13  39  13  40  14  41  14
M  ISO  1  42   9
M  END
>  <minimizedAffinity>  (1) 
-4.80077028

>  <minimizedRMSD>  (1) 
2.32531118

$$$$
