
     RDKit          3D

 42 45  0  0  1  0  0  0  0  0999 V2000
   36.2410   20.7050   32.3310 C   0  0  1  0  0  0  0  0  0  0  0  0
   39.9780   22.7410   37.9410 C   0  0  0  0  0  0  0  0  0  0  0  0
   38.9880   23.4370   38.6600 C   0  0  0  0  0  0  0  0  0  0  0  0
   37.8040   23.7450   38.0150 C   0  0  0  0  0  0  0  0  0  0  0  0
   37.6390   23.3630   36.7040 N   0  0  0  0  0  0  0  0  0  0  0  0
   38.6250   22.6960   36.0590 C   0  0  0  0  0  0  0  0  0  0  0  0
   39.7930   22.3830   36.6710 N   0  0  0  0  0  0  0  0  0  0  0  0
   38.5020   22.2750   34.7010 N   0  0  0  0  0  0  0  0  0  0  0  0
   39.2510   22.2770   33.5770 C   0  0  0  0  0  0  0  0  0  0  0  0
   38.5490   21.7180   32.5800 N   0  0  0  0  0  0  0  0  0  0  0  0
   37.3310   21.3590   33.1010 C   0  0  0  0  0  0  0  0  0  0  0  0
   37.3360   21.7070   34.3800 N   0  0  0  0  0  0  0  0  0  0  0  0
   35.0090   21.5730   32.2900 C   0  0  0  0  0  0  0  0  0  0  0  0
   36.6920   20.5080   30.9150 C   0  0  0  0  0  0  0  0  0  0  0  0
   36.3440   19.1680   30.3430 C   0  0  1  0  0  0  0  0  0  0  0  0
   36.7200   18.7300   28.9900 C   0  0  0  0  0  0  0  0  0  0  0  0
   37.3190   18.0990   30.2700 C   0  0  2  0  0  0  0  0  0  0  0  0
   36.7780   16.7200   30.4830 C   0  0  0  0  0  0  0  0  0  0  0  0
   37.2060   15.7120   29.8570 O   0  0  0  0  0  0  0  0  0  0  0  0
   35.7810   16.2950   31.3440 O   0  0  0  0  0  0  0  0  0  0  0  0
   35.9900   15.3320   32.3180 C   0  0  0  0  0  0  0  0  0  0  0  0
   34.9250   14.8100   33.0220 C   0  0  0  0  0  0  0  0  0  0  0  0
   35.4650   13.9130   33.8780 N   0  0  0  0  0  0  0  0  0  0  0  0
   36.8090   13.8980   33.6930 C   0  0  0  0  0  0  0  0  0  0  0  0
   37.1440   14.7760   32.7270 N   0  0  0  0  0  0  0  0  0  0  0  0
   36.0063   19.7488   32.8215 H   0  0  0  0  0  0  0  0  0  0  0  0
   40.9255   22.4870   38.4387 H   0  0  0  0  0  0  0  0  0  0  0  0
   39.1519   23.7284   39.7080 H   0  0  0  0  0  0  0  0  0  0  0  0
   37.0058   24.2876   38.5428 H   0  0  0  0  0  0  0  0  0  0  0  0
   40.2735   22.6737   33.4927 H   0  0  0  0  0  0  0  0  0  0  0  0
   34.6863   21.8003   33.3167 H   0  0  0  0  0  0  0  0  0  0  0  0
   35.2382   22.5102   31.7617 H   0  0  0  0  0  0  0  0  0  0  0  0
   34.2036   21.0418   31.7617 H   0  0  0  0  0  0  0  0  0  0  0  0
   36.2213   21.2825   30.2916 H   0  0  0  0  0  0  0  0  0  0  0  0
   37.7899   20.5755   30.9195 H   0  0  0  0  0  0  0  0  0  0  0  0
   35.3685   19.2866   30.8373 H   0  0  0  0  0  0  0  0  0  0  0  0
   37.3356   19.3754   28.3462 H   0  0  0  0  0  0  0  0  0  0  0  0
   36.1896   18.3641   28.0985 H   0  0  0  0  0  0  0  0  0  0  0  0
   38.3133   17.9422   30.7137 H   0  0  0  0  0  0  0  0  0  0  0  0
   33.8616   15.0685   32.9108 H   0  0  0  0  0  0  0  0  0  0  0  0
   37.5177   13.2652   34.2474 H   0  0  0  0  0  0  0  0  0  0  0  0
   38.0901   14.9794   32.3743 H   0  0  0  0  0  0  0  0  0  0  0  0
  1 11  1  0
  2  3  2  0
  4  3  1  0
  5  4  2  0
  6  7  2  0
  6  5  1  0
  7  2  1  0
  8  6  1  0
  9  8  1  0
 10 11  1  0
 10  9  2  0
 11 12  2  0
 12  8  1  0
 13  1  1  0
 14  1  1  0
 15 14  1  0
 16 17  1  0
 16 15  1  0
 17 15  1  0
 17 18  1  0
 18 20  1  0
 19 18  2  0
 20 21  1  0
 21 25  1  0
 21 22  2  0
 22 23  1  0
 24 23  2  0
 25 24  1  0
  1 26  1  1
  2 27  1  0
  3 28  1  0
  4 29  1  0
  9 30  1  0
 13 31  1  0
 13 32  1  0
 13 33  1  0
 14 34  1  0
 14 35  1  0
 15 36  1  1
 16 37  1  0
 16 38  1  0
 17 39  1  6
 22 40  1  0
 24 41  1  0
 25 42  1  0
M  ISO  8  26   8  27  14  28  14  29  14  30  14  31   8  32   8  33   8
M  ISO  8  34   8  35   8  36  13  37  13  38  13  39  13  40  14  41  14
M  ISO  1  42   9
M  END
>  <minimizedAffinity>  (1) 
-4.84308338

>  <minimizedRMSD>  (1) 
1.96470392

$$$$
