
     RDKit          3D

 36 39  0  0  0  0  0  0  0  0999 V2000
   40.3810   22.4020   33.4980 C   0  0  0  0  0  0  0  0  0  0  0  0
   39.9720   23.7340   33.6490 C   0  0  0  0  0  0  0  0  0  0  0  0
   38.5960   24.0090   33.5230 C   0  0  0  0  0  0  0  0  0  0  0  0
   37.7500   22.9770   33.2650 N   0  0  0  0  0  0  0  0  0  0  0  0
   38.1840   21.7120   33.1280 C   0  0  0  0  0  0  0  0  0  0  0  0
   39.4780   21.4350   33.2430 N   0  0  0  0  0  0  0  0  0  0  0  0
   37.3190   20.6030   32.8560 N   0  0  0  0  0  0  0  0  0  0  0  0
   37.4860   19.7410   31.8290 C   0  0  0  0  0  0  0  0  0  0  0  0
   36.5650   18.7250   31.7060 C   0  0  0  0  0  0  0  0  0  0  0  0
   35.5360   18.6120   32.5910 C   0  0  0  0  0  0  0  0  0  0  0  0
   34.7040   17.6780   32.4620 O   0  0  0  0  0  0  0  0  0  0  0  0
   35.3440   19.4470   33.6140 N   0  0  0  0  0  0  0  0  0  0  0  0
   36.2700   20.4430   33.7150 C   0  0  0  0  0  0  0  0  0  0  0  0
   36.1100   21.2590   34.6880 O   0  0  0  0  0  0  0  0  0  0  0  0
   40.8410   24.8270   33.9190 N   0  0  0  0  0  0  0  0  0  0  0  0
   40.3870   26.0620   34.2860 C   0  0  0  0  0  0  0  0  0  0  0  0
   41.4570   26.8600   34.4640 N   0  0  0  0  0  0  0  0  0  0  0  0
   42.5930   26.1800   34.2240 C   0  0  0  0  0  0  0  0  0  0  0  0
   43.9280   26.4930   34.2540 C   0  0  0  0  0  0  0  0  0  0  0  0
   44.8490   25.5340   33.9440 N   0  0  0  0  0  0  0  0  0  0  0  0
   44.4330   24.2830   33.6100 C   0  0  0  0  0  0  0  0  0  0  0  0
   43.1070   23.9740   33.5810 N   0  0  0  0  0  0  0  0  0  0  0  0
   42.1830   24.9080   33.8840 C   0  0  0  0  0  0  0  0  0  0  0  0
   44.2500   27.8310   34.6160 N   0  0  0  0  0  0  0  0  0  0  0  0
   36.6990   17.7550   30.6040 C   0  0  0  0  0  0  0  0  0  0  0  0
   41.4466   22.1442   33.5883 H   0  0  0  0  0  0  0  0  0  0  0  0
   38.2151   25.0353   33.6309 H   0  0  0  0  0  0  0  0  0  0  0  0
   38.3218   19.8464   31.1216 H   0  0  0  0  0  0  0  0  0  0  0  0
   34.5597   19.3473   34.2741 H   0  0  0  0  0  0  0  0  0  0  0  0
   39.3339   26.3531   34.4135 H   0  0  0  0  0  0  0  0  0  0  0  0
   45.1764   23.5116   33.3603 H   0  0  0  0  0  0  0  0  0  0  0  0
   45.2346   28.1306   34.6574 H   0  0  0  0  0  0  0  0  0  0  0  0
   43.4985   28.4999   34.8366 H   0  0  0  0  0  0  0  0  0  0  0  0
   36.8384   16.7458   31.0188 H   0  0  0  0  0  0  0  0  0  0  0  0
   35.7896   17.7748   29.9855 H   0  0  0  0  0  0  0  0  0  0  0  0
   37.5690   18.0206   29.9855 H   0  0  0  0  0  0  0  0  0  0  0  0
  1  2  2  0
  2 15  1  0
  3  2  1  0
  4  3  2  0
  5  6  2  0
  5  4  1  0
  6  1  1  0
  7  5  1  0
  7 13  1  0
  8  7  1  0
  9  8  2  0
  9 10  1  0
 10 12  1  0
 11 10  2  0
 12 13  1  0
 13 14  2  0
 15 16  1  0
 16 17  2  0
 18 19  2  0
 18 17  1  0
 19 24  1  0
 20 19  1  0
 21 20  2  0
 22 21  1  0
 22 23  2  0
 23 15  1  0
 23 18  1  0
 25  9  1  0
  1 26  1  0
  3 27  1  0
  8 28  1  0
 12 29  1  0
 16 30  1  0
 21 31  1  0
 24 32  1  0
 24 33  1  0
 25 34  1  0
 25 35  1  0
 25 36  1  0
M  ISO  8  26  14  27  14  28  14  29   9  30  14  31  14  34   8  35   8
M  ISO  1  36   8
M  END
>  <minimizedAffinity>  (1) 
-4.65437555

>  <minimizedRMSD>  (1) 
4.74799728

$$$$
