
     RDKit          3D

 44 48  0  0  1  0  0  0  0  0999 V2000
   39.0240   23.6660   35.4680 C   0  0  1  0  0  0  0  0  0  0  0  0
   38.4460   24.8550   36.1340 C   0  0  0  0  0  0  0  0  0  0  0  0
   37.6020   24.2490   37.2400 C   0  0  0  0  0  0  0  0  0  0  0  0
   38.4730   23.1690   37.7600 C   0  0  0  0  0  0  0  0  0  0  0  0
   39.2950   22.7040   36.5990 C   0  0  2  0  0  0  0  0  0  0  0  0
   40.7850   22.7690   36.9110 C   0  0  0  0  0  0  0  0  0  0  0  0
   41.5930   21.7540   36.1070 C   0  0  0  0  0  0  0  0  0  0  0  0
   41.4910   21.6820   37.6000 C   0  0  0  0  0  0  0  0  0  0  0  0
   37.8810   23.6580   33.2710 C   0  0  0  0  0  0  0  0  0  0  0  0
   37.0240   22.8520   32.5410 C   0  0  0  0  0  0  0  0  0  0  0  0
   36.7990   21.7690   33.3460 N   0  0  0  0  0  0  0  0  0  0  0  0
   37.5010   21.9690   34.4740 C   0  0  0  0  0  0  0  0  0  0  0  0
   38.1780   23.1170   34.4650 N   0  0  0  0  0  0  0  0  0  0  0  0
   38.4110   24.9430   32.8250 C   0  0  0  0  0  0  0  0  0  0  0  0
   39.7780   25.0790   32.5700 C   0  0  0  0  0  0  0  0  0  0  0  0
   40.2260   26.3590   32.1500 C   0  0  0  0  0  0  0  0  0  0  0  0
   39.3160   27.3540   32.0240 N   0  0  0  0  0  0  0  0  0  0  0  0
   38.0220   27.1750   32.2790 C   0  0  0  0  0  0  0  0  0  0  0  0
   37.5490   25.9740   32.6810 N   0  0  0  0  0  0  0  0  0  0  0  0
   37.0130   28.2810   32.1390 C   0  0  0  0  0  0  0  0  0  0  0  0
   35.5650   28.0040   32.2160 C   0  0  0  0  0  0  0  0  0  0  0  0
   36.2260   28.5690   33.4160 C   0  0  0  0  0  0  0  0  0  0  0  0
   39.9373   23.9155   34.9079 H   0  0  0  0  0  0  0  0  0  0  0  0
   39.2356   25.4998   36.5472 H   0  0  0  0  0  0  0  0  0  0  0  0
   37.8704   25.4976   35.4516 H   0  0  0  0  0  0  0  0  0  0  0  0
   37.3804   24.9907   38.0215 H   0  0  0  0  0  0  0  0  0  0  0  0
   36.6214   23.8903   36.8940 H   0  0  0  0  0  0  0  0  0  0  0  0
   39.1239   23.5546   38.5586 H   0  0  0  0  0  0  0  0  0  0  0  0
   37.8813   22.3467   38.1887 H   0  0  0  0  0  0  0  0  0  0  0  0
   39.0334   21.6635   36.3562 H   0  0  0  0  0  0  0  0  0  0  0  0
   40.7607   23.8511   37.1069 H   0  0  0  0  0  0  0  0  0  0  0  0
   41.0818   21.0095   35.4789 H   0  0  0  0  0  0  0  0  0  0  0  0
   42.4113   21.8001   35.3733 H   0  0  0  0  0  0  0  0  0  0  0  0
   42.3721   21.9104   38.2177 H   0  0  0  0  0  0  0  0  0  0  0  0
   41.1861   20.8995   38.3104 H   0  0  0  0  0  0  0  0  0  0  0  0
   36.6151   23.0405   31.5374 H   0  0  0  0  0  0  0  0  0  0  0  0
   37.5154   21.2606   35.3154 H   0  0  0  0  0  0  0  0  0  0  0  0
   40.4735   24.2351   32.6889 H   0  0  0  0  0  0  0  0  0  0  0  0
   41.2890   26.5386   31.9317 H   0  0  0  0  0  0  0  0  0  0  0  0
   37.6272   28.8279   31.4085 H   0  0  0  0  0  0  0  0  0  0  0  0
   34.8614   28.6233   31.6403 H   0  0  0  0  0  0  0  0  0  0  0  0
   34.9458   27.1137   32.0318 H   0  0  0  0  0  0  0  0  0  0  0  0
   36.3753   27.9464   34.3105 H   0  0  0  0  0  0  0  0  0  0  0  0
   36.0676   29.4469   34.0596 H   0  0  0  0  0  0  0  0  0  0  0  0
  1  2  1  0
  1  5  1  0
  2  3  1  0
  3  4  1  0
  5  6  1  0
  5  4  1  0
  6  8  1  0
  7  6  1  0
  7  8  1  0
  9 13  1  0
 10  9  2  0
 10 11  1  0
 11 12  2  0
 13 12  1  0
 13  1  1  0
 14  9  1  0
 15 14  2  0
 16 15  1  0
 17 16  2  0
 17 18  1  0
 18 19  2  0
 19 14  1  0
 20 21  1  0
 20 18  1  0
 20 22  1  0
 21 22  1  0
  1 23  1  6
  2 24  1  0
  2 25  1  0
  3 26  1  0
  3 27  1  0
  4 28  1  0
  4 29  1  0
  5 30  1  6
  6 31  1  0
  7 32  1  0
  7 33  1  0
  8 34  1  0
  8 35  1  0
 10 36  1  0
 12 37  1  0
 15 38  1  0
 16 39  1  0
 20 40  1  0
 21 41  1  0
 21 42  1  0
 22 43  1  0
 22 44  1  0
M  ISO  8  23  13  24  13  25  13  26  13  27  13  28  13  29  13  30  13
M  ISO  8  31  13  32  13  33  13  34  13  35  13  36  14  37  14  38  14
M  ISO  6  39  14  40  13  41  13  42  13  43  13  44  13
M  END
>  <minimizedAffinity>  (1) 
-5.03495693

>  <minimizedRMSD>  (1) 
0.266747892

$$$$
