
     RDKit          3D

 48 52  0  0  0  0  0  0  0  0999 V2000
   41.1960   22.6100   34.3800 C   0  0  0  0  0  0  0  0  0  0  0  0
   41.1230   23.7580   35.1860 C   0  0  0  0  0  0  0  0  0  0  0  0
   39.8580   24.2370   35.5130 C   0  0  0  0  0  0  0  0  0  0  0  0
   38.7760   23.5890   35.0520 N   0  0  0  0  0  0  0  0  0  0  0  0
   38.8480   22.4990   34.2860 C   0  0  0  0  0  0  0  0  0  0  0  0
   40.0550   22.0080   33.9490 N   0  0  0  0  0  0  0  0  0  0  0  0
   37.7230   21.8050   33.7920 N   0  0  0  0  0  0  0  0  0  0  0  0
   37.5390   21.5260   32.4590 C   0  0  0  0  0  0  0  0  0  0  0  0
   36.4050   20.8440   32.0910 C   0  0  0  0  0  0  0  0  0  0  0  0
   35.5020   20.4660   33.0570 C   0  0  0  0  0  0  0  0  0  0  0  0
   34.4600   19.8390   32.7300 O   0  0  0  0  0  0  0  0  0  0  0  0
   35.6610   20.7260   34.3490 N   0  0  0  0  0  0  0  0  0  0  0  0
   36.7950   21.4050   34.6830 C   0  0  0  0  0  0  0  0  0  0  0  0
   36.9760   21.6660   35.8980 O   0  0  0  0  0  0  0  0  0  0  0  0
   42.4390   24.2420   35.5340 C   0  0  0  0  0  0  0  0  0  0  0  0
   43.1120   23.5430   36.5340 C   0  0  0  0  0  0  0  0  0  0  0  0
   44.3710   23.8840   36.9710 C   0  0  0  0  0  0  0  0  0  0  0  0
   45.0320   24.9440   36.4300 C   0  0  0  0  0  0  0  0  0  0  0  0
   44.3950   25.6480   35.4440 C   0  0  0  0  0  0  0  0  0  0  0  0
   44.9670   26.7460   34.8210 C   0  0  0  0  0  0  0  0  0  0  0  0
   44.3470   27.4670   33.8290 C   0  0  0  0  0  0  0  0  0  0  0  0
   43.0870   27.0900   33.4260 C   0  0  0  0  0  0  0  0  0  0  0  0
   42.4800   26.0080   34.0170 C   0  0  0  0  0  0  0  0  0  0  0  0
   43.1310   25.3050   35.0080 C   0  0  0  0  0  0  0  0  0  0  0  0
   36.1460   20.5130   30.6940 C   0  0  0  0  0  0  0  0  0  0  0  0
   36.6100   19.1860   30.2690 C   0  0  0  0  0  0  0  0  0  0  0  0
   37.1030   18.1660   31.0560 C   0  0  0  0  0  0  0  0  0  0  0  0
   37.5060   16.9610   30.5220 C   0  0  0  0  0  0  0  0  0  0  0  0
   37.3900   16.8250   29.1610 C   0  0  0  0  0  0  0  0  0  0  0  0
   36.9010   17.8280   28.3550 C   0  0  0  0  0  0  0  0  0  0  0  0
   36.5220   18.9840   28.9220 N   0  0  0  0  0  0  0  0  0  0  0  0
   42.1759   22.1978   34.0974 H   0  0  0  0  0  0  0  0  0  0  0  0
   39.7460   25.1337   36.1402 H   0  0  0  0  0  0  0  0  0  0  0  0
   38.2789   21.8400   31.7080 H   0  0  0  0  0  0  0  0  0  0  0  0
   34.9707   20.4330   35.0551 H   0  0  0  0  0  0  0  0  0  0  0  0
   42.6132   22.6780   36.9956 H   0  0  0  0  0  0  0  0  0  0  0  0
   44.8490   23.2935   37.7665 H   0  0  0  0  0  0  0  0  0  0  0  0
   46.0393   25.2240   36.7721 H   0  0  0  0  0  0  0  0  0  0  0  0
   45.9731   27.0576   35.1382 H   0  0  0  0  0  0  0  0  0  0  0  0
   44.8488   28.3294   33.3659 H   0  0  0  0  0  0  0  0  0  0  0  0
   42.5682   27.6515   32.6351 H   0  0  0  0  0  0  0  0  0  0  0  0
   41.4725   25.7022   33.6986 H   0  0  0  0  0  0  0  0  0  0  0  0
   35.0597   20.5627   30.5283 H   0  0  0  0  0  0  0  0  0  0  0  0
   36.7155   21.2408   30.0974 H   0  0  0  0  0  0  0  0  0  0  0  0
   37.1767   18.3190   32.1428 H   0  0  0  0  0  0  0  0  0  0  0  0
   37.8999   16.1508   31.1533 H   0  0  0  0  0  0  0  0  0  0  0  0
   37.7000   15.8774   28.6963 H   0  0  0  0  0  0  0  0  0  0  0  0
   36.8224   17.6849   27.2672 H   0  0  0  0  0  0  0  0  0  0  0  0
  1  2  2  0
  2  3  1  0
  2 15  1  0
  4  3  2  0
  5  4  1  0
  6  5  2  0
  6  1  1  0
  7  5  1  0
  7 13  1  0
  8  7  1  0
  9  8  2  0
  9 10  1  0
 10 12  1  0
 11 10  2  0
 12 13  1  0
 13 14  2  0
 15 16  2  0
 16 17  1  0
 18 17  2  0
 19 18  1  0
 20 19  2  0
 21 20  1  0
 22 21  2  0
 22 23  1  0
 23 24  2  0
 24 19  1  0
 24 15  1  0
 25  9  1  0
 26 25  1  0
 26 27  2  0
 28 27  1  0
 29 28  2  0
 30 31  2  0
 30 29  1  0
 31 26  1  0
  1 32  1  0
  3 33  1  0
  8 34  1  0
 12 35  1  0
 16 36  1  0
 17 37  1  0
 18 38  1  0
 20 39  1  0
 21 40  1  0
 22 41  1  0
 23 42  1  0
 25 43  1  0
 25 44  1  0
 27 45  1  0
 28 46  1  0
 29 47  1  0
 30 48  1  0
M  ISO  8  32  14  33  14  34  14  35   9  36  14  37  14  38  14  39  14
M  ISO  8  40  14  41  14  42  14  43   8  44   8  45  14  46  14  47  14
M  ISO  1  48  14
M  END
>  <minimizedAffinity>  (1) 
-6.02922487

>  <minimizedRMSD>  (1) 
1.62030053

$$$$
