
     RDKit          3D

 46 50  0  0  0  0  0  0  0  0999 V2000
   41.0930   22.6160   34.2970 C   0  0  0  0  0  0  0  0  0  0  0  0
   41.0210   23.7420   35.1420 C   0  0  0  0  0  0  0  0  0  0  0  0
   39.7530   24.1960   35.4850 C   0  0  0  0  0  0  0  0  0  0  0  0
   38.6720   23.5530   35.0030 N   0  0  0  0  0  0  0  0  0  0  0  0
   38.7590   22.4770   34.1950 C   0  0  0  0  0  0  0  0  0  0  0  0
   39.9550   22.0180   33.8490 N   0  0  0  0  0  0  0  0  0  0  0  0
   37.6350   21.7940   33.6830 N   0  0  0  0  0  0  0  0  0  0  0  0
   37.4490   21.5650   32.3360 C   0  0  0  0  0  0  0  0  0  0  0  0
   36.3060   20.8830   31.9650 C   0  0  0  0  0  0  0  0  0  0  0  0
   35.4190   20.4660   32.9150 C   0  0  0  0  0  0  0  0  0  0  0  0
   34.3760   19.8430   32.5760 O   0  0  0  0  0  0  0  0  0  0  0  0
   35.5790   20.6770   34.2170 N   0  0  0  0  0  0  0  0  0  0  0  0
   36.7160   21.3540   34.5630 C   0  0  0  0  0  0  0  0  0  0  0  0
   36.8950   21.5690   35.7880 O   0  0  0  0  0  0  0  0  0  0  0  0
   42.3310   24.2160   35.4930 C   0  0  0  0  0  0  0  0  0  0  0  0
   43.0120   23.5250   36.4900 C   0  0  0  0  0  0  0  0  0  0  0  0
   44.2610   23.8490   36.9280 C   0  0  0  0  0  0  0  0  0  0  0  0
   44.9290   24.9180   36.3790 C   0  0  0  0  0  0  0  0  0  0  0  0
   44.2890   25.6210   35.3970 C   0  0  0  0  0  0  0  0  0  0  0  0
   44.8780   26.7140   34.7810 C   0  0  0  0  0  0  0  0  0  0  0  0
   44.2510   27.4400   33.7840 C   0  0  0  0  0  0  0  0  0  0  0  0
   42.9790   27.0700   33.3740 C   0  0  0  0  0  0  0  0  0  0  0  0
   42.3760   25.9900   33.9700 C   0  0  0  0  0  0  0  0  0  0  0  0
   43.0230   25.2830   34.9600 C   0  0  0  0  0  0  0  0  0  0  0  0
   36.0520   20.6220   30.5480 C   0  0  0  0  0  0  0  0  0  0  0  0
   36.5950   19.3080   30.0990 C   0  0  0  0  0  0  0  0  0  0  0  0
   36.6750   18.8630   28.7940 C   0  0  0  0  0  0  0  0  0  0  0  0
   37.2440   17.5870   28.8010 C   0  0  0  0  0  0  0  0  0  0  0  0
   37.4790   17.3340   30.1510 C   0  0  0  0  0  0  0  0  0  0  0  0
   37.0820   18.3660   30.8500 O   0  0  0  0  0  0  0  0  0  0  0  0
   42.0740   22.2184   33.9980 H   0  0  0  0  0  0  0  0  0  0  0  0
   39.6336   25.0700   36.1422 H   0  0  0  0  0  0  0  0  0  0  0  0
   38.1790   21.9103   31.5891 H   0  0  0  0  0  0  0  0  0  0  0  0
   34.8953   20.3537   34.9162 H   0  0  0  0  0  0  0  0  0  0  0  0
   42.5107   22.6628   36.9540 H   0  0  0  0  0  0  0  0  0  0  0  0
   44.7357   23.2542   37.7223 H   0  0  0  0  0  0  0  0  0  0  0  0
   45.9382   25.1964   36.7166 H   0  0  0  0  0  0  0  0  0  0  0  0
   45.8867   27.0171   35.0982 H   0  0  0  0  0  0  0  0  0  0  0  0
   44.7558   28.3011   33.3217 H   0  0  0  0  0  0  0  0  0  0  0  0
   42.4611   27.6330   32.5835 H   0  0  0  0  0  0  0  0  0  0  0  0
   41.3670   25.6864   33.6542 H   0  0  0  0  0  0  0  0  0  0  0  0
   34.9653   20.6305   30.3778 H   0  0  0  0  0  0  0  0  0  0  0  0
   36.5603   21.4071   29.9690 H   0  0  0  0  0  0  0  0  0  0  0  0
   36.3471   19.4177   27.9025 H   0  0  0  0  0  0  0  0  0  0  0  0
   37.4568   16.9344   27.9414 H   0  0  0  0  0  0  0  0  0  0  0  0
   37.9254   16.4164   30.5618 H   0  0  0  0  0  0  0  0  0  0  0  0
  1  2  2  0
  2  3  1  0
  2 15  1  0
  4  3  2  0
  5  4  1  0
  6  5  2  0
  6  1  1  0
  7  5  1  0
  7 13  1  0
  8  7  1  0
  9  8  2  0
  9 10  1  0
 10 12  1  0
 11 10  2  0
 12 13  1  0
 13 14  2  0
 15 16  2  0
 16 17  1  0
 18 17  2  0
 19 18  1  0
 20 19  2  0
 21 20  1  0
 22 21  2  0
 22 23  1  0
 23 24  2  0
 24 19  1  0
 24 15  1  0
 25  9  1  0
 26 25  1  0
 26 30  1  0
 27 28  1  0
 27 26  2  0
 28 29  2  0
 29 30  1  0
  1 31  1  0
  3 32  1  0
  8 33  1  0
 12 34  1  0
 16 35  1  0
 17 36  1  0
 18 37  1  0
 20 38  1  0
 21 39  1  0
 22 40  1  0
 23 41  1  0
 25 42  1  0
 25 43  1  0
 27 44  1  0
 28 45  1  0
 29 46  1  0
M  ISO  8  31  14  32  14  33  14  34   9  35  14  36  14  37  14  38  14
M  ISO  8  39  14  40  14  41  14  42   8  43   8  44  14  45  14  46  14
M  END
>  <minimizedAffinity>  (1) 
-5.9488945

>  <minimizedRMSD>  (1) 
0.684896231

$$$$
