
     RDKit          3D

 46 50  0  0  0  0  0  0  0  0999 V2000
   41.2660   23.9970   34.6240 C   0  0  0  0  0  0  0  0  0  0  0  0
   41.2580   25.3910   34.7960 C   0  0  0  0  0  0  0  0  0  0  0  0
   40.0950   25.9650   35.3270 C   0  0  0  0  0  0  0  0  0  0  0  0
   39.0640   25.1650   35.6390 N   0  0  0  0  0  0  0  0  0  0  0  0
   39.0920   23.8360   35.4680 C   0  0  0  0  0  0  0  0  0  0  0  0
   40.1790   23.2540   34.9660 N   0  0  0  0  0  0  0  0  0  0  0  0
   38.0070   22.9800   35.7970 N   0  0  0  0  0  0  0  0  0  0  0  0
   37.4460   22.1000   34.8940 C   0  0  0  0  0  0  0  0  0  0  0  0
   36.3970   21.3260   35.3430 C   0  0  0  0  0  0  0  0  0  0  0  0
   35.9570   21.4480   36.6310 C   0  0  0  0  0  0  0  0  0  0  0  0
   34.9970   20.7310   37.0250 O   0  0  0  0  0  0  0  0  0  0  0  0
   36.4790   22.2850   37.5160 N   0  0  0  0  0  0  0  0  0  0  0  0
   37.5140   23.0400   37.0490 C   0  0  0  0  0  0  0  0  0  0  0  0
   38.0390   23.8520   37.8630 O   0  0  0  0  0  0  0  0  0  0  0  0
   42.4970   25.9900   34.3750 C   0  0  0  0  0  0  0  0  0  0  0  0
   43.6280   25.6850   35.1360 C   0  0  0  0  0  0  0  0  0  0  0  0
   44.8830   26.1770   34.8550 C   0  0  0  0  0  0  0  0  0  0  0  0
   45.0720   27.0120   33.7830 C   0  0  0  0  0  0  0  0  0  0  0  0
   43.9840   27.3280   33.0210 C   0  0  0  0  0  0  0  0  0  0  0  0
   44.0650   28.1570   31.9230 C   0  0  0  0  0  0  0  0  0  0  0  0
   42.9790   28.4930   31.1340 C   0  0  0  0  0  0  0  0  0  0  0  0
   41.7470   27.9680   31.4660 C   0  0  0  0  0  0  0  0  0  0  0  0
   41.6230   27.1400   32.5490 C   0  0  0  0  0  0  0  0  0  0  0  0
   42.7210   26.8300   33.3070 C   0  0  0  0  0  0  0  0  0  0  0  0
   35.7630   20.3760   34.4140 C   0  0  0  0  0  0  0  0  0  0  0  0
   36.0840   20.7190   33.0070 C   0  0  0  0  0  0  0  0  0  0  0  0
   35.1290   21.5030   32.3530 C   0  0  0  0  0  0  0  0  0  0  0  0
   35.5500   21.7340   31.1020 N   0  0  0  0  0  0  0  0  0  0  0  0
   36.7580   21.1160   30.9310 C   0  0  0  0  0  0  0  0  0  0  0  0
   37.0470   20.5150   32.0990 N   0  0  0  0  0  0  0  0  0  0  0  0
   42.1572   23.5028   34.2100 H   0  0  0  0  0  0  0  0  0  0  0  0
   40.0286   27.0515   35.4851 H   0  0  0  0  0  0  0  0  0  0  0  0
   37.8190   22.0197   33.8623 H   0  0  0  0  0  0  0  0  0  0  0  0
   36.1298   22.3595   38.4821 H   0  0  0  0  0  0  0  0  0  0  0  0
   43.5102   25.0185   36.0031 H   0  0  0  0  0  0  0  0  0  0  0  0
   45.7362   25.8998   35.4916 H   0  0  0  0  0  0  0  0  0  0  0  0
   46.0679   27.4139   33.5451 H   0  0  0  0  0  0  0  0  0  0  0  0
   45.0477   28.5749   31.6591 H   0  0  0  0  0  0  0  0  0  0  0  0
   43.0946   29.1597   30.2668 H   0  0  0  0  0  0  0  0  0  0  0  0
   40.8632   28.2152   30.8596 H   0  0  0  0  0  0  0  0  0  0  0  0
   40.6395   26.7227   32.8111 H   0  0  0  0  0  0  0  0  0  0  0  0
   36.1294   19.3616   34.6302 H   0  0  0  0  0  0  0  0  0  0  0  0
   34.6724   20.4268   34.5486 H   0  0  0  0  0  0  0  0  0  0  0  0
   34.1891   21.8690   32.7919 H   0  0  0  0  0  0  0  0  0  0  0  0
   37.3720   21.1114   30.0183 H   0  0  0  0  0  0  0  0  0  0  0  0
   37.9014   19.9668   32.2732 H   0  0  0  0  0  0  0  0  0  0  0  0
  1  2  2  0
  1  6  1  0
  2  3  1  0
  3  4  2  0
  5  4  1  0
  5  7  1  0
  6  5  2  0
  7 13  1  0
  8  9  2  0
  8  7  1  0
  9 10  1  0
 10 11  2  0
 10 12  1  0
 13 12  1  0
 13 14  2  0
 15  2  1  0
 15 16  2  0
 17 16  1  0
 18 17  2  0
 19 24  2  0
 19 18  1  0
 20 19  1  0
 21 22  1  0
 21 20  2  0
 22 23  2  0
 23 24  1  0
 24 15  1  0
 25  9  1  0
 26 25  1  0
 27 26  2  0
 28 27  1  0
 29 28  2  0
 29 30  1  0
 30 26  1  0
  1 31  1  0
  3 32  1  0
  8 33  1  0
 12 34  1  0
 16 35  1  0
 17 36  1  0
 18 37  1  0
 20 38  1  0
 21 39  1  0
 22 40  1  0
 23 41  1  0
 25 42  1  0
 25 43  1  0
 27 44  1  0
 29 45  1  0
 30 46  1  0
M  ISO  8  31  14  32  14  33  14  34   9  35  14  36  14  37  14  38  14
M  ISO  8  39  14  40  14  41  14  42   8  43   8  44  14  45  14  46   9
M  END
>  <minimizedAffinity>  (1) 
-6.05762148

>  <minimizedRMSD>  (1) 
3.20857716

$$$$
