
     RDKit          3D

 51 55  0  0  0  0  0  0  0  0999 V2000
   41.2170   22.5710   34.3770 C   0  0  0  0  0  0  0  0  0  0  0  0
   41.1150   23.7450   35.1460 C   0  0  0  0  0  0  0  0  0  0  0  0
   39.8390   24.2310   35.4120 C   0  0  0  0  0  0  0  0  0  0  0  0
   38.7730   23.5710   34.9320 N   0  0  0  0  0  0  0  0  0  0  0  0
   38.8770   22.4520   34.1980 C   0  0  0  0  0  0  0  0  0  0  0  0
   40.0900   21.9570   33.9230 N   0  0  0  0  0  0  0  0  0  0  0  0
   37.7700   21.7450   33.6870 N   0  0  0  0  0  0  0  0  0  0  0  0
   37.6320   21.4280   32.3510 C   0  0  0  0  0  0  0  0  0  0  0  0
   36.5190   20.7350   31.9600 C   0  0  0  0  0  0  0  0  0  0  0  0
   35.5770   20.3790   32.9080 C   0  0  0  0  0  0  0  0  0  0  0  0
   34.5410   19.7420   32.5820 O   0  0  0  0  0  0  0  0  0  0  0  0
   35.6810   20.6710   34.2070 N   0  0  0  0  0  0  0  0  0  0  0  0
   36.8130   21.3670   34.5590 C   0  0  0  0  0  0  0  0  0  0  0  0
   36.9490   21.6600   35.7720 O   0  0  0  0  0  0  0  0  0  0  0  0
   42.4180   24.2350   35.5250 C   0  0  0  0  0  0  0  0  0  0  0  0
   43.0730   23.5570   36.5490 C   0  0  0  0  0  0  0  0  0  0  0  0
   44.3210   23.9070   37.0180 C   0  0  0  0  0  0  0  0  0  0  0  0
   44.9810   24.9720   36.4700 C   0  0  0  0  0  0  0  0  0  0  0  0
   44.3600   25.6660   35.4520 C   0  0  0  0  0  0  0  0  0  0  0  0
   44.9610   26.7520   34.8490 C   0  0  0  0  0  0  0  0  0  0  0  0
   44.3560   27.4580   33.8330 C   0  0  0  0  0  0  0  0  0  0  0  0
   43.1020   27.0680   33.3970 C   0  0  0  0  0  0  0  0  0  0  0  0
   42.4850   25.9900   33.9820 C   0  0  0  0  0  0  0  0  0  0  0  0
   43.1170   25.3020   35.0010 C   0  0  0  0  0  0  0  0  0  0  0  0
   36.3000   20.3620   30.5740 C   0  0  0  0  0  0  0  0  0  0  0  0
   37.2860   19.3720   30.2000 N   0  0  0  0  0  0  0  0  0  0  0  0
   38.1140   19.7690   29.1120 C   0  0  0  0  0  0  0  0  0  0  0  0
   37.8150   18.8800   27.9510 C   0  0  0  0  0  0  0  0  0  0  0  0
   36.8190   17.8830   28.4730 C   0  0  0  0  0  0  0  0  0  0  0  0
   36.7750   18.0720   29.9460 C   0  0  0  0  0  0  0  0  0  0  0  0
   42.2059   22.1500   34.1430 H   0  0  0  0  0  0  0  0  0  0  0  0
   39.7050   25.1454   36.0086 H   0  0  0  0  0  0  0  0  0  0  0  0
   38.3975   21.7250   31.6190 H   0  0  0  0  0  0  0  0  0  0  0  0
   34.9656   20.3950   34.8947 H   0  0  0  0  0  0  0  0  0  0  0  0
   42.5673   22.6952   37.0089 H   0  0  0  0  0  0  0  0  0  0  0  0
   44.7853   23.3306   37.8317 H   0  0  0  0  0  0  0  0  0  0  0  0
   45.9777   25.2667   36.8302 H   0  0  0  0  0  0  0  0  0  0  0  0
   45.9583   27.0648   35.1919 H   0  0  0  0  0  0  0  0  0  0  0  0
   44.8626   28.3200   33.3744 H   0  0  0  0  0  0  0  0  0  0  0  0
   42.6023   27.6185   32.5863 H   0  0  0  0  0  0  0  0  0  0  0  0
   41.4884   25.6739   33.6401 H   0  0  0  0  0  0  0  0  0  0  0  0
   35.2903   19.9410   30.4589 H   0  0  0  0  0  0  0  0  0  0  0  0
   36.3933   21.2473   29.9279 H   0  0  0  0  0  0  0  0  0  0  0  0
   37.9020   20.8148   28.8448 H   0  0  0  0  0  0  0  0  0  0  0  0
   39.1747   19.6861   29.3913 H   0  0  0  0  0  0  0  0  0  0  0  0
   38.7280   18.3714   27.6079 H   0  0  0  0  0  0  0  0  0  0  0  0
   37.4255   19.4417   27.0892 H   0  0  0  0  0  0  0  0  0  0  0  0
   35.8274   18.0697   28.0350 H   0  0  0  0  0  0  0  0  0  0  0  0
   37.1064   16.8544   28.2096 H   0  0  0  0  0  0  0  0  0  0  0  0
   35.7395   17.9929   30.3087 H   0  0  0  0  0  0  0  0  0  0  0  0
   37.3670   17.3031   30.4640 H   0  0  0  0  0  0  0  0  0  0  0  0
  1  2  2  0
  2  3  1  0
  2 15  1  0
  4  3  2  0
  5  4  1  0
  6  5  2  0
  6  1  1  0
  7  5  1  0
  7 13  1  0
  8  7  1  0
  9  8  2  0
  9 10  1  0
 10 12  1  0
 11 10  2  0
 12 13  1  0
 13 14  2  0
 15 16  2  0
 16 17  1  0
 18 17  2  0
 19 18  1  0
 20 19  2  0
 21 20  1  0
 22 21  2  0
 22 23  1  0
 23 24  2  0
 24 19  1  0
 24 15  1  0
 25  9  1  0
 26 25  1  0
 27 26  1  0
 28 29  1  0
 28 27  1  0
 29 30  1  0
 30 26  1  0
  1 31  1  0
  3 32  1  0
  8 33  1  0
 12 34  1  0
 16 35  1  0
 17 36  1  0
 18 37  1  0
 20 38  1  0
 21 39  1  0
 22 40  1  0
 23 41  1  0
 25 42  1  0
 25 43  1  0
 27 44  1  0
 27 45  1  0
 28 46  1  0
 28 47  1  0
 29 48  1  0
 29 49  1  0
 30 50  1  0
 30 51  1  0
M  ISO  8  31  14  32  14  33  14  34   9  35  14  36  14  37  14  38  14
M  ISO  8  39  14  40  14  41  14  42   8  43   8  44  13  45  13  46  13
M  ISO  5  47  13  48  13  49  13  50  13  51  13
M  END
>  <minimizedAffinity>  (1) 
-5.77983284

>  <minimizedRMSD>  (1) 
1.34661996

$$$$
