
     RDKit          3D

 26 28  0  0  0  0  0  0  0  0999 V2000
   39.3300   24.2320   34.6010 C   0  0  0  0  0  0  0  0  0  0  0  0
   40.3120   23.6260   33.9050 N   0  0  0  0  0  0  0  0  0  0  0  0
   41.1190   22.7210   34.5270 C   0  0  0  0  0  0  0  0  0  0  0  0
   40.9310   22.4390   35.8280 N   0  0  0  0  0  0  0  0  0  0  0  0
   39.9570   23.0350   36.5360 C   0  0  0  0  0  0  0  0  0  0  0  0
   39.7630   22.7490   37.8910 C   0  0  0  0  0  0  0  0  0  0  0  0
   38.7450   23.4110   38.5490 C   0  0  0  0  0  0  0  0  0  0  0  0
   37.9180   24.3320   37.9320 C   0  0  0  0  0  0  0  0  0  0  0  0
   38.1040   24.6220   36.5820 C   0  0  0  0  0  0  0  0  0  0  0  0
   39.1180   23.9650   35.9180 C   0  0  0  0  0  0  0  0  0  0  0  0
   38.7720   26.5510   33.6760 C   0  0  0  0  0  0  0  0  0  0  0  0
   38.5480   25.1670   33.8230 C   0  0  0  0  0  0  0  0  0  0  0  0
   37.4760   24.6110   33.1370 C   0  0  0  0  0  0  0  0  0  0  0  0
   36.7040   25.4140   32.3660 N   0  0  0  0  0  0  0  0  0  0  0  0
   36.9470   26.7310   32.2490 C   0  0  0  0  0  0  0  0  0  0  0  0
   37.9610   27.2910   32.8900 N   0  0  0  0  0  0  0  0  0  0  0  0
   39.8950   27.0680   34.4080 C   0  0  0  0  0  0  0  0  0  0  0  0
   41.0400   27.2610   33.9140 O   0  0  0  0  0  0  0  0  0  0  0  0
   41.9227   22.2221   33.9656 H   0  0  0  0  0  0  0  0  0  0  0  0
   40.3998   22.0212   38.4152 H   0  0  0  0  0  0  0  0  0  0  0  0
   38.5842   23.1953   39.6156 H   0  0  0  0  0  0  0  0  0  0  0  0
   37.1205   24.8311   38.5020 H   0  0  0  0  0  0  0  0  0  0  0  0
   37.4634   25.3506   36.0635 H   0  0  0  0  0  0  0  0  0  0  0  0
   37.2573   23.5360   33.2184 H   0  0  0  0  0  0  0  0  0  0  0  0
   36.2963   27.3500   31.6138 H   0  0  0  0  0  0  0  0  0  0  0  0
   39.7467   27.3119   35.4703 H   0  0  0  0  0  0  0  0  0  0  0  0
  1 10  2  0
  2  3  2  0
  2  1  1  0
  3  4  1  0
  4  5  2  0
  5  6  1  0
  6  7  2  0
  8  7  1  0
  9  8  2  0
 10  5  1  0
 10  9  1  0
 11 12  2  0
 11 17  1  0
 12  1  1  0
 13 12  1  0
 14 13  2  0
 15 14  1  0
 15 16  2  0
 16 11  1  0
 18 17  2  0
  3 19  1  0
  6 20  1  0
  7 21  1  0
  8 22  1  0
  9 23  1  0
 13 24  1  0
 15 25  1  0
 17 26  1  0
M  ISO  8  19  14  20  14  21  14  22  14  23  14  24  14  25  14  26   6
M  END
>  <minimizedAffinity>  (1) 
-4.6989646

>  <minimizedRMSD>  (1) 
5.63927364

$$$$
