
     RDKit          3D

 23 25  0  0  0  0  0  0  0  0999 V2000
   38.5270   24.7310   35.3730 C   0  0  0  0  0  0  0  0  0  0  0  0
   39.8120   25.1040   34.9680 C   0  0  0  0  0  0  0  0  0  0  0  0
   40.1630   26.4620   35.0290 C   0  0  0  0  0  0  0  0  0  0  0  0
   39.2420   27.3520   35.4750 N   0  0  0  0  0  0  0  0  0  0  0  0
   38.0050   26.9310   35.8560 C   0  0  0  0  0  0  0  0  0  0  0  0
   37.6610   25.6470   35.8030 N   0  0  0  0  0  0  0  0  0  0  0  0
   40.8510   24.2640   34.4870 N   0  0  0  0  0  0  0  0  0  0  0  0
   41.8140   23.8900   35.3760 C   0  0  0  0  0  0  0  0  0  0  0  0
   42.7110   23.0940   34.7300 N   0  0  0  0  0  0  0  0  0  0  0  0
   42.3330   22.9580   33.4490 C   0  0  0  0  0  0  0  0  0  0  0  0
   42.8160   22.2940   32.3190 C   0  0  0  0  0  0  0  0  0  0  0  0
   42.1060   22.4220   31.1790 N   0  0  0  0  0  0  0  0  0  0  0  0
   40.9740   23.1530   31.0930 C   0  0  0  0  0  0  0  0  0  0  0  0
   40.4730   23.8170   32.1770 N   0  0  0  0  0  0  0  0  0  0  0  0
   41.1750   23.6910   33.3140 C   0  0  0  0  0  0  0  0  0  0  0  0
   38.2630   23.3220   35.2750 C   0  0  0  0  0  0  0  0  0  0  0  0
   38.3300   22.4890   36.1910 O   0  0  0  0  0  0  0  0  0  0  0  0
   41.1645   26.7972   34.7214 H   0  0  0  0  0  0  0  0  0  0  0  0
   37.2732   27.6692   36.2159 H   0  0  0  0  0  0  0  0  0  0  0  0
   41.8592   24.1816   36.4357 H   0  0  0  0  0  0  0  0  0  0  0  0
   43.7361   21.6923   32.3570 H   0  0  0  0  0  0  0  0  0  0  0  0
   40.4445   23.2152   30.1309 H   0  0  0  0  0  0  0  0  0  0  0  0
   37.9711   22.9430   34.2845 H   0  0  0  0  0  0  0  0  0  0  0  0
  1  6  2  0
  2  3  2  0
  2  1  1  0
  3  4  1  0
  4  5  2  0
  6  5  1  0
  7  2  1  0
  7  8  1  0
  9  8  2  0
 10  9  1  0
 11 10  2  0
 12 11  1  0
 13 12  2  0
 13 14  1  0
 14 15  2  0
 15 10  1  0
 15  7  1  0
 16  1  1  0
 16 17  2  0
  3 18  1  0
  5 19  1  0
  8 20  1  0
 11 21  1  0
 13 22  1  0
 16 23  1  0
M  ISO  6  18  14  19  14  20  14  21  14  22  14  23   6
M  END
>  <minimizedAffinity>  (1) 
-2.89627266

>  <minimizedRMSD>  (1) 
6.32303381

$$$$
