
     RDKit          3D

 21 21  0  0  0  0  0  0  0  0999 V2000
   38.9480   23.8780   36.4940 C   0  0  0  0  0  0  0  0  0  0  0  0
   39.0540   24.9890   35.6550 C   0  0  0  0  0  0  0  0  0  0  0  0
   40.2700   25.2120   34.9840 C   0  0  0  0  0  0  0  0  0  0  0  0
   41.2930   24.3180   35.1930 N   0  0  0  0  0  0  0  0  0  0  0  0
   41.1260   23.2620   36.0170 C   0  0  0  0  0  0  0  0  0  0  0  0
   39.9770   23.0450   36.6550 N   0  0  0  0  0  0  0  0  0  0  0  0
   37.6670   23.7500   37.1240 C   0  0  0  0  0  0  0  0  0  0  0  0
   36.9410   22.7330   37.1390 O   0  0  0  0  0  0  0  0  0  0  0  0
   37.9620   25.9710   35.4120 C   0  0  0  0  0  0  0  0  0  0  0  0
   38.4990   27.3210   35.8580 C   0  0  0  0  0  0  0  0  0  0  0  0
   37.4630   25.9760   34.0050 C   0  0  0  0  0  0  0  0  0  0  0  0
   40.3982   26.0744   34.3133 H   0  0  0  0  0  0  0  0  0  0  0  0
   41.9612   22.5618   36.1656 H   0  0  0  0  0  0  0  0  0  0  0  0
   37.2836   24.6380   37.6480 H   0  0  0  0  0  0  0  0  0  0  0  0
   37.0673   25.6953   35.9895 H   0  0  0  0  0  0  0  0  0  0  0  0
   38.5161   27.3639   36.9570 H   0  0  0  0  0  0  0  0  0  0  0  0
   39.5193   27.4561   35.4699 H   0  0  0  0  0  0  0  0  0  0  0  0
   37.8503   28.1201   35.4699 H   0  0  0  0  0  0  0  0  0  0  0  0
   36.3631   25.9870   34.0061 H   0  0  0  0  0  0  0  0  0  0  0  0
   37.8381   26.8704   33.4861 H   0  0  0  0  0  0  0  0  0  0  0  0
   37.8201   25.0742   33.4861 H   0  0  0  0  0  0  0  0  0  0  0  0
  1  6  2  0
  1  7  1  0
  2  1  1  0
  3  4  1  0
  3  2  2  0
  4  5  2  0
  5  6  1  0
  7  8  2  0
  9  2  1  0
  9 10  1  0
 11  9  1  0
  3 12  1  0
  5 13  1  0
  7 14  1  0
  9 15  1  0
 10 16  1  0
 10 17  1  0
 10 18  1  0
 11 19  1  0
 11 20  1  0
 11 21  1  0
M  ISO  8  12  14  13  14  14   6  15   8  16   8  17   8  18   8  19   8
M  ISO  2  20   8  21   8
M  END
>  <minimizedAffinity>  (1) 
-3.21317077

>  <minimizedRMSD>  (1) 
4.37872696

$$$$
