
     RDKit          3D

 15 15  0  0  0  0  0  0  0  0999 V2000
   39.7760   22.4720   36.7990 C   0  0  0  0  0  0  0  0  0  0  0  0
   38.7920   23.1160   37.5420 C   0  0  0  0  0  0  0  0  0  0  0  0
   37.5280   23.3050   36.9470 C   0  0  0  0  0  0  0  0  0  0  0  0
   37.3410   22.8450   35.6760 N   0  0  0  0  0  0  0  0  0  0  0  0
   38.3480   22.2180   34.9960 C   0  0  0  0  0  0  0  0  0  0  0  0
   39.5460   22.0410   35.5610 N   0  0  0  0  0  0  0  0  0  0  0  0
   41.0200   22.3360   37.5030 C   0  0  0  0  0  0  0  0  0  0  0  0
   41.6740   21.2960   37.6900 O   0  0  0  0  0  0  0  0  0  0  0  0
   38.9460   23.6350   38.9290 C   0  0  0  0  0  0  0  0  0  0  0  0
   36.7159   23.8088   37.4916 H   0  0  0  0  0  0  0  0  0  0  0  0
   38.1701   21.8554   33.9728 H   0  0  0  0  0  0  0  0  0  0  0  0
   41.4431   23.2592   37.9257 H   0  0  0  0  0  0  0  0  0  0  0  0
   38.7091   22.8366   39.6477 H   0  0  0  0  0  0  0  0  0  0  0  0
   39.9824   23.9704   39.0820 H   0  0  0  0  0  0  0  0  0  0  0  0
   38.2603   24.4814   39.0820 H   0  0  0  0  0  0  0  0  0  0  0  0
  1  7  1  0
  1  2  2  0
  2  9  1  0
  3  2  1  0
  4  3  2  0
  5  6  2  0
  5  4  1  0
  6  1  1  0
  7  8  2  0
  3 10  1  0
  5 11  1  0
  7 12  1  0
  9 13  1  0
  9 14  1  0
  9 15  1  0
M  ISO  6  10  14  11  14  12   6  13   8  14   8  15   8
M  END
>  <minimizedAffinity>  (1) 
-2.70556784

>  <minimizedRMSD>  (1) 
1.00918913

$$$$
