
     RDKit          3D

 35 37  0  0  1  0  0  0  0  0999 V2000
   38.1640   26.0640   35.3190 C   0  0  1  0  0  0  0  0  0  0  0  0
   38.9630   23.8510   36.2910 C   0  0  0  0  0  0  0  0  0  0  0  0
   39.1700   24.9830   35.4950 C   0  0  0  0  0  0  0  0  0  0  0  0
   40.3930   25.1260   34.8190 C   0  0  0  0  0  0  0  0  0  0  0  0
   41.3270   24.1300   34.9830 N   0  0  0  0  0  0  0  0  0  0  0  0
   41.0590   23.0540   35.7720 C   0  0  0  0  0  0  0  0  0  0  0  0
   39.9000   22.9190   36.4130 N   0  0  0  0  0  0  0  0  0  0  0  0
   37.6770   23.8130   36.9330 C   0  0  0  0  0  0  0  0  0  0  0  0
   36.9660   22.8040   37.1150 O   0  0  0  0  0  0  0  0  0  0  0  0
   38.7910   27.3280   35.8290 C   0  0  0  0  0  0  0  0  0  0  0  0
   37.6850   26.1780   33.9000 C   0  0  0  0  0  0  0  0  0  0  0  0
   36.9180   27.3410   33.5970 N   0  0  0  0  0  0  0  0  0  0  0  0
   36.2370   28.0740   34.5140 C   0  0  0  0  0  0  0  0  0  0  0  0
   35.6040   29.1170   33.9370 N   0  0  0  0  0  0  0  0  0  0  0  0
   35.8580   29.0950   32.6170 C   0  0  0  0  0  0  0  0  0  0  0  0
   35.4880   29.8900   31.5530 C   0  0  0  0  0  0  0  0  0  0  0  0
   34.7520   30.8880   31.7310 O   0  0  0  0  0  0  0  0  0  0  0  0
   35.9390   29.5690   30.3070 N   0  0  0  0  0  0  0  0  0  0  0  0
   36.7350   28.4860   30.1350 C   0  0  0  0  0  0  0  0  0  0  0  0
   37.1930   28.1710   28.8230 N   0  0  0  0  0  0  0  0  0  0  0  0
   37.0970   27.7040   31.1920 N   0  0  0  0  0  0  0  0  0  0  0  0
   36.6680   27.9920   32.4460 C   0  0  0  0  0  0  0  0  0  0  0  0
   37.2519   25.8388   35.8912 H   0  0  0  0  0  0  0  0  0  0  0  0
   40.5957   26.0005   34.1833 H   0  0  0  0  0  0  0  0  0  0  0  0
   41.8239   22.2714   35.8836 H   0  0  0  0  0  0  0  0  0  0  0  0
   37.2798   24.7705   37.3010 H   0  0  0  0  0  0  0  0  0  0  0  0
   38.7876   27.3211   36.9290 H   0  0  0  0  0  0  0  0  0  0  0  0
   39.8272   27.3957   35.4660 H   0  0  0  0  0  0  0  0  0  0  0  0
   38.2180   28.1939   35.4660 H   0  0  0  0  0  0  0  0  0  0  0  0
   38.5681   26.1755   33.2442 H   0  0  0  0  0  0  0  0  0  0  0  0
   37.0093   25.3244   33.7426 H   0  0  0  0  0  0  0  0  0  0  0  0
   36.2051   27.8470   35.5899 H   0  0  0  0  0  0  0  0  0  0  0  0
   35.6750   30.1489   29.4977 H   0  0  0  0  0  0  0  0  0  0  0  0
   37.7988   27.3519   28.6718 H   0  0  0  0  0  0  0  0  0  0  0  0
   36.9182   28.7624   28.0258 H   0  0  0  0  0  0  0  0  0  0  0  0
  1  3  1  0
  1 10  1  0
  2  7  2  0
  2  8  1  0
  3  2  1  0
  4  5  1  0
  4  3  2  0
  5  6  2  0
  6  7  1  0
  8  9  2  0
 11  1  1  0
 12 11  1  0
 12 13  1  0
 14 13  2  0
 15 14  1  0
 16 17  2  0
 16 15  1  0
 18 16  1  0
 19 18  1  0
 19 21  2  0
 20 19  1  0
 21 22  1  0
 22 15  2  0
 22 12  1  0
  1 23  1  1
  4 24  1  0
  6 25  1  0
  8 26  1  0
 10 27  1  0
 10 28  1  0
 10 29  1  0
 11 30  1  0
 11 31  1  0
 13 32  1  0
 18 33  1  0
 20 34  1  0
 20 35  1  0
M  ISO  8  23   8  24  14  25  14  26   6  27   8  28   8  29   8  30   8
M  ISO  3  31   8  32  14  33   9
M  END
>  <minimizedAffinity>  (1) 
-5.46159029

>  <minimizedRMSD>  (1) 
0.974002421

$$$$
