
     RDKit          3D

 34 35  0  0  1  0  0  0  0  0999 V2000
   38.8580   25.6990   35.2980 C   0  0  1  0  0  0  0  0  0  0  0  0
   39.0190   23.7380   36.9450 C   0  0  0  0  0  0  0  0  0  0  0  0
   39.4180   24.4010   35.7910 C   0  0  0  0  0  0  0  0  0  0  0  0
   40.4450   23.8140   35.0130 C   0  0  0  0  0  0  0  0  0  0  0  0
   40.9840   22.6300   35.4450 N   0  0  0  0  0  0  0  0  0  0  0  0
   40.5410   22.0490   36.5810 C   0  0  0  0  0  0  0  0  0  0  0  0
   39.5720   22.5940   37.3210 N   0  0  0  0  0  0  0  0  0  0  0  0
   37.9760   24.4180   37.6550 C   0  0  0  0  0  0  0  0  0  0  0  0
   37.9780   24.7470   38.8690 O   0  0  0  0  0  0  0  0  0  0  0  0
   40.0460   26.5760   35.0020 C   0  0  0  0  0  0  0  0  0  0  0  0
   37.9410   25.5070   34.1200 C   0  0  0  0  0  0  0  0  0  0  0  0
   36.0380   29.1680   33.0270 C   0  0  0  0  0  0  0  0  0  0  0  0
   36.6650   28.3890   32.0760 C   0  0  0  0  0  0  0  0  0  0  0  0
   37.2980   27.1960   32.3630 C   0  0  0  0  0  0  0  0  0  0  0  0
   37.3020   26.7590   33.6820 C   0  0  0  0  0  0  0  0  0  0  0  0
   36.6730   27.5320   34.6580 C   0  0  0  0  0  0  0  0  0  0  0  0
   36.0490   28.7210   34.3300 C   0  0  0  0  0  0  0  0  0  0  0  0
   35.2350   30.6790   32.6650 S   0  0  0  0  0  0  0  0  0  0  0  0
   34.3300   30.6010   31.4880 O   0  0  0  0  0  0  0  0  0  0  0  0
   36.2670   31.7670   32.4000 O   0  0  0  0  0  0  0  0  0  0  0  0
   38.2156   26.1773   36.0521 H   0  0  0  0  0  0  0  0  0  0  0  0
   40.7999   24.2940   34.0891 H   0  0  0  0  0  0  0  0  0  0  0  0
   40.9913   21.0995   36.9061 H   0  0  0  0  0  0  0  0  0  0  0  0
   37.0779   24.6801   37.0764 H   0  0  0  0  0  0  0  0  0  0  0  0
   40.4992   26.9106   35.9468 H   0  0  0  0  0  0  0  0  0  0  0  0
   40.7867   26.0064   34.4215 H   0  0  0  0  0  0  0  0  0  0  0  0
   39.7198   27.4516   34.4215 H   0  0  0  0  0  0  0  0  0  0  0  0
   38.5261   25.0997   33.2823 H   0  0  0  0  0  0  0  0  0  0  0  0
   37.1411   24.8197   34.4326 H   0  0  0  0  0  0  0  0  0  0  0  0
   36.6602   28.7374   31.0327 H   0  0  0  0  0  0  0  0  0  0  0  0
   37.7849   26.6086   31.5706 H   0  0  0  0  0  0  0  0  0  0  0  0
   36.6736   27.1905   35.7036 H   0  0  0  0  0  0  0  0  0  0  0  0
   35.5577   29.3145   35.1151 H   0  0  0  0  0  0  0  0  0  0  0  0
   34.4704   30.9714   33.7635 H   0  0  0  0  0  0  0  0  0  0  0  0
  1  3  1  0
  2  7  2  0
  2  8  1  0
  3  2  1  0
  4  5  1  0
  4  3  2  0
  5  6  2  0
  6  7  1  0
  8  9  2  0
 10  1  1  0
 11  1  1  0
 12 17  2  0
 13 14  2  0
 13 12  1  0
 14 15  1  0
 15 11  1  0
 15 16  2  0
 17 16  1  0
 18 12  1  0
 19 18  2  0
 20 18  2  0
  1 21  1  1
  4 22  1  0
  6 23  1  0
  8 24  1  0
 10 25  1  0
 10 26  1  0
 10 27  1  0
 11 28  1  0
 11 29  1  0
 13 30  1  0
 14 31  1  0
 16 32  1  0
 17 33  1  0
 18 34  1  0
M  ISO  8  21   8  22  14  23  14  24   6  25   8  26   8  27   8  28   8
M  ISO  6  29   8  30  14  31  14  32  14  33  14  34  11
M  END
>  <minimizedAffinity>  (1) 
-4.70923519

>  <minimizedRMSD>  (1) 
1.7060647

$$$$
