
     RDKit          3D

 28 29  0  0  1  0  0  0  0  0999 V2000
   38.5090   25.7980   35.3980 C   0  0  1  0  0  0  0  0  0  0  0  0
   38.8710   23.7640   36.8830 C   0  0  0  0  0  0  0  0  0  0  0  0
   39.1790   24.5110   35.7360 C   0  0  0  0  0  0  0  0  0  0  0  0
   40.1680   24.0520   34.8570 C   0  0  0  0  0  0  0  0  0  0  0  0
   40.7980   22.8710   35.1670 N   0  0  0  0  0  0  0  0  0  0  0  0
   40.4580   22.1870   36.2930 C   0  0  0  0  0  0  0  0  0  0  0  0
   39.5120   22.6260   37.1360 N   0  0  0  0  0  0  0  0  0  0  0  0
   37.8550   24.3320   37.7030 C   0  0  0  0  0  0  0  0  0  0  0  0
   37.9760   24.7470   38.8750 O   0  0  0  0  0  0  0  0  0  0  0  0
   39.5980   26.8330   35.2840 C   0  0  0  0  0  0  0  0  0  0  0  0
   37.6700   25.7090   34.1560 C   0  0  0  0  0  0  0  0  0  0  0  0
   37.0690   26.9940   33.7660 C   0  0  0  0  0  0  0  0  0  0  0  0
   37.2030   27.4920   32.4740 C   0  0  0  0  0  0  0  0  0  0  0  0
   36.5420   28.6860   32.4320 N   0  0  0  0  0  0  0  0  0  0  0  0
   36.0350   28.8740   33.6770 C   0  0  0  0  0  0  0  0  0  0  0  0
   36.3440   27.8610   34.4990 N   0  0  0  0  0  0  0  0  0  0  0  0
   37.7932   26.0735   36.1865 H   0  0  0  0  0  0  0  0  0  0  0  0
   40.4311   24.6170   33.9506 H   0  0  0  0  0  0  0  0  0  0  0  0
   40.9759   21.2433   36.5192 H   0  0  0  0  0  0  0  0  0  0  0  0
   36.8536   24.4144   37.2553 H   0  0  0  0  0  0  0  0  0  0  0  0
   39.9199   27.1389   36.2904 H   0  0  0  0  0  0  0  0  0  0  0  0
   40.4533   26.4068   34.7392 H   0  0  0  0  0  0  0  0  0  0  0  0
   39.2158   27.7089   34.7392 H   0  0  0  0  0  0  0  0  0  0  0  0
   38.3051   25.3558   33.3303 H   0  0  0  0  0  0  0  0  0  0  0  0
   36.8440   25.0148   34.3700 H   0  0  0  0  0  0  0  0  0  0  0  0
   37.7407   27.0136   31.6421 H   0  0  0  0  0  0  0  0  0  0  0  0
   35.4423   29.7513   33.9754 H   0  0  0  0  0  0  0  0  0  0  0  0
   36.0805   27.7651   35.4901 H   0  0  0  0  0  0  0  0  0  0  0  0
  1  3  1  0
  2  7  2  0
  2  8  1  0
  3  2  1  0
  4  5  1  0
  4  3  2  0
  5  6  2  0
  6  7  1  0
  8  9  2  0
 10  1  1  0
 11  1  1  0
 12 11  1  0
 12 16  1  0
 13 12  2  0
 14 13  1  0
 14 15  2  0
 15 16  1  0
  1 17  1  1
  4 18  1  0
  6 19  1  0
  8 20  1  0
 10 21  1  0
 10 22  1  0
 10 23  1  0
 11 24  1  0
 11 25  1  0
 13 26  1  0
 15 27  1  0
 16 28  1  0
M  ISO  8  17   8  18  14  19  14  20   6  21   8  22   8  23   8  24   8
M  ISO  4  25   8  26  14  27  14  28   9
M  END
>  <minimizedAffinity>  (1) 
-3.99294305

>  <minimizedRMSD>  (1) 
2.90114641

$$$$
