
     RDKit          3D

 33 34  0  0  1  0  0  0  0  0999 V2000
   39.2130   25.3180   35.2240 C   0  0  1  0  0  0  0  0  0  0  0  0
   39.2190   23.6000   37.0870 C   0  0  0  0  0  0  0  0  0  0  0  0
   39.7370   24.1210   35.9020 C   0  0  0  0  0  0  0  0  0  0  0  0
   40.8340   23.4630   35.3310 C   0  0  0  0  0  0  0  0  0  0  0  0
   41.3470   22.3520   35.9520 N   0  0  0  0  0  0  0  0  0  0  0  0
   40.7970   21.9050   37.0950 C   0  0  0  0  0  0  0  0  0  0  0  0
   39.7530   22.5190   37.6520 N   0  0  0  0  0  0  0  0  0  0  0  0
   38.0960   24.3320   37.6020 C   0  0  0  0  0  0  0  0  0  0  0  0
   37.9490   24.7440   38.7870 O   0  0  0  0  0  0  0  0  0  0  0  0
   40.4080   26.1830   34.8780 C   0  0  0  0  0  0  0  0  0  0  0  0
   38.4060   24.9890   33.9910 C   0  0  0  0  0  0  0  0  0  0  0  0
   37.4680   26.0250   33.8160 N   0  0  0  0  0  0  0  0  0  0  0  0
   37.5220   26.8360   32.6710 C   0  0  0  0  0  0  0  0  0  0  0  0
   36.4980   27.9190   32.9240 C   0  0  0  0  0  0  0  0  0  0  0  0
   36.5690   28.1090   34.4220 C   0  0  0  0  0  0  0  0  0  0  0  0
   36.9890   26.7350   34.9340 C   0  0  0  0  0  0  0  0  0  0  0  0
   38.5154   25.8441   35.8922 H   0  0  0  0  0  0  0  0  0  0  0  0
   41.2791   23.8327   34.3955 H   0  0  0  0  0  0  0  0  0  0  0  0
   41.2181   21.0127   37.5812 H   0  0  0  0  0  0  0  0  0  0  0  0
   37.2837   24.5560   36.8949 H   0  0  0  0  0  0  0  0  0  0  0  0
   40.8890   26.5312   35.8040 H   0  0  0  0  0  0  0  0  0  0  0  0
   41.1279   25.5953   34.2894 H   0  0  0  0  0  0  0  0  0  0  0  0
   40.0746   27.0504   34.2894 H   0  0  0  0  0  0  0  0  0  0  0  0
   39.0669   24.9274   33.1138 H   0  0  0  0  0  0  0  0  0  0  0  0
   37.8990   24.0194   34.1045 H   0  0  0  0  0  0  0  0  0  0  0  0
   37.2618   26.2574   31.7724 H   0  0  0  0  0  0  0  0  0  0  0  0
   38.5280   27.2450   32.4958 H   0  0  0  0  0  0  0  0  0  0  0  0
   36.7636   28.8460   32.3947 H   0  0  0  0  0  0  0  0  0  0  0  0
   35.4912   27.6563   32.5671 H   0  0  0  0  0  0  0  0  0  0  0  0
   37.3152   28.8726   34.6868 H   0  0  0  0  0  0  0  0  0  0  0  0
   35.6199   28.4569   34.8559 H   0  0  0  0  0  0  0  0  0  0  0  0
   36.1270   26.2134   35.3755 H   0  0  0  0  0  0  0  0  0  0  0  0
   37.7596   26.8180   35.7146 H   0  0  0  0  0  0  0  0  0  0  0  0
  1  3  1  0
  2  8  1  0
  2  7  2  0
  3  2  1  0
  4  3  2  0
  4  5  1  0
  5  6  2  0
  6  7  1  0
  8  9  2  0
 10  1  1  0
 11  1  1  0
 12 11  1  0
 12 16  1  0
 13 14  1  0
 13 12  1  0
 14 15  1  0
 15 16  1  0
  1 17  1  1
  4 18  1  0
  6 19  1  0
  8 20  1  0
 10 21  1  0
 10 22  1  0
 10 23  1  0
 11 24  1  0
 11 25  1  0
 13 26  1  0
 13 27  1  0
 14 28  1  0
 14 29  1  0
 15 30  1  0
 15 31  1  0
 16 32  1  0
 16 33  1  0
M  ISO  8  17   8  18  14  19  14  20   6  21   8  22   8  23   8  24   8
M  ISO  8  25   8  26  13  27  13  28  13  29  13  30  13  31  13  32  13
M  ISO  1  33  13
M  END
>  <minimizedAffinity>  (1) 
-4.02517223

>  <minimizedRMSD>  (1) 
1.66882479

$$$$
