
     RDKit          3D

 28 29  0  0  1  0  0  0  0  0999 V2000
   38.8920   25.6000   35.2670 C   0  0  1  0  0  0  0  0  0  0  0  0
   39.0170   23.7070   36.9690 C   0  0  0  0  0  0  0  0  0  0  0  0
   39.4450   24.3150   35.8000 C   0  0  0  0  0  0  0  0  0  0  0  0
   40.4760   23.7150   35.0380 C   0  0  0  0  0  0  0  0  0  0  0  0
   41.0050   22.5400   35.5120 N   0  0  0  0  0  0  0  0  0  0  0  0
   40.5520   21.9890   36.6550 C   0  0  0  0  0  0  0  0  0  0  0  0
   39.5790   22.5630   37.3670 N   0  0  0  0  0  0  0  0  0  0  0  0
   37.9700   24.4060   37.6450 C   0  0  0  0  0  0  0  0  0  0  0  0
   37.9780   24.7450   38.8600 O   0  0  0  0  0  0  0  0  0  0  0  0
   40.0710   26.4950   34.9800 C   0  0  0  0  0  0  0  0  0  0  0  0
   38.0150   25.4080   34.0640 C   0  0  0  0  0  0  0  0  0  0  0  0
   37.2820   26.6800   33.8310 C   0  0  0  0  0  0  0  0  0  0  0  0
   36.7220   27.5300   34.7010 C   0  0  0  0  0  0  0  0  0  0  0  0
   36.0900   28.6520   34.2300 C   0  0  0  0  0  0  0  0  0  0  0  0
   36.0810   28.8240   32.8210 C   0  0  0  0  0  0  0  0  0  0  0  0
   36.9660   27.3940   32.2190 S   0  0  0  0  0  0  0  0  0  0  0  0
   38.2270   26.0605   36.0125 H   0  0  0  0  0  0  0  0  0  0  0  0
   40.8383   24.1711   34.1049 H   0  0  0  0  0  0  0  0  0  0  0  0
   40.9933   21.0458   37.0094 H   0  0  0  0  0  0  0  0  0  0  0  0
   37.0803   24.6714   37.0550 H   0  0  0  0  0  0  0  0  0  0  0  0
   40.5149   26.8320   35.9283 H   0  0  0  0  0  0  0  0  0  0  0  0
   40.8221   25.9376   34.4011 H   0  0  0  0  0  0  0  0  0  0  0  0
   39.7360   27.3683   34.4011 H   0  0  0  0  0  0  0  0  0  0  0  0
   38.6314   25.1647   33.1861 H   0  0  0  0  0  0  0  0  0  0  0  0
   37.3086   24.5814   34.2304 H   0  0  0  0  0  0  0  0  0  0  0  0
   36.7685   27.3304   35.7817 H   0  0  0  0  0  0  0  0  0  0  0  0
   35.6162   29.3785   34.9065 H   0  0  0  0  0  0  0  0  0  0  0  0
   35.6349   29.6434   32.2382 H   0  0  0  0  0  0  0  0  0  0  0  0
  1  3  1  0
  2  7  2  0
  2  8  1  0
  3  2  1  0
  4  5  1  0
  4  3  2  0
  5  6  2  0
  6  7  1  0
  8  9  2  0
 10  1  1  0
 11  1  1  0
 12 11  1  0
 12 13  2  0
 14 13  1  0
 15 14  2  0
 16 15  1  0
 16 12  1  0
  1 17  1  1
  4 18  1  0
  6 19  1  0
  8 20  1  0
 10 21  1  0
 10 22  1  0
 10 23  1  0
 11 24  1  0
 11 25  1  0
 13 26  1  0
 14 27  1  0
 15 28  1  0
M  ISO  8  17   8  18  14  19  14  20   6  21   8  22   8  23   8  24   8
M  ISO  4  25   8  26  14  27  14  28  14
M  END
>  <minimizedAffinity>  (1) 
-4.11978769

>  <minimizedRMSD>  (1) 
1.43606234

$$$$
