
     RDKit          3D

 27 28  0  0  1  0  0  0  0  0999 V2000
   38.5390   26.1660   35.7950 C   0  0  1  0  0  0  0  0  0  0  0  0
   38.7190   23.8540   36.8440 C   0  0  0  0  0  0  0  0  0  0  0  0
   39.0710   24.7770   35.8470 C   0  0  0  0  0  0  0  0  0  0  0  0
   39.9760   24.3900   34.8410 C   0  0  0  0  0  0  0  0  0  0  0  0
   40.4780   23.1140   34.8830 N   0  0  0  0  0  0  0  0  0  0  0  0
   40.1020   22.2620   35.8720 C   0  0  0  0  0  0  0  0  0  0  0  0
   39.2440   22.6240   36.8290 N   0  0  0  0  0  0  0  0  0  0  0  0
   37.7970   24.3550   37.8080 C   0  0  0  0  0  0  0  0  0  0  0  0
   38.0920   24.7620   38.9600 O   0  0  0  0  0  0  0  0  0  0  0  0
   39.5330   26.9650   34.9930 C   0  0  0  0  0  0  0  0  0  0  0  0
   37.1590   26.2370   35.1980 C   0  0  0  0  0  0  0  0  0  0  0  0
   37.1600   26.5490   33.7660 C   0  0  0  0  0  0  0  0  0  0  0  0
   37.2630   25.5460   32.7690 C   0  0  0  0  0  0  0  0  0  0  0  0
   37.2160   26.4420   31.2870 S   0  0  0  0  0  0  0  0  0  0  0  0
   37.0590   28.1220   32.1750 C   0  0  0  0  0  0  0  0  0  0  0  0
   37.0600   27.8130   33.4280 N   0  0  0  0  0  0  0  0  0  0  0  0
   38.4248   26.5705   36.8115 H   0  0  0  0  0  0  0  0  0  0  0  0
   40.2718   25.0894   34.0452 H   0  0  0  0  0  0  0  0  0  0  0  0
   40.5168   21.2433   35.8849 H   0  0  0  0  0  0  0  0  0  0  0  0
   36.7361   24.3884   37.5192 H   0  0  0  0  0  0  0  0  0  0  0  0
   40.2052   27.5054   35.6757 H   0  0  0  0  0  0  0  0  0  0  0  0
   40.1225   26.2865   34.3588 H   0  0  0  0  0  0  0  0  0  0  0  0
   38.9971   27.6865   34.3588 H   0  0  0  0  0  0  0  0  0  0  0  0
   36.6660   25.2644   35.3427 H   0  0  0  0  0  0  0  0  0  0  0  0
   36.6260   27.0530   35.7079 H   0  0  0  0  0  0  0  0  0  0  0  0
   37.3516   24.4580   32.9043 H   0  0  0  0  0  0  0  0  0  0  0  0
   36.9848   29.1225   31.7239 H   0  0  0  0  0  0  0  0  0  0  0  0
  1  3  1  0
  2  8  1  0
  3  2  2  0
  4  5  2  0
  4  3  1  0
  5  6  1  0
  6  7  2  0
  7  2  1  0
  8  9  2  0
 10  1  1  0
 11  1  1  0
 12 11  1  0
 13 12  2  0
 14 15  1  0
 14 13  1  0
 15 16  2  0
 16 12  1  0
  1 17  1  1
  4 18  1  0
  6 19  1  0
  8 20  1  0
 10 21  1  0
 10 22  1  0
 10 23  1  0
 11 24  1  0
 11 25  1  0
 13 26  1  0
 15 27  1  0
M  ISO  8  17   8  18  14  19  14  20   6  21   8  22   8  23   8  24   8
M  ISO  3  25   8  26  14  27  14
M  END
>  <minimizedAffinity>  (1) 
-4.01676607

>  <minimizedRMSD>  (1) 
2.43652225

$$$$
