
     RDKit          3D

 28 29  0  0  1  0  0  0  0  0999 V2000
   37.9270   25.9750   35.4760 C   0  0  1  0  0  0  0  0  0  0  0  0
   38.8770   23.8400   36.5040 C   0  0  0  0  0  0  0  0  0  0  0  0
   39.0140   24.9700   35.6780 C   0  0  0  0  0  0  0  0  0  0  0  0
   40.2200   25.1910   35.0070 C   0  0  0  0  0  0  0  0  0  0  0  0
   41.2310   24.2750   35.1930 N   0  0  0  0  0  0  0  0  0  0  0  0
   41.0520   23.2110   35.9930 C   0  0  0  0  0  0  0  0  0  0  0  0
   39.9070   22.9910   36.6370 N   0  0  0  0  0  0  0  0  0  0  0  0
   37.5970   23.7180   37.1350 C   0  0  0  0  0  0  0  0  0  0  0  0
   36.8870   22.6820   37.1330 O   0  0  0  0  0  0  0  0  0  0  0  0
   38.4880   27.2970   35.9150 C   0  0  0  0  0  0  0  0  0  0  0  0
   37.4180   26.0150   34.0660 C   0  0  0  0  0  0  0  0  0  0  0  0
   37.5110   27.3800   33.4870 C   0  0  0  0  0  0  0  0  0  0  0  0
   36.6060   27.6050   32.2850 C   0  0  0  0  0  0  0  0  0  0  0  0
   38.0970   27.5410   32.1310 C   0  0  0  0  0  0  0  0  0  0  0  0
   37.0428   25.7029   36.0712 H   0  0  0  0  0  0  0  0  0  0  0  0
   40.3565   26.0654   34.3537 H   0  0  0  0  0  0  0  0  0  0  0  0
   41.8791   22.4971   36.1207 H   0  0  0  0  0  0  0  0  0  0  0  0
   37.2053   24.6003   37.6624 H   0  0  0  0  0  0  0  0  0  0  0  0
   38.5065   27.3407   37.0140 H   0  0  0  0  0  0  0  0  0  0  0  0
   39.5110   27.4085   35.5263 H   0  0  0  0  0  0  0  0  0  0  0  0
   37.8574   28.1102   35.5263 H   0  0  0  0  0  0  0  0  0  0  0  0
   38.0156   25.3256   33.4515 H   0  0  0  0  0  0  0  0  0  0  0  0
   36.3590   25.7177   34.0751 H   0  0  0  0  0  0  0  0  0  0  0  0
   37.7047   27.8678   34.4537 H   0  0  0  0  0  0  0  0  0  0  0  0
   35.9754   26.7869   31.9068 H   0  0  0  0  0  0  0  0  0  0  0  0
   35.8205   28.3277   32.0192 H   0  0  0  0  0  0  0  0  0  0  0  0
   38.5580   26.6777   31.6288 H   0  0  0  0  0  0  0  0  0  0  0  0
   38.8556   28.2068   31.6937 H   0  0  0  0  0  0  0  0  0  0  0  0
  1  3  1  0
  1 10  1  0
  2  7  2  0
  2  8  1  0
  3  2  1  0
  4  5  1  0
  4  3  2  0
  5  6  2  0
  6  7  1  0
  9  8  2  0
 11  1  1  0
 12 11  1  0
 13 12  1  0
 14 13  1  0
 14 12  1  0
  1 15  1  1
  4 16  1  0
  6 17  1  0
  8 18  1  0
 10 19  1  0
 10 20  1  0
 10 21  1  0
 11 22  1  0
 11 23  1  0
 12 24  1  0
 13 25  1  0
 13 26  1  0
 14 27  1  0
 14 28  1  0
M  ISO  8  15   8  16  14  17  14  18   6  19   8  20   8  21   8  22   8
M  ISO  6  23   8  24  13  25  13  26  13  27  13  28  13
M  END
>  <minimizedAffinity>  (1) 
-3.73278165

>  <minimizedRMSD>  (1) 
1.78941631

$$$$
