
     RDKit          3D

 42 45  0  0  1  0  0  0  0  0999 V2000
   37.1940   26.3210   35.0120 C   0  0  0  0  0  0  0  0  0  0  0  0
   37.2600   26.2040   33.5890 C   0  0  0  0  0  0  0  0  0  0  0  0
   37.6950   24.9870   33.0850 N   0  0  0  0  0  0  0  0  0  0  0  0
   37.8210   24.7330   31.7620 C   0  0  0  0  0  0  0  0  0  0  0  0
   37.5400   25.6330   30.7820 N   0  0  0  0  0  0  0  0  0  0  0  0
   37.1090   26.8450   31.2250 C   0  0  0  0  0  0  0  0  0  0  0  0
   36.7860   27.8340   30.3560 C   0  0  0  0  0  0  0  0  0  0  0  0
   36.3370   29.0720   30.7470 C   0  0  0  0  0  0  0  0  0  0  0  0
   36.2100   29.3190   32.0800 C   0  0  0  0  0  0  0  0  0  0  0  0
   36.5350   28.3220   33.0310 C   0  0  0  0  0  0  0  0  0  0  0  0
   36.9840   27.0930   32.5830 C   0  0  0  0  0  0  0  0  0  0  0  0
   36.2940   28.7200   34.4340 C   0  0  0  0  0  0  0  0  0  0  0  0
   35.9970   30.0080   34.9890 C   0  0  0  0  0  0  0  0  0  0  0  0
   34.8530   29.2280   34.7160 C   0  0  0  0  0  0  0  0  0  0  0  0
   38.6690   26.3220   35.5120 C   0  0  1  0  0  0  0  0  0  0  0  0
   38.7820   24.0700   36.6690 C   0  0  0  0  0  0  0  0  0  0  0  0
   39.1590   24.9200   35.6600 C   0  0  0  0  0  0  0  0  0  0  0  0
   40.1210   24.4970   34.7390 C   0  0  0  0  0  0  0  0  0  0  0  0
   40.6460   23.2450   34.8890 N   0  0  0  0  0  0  0  0  0  0  0  0
   40.2310   22.4670   35.8990 C   0  0  0  0  0  0  0  0  0  0  0  0
   39.3010   22.8690   36.7960 N   0  0  0  0  0  0  0  0  0  0  0  0
   37.7480   24.5710   37.5340 C   0  0  0  0  0  0  0  0  0  0  0  0
   37.8640   24.7710   38.7910 O   0  0  0  0  0  0  0  0  0  0  0  0
   39.5560   27.0610   34.6180 C   0  0  0  0  0  0  0  0  0  0  0  0
   36.6459   25.4690   35.4405 H   0  0  0  0  0  0  0  0  0  0  0  0
   36.6649   27.2360   35.3167 H   0  0  0  0  0  0  0  0  0  0  0  0
   38.1730   23.7355   31.4601 H   0  0  0  0  0  0  0  0  0  0  0  0
   36.8890   27.6344   29.2792 H   0  0  0  0  0  0  0  0  0  0  0  0
   36.0868   29.8429   30.0033 H   0  0  0  0  0  0  0  0  0  0  0  0
   35.8518   30.3016   32.4208 H   0  0  0  0  0  0  0  0  0  0  0  0
   37.0491   27.9768   34.7298 H   0  0  0  0  0  0  0  0  0  0  0  0
   36.2652   30.2107   36.0364 H   0  0  0  0  0  0  0  0  0  0  0  0
   36.2861   31.0264   34.6903 H   0  0  0  0  0  0  0  0  0  0  0  0
   34.1838   29.4936   33.8844 H   0  0  0  0  0  0  0  0  0  0  0  0
   33.9847   28.8689   35.2879 H   0  0  0  0  0  0  0  0  0  0  0  0
   38.6822   26.8296   36.4878 H   0  0  0  0  0  0  0  0  0  0  0  0
   40.4458   25.1527   33.9177 H   0  0  0  0  0  0  0  0  0  0  0  0
   40.6641   21.4612   36.0027 H   0  0  0  0  0  0  0  0  0  0  0  0
   36.7753   24.8015   37.0750 H   0  0  0  0  0  0  0  0  0  0  0  0
   40.2666   27.6530   35.2135 H   0  0  0  0  0  0  0  0  0  0  0  0
   40.1097   26.3533   33.9835 H   0  0  0  0  0  0  0  0  0  0  0  0
   38.9599   27.7334   33.9835 H   0  0  0  0  0  0  0  0  0  0  0  0
  1 15  1  0
  2  1  1  0
  3  2  2  0
  4  3  1  0
  5  6  1  0
  5  4  2  0
  6 11  2  0
  7  8  2  0
  7  6  1  0
  8  9  1  0
  9 10  2  0
 10 12  1  0
 11 10  1  0
 11  2  1  0
 12 14  1  0
 12 13  1  0
 14 13  1  0
 15 17  1  0
 16 21  2  0
 16 22  1  0
 17 16  1  0
 18 19  1  0
 18 17  2  0
 19 20  2  0
 20 21  1  0
 22 23  2  0
 24 15  1  0
  1 25  1  0
  1 26  1  0
  4 27  1  0
  7 28  1  0
  8 29  1  0
  9 30  1  0
 12 31  1  0
 13 32  1  0
 13 33  1  0
 14 34  1  0
 14 35  1  0
 15 36  1  1
 18 37  1  0
 20 38  1  0
 22 39  1  0
 24 40  1  0
 24 41  1  0
 24 42  1  0
M  ISO  8  25   8  26   8  27  14  28  14  29  14  30  14  31  13  32  13
M  ISO  8  33  13  34  13  35  13  36   8  37  14  38  14  39   6  40   8
M  ISO  2  41   8  42   8
M  END
>  <minimizedAffinity>  (1) 
-5.37233448

>  <minimizedRMSD>  (1) 
1.52605033

$$$$
