
     RDKit          3D

 41 43  0  0  1  0  0  0  0  0999 V2000
   37.2940   26.1980   35.1220 C   0  0  0  0  0  0  0  0  0  0  0  0
   37.2970   26.0540   33.7030 C   0  0  0  0  0  0  0  0  0  0  0  0
   37.7090   24.8330   33.1860 N   0  0  0  0  0  0  0  0  0  0  0  0
   37.7890   24.5710   31.8620 C   0  0  0  0  0  0  0  0  0  0  0  0
   37.4790   25.4670   30.8960 N   0  0  0  0  0  0  0  0  0  0  0  0
   37.0720   26.6750   31.3440 C   0  0  0  0  0  0  0  0  0  0  0  0
   36.7340   27.6770   30.4910 C   0  0  0  0  0  0  0  0  0  0  0  0
   36.3230   28.9160   30.8570 C   0  0  0  0  0  0  0  0  0  0  0  0
   36.2440   29.1680   32.2000 C   0  0  0  0  0  0  0  0  0  0  0  0
   36.5780   28.1760   33.1610 C   0  0  0  0  0  0  0  0  0  0  0  0
   36.9920   26.9320   32.6990 C   0  0  0  0  0  0  0  0  0  0  0  0
   36.3260   28.5450   34.5350 C   0  0  0  0  0  0  0  0  0  0  0  0
   35.6570   29.9340   34.6550 C   0  0  0  0  0  0  0  0  0  0  0  0
   38.7870   26.1790   35.5740 C   0  0  1  0  0  0  0  0  0  0  0  0
   38.8580   23.9110   36.6930 C   0  0  0  0  0  0  0  0  0  0  0  0
   39.2660   24.7860   35.7220 C   0  0  0  0  0  0  0  0  0  0  0  0
   40.2770   24.3880   34.8370 C   0  0  0  0  0  0  0  0  0  0  0  0
   40.8000   23.1350   35.0020 N   0  0  0  0  0  0  0  0  0  0  0  0
   40.3570   22.3340   35.9680 C   0  0  0  0  0  0  0  0  0  0  0  0
   39.3890   22.7090   36.8170 N   0  0  0  0  0  0  0  0  0  0  0  0
   37.7980   24.3940   37.5330 C   0  0  0  0  0  0  0  0  0  0  0  0
   37.9050   24.7200   38.7570 O   0  0  0  0  0  0  0  0  0  0  0  0
   39.6420   26.9280   34.6660 C   0  0  0  0  0  0  0  0  0  0  0  0
   36.7458   25.3654   35.5870 H   0  0  0  0  0  0  0  0  0  0  0  0
   36.7991   27.1324   35.4253 H   0  0  0  0  0  0  0  0  0  0  0  0
   38.1258   23.5709   31.5516 H   0  0  0  0  0  0  0  0  0  0  0  0
   36.7993   27.4653   29.4135 H   0  0  0  0  0  0  0  0  0  0  0  0
   36.0654   29.6819   30.1106 H   0  0  0  0  0  0  0  0  0  0  0  0
   35.9148   30.1600   32.5428 H   0  0  0  0  0  0  0  0  0  0  0  0
   35.6634   27.7927   34.9878 H   0  0  0  0  0  0  0  0  0  0  0  0
   37.2944   28.5913   35.0547 H   0  0  0  0  0  0  0  0  0  0  0  0
   35.5333   30.1908   35.7174 H   0  0  0  0  0  0  0  0  0  0  0  0
   36.2901   30.6893   34.1665 H   0  0  0  0  0  0  0  0  0  0  0  0
   34.6717   29.9099   34.1665 H   0  0  0  0  0  0  0  0  0  0  0  0
   38.8421   26.6770   36.5533 H   0  0  0  0  0  0  0  0  0  0  0  0
   40.6359   25.0570   34.0409 H   0  0  0  0  0  0  0  0  0  0  0  0
   40.7990   21.3322   36.0735 H   0  0  0  0  0  0  0  0  0  0  0  0
   36.8024   24.4907   37.0753 H   0  0  0  0  0  0  0  0  0  0  0  0
   40.3444   27.5433   35.2475 H   0  0  0  0  0  0  0  0  0  0  0  0
   40.2059   26.2279   34.0320 H   0  0  0  0  0  0  0  0  0  0  0  0
   39.0222   27.5791   34.0320 H   0  0  0  0  0  0  0  0  0  0  0  0
  1 14  1  0
  2  1  1  0
  3  2  2  0
  4  3  1  0
  5  6  1  0
  5  4  2  0
  6 11  2  0
  7  8  2  0
  7  6  1  0
  8  9  1  0
  9 10  2  0
 10 12  1  0
 11 10  1  0
 11  2  1  0
 12 13  1  0
 14 16  1  0
 15 20  2  0
 15 21  1  0
 16 15  1  0
 17 18  1  0
 17 16  2  0
 18 19  2  0
 19 20  1  0
 21 22  2  0
 23 14  1  0
  1 24  1  0
  1 25  1  0
  4 26  1  0
  7 27  1  0
  8 28  1  0
  9 29  1  0
 12 30  1  0
 12 31  1  0
 13 32  1  0
 13 33  1  0
 13 34  1  0
 14 35  1  1
 17 36  1  0
 19 37  1  0
 21 38  1  0
 23 39  1  0
 23 40  1  0
 23 41  1  0
M  ISO  8  24   8  25   8  26  14  27  14  28  14  29  14  30   8  31   8
M  ISO  8  32   8  33   8  34   8  35   8  36  14  37  14  38   6  39   8
M  ISO  2  40   8  41   8
M  END
>  <minimizedAffinity>  (1) 
-5.45204544

>  <minimizedRMSD>  (1) 
1.40214884

$$$$
