
     RDKit          3D

 44 46  0  0  1  0  0  0  0  0999 V2000
   36.9890   26.5750   34.4290 C   0  0  0  0  0  0  0  0  0  0  0  0
   37.3060   26.9280   33.0710 C   0  0  0  0  0  0  0  0  0  0  0  0
   38.0280   26.0170   32.3160 N   0  0  0  0  0  0  0  0  0  0  0  0
   38.4070   26.2460   31.0330 C   0  0  0  0  0  0  0  0  0  0  0  0
   38.1150   27.3910   30.3570 N   0  0  0  0  0  0  0  0  0  0  0  0
   37.4090   28.2990   31.0640 C   0  0  0  0  0  0  0  0  0  0  0  0
   37.0050   29.4700   30.4970 C   0  0  0  0  0  0  0  0  0  0  0  0
   36.2520   30.4190   31.1210 C   0  0  0  0  0  0  0  0  0  0  0  0
   35.8830   30.1650   32.4170 C   0  0  0  0  0  0  0  0  0  0  0  0
   36.2620   28.9790   33.0810 C   0  0  0  0  0  0  0  0  0  0  0  0
   37.0260   28.0620   32.3740 C   0  0  0  0  0  0  0  0  0  0  0  0
   35.7670   28.8640   34.4450 C   0  0  0  0  0  0  0  0  0  0  0  0
   34.2600   29.1940   34.4920 C   0  0  0  0  0  0  0  0  0  0  0  0
   36.2790   30.1210   35.1790 C   0  0  0  0  0  0  0  0  0  0  0  0
   38.3330   26.4320   35.1750 C   0  0  1  0  0  0  0  0  0  0  0  0
   38.5270   24.3220   36.5500 C   0  0  0  0  0  0  0  0  0  0  0  0
   38.7000   25.0180   35.3840 C   0  0  0  0  0  0  0  0  0  0  0  0
   39.3510   24.3880   34.3090 C   0  0  0  0  0  0  0  0  0  0  0  0
   39.7780   23.1050   34.4860 N   0  0  0  0  0  0  0  0  0  0  0  0
   39.5710   22.4870   35.6570 C   0  0  0  0  0  0  0  0  0  0  0  0
   38.9480   23.0870   36.6980 N   0  0  0  0  0  0  0  0  0  0  0  0
   37.8160   25.0370   37.5760 C   0  0  0  0  0  0  0  0  0  0  0  0
   37.9440   24.8720   38.8340 O   0  0  0  0  0  0  0  0  0  0  0  0
   39.4000   27.1520   34.4750 C   0  0  0  0  0  0  0  0  0  0  0  0
   36.4380   25.6233   34.4546 H   0  0  0  0  0  0  0  0  0  0  0  0
   36.3547   27.3408   34.8993 H   0  0  0  0  0  0  0  0  0  0  0  0
   38.9804   25.4652   30.5119 H   0  0  0  0  0  0  0  0  0  0  0  0
   37.3094   29.6639   29.4579 H   0  0  0  0  0  0  0  0  0  0  0  0
   35.9540   31.3458   30.6088 H   0  0  0  0  0  0  0  0  0  0  0  0
   35.2742   30.9070   32.9544 H   0  0  0  0  0  0  0  0  0  0  0  0
   36.0401   27.8710   34.8314 H   0  0  0  0  0  0  0  0  0  0  0  0
   33.9328   29.2656   35.5398 H   0  0  0  0  0  0  0  0  0  0  0  0
   34.0787   30.1531   33.9849 H   0  0  0  0  0  0  0  0  0  0  0  0
   33.6944   28.3984   33.9849 H   0  0  0  0  0  0  0  0  0  0  0  0
   36.2146   29.9628   36.2657 H   0  0  0  0  0  0  0  0  0  0  0  0
   37.3255   30.3093   34.8973 H   0  0  0  0  0  0  0  0  0  0  0  0
   35.6619   30.9869   34.8973 H   0  0  0  0  0  0  0  0  0  0  0  0
   38.2040   26.8858   36.1687 H   0  0  0  0  0  0  0  0  0  0  0  0
   39.5108   24.9131   33.3557 H   0  0  0  0  0  0  0  0  0  0  0  0
   39.9213   21.4512   35.7768 H   0  0  0  0  0  0  0  0  0  0  0  0
   37.0940   25.7976   37.2442 H   0  0  0  0  0  0  0  0  0  0  0  0
   40.0777   27.6093   35.2109 H   0  0  0  0  0  0  0  0  0  0  0  0
   39.9640   26.4491   33.8443 H   0  0  0  0  0  0  0  0  0  0  0  0
   38.9593   27.9381   33.8443 H   0  0  0  0  0  0  0  0  0  0  0  0
  1 15  1  0
  2  1  1  0
  3  2  2  0
  4  3  1  0
  5  4  2  0
  5  6  1  0
  6 11  2  0
  7  6  1  0
  7  8  2  0
  8  9  1  0
  9 10  2  0
 10 12  1  0
 11  2  1  0
 11 10  1  0
 12 13  1  0
 12 14  1  0
 15 17  1  0
 16 21  2  0
 16 22  1  0
 17 16  1  0
 18 19  1  0
 18 17  2  0
 19 20  2  0
 20 21  1  0
 22 23  2  0
 24 15  1  0
  1 25  1  0
  1 26  1  0
  4 27  1  0
  7 28  1  0
  8 29  1  0
  9 30  1  0
 12 31  1  0
 13 32  1  0
 13 33  1  0
 13 34  1  0
 14 35  1  0
 14 36  1  0
 14 37  1  0
 15 38  1  1
 18 39  1  0
 20 40  1  0
 22 41  1  0
 24 42  1  0
 24 43  1  0
 24 44  1  0
M  ISO  8  25   8  26   8  27  14  28  14  29  14  30  14  31   8  32   8
M  ISO  8  33   8  34   8  35   8  36   8  37   8  38   8  39  14  40  14
M  ISO  4  41   6  42   8  43   8  44   8
M  END
>  <minimizedAffinity>  (1) 
-4.93318081

>  <minimizedRMSD>  (1) 
1.27518916

$$$$
