
     RDKit          3D

 48 50  0  0  1  0  0  0  0  0999 V2000
   37.0910   27.2030   32.9580 C   0  0  0  0  0  0  0  0  0  0  0  0
   37.8750   26.3850   32.1380 N   0  0  0  0  0  0  0  0  0  0  0  0
   38.3150   26.7070   30.9190 C   0  0  0  0  0  0  0  0  0  0  0  0
   38.0360   27.8950   30.3340 N   0  0  0  0  0  0  0  0  0  0  0  0
   37.2820   28.7300   31.0750 C   0  0  0  0  0  0  0  0  0  0  0  0
   36.8910   29.9450   30.5950 C   0  0  0  0  0  0  0  0  0  0  0  0
   36.1110   30.8370   31.2520 C   0  0  0  0  0  0  0  0  0  0  0  0
   35.6890   30.4730   32.5070 C   0  0  0  0  0  0  0  0  0  0  0  0
   36.0420   29.2210   33.1080 C   0  0  0  0  0  0  0  0  0  0  0  0
   36.8320   28.3900   32.3440 C   0  0  0  0  0  0  0  0  0  0  0  0
   36.6960   26.6610   34.1770 C   0  0  0  0  0  0  0  0  0  0  0  0
   37.9970   26.3930   34.9670 C   0  0  1  0  0  0  0  0  0  0  0  0
   38.2060   24.3750   36.4710 C   0  0  0  0  0  0  0  0  0  0  0  0
   38.1960   24.9440   35.2280 C   0  0  0  0  0  0  0  0  0  0  0  0
   38.3810   24.1500   34.1030 C   0  0  0  0  0  0  0  0  0  0  0  0
   38.5640   22.8160   34.2920 N   0  0  0  0  0  0  0  0  0  0  0  0
   38.5630   22.3140   35.5480 C   0  0  0  0  0  0  0  0  0  0  0  0
   38.3850   23.0850   36.6440 N   0  0  0  0  0  0  0  0  0  0  0  0
   37.9850   25.2790   37.5550 C   0  0  0  0  0  0  0  0  0  0  0  0
   37.9650   24.9810   38.8060 O   0  0  0  0  0  0  0  0  0  0  0  0
   39.1750   26.9380   34.3270 C   0  0  0  0  0  0  0  0  0  0  0  0
   40.2970   27.0510   35.1850 N   0  0  0  0  0  0  0  0  0  0  0  0
   35.6370   29.1340   34.4710 C   0  0  0  0  0  0  0  0  0  0  0  0
   34.0960   29.3530   34.5290 C   0  0  0  0  0  0  0  0  0  0  0  0
   36.1320   30.3610   35.1850 C   0  0  0  0  0  0  0  0  0  0  0  0
   38.9282   25.9781   30.3689 H   0  0  0  0  0  0  0  0  0  0  0  0
   37.2382   30.2245   29.5894 H   0  0  0  0  0  0  0  0  0  0  0  0
   35.8306   31.8016   30.8038 H   0  0  0  0  0  0  0  0  0  0  0  0
   35.0546   31.1704   33.0737 H   0  0  0  0  0  0  0  0  0  0  0  0
   36.0576   27.3718   34.7222 H   0  0  0  0  0  0  0  0  0  0  0  0
   36.1128   25.7388   34.0373 H   0  0  0  0  0  0  0  0  0  0  0  0
   37.8662   26.9170   35.9253 H   0  0  0  0  0  0  0  0  0  0  0  0
   38.3795   24.5860   33.0931 H   0  0  0  0  0  0  0  0  0  0  0  0
   38.7134   21.2328   35.6833 H   0  0  0  0  0  0  0  0  0  0  0  0
   38.7702   26.0429   37.4553 H   0  0  0  0  0  0  0  0  0  0  0  0
   36.9169   25.4919   37.4007 H   0  0  0  0  0  0  0  0  0  0  0  0
   38.0207   25.8104   39.3437 H   0  0  0  0  0  0  0  0  0  0  0  0
   39.4468   26.2822   33.4867 H   0  0  0  0  0  0  0  0  0  0  0  0
   38.9183   27.9574   34.0030 H   0  0  0  0  0  0  0  0  0  0  0  0
   39.9838   27.0195   36.1657 H   0  0  0  0  0  0  0  0  0  0  0  0
   40.9457   26.2711   35.0065 H   0  0  0  0  0  0  0  0  0  0  0  0
   35.9896   28.1792   34.8881 H   0  0  0  0  0  0  0  0  0  0  0  0
   33.7715   29.3991   35.5790 H   0  0  0  0  0  0  0  0  0  0  0  0
   33.8405   30.2965   34.0245 H   0  0  0  0  0  0  0  0  0  0  0  0
   33.5877   28.5181   34.0245 H   0  0  0  0  0  0  0  0  0  0  0  0
   36.0685   30.2035   36.2718 H   0  0  0  0  0  0  0  0  0  0  0  0
   37.1778   30.5526   34.9028 H   0  0  0  0  0  0  0  0  0  0  0  0
   35.5119   31.2246   34.9028 H   0  0  0  0  0  0  0  0  0  0  0  0
  1 11  1  0
  2  1  2  0
  3  2  1  0
  4  3  2  0
  4  5  1  0
  5 10  2  0
  6  5  1  0
  6  7  2  0
  7  8  1  0
  8  9  2  0
  9 23  1  0
 10  1  1  0
 10  9  1  0
 11 12  1  0
 12 14  1  0
 13 18  2  0
 13 19  1  0
 14 13  1  0
 15 16  1  0
 15 14  2  0
 16 17  2  0
 17 18  1  0
 19 20  1  0
 21 12  1  0
 21 22  1  0
 23 24  1  0
 23 25  1  0
  3 26  1  0
  6 27  1  0
  7 28  1  0
  8 29  1  0
 11 30  1  0
 11 31  1  0
 12 32  1  1
 15 33  1  0
 17 34  1  0
 19 35  1  0
 19 36  1  0
 20 37  1  0
 21 38  1  0
 21 39  1  0
 22 40  1  0
 22 41  1  0
 23 42  1  0
 24 43  1  0
 24 44  1  0
 24 45  1  0
 25 46  1  0
 25 47  1  0
 25 48  1  0
M  ISO  8  26  14  27  14  28  14  29  14  30   8  31   8  32   8  33  14
M  ISO  8  34  14  35   8  36   8  37   3  38   8  39   8  40   5  41   5
M  ISO  7  42   8  43   8  44   8  45   8  46   8  47   8  48   8
M  END
>  <minimizedAffinity>  (1) 
-4.90863323

>  <minimizedRMSD>  (1) 
0.683333695

$$$$
