
     RDKit          3D

 45 47  0  0  1  0  0  0  0  0999 V2000
   37.0590   27.3520   32.3420 C   0  0  0  0  0  0  0  0  0  0  0  0
   37.8320   26.6850   31.3890 N   0  0  0  0  0  0  0  0  0  0  0  0
   38.2940   27.2140   30.2550 C   0  0  0  0  0  0  0  0  0  0  0  0
   38.0490   28.4970   29.8990 N   0  0  0  0  0  0  0  0  0  0  0  0
   37.3050   29.2030   30.7770 C   0  0  0  0  0  0  0  0  0  0  0  0
   36.9530   30.4890   30.5280 C   0  0  0  0  0  0  0  0  0  0  0  0
   36.1840   31.2650   31.3370 C   0  0  0  0  0  0  0  0  0  0  0  0
   35.7410   30.6850   32.4940 C   0  0  0  0  0  0  0  0  0  0  0  0
   36.0540   29.3330   32.8580 C   0  0  0  0  0  0  0  0  0  0  0  0
   36.8340   28.6390   31.9570 C   0  0  0  0  0  0  0  0  0  0  0  0
   36.6400   26.6040   33.4370 C   0  0  0  0  0  0  0  0  0  0  0  0
   37.9220   26.2700   34.2390 C   0  0  1  0  0  0  0  0  0  0  0  0
   38.0910   24.2500   35.7520 C   0  0  0  0  0  0  0  0  0  0  0  0
   38.0150   24.8050   34.5100 C   0  0  0  0  0  0  0  0  0  0  0  0
   38.0200   23.9840   33.3860 C   0  0  0  0  0  0  0  0  0  0  0  0
   38.0970   22.6380   33.5840 N   0  0  0  0  0  0  0  0  0  0  0  0
   38.1690   22.1520   34.8440 C   0  0  0  0  0  0  0  0  0  0  0  0
   38.1680   22.9520   35.9390 N   0  0  0  0  0  0  0  0  0  0  0  0
   38.0550   25.1790   36.8360 C   0  0  0  0  0  0  0  0  0  0  0  0
   38.0590   24.8920   38.0870 O   0  0  0  0  0  0  0  0  0  0  0  0
   39.1260   26.7200   33.6060 C   0  0  0  0  0  0  0  0  0  0  0  0
   40.6550   26.7030   34.4570 S   0  0  0  0  0  0  0  0  0  0  0  0
   35.6230   28.9970   34.1790 C   0  0  0  0  0  0  0  0  0  0  0  0
   34.0990   29.3090   34.2690 C   0  0  0  0  0  0  0  0  0  0  0  0
   36.1930   30.0140   35.1240 C   0  0  0  0  0  0  0  0  0  0  0  0
   38.8966   26.5842   29.5840 H   0  0  0  0  0  0  0  0  0  0  0  0
   37.3199   30.9412   29.5948 H   0  0  0  0  0  0  0  0  0  0  0  0
   35.9316   32.3032   31.0754 H   0  0  0  0  0  0  0  0  0  0  0  0
   35.1170   31.2817   33.1756 H   0  0  0  0  0  0  0  0  0  0  0  0
   35.9432   27.1886   34.0556 H   0  0  0  0  0  0  0  0  0  0  0  0
   36.1105   25.6920   33.1241 H   0  0  0  0  0  0  0  0  0  0  0  0
   37.8308   26.8203   35.1871 H   0  0  0  0  0  0  0  0  0  0  0  0
   37.9637   24.4074   32.3723 H   0  0  0  0  0  0  0  0  0  0  0  0
   38.2309   21.0630   34.9865 H   0  0  0  0  0  0  0  0  0  0  0  0
   38.0204   26.2465   36.5727 H   0  0  0  0  0  0  0  0  0  0  0  0
   39.2601   26.0957   32.7103 H   0  0  0  0  0  0  0  0  0  0  0  0
   38.9386   27.7952   33.4687 H   0  0  0  0  0  0  0  0  0  0  0  0
   40.4259   26.7055   35.8077 H   0  0  0  0  0  0  0  0  0  0  0  0
   35.9006   27.9559   34.4003 H   0  0  0  0  0  0  0  0  0  0  0  0
   33.7991   29.3704   35.3255 H   0  0  0  0  0  0  0  0  0  0  0  0
   33.8912   30.2683   33.7725 H   0  0  0  0  0  0  0  0  0  0  0  0
   33.5309   28.5085   33.7725 H   0  0  0  0  0  0  0  0  0  0  0  0
   36.0130   29.6928   36.1605 H   0  0  0  0  0  0  0  0  0  0  0  0
   37.2754   30.1082   34.9521 H   0  0  0  0  0  0  0  0  0  0  0  0
   35.7084   30.9864   34.9521 H   0  0  0  0  0  0  0  0  0  0  0  0
  1 11  1  0
  2  1  2  0
  3  2  1  0
  4  3  2  0
  4  5  1  0
  5 10  2  0
  6  5  1  0
  6  7  2  0
  7  8  1  0
  8  9  2  0
  9 23  1  0
 10  1  1  0
 10  9  1  0
 11 12  1  0
 12 14  1  0
 13 18  2  0
 13 19  1  0
 14 13  1  0
 15 16  1  0
 15 14  2  0
 16 17  2  0
 17 18  1  0
 19 20  2  0
 21 12  1  0
 21 22  1  0
 23 24  1  0
 23 25  1  0
  3 26  1  0
  6 27  1  0
  7 28  1  0
  8 29  1  0
 11 30  1  0
 11 31  1  0
 12 32  1  1
 15 33  1  0
 17 34  1  0
 19 35  1  0
 21 36  1  0
 21 37  1  0
 22 38  1  0
 23 39  1  0
 24 40  1  0
 24 41  1  0
 24 42  1  0
 25 43  1  0
 25 44  1  0
 25 45  1  0
M  ISO  8  26  14  27  14  28  14  29  14  30   8  31   8  32   8  33  14
M  ISO  8  34  14  35   6  36   8  37   8  38  11  39   8  40   8  41   8
M  ISO  4  42   8  43   8  44   8  45   8
M  END
>  <minimizedAffinity>  (1) 
-4.60532427

>  <minimizedRMSD>  (1) 
1.14833879

$$$$
