
     RDKit          3D

 58 61  0  0  1  0  0  0  0  0999 V2000
   36.8480   26.4980   33.9630 C   0  0  0  0  0  0  0  0  0  0  0  0
   37.2040   27.0900   32.7510 C   0  0  0  0  0  0  0  0  0  0  0  0
   37.9600   26.3040   31.8690 N   0  0  0  0  0  0  0  0  0  0  0  0
   38.3650   26.6780   30.6550 C   0  0  0  0  0  0  0  0  0  0  0  0
   38.0790   27.8970   30.1310 N   0  0  0  0  0  0  0  0  0  0  0  0
   37.3490   28.7080   30.9320 C   0  0  0  0  0  0  0  0  0  0  0  0
   36.9580   29.9320   30.5190 C   0  0  0  0  0  0  0  0  0  0  0  0
   36.1960   30.7940   31.2410 C   0  0  0  0  0  0  0  0  0  0  0  0
   35.8050   30.3810   32.4840 C   0  0  0  0  0  0  0  0  0  0  0  0
   36.1710   29.0990   33.0200 C   0  0  0  0  0  0  0  0  0  0  0  0
   36.9390   28.3060   32.1920 C   0  0  0  0  0  0  0  0  0  0  0  0
   35.7940   28.9440   34.3880 C   0  0  0  0  0  0  0  0  0  0  0  0
   34.2590   29.1870   34.4930 C   0  0  0  0  0  0  0  0  0  0  0  0
   36.3270   30.1240   35.1490 C   0  0  0  0  0  0  0  0  0  0  0  0
   38.1700   25.9840   34.5760 C   0  0  1  0  0  0  0  0  0  0  0  0
   38.0350   24.1230   36.2710 C   0  0  0  0  0  0  0  0  0  0  0  0
   38.0830   24.5680   34.9810 C   0  0  0  0  0  0  0  0  0  0  0  0
   38.0460   23.6620   33.9300 C   0  0  0  0  0  0  0  0  0  0  0  0
   37.9580   22.3400   34.2450 N   0  0  0  0  0  0  0  0  0  0  0  0
   37.9130   21.9620   35.5430 C   0  0  0  0  0  0  0  0  0  0  0  0
   37.9510   22.8430   36.5590 N   0  0  0  0  0  0  0  0  0  0  0  0
   38.0590   25.1410   37.2690 C   0  0  0  0  0  0  0  0  0  0  0  0
   38.0330   24.9770   38.5380 O   0  0  0  0  0  0  0  0  0  0  0  0
   39.3210   26.2200   33.7480 C   0  0  0  0  0  0  0  0  0  0  0  0
   40.5120   26.7260   34.3820 N   0  0  0  0  0  0  0  0  0  0  0  0
   41.2390   25.6200   34.9560 C   0  0  0  0  0  0  0  0  0  0  0  0
   41.9960   24.8490   33.9130 C   0  0  0  0  0  0  0  0  0  0  0  0
   42.9500   25.7100   33.3120 N   0  0  0  0  0  0  0  0  0  0  0  0
   42.6930   27.0920   33.2710 C   0  0  0  0  0  0  0  0  0  0  0  0
   41.3060   27.5450   33.5110 C   0  0  0  0  0  0  0  0  0  0  0  0
   36.1527   25.6627   33.7932 H   0  0  0  0  0  0  0  0  0  0  0  0
   36.3383   27.2089   34.6300 H   0  0  0  0  0  0  0  0  0  0  0  0
   38.9546   25.9702   30.0539 H   0  0  0  0  0  0  0  0  0  0  0  0
   37.2818   30.2570   29.5192 H   0  0  0  0  0  0  0  0  0  0  0  0
   35.9071   31.7783   30.8440 H   0  0  0  0  0  0  0  0  0  0  0  0
   35.1876   31.0547   33.0963 H   0  0  0  0  0  0  0  0  0  0  0  0
   36.1365   27.9623   34.7472 H   0  0  0  0  0  0  0  0  0  0  0  0
   33.9667   29.2333   35.5524 H   0  0  0  0  0  0  0  0  0  0  0  0
   34.0036   30.1368   34.0004 H   0  0  0  0  0  0  0  0  0  0  0  0
   33.7227   28.3626   34.0004 H   0  0  0  0  0  0  0  0  0  0  0  0
   36.2408   29.9332   36.2289 H   0  0  0  0  0  0  0  0  0  0  0  0
   37.3838   30.2818   34.8877 H   0  0  0  0  0  0  0  0  0  0  0  0
   35.7468   31.0213   34.8877 H   0  0  0  0  0  0  0  0  0  0  0  0
   38.3180   26.5863   35.4845 H   0  0  0  0  0  0  0  0  0  0  0  0
   38.0862   23.9987   32.8836 H   0  0  0  0  0  0  0  0  0  0  0  0
   37.8424   20.8896   35.7776 H   0  0  0  0  0  0  0  0  0  0  0  0
   38.1048   26.1796   36.9094 H   0  0  0  0  0  0  0  0  0  0  0  0
   39.0265   26.9461   32.9759 H   0  0  0  0  0  0  0  0  0  0  0  0
   39.6056   25.2238   33.3785 H   0  0  0  0  0  0  0  0  0  0  0  0
   41.9515   26.0091   35.6982 H   0  0  0  0  0  0  0  0  0  0  0  0
   40.5126   24.9395   35.4242 H   0  0  0  0  0  0  0  0  0  0  0  0
   42.5103   23.9977   34.3830 H   0  0  0  0  0  0  0  0  0  0  0  0
   41.3006   24.4702   33.1496 H   0  0  0  0  0  0  0  0  0  0  0  0
   43.8351   25.5830   33.8232 H   0  0  0  0  0  0  0  0  0  0  0  0
   43.3290   27.5663   34.0329 H   0  0  0  0  0  0  0  0  0  0  0  0
   42.9014   27.3807   32.2302 H   0  0  0  0  0  0  0  0  0  0  0  0
   41.3535   28.5527   33.9494 H   0  0  0  0  0  0  0  0  0  0  0  0
   40.8085   27.4995   32.5310 H   0  0  0  0  0  0  0  0  0  0  0  0
  1 15  1  0
  2  1  1  0
  3  2  2  0
  4  3  1  0
  5  4  2  0
  5  6  1  0
  6 11  2  0
  7  6  1  0
  7  8  2  0
  8  9  1  0
  9 10  2  0
 10 12  1  0
 11  2  1  0
 11 10  1  0
 12 13  1  0
 12 14  1  0
 15 17  1  0
 16 21  2  0
 16 22  1  0
 17 16  1  0
 18 19  1  0
 18 17  2  0
 19 20  2  0
 20 21  1  0
 22 23  2  0
 24 25  1  0
 24 15  1  0
 25 26  1  0
 27 26  1  0
 28 27  1  0
 29 28  1  0
 29 30  1  0
 30 25  1  0
  1 31  1  0
  1 32  1  0
  4 33  1  0
  7 34  1  0
  8 35  1  0
  9 36  1  0
 12 37  1  0
 13 38  1  0
 13 39  1  0
 13 40  1  0
 14 41  1  0
 14 42  1  0
 14 43  1  0
 15 44  1  1
 18 45  1  0
 20 46  1  0
 22 47  1  0
 24 48  1  0
 24 49  1  0
 26 50  1  0
 26 51  1  0
 27 52  1  0
 27 53  1  0
 28 54  1  0
 29 55  1  0
 29 56  1  0
 30 57  1  0
 30 58  1  0
M  ISO  8  31   8  32   8  33  14  34  14  35  14  36  14  37   8  38   8
M  ISO  8  39   8  40   8  41   8  42   8  43   8  44   8  45  14  46  14
M  ISO  8  47   6  48   8  49   8  50  13  51  13  52  13  53  13  54   5
M  ISO  4  55  13  56  13  57  13  58  13
M  END
>  <minimizedAffinity>  (1) 
-4.98275232

>  <minimizedRMSD>  (1) 
2.10526013

$$$$
