
     RDKit          3D

 36 38  0  0  0  0  0  0  0  0999 V2000
   38.5220   23.4800   33.9150 C   0  0  0  0  0  0  0  0  0  0  0  0
   36.2200   25.5390   31.7540 C   0  0  0  0  0  0  0  0  0  0  0  0
   37.2300   25.2130   32.6730 C   0  0  0  0  0  0  0  0  0  0  0  0
   37.4820   23.8720   32.9670 C   0  0  0  0  0  0  0  0  0  0  0  0
   36.7320   22.9290   32.3430 N   0  0  0  0  0  0  0  0  0  0  0  0
   35.7670   23.2650   31.4650 C   0  0  0  0  0  0  0  0  0  0  0  0
   35.5090   24.5600   31.1680 N   0  0  0  0  0  0  0  0  0  0  0  0
   38.5570   24.3600   35.1550 C   0  0  0  0  0  0  0  0  0  0  0  0
   38.2130   22.0680   34.4360 C   0  0  0  0  0  0  0  0  0  0  0  0
   39.8480   23.4790   33.1980 C   0  0  0  0  0  0  0  0  0  0  0  0
   40.8620   24.2340   33.9000 N   0  0  0  0  0  0  0  0  0  0  0  0
   41.1450   25.5440   33.8180 C   0  0  0  0  0  0  0  0  0  0  0  0
   42.1600   25.9100   34.6190 N   0  0  0  0  0  0  0  0  0  0  0  0
   42.5790   24.7940   35.2720 C   0  0  0  0  0  0  0  0  0  0  0  0
   43.5580   24.5100   36.2060 C   0  0  0  0  0  0  0  0  0  0  0  0
   44.2970   25.4400   36.6220 O   0  0  0  0  0  0  0  0  0  0  0  0
   43.7130   23.2480   36.6640 N   0  0  0  0  0  0  0  0  0  0  0  0
   42.8990   22.2950   36.1880 C   0  0  0  0  0  0  0  0  0  0  0  0
   42.9980   20.9400   36.6190 N   0  0  0  0  0  0  0  0  0  0  0  0
   41.9240   22.5130   35.2730 N   0  0  0  0  0  0  0  0  0  0  0  0
   41.7670   23.7870   34.8110 C   0  0  0  0  0  0  0  0  0  0  0  0
   36.0111   26.5920   31.5142 H   0  0  0  0  0  0  0  0  0  0  0  0
   37.8174   26.0072   33.1570 H   0  0  0  0  0  0  0  0  0  0  0  0
   35.1780   22.4723   30.9806 H   0  0  0  0  0  0  0  0  0  0  0  0
   38.5318   23.7273   36.0545 H   0  0  0  0  0  0  0  0  0  0  0  0
   39.4797   24.9589   35.1537 H   0  0  0  0  0  0  0  0  0  0  0  0
   37.6848   25.0303   35.1537 H   0  0  0  0  0  0  0  0  0  0  0  0
   38.2144   22.0746   35.5360 H   0  0  0  0  0  0  0  0  0  0  0  0
   37.2243   21.7513   34.0725 H   0  0  0  0  0  0  0  0  0  0  0  0
   38.9790   21.3673   34.0725 H   0  0  0  0  0  0  0  0  0  0  0  0
   39.7088   23.9198   32.1999 H   0  0  0  0  0  0  0  0  0  0  0  0
   40.1924   22.4361   33.1373 H   0  0  0  0  0  0  0  0  0  0  0  0
   40.6033   26.2435   33.1643 H   0  0  0  0  0  0  0  0  0  0  0  0
   44.4378   23.0241   37.3608 H   0  0  0  0  0  0  0  0  0  0  0  0
   42.3585   20.2295   36.2354 H   0  0  0  0  0  0  0  0  0  0  0  0
   43.7090   20.6713   37.3141 H   0  0  0  0  0  0  0  0  0  0  0  0
  1  9  1  0
  1  8  1  0
  2  3  2  0
  3  4  1  0
  4  1  1  0
  5  4  2  0
  6  5  1  0
  7  6  2  0
  7  2  1  0
 10 11  1  0
 10  1  1  0
 11 21  1  0
 12 11  1  0
 12 13  2  0
 13 14  1  0
 14 15  1  0
 15 16  2  0
 15 17  1  0
 18 19  1  0
 18 17  1  0
 20 18  2  0
 21 14  2  0
 21 20  1  0
  2 22  1  0
  3 23  1  0
  6 24  1  0
  8 25  1  0
  8 26  1  0
  8 27  1  0
  9 28  1  0
  9 29  1  0
  9 30  1  0
 10 31  1  0
 10 32  1  0
 12 33  1  0
 17 34  1  0
 19 35  1  0
 19 36  1  0
M  ISO  8  22  14  23  14  24  14  25   8  26   8  27   8  28   8  29   8
M  ISO  5  30   8  31   8  32   8  33  14  34   9
M  END
>  <minimizedAffinity>  (1) 
-3.98956251

>  <minimizedRMSD>  (1) 
7.57107115

$$$$
