
     RDKit          3D

 21 22  0  0  0  0  0  0  0  0999 V2000
   37.9110   24.0310   38.0150 C   0  0  0  0  0  0  0  0  0  0  0  0
   37.7350   24.0140   36.6050 C   0  0  0  0  0  0  0  0  0  0  0  0
   38.6690   23.3300   35.8390 C   0  0  0  0  0  0  0  0  0  0  0  0
   39.7000   22.7150   36.4750 N   0  0  0  0  0  0  0  0  0  0  0  0
   39.8530   22.7400   37.8100 C   0  0  0  0  0  0  0  0  0  0  0  0
   38.9600   23.3970   38.5800 N   0  0  0  0  0  0  0  0  0  0  0  0
   38.5050   23.2720   34.0700 S   0  0  0  0  0  0  0  0  0  0  0  0
   37.1630   22.2570   33.5250 C   0  0  0  0  0  0  0  0  0  0  0  0
   36.6590   22.6470   32.2820 C   0  0  0  0  0  0  0  0  0  0  0  0
   35.5940   21.9480   31.7090 C   0  0  0  0  0  0  0  0  0  0  0  0
   35.0330   20.8780   32.3520 C   0  0  0  0  0  0  0  0  0  0  0  0
   35.5370   20.4910   33.5900 C   0  0  0  0  0  0  0  0  0  0  0  0
   36.5860   21.1770   34.1610 C   0  0  0  0  0  0  0  0  0  0  0  0
   37.1879   24.5641   38.6498 H   0  0  0  0  0  0  0  0  0  0  0  0
   36.8837   24.5277   36.1344 H   0  0  0  0  0  0  0  0  0  0  0  0
   40.7063   22.2249   38.2753 H   0  0  0  0  0  0  0  0  0  0  0  0
   37.1010   23.5049   31.7542 H   0  0  0  0  0  0  0  0  0  0  0  0
   35.2019   22.2610   30.7301 H   0  0  0  0  0  0  0  0  0  0  0  0
   34.1946   20.3310   31.8961 H   0  0  0  0  0  0  0  0  0  0  0  0
   35.0949   19.6319   34.1158 H   0  0  0  0  0  0  0  0  0  0  0  0
   36.9705   20.8583   35.1411 H   0  0  0  0  0  0  0  0  0  0  0  0
  1  6  2  0
  2  1  1  0
  3  4  1  0
  3  2  2  0
  4  5  2  0
  5  6  1  0
  7  3  1  0
  8  7  1  0
  8 13  1  0
  9  8  2  0
 10  9  1  0
 10 11  2  0
 11 12  1  0
 12 13  2  0
  1 14  1  0
  2 15  1  0
  5 16  1  0
  9 17  1  0
 10 18  1  0
 11 19  1  0
 12 20  1  0
 13 21  1  0
M  ISO  8  14  14  15  14  16  14  17  14  18  14  19  14  20  14  21  14
M  END
>  <minimizedAffinity>  (1) 
-4.10103416

>  <minimizedRMSD>  (1) 
5.2872014

$$$$
