
     RDKit          3D

 28 29  0  0  0  0  0  0  0  0999 V2000
   38.6600   23.0170   36.4150 C   0  0  0  0  0  0  0  0  0  0  0  0
   36.6070   21.2350   33.8110 C   0  0  0  0  0  0  0  0  0  0  0  0
   37.6260   22.0100   34.3610 C   0  0  0  0  0  0  0  0  0  0  0  0
   37.6250   22.2210   35.7490 C   0  0  0  0  0  0  0  0  0  0  0  0
   36.6290   21.6620   36.5060 N   0  0  0  0  0  0  0  0  0  0  0  0
   35.6640   20.9170   35.9170 C   0  0  0  0  0  0  0  0  0  0  0  0
   35.6500   20.7040   34.5890 N   0  0  0  0  0  0  0  0  0  0  0  0
   39.0510   24.2650   35.6770 C   0  0  0  0  0  0  0  0  0  0  0  0
   38.1090   23.4900   37.7740 C   0  0  0  0  0  0  0  0  0  0  0  0
   39.8480   22.1150   36.6610 C   0  0  0  0  0  0  0  0  0  0  0  0
   41.0140   22.5250   35.8060 C   0  0  0  0  0  0  0  0  0  0  0  0
   42.0830   23.1460   36.4910 C   0  0  0  0  0  0  0  0  0  0  0  0
   43.2380   23.4620   35.1100 S   0  0  0  0  0  0  0  0  0  0  0  0
   42.0630   22.6930   33.8390 C   0  0  0  0  0  0  0  0  0  0  0  0
   41.1480   22.3700   34.5010 N   0  0  0  0  0  0  0  0  0  0  0  0
   36.5863   21.0559   32.7259 H   0  0  0  0  0  0  0  0  0  0  0  0
   38.4106   22.4450   33.7245 H   0  0  0  0  0  0  0  0  0  0  0  0
   34.8722   20.4752   36.5397 H   0  0  0  0  0  0  0  0  0  0  0  0
   39.2988   25.0561   36.4000 H   0  0  0  0  0  0  0  0  0  0  0  0
   39.9273   24.0580   35.0452 H   0  0  0  0  0  0  0  0  0  0  0  0
   38.2132   24.5951   35.0452 H   0  0  0  0  0  0  0  0  0  0  0  0
   38.6719   23.0068   38.5862 H   0  0  0  0  0  0  0  0  0  0  0  0
   38.2159   24.5819   37.8530 H   0  0  0  0  0  0  0  0  0  0  0  0
   37.0458   23.2190   37.8530 H   0  0  0  0  0  0  0  0  0  0  0  0
   40.1370   22.1797   37.7204 H   0  0  0  0  0  0  0  0  0  0  0  0
   39.5671   21.0831   36.4037 H   0  0  0  0  0  0  0  0  0  0  0  0
   42.1904   23.3760   37.5613 H   0  0  0  0  0  0  0  0  0  0  0  0
   42.2024   22.5778   32.7540 H   0  0  0  0  0  0  0  0  0  0  0  0
  1 10  1  0
  1  9  1  0
  2  3  2  0
  2  7  1  0
  3  4  1  0
  4  1  1  0
  4  5  2  0
  6  5  1  0
  7  6  2  0
  8  1  1  0
 11 12  2  0
 11 10  1  0
 13 12  1  0
 14 15  2  0
 14 13  1  0
 15 11  1  0
  2 16  1  0
  3 17  1  0
  6 18  1  0
  8 19  1  0
  8 20  1  0
  8 21  1  0
  9 22  1  0
  9 23  1  0
  9 24  1  0
 10 25  1  0
 10 26  1  0
 12 27  1  0
 14 28  1  0
M  ISO  8  16  14  17  14  18  14  19   8  20   8  21   8  22   8  23   8
M  ISO  5  24   8  25   8  26   8  27  14  28  14
M  END
>  <minimizedAffinity>  (1) 
-3.47682118

>  <minimizedRMSD>  (1) 
5.54780245

$$$$
