
     RDKit          3D

 23 23  0  0  0  0  0  0  0  0999 V2000
   38.5250   23.4670   37.0540 C   0  0  0  0  0  0  0  0  0  0  0  0
   41.7530   21.5260   37.1030 C   0  0  0  0  0  0  0  0  0  0  0  0
   40.6220   22.1870   37.5770 C   0  0  0  0  0  0  0  0  0  0  0  0
   39.7330   22.7500   36.6600 C   0  0  0  0  0  0  0  0  0  0  0  0
   40.0090   22.6270   35.3310 N   0  0  0  0  0  0  0  0  0  0  0  0
   41.1110   21.9810   34.8970 C   0  0  0  0  0  0  0  0  0  0  0  0
   41.9810   21.4310   35.7690 N   0  0  0  0  0  0  0  0  0  0  0  0
   38.3510   24.8190   36.4430 C   0  0  0  0  0  0  0  0  0  0  0  0
   37.2990   22.6440   36.6220 C   0  0  0  0  0  0  0  0  0  0  0  0
   38.5180   23.5220   38.5920 C   0  0  0  0  0  0  0  0  0  0  0  0
   37.9990   24.7870   38.9550 O   0  0  0  0  0  0  0  0  0  0  0  0
   42.4642   21.0792   37.8134 H   0  0  0  0  0  0  0  0  0  0  0  0
   40.4324   22.2641   38.6578 H   0  0  0  0  0  0  0  0  0  0  0  0
   41.3028   21.9016   33.8168 H   0  0  0  0  0  0  0  0  0  0  0  0
   38.2541   25.5716   37.2394 H   0  0  0  0  0  0  0  0  0  0  0  0
   39.2262   25.0551   35.8198 H   0  0  0  0  0  0  0  0  0  0  0  0
   37.4446   24.8259   35.8198 H   0  0  0  0  0  0  0  0  0  0  0  0
   36.7650   22.2856   37.5144 H   0  0  0  0  0  0  0  0  0  0  0  0
   36.6271   23.2747   36.0214 H   0  0  0  0  0  0  0  0  0  0  0  0
   37.6283   21.7833   36.0214 H   0  0  0  0  0  0  0  0  0  0  0  0
   37.8811   22.7215   38.9964 H   0  0  0  0  0  0  0  0  0  0  0  0
   39.5314   23.3813   38.9959 H   0  0  0  0  0  0  0  0  0  0  0  0
   37.9688   24.8605   39.9418 H   0  0  0  0  0  0  0  0  0  0  0  0
  1 10  1  0
  2  3  2  0
  4  1  1  0
  4  3  1  0
  5  4  2  0
  6  5  1  0
  6  7  2  0
  7  2  1  0
  8  1  1  0
  9  1  1  0
 10 11  1  0
  2 12  1  0
  3 13  1  0
  6 14  1  0
  8 15  1  0
  8 16  1  0
  8 17  1  0
  9 18  1  0
  9 19  1  0
  9 20  1  0
 10 21  1  0
 10 22  1  0
 11 23  1  0
M  ISO  8  12  14  13  14  14  14  15   8  16   8  17   8  18   8  19   8
M  ISO  4  20   8  21   8  22   8  23   3
M  END
>  <minimizedAffinity>  (1) 
-3.40219212

>  <minimizedRMSD>  (1) 
0.327212781

$$$$
