
     RDKit          3D

 36 38  0  0  0  0  0  0  0  0999 V2000
   40.4660   23.1900   35.4800 C   0  0  0  0  0  0  0  0  0  0  0  0
   37.9110   23.6320   32.7370 C   0  0  0  0  0  0  0  0  0  0  0  0
   39.0270   23.8760   33.5330 C   0  0  0  0  0  0  0  0  0  0  0  0
   39.3070   23.0100   34.5970 C   0  0  0  0  0  0  0  0  0  0  0  0
   38.4530   21.9780   34.7760 N   0  0  0  0  0  0  0  0  0  0  0  0
   37.3820   21.7570   34.0000 C   0  0  0  0  0  0  0  0  0  0  0  0
   37.1050   22.5800   32.9780 N   0  0  0  0  0  0  0  0  0  0  0  0
   40.1170   22.9560   36.9500 C   0  0  0  0  0  0  0  0  0  0  0  0
   41.5080   22.1460   35.1390 C   0  0  0  0  0  0  0  0  0  0  0  0
   40.9790   24.5960   35.2730 C   0  0  0  0  0  0  0  0  0  0  0  0
   42.3890   24.6480   34.7840 C   0  0  0  0  0  0  0  0  0  0  0  0
   42.7790   24.7130   33.4440 C   0  0  0  0  0  0  0  0  0  0  0  0
   44.1190   24.7890   33.3770 N   0  0  0  0  0  0  0  0  0  0  0  0
   44.6520   24.7760   34.6070 C   0  0  0  0  0  0  0  0  0  0  0  0
   45.9320   24.8180   35.1680 C   0  0  0  0  0  0  0  0  0  0  0  0
   46.1730   24.7780   36.5230 C   0  0  0  0  0  0  0  0  0  0  0  0
   45.1220   24.6900   37.3960 C   0  0  0  0  0  0  0  0  0  0  0  0
   43.8500   24.6490   36.8580 C   0  0  0  0  0  0  0  0  0  0  0  0
   43.5800   24.6890   35.5030 C   0  0  0  0  0  0  0  0  0  0  0  0
   37.6843   24.3080   31.8994 H   0  0  0  0  0  0  0  0  0  0  0  0
   39.6798   24.7374   33.3287 H   0  0  0  0  0  0  0  0  0  0  0  0
   36.7274   20.8965   34.2027 H   0  0  0  0  0  0  0  0  0  0  0  0
   40.8615   23.4552   37.5876 H   0  0  0  0  0  0  0  0  0  0  0  0
   39.1190   23.3682   37.1600 H   0  0  0  0  0  0  0  0  0  0  0  0
   40.1194   21.8762   37.1600 H   0  0  0  0  0  0  0  0  0  0  0  0
   41.9254   21.7278   36.0669 H   0  0  0  0  0  0  0  0  0  0  0  0
   41.0422   21.3413   34.5512 H   0  0  0  0  0  0  0  0  0  0  0  0
   42.3136   22.6103   34.5512 H   0  0  0  0  0  0  0  0  0  0  0  0
   40.3354   25.0966   34.5346 H   0  0  0  0  0  0  0  0  0  0  0  0
   40.9567   25.0967   36.2522 H   0  0  0  0  0  0  0  0  0  0  0  0
   42.0973   24.7035   32.5807 H   0  0  0  0  0  0  0  0  0  0  0  0
   44.6607   24.8489   32.5030 H   0  0  0  0  0  0  0  0  0  0  0  0
   46.7946   24.8868   34.4889 H   0  0  0  0  0  0  0  0  0  0  0  0
   47.2048   24.8166   36.9023 H   0  0  0  0  0  0  0  0  0  0  0  0
   45.2839   24.6534   38.4834 H   0  0  0  0  0  0  0  0  0  0  0  0
   42.9989   24.5802   37.5515 H   0  0  0  0  0  0  0  0  0  0  0  0
  1  8  1  0
  2  7  2  0
  2  3  1  0
  3  4  2  0
  4  5  1  0
  4  1  1  0
  6  5  2  0
  7  6  1  0
  9  1  1  0
 10  1  1  0
 11 10  1  0
 11 19  1  0
 12 11  2  0
 13 12  1  0
 13 14  1  0
 14 15  2  0
 14 19  1  0
 15 16  1  0
 16 17  2  0
 18 17  1  0
 19 18  2  0
  2 20  1  0
  3 21  1  0
  6 22  1  0
  8 23  1  0
  8 24  1  0
  8 25  1  0
  9 26  1  0
  9 27  1  0
  9 28  1  0
 10 29  1  0
 10 30  1  0
 12 31  1  0
 13 32  1  0
 15 33  1  0
 16 34  1  0
 17 35  1  0
 18 36  1  0
M  ISO  8  20  14  21  14  22  14  23   8  24   8  25   8  26   8  27   8
M  ISO  8  28   8  29   8  30   8  31  14  32   9  33  14  34  14  35  14
M  ISO  1  36  14
M  END
>  <minimizedAffinity>  (1) 
-3.60711837

>  <minimizedRMSD>  (1) 
7.7659502

$$$$
