
     RDKit          3D

 30 31  0  0  0  0  0  0  0  0999 V2000
   40.0810   25.2980   34.6320 C   0  0  0  0  0  0  0  0  0  0  0  0
   38.2100   22.3000   35.9130 C   0  0  0  0  0  0  0  0  0  0  0  0
   39.0740   23.0730   35.1450 C   0  0  0  0  0  0  0  0  0  0  0  0
   39.1910   24.4370   35.4060 C   0  0  0  0  0  0  0  0  0  0  0  0
   38.4460   24.9760   36.4180 N   0  0  0  0  0  0  0  0  0  0  0  0
   37.6130   24.2000   37.1500 C   0  0  0  0  0  0  0  0  0  0  0  0
   37.4850   22.8780   36.9130 N   0  0  0  0  0  0  0  0  0  0  0  0
   39.9360   26.7740   34.9560 C   0  0  0  0  0  0  0  0  0  0  0  0
   41.5350   24.9310   34.9750 C   0  0  0  0  0  0  0  0  0  0  0  0
   39.8500   25.0260   33.1600 C   0  0  0  0  0  0  0  0  0  0  0  0
   38.7750   25.9470   32.6440 C   0  0  0  0  0  0  0  0  0  0  0  0
   37.4270   25.7400   32.8540 C   0  0  0  0  0  0  0  0  0  0  0  0
   36.4750   26.6100   32.3620 C   0  0  0  0  0  0  0  0  0  0  0  0
   36.8810   27.6910   31.6580 N   0  0  0  0  0  0  0  0  0  0  0  0
   38.2110   27.8700   31.4670 C   0  0  0  0  0  0  0  0  0  0  0  0
   39.1580   27.0400   31.9340 N   0  0  0  0  0  0  0  0  0  0  0  0
   38.1114   21.2227   35.7139 H   0  0  0  0  0  0  0  0  0  0  0  0
   39.6609   22.6112   34.3373 H   0  0  0  0  0  0  0  0  0  0  0  0
   37.0254   24.6589   37.9588 H   0  0  0  0  0  0  0  0  0  0  0  0
   39.9226   26.9102   36.0475 H   0  0  0  0  0  0  0  0  0  0  0  0
   40.7840   27.3285   34.5277 H   0  0  0  0  0  0  0  0  0  0  0  0
   38.9963   27.1528   34.5277 H   0  0  0  0  0  0  0  0  0  0  0  0
   41.6574   24.9001   36.0677 H   0  0  0  0  0  0  0  0  0  0  0  0
   41.7739   23.9444   34.5513 H   0  0  0  0  0  0  0  0  0  0  0  0
   42.2135   25.6861   34.5513 H   0  0  0  0  0  0  0  0  0  0  0  0
   40.7824   25.2020   32.6035 H   0  0  0  0  0  0  0  0  0  0  0  0
   39.5349   23.9809   33.0243 H   0  0  0  0  0  0  0  0  0  0  0  0
   37.1029   24.8594   33.4280 H   0  0  0  0  0  0  0  0  0  0  0  0
   35.4049   26.4273   32.5394 H   0  0  0  0  0  0  0  0  0  0  0  0
   38.5352   28.7507   30.8932 H   0  0  0  0  0  0  0  0  0  0  0  0
  1  8  1  0
  1  9  1  0
  1  4  1  0
  2  7  2  0
  3  4  2  0
  3  2  1  0
  4  5  1  0
  5  6  2  0
  7  6  1  0
 10  1  1  0
 11 12  2  0
 11 10  1  0
 13 12  1  0
 14 13  2  0
 15 14  1  0
 15 16  2  0
 16 11  1  0
  2 17  1  0
  3 18  1  0
  6 19  1  0
  8 20  1  0
  8 21  1  0
  8 22  1  0
  9 23  1  0
  9 24  1  0
  9 25  1  0
 10 26  1  0
 10 27  1  0
 12 28  1  0
 13 29  1  0
 15 30  1  0
M  ISO  8  17  14  18  14  19  14  20   8  21   8  22   8  23   8  24   8
M  ISO  6  25   8  26   8  27   8  28  14  29  14  30  14
M  END
>  <minimizedAffinity>  (1) 
-3.68319201

>  <minimizedRMSD>  (1) 
5.96342278

$$$$
