
     RDKit          3D

 24 25  0  0  0  0  0  0  0  0999 V2000
   41.0810   21.7940   37.5290 C   0  0  0  0  0  0  0  0  0  0  0  0
   40.0200   22.7150   37.5070 C   0  0  0  0  0  0  0  0  0  0  0  0
   39.6600   23.2440   36.2590 C   0  0  0  0  0  0  0  0  0  0  0  0
   40.3460   22.8370   35.1740 N   0  0  0  0  0  0  0  0  0  0  0  0
   41.3570   21.9560   35.2160 C   0  0  0  0  0  0  0  0  0  0  0  0
   41.7220   21.4340   36.4010 N   0  0  0  0  0  0  0  0  0  0  0  0
   38.3290   24.4200   36.1180 S   0  0  0  0  0  0  0  0  0  0  0  0
   38.6830   25.5400   34.7390 C   0  0  0  0  0  0  0  0  0  0  0  0
   39.4720   26.7570   35.2110 C   0  0  0  0  0  0  0  0  0  0  0  0
   38.4050   27.5230   35.9660 C   0  0  0  0  0  0  0  0  0  0  0  0
   37.3050   27.5380   34.9000 C   0  0  0  0  0  0  0  0  0  0  0  0
   37.3460   26.1380   34.3170 C   0  0  0  0  0  0  0  0  0  0  0  0
   41.3948   21.3576   38.4887 H   0  0  0  0  0  0  0  0  0  0  0  0
   39.4949   23.0082   38.4280 H   0  0  0  0  0  0  0  0  0  0  0  0
   41.8806   21.6643   34.2936 H   0  0  0  0  0  0  0  0  0  0  0  0
   39.2259   24.9808   33.9628 H   0  0  0  0  0  0  0  0  0  0  0  0
   40.3036   26.4677   35.8704 H   0  0  0  0  0  0  0  0  0  0  0  0
   39.9503   27.3275   34.4012 H   0  0  0  0  0  0  0  0  0  0  0  0
   38.0870   26.9945   36.8768 H   0  0  0  0  0  0  0  0  0  0  0  0
   38.7118   28.5120   36.3370 H   0  0  0  0  0  0  0  0  0  0  0  0
   36.3240   27.7455   35.3523 H   0  0  0  0  0  0  0  0  0  0  0  0
   37.4591   28.3192   34.1411 H   0  0  0  0  0  0  0  0  0  0  0  0
   37.2763   26.1797   33.2200 H   0  0  0  0  0  0  0  0  0  0  0  0
   36.5034   25.5293   34.6770 H   0  0  0  0  0  0  0  0  0  0  0  0
  2  1  2  0
  3  2  1  0
  4  5  1  0
  4  3  2  0
  5  6  2  0
  6  1  1  0
  7  3  1  0
  8  9  1  0
  8  7  1  0
  9 10  1  0
 11 10  1  0
 12  8  1  0
 12 11  1  0
  1 13  1  0
  2 14  1  0
  5 15  1  0
  8 16  1  0
  9 17  1  0
  9 18  1  0
 10 19  1  0
 10 20  1  0
 11 21  1  0
 11 22  1  0
 12 23  1  0
 12 24  1  0
M  ISO  8  13  14  14  14  15  14  16  13  17  13  18  13  19  13  20  13
M  ISO  4  21  13  22  13  23  13  24  13
M  END
>  <minimizedAffinity>  (1) 
-3.70812869

>  <minimizedRMSD>  (1) 
2.31047916

$$$$
