
     RDKit          3D

 35 36  0  0  0  0  0  0  0  0999 V2000
   41.7460   25.4840   32.0520 C   0  0  0  0  0  0  0  0  0  0  0  0
   41.7060   28.6880   30.0830 C   0  0  0  0  0  0  0  0  0  0  0  0
   42.2030   27.6190   30.8260 C   0  0  0  0  0  0  0  0  0  0  0  0
   41.3090   26.6340   31.2710 C   0  0  0  0  0  0  0  0  0  0  0  0
   39.9920   26.7790   30.9500 N   0  0  0  0  0  0  0  0  0  0  0  0
   39.5360   27.8210   30.2320 C   0  0  0  0  0  0  0  0  0  0  0  0
   40.3970   28.7760   29.7980 N   0  0  0  0  0  0  0  0  0  0  0  0
   40.8120   24.2980   31.9660 C   0  0  0  0  0  0  0  0  0  0  0  0
   43.0880   24.9840   31.4890 C   0  0  0  0  0  0  0  0  0  0  0  0
   41.9710   25.9410   33.4770 C   0  0  0  0  0  0  0  0  0  0  0  0
   38.9020   24.5570   36.1720 C   0  0  0  0  0  0  0  0  0  0  0  0
   38.7830   25.7820   35.5620 C   0  0  0  0  0  0  0  0  0  0  0  0
   39.7510   26.2490   34.6960 C   0  0  0  0  0  0  0  0  0  0  0  0
   40.8800   25.5170   34.3980 C   0  0  0  0  0  0  0  0  0  0  0  0
   40.9390   24.2880   35.0470 C   0  0  0  0  0  0  0  0  0  0  0  0
   40.0010   23.7790   35.9200 C   0  0  0  0  0  0  0  0  0  0  0  0
   37.6400   24.0250   37.2590 S   0  0  0  0  0  0  0  0  0  0  0  0
   37.1560   22.6490   36.8400 O   0  0  0  0  0  0  0  0  0  0  0  0
   38.2560   23.9430   38.6280 O   0  0  0  0  0  0  0  0  0  0  0  0
   42.3939   29.4686   29.7260 H   0  0  0  0  0  0  0  0  0  0  0  0
   43.2757   27.5490   31.0590 H   0  0  0  0  0  0  0  0  0  0  0  0
   38.4644   27.8991   29.9964 H   0  0  0  0  0  0  0  0  0  0  0  0
   40.5490   23.9641   32.9806 H   0  0  0  0  0  0  0  0  0  0  0  0
   39.8981   24.5893   31.4274 H   0  0  0  0  0  0  0  0  0  0  0  0
   41.3094   23.4779   31.4274 H   0  0  0  0  0  0  0  0  0  0  0  0
   43.7633   24.7324   32.3200 H   0  0  0  0  0  0  0  0  0  0  0  0
   42.9164   24.0895   30.8723 H   0  0  0  0  0  0  0  0  0  0  0  0
   43.5436   25.7727   30.8723 H   0  0  0  0  0  0  0  0  0  0  0  0
   42.9197   25.5161   33.8368 H   0  0  0  0  0  0  0  0  0  0  0  0
   41.9922   27.0408   33.4727 H   0  0  0  0  0  0  0  0  0  0  0  0
   37.8987   26.4031   35.7678 H   0  0  0  0  0  0  0  0  0  0  0  0
   39.6172   27.2360   34.2292 H   0  0  0  0  0  0  0  0  0  0  0  0
   41.8198   23.6612   34.8439 H   0  0  0  0  0  0  0  0  0  0  0  0
   40.1292   22.7938   36.3922 H   0  0  0  0  0  0  0  0  0  0  0  0
   36.5747   24.8863   37.2422 H   0  0  0  0  0  0  0  0  0  0  0  0
  1 10  1  0
  2  3  2  0
  3  4  1  0
  4  1  1  0
  5  4  2  0
  6  5  1  0
  7  2  1  0
  7  6  2  0
  8  1  1  0
  9  1  1  0
 10 14  1  0
 11 17  1  0
 12 11  2  0
 13 12  1  0
 14 13  2  0
 14 15  1  0
 15 16  2  0
 16 11  1  0
 17 19  2  0
 18 17  2  0
  2 20  1  0
  3 21  1  0
  6 22  1  0
  8 23  1  0
  8 24  1  0
  8 25  1  0
  9 26  1  0
  9 27  1  0
  9 28  1  0
 10 29  1  0
 10 30  1  0
 12 31  1  0
 13 32  1  0
 15 33  1  0
 16 34  1  0
 17 35  1  0
M  ISO  8  20  14  21  14  22  14  23   8  24   8  25   8  26   8  27   8
M  ISO  8  28   8  29   8  30   8  31  14  32  14  33  14  34  14  35  11
M  END
>  <minimizedAffinity>  (1) 
-3.29922891

>  <minimizedRMSD>  (1) 
7.05867577

$$$$
