
     RDKit          3D

 29 30  0  0  0  0  0  0  0  0999 V2000
   39.4620   23.2930   35.5530 C   0  0  0  0  0  0  0  0  0  0  0  0
   43.1060   24.1540   35.8870 C   0  0  0  0  0  0  0  0  0  0  0  0
   41.9020   23.4590   35.9920 C   0  0  0  0  0  0  0  0  0  0  0  0
   40.7310   24.0110   35.4720 C   0  0  0  0  0  0  0  0  0  0  0  0
   40.8200   25.2200   34.8740 N   0  0  0  0  0  0  0  0  0  0  0  0
   41.9980   25.8720   34.7840 C   0  0  0  0  0  0  0  0  0  0  0  0
   43.1260   25.3520   35.2810 N   0  0  0  0  0  0  0  0  0  0  0  0
   38.2910   24.1340   35.0770 C   0  0  0  0  0  0  0  0  0  0  0  0
   39.4930   22.1660   34.4990 C   0  0  0  0  0  0  0  0  0  0  0  0
   39.2920   22.6870   36.8820 C   0  0  0  0  0  0  0  0  0  0  0  0
   38.9740   23.3740   38.1100 C   0  0  0  0  0  0  0  0  0  0  0  0
   37.6020   23.0280   38.7440 C   0  0  0  0  0  0  0  0  0  0  0  0
   38.0330   24.4350   38.4400 C   0  0  0  0  0  0  0  0  0  0  0  0
   44.0319   23.7245   36.2972 H   0  0  0  0  0  0  0  0  0  0  0  0
   41.8753   22.4758   36.4846 H   0  0  0  0  0  0  0  0  0  0  0  0
   42.0316   26.8544   34.2903 H   0  0  0  0  0  0  0  0  0  0  0  0
   37.7441   24.5268   35.9468 H   0  0  0  0  0  0  0  0  0  0  0  0
   38.6642   24.9718   34.4696 H   0  0  0  0  0  0  0  0  0  0  0  0
   37.6163   23.5128   34.4696 H   0  0  0  0  0  0  0  0  0  0  0  0
   39.5198   21.1903   35.0062 H   0  0  0  0  0  0  0  0  0  0  0  0
   38.5928   22.2275   33.8698 H   0  0  0  0  0  0  0  0  0  0  0  0
   40.3884   22.2769   33.8698 H   0  0  0  0  0  0  0  0  0  0  0  0
   38.4904   21.9443   36.7557 H   0  0  0  0  0  0  0  0  0  0  0  0
   40.3381   22.4194   37.0921 H   0  0  0  0  0  0  0  0  0  0  0  0
   40.0591   23.3497   38.2886 H   0  0  0  0  0  0  0  0  0  0  0  0
   36.8168   22.5430   38.1455 H   0  0  0  0  0  0  0  0  0  0  0  0
   37.2511   22.4774   39.6293 H   0  0  0  0  0  0  0  0  0  0  0  0
   38.2609   25.1219   39.2684 H   0  0  0  0  0  0  0  0  0  0  0  0
   37.5849   25.2579   37.8637 H   0  0  0  0  0  0  0  0  0  0  0  0
  1 10  1  0
  2  3  2  0
  4  1  1  0
  4  3  1  0
  5  4  2  0
  6  5  1  0
  6  7  2  0
  7  2  1  0
  8  1  1  0
  9  1  1  0
 10 11  1  0
 11 13  1  0
 11 12  1  0
 13 12  1  0
  2 14  1  0
  3 15  1  0
  6 16  1  0
  8 17  1  0
  8 18  1  0
  8 19  1  0
  9 20  1  0
  9 21  1  0
  9 22  1  0
 10 23  1  0
 10 24  1  0
 11 25  1  0
 12 26  1  0
 12 27  1  0
 13 28  1  0
 13 29  1  0
M  ISO  8  14  14  15  14  16  14  17   8  18   8  19   8  20   8  21   8
M  ISO  8  22   8  23   8  24   8  25  13  26  13  27  13  28  13  29  13
M  END
>  <minimizedAffinity>  (1) 
-3.29027414

>  <minimizedRMSD>  (1) 
2.82020497

$$$$
