
     RDKit          3D

 45 48  0  0  0  0  0  0  0  0999 V2000
   40.5790   24.1200   34.4230 N   0  0  0  0  0  0  0  0  0  0  0  0
   39.8620   24.7690   33.4550 C   0  0  0  0  0  0  0  0  0  0  0  0
   40.5490   25.8620   33.0580 N   0  0  0  0  0  0  0  0  0  0  0  0
   41.6990   25.9170   33.7620 C   0  0  0  0  0  0  0  0  0  0  0  0
   42.8080   26.7410   33.8440 C   0  0  0  0  0  0  0  0  0  0  0  0
   43.8180   26.4750   34.7050 N   0  0  0  0  0  0  0  0  0  0  0  0
   43.7970   25.4010   35.5190 C   0  0  0  0  0  0  0  0  0  0  0  0
   42.7150   24.5840   35.4490 N   0  0  0  0  0  0  0  0  0  0  0  0
   41.7060   24.8460   34.5940 C   0  0  0  0  0  0  0  0  0  0  0  0
   42.8030   27.8860   32.9690 N   0  0  0  0  0  0  0  0  0  0  0  0
   44.8690   25.1350   36.4180 N   0  0  0  0  0  0  0  0  0  0  0  0
   44.6190   25.5220   37.7020 C   0  0  0  0  0  0  0  0  0  0  0  0
   45.5630   25.3370   38.7190 C   0  0  0  0  0  0  0  0  0  0  0  0
   46.7280   24.7450   38.3110 C   0  0  0  0  0  0  0  0  0  0  0  0
   47.6380   24.5400   39.1710 O   0  0  0  0  0  0  0  0  0  0  0  0
   46.9860   24.3580   37.0480 N   0  0  0  0  0  0  0  0  0  0  0  0
   46.0420   24.5590   36.0940 C   0  0  0  0  0  0  0  0  0  0  0  0
   46.2020   24.2270   34.8930 O   0  0  0  0  0  0  0  0  0  0  0  0
   40.1120   22.8740   35.0930 C   0  0  0  0  0  0  0  0  0  0  0  0
   38.8940   23.1600   35.8810 C   0  0  0  0  0  0  0  0  0  0  0  0
   36.5240   21.1630   33.8320 C   0  0  0  0  0  0  0  0  0  0  0  0
   37.6150   21.9850   34.1690 C   0  0  0  0  0  0  0  0  0  0  0  0
   37.7740   22.3410   35.4940 C   0  0  0  0  0  0  0  0  0  0  0  0
   36.8810   21.8890   36.3970 N   0  0  0  0  0  0  0  0  0  0  0  0
   35.8460   21.1050   36.0460 C   0  0  0  0  0  0  0  0  0  0  0  0
   35.6620   20.7390   34.7740 N   0  0  0  0  0  0  0  0  0  0  0  0
   38.5310   24.6550   35.9360 C   0  0  0  0  0  0  0  0  0  0  0  0
   39.2160   22.9080   37.3830 C   0  0  0  0  0  0  0  0  0  0  0  0
   38.8842   24.4518   33.0635 H   0  0  0  0  0  0  0  0  0  0  0  0
   43.5962   28.5431   32.9761 H   0  0  0  0  0  0  0  0  0  0  0  0
   42.0062   28.0473   32.3365 H   0  0  0  0  0  0  0  0  0  0  0  0
   43.6534   25.9902   37.9438 H   0  0  0  0  0  0  0  0  0  0  0  0
   45.3834   25.6422   39.7604 H   0  0  0  0  0  0  0  0  0  0  0  0
   47.8854   23.9164   36.8094 H   0  0  0  0  0  0  0  0  0  0  0  0
   39.8852   22.1125   34.3323 H   0  0  0  0  0  0  0  0  0  0  0  0
   40.9012   22.5023   35.7631 H   0  0  0  0  0  0  0  0  0  0  0  0
   36.3738   20.8630   32.7844 H   0  0  0  0  0  0  0  0  0  0  0  0
   38.3202   22.3337   33.4002 H   0  0  0  0  0  0  0  0  0  0  0  0
   35.1411   20.7602   36.8168 H   0  0  0  0  0  0  0  0  0  0  0  0
   38.4533   24.9751   36.9855 H   0  0  0  0  0  0  0  0  0  0  0  0
   39.3130   25.2410   35.4309 H   0  0  0  0  0  0  0  0  0  0  0  0
   37.5674   24.8172   35.4309 H   0  0  0  0  0  0  0  0  0  0  0  0
   38.5038   23.4654   38.0092 H   0  0  0  0  0  0  0  0  0  0  0  0
   39.1323   21.8330   37.6006 H   0  0  0  0  0  0  0  0  0  0  0  0
   40.2394   23.2476   37.6006 H   0  0  0  0  0  0  0  0  0  0  0  0
  1  9  1  0
  1 19  1  0
  2  1  1  0
  3  2  2  0
  3  4  1  0
  4  5  2  0
  4  9  1  0
  5  6  1  0
  6  7  2  0
  7 11  1  0
  8  7  1  0
  9  8  2  0
 10  5  1  0
 11 12  1  0
 12 13  2  0
 14 13  1  0
 14 15  2  0
 16 14  1  0
 17 11  1  0
 17 16  1  0
 18 17  2  0
 19 20  1  0
 20 27  1  0
 20 28  1  0
 21 22  2  0
 21 26  1  0
 22 23  1  0
 23 20  1  0
 23 24  2  0
 25 24  1  0
 26 25  2  0
  2 29  1  0
 10 30  1  0
 10 31  1  0
 12 32  1  0
 13 33  1  0
 16 34  1  0
 19 35  1  0
 19 36  1  0
 21 37  1  0
 22 38  1  0
 25 39  1  0
 27 40  1  0
 27 41  1  0
 27 42  1  0
 28 43  1  0
 28 44  1  0
 28 45  1  0
M  ISO  8  29  14  32  14  33  14  34   9  35   8  36   8  37  14  38  14
M  ISO  7  39  14  40   8  41   8  42   8  43   8  44   8  45   8
M  END
>  <minimizedAffinity>  (1) 
-5.93615198

>  <minimizedRMSD>  (1) 
2.24945641

$$$$
