
     RDKit          3D

 48 51  0  0  0  0  0  0  0  0999 V2000
   40.0200   22.6880   34.5760 C   0  0  0  0  0  0  0  0  0  0  0  0
   40.6620   23.9770   34.2000 N   0  0  0  0  0  0  0  0  0  0  0  0
   40.1600   24.8150   33.2420 C   0  0  0  0  0  0  0  0  0  0  0  0
   40.9630   25.8970   33.1370 N   0  0  0  0  0  0  0  0  0  0  0  0
   41.9750   25.7560   34.0200 C   0  0  0  0  0  0  0  0  0  0  0  0
   43.0940   26.4640   34.4110 C   0  0  0  0  0  0  0  0  0  0  0  0
   43.9210   26.0080   35.3620 N   0  0  0  0  0  0  0  0  0  0  0  0
   43.7020   24.8270   35.9890 C   0  0  0  0  0  0  0  0  0  0  0  0
   42.6090   24.1160   35.6210 N   0  0  0  0  0  0  0  0  0  0  0  0
   41.7780   24.5780   34.6630 C   0  0  0  0  0  0  0  0  0  0  0  0
   43.3240   27.7140   33.7440 N   0  0  0  0  0  0  0  0  0  0  0  0
   44.5780   24.2660   37.0500 C   0  0  0  0  0  0  0  0  0  0  0  0
   45.9170   23.8330   36.5000 C   0  0  0  0  0  0  0  0  0  0  0  0
   46.9220   24.4210   37.4940 C   0  0  0  0  0  0  0  0  0  0  0  0
   46.2500   25.7730   37.7490 C   0  0  0  0  0  0  0  0  0  0  0  0
   44.8480   25.3220   38.1070 C   0  0  0  0  0  0  0  0  0  0  0  0
   38.9390   22.9330   35.5520 C   0  0  0  0  0  0  0  0  0  0  0  0
   36.3060   21.0330   33.7460 C   0  0  0  0  0  0  0  0  0  0  0  0
   37.4620   21.8050   33.9760 C   0  0  0  0  0  0  0  0  0  0  0  0
   37.7530   22.1630   35.2800 C   0  0  0  0  0  0  0  0  0  0  0  0
   36.9220   21.7630   36.2640 N   0  0  0  0  0  0  0  0  0  0  0  0
   35.8250   21.0270   36.0120 C   0  0  0  0  0  0  0  0  0  0  0  0
   35.5100   20.6600   34.7700 N   0  0  0  0  0  0  0  0  0  0  0  0
   38.6310   24.4260   35.7590 C   0  0  0  0  0  0  0  0  0  0  0  0
   39.4720   22.5680   36.9690 C   0  0  0  0  0  0  0  0  0  0  0  0
   40.7725   22.0224   35.0240 H   0  0  0  0  0  0  0  0  0  0  0  0
   39.5970   22.2171   33.6764 H   0  0  0  0  0  0  0  0  0  0  0  0
   39.2490   24.6367   32.6519 H   0  0  0  0  0  0  0  0  0  0  0  0
   44.1427   28.2874   33.9926 H   0  0  0  0  0  0  0  0  0  0  0  0
   42.6703   28.0376   33.0168 H   0  0  0  0  0  0  0  0  0  0  0  0
   44.0533   23.3963   37.4723 H   0  0  0  0  0  0  0  0  0  0  0  0
   45.9922   22.7360   36.4680 H   0  0  0  0  0  0  0  0  0  0  0  0
   46.0861   24.1753   35.4684 H   0  0  0  0  0  0  0  0  0  0  0  0
   46.9951   23.8180   38.4111 H   0  0  0  0  0  0  0  0  0  0  0  0
   47.9620   24.4708   37.1392 H   0  0  0  0  0  0  0  0  0  0  0  0
   46.7273   26.3133   38.5798 H   0  0  0  0  0  0  0  0  0  0  0  0
   46.3034   26.4775   36.9059 H   0  0  0  0  0  0  0  0  0  0  0  0
   44.1302   26.1524   38.0351 H   0  0  0  0  0  0  0  0  0  0  0  0
   44.7501   24.9529   39.1386 H   0  0  0  0  0  0  0  0  0  0  0  0
   36.0493   20.7308   32.7199 H   0  0  0  0  0  0  0  0  0  0  0  0
   38.1128   22.1134   33.1445 H   0  0  0  0  0  0  0  0  0  0  0  0
   35.1758   20.7223   36.8461 H   0  0  0  0  0  0  0  0  0  0  0  0
   38.5858   24.6452   36.8360 H   0  0  0  0  0  0  0  0  0  0  0  0
   39.4231   25.0316   35.2945 H   0  0  0  0  0  0  0  0  0  0  0  0
   37.6639   24.6687   35.2945 H   0  0  0  0  0  0  0  0  0  0  0  0
   38.8189   23.0152   37.7328 H   0  0  0  0  0  0  0  0  0  0  0  0
   39.4793   21.4744   37.0875 H   0  0  0  0  0  0  0  0  0  0  0  0
   40.4943   22.9565   37.0875 H   0  0  0  0  0  0  0  0  0  0  0  0
  1 17  1  0
  2  1  1  0
  2 10  1  0
  3  2  1  0
  4  3  2  0
  4  5  1  0
  5  6  2  0
  5 10  1  0
  6  7  1  0
  7  8  2  0
  8 12  1  0
  9  8  1  0
 10  9  2  0
 11  6  1  0
 12 16  1  0
 13 12  1  0
 13 14  1  0
 14 15  1  0
 15 16  1  0
 17 24  1  0
 17 25  1  0
 18 19  2  0
 18 23  1  0
 19 20  1  0
 20 17  1  0
 20 21  2  0
 22 21  1  0
 23 22  2  0
  1 26  1  0
  1 27  1  0
  3 28  1  0
 11 29  1  0
 11 30  1  0
 12 31  1  0
 13 32  1  0
 13 33  1  0
 14 34  1  0
 14 35  1  0
 15 36  1  0
 15 37  1  0
 16 38  1  0
 16 39  1  0
 18 40  1  0
 19 41  1  0
 22 42  1  0
 24 43  1  0
 24 44  1  0
 24 45  1  0
 25 46  1  0
 25 47  1  0
 25 48  1  0
M  ISO  8  26   8  27   8  28  14  31  13  32  13  33  13  34  13  35  13
M  ISO  8  36  13  37  13  38  13  39  13  40  14  41  14  42  14  43   8
M  ISO  5  44   8  45   8  46   8  47   8  48   8
M  END
>  <minimizedAffinity>  (1) 
-5.46733379

>  <minimizedRMSD>  (1) 
1.88545883

$$$$
