
     RDKit          3D

 45 48  0  0  0  0  0  0  0  0999 V2000
   40.8760   24.0260   34.4650 N   0  0  0  0  0  0  0  0  0  0  0  0
   40.2560   24.5970   33.3880 C   0  0  0  0  0  0  0  0  0  0  0  0
   40.9650   25.6760   32.9880 N   0  0  0  0  0  0  0  0  0  0  0  0
   42.0360   25.7960   33.8030 C   0  0  0  0  0  0  0  0  0  0  0  0
   43.1180   26.6450   33.9370 C   0  0  0  0  0  0  0  0  0  0  0  0
   44.0370   26.4520   34.9110 N   0  0  0  0  0  0  0  0  0  0  0  0
   43.9480   25.4330   35.7950 C   0  0  0  0  0  0  0  0  0  0  0  0
   42.8860   24.5930   35.6680 N   0  0  0  0  0  0  0  0  0  0  0  0
   41.9630   24.7800   34.6980 C   0  0  0  0  0  0  0  0  0  0  0  0
   43.1990   27.7250   33.0030 N   0  0  0  0  0  0  0  0  0  0  0  0
   44.9410   25.2250   36.8440 C   0  0  0  0  0  0  0  0  0  0  0  0
   46.0500   24.4660   36.5350 C   0  0  0  0  0  0  0  0  0  0  0  0
   47.0020   24.2640   37.5330 C   0  0  0  0  0  0  0  0  0  0  0  0
   46.8090   24.8230   38.7840 C   0  0  0  0  0  0  0  0  0  0  0  0
   45.6870   25.5950   39.1030 C   0  0  0  0  0  0  0  0  0  0  0  0
   44.7730   25.7670   38.0840 C   0  0  0  0  0  0  0  0  0  0  0  0
   40.3550   22.8180   35.1600 C   0  0  0  0  0  0  0  0  0  0  0  0
   39.1300   23.1630   35.9130 C   0  0  0  0  0  0  0  0  0  0  0  0
   36.7290   21.2560   33.8140 C   0  0  0  0  0  0  0  0  0  0  0  0
   37.8430   22.0400   34.1700 C   0  0  0  0  0  0  0  0  0  0  0  0
   37.9890   22.3850   35.5020 C   0  0  0  0  0  0  0  0  0  0  0  0
   37.0670   21.9590   36.3880 N   0  0  0  0  0  0  0  0  0  0  0  0
   36.0130   21.2130   36.0170 C   0  0  0  0  0  0  0  0  0  0  0  0
   35.8370   20.8570   34.7410 N   0  0  0  0  0  0  0  0  0  0  0  0
   38.8280   24.6720   35.9370 C   0  0  0  0  0  0  0  0  0  0  0  0
   39.4020   22.9120   37.4240 C   0  0  0  0  0  0  0  0  0  0  0  0
   39.3278   24.2356   32.9214 H   0  0  0  0  0  0  0  0  0  0  0  0
   43.9830   28.3912   33.0527 H   0  0  0  0  0  0  0  0  0  0  0  0
   42.4733   27.8367   32.2806 H   0  0  0  0  0  0  0  0  0  0  0  0
   46.1794   24.0333   35.5320 H   0  0  0  0  0  0  0  0  0  0  0  0
   47.9008   23.6641   37.3274 H   0  0  0  0  0  0  0  0  0  0  0  0
   47.5698   24.6532   39.5601 H   0  0  0  0  0  0  0  0  0  0  0  0
   45.5429   26.0358   40.1005 H   0  0  0  0  0  0  0  0  0  0  0  0
   43.8715   26.3661   38.2799 H   0  0  0  0  0  0  0  0  0  0  0  0
   40.1204   22.0417   34.4168 H   0  0  0  0  0  0  0  0  0  0  0  0
   41.1176   22.4436   35.8587 H   0  0  0  0  0  0  0  0  0  0  0  0
   36.5850   20.9650   32.7630 H   0  0  0  0  0  0  0  0  0  0  0  0
   38.5727   22.3672   33.4147 H   0  0  0  0  0  0  0  0  0  0  0  0
   35.2840   20.8904   36.7749 H   0  0  0  0  0  0  0  0  0  0  0  0
   38.7592   25.0156   36.9797 H   0  0  0  0  0  0  0  0  0  0  0  0
   39.6351   25.2157   35.4242 H   0  0  0  0  0  0  0  0  0  0  0  0
   37.8738   24.8632   35.4242 H   0  0  0  0  0  0  0  0  0  0  0  0
   38.7258   23.5360   38.0269 H   0  0  0  0  0  0  0  0  0  0  0  0
   39.2272   21.8512   37.6568 H   0  0  0  0  0  0  0  0  0  0  0  0
   40.4453   23.1713   37.6568 H   0  0  0  0  0  0  0  0  0  0  0  0
  1  9  1  0
  1 17  1  0
  2  1  1  0
  3  2  2  0
  3  4  1  0
  4  5  2  0
  4  9  1  0
  5  6  1  0
  6  7  2  0
  7 11  1  0
  8  7  1  0
  9  8  2  0
 10  5  1  0
 11 16  1  0
 12 11  2  0
 12 13  1  0
 13 14  2  0
 14 15  1  0
 16 15  2  0
 17 18  1  0
 18 25  1  0
 18 26  1  0
 19 20  2  0
 19 24  1  0
 20 21  1  0
 21 18  1  0
 21 22  2  0
 23 22  1  0
 24 23  2  0
  2 27  1  0
 10 28  1  0
 10 29  1  0
 12 30  1  0
 13 31  1  0
 14 32  1  0
 15 33  1  0
 16 34  1  0
 17 35  1  0
 17 36  1  0
 19 37  1  0
 20 38  1  0
 23 39  1  0
 25 40  1  0
 25 41  1  0
 25 42  1  0
 26 43  1  0
 26 44  1  0
 26 45  1  0
M  ISO  8  27  14  30  14  31  14  32  14  33  14  34  14  35   8  36   8
M  ISO  8  37  14  38  14  39  14  40   8  41   8  42   8  43   8  44   8
M  ISO  1  45   8
M  END
>  <minimizedAffinity>  (1) 
-5.96321249

>  <minimizedRMSD>  (1) 
1.9157486

$$$$
