
     RDKit          3D

 47 49  0  0  0  0  0  0  0  0999 V2000
   40.0360   22.8090   34.8080 C   0  0  0  0  0  0  0  0  0  0  0  0
   40.4990   24.1000   34.2300 N   0  0  0  0  0  0  0  0  0  0  0  0
   39.7820   24.8090   33.3090 C   0  0  0  0  0  0  0  0  0  0  0  0
   40.4650   25.9330   32.9890 N   0  0  0  0  0  0  0  0  0  0  0  0
   41.6130   25.9450   33.7000 C   0  0  0  0  0  0  0  0  0  0  0  0
   42.7150   26.7650   33.8440 C   0  0  0  0  0  0  0  0  0  0  0  0
   43.7200   26.4500   34.6820 N   0  0  0  0  0  0  0  0  0  0  0  0
   43.7070   25.3180   35.4270 C   0  0  0  0  0  0  0  0  0  0  0  0
   42.6300   24.5030   35.2950 N   0  0  0  0  0  0  0  0  0  0  0  0
   41.6220   24.8190   34.4550 C   0  0  0  0  0  0  0  0  0  0  0  0
   42.7100   27.9700   33.0490 N   0  0  0  0  0  0  0  0  0  0  0  0
   44.8100   24.9690   36.3460 C   0  0  0  0  0  0  0  0  0  0  0  0
   46.0970   25.6360   35.8420 C   0  0  0  0  0  0  0  0  0  0  0  0
   44.9850   23.4650   36.2900 C   0  0  0  0  0  0  0  0  0  0  0  0
   44.6000   25.4580   37.7560 C   0  0  0  0  0  0  0  0  0  0  0  0
   38.8990   23.0520   35.7220 C   0  0  0  0  0  0  0  0  0  0  0  0
   36.3940   21.0840   33.8120 C   0  0  0  0  0  0  0  0  0  0  0  0
   37.5160   21.8860   34.0850 C   0  0  0  0  0  0  0  0  0  0  0  0
   37.7440   22.2550   35.3980 C   0  0  0  0  0  0  0  0  0  0  0  0
   36.8830   21.8350   36.3440 N   0  0  0  0  0  0  0  0  0  0  0  0
   35.8150   21.0690   36.0570 C   0  0  0  0  0  0  0  0  0  0  0  0
   35.5660   20.6920   34.7960 N   0  0  0  0  0  0  0  0  0  0  0  0
   38.5490   24.5380   35.8970 C   0  0  0  0  0  0  0  0  0  0  0  0
   39.3630   22.7070   37.1700 C   0  0  0  0  0  0  0  0  0  0  0  0
   40.8606   22.3415   35.3662 H   0  0  0  0  0  0  0  0  0  0  0  0
   39.7144   22.1405   33.9958 H   0  0  0  0  0  0  0  0  0  0  0  0
   38.8068   24.5142   32.8941 H   0  0  0  0  0  0  0  0  0  0  0  0
   43.5003   28.6281   33.1063 H   0  0  0  0  0  0  0  0  0  0  0  0
   41.9161   28.1717   32.4245 H   0  0  0  0  0  0  0  0  0  0  0  0
   46.7069   25.9521   36.7012 H   0  0  0  0  0  0  0  0  0  0  0  0
   46.6666   24.9196   35.2318 H   0  0  0  0  0  0  0  0  0  0  0  0
   45.8400   26.5144   35.2318 H   0  0  0  0  0  0  0  0  0  0  0  0
   45.0318   23.0630   37.3128 H   0  0  0  0  0  0  0  0  0  0  0  0
   44.1330   23.0163   35.7583 H   0  0  0  0  0  0  0  0  0  0  0  0
   45.9173   23.2239   35.7583 H   0  0  0  0  0  0  0  0  0  0  0  0
   44.9318   24.6854   38.4653 H   0  0  0  0  0  0  0  0  0  0  0  0
   45.1827   26.3772   37.9159 H   0  0  0  0  0  0  0  0  0  0  0  0
   43.5322   25.6683   37.9159 H   0  0  0  0  0  0  0  0  0  0  0  0
   36.1904   20.7723   32.7769 H   0  0  0  0  0  0  0  0  0  0  0  0
   38.1913   22.2098   33.2793 H   0  0  0  0  0  0  0  0  0  0  0  0
   35.1403   20.7495   36.8649 H   0  0  0  0  0  0  0  0  0  0  0  0
   38.4926   24.7776   36.9691 H   0  0  0  0  0  0  0  0  0  0  0  0
   39.3262   25.1560   35.4236 H   0  0  0  0  0  0  0  0  0  0  0  0
   37.5777   24.7442   35.4236 H   0  0  0  0  0  0  0  0  0  0  0  0
   38.6992   23.2006   37.8951 H   0  0  0  0  0  0  0  0  0  0  0  0
   39.3227   21.6178   37.3182 H   0  0  0  0  0  0  0  0  0  0  0  0
   40.3945   23.0593   37.3182 H   0  0  0  0  0  0  0  0  0  0  0  0
  1 16  1  0
  2 10  1  0
  2  1  1  0
  3  2  1  0
  4  3  2  0
  4  5  1  0
  5  6  2  0
  5 10  1  0
  6  7  1  0
  7  8  2  0
  8 12  1  0
  9  8  1  0
 10  9  2  0
 11  6  1  0
 12 15  1  0
 13 12  1  0
 14 12  1  0
 16 23  1  0
 16 24  1  0
 17 18  2  0
 17 22  1  0
 18 19  1  0
 19 16  1  0
 19 20  2  0
 21 20  1  0
 22 21  2  0
  1 25  1  0
  1 26  1  0
  3 27  1  0
 11 28  1  0
 11 29  1  0
 13 30  1  0
 13 31  1  0
 13 32  1  0
 14 33  1  0
 14 34  1  0
 14 35  1  0
 15 36  1  0
 15 37  1  0
 15 38  1  0
 17 39  1  0
 18 40  1  0
 21 41  1  0
 23 42  1  0
 23 43  1  0
 23 44  1  0
 24 45  1  0
 24 46  1  0
 24 47  1  0
M  ISO  8  25   8  26   8  27  14  30   8  31   8  32   8  33   8  34   8
M  ISO  8  35   8  36   8  37   8  38   8  39  14  40  14  41  14  42   8
M  ISO  5  43   8  44   8  45   8  46   8  47   8
M  END
>  <minimizedAffinity>  (1) 
-4.96656036

>  <minimizedRMSD>  (1) 
2.21462274

$$$$
