
     RDKit          3D

 37 39  0  0  0  0  0  0  0  0999 V2000
   39.4140   25.2630   34.1630 C   0  0  0  0  0  0  0  0  0  0  0  0
   40.6170   26.0830   33.8500 N   0  0  0  0  0  0  0  0  0  0  0  0
   40.6220   27.1120   32.9610 C   0  0  0  0  0  0  0  0  0  0  0  0
   41.8590   27.6550   32.9140 N   0  0  0  0  0  0  0  0  0  0  0  0
   42.6500   26.9770   33.7700 C   0  0  0  0  0  0  0  0  0  0  0  0
   43.9580   27.0030   34.1940 C   0  0  0  0  0  0  0  0  0  0  0  0
   44.4360   26.1310   35.1090 N   0  0  0  0  0  0  0  0  0  0  0  0
   43.6490   25.1850   35.6560 C   0  0  0  0  0  0  0  0  0  0  0  0
   42.3530   25.1420   35.2540 N   0  0  0  0  0  0  0  0  0  0  0  0
   41.8810   26.0150   34.3400 C   0  0  0  0  0  0  0  0  0  0  0  0
   44.7970   28.0210   33.6010 N   0  0  0  0  0  0  0  0  0  0  0  0
   44.1840   24.2530   36.6430 C   0  0  0  0  0  0  0  0  0  0  0  0
   44.7510   24.7930   37.6310 O   0  0  0  0  0  0  0  0  0  0  0  0
   38.3740   26.1220   34.7780 C   0  0  0  0  0  0  0  0  0  0  0  0
   36.1430   26.4050   31.8190 C   0  0  0  0  0  0  0  0  0  0  0  0
   37.0750   25.8600   32.7260 C   0  0  0  0  0  0  0  0  0  0  0  0
   37.4470   26.6440   33.8050 C   0  0  0  0  0  0  0  0  0  0  0  0
   36.9110   27.8720   33.9350 N   0  0  0  0  0  0  0  0  0  0  0  0
   36.0220   28.3640   33.0510 C   0  0  0  0  0  0  0  0  0  0  0  0
   35.6360   27.6360   31.9940 N   0  0  0  0  0  0  0  0  0  0  0  0
   38.9480   27.2250   35.6840 C   0  0  0  0  0  0  0  0  0  0  0  0
   37.5970   25.2470   35.8040 C   0  0  0  0  0  0  0  0  0  0  0  0
   39.6893   24.4618   34.8647 H   0  0  0  0  0  0  0  0  0  0  0  0
   39.0215   24.8207   33.2355 H   0  0  0  0  0  0  0  0  0  0  0  0
   39.7559   27.4494   32.3728 H   0  0  0  0  0  0  0  0  0  0  0  0
   45.7872   28.0958   33.8744 H   0  0  0  0  0  0  0  0  0  0  0  0
   44.4043   28.6711   32.9053 H   0  0  0  0  0  0  0  0  0  0  0  0
   44.0990   23.1618   36.5333 H   0  0  0  0  0  0  0  0  0  0  0  0
   35.8248   25.8097   30.9505 H   0  0  0  0  0  0  0  0  0  0  0  0
   37.4902   24.8516   32.5820 H   0  0  0  0  0  0  0  0  0  0  0  0
   35.6088   29.3728   33.1979 H   0  0  0  0  0  0  0  0  0  0  0  0
   38.8029   26.9461   36.7381 H   0  0  0  0  0  0  0  0  0  0  0  0
   40.0225   27.3442   35.4808 H   0  0  0  0  0  0  0  0  0  0  0  0
   38.4291   28.1734   35.4808 H   0  0  0  0  0  0  0  0  0  0  0  0
   37.8679   25.5521   36.8255 H   0  0  0  0  0  0  0  0  0  0  0  0
   36.5154   25.3816   35.6558 H   0  0  0  0  0  0  0  0  0  0  0  0
   37.8585   24.1889   35.6558 H   0  0  0  0  0  0  0  0  0  0  0  0
  1 14  1  0
  2  1  1  0
  2 10  1  0
  3  2  1  0
  4  3  2  0
  4  5  1  0
  5  6  2  0
  5 10  1  0
  6  7  1  0
  7  8  2  0
  8 12  1  0
  9  8  1  0
 10  9  2  0
 11  6  1  0
 12 13  2  0
 14 21  1  0
 14 22  1  0
 15 20  2  0
 15 16  1  0
 16 17  2  0
 17 18  1  0
 17 14  1  0
 19 18  2  0
 20 19  1  0
  1 23  1  0
  1 24  1  0
  3 25  1  0
 11 26  1  0
 11 27  1  0
 12 28  1  0
 15 29  1  0
 16 30  1  0
 19 31  1  0
 21 32  1  0
 21 33  1  0
 21 34  1  0
 22 35  1  0
 22 36  1  0
 22 37  1  0
M  ISO  8  23   8  24   8  25  14  28   6  29  14  30  14  31  14  32   8
M  ISO  5  33   8  34   8  35   8  36   8  37   8
M  END
>  <minimizedAffinity>  (1) 
-4.67516804

>  <minimizedRMSD>  (1) 
3.8316679

$$$$
