
     RDKit          3D

 24 26  0  0  0  0  0  0  0  0999 V2000
   38.1460   23.1360   34.3940 C   0  0  0  0  0  0  0  0  0  0  0  0
   38.6190   23.9910   33.4580 N   0  0  0  0  0  0  0  0  0  0  0  0
   38.2390   24.0140   32.1780 C   0  0  0  0  0  0  0  0  0  0  0  0
   37.3130   23.1470   31.7110 N   0  0  0  0  0  0  0  0  0  0  0  0
   36.7810   22.2540   32.5710 C   0  0  0  0  0  0  0  0  0  0  0  0
   35.8460   21.3940   32.0470 C   0  0  0  0  0  0  0  0  0  0  0  0
   35.2650   20.4580   32.8760 C   0  0  0  0  0  0  0  0  0  0  0  0
   35.6620   20.4320   34.2140 C   0  0  0  0  0  0  0  0  0  0  0  0
   36.6070   21.3310   34.6590 C   0  0  0  0  0  0  0  0  0  0  0  0
   37.2050   22.2680   33.8810 C   0  0  0  0  0  0  0  0  0  0  0  0
   39.7460   22.6790   37.7550 C   0  0  0  0  0  0  0  0  0  0  0  0
   38.8800   23.4270   38.5530 C   0  0  0  0  0  0  0  0  0  0  0  0
   37.8240   24.0240   37.8800 C   0  0  0  0  0  0  0  0  0  0  0  0
   37.7350   23.8320   36.5520 N   0  0  0  0  0  0  0  0  0  0  0  0
   38.5650   23.1150   35.7900 C   0  0  0  0  0  0  0  0  0  0  0  0
   39.5580   22.5590   36.4540 N   0  0  0  0  0  0  0  0  0  0  0  0
   38.6863   24.7496   31.4933 H   0  0  0  0  0  0  0  0  0  0  0  0
   35.5660   21.4514   30.9848 H   0  0  0  0  0  0  0  0  0  0  0  0
   34.5115   19.7531   32.4946 H   0  0  0  0  0  0  0  0  0  0  0  0
   35.2239   19.6995   34.9079 H   0  0  0  0  0  0  0  0  0  0  0  0
   36.8967   21.2857   35.7192 H   0  0  0  0  0  0  0  0  0  0  0  0
   40.6065   22.1770   38.2214 H   0  0  0  0  0  0  0  0  0  0  0  0
   39.0242   23.5356   39.6381 H   0  0  0  0  0  0  0  0  0  0  0  0
   37.0828   24.6352   38.4158 H   0  0  0  0  0  0  0  0  0  0  0  0
  1 15  1  0
  2  1  2  0
  3  2  1  0
  4  3  2  0
  4  5  1  0
  5 10  2  0
  6  5  1  0
  6  7  2  0
  7  8  1  0
  8  9  2  0
 10  1  1  0
 10  9  1  0
 11 12  2  0
 13 12  1  0
 14 13  2  0
 15 16  2  0
 15 14  1  0
 16 11  1  0
  3 17  1  0
  6 18  1  0
  7 19  1  0
  8 20  1  0
  9 21  1  0
 11 22  1  0
 12 23  1  0
 13 24  1  0
M  ISO  8  17  14  18  14  19  14  20  14  21  14  22  14  23  14  24  14
M  END
>  <minimizedAffinity>  (1) 
-4.65043306

>  <minimizedRMSD>  (1) 
1.55538404

$$$$
