
     RDKit          3D

 37 39  0  0  0  0  0  0  0  0999 V2000
   41.8250   22.6200   34.9830 C   0  0  0  0  0  0  0  0  0  0  0  0
   42.4280   23.9350   34.6390 N   0  0  0  0  0  0  0  0  0  0  0  0
   42.1130   24.6390   33.5320 C   0  0  0  0  0  0  0  0  0  0  0  0
   42.8300   25.7880   33.5040 N   0  0  0  0  0  0  0  0  0  0  0  0
   43.6110   25.8170   34.6030 C   0  0  0  0  0  0  0  0  0  0  0  0
   44.5410   26.6490   35.1780 C   0  0  0  0  0  0  0  0  0  0  0  0
   45.1520   26.3620   36.3300 N   0  0  0  0  0  0  0  0  0  0  0  0
   44.8850   25.2130   37.0090 C   0  0  0  0  0  0  0  0  0  0  0  0
   43.9730   24.3780   36.4630 N   0  0  0  0  0  0  0  0  0  0  0  0
   43.3580   24.6780   35.2940 C   0  0  0  0  0  0  0  0  0  0  0  0
   44.8380   27.8620   34.4480 N   0  0  0  0  0  0  0  0  0  0  0  0
   45.5370   24.9100   38.2340 N   0  0  0  0  0  0  0  0  0  0  0  0
   40.4480   22.8140   35.4790 C   0  0  0  0  0  0  0  0  0  0  0  0
   38.8550   21.0450   32.6260 C   0  0  0  0  0  0  0  0  0  0  0  0
   39.8500   21.6270   33.4350 C   0  0  0  0  0  0  0  0  0  0  0  0
   39.4550   22.2300   34.6150 C   0  0  0  0  0  0  0  0  0  0  0  0
   38.1460   22.2370   34.9390 N   0  0  0  0  0  0  0  0  0  0  0  0
   37.2210   21.6730   34.1410 C   0  0  0  0  0  0  0  0  0  0  0  0
   37.5550   21.0810   32.9970 N   0  0  0  0  0  0  0  0  0  0  0  0
   40.1290   24.2740   35.8330 C   0  0  0  0  0  0  0  0  0  0  0  0
   40.3500   22.1530   36.8870 C   0  0  0  0  0  0  0  0  0  0  0  0
   42.4291   22.1346   35.7637 H   0  0  0  0  0  0  0  0  0  0  0  0
   41.8007   21.9861   34.0844 H   0  0  0  0  0  0  0  0  0  0  0  0
   41.3849   24.3275   32.7686 H   0  0  0  0  0  0  0  0  0  0  0  0
   45.5259   28.5320   34.8206 H   0  0  0  0  0  0  0  0  0  0  0  0
   44.3616   28.0557   33.5556 H   0  0  0  0  0  0  0  0  0  0  0  0
   45.3190   24.0343   38.7306 H   0  0  0  0  0  0  0  0  0  0  0  0
   46.2277   25.5660   38.6258 H   0  0  0  0  0  0  0  0  0  0  0  0
   39.1382   20.5559   31.6823 H   0  0  0  0  0  0  0  0  0  0  0  0
   40.9087   21.6027   33.1374 H   0  0  0  0  0  0  0  0  0  0  0  0
   36.1632   21.7020   34.4415 H   0  0  0  0  0  0  0  0  0  0  0  0
   40.1039   24.3890   36.9267 H   0  0  0  0  0  0  0  0  0  0  0  0
   40.9048   24.9311   35.4129 H   0  0  0  0  0  0  0  0  0  0  0  0
   39.1499   24.5476   35.4129 H   0  0  0  0  0  0  0  0  0  0  0  0
   40.4644   22.9243   37.6629 H   0  0  0  0  0  0  0  0  0  0  0  0
   39.3698   21.6658   36.9959 H   0  0  0  0  0  0  0  0  0  0  0  0
   41.1467   21.4024   36.9959 H   0  0  0  0  0  0  0  0  0  0  0  0
  1 13  1  0
  2  1  1  0
  2 10  1  0
  3  2  1  0
  4  3  2  0
  4  5  1  0
  5  6  2  0
  5 10  1  0
  6  7  1  0
  7  8  2  0
  8 12  1  0
  9  8  1  0
 10  9  2  0
 11  6  1  0
 13 20  1  0
 13 21  1  0
 14 19  2  0
 14 15  1  0
 15 16  2  0
 16 17  1  0
 16 13  1  0
 18 17  2  0
 19 18  1  0
  1 22  1  0
  1 23  1  0
  3 24  1  0
 11 25  1  0
 11 26  1  0
 12 27  1  0
 12 28  1  0
 14 29  1  0
 15 30  1  0
 18 31  1  0
 20 32  1  0
 20 33  1  0
 20 34  1  0
 21 35  1  0
 21 36  1  0
 21 37  1  0
M  ISO  8  22   8  23   8  24  14  29  14  30  14  31  14  32   8  33   8
M  ISO  4  34   8  35   8  36   8  37   8
M  END
>  <minimizedAffinity>  (1) 
-3.8662684

>  <minimizedRMSD>  (1) 
0.347962022

$$$$
