
     RDKit          3D

 27 29  0  0  0  0  0  0  0  0999 V2000
   38.2630   23.2060   33.5630 C   0  0  0  0  0  0  0  0  0  0  0  0
   38.4430   24.3110   32.7970 N   0  0  0  0  0  0  0  0  0  0  0  0
   37.6850   24.6480   31.7580 C   0  0  0  0  0  0  0  0  0  0  0  0
   36.6330   23.8730   31.3810 N   0  0  0  0  0  0  0  0  0  0  0  0
   36.3780   22.7570   32.0810 C   0  0  0  0  0  0  0  0  0  0  0  0
   35.3090   21.9970   31.6730 C   0  0  0  0  0  0  0  0  0  0  0  0
   34.9980   20.8450   32.3480 C   0  0  0  0  0  0  0  0  0  0  0  0
   35.7950   20.5010   33.4310 C   0  0  0  0  0  0  0  0  0  0  0  0
   36.8540   21.3060   33.7900 C   0  0  0  0  0  0  0  0  0  0  0  0
   37.1930   22.4500   33.1500 C   0  0  0  0  0  0  0  0  0  0  0  0
   40.8800   22.0270   35.9890 C   0  0  0  0  0  0  0  0  0  0  0  0
   40.2610   22.3880   37.1970 C   0  0  0  0  0  0  0  0  0  0  0  0
   39.0210   22.9940   37.0900 C   0  0  0  0  0  0  0  0  0  0  0  0
   38.5220   23.1830   35.8530 N   0  0  0  0  0  0  0  0  0  0  0  0
   39.1060   22.8430   34.7090 C   0  0  0  0  0  0  0  0  0  0  0  0
   40.2780   22.2710   34.8530 N   0  0  0  0  0  0  0  0  0  0  0  0
   38.3390   23.3870   38.3210 C   0  0  0  0  0  0  0  0  0  0  0  0
   38.0280   24.6010   38.4210 O   0  0  0  0  0  0  0  0  0  0  0  0
   38.0550   22.4640   39.3180 O   0  0  0  0  0  0  0  0  0  0  0  0
   37.9118   25.5659   31.1958 H   0  0  0  0  0  0  0  0  0  0  0  0
   34.7054   22.3112   30.8088 H   0  0  0  0  0  0  0  0  0  0  0  0
   34.1484   20.2166   32.0426 H   0  0  0  0  0  0  0  0  0  0  0  0
   35.5812   19.5858   34.0026 H   0  0  0  0  0  0  0  0  0  0  0  0
   37.4637   20.9993   34.6527 H   0  0  0  0  0  0  0  0  0  0  0  0
   41.8668   21.5411   35.9978 H   0  0  0  0  0  0  0  0  0  0  0  0
   40.7343   22.2000   38.1720 H   0  0  0  0  0  0  0  0  0  0  0  0
   37.5919   22.7539   40.1436 H   0  0  0  0  0  0  0  0  0  0  0  0
  1 15  1  0
  2  1  2  0
  3  2  1  0
  4  3  2  0
  4  5  1  0
  5 10  2  0
  6  5  1  0
  6  7  2  0
  7  8  1  0
  8  9  2  0
 10  1  1  0
 10  9  1  0
 11 12  2  0
 13 12  1  0
 13 17  1  0
 14 13  2  0
 15 16  2  0
 15 14  1  0
 16 11  1  0
 17 18  2  0
 17 19  1  0
  3 20  1  0
  6 21  1  0
  7 22  1  0
  8 23  1  0
  9 24  1  0
 11 25  1  0
 12 26  1  0
 19 27  1  0
M  ISO  8  20  14  21  14  22  14  23  14  24  14  25  14  26  14  27   3
M  END
>  <minimizedAffinity>  (1) 
-5.5233717

>  <minimizedRMSD>  (1) 
1.47717202

$$$$
