
     RDKit          3D

 33 36  0  0  0  0  0  0  0  0999 V2000
   39.3110   22.6210   34.6340 C   0  0  0  0  0  0  0  0  0  0  0  0
   40.6220   22.4240   34.3770 N   0  0  0  0  0  0  0  0  0  0  0  0
   41.5940   22.4660   35.2940 C   0  0  0  0  0  0  0  0  0  0  0  0
   41.3140   22.7190   36.5860 N   0  0  0  0  0  0  0  0  0  0  0  0
   40.0310   22.9280   36.9310 C   0  0  0  0  0  0  0  0  0  0  0  0
   39.7830   23.1850   38.2690 C   0  0  0  0  0  0  0  0  0  0  0  0
   38.4930   23.4070   38.6840 C   0  0  0  0  0  0  0  0  0  0  0  0
   37.4860   23.3620   37.7290 C   0  0  0  0  0  0  0  0  0  0  0  0
   37.8030   23.1010   36.4130 C   0  0  0  0  0  0  0  0  0  0  0  0
   39.0600   22.8760   35.9590 C   0  0  0  0  0  0  0  0  0  0  0  0
   36.6610   23.2320   32.0390 C   0  0  0  0  0  0  0  0  0  0  0  0
   36.2680   21.9210   31.7760 C   0  0  0  0  0  0  0  0  0  0  0  0
   36.9280   20.9360   32.4950 C   0  0  0  0  0  0  0  0  0  0  0  0
   37.8780   21.3160   33.3730 N   0  0  0  0  0  0  0  0  0  0  0  0
   38.2520   22.5730   33.6210 C   0  0  0  0  0  0  0  0  0  0  0  0
   37.6010   23.4880   32.9170 N   0  0  0  0  0  0  0  0  0  0  0  0
   36.5530   19.5430   32.2560 C   0  0  0  0  0  0  0  0  0  0  0  0
   35.4380   19.0070   32.8770 C   0  0  0  0  0  0  0  0  0  0  0  0
   35.1580   17.7030   32.6020 C   0  0  0  0  0  0  0  0  0  0  0  0
   35.9400   16.9280   31.7410 C   0  0  0  0  0  0  0  0  0  0  0  0
   37.0490   17.5300   31.1490 C   0  0  0  0  0  0  0  0  0  0  0  0
   37.3150   18.8360   31.4360 N   0  0  0  0  0  0  0  0  0  0  0  0
   42.6362   22.2915   34.9886 H   0  0  0  0  0  0  0  0  0  0  0  0
   40.6113   23.2110   38.9923 H   0  0  0  0  0  0  0  0  0  0  0  0
   38.2645   23.6140   39.7399 H   0  0  0  0  0  0  0  0  0  0  0  0
   36.4396   23.5339   38.0213 H   0  0  0  0  0  0  0  0  0  0  0  0
   36.9809   23.0735   35.6827 H   0  0  0  0  0  0  0  0  0  0  0  0
   36.1769   24.0621   31.5037 H   0  0  0  0  0  0  0  0  0  0  0  0
   35.4829   21.6824   31.0434 H   0  0  0  0  0  0  0  0  0  0  0  0
   34.8112   19.6029   33.5567 H   0  0  0  0  0  0  0  0  0  0  0  0
   34.2802   17.2406   33.0771 H   0  0  0  0  0  0  0  0  0  0  0  0
   35.6883   15.8768   31.5371 H   0  0  0  0  0  0  0  0  0  0  0  0
   37.6965   16.9629   30.4641 H   0  0  0  0  0  0  0  0  0  0  0  0
  1 10  1  0
  2  1  2  0
  2  3  1  0
  3  4  2  0
  4  5  1  0
  5  6  2  0
  6  7  1  0
  8  7  2  0
  9  8  1  0
 10  9  2  0
 10  5  1  0
 11 16  2  0
 12 11  1  0
 12 13  2  0
 13 14  1  0
 14 15  2  0
 15  1  1  0
 16 15  1  0
 17 13  1  0
 17 18  2  0
 19 18  1  0
 20 19  2  0
 21 22  2  0
 21 20  1  0
 22 17  1  0
  3 23  1  0
  6 24  1  0
  7 25  1  0
  8 26  1  0
  9 27  1  0
 11 28  1  0
 12 29  1  0
 18 30  1  0
 19 31  1  0
 20 32  1  0
 21 33  1  0
M  ISO  8  23  14  24  14  25  14  26  14  27  14  28  14  29  14  30  14
M  ISO  3  31  14  32  14  33  14
M  END
>  <minimizedAffinity>  (1) 
-5.46943474

>  <minimizedRMSD>  (1) 
7.0700717

$$$$
