
     RDKit          3D

 18 19  0  0  0  0  0  0  0  0999 V2000
   41.1510   21.8840   37.4510 C   0  0  0  0  0  0  0  0  0  0  0  0
   39.9910   22.6440   37.7200 C   0  0  0  0  0  0  0  0  0  0  0  0
   39.2710   23.1420   36.6420 C   0  0  0  0  0  0  0  0  0  0  0  0
   39.7240   22.8700   35.3880 N   0  0  0  0  0  0  0  0  0  0  0  0
   40.8310   22.1440   35.1510 C   0  0  0  0  0  0  0  0  0  0  0  0
   41.5430   21.6520   36.1710 N   0  0  0  0  0  0  0  0  0  0  0  0
   37.8070   24.1020   36.9310 S   0  0  0  0  0  0  0  0  0  0  0  0
   37.7760   25.5720   35.9130 C   0  0  0  0  0  0  0  0  0  0  0  0
   38.3670   26.7280   36.3830 C   0  0  0  0  0  0  0  0  0  0  0  0
   38.1970   27.7040   35.4000 C   0  0  0  0  0  0  0  0  0  0  0  0
   37.5060   27.0680   34.3840 C   0  0  0  0  0  0  0  0  0  0  0  0
   37.2770   25.8220   34.7190 O   0  0  0  0  0  0  0  0  0  0  0  0
   41.7418   21.4767   38.2847 H   0  0  0  0  0  0  0  0  0  0  0  0
   39.6673   22.8358   38.7537 H   0  0  0  0  0  0  0  0  0  0  0  0
   41.1517   21.9543   34.1160 H   0  0  0  0  0  0  0  0  0  0  0  0
   38.8758   26.8556   37.3498 H   0  0  0  0  0  0  0  0  0  0  0  0
   38.5377   28.7496   35.4271 H   0  0  0  0  0  0  0  0  0  0  0  0
   37.1959   27.5371   33.4386 H   0  0  0  0  0  0  0  0  0  0  0  0
  1  2  2  0
  3  7  1  0
  3  2  1  0
  4  3  2  0
  5  4  1  0
  5  6  2  0
  6  1  1  0
  8  9  2  0
  8  7  1  0
 10  9  1  0
 11 12  1  0
 11 10  2  0
 12  8  1  0
  1 13  1  0
  2 14  1  0
  5 15  1  0
  9 16  1  0
 10 17  1  0
 11 18  1  0
M  ISO  6  13  14  14  14  15  14  16  14  17  14  18  14
M  END
>  <minimizedAffinity>  (1) 
-3.58363843

>  <minimizedRMSD>  (1) 
2.26095295

$$$$
