
     RDKit          3D

 41 44  0  0  0  0  0  0  0  0999 V2000
   37.0560   24.9760   32.9240 C   0  0  0  0  0  0  0  0  0  0  0  0
   36.3630   25.6240   31.9520 N   0  0  0  0  0  0  0  0  0  0  0  0
   35.7680   25.0240   30.9090 C   0  0  0  0  0  0  0  0  0  0  0  0
   35.8240   23.6980   30.7640 N   0  0  0  0  0  0  0  0  0  0  0  0
   36.4850   22.9780   31.6720 C   0  0  0  0  0  0  0  0  0  0  0  0
   36.5130   21.6070   31.4870 C   0  0  0  0  0  0  0  0  0  0  0  0
   37.1800   20.8220   32.4070 C   0  0  0  0  0  0  0  0  0  0  0  0
   37.8020   21.4540   33.4930 C   0  0  0  0  0  0  0  0  0  0  0  0
   37.7260   22.8410   33.6050 C   0  0  0  0  0  0  0  0  0  0  0  0
   37.0850   23.6340   32.7300 C   0  0  0  0  0  0  0  0  0  0  0  0
   38.0960   26.4590   36.1940 C   0  0  0  0  0  0  0  0  0  0  0  0
   39.2820   27.0800   35.8260 C   0  0  0  0  0  0  0  0  0  0  0  0
   39.6450   26.9540   34.4930 C   0  0  0  0  0  0  0  0  0  0  0  0
   38.8170   26.2530   33.7120 N   0  0  0  0  0  0  0  0  0  0  0  0
   37.6770   25.6530   34.0510 C   0  0  0  0  0  0  0  0  0  0  0  0
   37.3750   25.8000   35.3310 N   0  0  0  0  0  0  0  0  0  0  0  0
   40.8290   27.5370   33.9790 N   0  0  0  0  0  0  0  0  0  0  0  0
   41.9830   26.7760   33.6240 C   0  0  0  0  0  0  0  0  0  0  0  0
   41.7220   25.6720   32.9490 N   0  0  0  0  0  0  0  0  0  0  0  0
   43.2620   27.3140   34.0490 N   0  0  0  0  0  0  0  0  0  0  0  0
   42.5310   25.1020   32.6640 H   0  0  0  0  0  0  0  0  0  0  0  0
   38.5270   23.0300   34.7570 N   0  0  0  0  0  0  0  0  0  0  0  0
   38.2090   23.0490   36.2000 C   0  0  0  0  0  0  0  0  0  0  0  0
   39.5300   23.1230   36.9160 C   0  0  0  0  0  0  0  0  0  0  0  0
   40.6110   23.3180   35.9110 C   0  0  0  0  0  0  0  0  0  0  0  0
   39.9390   23.3470   34.5910 C   0  0  0  0  0  0  0  0  0  0  0  0
   35.2290   25.6308   30.1665 H   0  0  0  0  0  0  0  0  0  0  0  0
   36.0120   21.1496   30.6211 H   0  0  0  0  0  0  0  0  0  0  0  0
   37.2221   19.7290   32.2907 H   0  0  0  0  0  0  0  0  0  0  0  0
   38.3428   20.8629   34.2467 H   0  0  0  0  0  0  0  0  0  0  0  0
   37.7569   26.5247   37.2384 H   0  0  0  0  0  0  0  0  0  0  0  0
   39.8966   27.6381   36.5477 H   0  0  0  0  0  0  0  0  0  0  0  0
   40.8586   28.5591   33.8555 H   0  0  0  0  0  0  0  0  0  0  0  0
   44.1325   26.8116   33.8237 H   0  0  0  0  0  0  0  0  0  0  0  0
   43.2993   28.1982   34.5760 H   0  0  0  0  0  0  0  0  0  0  0  0
   37.2093   23.0158   36.6577 H   0  0  0  0  0  0  0  0  0  0  0  0
   39.6737   23.0457   38.0038 H   0  0  0  0  0  0  0  0  0  0  0  0
   41.1364   24.2670   36.0936 H   0  0  0  0  0  0  0  0  0  0  0  0
   41.3611   22.5152   35.9643 H   0  0  0  0  0  0  0  0  0  0  0  0
   40.4054   22.6053   33.9259 H   0  0  0  0  0  0  0  0  0  0  0  0
   40.0399   24.3499   34.1505 H   0  0  0  0  0  0  0  0  0  0  0  0
  1 15  1  0
  2  1  2  0
  3  2  1  0
  4  3  2  0
  4  5  1  0
  5 10  2  0
  6  5  1  0
  6  7  2  0
  7  8  1  0
  8  9  2  0
  9 22  1  0
 10  1  1  0
 10  9  1  0
 12 11  2  0
 13 12  1  0
 14 15  1  0
 14 13  2  0
 15 16  2  0
 16 11  1  0
 17 13  1  0
 18 17  1  0
 18 20  1  0
 19 18  2  0
 21 19  1  0
 22 23  1  0
 23 24  2  0
 25 24  1  0
 26 22  1  0
 26 25  1  0
  3 27  1  0
  6 28  1  0
  7 29  1  0
  8 30  1  0
 11 31  1  0
 12 32  1  0
 17 33  1  0
 20 34  1  0
 20 35  1  0
 23 36  1  0
 24 37  1  0
 25 38  1  0
 25 39  1  0
 26 40  1  0
 26 41  1  0
M  ISO  8  27  14  28  14  29  14  30  14  31  14  32  14  36  13  37  13
M  ISO  4  38  13  39  13  40  13  41  13
M  END
>  <minimizedAffinity>  (1) 
-5.72108793

>  <minimizedRMSD>  (1) 
3.60060787

$$$$
