
     RDKit          3D

 33 35  0  0  0  0  0  0  0  0999 V2000
   38.4390   21.9780   33.0500 C   0  0  0  0  0  0  0  0  0  0  0  0
   39.2410   22.2340   31.9890 N   0  0  0  0  0  0  0  0  0  0  0  0
   38.9760   21.8480   30.7290 C   0  0  0  0  0  0  0  0  0  0  0  0
   37.8640   21.1620   30.4310 N   0  0  0  0  0  0  0  0  0  0  0  0
   37.0100   20.8650   31.4370 C   0  0  0  0  0  0  0  0  0  0  0  0
   35.8650   20.1490   31.0960 C   0  0  0  0  0  0  0  0  0  0  0  0
   34.9750   19.8210   32.0690 C   0  0  0  0  0  0  0  0  0  0  0  0
   35.2500   20.2190   33.3690 C   0  0  0  0  0  0  0  0  0  0  0  0
   36.4050   20.9280   33.6350 C   0  0  0  0  0  0  0  0  0  0  0  0
   37.3260   21.2810   32.7110 C   0  0  0  0  0  0  0  0  0  0  0  0
   39.5170   22.4570   36.6080 C   0  0  0  0  0  0  0  0  0  0  0  0
   38.9930   23.7280   36.8530 C   0  0  0  0  0  0  0  0  0  0  0  0
   38.3190   24.3170   35.7990 C   0  0  0  0  0  0  0  0  0  0  0  0
   38.2330   23.6190   34.6540 N   0  0  0  0  0  0  0  0  0  0  0  0
   38.7320   22.4050   34.4180 C   0  0  0  0  0  0  0  0  0  0  0  0
   39.3720   21.8680   35.4460 N   0  0  0  0  0  0  0  0  0  0  0  0
   37.7420   25.6010   35.9280 N   0  0  0  0  0  0  0  0  0  0  0  0
   38.2750   26.7610   35.2880 C   0  0  0  0  0  0  0  0  0  0  0  0
   38.6380   26.5800   34.0300 N   0  0  0  0  0  0  0  0  0  0  0  0
   38.3420   27.9630   36.1030 N   0  0  0  0  0  0  0  0  0  0  0  0
   39.0040   27.4040   33.5360 H   0  0  0  0  0  0  0  0  0  0  0  0
   36.5220   21.2430   35.0200 N   0  0  0  0  0  0  0  0  0  0  0  0
   39.6855   22.1000   29.9271 H   0  0  0  0  0  0  0  0  0  0  0  0
   35.6835   19.8528   30.0523 H   0  0  0  0  0  0  0  0  0  0  0  0
   34.0617   19.2555   31.8323 H   0  0  0  0  0  0  0  0  0  0  0  0
   34.5526   19.9715   34.1829 H   0  0  0  0  0  0  0  0  0  0  0  0
   40.0642   21.9380   37.4088 H   0  0  0  0  0  0  0  0  0  0  0  0
   39.1093   24.2299   37.8249 H   0  0  0  0  0  0  0  0  0  0  0  0
   36.8987   25.7046   36.5102 H   0  0  0  0  0  0  0  0  0  0  0  0
   38.7160   28.8357   35.7038 H   0  0  0  0  0  0  0  0  0  0  0  0
   38.0155   27.9419   37.0796 H   0  0  0  0  0  0  0  0  0  0  0  0
   37.3379   21.7712   35.3609 H   0  0  0  0  0  0  0  0  0  0  0  0
   35.7907   20.9424   35.6801 H   0  0  0  0  0  0  0  0  0  0  0  0
  1 15  1  0
  2  1  2  0
  3  2  1  0
  4  3  2  0
  4  5  1  0
  5 10  2  0
  6  5  1  0
  6  7  2  0
  7  8  1  0
  8  9  2  0
  9 22  1  0
 10  1  1  0
 10  9  1  0
 11 12  2  0
 13 17  1  0
 13 12  1  0
 14 13  2  0
 15 14  1  0
 15 16  2  0
 16 11  1  0
 18 17  1  0
 18 20  1  0
 19 18  2  0
 21 19  1  0
  3 23  1  0
  6 24  1  0
  7 25  1  0
  8 26  1  0
 11 27  1  0
 12 28  1  0
 17 29  1  0
 20 30  1  0
 20 31  1  0
 22 32  1  0
 22 33  1  0
M  ISO  6  23  14  24  14  25  14  26  14  27  14  28  14
M  END
>  <minimizedAffinity>  (1) 
-5.37927532

>  <minimizedRMSD>  (1) 
0.0379950479

$$$$
