
     RDKit          3D

 36 39  0  0  0  0  0  0  0  0999 V2000
   38.2780   23.1410   32.8840 C   0  0  0  0  0  0  0  0  0  0  0  0
   38.3140   23.0690   31.5340 N   0  0  0  0  0  0  0  0  0  0  0  0
   37.5840   22.2140   30.7970 C   0  0  0  0  0  0  0  0  0  0  0  0
   36.7390   21.3420   31.3800 N   0  0  0  0  0  0  0  0  0  0  0  0
   36.6430   21.3480   32.7300 C   0  0  0  0  0  0  0  0  0  0  0  0
   35.7740   20.4400   33.2860 C   0  0  0  0  0  0  0  0  0  0  0  0
   35.6380   20.3910   34.6350 C   0  0  0  0  0  0  0  0  0  0  0  0
   36.3980   21.2740   35.3900 C   0  0  0  0  0  0  0  0  0  0  0  0
   37.2590   22.1680   34.7710 C   0  0  0  0  0  0  0  0  0  0  0  0
   37.4130   22.2440   33.4330 C   0  0  0  0  0  0  0  0  0  0  0  0
   39.6960   25.9510   34.9090 C   0  0  0  0  0  0  0  0  0  0  0  0
   40.9970   25.5020   35.0810 C   0  0  0  0  0  0  0  0  0  0  0  0
   41.3010   24.2830   34.4990 C   0  0  0  0  0  0  0  0  0  0  0  0
   40.3190   23.6510   33.8270 N   0  0  0  0  0  0  0  0  0  0  0  0
   39.0630   24.0860   33.6610 C   0  0  0  0  0  0  0  0  0  0  0  0
   38.8120   25.2570   34.2340 N   0  0  0  0  0  0  0  0  0  0  0  0
   42.5950   23.7210   34.5880 N   0  0  0  0  0  0  0  0  0  0  0  0
   42.9100   22.5880   35.3940 C   0  0  0  0  0  0  0  0  0  0  0  0
   42.0220   21.6090   35.3120 N   0  0  0  0  0  0  0  0  0  0  0  0
   44.1230   22.6610   36.1700 N   0  0  0  0  0  0  0  0  0  0  0  0
   42.2060   20.7650   35.8780 H   0  0  0  0  0  0  0  0  0  0  0  0
   37.9510   22.9000   35.8350 C   0  0  0  0  0  0  0  0  0  0  0  0
   37.9790   24.0320   36.5410 N   0  0  0  0  0  0  0  0  0  0  0  0
   38.9440   24.0170   37.3790 O   0  0  0  0  0  0  0  0  0  0  0  0
   39.6270   22.9050   37.3090 C   0  0  0  0  0  0  0  0  0  0  0  0
   39.0150   22.2000   36.3480 N   0  0  0  0  0  0  0  0  0  0  0  0
   37.6782   22.2267   29.7011 H   0  0  0  0  0  0  0  0  0  0  0  0
   35.1948   19.7601   32.6440 H   0  0  0  0  0  0  0  0  0  0  0  0
   34.9506   19.6776   35.1131 H   0  0  0  0  0  0  0  0  0  0  0  0
   36.3168   21.2646   36.4870 H   0  0  0  0  0  0  0  0  0  0  0  0
   39.3984   26.9137   35.3501 H   0  0  0  0  0  0  0  0  0  0  0  0
   41.7430   26.0800   35.6462 H   0  0  0  0  0  0  0  0  0  0  0  0
   43.3522   24.1540   34.0402 H   0  0  0  0  0  0  0  0  0  0  0  0
   44.3989   21.8706   36.7700 H   0  0  0  0  0  0  0  0  0  0  0  0
   44.7136   23.5036   36.1244 H   0  0  0  0  0  0  0  0  0  0  0  0
   40.5051   22.6139   37.9041 H   0  0  0  0  0  0  0  0  0  0  0  0
  1 10  1  0
  1 15  1  0
  2  1  2  0
  3  4  2  0
  3  2  1  0
  4  5  1  0
  5  6  1  0
  5 10  2  0
  6  7  2  0
  7  8  1  0
  9  8  2  0
  9 22  1  0
 10  9  1  0
 11 12  2  0
 13 17  1  0
 13 12  1  0
 14 13  2  0
 15 14  1  0
 15 16  2  0
 16 11  1  0
 17 18  1  0
 18 20  1  0
 19 18  2  0
 19 21  1  0
 22 26  1  0
 22 23  2  0
 23 24  1  0
 25 24  1  0
 26 25  2  0
  3 27  1  0
  6 28  1  0
  7 29  1  0
  8 30  1  0
 11 31  1  0
 12 32  1  0
 17 33  1  0
 20 34  1  0
 20 35  1  0
 25 36  1  0
M  ISO  7  27  14  28  14  29  14  30  14  31  14  32  14  36  14
M  END
>  <minimizedAffinity>  (1) 
-5.01291132

>  <minimizedRMSD>  (1) 
3.49809766

$$$$
