
     RDKit          3D

 38 41  0  0  0  0  0  0  0  0999 V2000
   36.8960   23.6850   32.0710 C   0  0  0  0  0  0  0  0  0  0  0  0
   35.7250   23.0070   32.0570 N   0  0  0  0  0  0  0  0  0  0  0  0
   35.5320   21.8320   31.4370 C   0  0  0  0  0  0  0  0  0  0  0  0
   36.5360   21.2320   30.7600 N   0  0  0  0  0  0  0  0  0  0  0  0
   37.7380   21.8400   30.7230 C   0  0  0  0  0  0  0  0  0  0  0  0
   38.7350   21.2020   30.0150 C   0  0  0  0  0  0  0  0  0  0  0  0
   39.9620   21.7790   29.9360 C   0  0  0  0  0  0  0  0  0  0  0  0
   40.1500   22.9920   30.5760 C   0  0  0  0  0  0  0  0  0  0  0  0
   39.1110   23.5830   31.2700 C   0  0  0  0  0  0  0  0  0  0  0  0
   37.8780   23.0520   31.3810 C   0  0  0  0  0  0  0  0  0  0  0  0
   37.7390   26.5540   34.3210 C   0  0  0  0  0  0  0  0  0  0  0  0
   37.1430   27.5960   33.6320 C   0  0  0  0  0  0  0  0  0  0  0  0
   36.4970   27.2540   32.4530 C   0  0  0  0  0  0  0  0  0  0  0  0
   36.5070   25.9530   32.0890 N   0  0  0  0  0  0  0  0  0  0  0  0
   37.0850   24.9510   32.7620 C   0  0  0  0  0  0  0  0  0  0  0  0
   37.6940   25.3190   33.8840 N   0  0  0  0  0  0  0  0  0  0  0  0
   35.8290   28.2160   31.6600 N   0  0  0  0  0  0  0  0  0  0  0  0
   36.3150   28.6710   30.4050 C   0  0  0  0  0  0  0  0  0  0  0  0
   36.7600   27.7060   29.6160 N   0  0  0  0  0  0  0  0  0  0  0  0
   36.2590   30.0990   30.1640 N   0  0  0  0  0  0  0  0  0  0  0  0
   37.1180   27.9890   28.6900 H   0  0  0  0  0  0  0  0  0  0  0  0
   39.6280   24.9040   31.7640 C   0  0  0  0  0  0  0  0  0  0  0  0
   40.1890   25.5250   32.7760 C   0  0  0  0  0  0  0  0  0  0  0  0
   40.5320   26.7980   32.6570 C   0  0  0  0  0  0  0  0  0  0  0  0
   40.3140   27.4530   31.5190 C   0  0  0  0  0  0  0  0  0  0  0  0
   39.5040   26.1950   30.3530 S   0  0  0  0  0  0  0  0  0  0  0  0
   34.5436   21.3513   31.4806 H   0  0  0  0  0  0  0  0  0  0  0  0
   38.5391   20.2389   29.5210 H   0  0  0  0  0  0  0  0  0  0  0  0
   40.7806   21.2976   29.3809 H   0  0  0  0  0  0  0  0  0  0  0  0
   41.1309   23.4879   30.5320 H   0  0  0  0  0  0  0  0  0  0  0  0
   38.2657   26.7685   35.2626 H   0  0  0  0  0  0  0  0  0  0  0  0
   37.1794   28.6329   33.9973 H   0  0  0  0  0  0  0  0  0  0  0  0
   34.9433   28.6074   32.0110 H   0  0  0  0  0  0  0  0  0  0  0  0
   36.5980   30.4842   29.2709 H   0  0  0  0  0  0  0  0  0  0  0  0
   35.8802   30.7286   30.8858 H   0  0  0  0  0  0  0  0  0  0  0  0
   40.3732   24.9894   33.7190 H   0  0  0  0  0  0  0  0  0  0  0  0
   41.0008   27.3185   33.5051 H   0  0  0  0  0  0  0  0  0  0  0  0
   40.5535   28.5041   31.3004 H   0  0  0  0  0  0  0  0  0  0  0  0
  1 15  1  0
  2  1  2  0
  3  2  1  0
  4  3  2  0
  5  4  1  0
  5 10  2  0
  6  5  1  0
  7  6  2  0
  7  8  1  0
  8  9  2  0
  9 10  1  0
  9 22  1  0
 10  1  1  0
 12 11  2  0
 13 12  1  0
 14 13  2  0
 14 15  1  0
 15 16  2  0
 16 11  1  0
 17 13  1  0
 18 17  1  0
 19 18  2  0
 20 18  1  0
 21 19  1  0
 22 23  2  0
 24 23  1  0
 25 24  2  0
 26 25  1  0
 26 22  1  0
  3 27  1  0
  6 28  1  0
  7 29  1  0
  8 30  1  0
 11 31  1  0
 12 32  1  0
 17 33  1  0
 20 34  1  0
 20 35  1  0
 23 36  1  0
 24 37  1  0
 25 38  1  0
M  ISO  8  27  14  28  14  29  14  30  14  31  14  32  14  36  14  37  14
M  ISO  1  38  14
M  END
>  <minimizedAffinity>  (1) 
-5.07323647

>  <minimizedRMSD>  (1) 
5.21119261

$$$$
