
     RDKit          3D

 28 30  0  0  0  0  0  0  0  0999 V2000
   36.8280   21.2270   33.1220 C   0  0  0  0  0  0  0  0  0  0  0  0
   35.7890   21.3810   32.2920 C   0  0  0  0  0  0  0  0  0  0  0  0
   35.8160   20.9150   31.0200 C   0  0  0  0  0  0  0  0  0  0  0  0
   36.9710   20.2690   30.6170 C   0  0  0  0  0  0  0  0  0  0  0  0
   38.0820   20.3200   32.1120 S   0  0  0  0  0  0  0  0  0  0  0  0
   37.4010   19.6510   29.4130 C   0  0  0  0  0  0  0  0  0  0  0  0
   38.6470   19.8510   28.9130 C   0  0  0  0  0  0  0  0  0  0  0  0
   38.9250   19.1770   27.7210 C   0  0  0  0  0  0  0  0  0  0  0  0
   37.9870   18.3960   27.1470 N   0  0  0  0  0  0  0  0  0  0  0  0
   36.7620   18.2210   27.6720 C   0  0  0  0  0  0  0  0  0  0  0  0
   36.4910   18.8700   28.8230 N   0  0  0  0  0  0  0  0  0  0  0  0
   37.0740   21.5800   34.4130 O   0  0  0  0  0  0  0  0  0  0  0  0
   37.8480   22.6880   34.7740 C   0  0  0  0  0  0  0  0  0  0  0  0
   38.1410   23.3820   33.7950 O   0  0  0  0  0  0  0  0  0  0  0  0
   39.9130   22.7300   37.7510 C   0  0  0  0  0  0  0  0  0  0  0  0
   39.1440   23.4060   38.7050 C   0  0  0  0  0  0  0  0  0  0  0  0
   37.8500   23.8700   38.3010 C   0  0  0  0  0  0  0  0  0  0  0  0
   37.4590   23.6240   37.0290 N   0  0  0  0  0  0  0  0  0  0  0  0
   38.2440   22.9630   36.1400 C   0  0  0  0  0  0  0  0  0  0  0  0
   39.4620   22.5200   36.5000 N   0  0  0  0  0  0  0  0  0  0  0  0
   34.8887   21.9001   32.6525 H   0  0  0  0  0  0  0  0  0  0  0  0
   34.9607   21.0441   30.3405 H   0  0  0  0  0  0  0  0  0  0  0  0
   39.3850   20.4974   29.4106 H   0  0  0  0  0  0  0  0  0  0  0  0
   39.9128   19.2838   27.2488 H   0  0  0  0  0  0  0  0  0  0  0  0
   36.0144   17.5776   27.1850 H   0  0  0  0  0  0  0  0  0  0  0  0
   40.9109   22.3610   38.0303 H   0  0  0  0  0  0  0  0  0  0  0  0
   39.5185   23.5746   39.7255 H   0  0  0  0  0  0  0  0  0  0  0  0
   37.1956   24.4087   39.0021 H   0  0  0  0  0  0  0  0  0  0  0  0
  1 12  1  0
  2  1  2  0
  3  2  1  0
  4  3  2  0
  4  5  1  0
  5  1  1  0
  6  4  1  0
  7  6  2  0
  8  7  1  0
  9 10  1  0
  9  8  2  0
 10 11  2  0
 11  6  1  0
 12 13  1  0
 13 19  1  0
 14 13  2  0
 15 16  2  0
 17 16  1  0
 18 17  2  0
 19 20  2  0
 19 18  1  0
 20 15  1  0
  2 21  1  0
  3 22  1  0
  7 23  1  0
  8 24  1  0
 10 25  1  0
 15 26  1  0
 16 27  1  0
 17 28  1  0
M  ISO  8  21  14  22  14  23  14  24  14  25  14  26  14  27  14  28  14
M  END
>  <minimizedAffinity>  (1) 
-4.4446969

>  <minimizedRMSD>  (1) 
0.712361574

$$$$
