
     RDKit          3D

 23 24  0  0  0  0  0  0  0  0999 V2000
   37.8880   22.5270   34.7280 C   0  0  0  0  0  0  0  0  0  0  0  0
   38.3230   23.0720   33.7090 O   0  0  0  0  0  0  0  0  0  0  0  0
   39.9200   22.7120   37.7070 C   0  0  0  0  0  0  0  0  0  0  0  0
   39.1410   23.4120   38.6400 C   0  0  0  0  0  0  0  0  0  0  0  0
   37.8440   23.8380   38.2060 C   0  0  0  0  0  0  0  0  0  0  0  0
   37.4550   23.5450   36.9390 N   0  0  0  0  0  0  0  0  0  0  0  0
   38.2650   22.8620   36.0890 C   0  0  0  0  0  0  0  0  0  0  0  0
   39.4990   22.4450   36.4730 N   0  0  0  0  0  0  0  0  0  0  0  0
   36.9730   21.5310   34.4040 O   0  0  0  0  0  0  0  0  0  0  0  0
   36.6060   21.2020   33.1370 C   0  0  0  0  0  0  0  0  0  0  0  0
   35.6210   21.5750   32.3160 C   0  0  0  0  0  0  0  0  0  0  0  0
   35.5140   21.0540   31.0750 C   0  0  0  0  0  0  0  0  0  0  0  0
   36.4560   20.1230   30.6820 C   0  0  0  0  0  0  0  0  0  0  0  0
   37.5720   19.9740   32.1700 S   0  0  0  0  0  0  0  0  0  0  0  0
   36.6630   19.3640   29.4510 C   0  0  0  0  0  0  0  0  0  0  0  0
   40.9210   22.3693   38.0079 H   0  0  0  0  0  0  0  0  0  0  0  0
   39.5080   23.6235   39.6552 H   0  0  0  0  0  0  0  0  0  0  0  0
   37.1777   24.3906   38.8848 H   0  0  0  0  0  0  0  0  0  0  0  0
   34.8852   22.3185   32.6562 H   0  0  0  0  0  0  0  0  0  0  0  0
   34.7027   21.3610   30.3985 H   0  0  0  0  0  0  0  0  0  0  0  0
   36.9449   18.3304   29.7005 H   0  0  0  0  0  0  0  0  0  0  0  0
   35.7335   19.3587   28.8628 H   0  0  0  0  0  0  0  0  0  0  0  0
   37.4665   19.8314   28.8628 H   0  0  0  0  0  0  0  0  0  0  0  0
  1  7  1  0
  2  1  2  0
  3  4  2  0
  5  4  1  0
  6  5  2  0
  7  8  2  0
  7  6  1  0
  8  3  1  0
  9  1  1  0
 10  9  1  0
 11 10  2  0
 12 11  1  0
 13 12  2  0
 13 14  1  0
 14 10  1  0
 15 13  1  0
  3 16  1  0
  4 17  1  0
  5 18  1  0
 11 19  1  0
 12 20  1  0
 15 21  1  0
 15 22  1  0
 15 23  1  0
M  ISO  8  16  14  17  14  18  14  19  14  20  14  21   8  22   8  23   8
M  END
>  <minimizedAffinity>  (1) 
-4.16210222

>  <minimizedRMSD>  (1) 
0.169874504

$$$$
