
     RDKit          3D

 26 27  0  0  0  0  0  0  0  0999 V2000
   37.8690   22.5150   34.7460 C   0  0  0  0  0  0  0  0  0  0  0  0
   38.2990   23.0870   33.7370 O   0  0  0  0  0  0  0  0  0  0  0  0
   39.9490   22.7170   37.6980 C   0  0  0  0  0  0  0  0  0  0  0  0
   39.1470   23.3340   38.6680 C   0  0  0  0  0  0  0  0  0  0  0  0
   37.8210   23.6930   38.2720 C   0  0  0  0  0  0  0  0  0  0  0  0
   37.4440   23.4180   37.0120 N   0  0  0  0  0  0  0  0  0  0  0  0
   38.2440   22.8260   36.1110 C   0  0  0  0  0  0  0  0  0  0  0  0
   39.5050   22.4760   36.4640 N   0  0  0  0  0  0  0  0  0  0  0  0
   36.9530   21.5080   34.4200 O   0  0  0  0  0  0  0  0  0  0  0  0
   36.6090   21.1930   33.1450 C   0  0  0  0  0  0  0  0  0  0  0  0
   35.6170   21.5610   32.3240 C   0  0  0  0  0  0  0  0  0  0  0  0
   35.5090   21.0790   31.0620 C   0  0  0  0  0  0  0  0  0  0  0  0
   36.4850   20.1820   30.6720 C   0  0  0  0  0  0  0  0  0  0  0  0
   37.6110   20.0080   32.1500 S   0  0  0  0  0  0  0  0  0  0  0  0
   36.6820   19.4710   29.4050 C   0  0  0  0  0  0  0  0  0  0  0  0
   36.9200   17.9890   29.5480 C   0  0  0  0  0  0  0  0  0  0  0  0
   40.9753   22.4228   37.9627 H   0  0  0  0  0  0  0  0  0  0  0  0
   39.5195   23.5322   39.6839 H   0  0  0  0  0  0  0  0  0  0  0  0
   37.1308   24.1793   38.9770 H   0  0  0  0  0  0  0  0  0  0  0  0
   34.8653   22.2779   32.6858 H   0  0  0  0  0  0  0  0  0  0  0  0
   34.6939   21.3834   30.3890 H   0  0  0  0  0  0  0  0  0  0  0  0
   37.5525   19.9109   28.8963 H   0  0  0  0  0  0  0  0  0  0  0  0
   35.7476   19.5834   28.8356 H   0  0  0  0  0  0  0  0  0  0  0  0
   36.9623   17.7257   30.6152 H   0  0  0  0  0  0  0  0  0  0  0  0
   36.0989   17.4376   29.0666 H   0  0  0  0  0  0  0  0  0  0  0  0
   37.8725   17.7225   29.0666 H   0  0  0  0  0  0  0  0  0  0  0  0
  1  7  1  0
  2  1  2  0
  3  4  2  0
  5  4  1  0
  6  5  2  0
  7  8  2  0
  7  6  1  0
  8  3  1  0
  9  1  1  0
 10  9  1  0
 11 10  2  0
 12 11  1  0
 13 12  2  0
 13 14  1  0
 14 10  1  0
 15 16  1  0
 15 13  1  0
  3 17  1  0
  4 18  1  0
  5 19  1  0
 11 20  1  0
 12 21  1  0
 15 22  1  0
 15 23  1  0
 16 24  1  0
 16 25  1  0
 16 26  1  0
M  ISO  8  17  14  18  14  19  14  20  14  21  14  22   8  23   8  24   8
M  ISO  2  25   8  26   8
M  END
>  <minimizedAffinity>  (1) 
-4.13970375

>  <minimizedRMSD>  (1) 
0.20112896

$$$$
