
     RDKit          3D

 46 49  0  0  1  0  0  0  0  0999 V2000
   36.2310   28.9260   32.7610 C   0  0  0  0  0  0  0  0  0  0  0  0
   36.6630   27.7350   32.2210 C   0  0  0  0  0  0  0  0  0  0  0  0
   37.0780   26.7410   33.1050 C   0  0  0  0  0  0  0  0  0  0  0  0
   37.0500   26.9510   34.4580 C   0  0  0  0  0  0  0  0  0  0  0  0
   36.6230   28.1280   34.9900 C   0  0  0  0  0  0  0  0  0  0  0  0
   36.2080   29.1280   34.1420 C   0  0  0  0  0  0  0  0  0  0  0  0
   37.5310   25.7680   35.2110 C   0  0  0  0  0  0  0  0  0  0  0  0
   38.9460   25.4310   34.9700 C   0  0  2  0  0  0  0  0  0  0  0  0
   41.1830   22.9030   36.3930 C   0  0  0  0  0  0  0  0  0  0  0  0
   40.4800   22.4590   37.5580 C   0  0  0  0  0  0  0  0  0  0  0  0
   39.2210   23.0430   37.8450 C   0  0  0  0  0  0  0  0  0  0  0  0
   38.7650   24.0000   36.9750 N   0  0  0  0  0  0  0  0  0  0  0  0
   39.4720   24.3900   35.8770 C   0  0  0  0  0  0  0  0  0  0  0  0
   40.6740   23.8480   35.5840 N   0  0  0  0  0  0  0  0  0  0  0  0
   39.8070   26.7020   35.1900 C   0  0  0  0  0  0  0  0  0  0  0  0
   35.7030   30.1970   31.6840 S   0  0  0  0  0  0  0  0  0  0  0  0
   36.0540   29.7760   30.2750 O   0  0  0  0  0  0  0  0  0  0  0  0
   36.4300   31.4860   31.9650 O   0  0  0  0  0  0  0  0  0  0  0  0
   33.9880   30.4570   31.8180 C   0  0  0  0  0  0  0  0  0  0  0  0
   33.0250   29.9660   32.6040 N   0  0  0  0  0  0  0  0  0  0  0  0
   31.8730   30.4930   32.3040 O   0  0  0  0  0  0  0  0  0  0  0  0
   32.0330   31.3410   31.3230 C   0  0  0  0  0  0  0  0  0  0  0  0
   33.3310   31.3290   31.0160 N   0  0  0  0  0  0  0  0  0  0  0  0
   30.9350   32.1050   30.7470 C   0  0  0  0  0  0  0  0  0  0  0  0
   29.9310   32.3200   31.4740 O   0  0  0  0  0  0  0  0  0  0  0  0
   31.0180   32.5910   29.3880 C   0  0  0  0  0  0  0  0  0  0  0  0
   30.7290   31.9210   28.2270 C   0  0  0  0  0  0  0  0  0  0  0  0
   30.9520   32.7760   27.1660 C   0  0  0  0  0  0  0  0  0  0  0  0
   31.3670   33.9320   27.6860 N   0  0  0  0  0  0  0  0  0  0  0  0
   31.3990   33.8060   28.9970 N   0  0  0  0  0  0  0  0  0  0  0  0
   36.6798   27.5745   31.1329 H   0  0  0  0  0  0  0  0  0  0  0  0
   37.4321   25.7767   32.7116 H   0  0  0  0  0  0  0  0  0  0  0  0
   36.6099   28.2773   36.0797 H   0  0  0  0  0  0  0  0  0  0  0  0
   35.8580   30.0869   34.5519 H   0  0  0  0  0  0  0  0  0  0  0  0
   37.4022   25.9673   36.2851 H   0  0  0  0  0  0  0  0  0  0  0  0
   36.9383   24.9095   34.8621 H   0  0  0  0  0  0  0  0  0  0  0  0
   39.0003   25.0464   33.9409 H   0  0  0  0  0  0  0  0  0  0  0  0
   42.1616   22.4610   36.1544 H   0  0  0  0  0  0  0  0  0  0  0  0
   40.9057   21.6849   38.2133 H   0  0  0  0  0  0  0  0  0  0  0  0
   38.6356   22.7421   38.7264 H   0  0  0  0  0  0  0  0  0  0  0  0
   39.9281   26.8807   36.2686 H   0  0  0  0  0  0  0  0  0  0  0  0
   40.7954   26.5597   34.7287 H   0  0  0  0  0  0  0  0  0  0  0  0
   39.3082   27.5671   34.7287 H   0  0  0  0  0  0  0  0  0  0  0  0
   30.3794   30.8806   28.1535 H   0  0  0  0  0  0  0  0  0  0  0  0
   30.8141   32.5480   26.0988 H   0  0  0  0  0  0  0  0  0  0  0  0
   31.6190   34.7774   27.1543 H   0  0  0  0  0  0  0  0  0  0  0  0
  1  6  1  0
  2  1  2  0
  2  3  1  0
  3  4  2  0
  4  5  1  0
  4  7  1  0
  6  5  2  0
  8 15  1  0
  8  7  1  0
  8 13  1  0
  9 10  2  0
 10 11  1  0
 12 11  2  0
 13 12  1  0
 14 13  2  0
 14  9  1  0
 16 19  1  0
 16 18  2  0
 16  1  1  0
 17 16  2  0
 19 20  2  0
 21 20  1  0
 22 21  1  0
 23 22  2  0
 23 19  1  0
 24 22  1  0
 24 25  2  0
 26 24  1  0
 27 26  1  0
 28 29  1  0
 28 27  2  0
 29 30  1  0
 30 26  2  0
  2 31  1  0
  3 32  1  0
  5 33  1  0
  6 34  1  0
  7 35  1  0
  7 36  1  0
  8 37  1  6
  9 38  1  0
 10 39  1  0
 11 40  1  0
 15 41  1  0
 15 42  1  0
 15 43  1  0
 27 44  1  0
 28 45  1  0
 29 46  1  0
M  ISO  8  31  14  32  14  33  14  34  14  35   8  36   8  37   8  38  14
M  ISO  8  39  14  40  14  41   8  42   8  43   8  44  14  45  14  46   9
M  END
>  <minimizedAffinity>  (1) 
-5.37496185

>  <minimizedRMSD>  (1) 
1.68637383

$$$$
