
     RDKit          3D

 37 40  0  0  0  0  0  0  0  0999 V2000
   37.0680   22.7790   32.5740 C   0  0  0  0  0  0  0  0  0  0  0  0
   35.9350   22.5250   31.9120 C   0  0  0  0  0  0  0  0  0  0  0  0
   35.6720   21.2890   31.4250 C   0  0  0  0  0  0  0  0  0  0  0  0
   36.6190   20.3210   31.6440 C   0  0  0  0  0  0  0  0  0  0  0  0
   37.9690   21.1780   32.5910 S   0  0  0  0  0  0  0  0  0  0  0  0
   36.6160   18.8840   31.2370 C   0  0  0  0  0  0  0  0  0  0  0  0
   36.5590   17.8360   32.1470 C   0  0  0  0  0  0  0  0  0  0  0  0
   36.5780   16.7570   31.3410 N   0  0  0  0  0  0  0  0  0  0  0  0
   36.6430   17.0790   30.0370 C   0  0  0  0  0  0  0  0  0  0  0  0
   36.6800   16.2220   28.9400 C   0  0  0  0  0  0  0  0  0  0  0  0
   36.7470   16.8280   27.6840 C   0  0  0  0  0  0  0  0  0  0  0  0
   36.7730   18.2130   27.5760 C   0  0  0  0  0  0  0  0  0  0  0  0
   36.7330   18.9990   28.7100 C   0  0  0  0  0  0  0  0  0  0  0  0
   36.6680   18.4650   29.9510 C   0  0  0  0  0  0  0  0  0  0  0  0
   37.6000   23.8810   33.1630 O   0  0  0  0  0  0  0  0  0  0  0  0
   38.9020   23.9820   33.6200 C   0  0  0  0  0  0  0  0  0  0  0  0
   39.6370   24.5130   32.7680 O   0  0  0  0  0  0  0  0  0  0  0  0
   40.9650   22.3910   36.1150 C   0  0  0  0  0  0  0  0  0  0  0  0
   40.2890   22.5890   37.3280 C   0  0  0  0  0  0  0  0  0  0  0  0
   39.0660   23.3080   37.2620 C   0  0  0  0  0  0  0  0  0  0  0  0
   38.6310   23.7500   36.0700 N   0  0  0  0  0  0  0  0  0  0  0  0
   39.3340   23.5240   34.9260 C   0  0  0  0  0  0  0  0  0  0  0  0
   40.5060   22.8410   34.9540 N   0  0  0  0  0  0  0  0  0  0  0  0
   38.3430   23.5310   38.5030 C   0  0  0  0  0  0  0  0  0  0  0  0
   38.0080   24.7040   38.7980 O   0  0  0  0  0  0  0  0  0  0  0  0
   38.0530   22.4390   39.3070 O   0  0  0  0  0  0  0  0  0  0  0  0
   35.2043   23.3331   31.7603 H   0  0  0  0  0  0  0  0  0  0  0  0
   34.7421   21.0714   30.8791 H   0  0  0  0  0  0  0  0  0  0  0  0
   36.5107   17.8769   33.2452 H   0  0  0  0  0  0  0  0  0  0  0  0
   36.5461   15.7874   31.6870 H   0  0  0  0  0  0  0  0  0  0  0  0
   36.6577   15.1284   29.0566 H   0  0  0  0  0  0  0  0  0  0  0  0
   36.7793   16.2068   26.7768 H   0  0  0  0  0  0  0  0  0  0  0  0
   36.8256   18.6846   26.5836 H   0  0  0  0  0  0  0  0  0  0  0  0
   36.7547   20.0934   28.6011 H   0  0  0  0  0  0  0  0  0  0  0  0
   41.9164   21.8390   36.1266 H   0  0  0  0  0  0  0  0  0  0  0  0
   40.6854   22.2074   38.2805 H   0  0  0  0  0  0  0  0  0  0  0  0
   37.5615   22.5666   40.1568 H   0  0  0  0  0  0  0  0  0  0  0  0
  1  5  1  0
  1 15  1  0
  2  1  2  0
  3  4  2  0
  3  2  1  0
  4  5  1  0
  6  4  1  0
  6  7  2  0
  8  7  1  0
  9  8  1  0
 10  9  2  0
 11 10  1  0
 12 11  2  0
 12 13  1  0
 13 14  2  0
 14  9  1  0
 14  6  1  0
 15 16  1  0
 16 22  1  0
 17 16  2  0
 18 19  2  0
 20 19  1  0
 20 24  1  0
 21 20  2  0
 22 23  2  0
 22 21  1  0
 23 18  1  0
 24 25  2  0
 24 26  1  0
  2 27  1  0
  3 28  1  0
  7 29  1  0
  8 30  1  0
 10 31  1  0
 11 32  1  0
 12 33  1  0
 13 34  1  0
 18 35  1  0
 19 36  1  0
 26 37  1  0
M  ISO  8  27  14  28  14  29  14  30   9  31  14  32  14  33  14  34  14
M  ISO  3  35  14  36  14  37   3
M  END
>  <minimizedAffinity>  (1) 
-5.66198683

>  <minimizedRMSD>  (1) 
2.62205553

$$$$
