
     RDKit          3D

 48 52  0  0  0  0  0  0  0  0999 V2000
   36.8760   21.6830   35.1250 C   0  0  0  0  0  0  0  0  0  0  0  0
   35.7810   20.9780   34.8880 C   0  0  0  0  0  0  0  0  0  0  0  0
   35.6010   20.3060   33.7230 C   0  0  0  0  0  0  0  0  0  0  0  0
   36.6300   20.4160   32.8190 C   0  0  0  0  0  0  0  0  0  0  0  0
   37.8880   21.4960   33.6390 S   0  0  0  0  0  0  0  0  0  0  0  0
   36.7520   19.8140   31.4530 C   0  0  0  0  0  0  0  0  0  0  0  0
   35.9630   18.7770   31.0050 C   0  0  0  0  0  0  0  0  0  0  0  0
   36.4000   18.5590   29.7580 N   0  0  0  0  0  0  0  0  0  0  0  0
   37.3940   19.3900   29.4280 C   0  0  0  0  0  0  0  0  0  0  0  0
   38.1130   19.4760   28.2170 C   0  0  0  0  0  0  0  0  0  0  0  0
   39.1090   20.4440   28.1380 C   0  0  0  0  0  0  0  0  0  0  0  0
   39.3600   21.2680   29.2160 C   0  0  0  0  0  0  0  0  0  0  0  0
   38.6280   21.1460   30.3830 C   0  0  0  0  0  0  0  0  0  0  0  0
   37.6380   20.2120   30.5160 C   0  0  0  0  0  0  0  0  0  0  0  0
   37.3170   22.4420   36.1820 O   0  0  0  0  0  0  0  0  0  0  0  0
   38.3430   23.3570   36.1140 C   0  0  0  0  0  0  0  0  0  0  0  0
   39.4290   22.8330   36.3890 O   0  0  0  0  0  0  0  0  0  0  0  0
   38.3730   26.9350   36.5020 C   0  0  0  0  0  0  0  0  0  0  0  0
   37.8460   27.4460   35.2890 C   0  0  0  0  0  0  0  0  0  0  0  0
   37.4690   26.4820   34.3070 C   0  0  0  0  0  0  0  0  0  0  0  0
   37.6400   25.1660   34.5990 N   0  0  0  0  0  0  0  0  0  0  0  0
   38.1440   24.7460   35.7630 C   0  0  0  0  0  0  0  0  0  0  0  0
   38.5190   25.6470   36.7350 N   0  0  0  0  0  0  0  0  0  0  0  0
   36.9280   26.9290   33.0570 C   0  0  0  0  0  0  0  0  0  0  0  0
   36.8190   28.1720   32.8270 O   0  0  0  0  0  0  0  0  0  0  0  0
   36.5070   26.0070   32.0590 N   0  0  0  0  0  0  0  0  0  0  0  0
   35.6800   26.2410   30.8830 C   0  0  0  0  0  0  0  0  0  0  0  0
   34.8090   25.0080   30.7480 C   0  0  0  0  0  0  0  0  0  0  0  0
   35.5750   23.9140   31.4720 C   0  0  0  0  0  0  0  0  0  0  0  0
   36.8230   24.5860   32.0010 C   0  0  0  0  0  0  0  0  0  0  0  0
   34.9953   20.9357   35.6567 H   0  0  0  0  0  0  0  0  0  0  0  0
   34.6961   19.7154   33.5170 H   0  0  0  0  0  0  0  0  0  0  0  0
   35.1618   18.2513   31.5451 H   0  0  0  0  0  0  0  0  0  0  0  0
   36.0168   17.8386   29.1294 H   0  0  0  0  0  0  0  0  0  0  0  0
   37.8954   18.8065   27.3718 H   0  0  0  0  0  0  0  0  0  0  0  0
   39.6973   20.5527   27.2149 H   0  0  0  0  0  0  0  0  0  0  0  0
   40.1505   22.0298   29.1464 H   0  0  0  0  0  0  0  0  0  0  0  0
   38.8478   21.8176   31.2260 H   0  0  0  0  0  0  0  0  0  0  0  0
   38.6738   27.6471   37.2846 H   0  0  0  0  0  0  0  0  0  0  0  0
   37.7339   28.5263   35.1146 H   0  0  0  0  0  0  0  0  0  0  0  0
   35.0581   27.1375   31.0227 H   0  0  0  0  0  0  0  0  0  0  0  0
   36.2893   26.4105   29.9830 H   0  0  0  0  0  0  0  0  0  0  0  0
   33.8286   25.1721   31.2191 H   0  0  0  0  0  0  0  0  0  0  0  0
   34.6105   24.7515   29.6969 H   0  0  0  0  0  0  0  0  0  0  0  0
   34.9759   23.5069   32.2998 H   0  0  0  0  0  0  0  0  0  0  0  0
   35.8130   23.0704   30.8074 H   0  0  0  0  0  0  0  0  0  0  0  0
   37.0684   24.2058   33.0036 H   0  0  0  0  0  0  0  0  0  0  0  0
   37.6950   24.3883   31.3602 H   0  0  0  0  0  0  0  0  0  0  0  0
  1 15  1  0
  2  1  2  0
  3  2  1  0
  4  5  1  0
  4  3  2  0
  5  1  1  0
  6  4  1  0
  7  6  2  0
  8  7  1  0
  9  8  1  0
  9 14  2  0
 10  9  1  0
 11 10  2  0
 11 12  1  0
 12 13  2  0
 13 14  1  0
 14  6  1  0
 16 15  1  0
 16 17  2  0
 18 23  2  0
 19 18  1  0
 20 21  1  0
 20 19  2  0
 21 22  2  0
 22 16  1  0
 22 23  1  0
 24 20  1  0
 25 24  2  0
 26 24  1  0
 27 26  1  0
 28 27  1  0
 28 29  1  0
 29 30  1  0
 30 26  1  0
  2 31  1  0
  3 32  1  0
  7 33  1  0
  8 34  1  0
 10 35  1  0
 11 36  1  0
 12 37  1  0
 13 38  1  0
 18 39  1  0
 19 40  1  0
 27 41  1  0
 27 42  1  0
 28 43  1  0
 28 44  1  0
 29 45  1  0
 29 46  1  0
 30 47  1  0
 30 48  1  0
M  ISO  8  31  14  32  14  33  14  34   9  35  14  36  14  37  14  38  14
M  ISO  8  39  14  40  14  41  13  42  13  43  13  44  13  45  13  46  13
M  ISO  2  47  13  48  13
M  END
>  <minimizedAffinity>  (1) 
-6.23832655

>  <minimizedRMSD>  (1) 
0.839286983

$$$$
