
     RDKit          3D

 29 30  0  0  0  0  0  0  0  0999 V2000
   38.5310   26.9750   35.7070 C   0  0  0  0  0  0  0  0  0  0  0  0
   40.4180   27.2660   31.9080 C   0  0  0  0  0  0  0  0  0  0  0  0
   41.2170   27.2030   33.0280 C   0  0  0  0  0  0  0  0  0  0  0  0
   40.5670   27.1090   34.2410 C   0  0  0  0  0  0  0  0  0  0  0  0
   39.2020   27.0760   34.3980 C   0  0  0  0  0  0  0  0  0  0  0  0
   38.4600   27.1430   33.2220 C   0  0  0  0  0  0  0  0  0  0  0  0
   39.0210   27.2390   31.9610 C   0  0  0  0  0  0  0  0  0  0  0  0
   41.0830   27.3880   30.2840 S   0  0  0  0  0  0  0  0  0  0  0  0
   40.5320   28.5880   29.5730 O   0  0  0  0  0  0  0  0  0  0  0  0
   40.7690   26.1140   29.5350 O   0  0  0  0  0  0  0  0  0  0  0  0
   37.6640   25.7380   35.8100 C   0  0  0  0  0  0  0  0  0  0  0  0
   40.1010   23.0300   36.6440 C   0  0  0  0  0  0  0  0  0  0  0  0
   39.7350   22.7330   37.9610 C   0  0  0  0  0  0  0  0  0  0  0  0
   38.6780   23.4420   38.5550 C   0  0  0  0  0  0  0  0  0  0  0  0
   38.0720   24.3900   37.7840 N   0  0  0  0  0  0  0  0  0  0  0  0
   38.4490   24.6540   36.5110 C   0  0  0  0  0  0  0  0  0  0  0  0
   39.4490   23.9810   35.9550 N   0  0  0  0  0  0  0  0  0  0  0  0
   37.8990   27.8638   35.8509 H   0  0  0  0  0  0  0  0  0  0  0  0
   39.3091   26.9081   36.4817 H   0  0  0  0  0  0  0  0  0  0  0  0
   42.3146   27.2264   32.9589 H   0  0  0  0  0  0  0  0  0  0  0  0
   41.1862   27.0566   35.1487 H   0  0  0  0  0  0  0  0  0  0  0  0
   37.3630   27.1181   33.3000 H   0  0  0  0  0  0  0  0  0  0  0  0
   38.4035   27.2911   31.0522 H   0  0  0  0  0  0  0  0  0  0  0  0
   42.4420   27.5483   30.3505 H   0  0  0  0  0  0  0  0  0  0  0  0
   36.7560   25.9692   36.3863 H   0  0  0  0  0  0  0  0  0  0  0  0
   37.3725   25.3996   34.8048 H   0  0  0  0  0  0  0  0  0  0  0  0
   40.9280   22.4813   36.1696 H   0  0  0  0  0  0  0  0  0  0  0  0
   40.2686   21.9535   38.5247 H   0  0  0  0  0  0  0  0  0  0  0  0
   38.3558   23.2432   39.5878 H   0  0  0  0  0  0  0  0  0  0  0  0
  1 11  1  0
  2  7  2  0
  2  3  1  0
  3  4  2  0
  4  5  1  0
  5  1  1  0
  6  5  2  0
  7  6  1  0
  8  2  1  0
  9  8  2  0
 10  8  2  0
 11 16  1  0
 12 13  2  0
 13 14  1  0
 15 14  2  0
 16 15  1  0
 17 16  2  0
 17 12  1  0
  1 18  1  0
  1 19  1  0
  3 20  1  0
  4 21  1  0
  6 22  1  0
  7 23  1  0
  8 24  1  0
 11 25  1  0
 11 26  1  0
 12 27  1  0
 13 28  1  0
 14 29  1  0
M  ISO  8  18   8  19   8  20  14  21  14  22  14  23  14  24  11  25   8
M  ISO  4  26   8  27  14  28  14  29  14
M  END
>  <minimizedAffinity>  (1) 
-4.3960762

>  <minimizedRMSD>  (1) 
2.50947356

$$$$
