
     RDKit          3D

 29 30  0  0  0  0  0  0  0  0999 V2000
   38.6100   26.5670   34.9470 C   0  0  0  0  0  0  0  0  0  0  0  0
   37.8260   27.3130   33.9750 N   0  0  0  0  0  0  0  0  0  0  0  0
   36.7500   27.9920   34.4640 C   0  0  0  0  0  0  0  0  0  0  0  0
   35.8790   28.7600   33.6980 C   0  0  0  0  0  0  0  0  0  0  0  0
   34.7400   29.4630   34.3040 C   0  0  0  0  0  0  0  0  0  0  0  0
   36.1480   28.8190   32.3640 C   0  0  0  0  0  0  0  0  0  0  0  0
   35.3970   29.5030   31.5920 O   0  0  0  0  0  0  0  0  0  0  0  0
   37.2080   28.1490   31.8900 N   0  0  0  0  0  0  0  0  0  0  0  0
   38.0300   27.4180   32.6390 C   0  0  0  0  0  0  0  0  0  0  0  0
   39.0310   26.7790   32.2250 O   0  0  0  0  0  0  0  0  0  0  0  0
   37.6720   25.7010   35.7320 C   0  0  0  0  0  0  0  0  0  0  0  0
   40.1500   23.0700   36.6270 C   0  0  0  0  0  0  0  0  0  0  0  0
   39.7660   22.7430   37.9470 C   0  0  0  0  0  0  0  0  0  0  0  0
   38.6700   23.4260   38.5070 C   0  0  0  0  0  0  0  0  0  0  0  0
   38.0450   24.3720   37.7210 N   0  0  0  0  0  0  0  0  0  0  0  0
   38.4460   24.6470   36.4730 C   0  0  0  0  0  0  0  0  0  0  0  0
   39.4890   24.0030   35.9280 N   0  0  0  0  0  0  0  0  0  0  0  0
   39.1283   27.2637   35.6223 H   0  0  0  0  0  0  0  0  0  0  0  0
   39.3638   25.9494   34.4368 H   0  0  0  0  0  0  0  0  0  0  0  0
   36.5559   27.9279   35.5448 H   0  0  0  0  0  0  0  0  0  0  0  0
   34.8198   29.4138   35.4000 H   0  0  0  0  0  0  0  0  0  0  0  0
   34.7455   30.5151   33.9828 H   0  0  0  0  0  0  0  0  0  0  0  0
   33.8020   28.9865   33.9828 H   0  0  0  0  0  0  0  0  0  0  0  0
   37.3988   28.2036   30.8793 H   0  0  0  0  0  0  0  0  0  0  0  0
   37.1196   26.3218   36.4527 H   0  0  0  0  0  0  0  0  0  0  0  0
   36.9667   25.2140   35.0425 H   0  0  0  0  0  0  0  0  0  0  0  0
   41.0038   22.5513   36.1666 H   0  0  0  0  0  0  0  0  0  0  0  0
   40.3081   21.9767   38.5205 H   0  0  0  0  0  0  0  0  0  0  0  0
   38.3257   23.2140   39.5300 H   0  0  0  0  0  0  0  0  0  0  0  0
  1 11  1  0
  2  3  1  0
  2  1  1  0
  4  5  1  0
  4  3  2  0
  6  4  1  0
  7  6  2  0
  8  6  1  0
  8  9  1  0
  9  2  1  0
 10  9  2  0
 11 16  1  0
 12 13  2  0
 13 14  1  0
 15 14  2  0
 16 15  1  0
 17 16  2  0
 17 12  1  0
  1 18  1  0
  1 19  1  0
  3 20  1  0
  5 21  1  0
  5 22  1  0
  5 23  1  0
  8 24  1  0
 11 25  1  0
 11 26  1  0
 12 27  1  0
 13 28  1  0
 14 29  1  0
M  ISO  8  18   8  19   8  20  14  21   8  22   8  23   8  24   9  25   8
M  ISO  4  26   8  27  14  28  14  29  14
M  END
>  <minimizedAffinity>  (1) 
-4.45322466

>  <minimizedRMSD>  (1) 
1.50402343

$$$$
