
     RDKit          3D

 28 29  0  0  0  0  0  0  0  0999 V2000
   38.5000   24.7900   34.7950 C   0  0  0  0  0  0  0  0  0  0  0  0
   39.7260   22.8330   37.7130 C   0  0  0  0  0  0  0  0  0  0  0  0
   38.9010   23.2940   38.7560 C   0  0  0  0  0  0  0  0  0  0  0  0
   37.9360   24.2700   38.4430 C   0  0  0  0  0  0  0  0  0  0  0  0
   37.8750   24.7000   37.1310 N   0  0  0  0  0  0  0  0  0  0  0  0
   38.6860   24.2250   36.1780 C   0  0  0  0  0  0  0  0  0  0  0  0
   39.6160   23.2890   36.4640 N   0  0  0  0  0  0  0  0  0  0  0  0
   39.1770   26.1250   34.7100 C   0  0  0  0  0  0  0  0  0  0  0  0
   38.4090   27.1770   34.1550 N   0  0  0  0  0  0  0  0  0  0  0  0
   37.1100   27.3650   34.7820 C   0  0  0  0  0  0  0  0  0  0  0  0
   36.3830   28.2510   33.7820 C   0  0  0  0  0  0  0  0  0  0  0  0
   36.8020   27.6470   32.4700 C   0  0  0  0  0  0  0  0  0  0  0  0
   38.2230   27.2060   32.7550 C   0  0  0  0  0  0  0  0  0  0  0  0
   38.9425   24.1059   34.0560 H   0  0  0  0  0  0  0  0  0  0  0  0
   37.4264   24.9073   34.5862 H   0  0  0  0  0  0  0  0  0  0  0  0
   40.4874   22.0708   37.9352 H   0  0  0  0  0  0  0  0  0  0  0  0
   39.0065   22.9054   39.7796 H   0  0  0  0  0  0  0  0  0  0  0  0
   37.2590   24.6734   39.2104 H   0  0  0  0  0  0  0  0  0  0  0  0
   39.4661   26.4210   35.7292 H   0  0  0  0  0  0  0  0  0  0  0  0
   40.0253   25.9838   34.0241 H   0  0  0  0  0  0  0  0  0  0  0  0
   36.5898   26.4047   34.9131 H   0  0  0  0  0  0  0  0  0  0  0  0
   37.1701   27.8015   35.7899 H   0  0  0  0  0  0  0  0  0  0  0  0
   35.2928   28.1962   33.9176 H   0  0  0  0  0  0  0  0  0  0  0  0
   36.6255   29.3198   33.8768 H   0  0  0  0  0  0  0  0  0  0  0  0
   36.7709   28.3916   31.6609 H   0  0  0  0  0  0  0  0  0  0  0  0
   36.1472   26.8300   32.1328 H   0  0  0  0  0  0  0  0  0  0  0  0
   38.3914   26.2025   32.3371 H   0  0  0  0  0  0  0  0  0  0  0  0
   38.9354   27.9058   32.2937 H   0  0  0  0  0  0  0  0  0  0  0  0
  1  6  1  0
  2  3  2  0
  4  3  1  0
  5  4  2  0
  6  7  2  0
  6  5  1  0
  7  2  1  0
  8  1  1  0
  9  8  1  0
  9 10  1  0
 11 10  1  0
 12 13  1  0
 12 11  1  0
 13  9  1  0
  1 14  1  0
  1 15  1  0
  2 16  1  0
  3 17  1  0
  4 18  1  0
  8 19  1  0
  8 20  1  0
 10 21  1  0
 10 22  1  0
 11 23  1  0
 11 24  1  0
 12 25  1  0
 12 26  1  0
 13 27  1  0
 13 28  1  0
M  ISO  8  14   8  15   8  16  14  17  14  18  14  19   8  20   8  21  13
M  ISO  7  22  13  23  13  24  13  25  13  26  13  27  13  28  13
M  END
>  <minimizedAffinity>  (1) 
-3.7194252

>  <minimizedRMSD>  (1) 
2.17119479

$$$$
