
     RDKit          3D

 23 24  0  0  0  0  0  0  0  0999 V2000
   39.0800   25.1100   34.8150 C   0  0  0  0  0  0  0  0  0  0  0  0
   39.7110   22.8300   37.6860 C   0  0  0  0  0  0  0  0  0  0  0  0
   38.7650   23.2640   38.6330 C   0  0  0  0  0  0  0  0  0  0  0  0
   37.9290   24.3320   38.2680 C   0  0  0  0  0  0  0  0  0  0  0  0
   38.0820   24.8870   37.0130 N   0  0  0  0  0  0  0  0  0  0  0  0
   39.0160   24.4190   36.1450 C   0  0  0  0  0  0  0  0  0  0  0  0
   39.8220   23.4000   36.4830 N   0  0  0  0  0  0  0  0  0  0  0  0
   39.1870   26.6050   35.0400 C   0  0  0  0  0  0  0  0  0  0  0  0
   38.1060   27.2450   34.2120 C   0  0  0  0  0  0  0  0  0  0  0  0
   36.9550   27.8140   34.7230 C   0  0  0  0  0  0  0  0  0  0  0  0
   36.2950   28.2540   33.6100 C   0  0  0  0  0  0  0  0  0  0  0  0
   36.9890   27.9770   32.4740 N   0  0  0  0  0  0  0  0  0  0  0  0
   38.1040   27.3540   32.8760 N   0  0  0  0  0  0  0  0  0  0  0  0
   38.1690   24.8879   34.2399 H   0  0  0  0  0  0  0  0  0  0  0  0
   39.9569   24.7551   34.2537 H   0  0  0  0  0  0  0  0  0  0  0  0
   40.3797   21.9957   37.9443 H   0  0  0  0  0  0  0  0  0  0  0  0
   38.6834   22.7857   39.6202 H   0  0  0  0  0  0  0  0  0  0  0  0
   37.1704   24.7171   38.9654 H   0  0  0  0  0  0  0  0  0  0  0  0
   39.0385   26.8398   36.1043 H   0  0  0  0  0  0  0  0  0  0  0  0
   40.1804   26.9786   34.7510 H   0  0  0  0  0  0  0  0  0  0  0  0
   36.6440   27.8938   35.7751 H   0  0  0  0  0  0  0  0  0  0  0  0
   35.3229   28.7684   33.6307 H   0  0  0  0  0  0  0  0  0  0  0  0
   36.7144   28.1998   31.5066 H   0  0  0  0  0  0  0  0  0  0  0  0
  1  8  1  0
  1  6  1  0
  2  3  2  0
  4  3  1  0
  5  4  2  0
  6  7  2  0
  6  5  1  0
  7  2  1  0
  9 10  1  0
  9  8  1  0
 11 10  2  0
 12 13  1  0
 12 11  1  0
 13  9  2  0
  1 14  1  0
  1 15  1  0
  2 16  1  0
  3 17  1  0
  4 18  1  0
  8 19  1  0
  8 20  1  0
 10 21  1  0
 11 22  1  0
 12 23  1  0
M  ISO  8  14   8  15   8  16  14  17  14  18  14  19   8  20   8  21  14
M  ISO  2  22  14  23   9
M  END
>  <minimizedAffinity>  (1) 
-3.78058147

>  <minimizedRMSD>  (1) 
1.51908135

$$$$
