
     RDKit          3D

 33 35  0  0  0  0  0  0  0  0999 V2000
   38.1210   26.9870   35.4570 C   0  0  0  0  0  0  0  0  0  0  0  0
   37.2200   27.6150   34.4700 C   0  0  0  0  0  0  0  0  0  0  0  0
   37.2670   27.4090   33.1350 N   0  0  0  0  0  0  0  0  0  0  0  0
   36.3310   28.1190   32.5660 O   0  0  0  0  0  0  0  0  0  0  0  0
   35.6570   28.7940   33.4590 C   0  0  0  0  0  0  0  0  0  0  0  0
   36.2140   28.4770   34.6380 N   0  0  0  0  0  0  0  0  0  0  0  0
   34.5710   29.6700   33.2170 N   0  0  0  0  0  0  0  0  0  0  0  0
   34.5560   30.6600   32.1670 C   0  0  0  0  0  0  0  0  0  0  0  0
   33.2460   30.9350   31.5470 C   0  0  0  0  0  0  0  0  0  0  0  0
   32.0790   30.3620   32.1060 N   0  0  0  0  0  0  0  0  0  0  0  0
   32.2320   29.3870   33.1100 C   0  0  0  0  0  0  0  0  0  0  0  0
   33.3900   29.5990   34.0500 C   0  0  0  0  0  0  0  0  0  0  0  0
   38.5540   25.6150   34.9960 C   0  0  0  0  0  0  0  0  0  0  0  0
   39.6170   22.9140   37.3520 C   0  0  0  0  0  0  0  0  0  0  0  0
   38.8240   23.2160   38.4750 C   0  0  0  0  0  0  0  0  0  0  0  0
   37.9580   24.3160   38.4040 C   0  0  0  0  0  0  0  0  0  0  0  0
   37.9320   25.0360   37.2470 N   0  0  0  0  0  0  0  0  0  0  0  0
   38.7060   24.7190   36.1890 C   0  0  0  0  0  0  0  0  0  0  0  0
   39.5400   23.6750   36.2310 N   0  0  0  0  0  0  0  0  0  0  0  0
   39.0107   27.6207   35.5867 H   0  0  0  0  0  0  0  0  0  0  0  0
   37.5808   26.8832   36.4096 H   0  0  0  0  0  0  0  0  0  0  0  0
   35.4706   31.1806   31.8468 H   0  0  0  0  0  0  0  0  0  0  0  0
   33.1769   31.5796   30.6583 H   0  0  0  0  0  0  0  0  0  0  0  0
   31.1431   30.6504   31.7870 H   0  0  0  0  0  0  0  0  0  0  0  0
   31.3090   29.3690   33.7082 H   0  0  0  0  0  0  0  0  0  0  0  0
   32.4389   28.4430   32.5846 H   0  0  0  0  0  0  0  0  0  0  0  0
   33.4692   28.7582   34.7548 H   0  0  0  0  0  0  0  0  0  0  0  0
   33.2623   30.5138   34.6473 H   0  0  0  0  0  0  0  0  0  0  0  0
   37.7951   25.1984   34.3174 H   0  0  0  0  0  0  0  0  0  0  0  0
   39.5145   25.6896   34.4651 H   0  0  0  0  0  0  0  0  0  0  0  0
   40.3038   22.0553   37.3832 H   0  0  0  0  0  0  0  0  0  0  0  0
   38.8824   22.6034   39.3867 H   0  0  0  0  0  0  0  0  0  0  0  0
   37.3187   24.5898   39.2563 H   0  0  0  0  0  0  0  0  0  0  0  0
  2  6  1  0
  2  1  1  0
  3  2  2  0
  4  3  1  0
  4  5  1  0
  5  6  2  0
  7  5  1  0
  7 12  1  0
  8  7  1  0
  9 10  1  0
  9  8  2  0
 10 11  1  0
 11 12  1  0
 13  1  1  0
 13 18  1  0
 14 15  2  0
 16 15  1  0
 17 16  2  0
 18 19  2  0
 18 17  1  0
 19 14  1  0
  1 20  1  0
  1 21  1  0
  8 22  1  0
  9 23  1  0
 10 24  1  0
 11 25  1  0
 11 26  1  0
 12 27  1  0
 12 28  1  0
 13 29  1  0
 13 30  1  0
 14 31  1  0
 15 32  1  0
 16 33  1  0
M  ISO  8  20   8  21   8  22  13  23  13  25  13  26  13  27  13  28  13
M  ISO  5  29   8  30   8  31  14  32  14  33  14
M  END
>  <minimizedAffinity>  (1) 
-4.97623444

>  <minimizedRMSD>  (1) 
0.396991044

$$$$
