
     RDKit          3D

 34 36  0  0  0  0  0  0  0  0999 V2000
   38.6800   26.2830   34.7690 C   0  0  0  0  0  0  0  0  0  0  0  0
   37.5910   27.1560   34.2670 C   0  0  0  0  0  0  0  0  0  0  0  0
   36.9530   26.9780   33.0850 N   0  0  0  0  0  0  0  0  0  0  0  0
   36.0560   27.9190   32.9570 O   0  0  0  0  0  0  0  0  0  0  0  0
   36.0560   28.7110   33.9760 C   0  0  0  0  0  0  0  0  0  0  0  0
   37.0130   28.2380   34.7970 N   0  0  0  0  0  0  0  0  0  0  0  0
   35.2580   29.9030   34.3200 C   0  0  0  0  0  0  0  0  0  0  0  0
   35.8310   30.7540   35.4040 C   0  0  0  0  0  0  0  0  0  0  0  0
   34.6580   31.5620   35.9150 C   0  0  0  0  0  0  0  0  0  0  0  0
   33.4200   30.9200   35.3320 C   0  0  0  0  0  0  0  0  0  0  0  0
   33.8810   29.5430   34.8360 C   0  0  0  0  0  0  0  0  0  0  0  0
   38.2520   24.8320   34.7810 C   0  0  0  0  0  0  0  0  0  0  0  0
   39.6920   22.8360   37.5920 C   0  0  0  0  0  0  0  0  0  0  0  0
   38.9290   23.2930   38.6730 C   0  0  0  0  0  0  0  0  0  0  0  0
   37.9510   24.2620   38.4230 C   0  0  0  0  0  0  0  0  0  0  0  0
   37.7960   24.7030   37.1490 N   0  0  0  0  0  0  0  0  0  0  0  0
   38.5470   24.2440   36.1250 C   0  0  0  0  0  0  0  0  0  0  0  0
   39.4700   23.3290   36.3620 N   0  0  0  0  0  0  0  0  0  0  0  0
   38.9428   26.5887   35.7925 H   0  0  0  0  0  0  0  0  0  0  0  0
   39.5473   26.3863   34.1004 H   0  0  0  0  0  0  0  0  0  0  0  0
   35.2404   30.4479   33.3646 H   0  0  0  0  0  0  0  0  0  0  0  0
   36.2517   30.1300   36.2063 H   0  0  0  0  0  0  0  0  0  0  0  0
   36.6517   31.3918   35.0439 H   0  0  0  0  0  0  0  0  0  0  0  0
   34.6227   31.5305   37.0140 H   0  0  0  0  0  0  0  0  0  0  0  0
   34.7393   32.6186   35.6200 H   0  0  0  0  0  0  0  0  0  0  0  0
   32.6415   30.8127   36.1017 H   0  0  0  0  0  0  0  0  0  0  0  0
   32.9833   31.5248   34.5236 H   0  0  0  0  0  0  0  0  0  0  0  0
   33.2319   29.1581   34.0357 H   0  0  0  0  0  0  0  0  0  0  0  0
   33.8616   28.7452   35.5931 H   0  0  0  0  0  0  0  0  0  0  0  0
   37.1728   24.7649   34.5787 H   0  0  0  0  0  0  0  0  0  0  0  0
   38.8017   24.2777   34.0060 H   0  0  0  0  0  0  0  0  0  0  0  0
   40.4711   22.0755   37.7491 H   0  0  0  0  0  0  0  0  0  0  0  0
   39.0933   22.9023   39.6881 H   0  0  0  0  0  0  0  0  0  0  0  0
   37.3247   24.6557   39.2371 H   0  0  0  0  0  0  0  0  0  0  0  0
  1 12  1  0
  2  1  1  0
  2  6  1  0
  3  2  2  0
  4  3  1  0
  4  5  1  0
  5  7  1  0
  5  6  2  0
  7 11  1  0
  7  8  1  0
  8  9  1  0
 10  9  1  0
 11 10  1  0
 12 17  1  0
 13 14  2  0
 15 14  1  0
 16 15  2  0
 17 18  2  0
 17 16  1  0
 18 13  1  0
  1 19  1  0
  1 20  1  0
  7 21  1  0
  8 22  1  0
  8 23  1  0
  9 24  1  0
  9 25  1  0
 10 26  1  0
 10 27  1  0
 11 28  1  0
 11 29  1  0
 12 30  1  0
 12 31  1  0
 13 32  1  0
 14 33  1  0
 15 34  1  0
M  ISO  8  19   8  20   8  21  13  22  13  23  13  24  13  25  13  26  13
M  ISO  8  27  13  28  13  29  13  30   8  31   8  32  14  33  14  34  14
M  END
>  <minimizedAffinity>  (1) 
-4.76567221

>  <minimizedRMSD>  (1) 
1.15333092

$$$$
