
     RDKit          3D

 28 29  0  0  0  0  0  0  0  0999 V2000
   37.9130   26.6360   35.3330 C   0  0  0  0  0  0  0  0  0  0  0  0
   37.4320   27.3580   34.1290 C   0  0  0  0  0  0  0  0  0  0  0  0
   38.0670   27.3360   32.9160 N   0  0  0  0  0  0  0  0  0  0  0  0
   37.3680   28.0750   32.0960 O   0  0  0  0  0  0  0  0  0  0  0  0
   36.3350   28.5750   32.6690 C   0  0  0  0  0  0  0  0  0  0  0  0
   36.3600   28.1330   33.9560 N   0  0  0  0  0  0  0  0  0  0  0  0
   35.3280   29.4260   32.1330 N   0  0  0  0  0  0  0  0  0  0  0  0
   35.5500   30.0860   30.8980 C   0  0  0  0  0  0  0  0  0  0  0  0
   36.2600   29.5290   29.9860 N   0  0  0  0  0  0  0  0  0  0  0  0
   34.9950   31.3670   30.6440 N   0  0  0  0  0  0  0  0  0  0  0  0
   36.7230   28.6190   30.0150 H   0  0  0  0  0  0  0  0  0  0  0  0
   38.5130   25.3090   34.9930 C   0  0  0  0  0  0  0  0  0  0  0  0
   39.7110   22.8660   37.5710 C   0  0  0  0  0  0  0  0  0  0  0  0
   38.9110   23.2100   38.6550 C   0  0  0  0  0  0  0  0  0  0  0  0
   37.9830   24.2500   38.5170 C   0  0  0  0  0  0  0  0  0  0  0  0
   37.9240   24.8710   37.3000 N   0  0  0  0  0  0  0  0  0  0  0  0
   38.7100   24.5220   36.2580 C   0  0  0  0  0  0  0  0  0  0  0  0
   39.5790   23.5350   36.4170 N   0  0  0  0  0  0  0  0  0  0  0  0
   38.6746   27.2512   35.8345 H   0  0  0  0  0  0  0  0  0  0  0  0
   37.0477   26.4578   35.9884 H   0  0  0  0  0  0  0  0  0  0  0  0
   34.4418   29.5618   32.6401 H   0  0  0  0  0  0  0  0  0  0  0  0
   35.1661   31.8326   29.7413 H   0  0  0  0  0  0  0  0  0  0  0  0
   34.4211   31.8312   31.3623 H   0  0  0  0  0  0  0  0  0  0  0  0
   37.8381   24.7610   34.3191 H   0  0  0  0  0  0  0  0  0  0  0  0
   39.4815   25.4565   34.4927 H   0  0  0  0  0  0  0  0  0  0  0  0
   40.4457   22.0521   37.6597 H   0  0  0  0  0  0  0  0  0  0  0  0
   39.0058   22.6718   39.6096 H   0  0  0  0  0  0  0  0  0  0  0  0
   37.3313   24.5534   39.3496 H   0  0  0  0  0  0  0  0  0  0  0  0
  2  1  1  0
  3  2  2  0
  4  5  1  0
  4  3  1  0
  5  6  2  0
  6  2  1  0
  7  5  1  0
  8  7  1  0
  9 11  1  0
  9  8  2  0
 10  8  1  0
 12  1  1  0
 12 17  1  0
 13 14  2  0
 15 14  1  0
 16 15  2  0
 17 18  2  0
 17 16  1  0
 18 13  1  0
  1 19  1  0
  1 20  1  0
  7 21  1  0
 10 22  1  0
 10 23  1  0
 12 24  1  0
 12 25  1  0
 13 26  1  0
 14 27  1  0
 15 28  1  0
M  ISO  7  19   8  20   8  24   8  25   8  26  14  27  14  28  14
M  END
>  <minimizedAffinity>  (1) 
-4.68967104

>  <minimizedRMSD>  (1) 
0.96197325

$$$$
