
     RDKit          3D

 24 25  0  0  0  0  0  0  0  0999 V2000
   38.6530   25.6350   35.0220 C   0  0  0  0  0  0  0  0  0  0  0  0
   39.6110   22.9050   37.3770 C   0  0  0  0  0  0  0  0  0  0  0  0
   38.7980   23.2090   38.4880 C   0  0  0  0  0  0  0  0  0  0  0  0
   37.9430   24.3320   38.4140 C   0  0  0  0  0  0  0  0  0  0  0  0
   37.9700   25.0510   37.2530 N   0  0  0  0  0  0  0  0  0  0  0  0
   38.7600   24.7310   36.2080 C   0  0  0  0  0  0  0  0  0  0  0  0
   39.5660   23.6720   36.2790 N   0  0  0  0  0  0  0  0  0  0  0  0
   38.1860   26.9990   35.4770 C   0  0  0  0  0  0  0  0  0  0  0  0
   37.2640   27.5970   34.4680 C   0  0  0  0  0  0  0  0  0  0  0  0
   37.3000   27.3360   33.1290 N   0  0  0  0  0  0  0  0  0  0  0  0
   36.3560   28.0280   32.5600 O   0  0  0  0  0  0  0  0  0  0  0  0
   35.6980   28.7280   33.4330 C   0  0  0  0  0  0  0  0  0  0  0  0
   36.2570   28.4660   34.6250 N   0  0  0  0  0  0  0  0  0  0  0  0
   34.5690   29.6540   33.3130 C   0  0  0  0  0  0  0  0  0  0  0  0
   34.5620   30.8360   33.7210 O   0  0  0  0  0  0  0  0  0  0  0  0
   33.3650   29.2800   32.7170 O   0  0  0  0  0  0  0  0  0  0  0  0
   37.9294   25.2183   34.3059 H   0  0  0  0  0  0  0  0  0  0  0  0
   39.6355   25.7241   34.5355 H   0  0  0  0  0  0  0  0  0  0  0  0
   40.2842   22.0357   37.4115 H   0  0  0  0  0  0  0  0  0  0  0  0
   38.8285   22.5852   39.3935 H   0  0  0  0  0  0  0  0  0  0  0  0
   37.2873   24.6134   39.2512 H   0  0  0  0  0  0  0  0  0  0  0  0
   37.6576   26.8996   36.4366 H   0  0  0  0  0  0  0  0  0  0  0  0
   39.0612   27.6551   35.5933 H   0  0  0  0  0  0  0  0  0  0  0  0
   32.6217   29.9307   32.6521 H   0  0  0  0  0  0  0  0  0  0  0  0
  1  8  1  0
  1  6  1  0
  2  3  2  0
  4  3  1  0
  5  4  2  0
  6  7  2  0
  6  5  1  0
  7  2  1  0
  9 13  1  0
  9  8  1  0
 10  9  2  0
 11 10  1  0
 11 12  1  0
 12 13  2  0
 14 12  1  0
 14 15  2  0
 16 14  1  0
  1 17  1  0
  1 18  1  0
  2 19  1  0
  3 20  1  0
  4 21  1  0
  8 22  1  0
  8 23  1  0
 16 24  1  0
M  ISO  8  17   8  18   8  19  14  20  14  21  14  22   8  23   8  24   3
M  END
>  <minimizedAffinity>  (1) 
-4.02132082

>  <minimizedRMSD>  (1) 
0.362752646

$$$$
