
     RDKit          3D

 24 25  0  0  0  0  0  0  0  0999 V2000
   38.6090   25.6470   35.0460 C   0  0  0  0  0  0  0  0  0  0  0  0
   39.6090   22.9060   37.3710 C   0  0  0  0  0  0  0  0  0  0  0  0
   38.8090   23.1990   38.4850 C   0  0  0  0  0  0  0  0  0  0  0  0
   37.9540   24.3060   38.4300 C   0  0  0  0  0  0  0  0  0  0  0  0
   37.9440   25.0490   37.2850 N   0  0  0  0  0  0  0  0  0  0  0  0
   38.7400   24.7310   36.2190 C   0  0  0  0  0  0  0  0  0  0  0  0
   39.5590   23.6790   36.2560 N   0  0  0  0  0  0  0  0  0  0  0  0
   38.0760   26.9830   35.5160 C   0  0  0  0  0  0  0  0  0  0  0  0
   37.1540   27.5690   34.5120 C   0  0  0  0  0  0  0  0  0  0  0  0
   36.9850   27.0800   33.2510 N   0  0  0  0  0  0  0  0  0  0  0  0
   36.1050   27.8250   32.6310 O   0  0  0  0  0  0  0  0  0  0  0  0
   35.6820   28.7740   33.3990 C   0  0  0  0  0  0  0  0  0  0  0  0
   36.3220   28.6300   34.5710 N   0  0  0  0  0  0  0  0  0  0  0  0
   34.6820   29.8610   33.1320 C   0  0  0  0  0  0  0  0  0  0  0  0
   37.9138   25.2103   34.3139 H   0  0  0  0  0  0  0  0  0  0  0  0
   39.5927   25.7866   34.5740 H   0  0  0  0  0  0  0  0  0  0  0  0
   40.2854   22.0391   37.4010 H   0  0  0  0  0  0  0  0  0  0  0  0
   38.8526   22.5699   39.3863 H   0  0  0  0  0  0  0  0  0  0  0  0
   37.3105   24.5688   39.2826 H   0  0  0  0  0  0  0  0  0  0  0  0
   37.5343   26.8415   36.4629 H   0  0  0  0  0  0  0  0  0  0  0  0
   38.9239   27.6694   35.6568 H   0  0  0  0  0  0  0  0  0  0  0  0
   34.3128   30.2623   34.0873 H   0  0  0  0  0  0  0  0  0  0  0  0
   35.1611   30.6667   32.5565 H   0  0  0  0  0  0  0  0  0  0  0  0
   33.8392   29.4506   32.5565 H   0  0  0  0  0  0  0  0  0  0  0  0
  1  8  1  0
  1  6  1  0
  2  3  2  0
  4  3  1  0
  5  4  2  0
  6  7  2  0
  6  5  1  0
  7  2  1  0
  9 13  1  0
  9  8  1  0
 10  9  2  0
 11 10  1  0
 11 12  1  0
 12 13  2  0
 14 12  1  0
  1 15  1  0
  1 16  1  0
  2 17  1  0
  3 18  1  0
  4 19  1  0
  8 20  1  0
  8 21  1  0
 14 22  1  0
 14 23  1  0
 14 24  1  0
M  ISO  8  15   8  16   8  17  14  18  14  19  14  20   8  21   8  22   8
M  ISO  2  23   8  24   8
M  END
>  <minimizedAffinity>  (1) 
-3.87460685

>  <minimizedRMSD>  (1) 
0.125427917

$$$$
