
     RDKit          3D

 35 38  0  0  0  0  0  0  0  0999 V2000
   38.8100   26.1930   32.3710 C   0  0  0  0  0  0  0  0  0  0  0  0
   39.4700   22.5830   33.1090 C   0  0  0  0  0  0  0  0  0  0  0  0
   39.2930   22.5630   34.4840 C   0  0  0  0  0  0  0  0  0  0  0  0
   38.9570   23.7560   35.1360 C   0  0  0  0  0  0  0  0  0  0  0  0
   38.8210   24.8810   34.3810 N   0  0  0  0  0  0  0  0  0  0  0  0
   38.9990   24.8720   33.0410 C   0  0  0  0  0  0  0  0  0  0  0  0
   39.3180   23.7420   32.4160 N   0  0  0  0  0  0  0  0  0  0  0  0
   38.7740   23.7460   36.5470 N   0  0  0  0  0  0  0  0  0  0  0  0
   39.3210   23.0050   37.5240 N   0  0  0  0  0  0  0  0  0  0  0  0
   38.8350   23.3580   38.7120 C   0  0  0  0  0  0  0  0  0  0  0  0
   37.9190   24.3890   38.4980 C   0  0  0  0  0  0  0  0  0  0  0  0
   37.9070   24.6040   37.1410 C   0  0  0  0  0  0  0  0  0  0  0  0
   38.2010   27.1720   33.3180 C   0  0  0  0  0  0  0  0  0  0  0  0
   37.0920   27.9420   32.6720 C   0  0  0  0  0  0  0  0  0  0  0  0
   37.1340   28.3720   31.3870 N   0  0  0  0  0  0  0  0  0  0  0  0
   36.0260   29.0120   31.1090 O   0  0  0  0  0  0  0  0  0  0  0  0
   35.2590   29.0170   32.1630 C   0  0  0  0  0  0  0  0  0  0  0  0
   35.8950   28.3570   33.1520 N   0  0  0  0  0  0  0  0  0  0  0  0
   33.9260   29.5890   32.3910 C   0  0  0  0  0  0  0  0  0  0  0  0
   33.4240   30.8450   32.1270 C   0  0  0  0  0  0  0  0  0  0  0  0
   32.0870   30.8460   32.5470 C   0  0  0  0  0  0  0  0  0  0  0  0
   31.8670   29.5850   33.0370 C   0  0  0  0  0  0  0  0  0  0  0  0
   32.9580   28.8740   32.9320 O   0  0  0  0  0  0  0  0  0  0  0  0
   39.7863   26.5724   32.0351 H   0  0  0  0  0  0  0  0  0  0  0  0
   38.1387   26.0641   31.5092 H   0  0  0  0  0  0  0  0  0  0  0  0
   39.7345   21.6572   32.5771 H   0  0  0  0  0  0  0  0  0  0  0  0
   39.4141   21.6285   35.0515 H   0  0  0  0  0  0  0  0  0  0  0  0
   39.1055   22.9182   39.6833 H   0  0  0  0  0  0  0  0  0  0  0  0
   37.3283   24.9201   39.2590 H   0  0  0  0  0  0  0  0  0  0  0  0
   37.2924   25.3525   36.6194 H   0  0  0  0  0  0  0  0  0  0  0  0
   37.8002   26.6280   34.1860 H   0  0  0  0  0  0  0  0  0  0  0  0
   38.9806   27.8835   33.6280 H   0  0  0  0  0  0  0  0  0  0  0  0
   33.9687   31.6861   31.6733 H   0  0  0  0  0  0  0  0  0  0  0  0
   31.3697   31.6783   32.4947 H   0  0  0  0  0  0  0  0  0  0  0  0
   30.9153   29.2258   33.4556 H   0  0  0  0  0  0  0  0  0  0  0  0
  1  6  1  0
  1 13  1  0
  2  3  2  0
  3  4  1  0
  4  8  1  0
  5  4  2  0
  6  5  1  0
  7  6  2  0
  7  2  1  0
  8 12  1  0
  8  9  1  0
  9 10  2  0
 11 10  1  0
 12 11  2  0
 14 18  1  0
 14 13  1  0
 15 14  2  0
 16 15  1  0
 16 17  1  0
 17 19  1  0
 17 18  2  0
 19 23  1  0
 20 19  2  0
 20 21  1  0
 21 22  2  0
 23 22  1  0
  1 24  1  0
  1 25  1  0
  2 26  1  0
  3 27  1  0
 10 28  1  0
 11 29  1  0
 12 30  1  0
 13 31  1  0
 13 32  1  0
 20 33  1  0
 21 34  1  0
 22 35  1  0
M  ISO  8  24   8  25   8  26  14  27  14  28  14  29  14  30  14  31   8
M  ISO  4  32   8  33  14  34  14  35  14
M  END
>  <minimizedAffinity>  (1) 
-4.82616711

>  <minimizedRMSD>  (1) 
2.78617907

$$$$
