
     RDKit          3D

 35 38  0  0  0  0  0  0  0  0999 V2000
   38.4460   26.5160   33.6890 C   0  0  0  0  0  0  0  0  0  0  0  0
   37.3250   27.4920   33.5620 C   0  0  0  0  0  0  0  0  0  0  0  0
   36.8160   27.9120   32.3920 N   0  0  0  0  0  0  0  0  0  0  0  0
   35.8530   28.7570   32.6100 O   0  0  0  0  0  0  0  0  0  0  0  0
   35.6960   28.9200   33.8860 C   0  0  0  0  0  0  0  0  0  0  0  0
   36.6020   28.1430   34.5170 N   0  0  0  0  0  0  0  0  0  0  0  0
   34.7580   29.7530   34.6590 C   0  0  0  0  0  0  0  0  0  0  0  0
   34.9460   30.9680   35.2940 C   0  0  0  0  0  0  0  0  0  0  0  0
   33.7050   31.2990   35.8770 C   0  0  0  0  0  0  0  0  0  0  0  0
   32.8610   30.2560   35.5500 C   0  0  0  0  0  0  0  0  0  0  0  0
   33.5180   29.3790   34.8400 O   0  0  0  0  0  0  0  0  0  0  0  0
   38.1940   25.2810   32.8960 C   0  0  0  0  0  0  0  0  0  0  0  0
   37.4990   21.8870   34.3060 C   0  0  0  0  0  0  0  0  0  0  0  0
   37.8810   22.0790   35.6430 C   0  0  0  0  0  0  0  0  0  0  0  0
   38.3630   23.3470   36.0390 C   0  0  0  0  0  0  0  0  0  0  0  0
   38.4280   24.3140   35.0890 N   0  0  0  0  0  0  0  0  0  0  0  0
   38.0550   24.1080   33.8020 C   0  0  0  0  0  0  0  0  0  0  0  0
   37.5950   22.9100   33.4060 N   0  0  0  0  0  0  0  0  0  0  0  0
   38.7630   23.5520   37.4410 C   0  0  0  0  0  0  0  0  0  0  0  0
   38.0030   24.6260   38.1790 C   0  0  0  0  0  0  0  0  0  0  0  0
   37.8920   23.1650   38.5490 C   0  0  0  0  0  0  0  0  0  0  0  0
   39.3720   26.9880   33.3289 H   0  0  0  0  0  0  0  0  0  0  0  0
   38.5343   26.2314   34.7479 H   0  0  0  0  0  0  0  0  0  0  0  0
   35.8746   31.5562   35.3357 H   0  0  0  0  0  0  0  0  0  0  0  0
   33.4616   32.1957   36.4659 H   0  0  0  0  0  0  0  0  0  0  0  0
   31.8033   30.1767   35.8414 H   0  0  0  0  0  0  0  0  0  0  0  0
   37.2673   25.4042   32.3162 H   0  0  0  0  0  0  0  0  0  0  0  0
   39.0422   25.1113   32.2165 H   0  0  0  0  0  0  0  0  0  0  0  0
   37.1200   20.9068   33.9811 H   0  0  0  0  0  0  0  0  0  0  0  0
   37.8065   21.2567   36.3699 H   0  0  0  0  0  0  0  0  0  0  0  0
   39.8134   23.3162   37.2150 H   0  0  0  0  0  0  0  0  0  0  0  0
   38.5331   25.3279   38.8396 H   0  0  0  0  0  0  0  0  0  0  0  0
   37.3008   25.4271   37.9049 H   0  0  0  0  0  0  0  0  0  0  0  0
   36.9590   22.6185   38.3467 H   0  0  0  0  0  0  0  0  0  0  0  0
   38.0317   22.5907   39.4767 H   0  0  0  0  0  0  0  0  0  0  0  0
  2  1  1  0
  2  6  1  0
  3  4  1  0
  3  2  2  0
  4  5  1  0
  5  6  2  0
  5  7  1  0
  7 11  1  0
  7  8  2  0
  8  9  1  0
 10  9  2  0
 11 10  1  0
 12  1  1  0
 12 17  1  0
 13 14  2  0
 14 15  1  0
 15 19  1  0
 16 15  2  0
 17 16  1  0
 18 17  2  0
 18 13  1  0
 19 20  1  0
 19 21  1  0
 20 21  1  0
  1 22  1  0
  1 23  1  0
  8 24  1  0
  9 25  1  0
 10 26  1  0
 12 27  1  0
 12 28  1  0
 13 29  1  0
 14 30  1  0
 19 31  1  0
 20 32  1  0
 20 33  1  0
 21 34  1  0
 21 35  1  0
M  ISO  8  22   8  23   8  24  14  25  14  26  14  27   8  28   8  29  14
M  ISO  6  30  14  31  13  32  13  33  13  34  13  35  13
M  END
>  <minimizedAffinity>  (1) 
-4.76342869

>  <minimizedRMSD>  (1) 
2.56628871

$$$$
