
     RDKit          3D

 35 38  0  0  0  0  0  0  0  0999 V2000
   37.8400   26.6230   32.9300 C   0  0  0  0  0  0  0  0  0  0  0  0
   36.8390   27.7130   33.1950 C   0  0  0  0  0  0  0  0  0  0  0  0
   35.8580   28.0840   32.3310 N   0  0  0  0  0  0  0  0  0  0  0  0
   35.1660   29.0510   32.8570 O   0  0  0  0  0  0  0  0  0  0  0  0
   35.6380   29.3450   34.0330 C   0  0  0  0  0  0  0  0  0  0  0  0
   36.6860   28.5220   34.2660 N   0  0  0  0  0  0  0  0  0  0  0  0
   35.2250   30.3430   35.0230 C   0  0  0  0  0  0  0  0  0  0  0  0
   35.9600   31.2380   35.7680 C   0  0  0  0  0  0  0  0  0  0  0  0
   35.0560   31.9600   36.5600 C   0  0  0  0  0  0  0  0  0  0  0  0
   33.8300   31.4430   36.2330 C   0  0  0  0  0  0  0  0  0  0  0  0
   33.9630   30.4980   35.3300 O   0  0  0  0  0  0  0  0  0  0  0  0
   37.1730   25.4530   32.2600 C   0  0  0  0  0  0  0  0  0  0  0  0
   38.0170   21.8980   33.0340 C   0  0  0  0  0  0  0  0  0  0  0  0
   38.2860   21.9880   34.3940 C   0  0  0  0  0  0  0  0  0  0  0  0
   38.1810   23.2390   35.0350 C   0  0  0  0  0  0  0  0  0  0  0  0
   37.8150   24.3070   34.2680 N   0  0  0  0  0  0  0  0  0  0  0  0
   37.5600   24.1930   32.9520 C   0  0  0  0  0  0  0  0  0  0  0  0
   37.6570   23.0110   32.3320 N   0  0  0  0  0  0  0  0  0  0  0  0
   38.4530   23.3460   36.4250 N   0  0  0  0  0  0  0  0  0  0  0  0
   39.3870   22.8820   37.2660 C   0  0  0  0  0  0  0  0  0  0  0  0
   39.1230   23.3340   38.5410 C   0  0  0  0  0  0  0  0  0  0  0  0
   38.0090   24.0870   38.4650 N   0  0  0  0  0  0  0  0  0  0  0  0
   37.6010   24.0940   37.1790 C   0  0  0  0  0  0  0  0  0  0  0  0
   38.6345   27.0112   32.2757 H   0  0  0  0  0  0  0  0  0  0  0  0
   38.2686   26.2906   33.8870 H   0  0  0  0  0  0  0  0  0  0  0  0
   37.0526   31.3631   35.7459 H   0  0  0  0  0  0  0  0  0  0  0  0
   35.2802   32.7602   37.2806 H   0  0  0  0  0  0  0  0  0  0  0  0
   32.8728   31.7716   36.6641 H   0  0  0  0  0  0  0  0  0  0  0  0
   36.0811   25.5769   32.3090 H   0  0  0  0  0  0  0  0  0  0  0  0
   37.4916   25.4044   31.2083 H   0  0  0  0  0  0  0  0  0  0  0  0
   38.0944   20.9274   32.5222 H   0  0  0  0  0  0  0  0  0  0  0  0
   38.5775   21.0935   34.9639 H   0  0  0  0  0  0  0  0  0  0  0  0
   40.2337   22.2395   36.9827 H   0  0  0  0  0  0  0  0  0  0  0  0
   39.7096   23.1207   39.4468 H   0  0  0  0  0  0  0  0  0  0  0  0
   36.7152   24.6232   36.7978 H   0  0  0  0  0  0  0  0  0  0  0  0
  1  2  1  0
  2  6  1  0
  3  4  1  0
  3  2  2  0
  4  5  1  0
  5  6  2  0
  5  7  1  0
  7 11  1  0
  7  8  2  0
  8  9  1  0
 10  9  2  0
 11 10  1  0
 12  1  1  0
 12 17  1  0
 13 14  2  0
 14 15  1  0
 15 19  1  0
 16 15  2  0
 17 16  1  0
 18 17  2  0
 18 13  1  0
 19 23  1  0
 19 20  1  0
 20 21  2  0
 22 21  1  0
 23 22  2  0
  1 24  1  0
  1 25  1  0
  8 26  1  0
  9 27  1  0
 10 28  1  0
 12 29  1  0
 12 30  1  0
 13 31  1  0
 14 32  1  0
 20 33  1  0
 21 34  1  0
 23 35  1  0
M  ISO  8  24   8  25   8  26  14  27  14  28  14  29   8  30   8  31  14
M  ISO  4  32  14  33  14  34  14  35  14
M  END
>  <minimizedAffinity>  (1) 
-5.42700624

>  <minimizedRMSD>  (1) 
3.46060562

$$$$
