
     RDKit          3D

 31 33  0  0  0  0  0  0  0  0999 V2000
   37.8700   27.4360   35.5090 C   0  0  0  0  0  0  0  0  0  0  0  0
   36.9840   27.7790   34.3550 C   0  0  0  0  0  0  0  0  0  0  0  0
   37.0520   27.1880   33.1420 N   0  0  0  0  0  0  0  0  0  0  0  0
   36.1510   27.7080   32.3580 O   0  0  0  0  0  0  0  0  0  0  0  0
   35.4830   28.6200   32.9920 C   0  0  0  0  0  0  0  0  0  0  0  0
   35.9890   28.6800   34.2410 N   0  0  0  0  0  0  0  0  0  0  0  0
   34.3870   29.4880   32.5800 C   0  0  0  0  0  0  0  0  0  0  0  0
   34.3360   30.5810   31.7480 C   0  0  0  0  0  0  0  0  0  0  0  0
   33.0250   31.0400   31.7010 C   0  0  0  0  0  0  0  0  0  0  0  0
   32.3360   30.1690   32.5350 C   0  0  0  0  0  0  0  0  0  0  0  0
   33.1540   29.2820   33.0280 O   0  0  0  0  0  0  0  0  0  0  0  0
   39.1800   26.8760   35.0310 C   0  0  0  0  0  0  0  0  0  0  0  0
   40.3850   23.4010   35.6720 C   0  0  0  0  0  0  0  0  0  0  0  0
   39.5320   23.0050   36.6900 C   0  0  0  0  0  0  0  0  0  0  0  0
   38.5580   23.9120   37.1480 C   0  0  0  0  0  0  0  0  0  0  0  0
   38.4980   25.1470   36.5700 N   0  0  0  0  0  0  0  0  0  0  0  0
   39.3570   25.4950   35.5740 C   0  0  0  0  0  0  0  0  0  0  0  0
   40.2900   24.6380   35.1260 N   0  0  0  0  0  0  0  0  0  0  0  0
   37.6520   23.4970   38.2260 C   0  0  0  0  0  0  0  0  0  0  0  0
   38.0605   28.3444   36.0993 H   0  0  0  0  0  0  0  0  0  0  0  0
   37.3667   26.6762   36.1250 H   0  0  0  0  0  0  0  0  0  0  0  0
   35.1895   31.0189   31.2097 H   0  0  0  0  0  0  0  0  0  0  0  0
   32.6259   31.8945   31.1349 H   0  0  0  0  0  0  0  0  0  0  0  0
   31.2581   30.2202   32.7482 H   0  0  0  0  0  0  0  0  0  0  0  0
   39.1851   26.8415   33.9316 H   0  0  0  0  0  0  0  0  0  0  0  0
   40.0030   27.5166   35.3806 H   0  0  0  0  0  0  0  0  0  0  0  0
   41.1495   22.7019   35.3021 H   0  0  0  0  0  0  0  0  0  0  0  0
   39.6146   22.0009   37.1317 H   0  0  0  0  0  0  0  0  0  0  0  0
   38.1181   23.7105   39.1992 H   0  0  0  0  0  0  0  0  0  0  0  0
   36.7055   24.0513   38.1433 H   0  0  0  0  0  0  0  0  0  0  0  0
   37.4536   22.4182   38.1433 H   0  0  0  0  0  0  0  0  0  0  0  0
  2  1  1  0
  3  2  2  0
  4  5  1  0
  4  3  1  0
  5  6  2  0
  6  2  1  0
  7  5  1  0
  7 11  1  0
  8  7  2  0
  9  8  1  0
  9 10  2  0
 10 11  1  0
 12  1  1  0
 12 17  1  0
 13 14  2  0
 14 15  1  0
 15 19  1  0
 16 15  2  0
 17 16  1  0
 18 17  2  0
 18 13  1  0
  1 20  1  0
  1 21  1  0
  8 22  1  0
  9 23  1  0
 10 24  1  0
 12 25  1  0
 12 26  1  0
 13 27  1  0
 14 28  1  0
 19 29  1  0
 19 30  1  0
 19 31  1  0
M  ISO  8  20   8  21   8  22  14  23  14  24  14  25   8  26   8  27  14
M  ISO  4  28  14  29   8  30   8  31   8
M  END
>  <minimizedAffinity>  (1) 
-4.55423307

>  <minimizedRMSD>  (1) 
1.06624103

$$$$
