
     RDKit          3D

 41 44  0  0  0  0  0  0  0  0999 V2000
   40.2070   23.2190   32.0740 C   0  0  0  0  0  0  0  0  0  0  0  0
   39.5200   22.4430   32.9970 C   0  0  0  0  0  0  0  0  0  0  0  0
   38.5400   23.0650   33.8070 C   0  0  0  0  0  0  0  0  0  0  0  0
   38.3160   24.3960   33.6450 N   0  0  0  0  0  0  0  0  0  0  0  0
   39.0110   25.1150   32.7310 C   0  0  0  0  0  0  0  0  0  0  0  0
   39.9490   24.5440   31.9490 N   0  0  0  0  0  0  0  0  0  0  0  0
   38.6540   26.5700   32.6670 C   0  0  0  0  0  0  0  0  0  0  0  0
   38.0930   27.0050   33.9810 C   0  0  0  0  0  0  0  0  0  0  0  0
   36.8660   27.8410   33.8080 C   0  0  0  0  0  0  0  0  0  0  0  0
   36.2780   28.0810   32.6080 N   0  0  0  0  0  0  0  0  0  0  0  0
   35.2400   28.8370   32.7980 O   0  0  0  0  0  0  0  0  0  0  0  0
   35.0930   29.1190   34.0450 C   0  0  0  0  0  0  0  0  0  0  0  0
   36.1020   28.5050   34.7000 N   0  0  0  0  0  0  0  0  0  0  0  0
   34.1100   29.9130   34.7750 C   0  0  0  0  0  0  0  0  0  0  0  0
   34.2370   31.1030   35.4710 C   0  0  0  0  0  0  0  0  0  0  0  0
   32.9840   31.4290   35.9820 C   0  0  0  0  0  0  0  0  0  0  0  0
   32.1540   30.3900   35.5540 C   0  0  0  0  0  0  0  0  0  0  0  0
   32.8500   29.5340   34.8570 O   0  0  0  0  0  0  0  0  0  0  0  0
   37.8120   22.2360   34.7860 C   0  0  0  0  0  0  0  0  0  0  0  0
   38.1880   22.7300   36.1400 C   0  0  0  0  0  0  0  0  0  0  0  0
   37.4100   23.4820   36.9970 C   0  0  0  0  0  0  0  0  0  0  0  0
   37.9070   23.8620   38.2250 C   0  0  0  0  0  0  0  0  0  0  0  0
   39.1920   23.5000   38.6290 C   0  0  0  0  0  0  0  0  0  0  0  0
   40.0060   22.7400   37.7840 C   0  0  0  0  0  0  0  0  0  0  0  0
   39.4530   22.3940   36.5760 C   0  0  0  0  0  0  0  0  0  0  0  0
   40.9713   22.7525   31.4351 H   0  0  0  0  0  0  0  0  0  0  0  0
   39.7324   21.3683   33.0969 H   0  0  0  0  0  0  0  0  0  0  0  0
   39.5552   27.1587   32.4405 H   0  0  0  0  0  0  0  0  0  0  0  0
   37.9037   26.7283   31.8783 H   0  0  0  0  0  0  0  0  0  0  0  0
   37.8366   26.1134   34.5720 H   0  0  0  0  0  0  0  0  0  0  0  0
   38.8528   27.6127   34.4943 H   0  0  0  0  0  0  0  0  0  0  0  0
   35.1614   31.6857   35.5974 H   0  0  0  0  0  0  0  0  0  0  0  0
   32.7094   32.3063   36.5862 H   0  0  0  0  0  0  0  0  0  0  0  0
   31.0789   30.3063   35.7712 H   0  0  0  0  0  0  0  0  0  0  0  0
   36.7272   22.3376   34.6346 H   0  0  0  0  0  0  0  0  0  0  0  0
   38.0709   21.1732   34.6700 H   0  0  0  0  0  0  0  0  0  0  0  0
   36.3931   23.7780   36.6998 H   0  0  0  0  0  0  0  0  0  0  0  0
   37.2784   24.4621   38.8993 H   0  0  0  0  0  0  0  0  0  0  0  0
   39.5658   23.8133   39.6150 H   0  0  0  0  0  0  0  0  0  0  0  0
   41.0248   22.4384   38.0689 H   0  0  0  0  0  0  0  0  0  0  0  0
   40.0746   21.7949   35.8943 H   0  0  0  0  0  0  0  0  0  0  0  0
  1  2  2  0
  2  3  1  0
  3 19  1  0
  4  3  2  0
  5  4  1  0
  6  1  1  0
  6  5  2  0
  7  5  1  0
  7  8  1  0
  9  8  1  0
  9 13  1  0
 10 11  1  0
 10  9  2  0
 11 12  1  0
 12 13  2  0
 12 14  1  0
 14 18  1  0
 14 15  2  0
 15 16  1  0
 17 16  2  0
 18 17  1  0
 19 20  1  0
 20 25  1  0
 20 21  2  0
 21 22  1  0
 22 23  2  0
 24 23  1  0
 25 24  2  0
  1 26  1  0
  2 27  1  0
  7 28  1  0
  7 29  1  0
  8 30  1  0
  8 31  1  0
 15 32  1  0
 16 33  1  0
 17 34  1  0
 19 35  1  0
 19 36  1  0
 21 37  1  0
 22 38  1  0
 23 39  1  0
 24 40  1  0
 25 41  1  0
M  ISO  8  26  14  27  14  28   8  29   8  30   8  31   8  32  14  33  14
M  ISO  8  34  14  35   8  36   8  37  14  38  14  39  14  40  14  41  14
M  END
>  <minimizedAffinity>  (1) 
-4.98699617

>  <minimizedRMSD>  (1) 
2.9676919

$$$$
