
     RDKit          3D

 38 41  0  0  0  0  0  0  0  0999 V2000
   39.3540   26.9480   35.1320 C   0  0  0  0  0  0  0  0  0  0  0  0
   41.0200   23.6260   35.3860 C   0  0  0  0  0  0  0  0  0  0  0  0
   40.0160   22.8610   35.9350 C   0  0  0  0  0  0  0  0  0  0  0  0
   38.7840   23.4610   36.2200 C   0  0  0  0  0  0  0  0  0  0  0  0
   38.6430   24.7890   35.9320 N   0  0  0  0  0  0  0  0  0  0  0  0
   39.6510   25.5100   35.3930 C   0  0  0  0  0  0  0  0  0  0  0  0
   40.8330   24.9450   35.1160 N   0  0  0  0  0  0  0  0  0  0  0  0
   37.6900   22.6670   36.8110 C   0  0  0  0  0  0  0  0  0  0  0  0
   37.0630   21.9540   35.7110 N   0  0  0  0  0  0  0  0  0  0  0  0
   37.3160   21.8990   34.3980 C   0  0  0  0  0  0  0  0  0  0  0  0
   36.4390   21.0760   33.7480 C   0  0  0  0  0  0  0  0  0  0  0  0
   35.6220   20.6100   34.6930 N   0  0  0  0  0  0  0  0  0  0  0  0
   35.9860   21.1290   35.8700 C   0  0  0  0  0  0  0  0  0  0  0  0
   37.9500   27.2570   35.5570 C   0  0  0  0  0  0  0  0  0  0  0  0
   37.1100   27.6380   34.3800 C   0  0  0  0  0  0  0  0  0  0  0  0
   37.2100   27.0680   33.1630 N   0  0  0  0  0  0  0  0  0  0  0  0
   36.3440   27.6170   32.3570 O   0  0  0  0  0  0  0  0  0  0  0  0
   35.6650   28.5290   32.9760 C   0  0  0  0  0  0  0  0  0  0  0  0
   36.1360   28.5520   34.2470 N   0  0  0  0  0  0  0  0  0  0  0  0
   34.6000   29.4200   32.5470 C   0  0  0  0  0  0  0  0  0  0  0  0
   34.6020   30.5090   31.7100 C   0  0  0  0  0  0  0  0  0  0  0  0
   33.2960   31.0000   31.6440 C   0  0  0  0  0  0  0  0  0  0  0  0
   32.5680   30.1470   32.4730 C   0  0  0  0  0  0  0  0  0  0  0  0
   33.3610   29.2420   32.9790 O   0  0  0  0  0  0  0  0  0  0  0  0
   40.0553   27.5758   35.7013 H   0  0  0  0  0  0  0  0  0  0  0  0
   39.4640   27.1544   34.0571 H   0  0  0  0  0  0  0  0  0  0  0  0
   41.9915   23.1614   35.1616 H   0  0  0  0  0  0  0  0  0  0  0  0
   40.1795   21.7940   36.1466 H   0  0  0  0  0  0  0  0  0  0  0  0
   38.0910   21.9548   37.5472 H   0  0  0  0  0  0  0  0  0  0  0  0
   36.9670   23.3100   37.3344 H   0  0  0  0  0  0  0  0  0  0  0  0
   38.1299   22.4486   33.9025 H   0  0  0  0  0  0  0  0  0  0  0  0
   36.4129   20.8467   32.6725 H   0  0  0  0  0  0  0  0  0  0  0  0
   35.4893   20.9214   36.8293 H   0  0  0  0  0  0  0  0  0  0  0  0
   37.5150   26.3684   36.0378 H   0  0  0  0  0  0  0  0  0  0  0  0
   37.9729   28.1014   36.2616 H   0  0  0  0  0  0  0  0  0  0  0  0
   35.4764   30.9211   31.1851 H   0  0  0  0  0  0  0  0  0  0  0  0
   32.9263   31.8622   31.0696 H   0  0  0  0  0  0  0  0  0  0  0  0
   31.4887   30.2250   32.6706 H   0  0  0  0  0  0  0  0  0  0  0  0
  1  6  1  0
  1 14  1  0
  2  3  2  0
  3  4  1  0
  4  8  1  0
  5  4  2  0
  6  5  1  0
  7  2  1  0
  7  6  2  0
  9 13  1  0
  9  8  1  0
 10  9  1  0
 11 10  2  0
 11 12  1  0
 12 13  2  0
 15 14  1  0
 16 15  2  0
 17 18  1  0
 17 16  1  0
 18 19  2  0
 19 15  1  0
 20 18  1  0
 20 24  1  0
 21 20  2  0
 22 21  1  0
 22 23  2  0
 23 24  1  0
  1 25  1  0
  1 26  1  0
  2 27  1  0
  3 28  1  0
  8 29  1  0
  8 30  1  0
 10 31  1  0
 11 32  1  0
 13 33  1  0
 14 34  1  0
 14 35  1  0
 21 36  1  0
 22 37  1  0
 23 38  1  0
M  ISO  8  25   8  26   8  27  14  28  14  29   8  30   8  31  14  32  14
M  ISO  6  33  14  34   8  35   8  36  14  37  14  38  14
M  END
>  <minimizedAffinity>  (1) 
-4.98013401

>  <minimizedRMSD>  (1) 
1.36813569

$$$$
