
     RDKit          3D

 32 33  0  0  0  0  0  0  0  0999 V2000
   38.4370   26.3640   34.2280 C   0  0  0  0  0  0  0  0  0  0  0  0
   37.1930   27.1380   34.6120 C   0  0  0  0  0  0  0  0  0  0  0  0
   38.8080   26.7520   32.8260 C   0  0  0  0  0  0  0  0  0  0  0  0
   39.5670   26.8840   35.1220 C   0  0  0  0  0  0  0  0  0  0  0  0
   40.8960   26.6040   34.5120 C   0  0  0  0  0  0  0  0  0  0  0  0
   41.3560   27.5220   33.6020 C   0  0  0  0  0  0  0  0  0  0  0  0
   42.5920   27.2760   33.0250 C   0  0  0  0  0  0  0  0  0  0  0  0
   43.2600   26.1400   33.4020 C   0  0  0  0  0  0  0  0  0  0  0  0
   42.7630   25.2470   34.3160 C   0  0  0  0  0  0  0  0  0  0  0  0
   41.5610   25.5000   34.8690 N   0  0  0  0  0  0  0  0  0  0  0  0
   38.3120   24.6090   34.5090 S   0  0  0  0  0  0  0  0  0  0  0  0
   37.9280   24.1220   38.5140 C   0  0  0  0  0  0  0  0  0  0  0  0
   37.7170   24.5410   37.1980 C   0  0  0  0  0  0  0  0  0  0  0  0
   38.5660   24.0870   36.1870 C   0  0  0  0  0  0  0  0  0  0  0  0
   39.5790   23.2400   36.5360 N   0  0  0  0  0  0  0  0  0  0  0  0
   39.7550   22.8560   37.8140 C   0  0  0  0  0  0  0  0  0  0  0  0
   38.9480   23.2820   38.8050 N   0  0  0  0  0  0  0  0  0  0  0  0
   37.1151   27.1865   35.7082 H   0  0  0  0  0  0  0  0  0  0  0  0
   37.2547   28.1574   34.2034 H   0  0  0  0  0  0  0  0  0  0  0  0
   36.3057   26.6322   34.2034 H   0  0  0  0  0  0  0  0  0  0  0  0
   39.5680   27.5468   32.8544 H   0  0  0  0  0  0  0  0  0  0  0  0
   39.2131   25.8761   32.2982 H   0  0  0  0  0  0  0  0  0  0  0  0
   37.9148   27.1175   32.2982 H   0  0  0  0  0  0  0  0  0  0  0  0
   39.4521   27.9701   35.2532 H   0  0  0  0  0  0  0  0  0  0  0  0
   39.5108   26.3725   36.0942 H   0  0  0  0  0  0  0  0  0  0  0  0
   40.7690   28.4150   33.3415 H   0  0  0  0  0  0  0  0  0  0  0  0
   43.0229   27.9700   32.2883 H   0  0  0  0  0  0  0  0  0  0  0  0
   44.2415   25.9350   32.9497 H   0  0  0  0  0  0  0  0  0  0  0  0
   43.3316   24.3464   34.5909 H   0  0  0  0  0  0  0  0  0  0  0  0
   37.2631   24.4760   39.3157 H   0  0  0  0  0  0  0  0  0  0  0  0
   36.8879   25.2237   36.9602 H   0  0  0  0  0  0  0  0  0  0  0  0
   40.5829   22.1736   38.0566 H   0  0  0  0  0  0  0  0  0  0  0  0
  1 11  1  0
  1  2  1  0
  1  4  1  0
  3  1  1  0
  5 10  1  0
  5  4  1  0
  6  5  2  0
  7  8  2  0
  7  6  1  0
  8  9  1  0
  9 10  2  0
 11 14  1  0
 12 17  2  0
 13 12  1  0
 14 15  1  0
 14 13  2  0
 15 16  2  0
 16 17  1  0
  2 18  1  0
  2 19  1  0
  2 20  1  0
  3 21  1  0
  3 22  1  0
  3 23  1  0
  4 24  1  0
  4 25  1  0
  6 26  1  0
  7 27  1  0
  8 28  1  0
  9 29  1  0
 12 30  1  0
 13 31  1  0
 16 32  1  0
M  ISO  8  18   8  19   8  20   8  21   8  22   8  23   8  24   8  25   8
M  ISO  7  26  14  27  14  28  14  29  14  30  14  31  14  32  14
M  END
>  <minimizedAffinity>  (1) 
-4.32743216

>  <minimizedRMSD>  (1) 
1.18575931

$$$$
