
     RDKit          3D

 38 41  0  0  0  0  0  0  0  0999 V2000
   39.3480   26.9340   35.1320 C   0  0  0  0  0  0  0  0  0  0  0  0
   40.9340   23.5580   35.3630 C   0  0  0  0  0  0  0  0  0  0  0  0
   39.9210   22.8270   35.9510 C   0  0  0  0  0  0  0  0  0  0  0  0
   38.7050   23.4820   36.2650 C   0  0  0  0  0  0  0  0  0  0  0  0
   38.5820   24.8060   35.9770 N   0  0  0  0  0  0  0  0  0  0  0  0
   39.6090   25.4920   35.3950 C   0  0  0  0  0  0  0  0  0  0  0  0
   40.7710   24.8670   35.0940 N   0  0  0  0  0  0  0  0  0  0  0  0
   37.6210   22.7050   36.8920 C   0  0  0  0  0  0  0  0  0  0  0  0
   36.8750   21.8680   35.9450 C   0  0  0  0  0  0  0  0  0  0  0  0
   37.1600   21.8610   34.5760 C   0  0  0  0  0  0  0  0  0  0  0  0
   36.3020   20.9870   33.9380 C   0  0  0  0  0  0  0  0  0  0  0  0
   35.5140   20.4750   34.9070 N   0  0  0  0  0  0  0  0  0  0  0  0
   35.8620   20.9970   36.0570 N   0  0  0  0  0  0  0  0  0  0  0  0
   37.9490   27.2690   35.5500 C   0  0  0  0  0  0  0  0  0  0  0  0
   37.1060   27.6530   34.3720 C   0  0  0  0  0  0  0  0  0  0  0  0
   37.2120   27.0910   33.1520 N   0  0  0  0  0  0  0  0  0  0  0  0
   36.3500   27.6350   32.3520 O   0  0  0  0  0  0  0  0  0  0  0  0
   35.6650   28.5400   32.9780 C   0  0  0  0  0  0  0  0  0  0  0  0
   36.1290   28.5630   34.2450 N   0  0  0  0  0  0  0  0  0  0  0  0
   34.5940   29.4290   32.5500 C   0  0  0  0  0  0  0  0  0  0  0  0
   34.5680   30.5160   31.7210 C   0  0  0  0  0  0  0  0  0  0  0  0
   33.2780   31.0080   31.6490 C   0  0  0  0  0  0  0  0  0  0  0  0
   32.5670   30.1550   32.4700 C   0  0  0  0  0  0  0  0  0  0  0  0
   33.3460   29.2470   32.9840 O   0  0  0  0  0  0  0  0  0  0  0  0
   40.0593   27.5466   35.7054 H   0  0  0  0  0  0  0  0  0  0  0  0
   39.4710   27.1406   34.0586 H   0  0  0  0  0  0  0  0  0  0  0  0
   41.8848   23.0654   35.1115 H   0  0  0  0  0  0  0  0  0  0  0  0
   40.0555   21.7577   36.1711 H   0  0  0  0  0  0  0  0  0  0  0  0
   38.0604   22.0529   37.6612 H   0  0  0  0  0  0  0  0  0  0  0  0
   36.9081   23.4283   37.3145 H   0  0  0  0  0  0  0  0  0  0  0  0
   37.9434   22.4571   34.0851 H   0  0  0  0  0  0  0  0  0  0  0  0
   36.2678   20.7560   32.8631 H   0  0  0  0  0  0  0  0  0  0  0  0
   34.7616   19.7860   34.7653 H   0  0  0  0  0  0  0  0  0  0  0  0
   37.5016   26.3917   36.0400 H   0  0  0  0  0  0  0  0  0  0  0  0
   37.9885   28.1232   36.2419 H   0  0  0  0  0  0  0  0  0  0  0  0
   35.4381   30.9340   31.1935 H   0  0  0  0  0  0  0  0  0  0  0  0
   32.9074   31.8707   31.0760 H   0  0  0  0  0  0  0  0  0  0  0  0
   31.4870   30.2323   32.6638 H   0  0  0  0  0  0  0  0  0  0  0  0
  1  6  1  0
  1 14  1  0
  2  3  2  0
  3  4  1  0
  4  8  1  0
  5  4  2  0
  6  5  1  0
  7  2  1  0
  7  6  2  0
  9 13  2  0
  9  8  1  0
 10  9  1  0
 11 10  2  0
 11 12  1  0
 12 13  1  0
 15 14  1  0
 16 15  2  0
 17 18  1  0
 17 16  1  0
 18 19  2  0
 19 15  1  0
 20 18  1  0
 20 24  1  0
 21 20  2  0
 22 21  1  0
 22 23  2  0
 23 24  1  0
  1 25  1  0
  1 26  1  0
  2 27  1  0
  3 28  1  0
  8 29  1  0
  8 30  1  0
 10 31  1  0
 11 32  1  0
 12 33  1  0
 14 34  1  0
 14 35  1  0
 21 36  1  0
 22 37  1  0
 23 38  1  0
M  ISO  8  25   8  26   8  27  14  28  14  29   8  30   8  31  14  32  14
M  ISO  6  33   9  34   8  35   8  36  14  37  14  38  14
M  END
>  <minimizedAffinity>  (1) 
-5.14944506

>  <minimizedRMSD>  (1) 
1.32657361

$$$$
