
     RDKit          3D

 46 49  0  0  1  0  0  0  0  0999 V2000
   36.1580   29.4530   32.4280 C   0  0  0  0  0  0  0  0  0  0  0  0
   36.8620   28.4730   31.7840 C   0  0  0  0  0  0  0  0  0  0  0  0
   37.2290   27.3440   32.5150 C   0  0  0  0  0  0  0  0  0  0  0  0
   36.8930   27.2220   33.8380 C   0  0  0  0  0  0  0  0  0  0  0  0
   36.1930   28.1980   34.4780 C   0  0  0  0  0  0  0  0  0  0  0  0
   35.8190   29.3200   33.7800 C   0  0  0  0  0  0  0  0  0  0  0  0
   37.3730   25.9590   34.4290 C   0  0  0  0  0  0  0  0  0  0  0  0
   38.7710   26.0000   34.8960 C   0  0  2  0  0  0  0  0  0  0  0  0
   40.7360   23.1660   36.1340 C   0  0  0  0  0  0  0  0  0  0  0  0
   39.9300   22.6520   37.2030 C   0  0  0  0  0  0  0  0  0  0  0  0
   38.7160   23.2940   37.4790 C   0  0  0  0  0  0  0  0  0  0  0  0
   38.3910   24.3740   36.6970 N   0  0  0  0  0  0  0  0  0  0  0  0
   39.1860   24.8260   35.6940 C   0  0  0  0  0  0  0  0  0  0  0  0
   40.3520   24.2360   35.4030 N   0  0  0  0  0  0  0  0  0  0  0  0
   38.9560   27.2540   35.7920 C   0  0  0  0  0  0  0  0  0  0  0  0
   35.6790   30.8830   31.5420 S   0  0  0  0  0  0  0  0  0  0  0  0
   36.2200   30.7470   30.1400 O   0  0  0  0  0  0  0  0  0  0  0  0
   36.2680   32.1240   32.1590 O   0  0  0  0  0  0  0  0  0  0  0  0
   33.9440   31.0280   31.5030 C   0  0  0  0  0  0  0  0  0  0  0  0
   32.9390   30.4990   32.1960 N   0  0  0  0  0  0  0  0  0  0  0  0
   31.7940   30.9400   31.7670 O   0  0  0  0  0  0  0  0  0  0  0  0
   32.0040   31.7770   30.7740 C   0  0  0  0  0  0  0  0  0  0  0  0
   33.3100   31.8300   30.6150 N   0  0  0  0  0  0  0  0  0  0  0  0
   30.9150   32.4450   30.0780 C   0  0  0  0  0  0  0  0  0  0  0  0
   30.4610   33.5100   30.5620 O   0  0  0  0  0  0  0  0  0  0  0  0
   30.3400   31.8850   28.8130 C   0  0  0  0  0  0  0  0  0  0  0  0
   29.6280   32.7410   27.8650 C   0  0  0  0  0  0  0  0  0  0  0  0
   31.0500   32.4460   27.5420 C   0  0  0  0  0  0  0  0  0  0  0  0
   37.1304   28.5726   30.7219 H   0  0  0  0  0  0  0  0  0  0  0  0
   37.7961   26.5400   32.0230 H   0  0  0  0  0  0  0  0  0  0  0  0
   35.9302   28.0896   35.5406 H   0  0  0  0  0  0  0  0  0  0  0  0
   35.2517   30.1162   34.2843 H   0  0  0  0  0  0  0  0  0  0  0  0
   36.7302   25.7142   35.2874 H   0  0  0  0  0  0  0  0  0  0  0  0
   37.3293   25.2019   33.6322 H   0  0  0  0  0  0  0  0  0  0  0  0
   39.3928   26.0156   33.9887 H   0  0  0  0  0  0  0  0  0  0  0  0
   41.6932   22.6759   35.9026 H   0  0  0  0  0  0  0  0  0  0  0  0
   40.2554   21.7796   37.7887 H   0  0  0  0  0  0  0  0  0  0  0  0
   38.0532   22.9482   38.2859 H   0  0  0  0  0  0  0  0  0  0  0  0
   38.9123   26.9580   36.8505 H   0  0  0  0  0  0  0  0  0  0  0  0
   39.9319   27.7152   35.5802 H   0  0  0  0  0  0  0  0  0  0  0  0
   38.1549   27.9774   35.5802 H   0  0  0  0  0  0  0  0  0  0  0  0
   30.0816   30.9170   29.2670 H   0  0  0  0  0  0  0  0  0  0  0  0
   28.8325   32.3085   27.2405 H   0  0  0  0  0  0  0  0  0  0  0  0
   29.0570   33.6749   27.9734 H   0  0  0  0  0  0  0  0  0  0  0  0
   31.3047   31.7786   26.7055 H   0  0  0  0  0  0  0  0  0  0  0  0
   31.9551   33.0354   27.3338 H   0  0  0  0  0  0  0  0  0  0  0  0
  1  6  1  0
  2  1  2  0
  2  3  1  0
  3  4  2  0
  4  7  1  0
  4  5  1  0
  6  5  2  0
  7  8  1  0
  8 13  1  0
  8 15  1  0
  9 10  2  0
 10 11  1  0
 12 11  2  0
 13 12  1  0
 14 13  2  0
 14  9  1  0
 16 18  2  0
 16  1  1  0
 17 16  2  0
 19 16  1  0
 19 20  2  0
 21 20  1  0
 22 21  1  0
 23 22  2  0
 23 19  1  0
 24 25  2  0
 24 22  1  0
 26 24  1  0
 27 26  1  0
 28 27  1  0
 28 26  1  0
  2 29  1  0
  3 30  1  0
  5 31  1  0
  6 32  1  0
  7 33  1  0
  7 34  1  0
  8 35  1  6
  9 36  1  0
 10 37  1  0
 11 38  1  0
 15 39  1  0
 15 40  1  0
 15 41  1  0
 26 42  1  0
 27 43  1  0
 27 44  1  0
 28 45  1  0
 28 46  1  0
M  ISO  8  29  14  30  14  31  14  32  14  33   8  34   8  35   8  36  14
M  ISO  8  37  14  38  14  39   8  40   8  41   8  42  13  43  13  44  13
M  ISO  2  45  13  46  13
M  END
>  <minimizedAffinity>  (1) 
-5.26820993

>  <minimizedRMSD>  (1) 
1.38334453

$$$$
