
     RDKit          3D

 36 37  0  0  0  0  0  0  0  0999 V2000
   38.5790   26.6640   34.3550 C   0  0  0  0  0  0  0  0  0  0  0  0
   37.6930   27.5620   35.2080 C   0  0  0  0  0  0  0  0  0  0  0  0
   38.4850   27.1610   32.9480 C   0  0  0  0  0  0  0  0  0  0  0  0
   39.9870   26.8820   34.8450 C   0  0  0  0  0  0  0  0  0  0  0  0
   41.0800   26.3550   33.9980 C   0  0  0  0  0  0  0  0  0  0  0  0
   42.0020   25.5610   34.9500 C   0  0  0  0  0  0  0  0  0  0  0  0
   43.3170   25.4620   34.2070 C   0  0  0  0  0  0  0  0  0  0  0  0
   43.2550   26.4710   33.0930 C   0  0  0  0  0  0  0  0  0  0  0  0
   42.0780   27.3730   33.5050 C   0  0  0  0  0  0  0  0  0  0  0  0
   38.1850   24.9300   34.5300 S   0  0  0  0  0  0  0  0  0  0  0  0
   38.1370   24.0180   38.4770 C   0  0  0  0  0  0  0  0  0  0  0  0
   37.8150   24.5850   37.2470 C   0  0  0  0  0  0  0  0  0  0  0  0
   38.5550   24.2320   36.1230 C   0  0  0  0  0  0  0  0  0  0  0  0
   39.5660   23.3390   36.2920 N   0  0  0  0  0  0  0  0  0  0  0  0
   39.8600   22.8030   37.4900 C   0  0  0  0  0  0  0  0  0  0  0  0
   39.1500   23.1360   38.5880 N   0  0  0  0  0  0  0  0  0  0  0  0
   37.8877   27.3647   36.2725 H   0  0  0  0  0  0  0  0  0  0  0  0
   37.9150   28.6158   34.9838 H   0  0  0  0  0  0  0  0  0  0  0  0
   36.6363   27.3542   34.9838 H   0  0  0  0  0  0  0  0  0  0  0  0
   38.2806   28.2418   32.9538 H   0  0  0  0  0  0  0  0  0  0  0  0
   39.4351   26.9703   32.4275 H   0  0  0  0  0  0  0  0  0  0  0  0
   37.6701   26.6365   32.4275 H   0  0  0  0  0  0  0  0  0  0  0  0
   40.1391   27.9666   34.9470 H   0  0  0  0  0  0  0  0  0  0  0  0
   40.0543   26.3152   35.7853 H   0  0  0  0  0  0  0  0  0  0  0  0
   40.5747   25.8523   33.1602 H   0  0  0  0  0  0  0  0  0  0  0  0
   42.1324   26.0967   35.9018 H   0  0  0  0  0  0  0  0  0  0  0  0
   41.5898   24.5736   35.2052 H   0  0  0  0  0  0  0  0  0  0  0  0
   44.1537   25.6929   34.8828 H   0  0  0  0  0  0  0  0  0  0  0  0
   43.4773   24.4466   33.8156 H   0  0  0  0  0  0  0  0  0  0  0  0
   43.0587   25.9818   32.1275 H   0  0  0  0  0  0  0  0  0  0  0  0
   44.1964   27.0235   32.9568 H   0  0  0  0  0  0  0  0  0  0  0  0
   42.3673   28.0720   34.3035 H   0  0  0  0  0  0  0  0  0  0  0  0
   41.7010   28.0169   32.6968 H   0  0  0  0  0  0  0  0  0  0  0  0
   37.5570   24.2935   39.3701 H   0  0  0  0  0  0  0  0  0  0  0  0
   36.9858   25.3032   37.1648 H   0  0  0  0  0  0  0  0  0  0  0  0
   40.6888   22.0849   37.5757 H   0  0  0  0  0  0  0  0  0  0  0  0
  1 10  1  0
  1  4  1  0
  1  2  1  0
  3  1  1  0
  5  4  1  0
  5  6  1  0
  7  6  1  0
  8  9  1  0
  8  7  1  0
  9  5  1  0
 10 13  1  0
 11 16  2  0
 12 11  1  0
 13 14  1  0
 13 12  2  0
 14 15  2  0
 15 16  1  0
  2 17  1  0
  2 18  1  0
  2 19  1  0
  3 20  1  0
  3 21  1  0
  3 22  1  0
  4 23  1  0
  4 24  1  0
  5 25  1  0
  6 26  1  0
  6 27  1  0
  7 28  1  0
  7 29  1  0
  8 30  1  0
  8 31  1  0
  9 32  1  0
  9 33  1  0
 11 34  1  0
 12 35  1  0
 15 36  1  0
M  ISO  8  17   8  18   8  19   8  20   8  21   8  22   8  23   8  24   8
M  ISO  8  25  13  26  13  27  13  28  13  29  13  30  13  31  13  32  13
M  ISO  4  33  13  34  14  35  14  36  14
M  END
>  <minimizedAffinity>  (1) 
-4.1976676

>  <minimizedRMSD>  (1) 
0.569105089

$$$$
