
     RDKit          3D

 38 41  0  0  0  0  0  0  0  0999 V2000
   38.2260   25.3150   34.9660 C   0  0  0  0  0  0  0  0  0  0  0  0
   37.9620   24.2050   38.5160 C   0  0  0  0  0  0  0  0  0  0  0  0
   38.9660   23.2360   38.5750 C   0  0  0  0  0  0  0  0  0  0  0  0
   39.7050   22.9820   37.4180 C   0  0  0  0  0  0  0  0  0  0  0  0
   39.4220   23.6810   36.2920 N   0  0  0  0  0  0  0  0  0  0  0  0
   38.4290   24.6250   36.2700 C   0  0  0  0  0  0  0  0  0  0  0  0
   37.7110   24.8820   37.3650 N   0  0  0  0  0  0  0  0  0  0  0  0
   40.7540   21.9680   37.4860 C   0  0  0  0  0  0  0  0  0  0  0  0
   41.8940   22.2360   36.5720 C   0  0  0  0  0  0  0  0  0  0  0  0
   42.1710   21.4220   35.3730 C   0  0  0  0  0  0  0  0  0  0  0  0
   42.9900   21.1560   36.6200 C   0  0  0  0  0  0  0  0  0  0  0  0
   37.3820   26.5460   35.1750 C   0  0  0  0  0  0  0  0  0  0  0  0
   37.1970   27.2960   33.8940 C   0  0  0  0  0  0  0  0  0  0  0  0
   36.2590   28.2370   33.7120 N   0  0  0  0  0  0  0  0  0  0  0  0
   36.3470   28.7060   32.5000 O   0  0  0  0  0  0  0  0  0  0  0  0
   37.3110   28.1140   31.8630 C   0  0  0  0  0  0  0  0  0  0  0  0
   37.8590   27.2220   32.7240 N   0  0  0  0  0  0  0  0  0  0  0  0
   37.8210   28.2590   30.5130 C   0  0  0  0  0  0  0  0  0  0  0  0
   38.9390   27.7630   29.8850 C   0  0  0  0  0  0  0  0  0  0  0  0
   38.9410   28.2180   28.5760 C   0  0  0  0  0  0  0  0  0  0  0  0
   37.7820   28.9950   28.4770 C   0  0  0  0  0  0  0  0  0  0  0  0
   37.1660   28.9900   29.6220 O   0  0  0  0  0  0  0  0  0  0  0  0
   37.7165   24.6354   34.2670 H   0  0  0  0  0  0  0  0  0  0  0  0
   39.2016   25.6058   34.5493 H   0  0  0  0  0  0  0  0  0  0  0  0
   37.3658   24.4233   39.4143 H   0  0  0  0  0  0  0  0  0  0  0  0
   39.1689   22.6882   39.5071 H   0  0  0  0  0  0  0  0  0  0  0  0
   41.1354   21.9295   38.5171 H   0  0  0  0  0  0  0  0  0  0  0  0
   40.3043   21.0142   37.1730 H   0  0  0  0  0  0  0  0  0  0  0  0
   41.7936   23.3241   36.6981 H   0  0  0  0  0  0  0  0  0  0  0  0
   41.4332   20.6785   35.0372 H   0  0  0  0  0  0  0  0  0  0  0  0
   42.4209   21.6575   34.3280 H   0  0  0  0  0  0  0  0  0  0  0  0
   44.0514   21.4422   36.6598 H   0  0  0  0  0  0  0  0  0  0  0  0
   43.2111   20.2812   37.2491 H   0  0  0  0  0  0  0  0  0  0  0  0
   36.3968   26.2449   35.5605 H   0  0  0  0  0  0  0  0  0  0  0  0
   37.8941   27.2028   35.8936 H   0  0  0  0  0  0  0  0  0  0  0  0
   39.7014   27.1158   30.3432 H   0  0  0  0  0  0  0  0  0  0  0  0
   39.6855   28.0143   27.7922 H   0  0  0  0  0  0  0  0  0  0  0  0
   37.4454   29.5257   27.5742 H   0  0  0  0  0  0  0  0  0  0  0  0
  1 12  1  0
  1  6  1  0
  2  3  2  0
  4  8  1  0
  4  3  1  0
  5  4  2  0
  6  5  1  0
  6  7  2  0
  7  2  1  0
  9 11  1  0
  9  8  1  0
 10  9  1  0
 10 11  1  0
 13 12  1  0
 14 13  2  0
 15 14  1  0
 16 15  1  0
 16 17  2  0
 17 13  1  0
 18 16  1  0
 19 18  2  0
 20 19  1  0
 21 20  2  0
 21 22  1  0
 22 18  1  0
  1 23  1  0
  1 24  1  0
  2 25  1  0
  3 26  1  0
  8 27  1  0
  8 28  1  0
  9 29  1  0
 10 30  1  0
 10 31  1  0
 11 32  1  0
 11 33  1  0
 12 34  1  0
 12 35  1  0
 19 36  1  0
 20 37  1  0
 21 38  1  0
M  ISO  8  23   8  24   8  25  14  26  14  27   8  28   8  29  13  30  13
M  ISO  8  31  13  32  13  33  13  34   8  35   8  36  14  37  14  38  14
M  END
>  <minimizedAffinity>  (1) 
-4.9423914

>  <minimizedRMSD>  (1) 
4.31813097

$$$$
