
     RDKit          3D

 48 52  0  0  0  0  0  0  0  0999 V2000
   37.3570   26.3370   35.1750 C   0  0  0  0  0  0  0  0  0  0  0  0
   37.3130   27.1260   33.9000 C   0  0  0  0  0  0  0  0  0  0  0  0
   36.4590   28.1350   33.6730 N   0  0  0  0  0  0  0  0  0  0  0  0
   36.6760   28.6100   32.4780 O   0  0  0  0  0  0  0  0  0  0  0  0
   37.6430   27.9560   31.8990 C   0  0  0  0  0  0  0  0  0  0  0  0
   38.0540   27.0190   32.7790 N   0  0  0  0  0  0  0  0  0  0  0  0
   38.2540   28.0930   30.5880 C   0  0  0  0  0  0  0  0  0  0  0  0
   39.1580   27.3140   29.9140 C   0  0  0  0  0  0  0  0  0  0  0  0
   39.3980   27.9190   28.6890 C   0  0  0  0  0  0  0  0  0  0  0  0
   38.6050   29.0640   28.6850 C   0  0  0  0  0  0  0  0  0  0  0  0
   37.9560   29.1260   29.8080 O   0  0  0  0  0  0  0  0  0  0  0  0
   38.4800   30.0400   27.6550 N   0  0  0  0  0  0  0  0  0  0  0  0
   37.4620   30.9090   27.9100 C   0  0  0  0  0  0  0  0  0  0  0  0
   37.1790   31.9310   27.0290 C   0  0  0  0  0  0  0  0  0  0  0  0
   37.9450   32.0530   25.8960 C   0  0  0  0  0  0  0  0  0  0  0  0
   37.7290   32.9780   25.0460 O   0  0  0  0  0  0  0  0  0  0  0  0
   38.9410   31.1780   25.6780 N   0  0  0  0  0  0  0  0  0  0  0  0
   39.2110   30.1840   26.5390 C   0  0  0  0  0  0  0  0  0  0  0  0
   40.1210   29.3160   26.4230 O   0  0  0  0  0  0  0  0  0  0  0  0
   38.1020   25.0400   34.9890 C   0  0  0  0  0  0  0  0  0  0  0  0
   38.0440   24.1030   38.5900 C   0  0  0  0  0  0  0  0  0  0  0  0
   39.0890   23.1860   38.6480 C   0  0  0  0  0  0  0  0  0  0  0  0
   39.7830   22.9060   37.4830 C   0  0  0  0  0  0  0  0  0  0  0  0
   39.4220   23.5310   36.3330 N   0  0  0  0  0  0  0  0  0  0  0  0
   38.3900   24.4290   36.3080 C   0  0  0  0  0  0  0  0  0  0  0  0
   37.7150   24.7080   37.4160 N   0  0  0  0  0  0  0  0  0  0  0  0
   40.8790   21.9410   37.5460 C   0  0  0  0  0  0  0  0  0  0  0  0
   41.9640   22.2160   36.5530 C   0  0  0  0  0  0  0  0  0  0  0  0
   42.2090   21.3770   35.3800 C   0  0  0  0  0  0  0  0  0  0  0  0
   43.1020   21.1780   36.5790 C   0  0  0  0  0  0  0  0  0  0  0  0
   37.8629   26.9334   35.9485 H   0  0  0  0  0  0  0  0  0  0  0  0
   36.3248   26.1052   35.4765 H   0  0  0  0  0  0  0  0  0  0  0  0
   39.6105   26.3798   30.2779 H   0  0  0  0  0  0  0  0  0  0  0  0
   40.0704   27.5694   27.8917 H   0  0  0  0  0  0  0  0  0  0  0  0
   36.8620   30.7944   28.8248 H   0  0  0  0  0  0  0  0  0  0  0  0
   36.3569   32.6338   27.2295 H   0  0  0  0  0  0  0  0  0  0  0  0
   39.5132   31.2724   24.8268 H   0  0  0  0  0  0  0  0  0  0  0  0
   37.4875   24.3488   34.3934 H   0  0  0  0  0  0  0  0  0  0  0  0
   39.0500   25.2389   34.4678 H   0  0  0  0  0  0  0  0  0  0  0  0
   37.4779   24.3414   39.5025 H   0  0  0  0  0  0  0  0  0  0  0  0
   39.3570   22.6958   39.5956 H   0  0  0  0  0  0  0  0  0  0  0  0
   41.3136   21.9710   38.5561 H   0  0  0  0  0  0  0  0  0  0  0  0
   40.4590   20.9530   37.3062 H   0  0  0  0  0  0  0  0  0  0  0  0
   41.8264   23.3035   36.6452 H   0  0  0  0  0  0  0  0  0  0  0  0
   41.4822   20.5971   35.1087 H   0  0  0  0  0  0  0  0  0  0  0  0
   42.3950   21.5876   34.3165 H   0  0  0  0  0  0  0  0  0  0  0  0
   44.1527   21.5023   36.5512 H   0  0  0  0  0  0  0  0  0  0  0  0
   43.3903   20.3331   37.2217 H   0  0  0  0  0  0  0  0  0  0  0  0
  2  1  1  0
  3  2  2  0
  4  3  1  0
  5  4  1  0
  5  6  2  0
  6  2  1  0
  7  5  1  0
  8  7  2  0
  9  8  1  0
 10  9  2  0
 10 11  1  0
 11  7  1  0
 12 13  1  0
 12 10  1  0
 14 13  2  0
 15 14  1  0
 16 15  2  0
 17 15  1  0
 17 18  1  0
 18 12  1  0
 19 18  2  0
 20  1  1  0
 20 25  1  0
 21 22  2  0
 23 27  1  0
 23 22  1  0
 24 23  2  0
 25 24  1  0
 25 26  2  0
 26 21  1  0
 28 30  1  0
 28 27  1  0
 29 28  1  0
 29 30  1  0
  1 31  1  0
  1 32  1  0
  8 33  1  0
  9 34  1  0
 13 35  1  0
 14 36  1  0
 17 37  1  0
 20 38  1  0
 20 39  1  0
 21 40  1  0
 22 41  1  0
 27 42  1  0
 27 43  1  0
 28 44  1  0
 29 45  1  0
 29 46  1  0
 30 47  1  0
 30 48  1  0
M  ISO  8  31   8  32   8  33  14  34  14  35  14  36  14  37   9  38   8
M  ISO  8  39   8  40  14  41  14  42   8  43   8  44  13  45  13  46  13
M  ISO  2  47  13  48  13
M  END
>  <minimizedAffinity>  (1) 
-5.3283124

>  <minimizedRMSD>  (1) 
1.01274884

$$$$
