
     RDKit          3D

 53 57  0  0  0  0  0  0  0  0999 V2000
   37.9890   25.3780   34.9730 C   0  0  0  0  0  0  0  0  0  0  0  0
   38.0920   24.0330   38.4570 C   0  0  0  0  0  0  0  0  0  0  0  0
   39.1260   23.1070   38.3540 C   0  0  0  0  0  0  0  0  0  0  0  0
   39.7610   22.9600   37.1190 C   0  0  0  0  0  0  0  0  0  0  0  0
   39.3540   23.7140   36.0700 N   0  0  0  0  0  0  0  0  0  0  0  0
   38.3340   24.6140   36.2050 C   0  0  0  0  0  0  0  0  0  0  0  0
   37.7150   24.7690   37.3790 N   0  0  0  0  0  0  0  0  0  0  0  0
   40.8540   21.9800   37.0160 C   0  0  0  0  0  0  0  0  0  0  0  0
   42.1750   22.6250   36.7420 C   0  0  0  0  0  0  0  0  0  0  0  0
   42.7690   22.6580   35.3970 C   0  0  0  0  0  0  0  0  0  0  0  0
   43.2760   21.6180   36.3730 C   0  0  0  0  0  0  0  0  0  0  0  0
   37.5270   26.7650   35.3630 C   0  0  0  0  0  0  0  0  0  0  0  0
   37.1250   27.5550   34.1630 C   0  0  0  0  0  0  0  0  0  0  0  0
   36.0930   28.3940   34.1340 N   0  0  0  0  0  0  0  0  0  0  0  0
   35.9970   28.9290   32.9570 O   0  0  0  0  0  0  0  0  0  0  0  0
   36.9360   28.4750   32.1860 C   0  0  0  0  0  0  0  0  0  0  0  0
   37.6570   27.6070   32.9330 N   0  0  0  0  0  0  0  0  0  0  0  0
   37.2650   28.7480   30.8080 C   0  0  0  0  0  0  0  0  0  0  0  0
   37.8140   27.9580   29.8120 C   0  0  0  0  0  0  0  0  0  0  0  0
   37.9120   28.7360   28.6720 C   0  0  0  0  0  0  0  0  0  0  0  0
   37.4110   29.9780   29.0320 C   0  0  0  0  0  0  0  0  0  0  0  0
   37.0510   29.9410   30.2700 O   0  0  0  0  0  0  0  0  0  0  0  0
   37.2810   31.1550   28.2410 N   0  0  0  0  0  0  0  0  0  0  0  0
   36.6430   32.3610   28.7910 C   0  0  0  0  0  0  0  0  0  0  0  0
   37.6300   33.5060   28.8180 C   0  0  0  0  0  0  0  0  0  0  0  0
   38.9530   33.1270   28.2000 C   0  0  0  0  0  0  0  0  0  0  0  0
   38.8180   32.4200   26.8730 C   0  0  0  0  0  0  0  0  0  0  0  0
   37.7180   31.3820   26.8560 C   0  0  0  0  0  0  0  0  0  0  0  0
   37.1834   24.8601   34.4320 H   0  0  0  0  0  0  0  0  0  0  0  0
   38.8733   25.4513   34.3229 H   0  0  0  0  0  0  0  0  0  0  0  0
   37.5760   24.1700   39.4187 H   0  0  0  0  0  0  0  0  0  0  0  0
   39.4348   22.5068   39.2225 H   0  0  0  0  0  0  0  0  0  0  0  0
   40.9216   21.4255   37.9636 H   0  0  0  0  0  0  0  0  0  0  0  0
   40.6262   21.3114   36.1727 H   0  0  0  0  0  0  0  0  0  0  0  0
   41.9966   23.4266   37.4738 H   0  0  0  0  0  0  0  0  0  0  0  0
   43.4191   23.4974   35.1094 H   0  0  0  0  0  0  0  0  0  0  0  0
   42.3588   22.6159   34.3772 H   0  0  0  0  0  0  0  0  0  0  0  0
   43.0324   20.5549   36.2297 H   0  0  0  0  0  0  0  0  0  0  0  0
   44.2544   21.3291   36.7843 H   0  0  0  0  0  0  0  0  0  0  0  0
   36.6655   26.6790   36.0415 H   0  0  0  0  0  0  0  0  0  0  0  0
   38.3603   27.2838   35.8595 H   0  0  0  0  0  0  0  0  0  0  0  0
   38.1167   26.9050   29.9093 H   0  0  0  0  0  0  0  0  0  0  0  0
   38.3038   28.4338   27.6896 H   0  0  0  0  0  0  0  0  0  0  0  0
   35.7835   32.6366   28.1622 H   0  0  0  0  0  0  0  0  0  0  0  0
   36.3055   32.1530   29.8171 H   0  0  0  0  0  0  0  0  0  0  0  0
   37.2065   34.3531   28.2585 H   0  0  0  0  0  0  0  0  0  0  0  0
   37.8107   33.7738   29.8695 H   0  0  0  0  0  0  0  0  0  0  0  0
   39.5413   34.0439   28.0476 H   0  0  0  0  0  0  0  0  0  0  0  0
   39.4437   32.4261   28.8913 H   0  0  0  0  0  0  0  0  0  0  0  0
   38.6017   33.1704   26.0983 H   0  0  0  0  0  0  0  0  0  0  0  0
   39.7655   31.8929   26.6874 H   0  0  0  0  0  0  0  0  0  0  0  0
   36.8725   31.7450   26.2533 H   0  0  0  0  0  0  0  0  0  0  0  0
   38.0866   30.4442   26.4147 H   0  0  0  0  0  0  0  0  0  0  0  0
  1 12  1  0
  1  6  1  0
  3  2  2  0
  4  3  1  0
  5  6  1  0
  5  4  2  0
  6  7  2  0
  7  2  1  0
  8  4  1  0
  9  8  1  0
 10 11  1  0
 10  9  1  0
 11  9  1  0
 13 12  1  0
 14 13  2  0
 15 14  1  0
 16 17  2  0
 16 15  1  0
 17 13  1  0
 18 16  1  0
 19 18  2  0
 20 21  2  0
 20 19  1  0
 21 22  1  0
 22 18  1  0
 23 24  1  0
 23 21  1  0
 24 25  1  0
 26 25  1  0
 27 26  1  0
 28 27  1  0
 28 23  1  0
  1 29  1  0
  1 30  1  0
  2 31  1  0
  3 32  1  0
  8 33  1  0
  8 34  1  0
  9 35  1  0
 10 36  1  0
 10 37  1  0
 11 38  1  0
 11 39  1  0
 12 40  1  0
 12 41  1  0
 19 42  1  0
 20 43  1  0
 24 44  1  0
 24 45  1  0
 25 46  1  0
 25 47  1  0
 26 48  1  0
 26 49  1  0
 27 50  1  0
 27 51  1  0
 28 52  1  0
 28 53  1  0
M  ISO  8  29   8  30   8  31  14  32  14  33   8  34   8  35  13  36  13
M  ISO  8  37  13  38  13  39  13  40   8  41   8  42  14  43  14  44  13
M  ISO  8  45  13  46  13  47  13  48  13  49  13  50  13  51  13  52  13
M  ISO  1  53  13
M  END
>  <minimizedAffinity>  (1) 
-5.18683529

>  <minimizedRMSD>  (1) 
1.15886486

$$$$
