
     RDKit          3D

 43 47  0  0  0  0  0  0  0  0999 V2000
   37.9580   25.4800   34.8040 C   0  0  0  0  0  0  0  0  0  0  0  0
   38.0730   24.1740   38.2860 C   0  0  0  0  0  0  0  0  0  0  0  0
   39.0060   23.1340   38.1600 C   0  0  0  0  0  0  0  0  0  0  0  0
   39.5630   22.9140   36.9000 C   0  0  0  0  0  0  0  0  0  0  0  0
   39.1890   23.6970   35.8670 N   0  0  0  0  0  0  0  0  0  0  0  0
   38.2700   24.7050   36.0320 C   0  0  0  0  0  0  0  0  0  0  0  0
   37.7290   24.9320   37.2190 N   0  0  0  0  0  0  0  0  0  0  0  0
   40.5390   21.8300   36.7660 C   0  0  0  0  0  0  0  0  0  0  0  0
   41.8890   22.1980   37.2450 C   0  0  0  0  0  0  0  0  0  0  0  0
   42.7850   23.0800   36.4910 C   0  0  0  0  0  0  0  0  0  0  0  0
   43.0330   21.5850   36.4270 C   0  0  0  0  0  0  0  0  0  0  0  0
   37.2610   26.7490   35.1490 C   0  0  0  0  0  0  0  0  0  0  0  0
   36.9890   27.5700   33.9250 C   0  0  0  0  0  0  0  0  0  0  0  0
   36.0200   28.4800   33.8350 N   0  0  0  0  0  0  0  0  0  0  0  0
   36.0340   29.0270   32.6520 O   0  0  0  0  0  0  0  0  0  0  0  0
   36.9820   28.5140   31.9430 C   0  0  0  0  0  0  0  0  0  0  0  0
   37.6090   27.5860   32.7200 N   0  0  0  0  0  0  0  0  0  0  0  0
   37.4230   28.7600   30.5900 C   0  0  0  0  0  0  0  0  0  0  0  0
   38.1630   28.0070   29.6970 C   0  0  0  0  0  0  0  0  0  0  0  0
   38.2960   28.7270   28.5260 C   0  0  0  0  0  0  0  0  0  0  0  0
   37.6120   29.9140   28.7710 C   0  0  0  0  0  0  0  0  0  0  0  0
   37.1200   29.8990   29.9750 O   0  0  0  0  0  0  0  0  0  0  0  0
   37.4370   31.0420   27.8620 C   0  0  0  0  0  0  0  0  0  0  0  0
   37.8180   31.3300   26.6040 N   0  0  0  0  0  0  0  0  0  0  0  0
   37.3770   32.5110   26.2710 O   0  0  0  0  0  0  0  0  0  0  0  0
   36.7080   32.9980   27.3030 C   0  0  0  0  0  0  0  0  0  0  0  0
   36.7350   32.1030   28.2960 N   0  0  0  0  0  0  0  0  0  0  0  0
   37.3096   24.8773   34.1510 H   0  0  0  0  0  0  0  0  0  0  0  0
   38.8990   25.7210   34.2878 H   0  0  0  0  0  0  0  0  0  0  0  0
   37.6148   24.3761   39.2654 H   0  0  0  0  0  0  0  0  0  0  0  0
   39.2883   22.5142   39.0238 H   0  0  0  0  0  0  0  0  0  0  0  0
   40.1847   20.9668   37.3486 H   0  0  0  0  0  0  0  0  0  0  0  0
   40.6247   21.5984   35.6941 H   0  0  0  0  0  0  0  0  0  0  0  0
   41.5503   22.2337   38.2910 H   0  0  0  0  0  0  0  0  0  0  0  0
   42.4086   23.6083   35.6026 H   0  0  0  0  0  0  0  0  0  0  0  0
   43.4053   23.9494   36.7545 H   0  0  0  0  0  0  0  0  0  0  0  0
   42.8201   21.0241   35.5050 H   0  0  0  0  0  0  0  0  0  0  0  0
   43.8800   20.9127   36.6288 H   0  0  0  0  0  0  0  0  0  0  0  0
   36.3062   26.5113   35.6407 H   0  0  0  0  0  0  0  0  0  0  0  0
   37.9098   27.3305   35.8205 H   0  0  0  0  0  0  0  0  0  0  0  0
   38.5755   27.0051   29.8870 H   0  0  0  0  0  0  0  0  0  0  0  0
   38.8232   28.4296   27.6075 H   0  0  0  0  0  0  0  0  0  0  0  0
   36.2109   33.9786   27.3385 H   0  0  0  0  0  0  0  0  0  0  0  0
  1 12  1  0
  1  6  1  0
  3  2  2  0
  4  3  1  0
  5  6  1  0
  5  4  2  0
  6  7  2  0
  7  2  1  0
  8  4  1  0
  8  9  1  0
 10  9  1  0
 11 10  1  0
 11  9  1  0
 13 12  1  0
 14 13  2  0
 15 14  1  0
 16 15  1  0
 16 17  2  0
 17 13  1  0
 18 16  1  0
 19 18  2  0
 20 21  2  0
 20 19  1  0
 21 22  1  0
 22 18  1  0
 23 27  1  0
 23 21  1  0
 24 23  2  0
 25 24  1  0
 25 26  1  0
 26 27  2  0
  1 28  1  0
  1 29  1  0
  2 30  1  0
  3 31  1  0
  8 32  1  0
  8 33  1  0
  9 34  1  0
 10 35  1  0
 10 36  1  0
 11 37  1  0
 11 38  1  0
 12 39  1  0
 12 40  1  0
 19 41  1  0
 20 42  1  0
 26 43  1  0
M  ISO  8  28   8  29   8  30  14  31  14  32   8  33   8  34  13  35  13
M  ISO  8  36  13  37  13  38  13  39   8  40   8  41  14  42  14  43  14
M  END
>  <minimizedAffinity>  (1) 
-5.18849039

>  <minimizedRMSD>  (1) 
1.33883774

$$$$
