
     RDKit          3D

 51 55  0  0  0  0  0  0  0  0999 V2000
   38.2200   25.2660   35.0260 C   0  0  0  0  0  0  0  0  0  0  0  0
   38.0810   24.0530   38.5420 C   0  0  0  0  0  0  0  0  0  0  0  0
   39.1110   23.1140   38.5480 C   0  0  0  0  0  0  0  0  0  0  0  0
   39.8240   22.9140   37.3670 C   0  0  0  0  0  0  0  0  0  0  0  0
   39.4830   23.6390   36.2770 N   0  0  0  0  0  0  0  0  0  0  0  0
   38.4700   24.5520   36.3030 C   0  0  0  0  0  0  0  0  0  0  0  0
   37.7760   24.7590   37.4220 N   0  0  0  0  0  0  0  0  0  0  0  0
   40.9050   21.9280   37.3710 C   0  0  0  0  0  0  0  0  0  0  0  0
   42.0960   22.3580   36.6010 C   0  0  0  0  0  0  0  0  0  0  0  0
   42.4300   21.8060   35.2780 C   0  0  0  0  0  0  0  0  0  0  0  0
   43.1890   21.2840   36.4920 C   0  0  0  0  0  0  0  0  0  0  0  0
   37.2740   26.4090   35.2520 C   0  0  0  0  0  0  0  0  0  0  0  0
   37.1290   27.2420   34.0130 C   0  0  0  0  0  0  0  0  0  0  0  0
   36.2600   28.2600   33.9020 N   0  0  0  0  0  0  0  0  0  0  0  0
   36.3710   28.7820   32.7170 O   0  0  0  0  0  0  0  0  0  0  0  0
   37.2800   28.1540   32.0290 C   0  0  0  0  0  0  0  0  0  0  0  0
   37.7680   27.1810   32.8330 N   0  0  0  0  0  0  0  0  0  0  0  0
   37.7700   28.3440   30.6870 C   0  0  0  0  0  0  0  0  0  0  0  0
   38.5640   27.5450   29.8810 C   0  0  0  0  0  0  0  0  0  0  0  0
   38.7360   28.2120   28.6690 C   0  0  0  0  0  0  0  0  0  0  0  0
   38.0270   29.3990   28.8040 C   0  0  0  0  0  0  0  0  0  0  0  0
   37.4820   29.4310   29.9960 O   0  0  0  0  0  0  0  0  0  0  0  0
   37.9130   30.4640   27.7500 C   0  0  0  0  0  0  0  0  0  0  0  0
   37.2930   31.7100   28.2940 C   0  0  0  0  0  0  0  0  0  0  0  0
   38.3930   32.6650   28.6220 C   0  0  0  0  0  0  0  0  0  0  0  0
   39.6710   32.0960   28.0960 C   0  0  0  0  0  0  0  0  0  0  0  0
   39.2630   30.9100   27.2620 C   0  0  0  0  0  0  0  0  0  0  0  0
   37.7801   24.5678   34.2986 H   0  0  0  0  0  0  0  0  0  0  0  0
   39.1725   25.6575   34.6394 H   0  0  0  0  0  0  0  0  0  0  0  0
   37.5037   24.2259   39.4622 H   0  0  0  0  0  0  0  0  0  0  0  0
   39.3543   22.5470   39.4586 H   0  0  0  0  0  0  0  0  0  0  0  0
   41.2093   21.7483   38.4127 H   0  0  0  0  0  0  0  0  0  0  0  0
   40.5172   21.0186   36.8887 H   0  0  0  0  0  0  0  0  0  0  0  0
   41.9933   23.3980   36.9442 H   0  0  0  0  0  0  0  0  0  0  0  0
   42.9487   22.4352   34.5397 H   0  0  0  0  0  0  0  0  0  0  0  0
   41.8474   21.3318   34.4745 H   0  0  0  0  0  0  0  0  0  0  0  0
   43.0081   20.2655   36.8661 H   0  0  0  0  0  0  0  0  0  0  0  0
   44.2446   21.1951   36.7882 H   0  0  0  0  0  0  0  0  0  0  0  0
   36.2886   26.0096   35.5339 H   0  0  0  0  0  0  0  0  0  0  0  0
   37.6776   27.0435   36.0548 H   0  0  0  0  0  0  0  0  0  0  0  0
   38.9824   26.5635   30.1484 H   0  0  0  0  0  0  0  0  0  0  0  0
   39.3096   27.8717   27.7942 H   0  0  0  0  0  0  0  0  0  0  0  0
   37.3098   30.0088   26.9507 H   0  0  0  0  0  0  0  0  0  0  0  0
   36.6246   32.1540   27.5416 H   0  0  0  0  0  0  0  0  0  0  0  0
   36.7023   31.4826   29.1936 H   0  0  0  0  0  0  0  0  0  0  0  0
   38.1954   33.6385   28.1495 H   0  0  0  0  0  0  0  0  0  0  0  0
   38.4595   32.8120   29.7101 H   0  0  0  0  0  0  0  0  0  0  0  0
   40.1983   32.8383   27.4787 H   0  0  0  0  0  0  0  0  0  0  0  0
   40.3580   31.8112   28.9065 H   0  0  0  0  0  0  0  0  0  0  0  0
   39.9940   30.0967   27.3811 H   0  0  0  0  0  0  0  0  0  0  0  0
   39.2227   31.1787   26.1961 H   0  0  0  0  0  0  0  0  0  0  0  0
  1 12  1  0
  1  6  1  0
  2  3  2  0
  4  8  1  0
  4  3  1  0
  5  6  1  0
  5  4  2  0
  6  7  2  0
  7  2  1  0
  9  8  1  0
 10 11  1  0
 10  9  1  0
 11  9  1  0
 13 12  1  0
 14 13  2  0
 15 14  1  0
 16 15  1  0
 16 17  2  0
 17 13  1  0
 18 16  1  0
 19 18  2  0
 20 21  2  0
 20 19  1  0
 21 22  1  0
 22 18  1  0
 23 24  1  0
 23 21  1  0
 24 25  1  0
 26 25  1  0
 27 23  1  0
 27 26  1  0
  1 28  1  0
  1 29  1  0
  2 30  1  0
  3 31  1  0
  8 32  1  0
  8 33  1  0
  9 34  1  0
 10 35  1  0
 10 36  1  0
 11 37  1  0
 11 38  1  0
 12 39  1  0
 12 40  1  0
 19 41  1  0
 20 42  1  0
 23 43  1  0
 24 44  1  0
 24 45  1  0
 25 46  1  0
 25 47  1  0
 26 48  1  0
 26 49  1  0
 27 50  1  0
 27 51  1  0
M  ISO  8  28   8  29   8  30  14  31  14  32   8  33   8  34  13  35  13
M  ISO  8  36  13  37  13  38  13  39   8  40   8  41  14  42  14  43  13
M  ISO  8  44  13  45  13  46  13  47  13  48  13  49  13  50  13  51  13
M  END
>  <minimizedAffinity>  (1) 
-5.12368011

>  <minimizedRMSD>  (1) 
0.79051131

$$$$
