
     RDKit          3D

 39 42  0  0  0  0  0  0  0  0999 V2000
   38.2220   25.3350   34.9670 C   0  0  0  0  0  0  0  0  0  0  0  0
   37.9540   24.2160   38.5040 C   0  0  0  0  0  0  0  0  0  0  0  0
   38.9590   23.2410   38.5600 C   0  0  0  0  0  0  0  0  0  0  0  0
   39.6990   22.9880   37.4020 C   0  0  0  0  0  0  0  0  0  0  0  0
   39.4130   23.6940   36.2810 N   0  0  0  0  0  0  0  0  0  0  0  0
   38.4200   24.6430   36.2660 C   0  0  0  0  0  0  0  0  0  0  0  0
   37.7010   24.9030   37.3580 N   0  0  0  0  0  0  0  0  0  0  0  0
   40.7420   21.9730   37.4690 C   0  0  0  0  0  0  0  0  0  0  0  0
   41.8850   22.2460   36.5610 C   0  0  0  0  0  0  0  0  0  0  0  0
   42.1800   21.4220   35.3680 C   0  0  0  0  0  0  0  0  0  0  0  0
   42.9730   21.1560   36.6200 C   0  0  0  0  0  0  0  0  0  0  0  0
   37.2990   26.5020   35.1300 C   0  0  0  0  0  0  0  0  0  0  0  0
   37.1680   27.2710   33.8480 C   0  0  0  0  0  0  0  0  0  0  0  0
   36.2640   28.2370   33.6410 N   0  0  0  0  0  0  0  0  0  0  0  0
   36.4010   28.7130   32.4330 O   0  0  0  0  0  0  0  0  0  0  0  0
   37.3630   28.1030   31.8230 C   0  0  0  0  0  0  0  0  0  0  0  0
   37.8680   27.1840   32.6970 N   0  0  0  0  0  0  0  0  0  0  0  0
   37.9190   28.2450   30.4890 C   0  0  0  0  0  0  0  0  0  0  0  0
   38.9080   27.5310   29.8320 C   0  0  0  0  0  0  0  0  0  0  0  0
   39.0510   28.0890   28.5620 C   0  0  0  0  0  0  0  0  0  0  0  0
   38.1110   29.1340   28.5350 C   0  0  0  0  0  0  0  0  0  0  0  0
   37.4680   29.1990   29.6710 O   0  0  0  0  0  0  0  0  0  0  0  0
   37.9880   29.9130   27.3910 O   0  0  0  0  0  0  0  0  0  0  0  0
   37.7887   24.6291   34.2432 H   0  0  0  0  0  0  0  0  0  0  0  0
   39.1952   25.6989   34.6058 H   0  0  0  0  0  0  0  0  0  0  0  0
   37.3586   24.4296   39.4039 H   0  0  0  0  0  0  0  0  0  0  0  0
   39.1599   22.6897   39.4904 H   0  0  0  0  0  0  0  0  0  0  0  0
   41.1191   21.9272   38.5013 H   0  0  0  0  0  0  0  0  0  0  0  0
   40.2921   21.0212   37.1501 H   0  0  0  0  0  0  0  0  0  0  0  0
   41.7830   23.3349   36.6788 H   0  0  0  0  0  0  0  0  0  0  0  0
   41.4436   20.6813   35.0229 H   0  0  0  0  0  0  0  0  0  0  0  0
   42.4491   21.6525   34.3266 H   0  0  0  0  0  0  0  0  0  0  0  0
   44.0358   21.4347   36.6738 H   0  0  0  0  0  0  0  0  0  0  0  0
   43.1783   20.2798   37.2525 H   0  0  0  0  0  0  0  0  0  0  0  0
   36.3068   26.1357   35.4321 H   0  0  0  0  0  0  0  0  0  0  0  0
   37.7145   27.1713   35.8977 H   0  0  0  0  0  0  0  0  0  0  0  0
   39.4758   26.6806   30.2375 H   0  0  0  0  0  0  0  0  0  0  0  0
   39.7420   27.7815   27.7632 H   0  0  0  0  0  0  0  0  0  0  0  0
   37.3287   30.6510   27.3632 H   0  0  0  0  0  0  0  0  0  0  0  0
  1 12  1  0
  1  6  1  0
  2  3  2  0
  4  8  1  0
  4  3  1  0
  5  4  2  0
  6  5  1  0
  6  7  2  0
  7  2  1  0
  9 11  1  0
  9  8  1  0
 10  9  1  0
 10 11  1  0
 13 12  1  0
 14 13  2  0
 15 14  1  0
 16 15  1  0
 16 17  2  0
 17 13  1  0
 18 16  1  0
 19 18  2  0
 20 19  1  0
 21 20  2  0
 21 22  1  0
 22 18  1  0
 23 21  1  0
  1 24  1  0
  1 25  1  0
  2 26  1  0
  3 27  1  0
  8 28  1  0
  8 29  1  0
  9 30  1  0
 10 31  1  0
 10 32  1  0
 11 33  1  0
 11 34  1  0
 12 35  1  0
 12 36  1  0
 19 37  1  0
 20 38  1  0
 23 39  1  0
M  ISO  8  24   8  25   8  26  14  27  14  28   8  29   8  30  13  31  13
M  ISO  8  32  13  33  13  34  13  35   8  36   8  37  14  38  14  39   3
M  END
>  <minimizedAffinity>  (1) 
-5.13669252

>  <minimizedRMSD>  (1) 
0.274579793

$$$$
