
     RDKit          3D

 41 44  0  0  0  0  0  0  0  0999 V2000
   37.8830   25.4790   34.9420 C   0  0  0  0  0  0  0  0  0  0  0  0
   38.1470   24.0990   38.3840 C   0  0  0  0  0  0  0  0  0  0  0  0
   39.0790   23.0720   38.1910 C   0  0  0  0  0  0  0  0  0  0  0  0
   39.5870   22.8800   36.9110 C   0  0  0  0  0  0  0  0  0  0  0  0
   39.1570   23.6920   35.9130 N   0  0  0  0  0  0  0  0  0  0  0  0
   38.2450   24.6850   36.1340 C   0  0  0  0  0  0  0  0  0  0  0  0
   37.7470   24.8860   37.3510 N   0  0  0  0  0  0  0  0  0  0  0  0
   40.5630   21.8050   36.7130 C   0  0  0  0  0  0  0  0  0  0  0  0
   41.9220   22.1600   37.2210 C   0  0  0  0  0  0  0  0  0  0  0  0
   42.8200   23.0610   36.4880 C   0  0  0  0  0  0  0  0  0  0  0  0
   43.0620   21.5790   36.3670 C   0  0  0  0  0  0  0  0  0  0  0  0
   37.4580   26.8600   35.3520 C   0  0  0  0  0  0  0  0  0  0  0  0
   37.0300   27.6650   34.1630 C   0  0  0  0  0  0  0  0  0  0  0  0
   35.9730   28.4950   34.1620 N   0  0  0  0  0  0  0  0  0  0  0  0
   35.8580   29.0490   32.9870 O   0  0  0  0  0  0  0  0  0  0  0  0
   36.8000   28.6210   32.2000 C   0  0  0  0  0  0  0  0  0  0  0  0
   37.5490   27.7490   32.9190 N   0  0  0  0  0  0  0  0  0  0  0  0
   37.1180   28.9160   30.8190 C   0  0  0  0  0  0  0  0  0  0  0  0
   37.5250   28.1050   29.7730 C   0  0  0  0  0  0  0  0  0  0  0  0
   37.6910   28.9050   28.6590 C   0  0  0  0  0  0  0  0  0  0  0  0
   37.3690   30.1940   29.1010 C   0  0  0  0  0  0  0  0  0  0  0  0
   37.0380   30.1680   30.3650 O   0  0  0  0  0  0  0  0  0  0  0  0
   37.4050   31.4160   28.2240 C   0  0  0  0  0  0  0  0  0  0  0  0
   37.4560   31.0310   26.9070 F   0  0  0  0  0  0  0  0  0  0  0  0
   36.3010   32.1900   28.4590 F   0  0  0  0  0  0  0  0  0  0  0  0
   38.5710   32.1390   28.4580 F   0  0  0  0  0  0  0  0  0  0  0  0
   37.0543   24.9850   34.4136 H   0  0  0  0  0  0  0  0  0  0  0  0
   38.7578   25.5532   34.2792 H   0  0  0  0  0  0  0  0  0  0  0  0
   37.7320   24.2715   39.3880 H   0  0  0  0  0  0  0  0  0  0  0  0
   39.4002   22.4351   39.0284 H   0  0  0  0  0  0  0  0  0  0  0  0
   40.2117   20.9083   37.2446 H   0  0  0  0  0  0  0  0  0  0  0  0
   40.6483   21.6287   35.6306 H   0  0  0  0  0  0  0  0  0  0  0  0
   41.5891   22.1612   38.2694 H   0  0  0  0  0  0  0  0  0  0  0  0
   42.4389   23.6221   35.6220 H   0  0  0  0  0  0  0  0  0  0  0  0
   43.4475   23.9167   36.7779 H   0  0  0  0  0  0  0  0  0  0  0  0
   42.8404   21.0540   35.4261 H   0  0  0  0  0  0  0  0  0  0  0  0
   43.9101   20.8992   36.5361 H   0  0  0  0  0  0  0  0  0  0  0  0
   36.6165   26.7832   36.0563 H   0  0  0  0  0  0  0  0  0  0  0  0
   38.3131   27.3634   35.8268 H   0  0  0  0  0  0  0  0  0  0  0  0
   37.6872   27.0181   29.8206 H   0  0  0  0  0  0  0  0  0  0  0  0
   38.0057   28.5981   27.6506 H   0  0  0  0  0  0  0  0  0  0  0  0
  1 12  1  0
  1  6  1  0
  3  2  2  0
  4  3  1  0
  5  6  1  0
  5  4  2  0
  6  7  2  0
  7  2  1  0
  8  4  1  0
  8  9  1  0
 10  9  1  0
 11 10  1  0
 11  9  1  0
 13 12  1  0
 14 13  2  0
 15 14  1  0
 16 17  2  0
 16 15  1  0
 17 13  1  0
 18 16  1  0
 19 18  2  0
 20 21  2  0
 20 19  1  0
 21 22  1  0
 22 18  1  0
 23 26  1  0
 23 25  1  0
 23 21  1  0
 24 23  1  0
  1 27  1  0
  1 28  1  0
  2 29  1  0
  3 30  1  0
  8 31  1  0
  8 32  1  0
  9 33  1  0
 10 34  1  0
 10 35  1  0
 11 36  1  0
 11 37  1  0
 12 38  1  0
 12 39  1  0
 19 40  1  0
 20 41  1  0
M  ISO  8  27   8  28   8  29  14  30  14  31   8  32   8  33  13  34  13
M  ISO  7  35  13  36  13  37  13  38   8  39   8  40  14  41  14
M  END
>  <minimizedAffinity>  (1) 
-5.09401035

>  <minimizedRMSD>  (1) 
1.43383586

$$$$
