
     RDKit          3D

 44 47  0  0  0  0  0  0  0  0999 V2000
   38.2320   25.3800   34.9540 C   0  0  0  0  0  0  0  0  0  0  0  0
   37.9990   24.1550   38.4660 C   0  0  0  0  0  0  0  0  0  0  0  0
   39.0050   23.1870   38.4770 C   0  0  0  0  0  0  0  0  0  0  0  0
   39.7340   22.9720   37.3050 C   0  0  0  0  0  0  0  0  0  0  0  0
   39.4330   23.7110   36.2110 N   0  0  0  0  0  0  0  0  0  0  0  0
   38.4380   24.6550   36.2340 C   0  0  0  0  0  0  0  0  0  0  0  0
   37.7420   24.8640   37.3450 N   0  0  0  0  0  0  0  0  0  0  0  0
   40.7860   21.9570   37.3200 C   0  0  0  0  0  0  0  0  0  0  0  0
   42.0180   22.4140   36.6060 C   0  0  0  0  0  0  0  0  0  0  0  0
   42.4210   21.8450   35.2960 C   0  0  0  0  0  0  0  0  0  0  0  0
   43.1080   21.3270   36.5310 C   0  0  0  0  0  0  0  0  0  0  0  0
   37.2500   26.5030   35.1590 C   0  0  0  0  0  0  0  0  0  0  0  0
   37.1060   27.3150   33.9140 C   0  0  0  0  0  0  0  0  0  0  0  0
   36.2190   28.3040   33.7680 N   0  0  0  0  0  0  0  0  0  0  0  0
   36.3330   28.8210   32.5780 O   0  0  0  0  0  0  0  0  0  0  0  0
   37.2630   28.2140   31.9220 C   0  0  0  0  0  0  0  0  0  0  0  0
   37.7630   27.2620   32.7440 N   0  0  0  0  0  0  0  0  0  0  0  0
   37.7910   28.3880   30.5740 C   0  0  0  0  0  0  0  0  0  0  0  0
   38.6110   27.6190   29.7970 C   0  0  0  0  0  0  0  0  0  0  0  0
   38.7840   28.2810   28.5930 C   0  0  0  0  0  0  0  0  0  0  0  0
   38.0400   29.4490   28.7020 C   0  0  0  0  0  0  0  0  0  0  0  0
   37.4820   29.4700   29.8660 O   0  0  0  0  0  0  0  0  0  0  0  0
   37.9210   30.4880   27.6440 C   0  0  0  0  0  0  0  0  0  0  0  0
   37.1700   31.6880   28.1250 C   0  0  0  0  0  0  0  0  0  0  0  0
   37.8387   24.6837   34.1986 H   0  0  0  0  0  0  0  0  0  0  0  0
   39.1919   25.7936   34.6111 H   0  0  0  0  0  0  0  0  0  0  0  0
   37.4112   24.3418   39.3768 H   0  0  0  0  0  0  0  0  0  0  0  0
   39.2185   22.6073   39.3871 H   0  0  0  0  0  0  0  0  0  0  0  0
   41.0450   21.7298   38.3647 H   0  0  0  0  0  0  0  0  0  0  0  0
   40.4043   21.0655   36.8009 H   0  0  0  0  0  0  0  0  0  0  0  0
   41.9024   23.4542   36.9447 H   0  0  0  0  0  0  0  0  0  0  0  0
   42.9811   22.4665   34.5819 H   0  0  0  0  0  0  0  0  0  0  0  0
   41.8754   21.3699   34.4674 H   0  0  0  0  0  0  0  0  0  0  0  0
   42.9024   20.3094   36.8945 H   0  0  0  0  0  0  0  0  0  0  0  0
   44.1496   21.2311   36.8714 H   0  0  0  0  0  0  0  0  0  0  0  0
   36.2709   26.0810   35.4297 H   0  0  0  0  0  0  0  0  0  0  0  0
   37.6218   27.1542   35.9638 H   0  0  0  0  0  0  0  0  0  0  0  0
   39.0528   26.6512   30.0767 H   0  0  0  0  0  0  0  0  0  0  0  0
   39.3840   27.9514   27.7320 H   0  0  0  0  0  0  0  0  0  0  0  0
   37.3906   30.0584   26.7814 H   0  0  0  0  0  0  0  0  0  0  0  0
   38.9354   30.8091   27.3651 H   0  0  0  0  0  0  0  0  0  0  0  0
   37.1628   31.6995   29.2249 H   0  0  0  0  0  0  0  0  0  0  0  0
   37.6587   32.6002   27.7520 H   0  0  0  0  0  0  0  0  0  0  0  0
   36.1360   31.6472   27.7520 H   0  0  0  0  0  0  0  0  0  0  0  0
  1 12  1  0
  1  6  1  0
  2  3  2  0
  4  8  1  0
  4  3  1  0
  5  6  1  0
  5  4  2  0
  6  7  2  0
  7  2  1  0
  9  8  1  0
 10 11  1  0
 10  9  1  0
 11  9  1  0
 13 12  1  0
 14 13  2  0
 15 14  1  0
 16 15  1  0
 16 17  2  0
 17 13  1  0
 18 16  1  0
 19 18  2  0
 20 21  2  0
 20 19  1  0
 21 22  1  0
 22 18  1  0
 23 24  1  0
 23 21  1  0
  1 25  1  0
  1 26  1  0
  2 27  1  0
  3 28  1  0
  8 29  1  0
  8 30  1  0
  9 31  1  0
 10 32  1  0
 10 33  1  0
 11 34  1  0
 11 35  1  0
 12 36  1  0
 12 37  1  0
 19 38  1  0
 20 39  1  0
 23 40  1  0
 23 41  1  0
 24 42  1  0
 24 43  1  0
 24 44  1  0
M  ISO  8  25   8  26   8  27  14  28  14  29   8  30   8  31  13  32  13
M  ISO  8  33  13  34  13  35  13  36   8  37   8  38  14  39  14  40   8
M  ISO  4  41   8  42   8  43   8  44   8
M  END
>  <minimizedAffinity>  (1) 
-4.89778185

>  <minimizedRMSD>  (1) 
0.480995119

$$$$
