
     RDKit          3D

 28 29  0  0  0  0  0  0  0  0999 V2000
   39.8420   22.9250   37.3810 C   0  0  0  0  0  0  0  0  0  0  0  0
   38.9950   23.1690   38.4610 C   0  0  0  0  0  0  0  0  0  0  0  0
   37.9920   24.1480   38.3200 C   0  0  0  0  0  0  0  0  0  0  0  0
   37.9120   24.7950   37.1350 N   0  0  0  0  0  0  0  0  0  0  0  0
   38.7590   24.5220   36.1110 C   0  0  0  0  0  0  0  0  0  0  0  0
   39.7210   23.5970   36.2200 N   0  0  0  0  0  0  0  0  0  0  0  0
   38.5610   25.2780   34.9220 N   0  0  0  0  0  0  0  0  0  0  0  0
   38.9550   26.6400   34.8220 C   0  0  0  0  0  0  0  0  0  0  0  0
   39.5250   27.0820   33.5220 C   0  0  0  0  0  0  0  0  0  0  0  0
   39.1960   26.2370   32.3350 C   0  0  0  0  0  0  0  0  0  0  0  0
   39.0480   24.7610   32.6640 C   0  0  0  0  0  0  0  0  0  0  0  0
   37.9450   24.7130   33.7320 C   0  0  0  0  0  0  0  0  0  0  0  0
   40.9080   21.9030   37.4940 C   0  0  0  0  0  0  0  0  0  0  0  0
   39.1073   22.6099   39.4016 H   0  0  0  0  0  0  0  0  0  0  0  0
   37.2995   24.3778   39.1432 H   0  0  0  0  0  0  0  0  0  0  0  0
   38.0676   27.2582   35.0230 H   0  0  0  0  0  0  0  0  0  0  0  0
   39.7734   26.7556   35.5479 H   0  0  0  0  0  0  0  0  0  0  0  0
   39.1561   28.0989   33.3224 H   0  0  0  0  0  0  0  0  0  0  0  0
   40.6163   27.0106   33.6402 H   0  0  0  0  0  0  0  0  0  0  0  0
   40.0009   26.3495   31.5937 H   0  0  0  0  0  0  0  0  0  0  0  0
   38.2244   26.5820   31.9515 H   0  0  0  0  0  0  0  0  0  0  0  0
   38.7497   24.1918   31.7713 H   0  0  0  0  0  0  0  0  0  0  0  0
   39.9899   24.3146   33.0155 H   0  0  0  0  0  0  0  0  0  0  0  0
   37.0775   25.3138   33.4214 H   0  0  0  0  0  0  0  0  0  0  0  0
   37.5719   23.6920   33.9004 H   0  0  0  0  0  0  0  0  0  0  0  0
   41.1148   21.7047   38.5560 H   0  0  0  0  0  0  0  0  0  0  0  0
   40.5789   20.9743   37.0049 H   0  0  0  0  0  0  0  0  0  0  0  0
   41.8220   22.2709   37.0049 H   0  0  0  0  0  0  0  0  0  0  0  0
  1 13  1  0
  1  2  2  0
  3  2  1  0
  4  3  2  0
  5  6  2  0
  5  4  1  0
  6  1  1  0
  7  5  1  0
  8  7  1  0
  9  8  1  0
 10 11  1  0
 10  9  1  0
 11 12  1  0
 12  7  1  0
  2 14  1  0
  3 15  1  0
  8 16  1  0
  8 17  1  0
  9 18  1  0
  9 19  1  0
 10 20  1  0
 10 21  1  0
 11 22  1  0
 11 23  1  0
 12 24  1  0
 12 25  1  0
 13 26  1  0
 13 27  1  0
 13 28  1  0
M  ISO  8  14  14  15  14  16  13  17  13  18  13  19  13  20  13  21  13
M  ISO  7  22  13  23  13  24  13  25  13  26   8  27   8  28   8
M  END
>  <minimizedAffinity>  (1) 
-4.20156145

>  <minimizedRMSD>  (1) 
3.05740595

$$$$
