
     RDKit          3D

 34 36  0  0  0  0  0  0  0  0999 V2000
   39.8030   22.9160   37.3060 C   0  0  0  0  0  0  0  0  0  0  0  0
   38.9910   23.1980   38.4020 C   0  0  0  0  0  0  0  0  0  0  0  0
   38.0170   24.2150   38.2900 C   0  0  0  0  0  0  0  0  0  0  0  0
   37.9410   24.8550   37.1040 N   0  0  0  0  0  0  0  0  0  0  0  0
   38.7430   24.5550   36.0650 C   0  0  0  0  0  0  0  0  0  0  0  0
   39.6770   23.5930   36.1430 N   0  0  0  0  0  0  0  0  0  0  0  0
   38.5430   25.3160   34.8800 N   0  0  0  0  0  0  0  0  0  0  0  0
   38.9860   26.6720   34.7790 C   0  0  0  0  0  0  0  0  0  0  0  0
   39.5480   27.1000   33.4680 C   0  0  0  0  0  0  0  0  0  0  0  0
   39.1640   26.2700   32.2900 C   0  0  0  0  0  0  0  0  0  0  0  0
   38.9730   24.8040   32.6120 C   0  0  0  0  0  0  0  0  0  0  0  0
   37.8830   24.7840   33.7050 C   0  0  0  0  0  0  0  0  0  0  0  0
   40.8270   21.8600   37.3960 C   0  0  0  0  0  0  0  0  0  0  0  0
   42.1020   22.2320   36.8740 N   0  0  0  0  0  0  0  0  0  0  0  0
   42.9030   21.2860   36.3040 C   0  0  0  0  0  0  0  0  0  0  0  0
   44.0450   21.8250   35.8790 N   0  0  0  0  0  0  0  0  0  0  0  0
   43.9670   23.1490   36.1860 C   0  0  0  0  0  0  0  0  0  0  0  0
   42.7800   23.3390   36.7810 N   0  0  0  0  0  0  0  0  0  0  0  0
   39.1065   22.6369   39.3411 H   0  0  0  0  0  0  0  0  0  0  0  0
   37.3530   24.4728   39.1283 H   0  0  0  0  0  0  0  0  0  0  0  0
   38.1252   27.3204   34.9994 H   0  0  0  0  0  0  0  0  0  0  0  0
   39.8208   26.7553   35.4905 H   0  0  0  0  0  0  0  0  0  0  0  0
   39.2120   28.1300   33.2779 H   0  0  0  0  0  0  0  0  0  0  0  0
   40.6386   26.9928   33.5636 H   0  0  0  0  0  0  0  0  0  0  0  0
   39.9553   26.3581   31.5310 H   0  0  0  0  0  0  0  0  0  0  0  0
   38.1946   26.6486   31.9337 H   0  0  0  0  0  0  0  0  0  0  0  0
   38.6400   24.2510   31.7213 H   0  0  0  0  0  0  0  0  0  0  0  0
   39.9058   24.3250   32.9444 H   0  0  0  0  0  0  0  0  0  0  0  0
   37.0308   25.4170   33.4168 H   0  0  0  0  0  0  0  0  0  0  0  0
   37.4750   23.7763   33.8727 H   0  0  0  0  0  0  0  0  0  0  0  0
   40.9534   21.5921   38.4554 H   0  0  0  0  0  0  0  0  0  0  0  0
   40.4683   21.0204   36.7824 H   0  0  0  0  0  0  0  0  0  0  0  0
   42.6413   20.2219   36.2082 H   0  0  0  0  0  0  0  0  0  0  0  0
   44.7302   23.9152   35.9849 H   0  0  0  0  0  0  0  0  0  0  0  0
  1 13  1  0
  1  2  2  0
  3  2  1  0
  4  3  2  0
  5  6  2  0
  5  4  1  0
  6  1  1  0
  7  5  1  0
  8  7  1  0
  9  8  1  0
 10 11  1  0
 10  9  1  0
 11 12  1  0
 12  7  1  0
 14 13  1  0
 15 14  1  0
 16 17  1  0
 16 15  2  0
 17 18  2  0
 18 14  1  0
  2 19  1  0
  3 20  1  0
  8 21  1  0
  8 22  1  0
  9 23  1  0
  9 24  1  0
 10 25  1  0
 10 26  1  0
 11 27  1  0
 11 28  1  0
 12 29  1  0
 12 30  1  0
 13 31  1  0
 13 32  1  0
 15 33  1  0
 17 34  1  0
M  ISO  8  19  14  20  14  21  13  22  13  23  13  24  13  25  13  26  13
M  ISO  8  27  13  28  13  29  13  30  13  31   8  32   8  33  14  34  14
M  END
>  <minimizedAffinity>  (1) 
-4.54241467

>  <minimizedRMSD>  (1) 
1.07257843

$$$$
