
     RDKit          3D

 40 42  0  0  0  0  0  0  0  0999 V2000
   39.9790   23.2290   36.9950 C   0  0  0  0  0  0  0  0  0  0  0  0
   39.0960   23.1020   38.0750 C   0  0  0  0  0  0  0  0  0  0  0  0
   37.8060   23.6670   37.9760 C   0  0  0  0  0  0  0  0  0  0  0  0
   37.4950   24.3080   36.8250 N   0  0  0  0  0  0  0  0  0  0  0  0
   38.3730   24.4080   35.8080 C   0  0  0  0  0  0  0  0  0  0  0  0
   39.5910   23.8790   35.8900 N   0  0  0  0  0  0  0  0  0  0  0  0
   37.9280   25.1070   34.6520 N   0  0  0  0  0  0  0  0  0  0  0  0
   37.8310   26.5350   34.6300 C   0  0  0  0  0  0  0  0  0  0  0  0
   38.2080   27.2150   33.3630 C   0  0  0  0  0  0  0  0  0  0  0  0
   38.1910   26.3690   32.1240 C   0  0  0  0  0  0  0  0  0  0  0  0
   38.5470   24.9150   32.3800 C   0  0  0  0  0  0  0  0  0  0  0  0
   37.5460   24.4370   33.4320 C   0  0  0  0  0  0  0  0  0  0  0  0
   41.3290   22.6520   37.0810 C   0  0  0  0  0  0  0  0  0  0  0  0
   41.4510   21.3320   36.5130 N   0  0  0  0  0  0  0  0  0  0  0  0
   41.9360   21.4200   35.1490 C   0  0  0  0  0  0  0  0  0  0  0  0
   43.4320   21.6440   35.2300 C   0  0  0  0  0  0  0  0  0  0  0  0
   43.7950   20.9040   36.4890 C   0  0  0  0  0  0  0  0  0  0  0  0
   42.5040   20.6380   37.2210 C   0  0  0  0  0  0  0  0  0  0  0  0
   39.4033   22.5696   38.9872 H   0  0  0  0  0  0  0  0  0  0  0  0
   37.0826   23.5895   38.8011 H   0  0  0  0  0  0  0  0  0  0  0  0
   36.7869   26.8007   34.8518 H   0  0  0  0  0  0  0  0  0  0  0  0
   38.5643   26.8838   35.3720 H   0  0  0  0  0  0  0  0  0  0  0  0
   37.5075   28.0490   33.2090 H   0  0  0  0  0  0  0  0  0  0  0  0
   39.2563   27.5209   33.4950 H   0  0  0  0  0  0  0  0  0  0  0  0
   38.9159   26.7844   31.4085 H   0  0  0  0  0  0  0  0  0  0  0  0
   37.1629   26.3871   31.7332 H   0  0  0  0  0  0  0  0  0  0  0  0
   38.4477   24.3252   31.4568 H   0  0  0  0  0  0  0  0  0  0  0  0
   39.5870   24.7998   32.7194 H   0  0  0  0  0  0  0  0  0  0  0  0
   36.5216   24.7154   33.1439 H   0  0  0  0  0  0  0  0  0  0  0  0
   37.5586   23.3427   33.5434 H   0  0  0  0  0  0  0  0  0  0  0  0
   42.0230   23.3202   36.5502 H   0  0  0  0  0  0  0  0  0  0  0  0
   41.5609   22.5551   38.1519 H   0  0  0  0  0  0  0  0  0  0  0  0
   41.4547   22.2617   34.6295 H   0  0  0  0  0  0  0  0  0  0  0  0
   41.7041   20.5029   34.5877 H   0  0  0  0  0  0  0  0  0  0  0  0
   43.9470   21.2200   34.3553 H   0  0  0  0  0  0  0  0  0  0  0  0
   43.7201   22.7055   35.2424 H   0  0  0  0  0  0  0  0  0  0  0  0
   44.2930   19.9550   36.2411 H   0  0  0  0  0  0  0  0  0  0  0  0
   44.4879   21.4922   37.1086 H   0  0  0  0  0  0  0  0  0  0  0  0
   42.5732   21.0132   38.2527 H   0  0  0  0  0  0  0  0  0  0  0  0
   42.2971   19.5584   37.2612 H   0  0  0  0  0  0  0  0  0  0  0  0
  1 13  1  0
  1  2  2  0
  3  2  1  0
  4  3  2  0
  5  6  2  0
  5  4  1  0
  6  1  1  0
  7  5  1  0
  8  7  1  0
  9  8  1  0
 10 11  1  0
 10  9  1  0
 11 12  1  0
 12  7  1  0
 14 13  1  0
 14 18  1  0
 15 16  1  0
 15 14  1  0
 16 17  1  0
 17 18  1  0
  2 19  1  0
  3 20  1  0
  8 21  1  0
  8 22  1  0
  9 23  1  0
  9 24  1  0
 10 25  1  0
 10 26  1  0
 11 27  1  0
 11 28  1  0
 12 29  1  0
 12 30  1  0
 13 31  1  0
 13 32  1  0
 15 33  1  0
 15 34  1  0
 16 35  1  0
 16 36  1  0
 17 37  1  0
 17 38  1  0
 18 39  1  0
 18 40  1  0
M  ISO  8  19  14  20  14  21  13  22  13  23  13  24  13  25  13  26  13
M  ISO  8  27  13  28  13  29  13  30  13  31   8  32   8  33  13  34  13
M  ISO  6  35  13  36  13  37  13  38  13  39  13  40  13
M  END
>  <minimizedAffinity>  (1) 
-4.1558671

>  <minimizedRMSD>  (1) 
1.29878557

$$$$
