
     RDKit          3D

 29 30  0  0  0  0  0  0  0  0999 V2000
   39.8370   22.9240   37.3570 C   0  0  0  0  0  0  0  0  0  0  0  0
   38.9930   23.1680   38.4340 C   0  0  0  0  0  0  0  0  0  0  0  0
   37.9990   24.1730   38.3040 C   0  0  0  0  0  0  0  0  0  0  0  0
   37.9300   24.8380   37.1300 N   0  0  0  0  0  0  0  0  0  0  0  0
   38.7730   24.5650   36.1090 C   0  0  0  0  0  0  0  0  0  0  0  0
   39.7190   23.6220   36.2110 N   0  0  0  0  0  0  0  0  0  0  0  0
   38.6030   25.3330   34.9190 N   0  0  0  0  0  0  0  0  0  0  0  0
   39.0540   26.6670   34.8340 C   0  0  0  0  0  0  0  0  0  0  0  0
   39.6060   27.1080   33.5250 C   0  0  0  0  0  0  0  0  0  0  0  0
   39.2800   26.2530   32.3390 C   0  0  0  0  0  0  0  0  0  0  0  0
   39.0440   24.8050   32.6590 C   0  0  0  0  0  0  0  0  0  0  0  0
   37.9580   24.7830   33.7330 C   0  0  0  0  0  0  0  0  0  0  0  0
   40.8880   21.9010   37.4670 C   0  0  0  0  0  0  0  0  0  0  0  0
   42.3350   22.4880   36.5420 S   0  0  0  0  0  0  0  0  0  0  0  0
   39.0932   22.5945   39.3673 H   0  0  0  0  0  0  0  0  0  0  0  0
   37.3094   24.4022   39.1298 H   0  0  0  0  0  0  0  0  0  0  0  0
   38.2030   27.3215   35.0734 H   0  0  0  0  0  0  0  0  0  0  0  0
   39.8975   26.7302   35.5372 H   0  0  0  0  0  0  0  0  0  0  0  0
   39.2216   28.1188   33.3239 H   0  0  0  0  0  0  0  0  0  0  0  0
   40.6988   27.0478   33.6352 H   0  0  0  0  0  0  0  0  0  0  0  0
   40.1186   26.3155   31.6299 H   0  0  0  0  0  0  0  0  0  0  0  0
   38.3364   26.6391   31.9259 H   0  0  0  0  0  0  0  0  0  0  0  0
   38.7056   24.2655   31.7621 H   0  0  0  0  0  0  0  0  0  0  0  0
   39.9648   24.3139   33.0068 H   0  0  0  0  0  0  0  0  0  0  0  0
   37.1020   25.4052   33.4326 H   0  0  0  0  0  0  0  0  0  0  0  0
   37.5615   23.7714   33.9048 H   0  0  0  0  0  0  0  0  0  0  0  0
   41.1551   21.7514   38.5235 H   0  0  0  0  0  0  0  0  0  0  0  0
   40.5347   20.9426   37.0588 H   0  0  0  0  0  0  0  0  0  0  0  0
   43.3091   22.8832   37.4206 H   0  0  0  0  0  0  0  0  0  0  0  0
  1 13  1  0
  1  2  2  0
  3  2  1  0
  4  3  2  0
  5  6  2  0
  5  4  1  0
  6  1  1  0
  7  5  1  0
  8  7  1  0
  9  8  1  0
 10 11  1  0
 10  9  1  0
 11 12  1  0
 12  7  1  0
 14 13  1  0
  2 15  1  0
  3 16  1  0
  8 17  1  0
  8 18  1  0
  9 19  1  0
  9 20  1  0
 10 21  1  0
 10 22  1  0
 11 23  1  0
 11 24  1  0
 12 25  1  0
 12 26  1  0
 13 27  1  0
 13 28  1  0
 14 29  1  0
M  ISO  8  15  14  16  14  17  13  18  13  19  13  20  13  21  13  22  13
M  ISO  7  23  13  24  13  25  13  26  13  27   8  28   8  29  11
M  END
>  <minimizedAffinity>  (1) 
-4.07342911

>  <minimizedRMSD>  (1) 
0.810153425

$$$$
