
     RDKit          3D

 26 27  0  0  1  0  0  0  0  0999 V2000
   37.9240   24.0360   38.0700 C   0  0  0  0  0  0  0  0  0  0  0  0
   37.7150   24.5360   36.7840 C   0  0  0  0  0  0  0  0  0  0  0  0
   38.5920   24.2030   35.7730 C   0  0  0  0  0  0  0  0  0  0  0  0
   39.6460   23.3860   36.0760 N   0  0  0  0  0  0  0  0  0  0  0  0
   39.8250   22.9180   37.3280 C   0  0  0  0  0  0  0  0  0  0  0  0
   38.9830   23.2330   38.3130 N   0  0  0  0  0  0  0  0  0  0  0  0
   38.5340   24.6130   34.4260 N   0  0  0  0  0  0  0  0  0  0  0  0
   39.1520   25.8160   33.8790 C   0  0  1  0  0  0  0  0  0  0  0  0
   38.0670   26.7150   33.3090 C   0  0  0  0  0  0  0  0  0  0  0  0
   36.8710   25.9990   33.1690 O   0  0  0  0  0  0  0  0  0  0  0  0
   37.1030   24.8190   32.4620 C   0  0  0  0  0  0  0  0  0  0  0  0
   37.8270   23.8620   33.3880 C   0  0  0  0  0  0  0  0  0  0  0  0
   40.0280   26.5340   34.8620 C   0  0  0  0  0  0  0  0  0  0  0  0
   40.6520   27.5500   34.1690 F   0  0  0  0  0  0  0  0  0  0  0  0
   41.0180   25.6540   35.2510 F   0  0  0  0  0  0  0  0  0  0  0  0
   39.3250   27.0650   35.9200 F   0  0  0  0  0  0  0  0  0  0  0  0
   37.2292   24.2947   38.8827 H   0  0  0  0  0  0  0  0  0  0  0  0
   36.8561   25.1916   36.5780 H   0  0  0  0  0  0  0  0  0  0  0  0
   40.6828   22.2632   37.5411 H   0  0  0  0  0  0  0  0  0  0  0  0
   39.8342   25.5132   33.0710 H   0  0  0  0  0  0  0  0  0  0  0  0
   37.9047   27.5646   33.9885 H   0  0  0  0  0  0  0  0  0  0  0  0
   38.3850   27.0802   32.3213 H   0  0  0  0  0  0  0  0  0  0  0  0
   36.1466   24.3796   32.1423 H   0  0  0  0  0  0  0  0  0  0  0  0
   37.7080   25.0195   31.5655 H   0  0  0  0  0  0  0  0  0  0  0  0
   37.0968   23.1876   33.8591 H   0  0  0  0  0  0  0  0  0  0  0  0
   38.5536   23.2754   32.8067 H   0  0  0  0  0  0  0  0  0  0  0  0
  1  6  2  0
  2  1  1  0
  3  4  1  0
  3  2  2  0
  4  5  2  0
  5  6  1  0
  7  3  1  0
  8  7  1  0
  8 13  1  0
  9  8  1  0
 10  9  1  0
 11 10  1  0
 11 12  1  0
 12  7  1  0
 13 15  1  0
 13 16  1  0
 14 13  1  0
  1 17  1  0
  2 18  1  0
  5 19  1  0
  8 20  1  6
  9 21  1  0
  9 22  1  0
 11 23  1  0
 11 24  1  0
 12 25  1  0
 12 26  1  0
M  ISO  8  17  14  18  14  19  14  20  13  21  13  22  13  23  13  24  13
M  ISO  2  25  13  26  13
M  END
>  <minimizedAffinity>  (1) 
-4.77980137

>  <minimizedRMSD>  (1) 
1.62956917

$$$$
