
     RDKit          3D

 30 32  0  0  1  0  0  0  0  0999 V2000
   37.6590   23.3970   38.3290 C   0  0  0  0  0  0  0  0  0  0  0  0
   37.5590   24.2020   37.1950 C   0  0  0  0  0  0  0  0  0  0  0  0
   38.6520   24.3390   36.3610 C   0  0  0  0  0  0  0  0  0  0  0  0
   39.7660   23.6630   36.7150 N   0  0  0  0  0  0  0  0  0  0  0  0
   39.8650   22.8900   37.8000 C   0  0  0  0  0  0  0  0  0  0  0  0
   38.8160   22.7540   38.6090 N   0  0  0  0  0  0  0  0  0  0  0  0
   38.7350   25.1120   35.1770 N   0  0  0  0  0  0  0  0  0  0  0  0
   39.1550   26.5150   35.1570 C   0  0  2  0  0  0  0  0  0  0  0  0
   38.0330   27.3570   34.5990 C   0  0  0  0  0  0  0  0  0  0  0  0
   37.0550   26.5400   34.0110 O   0  0  0  0  0  0  0  0  0  0  0  0
   37.6500   25.6840   33.0840 C   0  0  0  0  0  0  0  0  0  0  0  0
   38.4180   24.6160   33.8580 C   0  0  0  0  0  0  0  0  0  0  0  0
   40.4360   26.7390   34.4900 C   0  0  0  0  0  0  0  0  0  0  0  0
   40.5580   27.3940   33.2830 C   0  0  0  0  0  0  0  0  0  0  0  0
   41.8450   27.4480   32.9210 N   0  0  0  0  0  0  0  0  0  0  0  0
   42.5470   26.8410   33.8710 C   0  0  0  0  0  0  0  0  0  0  0  0
   41.6940   26.4140   34.8180 N   0  0  0  0  0  0  0  0  0  0  0  0
   36.7937   23.2842   38.9987 H   0  0  0  0  0  0  0  0  0  0  0  0
   36.6179   24.7236   36.9663 H   0  0  0  0  0  0  0  0  0  0  0  0
   40.8075   22.3689   38.0239 H   0  0  0  0  0  0  0  0  0  0  0  0
   39.3507   26.8298   36.1927 H   0  0  0  0  0  0  0  0  0  0  0  0
   37.5772   27.9394   35.4133 H   0  0  0  0  0  0  0  0  0  0  0  0
   38.4408   28.0334   33.8334 H   0  0  0  0  0  0  0  0  0  0  0  0
   38.3411   26.2501   32.4422 H   0  0  0  0  0  0  0  0  0  0  0  0
   36.8847   25.2188   32.4454 H   0  0  0  0  0  0  0  0  0  0  0  0
   37.7994   23.7106   33.9456 H   0  0  0  0  0  0  0  0  0  0  0  0
   39.3486   24.3739   33.3238 H   0  0  0  0  0  0  0  0  0  0  0  0
   39.7211   27.8106   32.7033 H   0  0  0  0  0  0  0  0  0  0  0  0
   43.6391   26.7101   33.8811 H   0  0  0  0  0  0  0  0  0  0  0  0
   41.9680   25.9094   35.6731 H   0  0  0  0  0  0  0  0  0  0  0  0
  1  6  2  0
  2  1  1  0
  3  4  1  0
  3  2  2  0
  4  5  2  0
  5  6  1  0
  7  3  1  0
  8  7  1  0
  9  8  1  0
 10  9  1  0
 11 12  1  0
 11 10  1  0
 12  7  1  0
 13 17  1  0
 13  8  1  0
 14 13  2  0
 15 14  1  0
 15 16  2  0
 16 17  1  0
  1 18  1  0
  2 19  1  0
  5 20  1  0
  8 21  1  1
  9 22  1  0
  9 23  1  0
 11 24  1  0
 11 25  1  0
 12 26  1  0
 12 27  1  0
 14 28  1  0
 16 29  1  0
 17 30  1  0
M  ISO  8  18  14  19  14  20  14  21  13  22  13  23  13  24  13  25  13
M  ISO  5  26  13  27  13  28  14  29  14  30   9
M  END
>  <minimizedAffinity>  (1) 
-4.40907383

>  <minimizedRMSD>  (1) 
1.17724431

$$$$
