
     RDKit          3D

 30 32  0  0  1  0  0  0  0  0999 V2000
   38.1020   23.6970   38.3250 C   0  0  0  0  0  0  0  0  0  0  0  0
   37.8190   24.4490   37.1660 C   0  0  0  0  0  0  0  0  0  0  0  0
   38.7240   24.3830   36.1240 C   0  0  0  0  0  0  0  0  0  0  0  0
   39.8280   23.6010   36.2720 N   0  0  0  0  0  0  0  0  0  0  0  0
   40.0730   22.8940   37.3860 C   0  0  0  0  0  0  0  0  0  0  0  0
   39.2170   22.9390   38.4110 N   0  0  0  0  0  0  0  0  0  0  0  0
   38.6370   25.0560   34.8710 N   0  0  0  0  0  0  0  0  0  0  0  0
   39.1960   26.3800   34.6120 C   0  0  2  0  0  0  0  0  0  0  0  0
   38.0520   27.3050   34.2170 C   0  0  0  0  0  0  0  0  0  0  0  0
   36.9050   26.5710   33.9280 O   0  0  0  0  0  0  0  0  0  0  0  0
   37.1900   25.5780   32.9960 C   0  0  0  0  0  0  0  0  0  0  0  0
   37.9730   24.4810   33.7040 C   0  0  0  0  0  0  0  0  0  0  0  0
   40.1610   26.2940   33.4700 C   0  0  0  0  0  0  0  0  0  0  0  0
   40.1990   27.1500   32.3520 C   0  0  0  0  0  0  0  0  0  0  0  0
   41.1820   26.8600   31.4420 C   0  0  0  0  0  0  0  0  0  0  0  0
   42.0540   25.8230   31.6120 C   0  0  0  0  0  0  0  0  0  0  0  0
   41.4960   25.1060   33.2290 S   0  0  0  0  0  0  0  0  0  0  0  0
   37.4028   23.7282   39.1736 H   0  0  0  0  0  0  0  0  0  0  0  0
   36.9109   25.0656   37.0942 H   0  0  0  0  0  0  0  0  0  0  0  0
   40.9804   22.2761   37.4555 H   0  0  0  0  0  0  0  0  0  0  0  0
   39.7140   26.7577   35.5059 H   0  0  0  0  0  0  0  0  0  0  0  0
   37.8405   27.9935   35.0484 H   0  0  0  0  0  0  0  0  0  0  0  0
   38.3465   27.8698   33.3202 H   0  0  0  0  0  0  0  0  0  0  0  0
   37.7919   25.9969   32.1761 H   0  0  0  0  0  0  0  0  0  0  0  0
   36.2594   25.1718   32.5729 H   0  0  0  0  0  0  0  0  0  0  0  0
   37.2858   23.6842   34.0247 H   0  0  0  0  0  0  0  0  0  0  0  0
   38.7215   24.0546   33.0200 H   0  0  0  0  0  0  0  0  0  0  0  0
   39.4954   27.9851   32.2197 H   0  0  0  0  0  0  0  0  0  0  0  0
   41.2718   27.4856   30.5417 H   0  0  0  0  0  0  0  0  0  0  0  0
   42.8761   25.4967   30.9580 H   0  0  0  0  0  0  0  0  0  0  0  0
  1  6  2  0
  2  1  1  0
  3  4  1  0
  3  2  2  0
  4  5  2  0
  5  6  1  0
  7  3  1  0
  8  7  1  0
  9  8  1  0
 10  9  1  0
 11 12  1  0
 11 10  1  0
 12  7  1  0
 13  8  1  0
 14 13  2  0
 15 16  2  0
 15 14  1  0
 16 17  1  0
 17 13  1  0
  1 18  1  0
  2 19  1  0
  5 20  1  0
  8 21  1  1
  9 22  1  0
  9 23  1  0
 11 24  1  0
 11 25  1  0
 12 26  1  0
 12 27  1  0
 14 28  1  0
 15 29  1  0
 16 30  1  0
M  ISO  8  18  14  19  14  20  14  21  13  22  13  23  13  24  13  25  13
M  ISO  5  26  13  27  13  28  14  29  14  30  14
M  END
>  <minimizedAffinity>  (1) 
-4.0672307

>  <minimizedRMSD>  (1) 
1.4331125

$$$$
