
     RDKit          3D

 30 32  0  0  1  0  0  0  0  0999 V2000
   38.0440   23.7540   38.3410 C   0  0  0  0  0  0  0  0  0  0  0  0
   37.8070   24.4750   37.1680 C   0  0  0  0  0  0  0  0  0  0  0  0
   38.7140   24.3760   36.1320 C   0  0  0  0  0  0  0  0  0  0  0  0
   39.8060   23.5790   36.2910 N   0  0  0  0  0  0  0  0  0  0  0  0
   40.0170   22.8920   37.4270 C   0  0  0  0  0  0  0  0  0  0  0  0
   39.1520   22.9700   38.4500 N   0  0  0  0  0  0  0  0  0  0  0  0
   38.6360   25.0350   34.8720 N   0  0  0  0  0  0  0  0  0  0  0  0
   39.2070   26.3600   34.6100 C   0  0  2  0  0  0  0  0  0  0  0  0
   38.0970   27.2820   34.1680 C   0  0  0  0  0  0  0  0  0  0  0  0
   36.9340   26.5660   33.8940 O   0  0  0  0  0  0  0  0  0  0  0  0
   37.2120   25.5520   32.9790 C   0  0  0  0  0  0  0  0  0  0  0  0
   37.9890   24.4800   33.7030 C   0  0  0  0  0  0  0  0  0  0  0  0
   40.3680   26.2970   33.7120 C   0  0  0  0  0  0  0  0  0  0  0  0
   41.1690   27.4120   33.2290 C   0  0  0  0  0  0  0  0  0  0  0  0
   41.7240   26.5730   34.3670 C   0  0  0  0  0  0  0  0  0  0  0  0
   37.3339   23.8198   39.1785 H   0  0  0  0  0  0  0  0  0  0  0  0
   36.9140   25.1100   37.0717 H   0  0  0  0  0  0  0  0  0  0  0  0
   40.9107   22.2574   37.5193 H   0  0  0  0  0  0  0  0  0  0  0  0
   39.6318   26.7859   35.5309 H   0  0  0  0  0  0  0  0  0  0  0  0
   37.8923   28.0084   34.9683 H   0  0  0  0  0  0  0  0  0  0  0  0
   38.4149   27.7994   33.2508 H   0  0  0  0  0  0  0  0  0  0  0  0
   37.8110   25.9518   32.1475 H   0  0  0  0  0  0  0  0  0  0  0  0
   36.2795   25.1394   32.5666 H   0  0  0  0  0  0  0  0  0  0  0  0
   37.3011   23.6799   34.0139 H   0  0  0  0  0  0  0  0  0  0  0  0
   38.7560   24.0742   33.0270 H   0  0  0  0  0  0  0  0  0  0  0  0
   39.8521   25.5067   33.1470 H   0  0  0  0  0  0  0  0  0  0  0  0
   41.6352   27.3570   32.2342 H   0  0  0  0  0  0  0  0  0  0  0  0
   40.9814   28.4870   33.0902 H   0  0  0  0  0  0  0  0  0  0  0  0
   41.7783   26.9818   35.3868 H   0  0  0  0  0  0  0  0  0  0  0  0
   42.6451   26.0030   34.5586 H   0  0  0  0  0  0  0  0  0  0  0  0
  1  6  2  0
  2  1  1  0
  3  4  1  0
  3  2  2  0
  4  5  2  0
  5  6  1  0
  7  3  1  0
  8  7  1  0
  9  8  1  0
 10  9  1  0
 11 12  1  0
 11 10  1  0
 12  7  1  0
 13 15  1  0
 13  8  1  0
 14 13  1  0
 14 15  1  0
  1 16  1  0
  2 17  1  0
  5 18  1  0
  8 19  1  1
  9 20  1  0
  9 21  1  0
 11 22  1  0
 11 23  1  0
 12 24  1  0
 12 25  1  0
 13 26  1  0
 14 27  1  0
 14 28  1  0
 15 29  1  0
 15 30  1  0
M  ISO  8  16  14  17  14  18  14  19  13  20  13  21  13  22  13  23  13
M  ISO  7  24  13  25  13  26  13  27  13  28  13  29  13  30  13
M  END
>  <minimizedAffinity>  (1) 
-4.20653772

>  <minimizedRMSD>  (1) 
1.15266895

$$$$
