
     RDKit          3D

 25 26  0  0  1  0  0  0  0  0999 V2000
   37.9610   23.4920   37.7890 C   0  0  0  0  0  0  0  0  0  0  0  0
   37.6010   24.3990   36.7860 C   0  0  0  0  0  0  0  0  0  0  0  0
   38.5340   24.7180   35.8200 C   0  0  0  0  0  0  0  0  0  0  0  0
   39.7600   24.1290   35.8950 N   0  0  0  0  0  0  0  0  0  0  0  0
   40.0940   23.2630   36.8570 C   0  0  0  0  0  0  0  0  0  0  0  0
   39.1900   22.9440   37.8070 N   0  0  0  0  0  0  0  0  0  0  0  0
   38.3640   25.6070   34.7320 N   0  0  0  0  0  0  0  0  0  0  0  0
   38.6450   27.0330   34.7730 C   0  0  1  0  0  0  0  0  0  0  0  0
   37.3750   27.8040   34.4740 C   0  0  0  0  0  0  0  0  0  0  0  0
   36.4030   26.9450   33.9640 O   0  0  0  0  0  0  0  0  0  0  0  0
   36.9180   26.2400   32.8800 C   0  0  0  0  0  0  0  0  0  0  0  0
   37.8790   25.2000   33.4170 C   0  0  0  0  0  0  0  0  0  0  0  0
   38.9570   27.3130   36.1740 N   0  0  0  0  0  0  0  0  0  0  0  0
   37.2332   23.2247   38.5693 H   0  0  0  0  0  0  0  0  0  0  0  0
   36.5969   24.8478   36.7678 H   0  0  0  0  0  0  0  0  0  0  0  0
   41.0980   22.8138   36.8742 H   0  0  0  0  0  0  0  0  0  0  0  0
   39.4389   27.3053   34.0620 H   0  0  0  0  0  0  0  0  0  0  0  0
   37.0028   28.2657   35.4005 H   0  0  0  0  0  0  0  0  0  0  0  0
   37.5935   28.5836   33.7294 H   0  0  0  0  0  0  0  0  0  0  0  0
   37.4494   26.9273   32.2053 H   0  0  0  0  0  0  0  0  0  0  0  0
   36.1065   25.7575   32.3156 H   0  0  0  0  0  0  0  0  0  0  0  0
   37.3609   24.2334   33.5020 H   0  0  0  0  0  0  0  0  0  0  0  0
   38.7320   25.1042   32.7290 H   0  0  0  0  0  0  0  0  0  0  0  0
   38.3379   26.7574   36.7813 H   0  0  0  0  0  0  0  0  0  0  0  0
   39.9382   27.0635   36.3637 H   0  0  0  0  0  0  0  0  0  0  0  0
  1  6  2  0
  2  1  1  0
  3  4  1  0
  3  2  2  0
  4  5  2  0
  5  6  1  0
  7  8  1  0
  7  3  1  0
  8 13  1  0
  9  8  1  0
 10  9  1  0
 11 12  1  0
 11 10  1  0
 12  7  1  0
  1 14  1  0
  2 15  1  0
  5 16  1  0
  8 17  1  6
  9 18  1  0
  9 19  1  0
 11 20  1  0
 11 21  1  0
 12 22  1  0
 12 23  1  0
 13 24  1  0
 13 25  1  0
M  ISO  8  14  14  15  14  16  14  17  13  18  13  19  13  20  13  21  13
M  ISO  4  22  13  23  13  24   5  25   5
M  END
>  <minimizedAffinity>  (1) 
-3.81879377

>  <minimizedRMSD>  (1) 
1.0002073

$$$$
