
     RDKit          3D

 30 32  0  0  1  0  0  0  0  0999 V2000
   38.2070   25.1520   34.1470 N   0  0  0  0  0  0  0  0  0  0  0  0
   39.2290   24.7960   33.1810 C   0  0  1  0  0  0  0  0  0  0  0  0
   40.0730   26.0250   32.8680 C   0  0  0  0  0  0  0  0  0  0  0  0
   39.4520   27.1750   33.3870 O   0  0  0  0  0  0  0  0  0  0  0  0
   38.1440   27.2440   32.9000 C   0  0  0  0  0  0  0  0  0  0  0  0
   37.3400   26.2050   33.6360 C   0  0  0  0  0  0  0  0  0  0  0  0
   38.0250   24.4230   37.8060 C   0  0  0  0  0  0  0  0  0  0  0  0
   38.2120   25.1900   36.6500 C   0  0  0  0  0  0  0  0  0  0  0  0
   38.0640   24.5630   35.4230 C   0  0  0  0  0  0  0  0  0  0  0  0
   37.7450   23.2420   35.4220 N   0  0  0  0  0  0  0  0  0  0  0  0
   37.5690   22.5240   36.5330 C   0  0  0  0  0  0  0  0  0  0  0  0
   37.7130   23.1280   37.7360 N   0  0  0  0  0  0  0  0  0  0  0  0
   40.1230   23.9000   33.9060 N   0  0  0  0  0  0  0  0  0  0  0  0
   41.3990   24.0920   34.4900 C   0  0  0  0  0  0  0  0  0  0  0  0
   42.4690   23.3190   34.8390 N   0  0  0  0  0  0  0  0  0  0  0  0
   43.4090   24.0670   35.3360 O   0  0  0  0  0  0  0  0  0  0  0  0
   43.0100   25.3280   35.3390 C   0  0  0  0  0  0  0  0  0  0  0  0
   41.7510   25.3450   34.8100 N   0  0  0  0  0  0  0  0  0  0  0  0
   38.7867   24.3771   32.2651 H   0  0  0  0  0  0  0  0  0  0  0  0
   41.0677   25.9103   33.3233 H   0  0  0  0  0  0  0  0  0  0  0  0
   40.1737   26.1279   31.7775 H   0  0  0  0  0  0  0  0  0  0  0  0
   37.7255   28.2445   33.0840 H   0  0  0  0  0  0  0  0  0  0  0  0
   38.1206   27.0603   31.8157 H   0  0  0  0  0  0  0  0  0  0  0  0
   36.8167   26.6824   34.4776 H   0  0  0  0  0  0  0  0  0  0  0  0
   36.6144   25.7596   32.9395 H   0  0  0  0  0  0  0  0  0  0  0  0
   38.1376   24.8977   38.7919 H   0  0  0  0  0  0  0  0  0  0  0  0
   38.4686   26.2578   36.7136 H   0  0  0  0  0  0  0  0  0  0  0  0
   37.3106   21.4565   36.4722 H   0  0  0  0  0  0  0  0  0  0  0  0
   39.7557   22.9438   34.0140 H   0  0  0  0  0  0  0  0  0  0  0  0
   43.5821   26.1960   35.6984 H   0  0  0  0  0  0  0  0  0  0  0  0
  1  9  1  0
  2 13  1  0
  2  1  1  0
  3  2  1  0
  3  4  1  0
  5  4  1  0
  5  6  1  0
  6  1  1  0
  8  7  2  0
  9  8  1  0
 10  9  2  0
 10 11  1  0
 11 12  2  0
 12  7  1  0
 13 14  1  0
 14 18  1  0
 14 15  2  0
 15 16  1  0
 16 17  1  0
 18 17  2  0
  2 19  1  6
  3 20  1  0
  3 21  1  0
  5 22  1  0
  5 23  1  0
  6 24  1  0
  6 25  1  0
  7 26  1  0
  8 27  1  0
 11 28  1  0
 13 29  1  0
 17 30  1  0
M  ISO  8  19  13  20  13  21  13  22  13  23  13  24  13  25  13  26  14
M  ISO  3  27  14  28  14  30  14
M  END
>  <minimizedAffinity>  (1) 
-3.69024324

>  <minimizedRMSD>  (1) 
3.86749887

$$$$
