
     RDKit          3D

 28 29  0  0  1  0  0  0  0  0999 V2000
   38.5910   24.3690   34.6020 N   0  0  0  0  0  0  0  0  0  0  0  0
   39.2020   25.5990   34.0920 C   0  0  1  0  0  0  0  0  0  0  0  0
   38.1200   26.4410   33.4460 C   0  0  0  0  0  0  0  0  0  0  0  0
   36.9550   25.7090   33.2740 O   0  0  0  0  0  0  0  0  0  0  0  0
   37.2510   24.5450   32.5800 C   0  0  0  0  0  0  0  0  0  0  0  0
   37.9640   23.6010   33.5300 C   0  0  0  0  0  0  0  0  0  0  0  0
   37.7940   23.6850   38.1930 C   0  0  0  0  0  0  0  0  0  0  0  0
   37.6040   24.1420   36.8840 C   0  0  0  0  0  0  0  0  0  0  0  0
   38.6050   23.9760   35.9560 C   0  0  0  0  0  0  0  0  0  0  0  0
   39.7490   23.3640   36.3760 N   0  0  0  0  0  0  0  0  0  0  0  0
   39.9250   22.9290   37.6300 C   0  0  0  0  0  0  0  0  0  0  0  0
   38.9520   23.0880   38.5380 N   0  0  0  0  0  0  0  0  0  0  0  0
   39.6260   26.3220   35.2770 N   0  0  0  0  0  0  0  0  0  0  0  0
   38.7690   27.4110   35.6360 C   0  0  0  0  0  0  0  0  0  0  0  0
   40.0130   25.3920   33.3782 H   0  0  0  0  0  0  0  0  0  0  0  0
   37.9080   27.3084   34.0884 H   0  0  0  0  0  0  0  0  0  0  0  0
   38.4756   26.7697   32.4583 H   0  0  0  0  0  0  0  0  0  0  0  0
   36.3222   24.0796   32.2184 H   0  0  0  0  0  0  0  0  0  0  0  0
   37.8898   24.7691   31.7130 H   0  0  0  0  0  0  0  0  0  0  0  0
   37.2372   22.8965   33.9607 H   0  0  0  0  0  0  0  0  0  0  0  0
   38.7357   23.0423   32.9803 H   0  0  0  0  0  0  0  0  0  0  0  0
   36.9976   23.8131   38.9409 H   0  0  0  0  0  0  0  0  0  0  0  0
   36.6604   24.6306   36.5994 H   0  0  0  0  0  0  0  0  0  0  0  0
   40.8686   22.4409   37.9152 H   0  0  0  0  0  0  0  0  0  0  0  0
   39.6559   25.6605   36.0659 H   0  0  0  0  0  0  0  0  0  0  0  0
   38.7103   27.4855   36.7319 H   0  0  0  0  0  0  0  0  0  0  0  0
   39.1749   28.3476   35.2260 H   0  0  0  0  0  0  0  0  0  0  0  0
   37.7633   27.2367   35.2260 H   0  0  0  0  0  0  0  0  0  0  0  0
  1  9  1  0
  2  1  1  0
  2 13  1  0
  3  2  1  0
  4  3  1  0
  5  4  1  0
  5  6  1  0
  6  1  1  0
  7 12  2  0
  8  7  1  0
  9 10  1  0
  9  8  2  0
 10 11  2  0
 11 12  1  0
 13 14  1  0
  2 15  1  6
  3 16  1  0
  3 17  1  0
  5 18  1  0
  5 19  1  0
  6 20  1  0
  6 21  1  0
  7 22  1  0
  8 23  1  0
 11 24  1  0
 13 25  1  0
 14 26  1  0
 14 27  1  0
 14 28  1  0
M  ISO  8  15  13  16  13  17  13  18  13  19  13  20  13  21  13  22  14
M  ISO  6  23  14  24  14  25   5  26   8  27   8  28   8
M  END
>  <minimizedAffinity>  (1) 
-3.76561379

>  <minimizedRMSD>  (1) 
1.29968715

$$$$
