
     RDKit          3D

 32 34  0  0  1  0  0  0  0  0999 V2000
   37.6350   25.4330   33.9950 N   0  0  0  0  0  0  0  0  0  0  0  0
   36.7750   25.5320   32.8290 C   0  0  1  0  0  0  0  0  0  0  0  0
   36.9240   26.9130   32.2110 C   0  0  0  0  0  0  0  0  0  0  0  0
   37.5990   27.7650   33.0930 O   0  0  0  0  0  0  0  0  0  0  0  0
   36.9550   27.7520   34.3250 C   0  0  0  0  0  0  0  0  0  0  0  0
   37.2690   26.4200   34.9900 C   0  0  0  0  0  0  0  0  0  0  0  0
   40.9350   23.6970   34.2870 C   0  0  0  0  0  0  0  0  0  0  0  0
   40.0410   24.7560   34.1240 C   0  0  0  0  0  0  0  0  0  0  0  0
   38.6930   24.4970   34.1440 C   0  0  0  0  0  0  0  0  0  0  0  0
   38.2820   23.2030   34.3230 N   0  0  0  0  0  0  0  0  0  0  0  0
   39.1620   22.1980   34.4790 C   0  0  0  0  0  0  0  0  0  0  0  0
   40.4810   22.4440   34.4600 N   0  0  0  0  0  0  0  0  0  0  0  0
   37.3600   24.6070   31.8470 N   0  0  0  0  0  0  0  0  0  0  0  0
   39.2690   24.4250   28.9420 N   0  0  0  0  0  0  0  0  0  0  0  0
   38.4250   23.9320   29.8300 N   0  0  0  0  0  0  0  0  0  0  0  0
   38.2420   24.9050   30.7710 C   0  0  0  0  0  0  0  0  0  0  0  0
   39.0100   26.0260   30.4310 C   0  0  0  0  0  0  0  0  0  0  0  0
   39.6420   25.6680   29.2610 C   0  0  0  0  0  0  0  0  0  0  0  0
   35.7261   25.3285   33.0907 H   0  0  0  0  0  0  0  0  0  0  0  0
   37.4951   26.8326   31.2743 H   0  0  0  0  0  0  0  0  0  0  0  0
   35.9249   27.3253   32.0063 H   0  0  0  0  0  0  0  0  0  0  0  0
   37.3222   28.5796   34.9497 H   0  0  0  0  0  0  0  0  0  0  0  0
   35.8695   27.8750   34.1965 H   0  0  0  0  0  0  0  0  0  0  0  0
   36.3817   26.0704   35.5381 H   0  0  0  0  0  0  0  0  0  0  0  0
   38.1118   26.5572   35.6835 H   0  0  0  0  0  0  0  0  0  0  0  0
   42.0180   23.8890   34.2738 H   0  0  0  0  0  0  0  0  0  0  0  0
   40.4106   25.7822   33.9817 H   0  0  0  0  0  0  0  0  0  0  0  0
   38.7989   21.1697   34.6228 H   0  0  0  0  0  0  0  0  0  0  0  0
   37.0977   23.6164   31.9514 H   0  0  0  0  0  0  0  0  0  0  0  0
   39.5981   23.9161   28.1092 H   0  0  0  0  0  0  0  0  0  0  0  0
   39.0902   26.9781   30.9760 H   0  0  0  0  0  0  0  0  0  0  0  0
   40.3364   26.2985   28.6863 H   0  0  0  0  0  0  0  0  0  0  0  0
  1  9  1  0
  1  6  1  0
  2  1  1  0
  3  2  1  0
  3  4  1  0
  4  5  1  0
  5  6  1  0
  7 12  2  0
  8  9  2  0
  8  7  1  0
  9 10  1  0
 10 11  2  0
 12 11  1  0
 13  2  1  0
 14 18  1  0
 14 15  1  0
 15 16  2  0
 16 13  1  0
 17 16  1  0
 18 17  2  0
  2 19  1  1
  3 20  1  0
  3 21  1  0
  5 22  1  0
  5 23  1  0
  6 24  1  0
  6 25  1  0
  7 26  1  0
  8 27  1  0
 11 28  1  0
 13 29  1  0
 14 30  1  0
 17 31  1  0
 18 32  1  0
M  ISO  8  19  13  20  13  21  13  22  13  23  13  24  13  25  13  26  14
M  ISO  5  27  14  28  14  30   9  31  14  32  14
M  END
>  <minimizedAffinity>  (1) 
-3.47299695

>  <minimizedRMSD>  (1) 
5.37401247

$$$$
