
     RDKit          3D

 29 30  0  0  1  0  0  0  0  0999 V2000
   38.8590   24.8520   34.5670 N   0  0  0  0  0  0  0  0  0  0  0  0
   39.9680   25.5920   33.9860 C   0  0  1  0  0  0  0  0  0  0  0  0
   39.4970   26.9720   33.5610 C   0  0  0  0  0  0  0  0  0  0  0  0
   38.1040   27.0050   33.5640 O   0  0  0  0  0  0  0  0  0  0  0  0
   37.5920   25.9590   32.8150 C   0  0  0  0  0  0  0  0  0  0  0  0
   37.7800   24.6850   33.6030 C   0  0  0  0  0  0  0  0  0  0  0  0
   38.1190   24.1710   38.1630 C   0  0  0  0  0  0  0  0  0  0  0  0
   38.0070   24.7830   36.9070 C   0  0  0  0  0  0  0  0  0  0  0  0
   38.8280   24.3580   35.8870 C   0  0  0  0  0  0  0  0  0  0  0  0
   39.7030   23.3660   36.1580 N   0  0  0  0  0  0  0  0  0  0  0  0
   39.8090   22.7850   37.3540 C   0  0  0  0  0  0  0  0  0  0  0  0
   39.0100   23.1880   38.3680 N   0  0  0  0  0  0  0  0  0  0  0  0
   40.9050   25.7920   35.0720 N   0  0  0  0  0  0  0  0  0  0  0  0
   42.2550   25.4470   34.7810 C   0  0  0  0  0  0  0  0  0  0  0  0
   42.6610   25.2530   33.4310 N   0  0  0  0  0  0  0  0  0  0  0  0
   43.1490   25.2950   35.6760 O   0  0  0  0  0  0  0  0  0  0  0  0
   40.3908   25.0578   33.1223 H   0  0  0  0  0  0  0  0  0  0  0  0
   39.8674   27.1909   32.5487 H   0  0  0  0  0  0  0  0  0  0  0  0
   39.8847   27.7256   34.2623 H   0  0  0  0  0  0  0  0  0  0  0  0
   36.5215   26.1254   32.6243 H   0  0  0  0  0  0  0  0  0  0  0  0
   38.1124   25.8907   31.8483 H   0  0  0  0  0  0  0  0  0  0  0  0
   36.8483   24.4455   34.1365 H   0  0  0  0  0  0  0  0  0  0  0  0
   38.0347   23.8671   32.9130 H   0  0  0  0  0  0  0  0  0  0  0  0
   37.4706   24.4993   38.9887 H   0  0  0  0  0  0  0  0  0  0  0  0
   37.2765   25.5881   36.7394 H   0  0  0  0  0  0  0  0  0  0  0  0
   40.5430   21.9817   37.5148 H   0  0  0  0  0  0  0  0  0  0  0  0
   40.6150   26.1580   35.9901 H   0  0  0  0  0  0  0  0  0  0  0  0
   43.6372   25.0033   33.2176 H   0  0  0  0  0  0  0  0  0  0  0  0
   41.9786   25.3623   32.6672 H   0  0  0  0  0  0  0  0  0  0  0  0
  1  9  1  0
  2  1  1  0
  2 13  1  0
  3  4  1  0
  3  2  1  0
  5  4  1  0
  5  6  1  0
  6  1  1  0
  7 12  2  0
  8  7  1  0
  9 10  1  0
  9  8  2  0
 10 11  2  0
 11 12  1  0
 14 13  1  0
 14 16  2  0
 15 14  1  0
  2 17  1  6
  3 18  1  0
  3 19  1  0
  5 20  1  0
  5 21  1  0
  6 22  1  0
  6 23  1  0
  7 24  1  0
  8 25  1  0
 11 26  1  0
 13 27  1  0
 15 28  1  0
 15 29  1  0
M  ISO  8  17  13  18  13  19  13  20  13  21  13  22  13  23  13  24  14
M  ISO  2  25  14  26  14
M  END
>  <minimizedAffinity>  (1) 
-3.84330654

>  <minimizedRMSD>  (1) 
2.06964779

$$$$
