
     RDKit          3D

 45 48  0  0  1  0  0  0  0  0999 V2000
   38.5250   24.9790   34.7010 N   0  0  0  0  0  0  0  0  0  0  0  0
   37.8530   25.8190   33.7390 C   0  0  1  0  0  0  0  0  0  0  0  0
   38.3670   27.2570   33.8540 C   0  0  0  0  0  0  0  0  0  0  0  0
   39.0820   27.3900   35.0400 O   0  0  0  0  0  0  0  0  0  0  0  0
   38.3170   26.9380   36.1150 C   0  0  0  0  0  0  0  0  0  0  0  0
   38.2760   25.4210   36.0490 C   0  0  0  0  0  0  0  0  0  0  0  0
   41.3290   22.5450   34.2220 C   0  0  0  0  0  0  0  0  0  0  0  0
   40.6730   23.7200   34.6300 C   0  0  0  0  0  0  0  0  0  0  0  0
   39.3240   23.8830   34.3600 C   0  0  0  0  0  0  0  0  0  0  0  0
   38.7620   22.8680   33.7140 N   0  0  0  0  0  0  0  0  0  0  0  0
   39.3200   21.7530   33.3090 C   0  0  0  0  0  0  0  0  0  0  0  0
   40.6480   21.5980   33.5780 N   0  0  0  0  0  0  0  0  0  0  0  0
   38.6880   20.6510   32.6020 C   0  0  0  0  0  0  0  0  0  0  0  0
   39.4950   19.6640   32.0460 C   0  0  0  0  0  0  0  0  0  0  0  0
   39.0780   18.5650   31.3530 C   0  0  0  0  0  0  0  0  0  0  0  0
   37.7390   18.3840   31.1670 C   0  0  0  0  0  0  0  0  0  0  0  0
   36.8930   19.3240   31.6930 C   0  0  0  0  0  0  0  0  0  0  0  0
   35.5480   19.1130   31.4880 C   0  0  0  0  0  0  0  0  0  0  0  0
   34.6270   20.0320   31.9960 C   0  0  0  0  0  0  0  0  0  0  0  0
   35.1330   21.1270   32.6920 C   0  0  0  0  0  0  0  0  0  0  0  0
   36.4820   21.3220   32.8870 C   0  0  0  0  0  0  0  0  0  0  0  0
   37.3660   20.4150   32.3840 C   0  0  0  0  0  0  0  0  0  0  0  0
   38.2770   25.4030   32.4200 N   0  0  0  0  0  0  0  0  0  0  0  0
   37.2840   24.9000   31.5340 C   0  0  0  0  0  0  0  0  0  0  0  0
   36.0560   25.1480   31.8970 N   0  0  0  0  0  0  0  0  0  0  0  0
   37.4680   24.2440   30.4580 O   0  0  0  0  0  0  0  0  0  0  0  0
   36.7682   25.7503   33.9076 H   0  0  0  0  0  0  0  0  0  0  0  0
   39.0232   27.4832   33.0006 H   0  0  0  0  0  0  0  0  0  0  0  0
   37.5177   27.9560   33.8522 H   0  0  0  0  0  0  0  0  0  0  0  0
   38.7753   27.2593   37.0620 H   0  0  0  0  0  0  0  0  0  0  0  0
   37.2995   27.3529   36.0644 H   0  0  0  0  0  0  0  0  0  0  0  0
   37.2845   25.0692   36.3703 H   0  0  0  0  0  0  0  0  0  0  0  0
   39.0511   25.0099   36.7125 H   0  0  0  0  0  0  0  0  0  0  0  0
   42.3998   22.4083   34.4336 H   0  0  0  0  0  0  0  0  0  0  0  0
   41.2288   24.5066   35.1614 H   0  0  0  0  0  0  0  0  0  0  0  0
   40.5807   19.7814   32.1785 H   0  0  0  0  0  0  0  0  0  0  0  0
   39.8046   17.8421   30.9538 H   0  0  0  0  0  0  0  0  0  0  0  0
   37.3526   17.5147   30.6147 H   0  0  0  0  0  0  0  0  0  0  0  0
   35.2025   18.2302   30.9301 H   0  0  0  0  0  0  0  0  0  0  0  0
   33.5449   19.8963   31.8520 H   0  0  0  0  0  0  0  0  0  0  0  0
   34.4275   21.8648   33.1019 H   0  0  0  0  0  0  0  0  0  0  0  0
   36.8422   22.2003   33.4427 H   0  0  0  0  0  0  0  0  0  0  0  0
   39.2638   25.4687   32.1322 H   0  0  0  0  0  0  0  0  0  0  0  0
   35.2711   24.8213   31.3155 H   0  0  0  0  0  0  0  0  0  0  0  0
   35.8711   25.6705   32.7651 H   0  0  0  0  0  0  0  0  0  0  0  0
  1  6  1  0
  2  3  1  0
  2  1  1  0
  3  4  1  0
  4  5  1  0
  6  5  1  0
  7  8  2  0
  9  8  1  0
  9  1  1  0
 10  9  2  0
 11 12  2  0
 11 10  1  0
 12  7  1  0
 13 11  1  0
 14 13  2  0
 15 14  1  0
 16 15  2  0
 16 17  1  0
 17 22  2  0
 18 17  1  0
 18 19  2  0
 19 20  1  0
 20 21  2  0
 22 13  1  0
 22 21  1  0
 23  2  1  0
 24 25  1  0
 24 23  1  0
 26 24  2  0
  2 27  1  6
  3 28  1  0
  3 29  1  0
  5 30  1  0
  5 31  1  0
  6 32  1  0
  6 33  1  0
  7 34  1  0
  8 35  1  0
 14 36  1  0
 15 37  1  0
 16 38  1  0
 18 39  1  0
 19 40  1  0
 20 41  1  0
 21 42  1  0
 23 43  1  0
 25 44  1  0
 25 45  1  0
M  ISO  8  27  13  28  13  29  13  30  13  31  13  32  13  33  13  34  14
M  ISO  8  35  14  36  14  37  14  38  14  39  14  40  14  41  14  42  14
M  END
>  <minimizedAffinity>  (1) 
-5.1752038

>  <minimizedRMSD>  (1) 
6.22195387

$$$$
