
     RDKit          3D

 36 38  0  0  1  0  0  0  0  0999 V2000
   36.4410   27.9110   33.1150 N   0  0  0  0  0  0  0  0  0  0  0  0
   36.0090   27.4080   31.8310 C   0  0  1  0  0  0  0  0  0  0  0  0
   36.3830   28.3980   30.7280 C   0  0  0  0  0  0  0  0  0  0  0  0
   36.7330   29.6100   31.3140 O   0  0  0  0  0  0  0  0  0  0  0  0
   35.7300   30.0340   32.1870 C   0  0  0  0  0  0  0  0  0  0  0  0
   35.8130   29.1630   33.4320 C   0  0  0  0  0  0  0  0  0  0  0  0
   38.1140   25.8970   35.7990 C   0  0  0  0  0  0  0  0  0  0  0  0
   37.0800   26.4960   35.0680 C   0  0  0  0  0  0  0  0  0  0  0  0
   37.3620   27.2540   33.9370 C   0  0  0  0  0  0  0  0  0  0  0  0
   38.6590   27.3480   33.6350 N   0  0  0  0  0  0  0  0  0  0  0  0
   39.6590   26.8040   34.2920 C   0  0  0  0  0  0  0  0  0  0  0  0
   39.3830   26.0610   35.3990 N   0  0  0  0  0  0  0  0  0  0  0  0
   41.0460   26.9730   33.8720 C   0  0  0  0  0  0  0  0  0  0  0  0
   41.4970   27.4580   32.6860 C   0  0  0  0  0  0  0  0  0  0  0  0
   42.8550   27.4470   32.7010 N   0  0  0  0  0  0  0  0  0  0  0  0
   43.2530   26.9510   33.9060 C   0  0  0  0  0  0  0  0  0  0  0  0
   42.1380   26.6770   34.5830 N   0  0  0  0  0  0  0  0  0  0  0  0
   36.7840   26.2320   31.5320 N   0  0  0  0  0  0  0  0  0  0  0  0
   36.0820   25.0410   31.1770 C   0  0  0  0  0  0  0  0  0  0  0  0
   34.8130   25.2030   30.9200 N   0  0  0  0  0  0  0  0  0  0  0  0
   36.5870   23.8690   31.1020 O   0  0  0  0  0  0  0  0  0  0  0  0
   34.9245   27.2286   31.8718 H   0  0  0  0  0  0  0  0  0  0  0  0
   35.5239   28.5460   30.0571 H   0  0  0  0  0  0  0  0  0  0  0  0
   37.2296   28.0062   30.1451 H   0  0  0  0  0  0  0  0  0  0  0  0
   35.8862   31.0893   32.4552 H   0  0  0  0  0  0  0  0  0  0  0  0
   34.7405   29.9441   31.7151 H   0  0  0  0  0  0  0  0  0  0  0  0
   34.7985   28.9753   33.8135 H   0  0  0  0  0  0  0  0  0  0  0  0
   36.4092   29.6824   34.1967 H   0  0  0  0  0  0  0  0  0  0  0  0
   37.8868   25.2976   36.6929 H   0  0  0  0  0  0  0  0  0  0  0  0
   36.0367   26.3657   35.3913 H   0  0  0  0  0  0  0  0  0  0  0  0
   40.8673   27.8023   31.8524 H   0  0  0  0  0  0  0  0  0  0  0  0
   44.2873   26.8058   34.2510 H   0  0  0  0  0  0  0  0  0  0  0  0
   42.1203   26.2858   35.5356 H   0  0  0  0  0  0  0  0  0  0  0  0
   37.8130   26.2496   31.5730 H   0  0  0  0  0  0  0  0  0  0  0  0
   34.2336   24.3934   30.6558 H   0  0  0  0  0  0  0  0  0  0  0  0
   34.3907   26.1404   30.9813 H   0  0  0  0  0  0  0  0  0  0  0  0
  1  6  1  0
  1  9  1  0
  2  1  1  0
  3  4  1  0
  3  2  1  0
  4  5  1  0
  5  6  1  0
  8  7  2  0
  9  8  1  0
 10  9  2  0
 10 11  1  0
 11 12  2  0
 12  7  1  0
 13 11  1  0
 13 17  1  0
 14 15  1  0
 14 13  2  0
 15 16  2  0
 16 17  1  0
 18  2  1  0
 19 18  1  0
 20 19  1  0
 21 19  2  0
  2 22  1  1
  3 23  1  0
  3 24  1  0
  5 25  1  0
  5 26  1  0
  6 27  1  0
  6 28  1  0
  7 29  1  0
  8 30  1  0
 14 31  1  0
 16 32  1  0
 17 33  1  0
 18 34  1  0
 20 35  1  0
 20 36  1  0
M  ISO  8  22  13  23  13  24  13  25  13  26  13  27  13  28  13  29  14
M  ISO  4  30  14  31  14  32  14  33   9
M  END
>  <minimizedAffinity>  (1) 
-4.78555107

>  <minimizedRMSD>  (1) 
5.84893942

$$$$
