
     RDKit          3D

 43 46  0  0  1  0  0  0  0  0999 V2000
   39.9350   27.4920   30.1150 N   0  0  0  0  0  0  0  0  0  0  0  0
   39.5290   26.3560   29.3240 C   0  0  1  0  0  0  0  0  0  0  0  0
   40.2310   26.3900   27.9650 C   0  0  0  0  0  0  0  0  0  0  0  0
   40.8010   27.6450   27.7800 O   0  0  0  0  0  0  0  0  0  0  0  0
   39.8410   28.6370   27.9820 C   0  0  0  0  0  0  0  0  0  0  0  0
   39.5800   28.7310   29.4760 C   0  0  0  0  0  0  0  0  0  0  0  0
   42.4130   27.5670   32.9230 C   0  0  0  0  0  0  0  0  0  0  0  0
   41.9090   27.7220   31.6220 C   0  0  0  0  0  0  0  0  0  0  0  0
   40.5940   27.3880   31.3450 C   0  0  0  0  0  0  0  0  0  0  0  0
   39.9190   26.9320   32.3910 N   0  0  0  0  0  0  0  0  0  0  0  0
   40.3280   26.7620   33.6240 C   0  0  0  0  0  0  0  0  0  0  0  0
   41.6270   27.0960   33.8860 N   0  0  0  0  0  0  0  0  0  0  0  0
   39.5850   26.2650   34.7650 C   0  0  0  0  0  0  0  0  0  0  0  0
   38.9270   27.1460   35.5680 N   0  0  0  0  0  0  0  0  0  0  0  0
   38.2340   26.7530   36.6240 C   0  0  0  0  0  0  0  0  0  0  0  0
   38.1140   25.4770   36.9950 N   0  0  0  0  0  0  0  0  0  0  0  0
   38.7380   24.5300   36.2490 C   0  0  0  0  0  0  0  0  0  0  0  0
   38.6270   23.1950   36.6640 C   0  0  0  0  0  0  0  0  0  0  0  0
   39.2870   22.2520   35.9090 C   0  0  0  0  0  0  0  0  0  0  0  0
   40.0210   22.6680   34.7920 C   0  0  0  0  0  0  0  0  0  0  0  0
   40.0840   23.9980   34.4480 C   0  0  0  0  0  0  0  0  0  0  0  0
   39.4550   24.9980   35.1490 C   0  0  0  0  0  0  0  0  0  0  0  0
   40.0510   25.1680   29.9580 N   0  0  0  0  0  0  0  0  0  0  0  0
   39.1160   24.1790   30.3880 C   0  0  0  0  0  0  0  0  0  0  0  0
   37.8890   24.3390   29.9550 N   0  0  0  0  0  0  0  0  0  0  0  0
   39.3820   23.1850   31.1490 O   0  0  0  0  0  0  0  0  0  0  0  0
   38.4335   26.3688   29.2255 H   0  0  0  0  0  0  0  0  0  0  0  0
   41.0166   25.6205   27.9366 H   0  0  0  0  0  0  0  0  0  0  0  0
   39.5019   26.1920   27.1655 H   0  0  0  0  0  0  0  0  0  0  0  0
   40.2137   29.6010   27.6055 H   0  0  0  0  0  0  0  0  0  0  0  0
   38.9137   28.3906   27.4440 H   0  0  0  0  0  0  0  0  0  0  0  0
   40.1838   29.5464   29.9009 H   0  0  0  0  0  0  0  0  0  0  0  0
   38.5117   28.9318   29.6446 H   0  0  0  0  0  0  0  0  0  0  0  0
   43.4565   27.8348   33.1452 H   0  0  0  0  0  0  0  0  0  0  0  0
   42.5585   28.1087   30.8228 H   0  0  0  0  0  0  0  0  0  0  0  0
   37.7290   27.5201   37.2294 H   0  0  0  0  0  0  0  0  0  0  0  0
   38.0401   22.9146   37.5511 H   0  0  0  0  0  0  0  0  0  0  0  0
   39.2383   21.1869   36.1795 H   0  0  0  0  0  0  0  0  0  0  0  0
   40.5533   21.9228   34.1826 H   0  0  0  0  0  0  0  0  0  0  0  0
   40.6716   24.2770   33.5609 H   0  0  0  0  0  0  0  0  0  0  0  0
   41.0636   25.0388   30.0952 H   0  0  0  0  0  0  0  0  0  0  0  0
   37.1566   23.6659   30.2223 H   0  0  0  0  0  0  0  0  0  0  0  0
   37.6573   25.1378   29.3475 H   0  0  0  0  0  0  0  0  0  0  0  0
  1  9  1  0
  2 23  1  0
  2  1  1  0
  3  2  1  0
  4  3  1  0
  4  5  1  0
  5  6  1  0
  6  1  1  0
  7 12  2  0
  8  7  1  0
  9  8  2  0
  9 10  1  0
 10 11  2  0
 11 12  1  0
 11 13  1  0
 13 22  1  0
 13 14  2  0
 14 15  1  0
 15 16  2  0
 17 18  2  0
 17 16  1  0
 19 18  1  0
 20 19  2  0
 21 20  1  0
 21 22  2  0
 22 17  1  0
 23 24  1  0
 24 26  2  0
 25 24  1  0
  2 27  1  6
  3 28  1  0
  3 29  1  0
  5 30  1  0
  5 31  1  0
  6 32  1  0
  6 33  1  0
  7 34  1  0
  8 35  1  0
 15 36  1  0
 18 37  1  0
 19 38  1  0
 20 39  1  0
 21 40  1  0
 23 41  1  0
 25 42  1  0
 25 43  1  0
M  ISO  8  27  13  28  13  29  13  30  13  31  13  32  13  33  13  34  14
M  ISO  6  35  14  36  14  37  14  38  14  39  14  40  14
M  END
>  <minimizedAffinity>  (1) 
-4.64607906

>  <minimizedRMSD>  (1) 
5.87975311

$$$$
