
     RDKit          3D

 42 44  0  0  1  0  0  0  0  0999 V2000
   38.1110   25.1980   33.4880 N   0  0  0  0  0  0  0  0  0  0  0  0
   38.8520   26.2590   32.8420 C   0  0  1  0  0  0  0  0  0  0  0  0
   37.8980   27.4020   32.4780 C   0  0  0  0  0  0  0  0  0  0  0  0
   36.5890   26.9660   32.5910 O   0  0  0  0  0  0  0  0  0  0  0  0
   36.4170   25.7920   31.8590 C   0  0  0  0  0  0  0  0  0  0  0  0
   37.1000   24.6660   32.6120 C   0  0  0  0  0  0  0  0  0  0  0  0
   37.9850   24.5700   37.1800 C   0  0  0  0  0  0  0  0  0  0  0  0
   37.6230   25.0840   35.9340 C   0  0  0  0  0  0  0  0  0  0  0  0
   38.3540   24.7610   34.7960 C   0  0  0  0  0  0  0  0  0  0  0  0
   39.3960   23.9430   34.9950 N   0  0  0  0  0  0  0  0  0  0  0  0
   39.7680   23.4410   36.1590 C   0  0  0  0  0  0  0  0  0  0  0  0
   39.0450   23.7630   37.2710 N   0  0  0  0  0  0  0  0  0  0  0  0
   40.9290   22.5640   36.2140 C   0  0  0  0  0  0  0  0  0  0  0  0
   41.0500   21.6710   37.3960 C   0  0  0  0  0  0  0  0  0  0  0  0
   42.4390   21.0640   37.1540 C   0  0  0  0  0  0  0  0  0  0  0  0
   43.1660   22.0450   36.2410 C   0  0  0  0  0  0  0  0  0  0  0  0
   42.2710   23.2940   36.2720 C   0  0  0  0  0  0  0  0  0  0  0  0
   39.7380   26.8310   33.8170 N   0  0  0  0  0  0  0  0  0  0  0  0
   41.1200   26.9220   33.5160 C   0  0  0  0  0  0  0  0  0  0  0  0
   41.3830   26.7910   32.2500 N   0  0  0  0  0  0  0  0  0  0  0  0
   42.1080   27.1020   34.2920 O   0  0  0  0  0  0  0  0  0  0  0  0
   39.3666   25.8511   31.9595 H   0  0  0  0  0  0  0  0  0  0  0  0
   38.0891   27.7234   31.4435 H   0  0  0  0  0  0  0  0  0  0  0  0
   38.0624   28.2478   33.1618 H   0  0  0  0  0  0  0  0  0  0  0  0
   35.3444   25.5727   31.7517 H   0  0  0  0  0  0  0  0  0  0  0  0
   36.8533   25.9002   30.8550 H   0  0  0  0  0  0  0  0  0  0  0  0
   36.3528   24.1210   33.2075 H   0  0  0  0  0  0  0  0  0  0  0  0
   37.5724   23.9845   31.8893 H   0  0  0  0  0  0  0  0  0  0  0  0
   37.4033   24.8269   38.0776 H   0  0  0  0  0  0  0  0  0  0  0  0
   36.7518   25.7505   35.8514 H   0  0  0  0  0  0  0  0  0  0  0  0
   40.7401   22.0049   35.2857 H   0  0  0  0  0  0  0  0  0  0  0  0
   41.0142   22.2383   38.3378 H   0  0  0  0  0  0  0  0  0  0  0  0
   40.2404   20.9329   37.4950 H   0  0  0  0  0  0  0  0  0  0  0  0
   42.9798   20.9529   38.1054 H   0  0  0  0  0  0  0  0  0  0  0  0
   42.3711   20.0635   36.7020 H   0  0  0  0  0  0  0  0  0  0  0  0
   43.2477   21.6450   35.2196 H   0  0  0  0  0  0  0  0  0  0  0  0
   44.1973   22.2485   36.5651 H   0  0  0  0  0  0  0  0  0  0  0  0
   42.4318   23.9485   35.4026 H   0  0  0  0  0  0  0  0  0  0  0  0
   42.4193   23.9848   37.1151 H   0  0  0  0  0  0  0  0  0  0  0  0
   39.3752   27.1693   34.7197 H   0  0  0  0  0  0  0  0  0  0  0  0
   42.3569   26.8405   31.9185 H   0  0  0  0  0  0  0  0  0  0  0  0
   40.6175   26.6377   31.5781 H   0  0  0  0  0  0  0  0  0  0  0  0
  1  9  1  0
  2  1  1  0
  2 18  1  0
  3  4  1  0
  3  2  1  0
  5  4  1  0
  5  6  1  0
  6  1  1  0
  7 12  2  0
  8  7  1  0
  9 10  1  0
  9  8  2  0
 10 11  2  0
 11 13  1  0
 11 12  1  0
 13 17  1  0
 13 14  1  0
 15 14  1  0
 16 17  1  0
 16 15  1  0
 19 18  1  0
 19 21  2  0
 20 19  1  0
  2 22  1  6
  3 23  1  0
  3 24  1  0
  5 25  1  0
  5 26  1  0
  6 27  1  0
  6 28  1  0
  7 29  1  0
  8 30  1  0
 13 31  1  0
 14 32  1  0
 14 33  1  0
 15 34  1  0
 15 35  1  0
 16 36  1  0
 16 37  1  0
 17 38  1  0
 17 39  1  0
 18 40  1  0
 20 41  1  0
 20 42  1  0
M  ISO  8  22  13  23  13  24  13  25  13  26  13  27  13  28  13  29  14
M  ISO  8  30  14  31  13  32  13  33  13  34  13  35  13  36  13  37  13
M  ISO  2  38  13  39  13
M  END
>  <minimizedAffinity>  (1) 
-4.68680286

>  <minimizedRMSD>  (1) 
1.79038942

$$$$
