
     RDKit          3D

 45 47  0  0  1  0  0  0  0  0999 V2000
   38.5060   23.6140   33.9960 N   0  0  0  0  0  0  0  0  0  0  0  0
   39.1190   24.6690   33.2210 C   0  0  1  0  0  0  0  0  0  0  0  0
   38.0350   25.5460   32.5900 C   0  0  0  0  0  0  0  0  0  0  0  0
   36.8080   24.9000   32.6940 O   0  0  0  0  0  0  0  0  0  0  0  0
   36.9090   23.6090   32.1730 C   0  0  0  0  0  0  0  0  0  0  0  0
   37.6820   22.7700   33.1790 C   0  0  0  0  0  0  0  0  0  0  0  0
   38.0640   23.3720   37.7110 C   0  0  0  0  0  0  0  0  0  0  0  0
   37.7280   23.5680   36.3650 C   0  0  0  0  0  0  0  0  0  0  0  0
   38.6940   23.4470   35.3730 C   0  0  0  0  0  0  0  0  0  0  0  0
   39.9170   23.1390   35.8100 N   0  0  0  0  0  0  0  0  0  0  0  0
   40.2750   22.9490   37.0600 C   0  0  0  0  0  0  0  0  0  0  0  0
   39.3280   23.0680   38.0380 N   0  0  0  0  0  0  0  0  0  0  0  0
   41.7020   22.6100   37.3620 C   0  0  0  0  0  0  0  0  0  0  0  0
   41.9320   21.1280   37.2640 C   0  0  0  0  0  0  0  0  0  0  0  0
   42.5790   20.6620   36.0120 C   0  0  0  0  0  0  0  0  0  0  0  0
   43.7880   21.4500   35.6070 C   0  0  0  0  0  0  0  0  0  0  0  0
   43.8910   22.7960   36.2450 C   0  0  0  0  0  0  0  0  0  0  0  0
   42.5630   23.4440   36.4790 C   0  0  0  0  0  0  0  0  0  0  0  0
   39.7920   25.5520   34.1410 N   0  0  0  0  0  0  0  0  0  0  0  0
   41.1570   25.8750   33.8780 C   0  0  0  0  0  0  0  0  0  0  0  0
   41.5920   25.5360   32.6930 N   0  0  0  0  0  0  0  0  0  0  0  0
   41.9600   26.4480   34.6940 O   0  0  0  0  0  0  0  0  0  0  0  0
   39.7789   24.2174   32.4656 H   0  0  0  0  0  0  0  0  0  0  0  0
   38.2717   25.7181   31.5297 H   0  0  0  0  0  0  0  0  0  0  0  0
   37.9899   26.5126   33.1131 H   0  0  0  0  0  0  0  0  0  0  0  0
   35.9052   23.1850   32.0226 H   0  0  0  0  0  0  0  0  0  0  0  0
   37.4247   23.6222   31.2015 H   0  0  0  0  0  0  0  0  0  0  0  0
   36.9728   22.2245   33.8190 H   0  0  0  0  0  0  0  0  0  0  0  0
   38.3219   22.0579   32.6374 H   0  0  0  0  0  0  0  0  0  0  0  0
   37.2966   23.4668   38.4933 H   0  0  0  0  0  0  0  0  0  0  0  0
   36.6926   23.8194   36.0915 H   0  0  0  0  0  0  0  0  0  0  0  0
   41.9698   22.8511   38.4013 H   0  0  0  0  0  0  0  0  0  0  0  0
   42.5712   20.8280   38.1075 H   0  0  0  0  0  0  0  0  0  0  0  0
   40.9336   20.6665   37.2772 H   0  0  0  0  0  0  0  0  0  0  0  0
   42.8828   19.6140   36.1516 H   0  0  0  0  0  0  0  0  0  0  0  0
   41.8378   20.7915   35.2096 H   0  0  0  0  0  0  0  0  0  0  0  0
   44.6828   20.8711   35.8795 H   0  0  0  0  0  0  0  0  0  0  0  0
   43.7012   21.6225   34.5241 H   0  0  0  0  0  0  0  0  0  0  0  0
   44.4007   22.6851   37.2135 H   0  0  0  0  0  0  0  0  0  0  0  0
   44.4510   23.4422   35.5530 H   0  0  0  0  0  0  0  0  0  0  0  0
   42.7210   24.4235   36.9541 H   0  0  0  0  0  0  0  0  0  0  0  0
   42.0571   23.5589   35.5090 H   0  0  0  0  0  0  0  0  0  0  0  0
   39.3033   25.9373   34.9617 H   0  0  0  0  0  0  0  0  0  0  0  0
   42.5667   25.7348   32.4259 H   0  0  0  0  0  0  0  0  0  0  0  0
   40.9601   25.0700   32.0263 H   0  0  0  0  0  0  0  0  0  0  0  0
  1  9  1  0
  2  1  1  0
  2 19  1  0
  3  4  1  0
  3  2  1  0
  5  4  1  0
  5  6  1  0
  6  1  1  0
  7 12  2  0
  8  7  1  0
  9 10  1  0
  9  8  2  0
 10 11  2  0
 11 13  1  0
 11 12  1  0
 14 13  1  0
 15 14  1  0
 16 15  1  0
 16 17  1  0
 17 18  1  0
 18 13  1  0
 20 19  1  0
 20 22  2  0
 21 20  1  0
  2 23  1  6
  3 24  1  0
  3 25  1  0
  5 26  1  0
  5 27  1  0
  6 28  1  0
  6 29  1  0
  7 30  1  0
  8 31  1  0
 13 32  1  0
 14 33  1  0
 14 34  1  0
 15 35  1  0
 15 36  1  0
 16 37  1  0
 16 38  1  0
 17 39  1  0
 17 40  1  0
 18 41  1  0
 18 42  1  0
 19 43  1  0
 21 44  1  0
 21 45  1  0
M  ISO  8  23  13  24  13  25  13  26  13  27  13  28  13  29  13  30  14
M  ISO  8  31  14  32  13  33  13  34  13  35  13  36  13  37  13  38  13
M  ISO  4  39  13  40  13  41  13  42  13
M  END
>  <minimizedAffinity>  (1) 
-4.59455347

>  <minimizedRMSD>  (1) 
1.62166119

$$$$
