
     RDKit          3D

 36 38  0  0  1  0  0  0  0  0999 V2000
   38.0030   25.3330   33.3180 N   0  0  0  0  0  0  0  0  0  0  0  0
   38.7650   26.3730   32.6640 C   0  0  1  0  0  0  0  0  0  0  0  0
   37.8520   27.5380   32.2810 C   0  0  0  0  0  0  0  0  0  0  0  0
   36.5270   27.1340   32.4070 O   0  0  0  0  0  0  0  0  0  0  0  0
   36.3170   25.9550   31.6940 C   0  0  0  0  0  0  0  0  0  0  0  0
   36.9710   24.8220   32.4630 C   0  0  0  0  0  0  0  0  0  0  0  0
   37.9420   24.7940   37.0280 C   0  0  0  0  0  0  0  0  0  0  0  0
   37.5960   25.2930   35.7810 C   0  0  0  0  0  0  0  0  0  0  0  0
   38.2490   24.8940   34.6220 C   0  0  0  0  0  0  0  0  0  0  0  0
   39.2160   24.0040   34.8250 N   0  0  0  0  0  0  0  0  0  0  0  0
   39.5690   23.5120   35.9890 C   0  0  0  0  0  0  0  0  0  0  0  0
   38.9300   23.9050   37.1150 N   0  0  0  0  0  0  0  0  0  0  0  0
   40.7370   22.4640   36.0360 C   0  0  0  0  0  0  0  0  0  0  0  0
   41.1100   21.9020   37.3280 C   0  0  0  0  0  0  0  0  0  0  0  0
   42.1140   21.0110   37.3120 C   0  0  0  0  0  0  0  0  0  0  0  0
   42.7860   20.6260   36.1080 C   0  0  0  0  0  0  0  0  0  0  0  0
   41.8310   21.7010   34.8340 S   0  0  0  0  0  0  0  0  0  0  0  0
   39.6720   26.9330   33.6260 N   0  0  0  0  0  0  0  0  0  0  0  0
   41.0590   26.9850   33.2930 C   0  0  0  0  0  0  0  0  0  0  0  0
   41.3360   26.7410   32.0430 N   0  0  0  0  0  0  0  0  0  0  0  0
   42.0180   27.2340   34.1030 O   0  0  0  0  0  0  0  0  0  0  0  0
   39.2617   25.9368   31.7848 H   0  0  0  0  0  0  0  0  0  0  0  0
   38.0498   27.8352   31.2405 H   0  0  0  0  0  0  0  0  0  0  0  0
   38.0444   28.3948   32.9434 H   0  0  0  0  0  0  0  0  0  0  0  0
   35.2380   25.7654   31.5948 H   0  0  0  0  0  0  0  0  0  0  0  0
   36.7505   26.0344   30.6862 H   0  0  0  0  0  0  0  0  0  0  0  0
   36.2118   24.3126   33.0747 H   0  0  0  0  0  0  0  0  0  0  0  0
   37.4156   24.1137   31.7485 H   0  0  0  0  0  0  0  0  0  0  0  0
   37.4090   25.1271   37.9307 H   0  0  0  0  0  0  0  0  0  0  0  0
   36.7798   26.0268   35.7078 H   0  0  0  0  0  0  0  0  0  0  0  0
   40.6001   22.1902   38.2591 H   0  0  0  0  0  0  0  0  0  0  0  0
   42.4332   20.5585   38.2624 H   0  0  0  0  0  0  0  0  0  0  0  0
   43.6131   19.9170   35.9558 H   0  0  0  0  0  0  0  0  0  0  0  0
   39.3313   27.2873   34.5311 H   0  0  0  0  0  0  0  0  0  0  0  0
   42.3136   26.7585   31.7192 H   0  0  0  0  0  0  0  0  0  0  0  0
   40.5773   26.5307   31.3789 H   0  0  0  0  0  0  0  0  0  0  0  0
  1  9  1  0
  2  1  1  0
  2 18  1  0
  3  4  1  0
  3  2  1  0
  5  4  1  0
  5  6  1  0
  6  1  1  0
  7 12  2  0
  8  7  1  0
  9 10  1  0
  9  8  2  0
 10 11  2  0
 11 13  1  0
 11 12  1  0
 13 14  2  0
 15 14  1  0
 16 15  2  0
 17 13  1  0
 17 16  1  0
 19 18  1  0
 19 21  2  0
 20 19  1  0
  2 22  1  6
  3 23  1  0
  3 24  1  0
  5 25  1  0
  5 26  1  0
  6 27  1  0
  6 28  1  0
  7 29  1  0
  8 30  1  0
 14 31  1  0
 15 32  1  0
 16 33  1  0
 18 34  1  0
 20 35  1  0
 20 36  1  0
M  ISO  8  22  13  23  13  24  13  25  13  26  13  27  13  28  13  29  14
M  ISO  4  30  14  31  14  32  14  33  14
M  END
>  <minimizedAffinity>  (1) 
-4.47710943

>  <minimizedRMSD>  (1) 
1.87024784

$$$$
