
     RDKit          3D

 37 39  0  0  1  0  0  0  0  0999 V2000
   38.0150   25.2770   33.3490 N   0  0  0  0  0  0  0  0  0  0  0  0
   38.7610   26.3330   32.7090 C   0  0  1  0  0  0  0  0  0  0  0  0
   37.8270   27.4920   32.3560 C   0  0  0  0  0  0  0  0  0  0  0  0
   36.5090   27.0650   32.4760 O   0  0  0  0  0  0  0  0  0  0  0  0
   36.3200   25.8980   31.7340 C   0  0  0  0  0  0  0  0  0  0  0  0
   36.9870   24.7610   32.4890 C   0  0  0  0  0  0  0  0  0  0  0  0
   37.9690   24.6630   37.0470 C   0  0  0  0  0  0  0  0  0  0  0  0
   37.6010   25.2050   35.8100 C   0  0  0  0  0  0  0  0  0  0  0  0
   38.2670   24.8230   34.6490 C   0  0  0  0  0  0  0  0  0  0  0  0
   39.2450   23.9320   34.8280 N   0  0  0  0  0  0  0  0  0  0  0  0
   39.6210   23.4010   35.9710 C   0  0  0  0  0  0  0  0  0  0  0  0
   38.9690   23.7750   37.1070 N   0  0  0  0  0  0  0  0  0  0  0  0
   40.7070   22.4320   36.0600 C   0  0  0  0  0  0  0  0  0  0  0  0
   41.0810   21.9350   37.2810 C   0  0  0  0  0  0  0  0  0  0  0  0
   42.1200   21.0130   37.3290 C   0  0  0  0  0  0  0  0  0  0  0  0
   42.7350   20.6260   36.1920 N   0  0  0  0  0  0  0  0  0  0  0  0
   42.3510   21.1320   34.9860 C   0  0  0  0  0  0  0  0  0  0  0  0
   41.3460   22.0210   34.9560 N   0  0  0  0  0  0  0  0  0  0  0  0
   39.6630   26.8940   33.6850 N   0  0  0  0  0  0  0  0  0  0  0  0
   41.0430   26.9830   33.3500 C   0  0  0  0  0  0  0  0  0  0  0  0
   41.3060   26.8170   32.0830 N   0  0  0  0  0  0  0  0  0  0  0  0
   42.0180   27.1940   34.1400 O   0  0  0  0  0  0  0  0  0  0  0  0
   39.2622   25.9194   31.8215 H   0  0  0  0  0  0  0  0  0  0  0  0
   38.0167   27.8166   31.3222 H   0  0  0  0  0  0  0  0  0  0  0  0
   38.0076   28.3355   33.0385 H   0  0  0  0  0  0  0  0  0  0  0  0
   35.2448   25.6944   31.6224 H   0  0  0  0  0  0  0  0  0  0  0  0
   36.7565   26.0036   30.7298 H   0  0  0  0  0  0  0  0  0  0  0  0
   36.2344   24.2360   33.0957 H   0  0  0  0  0  0  0  0  0  0  0  0
   37.4374   24.0641   31.7669 H   0  0  0  0  0  0  0  0  0  0  0  0
   37.4403   24.9646   37.9632 H   0  0  0  0  0  0  0  0  0  0  0  0
   36.7813   25.9365   35.7552 H   0  0  0  0  0  0  0  0  0  0  0  0
   40.5713   22.2579   38.2008 H   0  0  0  0  0  0  0  0  0  0  0  0
   42.4415   20.5980   38.2957 H   0  0  0  0  0  0  0  0  0  0  0  0
   42.8532   20.8189   34.0588 H   0  0  0  0  0  0  0  0  0  0  0  0
   39.3178   27.2209   34.5987 H   0  0  0  0  0  0  0  0  0  0  0  0
   42.2790   26.8648   31.7484 H   0  0  0  0  0  0  0  0  0  0  0  0
   40.5407   26.6382   31.4173 H   0  0  0  0  0  0  0  0  0  0  0  0
  1  9  1  0
  2  1  1  0
  2 19  1  0
  3  4  1  0
  3  2  1  0
  5  4  1  0
  5  6  1  0
  6  1  1  0
  7 12  2  0
  8  7  1  0
  9 10  1  0
  9  8  2  0
 10 11  2  0
 11 13  1  0
 11 12  1  0
 13 14  2  0
 14 15  1  0
 16 15  2  0
 17 16  1  0
 18 17  2  0
 18 13  1  0
 20 19  1  0
 20 22  2  0
 21 20  1  0
  2 23  1  6
  3 24  1  0
  3 25  1  0
  5 26  1  0
  5 27  1  0
  6 28  1  0
  6 29  1  0
  7 30  1  0
  8 31  1  0
 14 32  1  0
 15 33  1  0
 17 34  1  0
 19 35  1  0
 21 36  1  0
 21 37  1  0
M  ISO  8  23  13  24  13  25  13  26  13  27  13  28  13  29  13  30  14
M  ISO  4  31  14  32  14  33  14  34  14
M  END
>  <minimizedAffinity>  (1) 
-4.54762459

>  <minimizedRMSD>  (1) 
1.85603178

$$$$
