
     RDKit          3D

 36 38  0  0  1  0  0  0  0  0999 V2000
   38.9590   24.7050   34.4780 N   0  0  0  0  0  0  0  0  0  0  0  0
   39.8060   25.7450   33.9400 C   0  0  1  0  0  0  0  0  0  0  0  0
   39.0400   27.0690   33.8980 C   0  0  0  0  0  0  0  0  0  0  0  0
   37.6860   26.8140   34.0820 O   0  0  0  0  0  0  0  0  0  0  0  0
   37.2530   25.8380   33.1850 C   0  0  0  0  0  0  0  0  0  0  0  0
   37.7930   24.5000   33.6660 C   0  0  0  0  0  0  0  0  0  0  0  0
   38.9930   23.3190   37.9630 C   0  0  0  0  0  0  0  0  0  0  0  0
   38.5900   24.0990   36.8720 C   0  0  0  0  0  0  0  0  0  0  0  0
   39.2450   23.9950   35.6500 C   0  0  0  0  0  0  0  0  0  0  0  0
   40.2510   23.1170   35.6230 N   0  0  0  0  0  0  0  0  0  0  0  0
   40.6610   22.3680   36.6240 C   0  0  0  0  0  0  0  0  0  0  0  0
   40.0190   22.4700   37.8210 N   0  0  0  0  0  0  0  0  0  0  0  0
   41.7290   21.4450   36.5740 N   0  0  0  0  0  0  0  0  0  0  0  0
   42.5130   21.1500   35.5160 C   0  0  0  0  0  0  0  0  0  0  0  0
   43.4420   20.1900   35.8940 C   0  0  0  0  0  0  0  0  0  0  0  0
   43.1920   19.9230   37.1980 N   0  0  0  0  0  0  0  0  0  0  0  0
   42.1520   20.6880   37.6030 C   0  0  0  0  0  0  0  0  0  0  0  0
   40.8690   25.9810   34.8850 N   0  0  0  0  0  0  0  0  0  0  0  0
   42.2090   25.8020   34.4470 C   0  0  0  0  0  0  0  0  0  0  0  0
   42.3570   25.7080   33.1470 N   0  0  0  0  0  0  0  0  0  0  0  0
   43.2530   25.7180   35.1730 O   0  0  0  0  0  0  0  0  0  0  0  0
   40.1542   25.4368   32.9431 H   0  0  0  0  0  0  0  0  0  0  0  0
   39.4029   27.7307   34.6983 H   0  0  0  0  0  0  0  0  0  0  0  0
   39.1973   27.5589   32.9258 H   0  0  0  0  0  0  0  0  0  0  0  0
   37.6369   26.0573   32.1778 H   0  0  0  0  0  0  0  0  0  0  0  0
   36.1542   25.8168   33.1375 H   0  0  0  0  0  0  0  0  0  0  0  0
   37.0213   23.9876   34.2593 H   0  0  0  0  0  0  0  0  0  0  0  0
   38.0629   23.8850   32.7948 H   0  0  0  0  0  0  0  0  0  0  0  0
   38.4716   23.4029   38.9279 H   0  0  0  0  0  0  0  0  0  0  0  0
   37.7489   24.7992   36.9827 H   0  0  0  0  0  0  0  0  0  0  0  0
   42.4294   21.5982   34.5149 H   0  0  0  0  0  0  0  0  0  0  0  0
   44.2219   19.7385   35.2632 H   0  0  0  0  0  0  0  0  0  0  0  0
   41.7201   20.6907   38.6147 H   0  0  0  0  0  0  0  0  0  0  0  0
   40.6628   26.2715   35.8514 H   0  0  0  0  0  0  0  0  0  0  0  0
   43.2956   25.5769   32.7437 H   0  0  0  0  0  0  0  0  0  0  0  0
   41.5346   25.7653   32.5296 H   0  0  0  0  0  0  0  0  0  0  0  0
  1  9  1  0
  2  1  1  0
  2 18  1  0
  3  2  1  0
  3  4  1  0
  5  6  1  0
  5  4  1  0
  6  1  1  0
  8  7  2  0
  9  8  1  0
 10  9  2  0
 10 11  1  0
 11 12  2  0
 12  7  1  0
 13 11  1  0
 13 17  1  0
 14 15  2  0
 14 13  1  0
 15 16  1  0
 16 17  2  0
 19 18  1  0
 19 21  2  0
 20 19  1  0
  2 22  1  6
  3 23  1  0
  3 24  1  0
  5 25  1  0
  5 26  1  0
  6 27  1  0
  6 28  1  0
  7 29  1  0
  8 30  1  0
 14 31  1  0
 15 32  1  0
 17 33  1  0
 18 34  1  0
 20 35  1  0
 20 36  1  0
M  ISO  8  22  13  23  13  24  13  25  13  26  13  27  13  28  13  29  14
M  ISO  4  30  14  31  14  32  14  33  14
M  END
>  <minimizedAffinity>  (1) 
-4.35339928

>  <minimizedRMSD>  (1) 
1.09739995

$$$$
