
     RDKit          3D

 32 33  0  0  1  0  0  0  0  0999 V2000
   38.8700   24.7170   34.4030 N   0  0  0  0  0  0  0  0  0  0  0  0
   39.7620   25.6960   33.8250 C   0  0  1  0  0  0  0  0  0  0  0  0
   39.0110   27.0080   33.5890 C   0  0  0  0  0  0  0  0  0  0  0  0
   37.6450   26.7760   33.7040 O   0  0  0  0  0  0  0  0  0  0  0  0
   37.2680   25.7130   32.8830 C   0  0  0  0  0  0  0  0  0  0  0  0
   37.7640   24.4310   33.5330 C   0  0  0  0  0  0  0  0  0  0  0  0
   38.5790   23.6180   37.9760 C   0  0  0  0  0  0  0  0  0  0  0  0
   38.2520   24.2690   36.7750 C   0  0  0  0  0  0  0  0  0  0  0  0
   39.0640   24.1290   35.6570 C   0  0  0  0  0  0  0  0  0  0  0  0
   40.1320   23.3520   35.8340 N   0  0  0  0  0  0  0  0  0  0  0  0
   40.4800   22.7250   36.9340 C   0  0  0  0  0  0  0  0  0  0  0  0
   39.6840   22.8600   38.0330 N   0  0  0  0  0  0  0  0  0  0  0  0
   41.7330   21.8860   36.9460 C   0  0  0  0  0  0  0  0  0  0  0  0
   42.8590   22.6610   36.9730 F   0  0  0  0  0  0  0  0  0  0  0  0
   41.6050   21.1030   38.1010 F   0  0  0  0  0  0  0  0  0  0  0  0
   41.7650   21.0230   35.8900 F   0  0  0  0  0  0  0  0  0  0  0  0
   40.7540   26.0280   34.8170 N   0  0  0  0  0  0  0  0  0  0  0  0
   42.0500   25.4570   34.6850 C   0  0  0  0  0  0  0  0  0  0  0  0
   42.2900   24.8980   33.5300 N   0  0  0  0  0  0  0  0  0  0  0  0
   42.9670   25.4360   35.5740 O   0  0  0  0  0  0  0  0  0  0  0  0
   40.1808   25.2869   32.8938 H   0  0  0  0  0  0  0  0  0  0  0  0
   39.2371   27.3859   32.5810 H   0  0  0  0  0  0  0  0  0  0  0  0
   39.3247   27.7543   34.3338 H   0  0  0  0  0  0  0  0  0  0  0  0
   37.7218   25.8287   31.8877 H   0  0  0  0  0  0  0  0  0  0  0  0
   36.1749   25.6870   32.7626 H   0  0  0  0  0  0  0  0  0  0  0  0
   36.9484   23.9796   34.1171 H   0  0  0  0  0  0  0  0  0  0  0  0
   38.0926   23.7327   32.7492 H   0  0  0  0  0  0  0  0  0  0  0  0
   37.9352   23.7288   38.8610 H   0  0  0  0  0  0  0  0  0  0  0  0
   37.3479   24.8931   36.7197 H   0  0  0  0  0  0  0  0  0  0  0  0
   40.5307   26.6604   35.5987 H   0  0  0  0  0  0  0  0  0  0  0  0
   43.2047   24.4601   33.3499 H   0  0  0  0  0  0  0  0  0  0  0  0
   41.5646   24.8948   32.7988 H   0  0  0  0  0  0  0  0  0  0  0  0
  1  9  1  0
  2  1  1  0
  2 17  1  0
  3  4  1  0
  3  2  1  0
  5  6  1  0
  5  4  1  0
  6  1  1  0
  7 12  2  0
  8  7  1  0
  9 10  1  0
  9  8  2  0
 10 11  2  0
 11 13  1  0
 11 12  1  0
 13 14  1  0
 13 15  1  0
 16 13  1  0
 18 17  1  0
 18 20  2  0
 19 18  1  0
  2 21  1  6
  3 22  1  0
  3 23  1  0
  5 24  1  0
  5 25  1  0
  6 26  1  0
  6 27  1  0
  7 28  1  0
  8 29  1  0
 17 30  1  0
 19 31  1  0
 19 32  1  0
M  ISO  8  21  13  22  13  23  13  24  13  25  13  26  13  27  13  28  14
M  ISO  1  29  14
M  END
>  <minimizedAffinity>  (1) 
-4.57883072

>  <minimizedRMSD>  (1) 
0.782615483

$$$$
