
     RDKit          3D

 30 31  0  0  1  0  0  0  0  0999 V2000
   38.8130   24.9010   34.4370 N   0  0  0  0  0  0  0  0  0  0  0  0
   39.8600   25.7250   33.8790 C   0  0  1  0  0  0  0  0  0  0  0  0
   39.3150   27.1180   33.5580 C   0  0  0  0  0  0  0  0  0  0  0  0
   37.9260   27.0830   33.6120 O   0  0  0  0  0  0  0  0  0  0  0  0
   37.4450   26.0540   32.8010 C   0  0  0  0  0  0  0  0  0  0  0  0
   37.7230   24.7400   33.5150 C   0  0  0  0  0  0  0  0  0  0  0  0
   38.1850   23.9830   38.0150 C   0  0  0  0  0  0  0  0  0  0  0  0
   38.0140   24.6280   36.7830 C   0  0  0  0  0  0  0  0  0  0  0  0
   38.8600   24.3400   35.7170 C   0  0  0  0  0  0  0  0  0  0  0  0
   39.8050   23.4320   35.9700 N   0  0  0  0  0  0  0  0  0  0  0  0
   39.9980   22.8060   37.1120 C   0  0  0  0  0  0  0  0  0  0  0  0
   39.1710   23.0880   38.1560 N   0  0  0  0  0  0  0  0  0  0  0  0
   41.2850   21.6090   37.3640 S   0  0  0  0  0  0  0  0  0  0  0  0
   40.8380   25.9570   34.9130 N   0  0  0  0  0  0  0  0  0  0  0  0
   42.1860   25.5840   34.6590 C   0  0  0  0  0  0  0  0  0  0  0  0
   42.4560   25.3340   33.4070 N   0  0  0  0  0  0  0  0  0  0  0  0
   43.1280   25.4650   35.5070 O   0  0  0  0  0  0  0  0  0  0  0  0
   40.2626   25.2244   32.9861 H   0  0  0  0  0  0  0  0  0  0  0  0
   39.6377   27.4172   32.5499 H   0  0  0  0  0  0  0  0  0  0  0  0
   39.6977   27.8450   34.2895 H   0  0  0  0  0  0  0  0  0  0  0  0
   37.9604   26.0697   31.8294 H   0  0  0  0  0  0  0  0  0  0  0  0
   36.3668   26.1756   32.6200 H   0  0  0  0  0  0  0  0  0  0  0  0
   36.8235   24.4276   34.0658 H   0  0  0  0  0  0  0  0  0  0  0  0
   37.9903   23.9751   32.7710 H   0  0  0  0  0  0  0  0  0  0  0  0
   37.5158   24.2096   38.8581 H   0  0  0  0  0  0  0  0  0  0  0  0
   37.2073   25.3653   36.6582 H   0  0  0  0  0  0  0  0  0  0  0  0
   41.4818   21.4260   38.7074 H   0  0  0  0  0  0  0  0  0  0  0  0
   40.5671   26.3816   35.8115 H   0  0  0  0  0  0  0  0  0  0  0  0
   43.4087   25.0563   33.1311 H   0  0  0  0  0  0  0  0  0  0  0  0
   41.7164   25.4144   32.6947 H   0  0  0  0  0  0  0  0  0  0  0  0
  1  9  1  0
  2  1  1  0
  2 14  1  0
  3  4  1  0
  3  2  1  0
  5  6  1  0
  5  4  1  0
  6  1  1  0
  7 12  2  0
  8  7  1  0
  9 10  1  0
  9  8  2  0
 10 11  2  0
 11 13  1  0
 11 12  1  0
 15 14  1  0
 15 17  2  0
 16 15  1  0
  2 18  1  6
  3 19  1  0
  3 20  1  0
  5 21  1  0
  5 22  1  0
  6 23  1  0
  6 24  1  0
  7 25  1  0
  8 26  1  0
 13 27  1  0
 14 28  1  0
 16 29  1  0
 16 30  1  0
M  ISO  8  18  13  19  13  20  13  21  13  22  13  23  13  24  13  25  14
M  ISO  2  26  14  27  11
M  END
>  <minimizedAffinity>  (1) 
-4.10945511

>  <minimizedRMSD>  (1) 
0.22696957

$$$$
