
     RDKit          3D

 35 37  0  0  1  0  0  0  0  0999 V2000
   38.8320   24.8890   34.4230 N   0  0  0  0  0  0  0  0  0  0  0  0
   39.7680   25.8500   33.8880 C   0  0  1  0  0  0  0  0  0  0  0  0
   39.1000   27.2200   33.7650 C   0  0  0  0  0  0  0  0  0  0  0  0
   37.7220   27.0550   33.8940 O   0  0  0  0  0  0  0  0  0  0  0  0
   37.2600   26.0760   33.0160 C   0  0  0  0  0  0  0  0  0  0  0  0
   37.6880   24.7250   33.5690 C   0  0  0  0  0  0  0  0  0  0  0  0
   38.5930   23.6300   37.9440 C   0  0  0  0  0  0  0  0  0  0  0  0
   38.2980   24.3740   36.7960 C   0  0  0  0  0  0  0  0  0  0  0  0
   39.0180   24.2080   35.6290 C   0  0  0  0  0  0  0  0  0  0  0  0
   39.9870   23.3010   35.7150 N   0  0  0  0  0  0  0  0  0  0  0  0
   40.3210   22.5720   36.7510 C   0  0  0  0  0  0  0  0  0  0  0  0
   39.6000   22.7420   37.9020 N   0  0  0  0  0  0  0  0  0  0  0  0
   41.4420   21.6070   36.6520 C   0  0  0  0  0  0  0  0  0  0  0  0
   41.9790   20.9260   37.6960 C   0  0  0  0  0  0  0  0  0  0  0  0
   43.2960   19.9280   36.8930 S   0  0  0  0  0  0  0  0  0  0  0  0
   42.8500   20.6600   35.1930 C   0  0  0  0  0  0  0  0  0  0  0  0
   41.9930   21.3590   35.4640 N   0  0  0  0  0  0  0  0  0  0  0  0
   40.8100   26.0470   34.8660 N   0  0  0  0  0  0  0  0  0  0  0  0
   42.1510   25.7930   34.4760 C   0  0  0  0  0  0  0  0  0  0  0  0
   42.3270   25.6980   33.1880 N   0  0  0  0  0  0  0  0  0  0  0  0
   43.1630   25.6460   35.2410 O   0  0  0  0  0  0  0  0  0  0  0  0
   40.1317   25.4819   32.9173 H   0  0  0  0  0  0  0  0  0  0  0  0
   39.4697   27.8854   34.5591 H   0  0  0  0  0  0  0  0  0  0  0  0
   39.3355   27.6670   32.7879 H   0  0  0  0  0  0  0  0  0  0  0  0
   37.6982   26.2292   32.0188 H   0  0  0  0  0  0  0  0  0  0  0  0
   36.1652   26.1262   32.9220 H   0  0  0  0  0  0  0  0  0  0  0  0
   36.8603   24.2882   34.1471 H   0  0  0  0  0  0  0  0  0  0  0  0
   37.9501   24.0576   32.7348 H   0  0  0  0  0  0  0  0  0  0  0  0
   38.0096   23.7701   38.8660 H   0  0  0  0  0  0  0  0  0  0  0  0
   37.4767   25.1053   36.8236 H   0  0  0  0  0  0  0  0  0  0  0  0
   41.6961   20.9625   38.7584 H   0  0  0  0  0  0  0  0  0  0  0  0
   43.3008   20.4605   34.2096 H   0  0  0  0  0  0  0  0  0  0  0  0
   40.5871   26.3631   35.8206 H   0  0  0  0  0  0  0  0  0  0  0  0
   43.2669   25.5147   32.8088 H   0  0  0  0  0  0  0  0  0  0  0  0
   41.5261   25.8062   32.5494 H   0  0  0  0  0  0  0  0  0  0  0  0
  1  9  1  0
  2  1  1  0
  2 18  1  0
  3  2  1  0
  3  4  1  0
  5  6  1  0
  5  4  1  0
  6  1  1  0
  8  7  2  0
  9 10  2  0
  9  8  1  0
 10 11  1  0
 11 12  2  0
 12  7  1  0
 13 11  1  0
 13 14  2  0
 15 14  1  0
 16 17  2  0
 16 15  1  0
 17 13  1  0
 19 18  1  0
 19 21  2  0
 20 19  1  0
  2 22  1  6
  3 23  1  0
  3 24  1  0
  5 25  1  0
  5 26  1  0
  6 27  1  0
  6 28  1  0
  7 29  1  0
  8 30  1  0
 14 31  1  0
 16 32  1  0
 18 33  1  0
 20 34  1  0
 20 35  1  0
M  ISO  8  22  13  23  13  24  13  25  13  26  13  27  13  28  13  29  14
M  ISO  3  30  14  31  14  32  14
M  END
>  <minimizedAffinity>  (1) 
-4.24010372

>  <minimizedRMSD>  (1) 
0.781601191

$$$$
