
     RDKit          3D

 39 41  0  0  1  0  0  0  0  0999 V2000
   41.0620   25.2330   33.7830 N   0  0  0  0  0  0  0  0  0  0  0  0
   42.2830   26.0480   33.8110 C   0  0  1  0  0  0  0  0  0  0  0  0
   41.9840   27.4380   33.3350 C   0  0  0  0  0  0  0  0  0  0  0  0
   40.7050   27.5140   32.8420 O   0  0  0  0  0  0  0  0  0  0  0  0
   40.6000   26.5630   31.8120 C   0  0  0  0  0  0  0  0  0  0  0  0
   40.5470   25.2060   32.4540 C   0  0  0  0  0  0  0  0  0  0  0  0
   38.9920   24.0730   36.6240 C   0  0  0  0  0  0  0  0  0  0  0  0
   39.3830   24.8210   35.5120 C   0  0  0  0  0  0  0  0  0  0  0  0
   40.5680   24.5660   34.8710 C   0  0  0  0  0  0  0  0  0  0  0  0
   41.2910   23.5630   35.3930 N   0  0  0  0  0  0  0  0  0  0  0  0
   40.9540   22.8340   36.4380 C   0  0  0  0  0  0  0  0  0  0  0  0
   39.7840   23.0890   37.0710 N   0  0  0  0  0  0  0  0  0  0  0  0
   38.4060   25.7990   35.1820 C   0  0  0  0  0  0  0  0  0  0  0  0
   37.3100   26.2730   34.5710 C   0  0  0  0  0  0  0  0  0  0  0  0
   37.0200   27.5790   34.8990 C   0  0  0  0  0  0  0  0  0  0  0  0
   38.0130   27.8710   35.7530 N   0  0  0  0  0  0  0  0  0  0  0  0
   38.8430   26.8580   35.9440 N   0  0  0  0  0  0  0  0  0  0  0  0
   41.8750   21.7180   36.8700 C   0  0  0  0  0  0  0  0  0  0  0  0
   43.1520   22.1470   37.0210 F   0  0  0  0  0  0  0  0  0  0  0  0
   41.3060   21.2520   38.0630 F   0  0  0  0  0  0  0  0  0  0  0  0
   41.8480   20.6670   35.9820 F   0  0  0  0  0  0  0  0  0  0  0  0
   42.7470   26.1200   35.1600 N   0  0  0  0  0  0  0  0  0  0  0  0
   43.9810   25.5830   35.5490 C   0  0  0  0  0  0  0  0  0  0  0  0
   44.7270   25.4090   34.5380 N   0  0  0  0  0  0  0  0  0  0  0  0
   44.5140   25.2420   36.6320 O   0  0  0  0  0  0  0  0  0  0  0  0
   43.0423   25.5938   33.1574 H   0  0  0  0  0  0  0  0  0  0  0  0
   42.0897   28.1390   34.1761 H   0  0  0  0  0  0  0  0  0  0  0  0
   42.6900   27.6982   32.5326 H   0  0  0  0  0  0  0  0  0  0  0  0
   41.4744   26.6304   31.1480 H   0  0  0  0  0  0  0  0  0  0  0  0
   39.6971   26.7422   31.2098 H   0  0  0  0  0  0  0  0  0  0  0  0
   39.5014   24.8657   32.4833 H   0  0  0  0  0  0  0  0  0  0  0  0
   41.1673   24.5197   31.8589 H   0  0  0  0  0  0  0  0  0  0  0  0
   38.0397   24.2901   37.1300 H   0  0  0  0  0  0  0  0  0  0  0  0
   36.7016   25.6765   33.8753 H   0  0  0  0  0  0  0  0  0  0  0  0
   36.1923   28.2151   34.5522 H   0  0  0  0  0  0  0  0  0  0  0  0
   38.1182   28.7872   36.2117 H   0  0  0  0  0  0  0  0  0  0  0  0
   42.1569   26.5803   35.8676 H   0  0  0  0  0  0  0  0  0  0  0  0
   45.6729   25.0190   34.6569 H   0  0  0  0  0  0  0  0  0  0  0  0
   44.3869   25.6577   33.5981 H   0  0  0  0  0  0  0  0  0  0  0  0
  1  2  1  0
  1  9  1  0
  2 22  1  0
  3  2  1  0
  4  3  1  0
  5  6  1  0
  5  4  1  0
  6  1  1  0
  7 12  2  0
  8  7  1  0
  9 10  1  0
  9  8  2  0
 10 11  2  0
 11 18  1  0
 11 12  1  0
 13  8  1  0
 13 17  2  0
 14 15  2  0
 14 13  1  0
 15 16  1  0
 16 17  1  0
 18 19  1  0
 18 20  1  0
 21 18  1  0
 22 23  1  0
 23 25  2  0
 24 23  1  0
  2 26  1  6
  3 27  1  0
  3 28  1  0
  5 29  1  0
  5 30  1  0
  6 31  1  0
  6 32  1  0
  7 33  1  0
 14 34  1  0
 15 35  1  0
 16 36  1  0
 22 37  1  0
 24 38  1  0
 24 39  1  0
M  ISO  8  26  13  27  13  28  13  29  13  30  13  31  13  32  13  33  14
M  ISO  3  34  14  35  14  36   9
M  END
>  <minimizedAffinity>  (1) 
-5.19068241

>  <minimizedRMSD>  (1) 
2.21684027

$$$$
