
     RDKit          3D

 38 39  0  0  1  0  0  0  0  0999 V2000
   40.1420   24.9500   33.9770 N   0  0  0  0  0  0  0  0  0  0  0  0
   41.2330   25.8920   33.7450 C   0  0  1  0  0  0  0  0  0  0  0  0
   40.6750   27.2170   33.3200 C   0  0  0  0  0  0  0  0  0  0  0  0
   39.3070   27.1240   33.1170 O   0  0  0  0  0  0  0  0  0  0  0  0
   39.1110   26.1320   32.1420 C   0  0  0  0  0  0  0  0  0  0  0  0
   39.3580   24.7930   32.7970 C   0  0  0  0  0  0  0  0  0  0  0  0
   38.8110   23.7080   37.2390 C   0  0  0  0  0  0  0  0  0  0  0  0
   38.8820   24.4620   36.0630 C   0  0  0  0  0  0  0  0  0  0  0  0
   39.9360   24.2900   35.1910 C   0  0  0  0  0  0  0  0  0  0  0  0
   40.8530   23.3760   35.5490 N   0  0  0  0  0  0  0  0  0  0  0  0
   40.8220   22.6480   36.6430 C   0  0  0  0  0  0  0  0  0  0  0  0
   39.7760   22.8160   37.5110 N   0  0  0  0  0  0  0  0  0  0  0  0
   41.9390   21.6610   36.8940 C   0  0  0  0  0  0  0  0  0  0  0  0
   43.1470   22.2920   36.9650 F   0  0  0  0  0  0  0  0  0  0  0  0
   41.5930   21.0650   38.1100 F   0  0  0  0  0  0  0  0  0  0  0  0
   41.9610   20.6740   35.9590 F   0  0  0  0  0  0  0  0  0  0  0  0
   37.8530   25.4690   35.6960 C   0  0  0  0  0  0  0  0  0  0  0  0
   38.2700   26.8170   36.3090 C   0  0  0  0  0  0  0  0  0  0  0  0
   41.9360   26.0650   34.9770 N   0  0  0  0  0  0  0  0  0  0  0  0
   43.2640   25.6550   35.1400 C   0  0  0  0  0  0  0  0  0  0  0  0
   43.8110   25.4880   34.0060 N   0  0  0  0  0  0  0  0  0  0  0  0
   44.0430   25.4130   36.0850 O   0  0  0  0  0  0  0  0  0  0  0  0
   41.9012   25.5090   32.9596 H   0  0  0  0  0  0  0  0  0  0  0  0
   40.8750   27.9624   34.1038 H   0  0  0  0  0  0  0  0  0  0  0  0
   41.1551   27.5200   32.3778 H   0  0  0  0  0  0  0  0  0  0  0  0
   39.8161   26.2787   31.3106 H   0  0  0  0  0  0  0  0  0  0  0  0
   38.0886   26.1825   31.7394 H   0  0  0  0  0  0  0  0  0  0  0  0
   38.3929   24.3364   33.0620 H   0  0  0  0  0  0  0  0  0  0  0  0
   39.9027   24.1478   32.0920 H   0  0  0  0  0  0  0  0  0  0  0  0
   37.9707   23.8451   37.9355 H   0  0  0  0  0  0  0  0  0  0  0  0
   37.7921   25.5592   34.6014 H   0  0  0  0  0  0  0  0  0  0  0  0
   36.8666   25.1644   36.0757 H   0  0  0  0  0  0  0  0  0  0  0  0
   38.2473   26.7435   37.4063 H   0  0  0  0  0  0  0  0  0  0  0  0
   39.2885   27.0702   35.9795 H   0  0  0  0  0  0  0  0  0  0  0  0
   37.5724   27.6011   35.9795 H   0  0  0  0  0  0  0  0  0  0  0  0
   41.4495   26.5057   35.7707 H   0  0  0  0  0  0  0  0  0  0  0  0
   44.7937   25.1849   33.9479 H   0  0  0  0  0  0  0  0  0  0  0  0
   43.2719   25.6557   33.1445 H   0  0  0  0  0  0  0  0  0  0  0  0
  1  9  1  0
  2  1  1  0
  2 19  1  0
  3  2  1  0
  4  3  1  0
  5  6  1  0
  5  4  1  0
  6  1  1  0
  7 12  2  0
  8  7  1  0
  9 10  1  0
  9  8  2  0
 10 11  2  0
 11 13  1  0
 11 12  1  0
 13 14  1  0
 13 15  1  0
 16 13  1  0
 17  8  1  0
 17 18  1  0
 19 20  1  0
 20 22  2  0
 21 20  1  0
  2 23  1  6
  3 24  1  0
  3 25  1  0
  5 26  1  0
  5 27  1  0
  6 28  1  0
  6 29  1  0
  7 30  1  0
 17 31  1  0
 17 32  1  0
 18 33  1  0
 18 34  1  0
 18 35  1  0
 19 36  1  0
 21 37  1  0
 21 38  1  0
M  ISO  8  23  13  24  13  25  13  26  13  27  13  28  13  29  13  30  14
M  ISO  5  31   8  32   8  33   8  34   8  35   8
M  END
>  <minimizedAffinity>  (1) 
-4.75072384

>  <minimizedRMSD>  (1) 
1.25145614

$$$$
