
     RDKit          3D

 46 49  0  0  1  0  0  0  0  0999 V2000
   41.9770   20.9160   36.1130 C   0  0  0  0  0  0  0  0  0  0  0  0
   41.7670   22.1010   35.3760 C   0  0  0  0  0  0  0  0  0  0  0  0
   42.7590   22.8910   34.8880 C   0  0  0  0  0  0  0  0  0  0  0  0
   43.9780   22.3730   35.1630 N   0  0  0  0  0  0  0  0  0  0  0  0
   44.2650   21.2690   35.8390 C   0  0  0  0  0  0  0  0  0  0  0  0
   43.2650   20.5360   36.3440 N   0  0  0  0  0  0  0  0  0  0  0  0
   42.6730   24.0030   34.1520 N   0  0  0  0  0  0  0  0  0  0  0  0
   42.9430   25.3400   34.6650 C   0  0  1  0  0  0  0  0  0  0  0  0
   41.7390   26.2300   34.5190 C   0  0  0  0  0  0  0  0  0  0  0  0
   40.7740   25.6080   33.7620 O   0  0  0  0  0  0  0  0  0  0  0  0
   41.3280   25.2690   32.5430 C   0  0  0  0  0  0  0  0  0  0  0  0
   42.2870   24.0920   32.7560 C   0  0  0  0  0  0  0  0  0  0  0  0
   43.2260   25.2330   36.0800 N   0  0  0  0  0  0  0  0  0  0  0  0
   44.4590   25.6780   36.5680 C   0  0  0  0  0  0  0  0  0  0  0  0
   45.0370   26.4930   35.7810 N   0  0  0  0  0  0  0  0  0  0  0  0
   45.0860   25.4500   37.7080 O   0  0  0  0  0  0  0  0  0  0  0  0
   40.3870   22.2550   35.0530 C   0  0  0  0  0  0  0  0  0  0  0  0
   39.7570   21.7530   33.9460 N   0  0  0  0  0  0  0  0  0  0  0  0
   38.4720   21.9100   33.6430 C   0  0  0  0  0  0  0  0  0  0  0  0
   37.7870   22.6780   34.6590 N   0  0  0  0  0  0  0  0  0  0  0  0
   38.5940   23.0540   35.6510 C   0  0  0  0  0  0  0  0  0  0  0  0
   37.6570   23.1130   36.7810 C   0  0  0  0  0  0  0  0  0  0  0  0
   38.4260   23.1840   37.9790 C   0  0  0  0  0  0  0  0  0  0  0  0
   39.6420   23.2070   38.4110 C   0  0  0  0  0  0  0  0  0  0  0  0
   40.5300   23.1610   37.3290 C   0  0  0  0  0  0  0  0  0  0  0  0
   39.8380   23.0850   36.2030 C   0  0  0  0  0  0  0  0  0  0  0  0
   45.6980   20.8540   35.9610 C   0  0  0  0  0  0  0  0  0  0  0  0
   46.5000   21.8920   36.3890 F   0  0  0  0  0  0  0  0  0  0  0  0
   45.6980   19.7650   36.8190 F   0  0  0  0  0  0  0  0  0  0  0  0
   46.2210   20.3920   34.7520 F   0  0  0  0  0  0  0  0  0  0  0  0
   41.1313   20.3205   36.4875 H   0  0  0  0  0  0  0  0  0  0  0  0
   43.7856   25.7664   34.1010 H   0  0  0  0  0  0  0  0  0  0  0  0
   41.3302   26.4536   35.5154 H   0  0  0  0  0  0  0  0  0  0  0  0
   42.0414   27.1613   34.0178 H   0  0  0  0  0  0  0  0  0  0  0  0
   41.8799   26.1283   32.1343 H   0  0  0  0  0  0  0  0  0  0  0  0
   40.5358   24.9866   31.8340 H   0  0  0  0  0  0  0  0  0  0  0  0
   41.7877   23.1585   32.4574 H   0  0  0  0  0  0  0  0  0  0  0  0
   43.1880   24.2496   32.1450 H   0  0  0  0  0  0  0  0  0  0  0  0
   42.5264   24.8331   36.7215 H   0  0  0  0  0  0  0  0  0  0  0  0
   45.9535   26.8899   36.0329 H   0  0  0  0  0  0  0  0  0  0  0  0
   44.5886   26.7561   34.8918 H   0  0  0  0  0  0  0  0  0  0  0  0
   37.9927   21.5083   32.7381 H   0  0  0  0  0  0  0  0  0  0  0  0
   36.5591   23.1040   36.7145 H   0  0  0  0  0  0  0  0  0  0  0  0
   37.7417   23.2384   38.8386 H   0  0  0  0  0  0  0  0  0  0  0  0
   39.9366   23.2554   39.4697 H   0  0  0  0  0  0  0  0  0  0  0  0
   41.6273   23.1843   37.4030 H   0  0  0  0  0  0  0  0  0  0  0  0
  1  6  2  0
  2  1  1  0
  3  4  1  0
  3  2  2  0
  4  5  2  0
  5 27  1  0
  5  6  1  0
  7  8  1  0
  7  3  1  0
  8 13  1  0
  9  8  1  0
 10  9  1  0
 11 12  1  0
 11 10  1  0
 12  7  1  0
 13 14  1  0
 14 16  2  0
 15 14  1  0
 17  2  1  0
 17 26  1  0
 18 17  2  0
 19 18  1  0
 19 20  2  0
 20 21  1  0
 21 26  2  0
 21 22  1  0
 22 23  2  0
 23 24  1  0
 25 24  2  0
 26 25  1  0
 27 28  1  0
 27 29  1  0
 30 27  1  0
  1 31  1  0
  8 32  1  6
  9 33  1  0
  9 34  1  0
 11 35  1  0
 11 36  1  0
 12 37  1  0
 12 38  1  0
 13 39  1  0
 15 40  1  0
 15 41  1  0
 19 42  1  0
 22 43  1  0
 23 44  1  0
 24 45  1  0
 25 46  1  0
M  ISO  8  31  14  32  13  33  13  34  13  35  13  36  13  37  13  38  13
M  ISO  5  42  14  43  14  44  14  45  14  46  14
M  END
>  <minimizedAffinity>  (1) 
-4.82151651

>  <minimizedRMSD>  (1) 
4.22584152

$$$$
