
     RDKit          3D

 39 40  0  0  1  0  0  0  0  0999 V2000
   41.0330   24.1800   34.6550 N   0  0  0  0  0  0  0  0  0  0  0  0
   41.7260   25.4620   34.5570 C   0  0  1  0  0  0  0  0  0  0  0  0
   40.7410   26.5850   34.7260 C   0  0  0  0  0  0  0  0  0  0  0  0
   39.4530   26.1020   34.7440 O   0  0  0  0  0  0  0  0  0  0  0  0
   39.2540   25.3960   33.5560 C   0  0  0  0  0  0  0  0  0  0  0  0
   40.0110   24.0960   33.6660 C   0  0  0  0  0  0  0  0  0  0  0  0
   41.0550   21.7100   37.4410 C   0  0  0  0  0  0  0  0  0  0  0  0
   40.5830   22.7260   36.6080 C   0  0  0  0  0  0  0  0  0  0  0  0
   41.3670   23.1910   35.5720 C   0  0  0  0  0  0  0  0  0  0  0  0
   42.5690   22.6090   35.4390 N   0  0  0  0  0  0  0  0  0  0  0  0
   43.0440   21.6510   36.2040 C   0  0  0  0  0  0  0  0  0  0  0  0
   42.2730   21.1880   37.2310 N   0  0  0  0  0  0  0  0  0  0  0  0
   39.2790   23.2590   36.8080 N   0  0  0  0  0  0  0  0  0  0  0  0
   38.6220   23.2040   38.0690 C   0  0  0  0  0  0  0  0  0  0  0  0
   39.3390   23.5700   39.1070 N   0  0  0  0  0  0  0  0  0  0  0  0
   37.2470   22.7670   38.1610 N   0  0  0  0  0  0  0  0  0  0  0  0
   38.8470   23.5250   40.0260 H   0  0  0  0  0  0  0  0  0  0  0  0
   44.4170   21.0980   35.9090 C   0  0  0  0  0  0  0  0  0  0  0  0
   45.3860   22.0170   36.1450 F   0  0  0  0  0  0  0  0  0  0  0  0
   44.5260   19.9860   36.7460 F   0  0  0  0  0  0  0  0  0  0  0  0
   44.5060   20.6270   34.6200 F   0  0  0  0  0  0  0  0  0  0  0  0
   42.6790   25.5350   35.6190 N   0  0  0  0  0  0  0  0  0  0  0  0
   44.0470   25.6910   35.3830 C   0  0  0  0  0  0  0  0  0  0  0  0
   44.2360   26.1290   34.2060 N   0  0  0  0  0  0  0  0  0  0  0  0
   45.1120   25.5180   36.0130 O   0  0  0  0  0  0  0  0  0  0  0  0
   42.2176   25.5466   33.5766 H   0  0  0  0  0  0  0  0  0  0  0  0
   40.9451   27.1051   35.6735 H   0  0  0  0  0  0  0  0  0  0  0  0
   40.8470   27.2795   33.8796 H   0  0  0  0  0  0  0  0  0  0  0  0
   39.6333   25.9801   32.7045 H   0  0  0  0  0  0  0  0  0  0  0  0
   38.1826   25.2067   33.3938 H   0  0  0  0  0  0  0  0  0  0  0  0
   39.3100   23.2942   33.9409 H   0  0  0  0  0  0  0  0  0  0  0  0
   40.4812   23.8821   32.6948 H   0  0  0  0  0  0  0  0  0  0  0  0
   40.4304   21.3386   38.2668 H   0  0  0  0  0  0  0  0  0  0  0  0
   38.7942   23.6995   36.0131 H   0  0  0  0  0  0  0  0  0  0  0  0
   36.7786   22.7300   39.0776 H   0  0  0  0  0  0  0  0  0  0  0  0
   36.7358   22.4926   37.3100 H   0  0  0  0  0  0  0  0  0  0  0  0
   42.3461   25.4704   36.5916 H   0  0  0  0  0  0  0  0  0  0  0  0
   45.1937   26.3010   33.8681 H   0  0  0  0  0  0  0  0  0  0  0  0
   43.4316   26.3122   33.5893 H   0  0  0  0  0  0  0  0  0  0  0  0
  1  9  1  0
  2  1  1  0
  2  3  1  0
  2 22  1  0
  3  4  1  0
  5  6  1  0
  5  4  1  0
  6  1  1  0
  8 13  1  0
  8  7  2  0
  9  8  1  0
 10  9  2  0
 10 11  1  0
 11 12  2  0
 12  7  1  0
 13 14  1  0
 14 16  1  0
 14 15  2  0
 15 17  1  0
 18 19  1  0
 18 11  1  0
 18 20  1  0
 21 18  1  0
 23 22  1  0
 23 25  2  0
 24 23  1  0
  2 26  1  6
  3 27  1  0
  3 28  1  0
  5 29  1  0
  5 30  1  0
  6 31  1  0
  6 32  1  0
  7 33  1  0
 13 34  1  0
 16 35  1  0
 16 36  1  0
 22 37  1  0
 24 38  1  0
 24 39  1  0
M  ISO  8  26  13  27  13  28  13  29  13  30  13  31  13  32  13  33  14
M  END
>  <minimizedAffinity>  (1) 
-4.71386909

>  <minimizedRMSD>  (1) 
2.99148488

$$$$
