
     RDKit          3D

 34 35  0  0  1  0  0  0  0  0999 V2000
   40.1890   24.6250   34.2980 N   0  0  0  0  0  0  0  0  0  0  0  0
   41.1720   25.6620   34.0000 C   0  0  1  0  0  0  0  0  0  0  0  0
   40.4660   26.9490   33.6820 C   0  0  0  0  0  0  0  0  0  0  0  0
   39.1080   26.7540   33.5820 O   0  0  0  0  0  0  0  0  0  0  0  0
   38.9080   25.7760   32.5930 C   0  0  0  0  0  0  0  0  0  0  0  0
   39.2960   24.4390   33.1900 C   0  0  0  0  0  0  0  0  0  0  0  0
   39.2800   23.1900   37.6130 C   0  0  0  0  0  0  0  0  0  0  0  0
   39.1980   23.9840   36.4720 C   0  0  0  0  0  0  0  0  0  0  0  0
   40.1490   23.9080   35.4800 C   0  0  0  0  0  0  0  0  0  0  0  0
   41.1330   23.0250   35.7050 N   0  0  0  0  0  0  0  0  0  0  0  0
   41.2630   22.2510   36.7580 C   0  0  0  0  0  0  0  0  0  0  0  0
   40.3100   22.3340   37.7400 N   0  0  0  0  0  0  0  0  0  0  0  0
   42.4310   21.3080   36.8450 C   0  0  0  0  0  0  0  0  0  0  0  0
   43.6160   21.9640   36.7400 F   0  0  0  0  0  0  0  0  0  0  0  0
   42.2750   20.6880   38.0890 F   0  0  0  0  0  0  0  0  0  0  0  0
   42.3550   20.3230   35.8900 F   0  0  0  0  0  0  0  0  0  0  0  0
   38.0810   24.8950   36.3330 C   0  0  0  0  0  0  0  0  0  0  0  0
   38.1130   26.1220   36.5840 O   0  0  0  0  0  0  0  0  0  0  0  0
   41.9630   25.8620   35.1750 N   0  0  0  0  0  0  0  0  0  0  0  0
   43.3310   25.5830   35.2130 C   0  0  0  0  0  0  0  0  0  0  0  0
   43.7890   25.5210   34.0320 N   0  0  0  0  0  0  0  0  0  0  0  0
   44.2050   25.3840   36.0820 O   0  0  0  0  0  0  0  0  0  0  0  0
   41.7934   25.3609   33.1437 H   0  0  0  0  0  0  0  0  0  0  0  0
   40.6671   27.6769   34.4819 H   0  0  0  0  0  0  0  0  0  0  0  0
   40.8384   27.3242   32.7174 H   0  0  0  0  0  0  0  0  0  0  0  0
   39.5373   25.9932   31.7173 H   0  0  0  0  0  0  0  0  0  0  0  0
   37.8577   25.7644   32.2663 H   0  0  0  0  0  0  0  0  0  0  0  0
   38.3901   23.9210   33.5379 H   0  0  0  0  0  0  0  0  0  0  0  0
   39.8033   23.8388   32.4203 H   0  0  0  0  0  0  0  0  0  0  0  0
   38.5138   23.2617   38.3990 H   0  0  0  0  0  0  0  0  0  0  0  0
   37.1277   24.4760   35.9785 H   0  0  0  0  0  0  0  0  0  0  0  0
   41.5070   26.2251   36.0242 H   0  0  0  0  0  0  0  0  0  0  0  0
   44.7876   25.3222   33.8767 H   0  0  0  0  0  0  0  0  0  0  0  0
   43.1624   25.6695   33.2282 H   0  0  0  0  0  0  0  0  0  0  0  0
  1  9  1  0
  2  1  1  0
  2 19  1  0
  3  2  1  0
  4  3  1  0
  5  6  1  0
  5  4  1  0
  6  1  1  0
  7 12  2  0
  8  7  1  0
  9 10  1  0
  9  8  2  0
 10 11  2  0
 11 13  1  0
 11 12  1  0
 13 15  1  0
 14 13  1  0
 16 13  1  0
 17  8  1  0
 17 18  2  0
 19 20  1  0
 20 22  2  0
 21 20  1  0
  2 23  1  6
  3 24  1  0
  3 25  1  0
  5 26  1  0
  5 27  1  0
  6 28  1  0
  6 29  1  0
  7 30  1  0
 17 31  1  0
 19 32  1  0
 21 33  1  0
 21 34  1  0
M  ISO  8  23  13  24  13  25  13  26  13  27  13  28  13  29  13  30  14
M  ISO  1  31   6
M  END
>  <minimizedAffinity>  (1) 
-4.53470182

>  <minimizedRMSD>  (1) 
1.24672425

$$$$
