
     RDKit          3D

 43 45  0  0  1  0  0  0  0  0999 V2000
   39.7370   24.0490   33.6310 N   0  0  0  0  0  0  0  0  0  0  0  0
   41.1400   23.5990   33.5980 C   0  0  1  0  0  0  0  0  0  0  0  0
   41.7720   24.0380   32.3260 C   0  0  0  0  0  0  0  0  0  0  0  0
   40.8750   24.6330   31.4890 O   0  0  0  0  0  0  0  0  0  0  0  0
   39.8640   23.7070   31.2370 C   0  0  0  0  0  0  0  0  0  0  0  0
   39.0460   23.5440   32.4890 C   0  0  0  0  0  0  0  0  0  0  0  0
   38.3210   26.7890   35.7210 C   0  0  0  0  0  0  0  0  0  0  0  0
   38.8670   26.1490   34.5910 C   0  0  0  0  0  0  0  0  0  0  0  0
   39.1950   24.8220   34.6450 C   0  0  0  0  0  0  0  0  0  0  0  0
   38.9720   24.1800   35.8080 N   0  0  0  0  0  0  0  0  0  0  0  0
   38.4590   24.7530   36.8880 C   0  0  0  0  0  0  0  0  0  0  0  0
   38.1260   26.0780   36.8510 N   0  0  0  0  0  0  0  0  0  0  0  0
   41.8000   24.1550   34.7260 N   0  0  0  0  0  0  0  0  0  0  0  0
   42.4340   23.4260   35.7150 C   0  0  0  0  0  0  0  0  0  0  0  0
   42.7010   22.3180   35.2060 N   0  0  0  0  0  0  0  0  0  0  0  0
   42.8400   23.4160   36.8790 O   0  0  0  0  0  0  0  0  0  0  0  0
   38.2670   23.8850   38.1220 C   0  0  0  0  0  0  0  0  0  0  0  0
   39.4450   23.3000   38.4840 F   0  0  0  0  0  0  0  0  0  0  0  0
   37.8440   24.7990   39.0970 F   0  0  0  0  0  0  0  0  0  0  0  0
   37.2900   22.9660   37.9630 F   0  0  0  0  0  0  0  0  0  0  0  0
   39.0580   26.8570   33.3160 C   0  0  0  0  0  0  0  0  0  0  0  0
   37.7400   26.8840   32.6320 C   0  0  0  0  0  0  0  0  0  0  0  0
   37.2050   28.1690   32.7340 C   0  0  0  0  0  0  0  0  0  0  0  0
   36.0230   28.6560   32.2490 C   0  0  0  0  0  0  0  0  0  0  0  0
   35.2270   27.7840   31.5600 N   0  0  0  0  0  0  0  0  0  0  0  0
   35.6980   26.4900   31.4200 C   0  0  0  0  0  0  0  0  0  0  0  0
   36.8590   26.1860   31.9490 N   0  0  0  0  0  0  0  0  0  0  0  0
   41.2087   22.5020   33.6411 H   0  0  0  0  0  0  0  0  0  0  0  0
   42.5729   24.7559   32.5566 H   0  0  0  0  0  0  0  0  0  0  0  0
   42.1705   23.1468   31.8191 H   0  0  0  0  0  0  0  0  0  0  0  0
   39.2236   24.0696   30.4195 H   0  0  0  0  0  0  0  0  0  0  0  0
   40.3009   22.7413   30.9428 H   0  0  0  0  0  0  0  0  0  0  0  0
   38.0994   24.0919   32.3721 H   0  0  0  0  0  0  0  0  0  0  0  0
   38.8590   22.4711   32.6435 H   0  0  0  0  0  0  0  0  0  0  0  0
   38.0567   27.8561   35.6825 H   0  0  0  0  0  0  0  0  0  0  0  0
   41.8069   25.1812   34.8141 H   0  0  0  0  0  0  0  0  0  0  0  0
   43.1821   21.5977   35.7634 H   0  0  0  0  0  0  0  0  0  0  0  0
   42.4402   22.1240   34.2286 H   0  0  0  0  0  0  0  0  0  0  0  0
   39.4078   27.8831   33.5025 H   0  0  0  0  0  0  0  0  0  0  0  0
   39.8119   26.3507   32.6952 H   0  0  0  0  0  0  0  0  0  0  0  0
   37.8231   28.8942   33.2836 H   0  0  0  0  0  0  0  0  0  0  0  0
   35.7257   29.7033   32.4063 H   0  0  0  0  0  0  0  0  0  0  0  0
   35.1118   25.7337   30.8773 H   0  0  0  0  0  0  0  0  0  0  0  0
  1  9  1  0
  2  1  1  0
  2 13  1  0
  3  2  1  0
  4  3  1  0
  5  4  1  0
  5  6  1  0
  6  1  1  0
  7 12  2  0
  8  9  2  0
  8  7  1  0
  9 10  1  0
 10 11  2  0
 11 17  1  0
 12 11  1  0
 13 14  1  0
 14 16  2  0
 15 14  1  0
 17 18  1  0
 17 19  1  0
 20 17  1  0
 21  8  1  0
 22 23  2  0
 22 21  1  0
 24 23  1  0
 25 24  2  0
 26 25  1  0
 26 27  2  0
 27 22  1  0
  2 28  1  1
  3 29  1  0
  3 30  1  0
  5 31  1  0
  5 32  1  0
  6 33  1  0
  6 34  1  0
  7 35  1  0
 13 36  1  0
 15 37  1  0
 15 38  1  0
 21 39  1  0
 21 40  1  0
 23 41  1  0
 24 42  1  0
 26 43  1  0
M  ISO  8  28  13  29  13  30  13  31  13  32  13  33  13  34  13  35  14
M  ISO  5  39   8  40   8  41  14  42  14  43  14
M  END
>  <minimizedAffinity>  (1) 
-5.2467761

>  <minimizedRMSD>  (1) 
4.47058105

$$$$
