
     RDKit          3D

 45 47  0  0  1  0  0  0  0  0999 V2000
   40.2260   24.1940   33.6200 N   0  0  0  0  0  0  0  0  0  0  0  0
   41.5010   23.4740   33.7580 C   0  0  1  0  0  0  0  0  0  0  0  0
   42.4610   23.9570   32.7350 C   0  0  0  0  0  0  0  0  0  0  0  0
   41.9010   24.8670   31.8920 O   0  0  0  0  0  0  0  0  0  0  0  0
   40.8240   24.2030   31.2750 C   0  0  0  0  0  0  0  0  0  0  0  0
   39.7220   24.0330   32.3020 C   0  0  0  0  0  0  0  0  0  0  0  0
   38.9160   26.8220   35.9250 C   0  0  0  0  0  0  0  0  0  0  0  0
   39.5620   26.2690   34.8080 C   0  0  0  0  0  0  0  0  0  0  0  0
   39.6200   24.8980   34.6550 C   0  0  0  0  0  0  0  0  0  0  0  0
   39.0390   24.1440   35.6100 N   0  0  0  0  0  0  0  0  0  0  0  0
   38.4240   24.6380   36.6730 C   0  0  0  0  0  0  0  0  0  0  0  0
   38.3560   26.0060   36.8420 N   0  0  0  0  0  0  0  0  0  0  0  0
   41.9970   23.6960   35.0740 N   0  0  0  0  0  0  0  0  0  0  0  0
   41.8000   22.8490   36.1530 C   0  0  0  0  0  0  0  0  0  0  0  0
   41.5500   21.7300   35.6660 N   0  0  0  0  0  0  0  0  0  0  0  0
   41.7700   22.7520   37.3810 O   0  0  0  0  0  0  0  0  0  0  0  0
   37.8260   23.6680   37.6600 C   0  0  0  0  0  0  0  0  0  0  0  0
   38.7520   22.7810   38.0970 F   0  0  0  0  0  0  0  0  0  0  0  0
   37.3660   24.4820   38.6980 F   0  0  0  0  0  0  0  0  0  0  0  0
   36.7490   23.0200   37.1550 F   0  0  0  0  0  0  0  0  0  0  0  0
   40.1250   27.0960   33.7340 C   0  0  0  0  0  0  0  0  0  0  0  0
   38.9830   27.3720   32.8360 N   0  0  0  0  0  0  0  0  0  0  0  0
   39.4950   27.4960   31.5810 C   0  0  0  0  0  0  0  0  0  0  0  0
   38.7720   27.7360   30.4150 C   0  0  0  0  0  0  0  0  0  0  0  0
   37.3920   27.8630   30.5410 C   0  0  0  0  0  0  0  0  0  0  0  0
   36.5650   28.0810   29.6160 O   0  0  0  0  0  0  0  0  0  0  0  0
   36.8870   27.7410   31.7770 N   0  0  0  0  0  0  0  0  0  0  0  0
   37.6660   27.5120   32.8170 C   0  0  0  0  0  0  0  0  0  0  0  0
   37.2480   27.3880   33.9920 O   0  0  0  0  0  0  0  0  0  0  0  0
   41.3582   22.3946   33.6013 H   0  0  0  0  0  0  0  0  0  0  0  0
   43.3156   24.4257   33.2448 H   0  0  0  0  0  0  0  0  0  0  0  0
   42.7778   23.0915   32.1346 H   0  0  0  0  0  0  0  0  0  0  0  0
   40.4548   24.7996   30.4278 H   0  0  0  0  0  0  0  0  0  0  0  0
   41.1478   23.2213   30.8988 H   0  0  0  0  0  0  0  0  0  0  0  0
   38.9417   24.7868   32.1206 H   0  0  0  0  0  0  0  0  0  0  0  0
   39.3072   23.0187   32.2066 H   0  0  0  0  0  0  0  0  0  0  0  0
   38.8667   27.9136   36.0518 H   0  0  0  0  0  0  0  0  0  0  0  0
   42.5449   24.5529   35.2367 H   0  0  0  0  0  0  0  0  0  0  0  0
   41.3657   20.9282   36.2857 H   0  0  0  0  0  0  0  0  0  0  0  0
   41.5276   21.6066   34.6437 H   0  0  0  0  0  0  0  0  0  0  0  0
   40.5348   28.0327   34.1398 H   0  0  0  0  0  0  0  0  0  0  0  0
   40.9532   26.5940   33.2124 H   0  0  0  0  0  0  0  0  0  0  0  0
   40.5856   27.3971   31.4776 H   0  0  0  0  0  0  0  0  0  0  0  0
   39.2698   27.8214   29.4378 H   0  0  0  0  0  0  0  0  0  0  0  0
   35.8703   27.8278   31.9175 H   0  0  0  0  0  0  0  0  0  0  0  0
  1  2  1  0
  1  9  1  0
  2 13  1  0
  3  2  1  0
  4  3  1  0
  5  4  1  0
  5  6  1  0
  6  1  1  0
  7 12  2  0
  8  7  1  0
  9  8  2  0
  9 10  1  0
 10 11  2  0
 11 12  1  0
 11 17  1  0
 13 14  1  0
 14 16  2  0
 15 14  1  0
 17 18  1  0
 17 19  1  0
 20 17  1  0
 21  8  1  0
 22 21  1  0
 23 22  1  0
 24 25  1  0
 24 23  2  0
 25 27  1  0
 26 25  2  0
 27 28  1  0
 28 22  1  0
 28 29  2  0
  2 30  1  6
  3 31  1  0
  3 32  1  0
  5 33  1  0
  5 34  1  0
  6 35  1  0
  6 36  1  0
  7 37  1  0
 13 38  1  0
 15 39  1  0
 15 40  1  0
 21 41  1  0
 21 42  1  0
 23 43  1  0
 24 44  1  0
 27 45  1  0
M  ISO  8  30  13  31  13  32  13  33  13  34  13  35  13  36  13  37  14
M  ISO  5  41   8  42   8  43  14  44  14  45   9
M  END
>  <minimizedAffinity>  (1) 
-5.1784811

>  <minimizedRMSD>  (1) 
5.47673368

$$$$
