
     RDKit          3D

 42 44  0  0  1  0  0  0  0  0999 V2000
   40.7060   22.9500   35.1050 N   0  0  0  0  0  0  0  0  0  0  0  0
   40.2200   22.2590   36.3120 C   0  0  1  0  0  0  0  0  0  0  0  0
   41.3540   21.5730   36.9800 C   0  0  0  0  0  0  0  0  0  0  0  0
   42.5160   21.6960   36.2810 O   0  0  0  0  0  0  0  0  0  0  0  0
   42.2590   21.1040   35.0260 C   0  0  0  0  0  0  0  0  0  0  0  0
   41.3700   22.0300   34.2470 C   0  0  0  0  0  0  0  0  0  0  0  0
   41.1210   26.6440   34.6790 C   0  0  0  0  0  0  0  0  0  0  0  0
   41.4710   25.3120   34.9470 C   0  0  0  0  0  0  0  0  0  0  0  0
   40.5150   24.3060   34.8590 C   0  0  0  0  0  0  0  0  0  0  0  0
   39.2750   24.6730   34.5170 N   0  0  0  0  0  0  0  0  0  0  0  0
   38.9110   25.9200   34.2580 C   0  0  0  0  0  0  0  0  0  0  0  0
   39.8480   26.9320   34.3370 N   0  0  0  0  0  0  0  0  0  0  0  0
   39.6300   23.2330   37.1660 N   0  0  0  0  0  0  0  0  0  0  0  0
   38.2680   23.4030   37.3490 C   0  0  0  0  0  0  0  0  0  0  0  0
   37.7400   22.3210   37.0180 N   0  0  0  0  0  0  0  0  0  0  0  0
   37.3750   24.1880   37.7020 O   0  0  0  0  0  0  0  0  0  0  0  0
   37.4710   26.1810   33.8920 C   0  0  0  0  0  0  0  0  0  0  0  0
   36.7200   26.4150   34.9990 F   0  0  0  0  0  0  0  0  0  0  0  0
   37.5330   27.3110   33.0650 F   0  0  0  0  0  0  0  0  0  0  0  0
   36.9380   25.1730   33.1620 F   0  0  0  0  0  0  0  0  0  0  0  0
   42.8500   24.8990   35.2430 C   0  0  0  0  0  0  0  0  0  0  0  0
   43.4600   24.7570   33.8840 N   0  0  0  0  0  0  0  0  0  0  0  0
   43.3940   24.9800   32.5650 C   0  0  0  0  0  0  0  0  0  0  0  0
   44.4570   24.4380   31.8990 C   0  0  0  0  0  0  0  0  0  0  0  0
   45.2420   23.8410   32.8210 N   0  0  0  0  0  0  0  0  0  0  0  0
   44.6220   24.0450   34.0200 C   0  0  0  0  0  0  0  0  0  0  0  0
   39.4698   21.4959   36.0572 H   0  0  0  0  0  0  0  0  0  0  0  0
   41.4939   22.0116   37.9790 H   0  0  0  0  0  0  0  0  0  0  0  0
   41.1102   20.5022   37.0422 H   0  0  0  0  0  0  0  0  0  0  0  0
   43.2045   20.9518   34.4848 H   0  0  0  0  0  0  0  0  0  0  0  0
   41.7700   20.1275   35.1581 H   0  0  0  0  0  0  0  0  0  0  0  0
   41.9813   22.5906   33.5245 H   0  0  0  0  0  0  0  0  0  0  0  0
   40.6099   21.4277   33.7279 H   0  0  0  0  0  0  0  0  0  0  0  0
   41.8743   27.4427   34.7468 H   0  0  0  0  0  0  0  0  0  0  0  0
   40.2628   23.8574   37.6862 H   0  0  0  0  0  0  0  0  0  0  0  0
   36.7175   22.2093   37.0716 H   0  0  0  0  0  0  0  0  0  0  0  0
   38.3270   21.5402   36.6914 H   0  0  0  0  0  0  0  0  0  0  0  0
   43.3739   25.6654   35.8330 H   0  0  0  0  0  0  0  0  0  0  0  0
   42.9068   23.9776   35.8412 H   0  0  0  0  0  0  0  0  0  0  0  0
   42.5798   25.5343   32.0754 H   0  0  0  0  0  0  0  0  0  0  0  0
   44.6390   24.4802   30.8150 H   0  0  0  0  0  0  0  0  0  0  0  0
   45.0102   23.6803   34.9825 H   0  0  0  0  0  0  0  0  0  0  0  0
  1  2  1  0
  2  3  1  0
  2 13  1  0
  4  3  1  0
  5  4  1  0
  6  5  1  0
  6  1  1  0
  7  8  2  0
  8 21  1  0
  9  8  1  0
  9  1  1  0
 10  9  2  0
 11 12  2  0
 11 10  1  0
 12  7  1  0
 13 14  1  0
 14 16  2  0
 15 14  1  0
 17 11  1  0
 17 18  1  0
 19 17  1  0
 20 17  1  0
 22 26  1  0
 22 21  1  0
 23 22  1  0
 24 23  2  0
 24 25  1  0
 25 26  2  0
  2 27  1  6
  3 28  1  0
  3 29  1  0
  5 30  1  0
  5 31  1  0
  6 32  1  0
  6 33  1  0
  7 34  1  0
 13 35  1  0
 15 36  1  0
 15 37  1  0
 21 38  1  0
 21 39  1  0
 23 40  1  0
 24 41  1  0
 26 42  1  0
M  ISO  8  27  13  28  13  29  13  30  13  31  13  32  13  33  13  34  14
M  ISO  5  38   8  39   8  40  14  41  14  42  14
M  END
>  <minimizedAffinity>  (1) 
-4.66157198

>  <minimizedRMSD>  (1) 
6.79394388

$$$$
