
     RDKit          3D

 41 43  0  0  1  0  0  0  0  0999 V2000
   40.7640   22.8890   35.1590 N   0  0  0  0  0  0  0  0  0  0  0  0
   40.2540   22.2100   36.3610 C   0  0  1  0  0  0  0  0  0  0  0  0
   41.3680   21.5290   37.0630 C   0  0  0  0  0  0  0  0  0  0  0  0
   42.5430   21.6260   36.3760 O   0  0  0  0  0  0  0  0  0  0  0  0
   42.3270   21.0460   35.1270 C   0  0  0  0  0  0  0  0  0  0  0  0
   41.4300   21.9370   34.3280 C   0  0  0  0  0  0  0  0  0  0  0  0
   41.1950   26.5580   34.6860 C   0  0  0  0  0  0  0  0  0  0  0  0
   41.5410   25.2190   34.9780 C   0  0  0  0  0  0  0  0  0  0  0  0
   40.5840   24.2320   34.8870 C   0  0  0  0  0  0  0  0  0  0  0  0
   39.3490   24.6070   34.5180 N   0  0  0  0  0  0  0  0  0  0  0  0
   38.9900   25.8500   34.2370 C   0  0  0  0  0  0  0  0  0  0  0  0
   39.9300   26.8530   34.3220 N   0  0  0  0  0  0  0  0  0  0  0  0
   39.6370   23.1890   37.1880 N   0  0  0  0  0  0  0  0  0  0  0  0
   38.2740   23.3800   37.3220 C   0  0  0  0  0  0  0  0  0  0  0  0
   37.7440   22.3020   36.9860 N   0  0  0  0  0  0  0  0  0  0  0  0
   37.3750   24.1620   37.6320 O   0  0  0  0  0  0  0  0  0  0  0  0
   37.5640   26.1110   33.8340 C   0  0  0  0  0  0  0  0  0  0  0  0
   36.7880   26.3660   34.9180 F   0  0  0  0  0  0  0  0  0  0  0  0
   37.6520   27.2160   32.9820 F   0  0  0  0  0  0  0  0  0  0  0  0
   37.0420   25.0750   33.1070 F   0  0  0  0  0  0  0  0  0  0  0  0
   42.9070   24.8460   35.3410 C   0  0  0  0  0  0  0  0  0  0  0  0
   43.8560   25.4800   34.4470 N   0  0  0  0  0  0  0  0  0  0  0  0
   44.3540   25.8000   33.2480 C   0  0  0  0  0  0  0  0  0  0  0  0
   45.4110   26.6220   33.3140 N   0  0  0  0  0  0  0  0  0  0  0  0
   45.6150   26.8480   34.6110 C   0  0  0  0  0  0  0  0  0  0  0  0
   44.6890   26.1670   35.2760 N   0  0  0  0  0  0  0  0  0  0  0  0
   39.5138   21.4408   36.0955 H   0  0  0  0  0  0  0  0  0  0  0  0
   41.4972   21.9894   38.0536 H   0  0  0  0  0  0  0  0  0  0  0  0
   41.1128   20.4625   37.1489 H   0  0  0  0  0  0  0  0  0  0  0  0
   43.2876   20.9250   34.6049 H   0  0  0  0  0  0  0  0  0  0  0  0
   41.8579   20.0587   35.2505 H   0  0  0  0  0  0  0  0  0  0  0  0
   42.0328   22.4742   33.5810 H   0  0  0  0  0  0  0  0  0  0  0  0
   40.6680   21.3119   33.8395 H   0  0  0  0  0  0  0  0  0  0  0  0
   41.9516   27.3535   34.7551 H   0  0  0  0  0  0  0  0  0  0  0  0
   40.2565   23.8066   37.7319 H   0  0  0  0  0  0  0  0  0  0  0  0
   36.7189   22.2041   37.0054 H   0  0  0  0  0  0  0  0  0  0  0  0
   38.3315   21.5098   36.6891 H   0  0  0  0  0  0  0  0  0  0  0  0
   43.1092   25.1687   36.3730 H   0  0  0  0  0  0  0  0  0  0  0  0
   43.0134   23.7542   35.2599 H   0  0  0  0  0  0  0  0  0  0  0  0
   43.9376   25.4258   32.3011 H   0  0  0  0  0  0  0  0  0  0  0  0
   46.4021   27.4796   35.0486 H   0  0  0  0  0  0  0  0  0  0  0  0
  1  2  1  0
  2  3  1  0
  2 13  1  0
  4  3  1  0
  5  4  1  0
  6  5  1  0
  6  1  1  0
  7  8  2  0
  8 21  1  0
  9  8  1  0
  9  1  1  0
 10  9  2  0
 11 12  2  0
 11 10  1  0
 12  7  1  0
 13 14  1  0
 14 16  2  0
 15 14  1  0
 17 11  1  0
 17 18  1  0
 19 17  1  0
 20 17  1  0
 22 26  1  0
 22 21  1  0
 23 24  2  0
 23 22  1  0
 24 25  1  0
 25 26  2  0
  2 27  1  6
  3 28  1  0
  3 29  1  0
  5 30  1  0
  5 31  1  0
  6 32  1  0
  6 33  1  0
  7 34  1  0
 13 35  1  0
 15 36  1  0
 15 37  1  0
 21 38  1  0
 21 39  1  0
 23 40  1  0
 25 41  1  0
M  ISO  8  27  13  28  13  29  13  30  13  31  13  32  13  33  13  34  14
M  ISO  4  38   8  39   8  40  14  41  14
M  END
>  <minimizedAffinity>  (1) 
-4.98846531

>  <minimizedRMSD>  (1) 
6.85406399

$$$$
