
     RDKit          3D

 15 15  0  0  0  0  0  0  0  0999 V2000
   38.5630   23.2820   36.2610 C   0  0  0  0  0  0  0  0  0  0  0  0
   38.2760   24.4630   35.5700 C   0  0  0  0  0  0  0  0  0  0  0  0
   38.0110   24.3070   34.2210 C   0  0  0  0  0  0  0  0  0  0  0  0
   38.0480   23.0670   33.6840 N   0  0  0  0  0  0  0  0  0  0  0  0
   38.3320   21.9690   34.3980 C   0  0  0  0  0  0  0  0  0  0  0  0
   38.5890   22.0850   35.6950 N   0  0  0  0  0  0  0  0  0  0  0  0
   38.2520   25.8150   36.1860 C   0  0  0  0  0  0  0  0  0  0  0  0
   39.4660   26.4260   35.8540 F   0  0  0  0  0  0  0  0  0  0  0  0
   38.1240   25.7780   37.5240 F   0  0  0  0  0  0  0  0  0  0  0  0
   37.2780   26.6150   35.5580 F   0  0  0  0  0  0  0  0  0  0  0  0
   38.8470   23.3570   37.6640 C   0  0  0  0  0  0  0  0  0  0  0  0
   39.1290   23.2660   38.8590 O   0  0  0  0  0  0  0  0  0  0  0  0
   37.7736   25.1794   33.5945 H   0  0  0  0  0  0  0  0  0  0  0  0
   38.3519   20.9814   33.9140 H   0  0  0  0  0  0  0  0  0  0  0  0
   38.5858   24.4233   37.7330 H   0  0  0  0  0  0  0  0  0  0  0  0
  1 11  1  0
  2  7  1  0
  2  1  2  0
  3  2  1  0
  4  3  2  0
  4  5  1  0
  5  6  2  0
  6  1  1  0
  7  9  1  0
  8  7  1  0
 10  7  1  0
 11 12  2  0
  3 13  1  0
  5 14  1  0
 11 15  1  0
M  ISO  3  13  14  14  14  15   6
M  END
>  <minimizedAffinity>  (1) 
-3.63540387

>  <minimizedRMSD>  (1) 
2.94114375

$$$$
