
     RDKit          3D

 27 28  0  0  0  0  0  0  0  0999 V2000
   39.5430   23.5300   36.2920 C   0  0  0  0  0  0  0  0  0  0  0  0
   38.5630   24.1540   37.0630 C   0  0  0  0  0  0  0  0  0  0  0  0
   37.7000   25.0780   36.4400 C   0  0  0  0  0  0  0  0  0  0  0  0
   37.8630   25.3220   35.1090 N   0  0  0  0  0  0  0  0  0  0  0  0
   38.8240   24.6960   34.4030 C   0  0  0  0  0  0  0  0  0  0  0  0
   39.6420   23.8230   34.9850 N   0  0  0  0  0  0  0  0  0  0  0  0
   38.9320   25.0090   33.0040 N   0  0  0  0  0  0  0  0  0  0  0  0
   38.6430   23.9550   32.1860 C   0  0  0  0  0  0  0  0  0  0  0  0
   38.6810   24.0270   30.8010 C   0  0  0  0  0  0  0  0  0  0  0  0
   39.0390   25.2670   30.2860 C   0  0  0  0  0  0  0  0  0  0  0  0
   39.0940   25.3940   28.8730 N   0  0  0  0  0  0  0  0  0  0  0  0
   39.3190   26.2890   31.1090 N   0  0  0  0  0  0  0  0  0  0  0  0
   39.2670   26.1670   32.4590 C   0  0  0  0  0  0  0  0  0  0  0  0
   39.5200   27.0970   33.2650 O   0  0  0  0  0  0  0  0  0  0  0  0
   38.3950   23.8830   38.4980 C   0  0  0  0  0  0  0  0  0  0  0  0
   39.6350   23.8630   39.0810 F   0  0  0  0  0  0  0  0  0  0  0  0
   37.7680   22.7050   38.7730 F   0  0  0  0  0  0  0  0  0  0  0  0
   37.7560   24.9660   39.1440 F   0  0  0  0  0  0  0  0  0  0  0  0
   40.5370   22.5410   36.7530 C   0  0  0  0  0  0  0  0  0  0  0  0
   40.9050   21.6890   35.7310 F   0  0  0  0  0  0  0  0  0  0  0  0
   41.6490   23.1770   37.3030 F   0  0  0  0  0  0  0  0  0  0  0  0
   40.0810   21.7400   37.7570 F   0  0  0  0  0  0  0  0  0  0  0  0
   36.9138   25.5899   37.0143 H   0  0  0  0  0  0  0  0  0  0  0  0
   38.3651   22.9971   32.6499 H   0  0  0  0  0  0  0  0  0  0  0  0
   38.4452   23.1662   30.1581 H   0  0  0  0  0  0  0  0  0  0  0  0
   39.3547   26.2946   28.4466 H   0  0  0  0  0  0  0  0  0  0  0  0
   38.8732   24.5855   28.2743 H   0  0  0  0  0  0  0  0  0  0  0  0
  1 19  1  0
  1  2  2  0
  2 15  1  0
  3  2  1  0
  4  3  2  0
  5  6  2  0
  5  4  1  0
  6  1  1  0
  7  5  1  0
  8  7  1  0
  9  8  2  0
 10  9  1  0
 10 12  2  0
 11 10  1  0
 12 13  1  0
 13  7  1  0
 13 14  2  0
 15 17  1  0
 15 16  1  0
 15 18  1  0
 19 21  1  0
 19 22  1  0
 20 19  1  0
  3 23  1  0
  8 24  1  0
  9 25  1  0
 11 26  1  0
 11 27  1  0
M  ISO  3  23  14  24  14  25  14
M  END
>  <minimizedAffinity>  (1) 
-5.4458375

>  <minimizedRMSD>  (1) 
0.302216232

$$$$
