
     RDKit          3D

 29 30  0  0  0  0  0  0  0  0999 V2000
   39.6100   23.4320   36.3410 C   0  0  0  0  0  0  0  0  0  0  0  0
   38.6030   24.0410   37.0950 C   0  0  0  0  0  0  0  0  0  0  0  0
   37.7080   24.8990   36.4420 C   0  0  0  0  0  0  0  0  0  0  0  0
   37.8490   25.1080   35.1070 N   0  0  0  0  0  0  0  0  0  0  0  0
   38.8360   24.5000   34.4150 C   0  0  0  0  0  0  0  0  0  0  0  0
   39.6840   23.6910   35.0200 N   0  0  0  0  0  0  0  0  0  0  0  0
   38.8870   24.7950   33.0160 N   0  0  0  0  0  0  0  0  0  0  0  0
   37.6630   25.1090   32.3080 C   0  0  0  0  0  0  0  0  0  0  0  0
   37.9250   24.8700   30.8350 C   0  0  0  0  0  0  0  0  0  0  0  0
   39.0140   25.6930   30.4980 O   0  0  0  0  0  0  0  0  0  0  0  0
   40.1510   25.0210   30.9220 C   0  0  0  0  0  0  0  0  0  0  0  0
   40.1900   24.7600   32.3860 C   0  0  0  0  0  0  0  0  0  0  0  0
   38.4640   23.8000   38.5510 C   0  0  0  0  0  0  0  0  0  0  0  0
   39.6910   23.8500   39.1150 F   0  0  0  0  0  0  0  0  0  0  0  0
   37.8750   22.6080   38.8450 F   0  0  0  0  0  0  0  0  0  0  0  0
   37.7510   24.8690   39.1440 F   0  0  0  0  0  0  0  0  0  0  0  0
   40.6480   22.5020   36.8280 C   0  0  0  0  0  0  0  0  0  0  0  0
   41.0420   21.6270   35.8360 F   0  0  0  0  0  0  0  0  0  0  0  0
   41.7410   23.1990   37.3380 F   0  0  0  0  0  0  0  0  0  0  0  0
   40.2370   21.7260   37.8720 F   0  0  0  0  0  0  0  0  0  0  0  0
   36.9026   25.3963   37.0024 H   0  0  0  0  0  0  0  0  0  0  0  0
   36.8480   24.4576   32.6566 H   0  0  0  0  0  0  0  0  0  0  0  0
   37.3640   26.1522   32.4877 H   0  0  0  0  0  0  0  0  0  0  0  0
   38.1747   23.8135   30.6574 H   0  0  0  0  0  0  0  0  0  0  0  0
   37.0397   25.1022   30.2248 H   0  0  0  0  0  0  0  0  0  0  0  0
   40.1977   24.0553   30.3973 H   0  0  0  0  0  0  0  0  0  0  0  0
   41.0084   25.6705   30.6920 H   0  0  0  0  0  0  0  0  0  0  0  0
   40.6290   23.7649   32.5502 H   0  0  0  0  0  0  0  0  0  0  0  0
   40.7898   25.5622   32.8407 H   0  0  0  0  0  0  0  0  0  0  0  0
  1 17  1  0
  1  2  2  0
  2 13  1  0
  3  2  1  0
  4  3  2  0
  5  6  2  0
  5  4  1  0
  6  1  1  0
  7  5  1  0
  8  7  1  0
  9  8  1  0
 10  9  1  0
 10 11  1  0
 11 12  1  0
 12  7  1  0
 13 15  1  0
 13 14  1  0
 13 16  1  0
 17 19  1  0
 17 20  1  0
 18 17  1  0
  3 21  1  0
  8 22  1  0
  8 23  1  0
  9 24  1  0
  9 25  1  0
 11 26  1  0
 11 27  1  0
 12 28  1  0
 12 29  1  0
M  ISO  8  21  14  22  13  23  13  24  13  25  13  26  13  27  13  28  13
M  ISO  1  29  13
M  END
>  <minimizedAffinity>  (1) 
-4.9951992

>  <minimizedRMSD>  (1) 
0.112872116

$$$$
