
     RDKit          3D

 28 28  0  0  0  0  0  0  0  0999 V2000
   38.1370   23.7860   35.6680 C   0  0  0  0  0  0  0  0  0  0  0  0
   38.1700   24.5560   36.8390 C   0  0  0  0  0  0  0  0  0  0  0  0
   38.1650   25.9540   36.7210 C   0  0  0  0  0  0  0  0  0  0  0  0
   38.1280   26.5130   35.4760 N   0  0  0  0  0  0  0  0  0  0  0  0
   38.0980   25.7180   34.3670 C   0  0  0  0  0  0  0  0  0  0  0  0
   38.1020   24.4010   34.4610 N   0  0  0  0  0  0  0  0  0  0  0  0
   38.2090   23.9430   38.1810 C   0  0  0  0  0  0  0  0  0  0  0  0
   39.4470   23.3990   38.3670 F   0  0  0  0  0  0  0  0  0  0  0  0
   37.2620   22.9930   38.3800 F   0  0  0  0  0  0  0  0  0  0  0  0
   38.1220   24.9450   39.1720 F   0  0  0  0  0  0  0  0  0  0  0  0
   38.1360   22.3120   35.5800 C   0  0  0  0  0  0  0  0  0  0  0  0
   38.1460   21.8920   34.2650 F   0  0  0  0  0  0  0  0  0  0  0  0
   39.2160   21.7740   36.2750 F   0  0  0  0  0  0  0  0  0  0  0  0
   37.0470   21.7340   36.1620 F   0  0  0  0  0  0  0  0  0  0  0  0
   38.0590   26.4480   33.0730 C   0  0  0  0  0  0  0  0  0  0  0  0
   39.4130   27.0580   32.7860 C   0  0  0  0  0  0  0  0  0  0  0  0
   37.0390   27.5730   33.1080 C   0  0  0  0  0  0  0  0  0  0  0  0
   37.6450   25.5070   31.9550 C   0  0  0  0  0  0  0  0  0  0  0  0
   38.1905   26.5901   37.6181 H   0  0  0  0  0  0  0  0  0  0  0  0
   39.9206   27.2867   33.7347 H   0  0  0  0  0  0  0  0  0  0  0  0
   40.0204   26.3466   32.2073 H   0  0  0  0  0  0  0  0  0  0  0  0
   39.2826   27.9843   32.2073 H   0  0  0  0  0  0  0  0  0  0  0  0
   36.8088   27.8269   34.1533 H   0  0  0  0  0  0  0  0  0  0  0  0
   37.4501   28.4567   32.5980 H   0  0  0  0  0  0  0  0  0  0  0  0
   36.1194   27.2501   32.5980 H   0  0  0  0  0  0  0  0  0  0  0  0
   37.2376   24.5811   32.3871 H   0  0  0  0  0  0  0  0  0  0  0  0
   36.8767   25.9909   31.3341 H   0  0  0  0  0  0  0  0  0  0  0  0
   38.5209   25.2675   31.3341 H   0  0  0  0  0  0  0  0  0  0  0  0
  1  2  2  0
  2  7  1  0
  3  2  1  0
  4  3  2  0
  5  6  2  0
  5  4  1  0
  6  1  1  0
  7  8  1  0
  7  9  1  0
  7 10  1  0
 11  1  1  0
 11 14  1  0
 11 13  1  0
 12 11  1  0
 15 17  1  0
 15  5  1  0
 16 15  1  0
 18 15  1  0
  3 19  1  0
 16 20  1  0
 16 21  1  0
 16 22  1  0
 17 23  1  0
 17 24  1  0
 17 25  1  0
 18 26  1  0
 18 27  1  0
 18 28  1  0
M  ISO  8  19  14  20   8  21   8  22   8  23   8  24   8  25   8  26   8
M  ISO  2  27   8  28   8
M  END
>  <minimizedAffinity>  (1) 
-5.03720474

>  <minimizedRMSD>  (1) 
2.06704426

$$$$
