
     RDKit          3D

 25 25  0  0  0  0  0  0  0  0999 V2000
   39.5270   23.9230   36.1200 C   0  0  0  0  0  0  0  0  0  0  0  0
   38.5910   24.5290   36.9640 C   0  0  0  0  0  0  0  0  0  0  0  0
   38.0700   25.7780   36.5810 C   0  0  0  0  0  0  0  0  0  0  0  0
   38.4910   26.3430   35.4170 N   0  0  0  0  0  0  0  0  0  0  0  0
   39.4000   25.7170   34.6350 C   0  0  0  0  0  0  0  0  0  0  0  0
   39.8980   24.5450   34.9790 N   0  0  0  0  0  0  0  0  0  0  0  0
   38.1460   23.9010   38.2220 C   0  0  0  0  0  0  0  0  0  0  0  0
   39.2400   23.5360   38.9310 F   0  0  0  0  0  0  0  0  0  0  0  0
   37.3430   22.8230   38.0430 F   0  0  0  0  0  0  0  0  0  0  0  0
   37.5260   24.8750   39.0490 F   0  0  0  0  0  0  0  0  0  0  0  0
   40.1970   22.6250   36.3360 C   0  0  0  0  0  0  0  0  0  0  0  0
   40.9310   22.2520   35.2270 F   0  0  0  0  0  0  0  0  0  0  0  0
   41.0080   22.6670   37.4680 F   0  0  0  0  0  0  0  0  0  0  0  0
   39.3310   21.6030   36.5860 F   0  0  0  0  0  0  0  0  0  0  0  0
   39.7950   26.4190   33.3830 C   0  0  0  0  0  0  0  0  0  0  0  0
   40.9880   27.2990   33.5530 C   0  0  0  0  0  0  0  0  0  0  0  0
   38.5670   27.1780   32.9290 C   0  0  0  0  0  0  0  0  0  0  0  0
   37.3316   26.2915   37.2144 H   0  0  0  0  0  0  0  0  0  0  0  0
   40.1183   25.6963   32.6193 H   0  0  0  0  0  0  0  0  0  0  0  0
   41.1861   27.4451   34.6251 H   0  0  0  0  0  0  0  0  0  0  0  0
   41.8618   26.8275   33.0796 H   0  0  0  0  0  0  0  0  0  0  0  0
   40.7955   28.2731   33.0796 H   0  0  0  0  0  0  0  0  0  0  0  0
   38.0048   27.5255   33.8083 H   0  0  0  0  0  0  0  0  0  0  0  0
   38.8740   28.0441   32.3243 H   0  0  0  0  0  0  0  0  0  0  0  0
   37.9296   26.5161   32.3243 H   0  0  0  0  0  0  0  0  0  0  0  0
  1 11  1  0
  1  2  2  0
  2  7  1  0
  3  2  1  0
  4  3  2  0
  5  6  2  0
  5  4  1  0
  6  1  1  0
  7  8  1  0
  7 10  1  0
  9  7  1  0
 11 14  1  0
 11 13  1  0
 12 11  1  0
 15 16  1  0
 15  5  1  0
 17 15  1  0
  3 18  1  0
 15 19  1  0
 16 20  1  0
 16 21  1  0
 16 22  1  0
 17 23  1  0
 17 24  1  0
 17 25  1  0
M  ISO  8  18  14  19   8  20   8  21   8  22   8  23   8  24   8  25   8
M  END
>  <minimizedAffinity>  (1) 
-4.56134176

>  <minimizedRMSD>  (1) 
1.33120775

$$$$
