
     RDKit          3D

 45 48  0  0  1  0  0  0  0  0999 V2000
   39.7640   23.7130   36.0350 C   0  0  0  0  0  0  0  0  0  0  0  0
   38.7670   24.4310   36.7150 C   0  0  0  0  0  0  0  0  0  0  0  0
   38.5650   25.7680   36.3730 C   0  0  0  0  0  0  0  0  0  0  0  0
   39.3320   26.3340   35.3990 N   0  0  0  0  0  0  0  0  0  0  0  0
   40.2750   25.6090   34.7750 C   0  0  0  0  0  0  0  0  0  0  0  0
   40.4840   24.3420   35.0820 N   0  0  0  0  0  0  0  0  0  0  0  0
   41.0560   26.2620   33.7520 N   0  0  0  0  0  0  0  0  0  0  0  0
   42.4030   25.8670   33.5570 C   0  0  0  0  0  0  0  0  0  0  0  0
   43.1070   27.0710   32.9560 C   0  0  0  0  0  0  0  0  0  0  0  0
   42.5160   27.5020   31.6580 C   0  0  0  0  0  0  0  0  0  0  0  0
   41.0320   27.4640   31.5960 C   0  0  0  0  0  0  0  0  0  0  0  0
   40.4240   27.2990   32.9660 C   0  0  1  0  0  0  0  0  0  0  0  0
   39.0510   26.7830   32.7110 C   0  0  0  0  0  0  0  0  0  0  0  0
   37.9600   27.3720   33.2400 N   0  0  0  0  0  0  0  0  0  0  0  0
   36.7110   26.9290   33.0260 C   0  0  0  0  0  0  0  0  0  0  0  0
   36.4870   25.8400   32.2490 N   0  0  0  0  0  0  0  0  0  0  0  0
   37.5320   25.1790   31.6710 C   0  0  0  0  0  0  0  0  0  0  0  0
   37.3160   24.0700   30.8790 C   0  0  0  0  0  0  0  0  0  0  0  0
   38.3880   23.4160   30.3060 C   0  0  0  0  0  0  0  0  0  0  0  0
   39.6650   23.8950   30.5430 C   0  0  0  0  0  0  0  0  0  0  0  0
   39.8250   25.0100   31.3450 C   0  0  0  0  0  0  0  0  0  0  0  0
   38.7820   25.6920   31.9370 C   0  0  0  0  0  0  0  0  0  0  0  0
   37.9360   23.8240   37.7680 C   0  0  0  0  0  0  0  0  0  0  0  0
   38.7470   23.1350   38.6200 F   0  0  0  0  0  0  0  0  0  0  0  0
   36.9860   22.9640   37.2850 F   0  0  0  0  0  0  0  0  0  0  0  0
   37.3410   24.8110   38.5630 F   0  0  0  0  0  0  0  0  0  0  0  0
   40.1350   22.3000   36.2450 C   0  0  0  0  0  0  0  0  0  0  0  0
   41.0000   21.8600   35.2660 F   0  0  0  0  0  0  0  0  0  0  0  0
   40.6940   22.1190   37.5040 F   0  0  0  0  0  0  0  0  0  0  0  0
   39.0620   21.4510   36.2230 F   0  0  0  0  0  0  0  0  0  0  0  0
   37.7929   26.3608   36.8853 H   0  0  0  0  0  0  0  0  0  0  0  0
   42.8645   25.5939   34.5174 H   0  0  0  0  0  0  0  0  0  0  0  0
   42.4749   24.9876   32.9001 H   0  0  0  0  0  0  0  0  0  0  0  0
   43.0396   27.9076   33.6670 H   0  0  0  0  0  0  0  0  0  0  0  0
   44.1500   26.7800   32.7625 H   0  0  0  0  0  0  0  0  0  0  0  0
   42.8386   28.5355   31.4635 H   0  0  0  0  0  0  0  0  0  0  0  0
   42.8719   26.7823   30.9061 H   0  0  0  0  0  0  0  0  0  0  0  0
   40.6688   28.4040   31.1550 H   0  0  0  0  0  0  0  0  0  0  0  0
   40.7350   26.6015   30.9813 H   0  0  0  0  0  0  0  0  0  0  0  0
   40.5063   28.2551   33.5036 H   0  0  0  0  0  0  0  0  0  0  0  0
   35.8607   27.4544   33.4853 H   0  0  0  0  0  0  0  0  0  0  0  0
   36.2920   23.7080   30.7047 H   0  0  0  0  0  0  0  0  0  0  0  0
   38.2305   22.5305   29.6727 H   0  0  0  0  0  0  0  0  0  0  0  0
   40.5395   23.3960   30.0999 H   0  0  0  0  0  0  0  0  0  0  0  0
   40.8472   25.3759   31.5220 H   0  0  0  0  0  0  0  0  0  0  0  0
  1 27  1  0
  1  2  2  0
  2 23  1  0
  3  2  1  0
  4  3  2  0
  5  6  2  0
  5  4  1  0
  6  1  1  0
  7  5  1  0
  8  7  1  0
  9  8  1  0
 10  9  1  0
 11 10  1  0
 11 12  1  0
 12  7  1  0
 13 12  1  0
 13 14  2  0
 15 14  1  0
 16 15  2  0
 17 22  2  0
 17 16  1  0
 18 17  1  0
 19 20  1  0
 19 18  2  0
 20 21  2  0
 21 22  1  0
 22 13  1  0
 23 26  1  0
 23 24  1  0
 25 23  1  0
 27 29  1  0
 28 27  1  0
 30 27  1  0
  3 31  1  0
  8 32  1  0
  8 33  1  0
  9 34  1  0
  9 35  1  0
 10 36  1  0
 10 37  1  0
 11 38  1  0
 11 39  1  0
 12 40  1  1
 15 41  1  0
 18 42  1  0
 19 43  1  0
 20 44  1  0
 21 45  1  0
M  ISO  8  31  14  32  13  33  13  34  13  35  13  36  13  37  13  38  13
M  ISO  7  39  13  40  13  41  14  42  14  43  14  44  14  45  14
M  END
>  <minimizedAffinity>  (1) 
-6.04615259

>  <minimizedRMSD>  (1) 
3.11407709

$$$$
