
     RDKit          3D

 45 47  0  0  1  0  0  0  0  0999 V2000
   39.6790   23.8870   36.1330 C   0  0  0  0  0  0  0  0  0  0  0  0
   38.6110   24.4150   36.8640 C   0  0  0  0  0  0  0  0  0  0  0  0
   37.9880   25.5710   36.3680 C   0  0  0  0  0  0  0  0  0  0  0  0
   38.4450   26.1240   35.2070 N   0  0  0  0  0  0  0  0  0  0  0  0
   39.4810   25.5730   34.5370 C   0  0  0  0  0  0  0  0  0  0  0  0
   40.0670   24.4890   35.0010 N   0  0  0  0  0  0  0  0  0  0  0  0
   39.8910   26.2200   33.3300 N   0  0  0  0  0  0  0  0  0  0  0  0
   41.2780   26.1290   32.9450 C   0  0  0  0  0  0  0  0  0  0  0  0
   41.5340   27.3270   32.0410 C   0  0  0  0  0  0  0  0  0  0  0  0
   40.6710   27.3190   30.8190 C   0  0  0  0  0  0  0  0  0  0  0  0
   39.2410   26.9480   31.0660 C   0  0  0  0  0  0  0  0  0  0  0  0
   38.9430   26.9350   32.5350 C   0  0  1  0  0  0  0  0  0  0  0  0
   37.6160   26.5190   32.8460 N   0  0  0  0  0  0  0  0  0  0  0  0
   37.1840   25.2910   32.2870 C   0  0  0  0  0  0  0  0  0  0  0  0
   36.0560   25.3770   31.3040 C   0  0  0  0  0  0  0  0  0  0  0  0
   35.9630   26.7060   30.7730 N   0  0  0  0  0  0  0  0  0  0  0  0
   35.7130   27.6920   31.7870 C   0  0  0  0  0  0  0  0  0  0  0  0
   36.6360   27.5500   32.9470 C   0  0  0  0  0  0  0  0  0  0  0  0
   38.1200   23.8180   38.1160 C   0  0  0  0  0  0  0  0  0  0  0  0
   39.2040   23.5330   38.9050 F   0  0  0  0  0  0  0  0  0  0  0  0
   37.3910   22.6750   37.9250 F   0  0  0  0  0  0  0  0  0  0  0  0
   37.4090   24.7660   38.8670 F   0  0  0  0  0  0  0  0  0  0  0  0
   40.4660   22.6840   36.4790 C   0  0  0  0  0  0  0  0  0  0  0  0
   41.3170   22.3270   35.4520 F   0  0  0  0  0  0  0  0  0  0  0  0
   41.1860   22.8790   37.6690 F   0  0  0  0  0  0  0  0  0  0  0  0
   39.7010   21.5820   36.7440 F   0  0  0  0  0  0  0  0  0  0  0  0
   37.1435   26.0247   36.9074 H   0  0  0  0  0  0  0  0  0  0  0  0
   41.9261   26.1729   33.8327 H   0  0  0  0  0  0  0  0  0  0  0  0
   41.4958   25.1801   32.4330 H   0  0  0  0  0  0  0  0  0  0  0  0
   41.3320   28.2469   32.6092 H   0  0  0  0  0  0  0  0  0  0  0  0
   42.5818   27.2772   31.7098 H   0  0  0  0  0  0  0  0  0  0  0  0
   41.0941   26.5968   30.1053 H   0  0  0  0  0  0  0  0  0  0  0  0
   40.6632   28.3505   30.4370 H   0  0  0  0  0  0  0  0  0  0  0  0
   38.5871   27.6814   30.5714 H   0  0  0  0  0  0  0  0  0  0  0  0
   39.0616   25.9416   30.6599 H   0  0  0  0  0  0  0  0  0  0  0  0
   39.0363   27.9952   32.8129 H   0  0  0  0  0  0  0  0  0  0  0  0
   38.0432   24.8340   31.7741 H   0  0  0  0  0  0  0  0  0  0  0  0
   36.7974   24.7009   33.1310 H   0  0  0  0  0  0  0  0  0  0  0  0
   36.2356   24.6688   30.4817 H   0  0  0  0  0  0  0  0  0  0  0  0
   35.1144   25.1276   31.8150 H   0  0  0  0  0  0  0  0  0  0  0  0
   36.8498   26.9354   30.3019 H   0  0  0  0  0  0  0  0  0  0  0  0
   35.8452   28.6924   31.3491 H   0  0  0  0  0  0  0  0  0  0  0  0
   34.6855   27.5486   32.1525 H   0  0  0  0  0  0  0  0  0  0  0  0
   36.0256   27.3473   33.8394 H   0  0  0  0  0  0  0  0  0  0  0  0
   37.2018   28.4923   32.9917 H   0  0  0  0  0  0  0  0  0  0  0  0
  1 23  1  0
  1  2  2  0
  2 19  1  0
  3  2  1  0
  4  3  2  0
  5  6  2  0
  5  4  1  0
  6  1  1  0
  7  5  1  0
  8  7  1  0
  9  8  1  0
 10 11  1  0
 10  9  1  0
 11 12  1  0
 12 13  1  0
 12  7  1  0
 13 18  1  0
 14 13  1  0
 15 14  1  0
 16 15  1  0
 16 17  1  0
 17 18  1  0
 19 22  1  0
 19 20  1  0
 21 19  1  0
 23 26  1  0
 23 25  1  0
 24 23  1  0
  3 27  1  0
  8 28  1  0
  8 29  1  0
  9 30  1  0
  9 31  1  0
 10 32  1  0
 10 33  1  0
 11 34  1  0
 11 35  1  0
 12 36  1  1
 14 37  1  0
 14 38  1  0
 15 39  1  0
 15 40  1  0
 16 41  1  0
 17 42  1  0
 17 43  1  0
 18 44  1  0
 18 45  1  0
M  ISO  8  27  14  28  13  29  13  30  13  31  13  32  13  33  13  34  13
M  ISO  8  35  13  36  13  37  13  38  13  39  13  40  13  41   5  42  13
M  ISO  3  43  13  44  13  45  13
M  END
>  <minimizedAffinity>  (1) 
-6.15469456

>  <minimizedRMSD>  (1) 
2.29485893

$$$$
