
     RDKit          3D

 44 46  0  0  1  0  0  0  0  0999 V2000
   39.5950   23.4480   36.2920 C   0  0  0  0  0  0  0  0  0  0  0  0
   38.5820   24.0820   37.0250 C   0  0  0  0  0  0  0  0  0  0  0  0
   37.7110   24.9350   36.3370 C   0  0  0  0  0  0  0  0  0  0  0  0
   37.8870   25.1090   35.0060 N   0  0  0  0  0  0  0  0  0  0  0  0
   38.8600   24.4930   34.3360 C   0  0  0  0  0  0  0  0  0  0  0  0
   39.7010   23.6770   34.9610 N   0  0  0  0  0  0  0  0  0  0  0  0
   38.9590   24.7360   32.9220 N   0  0  0  0  0  0  0  0  0  0  0  0
   40.2720   24.6850   32.3290 C   0  0  0  0  0  0  0  0  0  0  0  0
   40.2120   25.5170   31.0770 C   0  0  0  0  0  0  0  0  0  0  0  0
   39.1450   25.1640   30.1240 C   0  0  0  0  0  0  0  0  0  0  0  0
   37.8850   24.6250   30.7140 C   0  0  0  0  0  0  0  0  0  0  0  0
   37.7860   24.9970   32.1630 C   0  0  2  0  0  0  0  0  0  0  0  0
   37.0650   26.2550   32.4420 C   0  0  0  0  0  0  0  0  0  0  0  0
   36.0130   26.5550   31.3480 C   0  0  0  0  0  0  0  0  0  0  0  0
   35.4100   27.8120   31.9820 C   0  0  0  0  0  0  0  0  0  0  0  0
   36.6380   28.5500   32.4760 C   0  0  0  0  0  0  0  0  0  0  0  0
   37.7920   27.5340   32.4440 C   0  0  0  0  0  0  0  0  0  0  0  0
   38.4130   23.8760   38.4730 C   0  0  0  0  0  0  0  0  0  0  0  0
   39.6460   23.8650   39.0550 F   0  0  0  0  0  0  0  0  0  0  0  0
   37.7710   22.7180   38.7930 F   0  0  0  0  0  0  0  0  0  0  0  0
   37.7740   24.9980   39.0500 F   0  0  0  0  0  0  0  0  0  0  0  0
   40.6160   22.5100   36.8110 C   0  0  0  0  0  0  0  0  0  0  0  0
   41.0190   21.6180   35.8250 F   0  0  0  0  0  0  0  0  0  0  0  0
   41.6970   23.1840   37.3490 F   0  0  0  0  0  0  0  0  0  0  0  0
   40.1530   21.7250   37.8380 F   0  0  0  0  0  0  0  0  0  0  0  0
   36.8991   25.4539   36.8677 H   0  0  0  0  0  0  0  0  0  0  0  0
   41.0182   25.0981   33.0236 H   0  0  0  0  0  0  0  0  0  0  0  0
   40.5646   23.6491   32.1027 H   0  0  0  0  0  0  0  0  0  0  0  0
   40.0651   26.5656   31.3751 H   0  0  0  0  0  0  0  0  0  0  0  0
   41.1587   25.3310   30.5486 H   0  0  0  0  0  0  0  0  0  0  0  0
   39.5462   24.4035   29.4379 H   0  0  0  0  0  0  0  0  0  0  0  0
   38.8610   26.1089   29.6377 H   0  0  0  0  0  0  0  0  0  0  0  0
   37.0234   25.0430   30.1727 H   0  0  0  0  0  0  0  0  0  0  0  0
   37.8903   23.5285   30.6265 H   0  0  0  0  0  0  0  0  0  0  0  0
   37.0835   24.2646   32.5874 H   0  0  0  0  0  0  0  0  0  0  0  0
   36.7212   26.0148   33.4589 H   0  0  0  0  0  0  0  0  0  0  0  0
   35.2761   25.7450   31.2436 H   0  0  0  0  0  0  0  0  0  0  0  0
   36.3963   26.6644   30.3228 H   0  0  0  0  0  0  0  0  0  0  0  0
   34.8602   28.4078   31.2386 H   0  0  0  0  0  0  0  0  0  0  0  0
   34.6789   27.5962   32.7750 H   0  0  0  0  0  0  0  0  0  0  0  0
   36.8617   29.4018   31.8169 H   0  0  0  0  0  0  0  0  0  0  0  0
   36.4844   28.9498   33.4892 H   0  0  0  0  0  0  0  0  0  0  0  0
   38.4340   27.6287   33.3322 H   0  0  0  0  0  0  0  0  0  0  0  0
   38.4742   27.6606   31.5904 H   0  0  0  0  0  0  0  0  0  0  0  0
  1 22  1  0
  1  2  2  0
  2 18  1  0
  3  2  1  0
  4  3  2  0
  5  6  2  0
  5  4  1  0
  6  1  1  0
  7  5  1  0
  8  7  1  0
  9  8  1  0
 10 11  1  0
 10  9  1  0
 11 12  1  0
 12 13  1  0
 12  7  1  0
 13 17  1  0
 14 15  1  0
 14 13  1  0
 15 16  1  0
 17 16  1  0
 18 20  1  0
 18 21  1  0
 18 19  1  0
 22 24  1  0
 22 25  1  0
 23 22  1  0
  3 26  1  0
  8 27  1  0
  8 28  1  0
  9 29  1  0
  9 30  1  0
 10 31  1  0
 10 32  1  0
 11 33  1  0
 11 34  1  0
 12 35  1  1
 13 36  1  0
 14 37  1  0
 14 38  1  0
 15 39  1  0
 15 40  1  0
 16 41  1  0
 16 42  1  0
 17 43  1  0
 17 44  1  0
M  ISO  8  26  14  27  13  28  13  29  13  30  13  31  13  32  13  33  13
M  ISO  8  34  13  35  13  36  13  37  13  38  13  39  13  40  13  41  13
M  ISO  3  42  13  43  13  44  13
M  END
>  <minimizedAffinity>  (1) 
-6.04543304

>  <minimizedRMSD>  (1) 
0.727603972

$$$$
