
     RDKit          3D

 43 45  0  0  1  0  0  0  0  0999 V2000
   39.6440   23.4430   36.2590 C   0  0  0  0  0  0  0  0  0  0  0  0
   38.6090   24.1020   36.9410 C   0  0  0  0  0  0  0  0  0  0  0  0
   37.7820   24.9690   36.2160 C   0  0  0  0  0  0  0  0  0  0  0  0
   38.0100   25.1400   34.8820 N   0  0  0  0  0  0  0  0  0  0  0  0
   39.0080   24.4900   34.2730 C   0  0  0  0  0  0  0  0  0  0  0  0
   39.8070   23.6640   34.9370 N   0  0  0  0  0  0  0  0  0  0  0  0
   39.1930   24.7100   32.8590 N   0  0  0  0  0  0  0  0  0  0  0  0
   40.5140   24.6640   32.3300 C   0  0  0  0  0  0  0  0  0  0  0  0
   40.5040   25.4380   31.0430 C   0  0  0  0  0  0  0  0  0  0  0  0
   39.5080   24.9670   30.0490 C   0  0  0  0  0  0  0  0  0  0  0  0
   38.1650   24.6610   30.6110 C   0  0  0  0  0  0  0  0  0  0  0  0
   38.0380   24.9600   32.0480 C   0  0  2  0  0  0  0  0  0  0  0  0
   37.3480   26.1520   32.4170 N   0  0  0  0  0  0  0  0  0  0  0  0
   38.0060   27.3870   32.2750 C   0  0  0  0  0  0  0  0  0  0  0  0
   36.9230   28.4580   32.1790 C   0  0  0  0  0  0  0  0  0  0  0  0
   35.6340   27.7080   31.9250 C   0  0  0  0  0  0  0  0  0  0  0  0
   36.0240   26.2630   31.8440 C   0  0  0  0  0  0  0  0  0  0  0  0
   38.3680   23.9120   38.3830 C   0  0  0  0  0  0  0  0  0  0  0  0
   39.5660   23.8560   39.0240 F   0  0  0  0  0  0  0  0  0  0  0  0
   37.6660   22.7720   38.6720 F   0  0  0  0  0  0  0  0  0  0  0  0
   37.7170   25.0340   38.9240 F   0  0  0  0  0  0  0  0  0  0  0  0
   40.6130   22.5000   36.8360 C   0  0  0  0  0  0  0  0  0  0  0  0
   41.0700   21.5960   35.8850 F   0  0  0  0  0  0  0  0  0  0  0  0
   41.6830   23.1670   37.4090 F   0  0  0  0  0  0  0  0  0  0  0  0
   40.1110   21.7410   37.8560 F   0  0  0  0  0  0  0  0  0  0  0  0
   36.9607   25.5042   36.7149 H   0  0  0  0  0  0  0  0  0  0  0  0
   41.2201   25.1208   33.0391 H   0  0  0  0  0  0  0  0  0  0  0  0
   40.8299   23.6244   32.1581 H   0  0  0  0  0  0  0  0  0  0  0  0
   40.2849   26.4903   31.2767 H   0  0  0  0  0  0  0  0  0  0  0  0
   41.4940   25.2960   30.5850 H   0  0  0  0  0  0  0  0  0  0  0  0
   39.8991   24.0526   29.5790 H   0  0  0  0  0  0  0  0  0  0  0  0
   39.3656   25.7931   29.3368 H   0  0  0  0  0  0  0  0  0  0  0  0
   37.4175   25.2560   30.0659 H   0  0  0  0  0  0  0  0  0  0  0  0
   38.0088   23.5784   30.4947 H   0  0  0  0  0  0  0  0  0  0  0  0
   37.3278   24.1620   32.3103 H   0  0  0  0  0  0  0  0  0  0  0  0
   38.6484   27.5759   33.1477 H   0  0  0  0  0  0  0  0  0  0  0  0
   38.6450   27.3919   31.3797 H   0  0  0  0  0  0  0  0  0  0  0  0
   36.8588   29.0252   33.1193 H   0  0  0  0  0  0  0  0  0  0  0  0
   37.1367   29.1840   31.3807 H   0  0  0  0  0  0  0  0  0  0  0  0
   34.9254   27.8698   32.7507 H   0  0  0  0  0  0  0  0  0  0  0  0
   35.1361   28.0496   31.0055 H   0  0  0  0  0  0  0  0  0  0  0  0
   35.3126   25.6467   32.4133 H   0  0  0  0  0  0  0  0  0  0  0  0
   36.0153   25.9107   30.8020 H   0  0  0  0  0  0  0  0  0  0  0  0
  1 22  1  0
  1  2  2  0
  2 18  1  0
  3  2  1  0
  4  3  2  0
  5  4  1  0
  5  6  2  0
  6  1  1  0
  7  5  1  0
  8  7  1  0
  9  8  1  0
 10 11  1  0
 10  9  1  0
 11 12  1  0
 12 13  1  0
 12  7  1  0
 13 14  1  0
 15 14  1  0
 16 15  1  0
 17 16  1  0
 17 13  1  0
 18 20  1  0
 18 21  1  0
 18 19  1  0
 22 24  1  0
 22 25  1  0
 23 22  1  0
  3 26  1  0
  8 27  1  0
  8 28  1  0
  9 29  1  0
  9 30  1  0
 10 31  1  0
 10 32  1  0
 11 33  1  0
 11 34  1  0
 12 35  1  1
 14 36  1  0
 14 37  1  0
 15 38  1  0
 15 39  1  0
 16 40  1  0
 16 41  1  0
 17 42  1  0
 17 43  1  0
M  ISO  8  26  14  27  13  28  13  29  13  30  13  31  13  32  13  33  13
M  ISO  8  34  13  35  13  36  13  37  13  38  13  39  13  40  13  41  13
M  ISO  2  42  13  43  13
M  END
>  <minimizedAffinity>  (1) 
-5.82701254

>  <minimizedRMSD>  (1) 
0.390191823

$$$$
