
     RDKit          3D

 38 40  0  0  0  0  0  0  0  0999 V2000
   38.2860   26.5260   34.2070 C   0  0  0  0  0  0  0  0  0  0  0  0
   36.9900   26.7710   34.9020 C   0  0  0  0  0  0  0  0  0  0  0  0
   38.3950   27.5040   33.0510 C   0  0  0  0  0  0  0  0  0  0  0  0
   39.4130   26.9610   35.1730 C   0  0  0  0  0  0  0  0  0  0  0  0
   40.7540   26.7430   34.5560 C   0  0  0  0  0  0  0  0  0  0  0  0
   41.5970   25.7550   34.9230 N   0  0  0  0  0  0  0  0  0  0  0  0
   42.6750   25.8420   34.1960 O   0  0  0  0  0  0  0  0  0  0  0  0
   42.5960   26.8320   33.3660 C   0  0  0  0  0  0  0  0  0  0  0  0
   41.3960   27.4070   33.5820 N   0  0  0  0  0  0  0  0  0  0  0  0
   38.6240   24.8410   33.7430 S   0  0  0  0  0  0  0  0  0  0  0  0
   35.6050   24.2640   31.0860 C   0  0  0  0  0  0  0  0  0  0  0  0
   36.5700   24.8770   31.8880 C   0  0  0  0  0  0  0  0  0  0  0  0
   37.3810   24.1050   32.7050 C   0  0  0  0  0  0  0  0  0  0  0  0
   37.1870   22.7520   32.6810 N   0  0  0  0  0  0  0  0  0  0  0  0
   36.2630   22.1860   31.9100 C   0  0  0  0  0  0  0  0  0  0  0  0
   35.4750   22.9120   31.1190 N   0  0  0  0  0  0  0  0  0  0  0  0
   36.0960   20.7350   31.9220 C   0  0  0  0  0  0  0  0  0  0  0  0
   36.5510   19.9470   30.8840 C   0  0  0  0  0  0  0  0  0  0  0  0
   36.4330   18.5780   30.8190 C   0  0  0  0  0  0  0  0  0  0  0  0
   35.8080   17.9260   31.8810 C   0  0  0  0  0  0  0  0  0  0  0  0
   35.3540   18.7110   32.9160 C   0  0  0  0  0  0  0  0  0  0  0  0
   35.4800   20.0690   32.9640 C   0  0  0  0  0  0  0  0  0  0  0  0
   37.1463   26.7415   35.9904 H   0  0  0  0  0  0  0  0  0  0  0  0
   36.6006   27.7587   34.6142 H   0  0  0  0  0  0  0  0  0  0  0  0
   36.2669   25.9936   34.6142 H   0  0  0  0  0  0  0  0  0  0  0  0
   38.5088   28.5251   33.4440 H   0  0  0  0  0  0  0  0  0  0  0  0
   39.2702   27.2483   32.4357 H   0  0  0  0  0  0  0  0  0  0  0  0
   37.4850   27.4473   32.4357 H   0  0  0  0  0  0  0  0  0  0  0  0
   39.2938   28.0289   35.4085 H   0  0  0  0  0  0  0  0  0  0  0  0
   39.3444   26.3565   36.0895 H   0  0  0  0  0  0  0  0  0  0  0  0
   43.3549   27.1417   32.6324 H   0  0  0  0  0  0  0  0  0  0  0  0
   34.9572   24.8691   30.4347 H   0  0  0  0  0  0  0  0  0  0  0  0
   36.6863   25.9707   31.8714 H   0  0  0  0  0  0  0  0  0  0  0  0
   37.0468   20.4535   30.0428 H   0  0  0  0  0  0  0  0  0  0  0  0
   36.8196   18.0155   29.9563 H   0  0  0  0  0  0  0  0  0  0  0  0
   35.6834   16.8331   31.8911 H   0  0  0  0  0  0  0  0  0  0  0  0
   34.8568   18.2110   33.7602 H   0  0  0  0  0  0  0  0  0  0  0  0
   35.0933   20.6302   33.8274 H   0  0  0  0  0  0  0  0  0  0  0  0
  1  2  1  0
  1  4  1  0
  3  1  1  0
  5  6  2  0
  5  4  1  0
  7  6  1  0
  8  9  2  0
  8  7  1  0
  9  5  1  0
 10  1  1  0
 11 16  2  0
 11 12  1  0
 12 13  2  0
 13 10  1  0
 14 13  1  0
 15 17  1  0
 15 14  2  0
 16 15  1  0
 17 22  1  0
 18 17  2  0
 19 18  1  0
 19 20  2  0
 20 21  1  0
 21 22  2  0
  2 23  1  0
  2 24  1  0
  2 25  1  0
  3 26  1  0
  3 27  1  0
  3 28  1  0
  4 29  1  0
  4 30  1  0
  8 31  1  0
 11 32  1  0
 12 33  1  0
 18 34  1  0
 19 35  1  0
 20 36  1  0
 21 37  1  0
 22 38  1  0
M  ISO  8  23   8  24   8  25   8  26   8  27   8  28   8  29   8  30   8
M  ISO  8  31  14  32  14  33  14  34  14  35  14  36  14  37  14  38  14
M  END
>  <minimizedAffinity>  (1) 
-5.03680277

>  <minimizedRMSD>  (1) 
5.79934645

$$$$
