
     RDKit          3D

 37 39  0  0  1  0  0  0  0  0999 V2000
   40.0450   23.8750   35.8370 C   0  0  0  0  0  0  0  0  0  0  0  0
   38.8050   24.2840   36.3430 C   0  0  0  0  0  0  0  0  0  0  0  0
   38.2210   25.4350   35.8100 C   0  0  0  0  0  0  0  0  0  0  0  0
   38.8640   26.1160   34.8260 N   0  0  0  0  0  0  0  0  0  0  0  0
   40.0580   25.6910   34.3670 C   0  0  0  0  0  0  0  0  0  0  0  0
   40.6290   24.5990   34.8610 N   0  0  0  0  0  0  0  0  0  0  0  0
   40.6850   26.4630   33.3210 N   0  0  0  0  0  0  0  0  0  0  0  0
   42.1110   26.4760   33.2490 C   0  0  0  0  0  0  0  0  0  0  0  0
   42.4660   27.7850   32.5390 C   0  0  0  0  0  0  0  0  0  0  0  0
   41.8990   27.8370   31.1550 C   0  0  0  0  0  0  0  0  0  0  0  0
   40.4850   27.3860   31.0470 C   0  0  0  0  0  0  0  0  0  0  0  0
   39.8680   27.1790   32.4070 C   0  0  1  0  0  0  0  0  0  0  0  0
   38.6060   26.4040   32.1740 C   0  0  0  0  0  0  0  0  0  0  0  0
   37.2630   26.9610   32.3510 C   0  0  0  0  0  0  0  0  0  0  0  0
   36.2120   25.5770   31.9190 S   0  0  0  0  0  0  0  0  0  0  0  0
   37.7000   24.4500   31.5640 C   0  0  0  0  0  0  0  0  0  0  0  0
   38.6160   25.1560   31.7840 N   0  0  0  0  0  0  0  0  0  0  0  0
   38.1040   23.5460   37.4090 C   0  0  0  0  0  0  0  0  0  0  0  0
   39.0030   23.2840   38.4110 F   0  0  0  0  0  0  0  0  0  0  0  0
   37.5410   22.3870   36.9950 F   0  0  0  0  0  0  0  0  0  0  0  0
   37.1540   24.3890   38.0430 F   0  0  0  0  0  0  0  0  0  0  0  0
   40.8200   22.7010   36.2620 C   0  0  0  0  0  0  0  0  0  0  0  0
   41.8220   22.4070   35.3540 F   0  0  0  0  0  0  0  0  0  0  0  0
   41.3730   22.8940   37.5320 F   0  0  0  0  0  0  0  0  0  0  0  0
   40.0760   21.5670   36.3940 F   0  0  0  0  0  0  0  0  0  0  0  0
   37.2483   25.7874   36.1838 H   0  0  0  0  0  0  0  0  0  0  0  0
   42.5482   26.4538   34.2581 H   0  0  0  0  0  0  0  0  0  0  0  0
   42.5033   25.5988   32.7136 H   0  0  0  0  0  0  0  0  0  0  0  0
   42.0626   28.6267   33.1211 H   0  0  0  0  0  0  0  0  0  0  0  0
   43.5616   27.8468   32.4626 H   0  0  0  0  0  0  0  0  0  0  0  0
   41.9555   28.8766   30.8000 H   0  0  0  0  0  0  0  0  0  0  0  0
   42.4955   27.1404   30.5476 H   0  0  0  0  0  0  0  0  0  0  0  0
   39.9068   28.1481   30.5040 H   0  0  0  0  0  0  0  0  0  0  0  0
   40.4679   26.4264   30.5095 H   0  0  0  0  0  0  0  0  0  0  0  0
   39.7086   28.1648   32.8683 H   0  0  0  0  0  0  0  0  0  0  0  0
   36.9733   27.9734   32.6689 H   0  0  0  0  0  0  0  0  0  0  0  0
   37.7044   23.4003   31.2351 H   0  0  0  0  0  0  0  0  0  0  0  0
  1 22  1  0
  1  2  2  0
  2 18  1  0
  3  2  1  0
  4  3  2  0
  5  4  1  0
  5  6  2  0
  6  1  1  0
  7  5  1  0
  8  7  1  0
  9  8  1  0
 10  9  1  0
 11 10  1  0
 11 12  1  0
 12  7  1  0
 13 14  2  0
 13 12  1  0
 15 14  1  0
 16 17  2  0
 16 15  1  0
 17 13  1  0
 18 21  1  0
 18 19  1  0
 20 18  1  0
 22 25  1  0
 22 24  1  0
 23 22  1  0
  3 26  1  0
  8 27  1  0
  8 28  1  0
  9 29  1  0
  9 30  1  0
 10 31  1  0
 10 32  1  0
 11 33  1  0
 11 34  1  0
 12 35  1  1
 14 36  1  0
 16 37  1  0
M  ISO  8  26  14  27  13  28  13  29  13  30  13  31  13  32  13  33  13
M  ISO  4  34  13  35  13  36  14  37  14
M  END
>  <minimizedAffinity>  (1) 
-5.04711914

>  <minimizedRMSD>  (1) 
2.48002458

$$$$
