
     RDKit          3D

 46 48  0  0  1  0  0  0  0  0999 V2000
   40.2150   23.6680   36.0860 C   0  0  0  0  0  0  0  0  0  0  0  0
   38.9110   24.1430   36.3010 C   0  0  0  0  0  0  0  0  0  0  0  0
   38.5390   25.3240   35.6650 C   0  0  0  0  0  0  0  0  0  0  0  0
   39.4300   25.9660   34.8700 N   0  0  0  0  0  0  0  0  0  0  0  0
   40.6800   25.4700   34.6900 C   0  0  0  0  0  0  0  0  0  0  0  0
   41.0440   24.3600   35.2830 N   0  0  0  0  0  0  0  0  0  0  0  0
   41.5490   26.2170   33.8360 N   0  0  0  0  0  0  0  0  0  0  0  0
   42.9620   26.1640   34.0970 C   0  0  0  0  0  0  0  0  0  0  0  0
   43.5570   27.4110   33.4890 C   0  0  0  0  0  0  0  0  0  0  0  0
   43.3200   27.5040   32.0170 C   0  0  0  0  0  0  0  0  0  0  0  0
   41.9310   27.1750   31.5930 C   0  0  0  0  0  0  0  0  0  0  0  0
   41.0160   26.9850   32.7620 C   0  0  1  0  0  0  0  0  0  0  0  0
   39.7370   26.4720   32.4270 N   0  0  0  0  0  0  0  0  0  0  0  0
   39.6810   25.3550   31.5760 C   0  0  0  0  0  0  0  0  0  0  0  0
   39.0140   25.6200   30.2500 C   0  0  0  0  0  0  0  0  0  0  0  0
   38.7940   27.0690   29.9460 C   0  0  0  0  0  0  0  0  0  0  0  0
   38.3380   27.9130   31.0830 C   0  0  0  0  0  0  0  0  0  0  0  0
   38.6370   27.3460   32.4420 C   0  0  0  0  0  0  0  0  0  0  0  0
   37.9470   23.4440   37.1630 C   0  0  0  0  0  0  0  0  0  0  0  0
   38.4960   23.2870   38.3970 F   0  0  0  0  0  0  0  0  0  0  0  0
   37.5790   22.2160   36.6810 F   0  0  0  0  0  0  0  0  0  0  0  0
   36.8220   24.2450   37.3930 F   0  0  0  0  0  0  0  0  0  0  0  0
   40.8120   22.4440   36.6590 C   0  0  0  0  0  0  0  0  0  0  0  0
   42.0600   22.1870   36.1050 F   0  0  0  0  0  0  0  0  0  0  0  0
   40.8970   22.5210   38.0400 F   0  0  0  0  0  0  0  0  0  0  0  0
   40.0640   21.3160   36.4250 F   0  0  0  0  0  0  0  0  0  0  0  0
   37.5281   25.7339   35.8066 H   0  0  0  0  0  0  0  0  0  0  0  0
   43.1478   26.1438   35.1810 H   0  0  0  0  0  0  0  0  0  0  0  0
   43.4124   25.2575   33.6664 H   0  0  0  0  0  0  0  0  0  0  0  0
   43.1057   28.2890   33.9743 H   0  0  0  0  0  0  0  0  0  0  0  0
   44.6447   27.3722   33.6487 H   0  0  0  0  0  0  0  0  0  0  0  0
   43.5421   28.5329   31.6976 H   0  0  0  0  0  0  0  0  0  0  0  0
   43.9759   26.7565   31.5468 H   0  0  0  0  0  0  0  0  0  0  0  0
   41.5460   27.9965   30.9710 H   0  0  0  0  0  0  0  0  0  0  0  0
   41.9631   26.2301   31.0307 H   0  0  0  0  0  0  0  0  0  0  0  0
   40.9038   28.0211   33.1140 H   0  0  0  0  0  0  0  0  0  0  0  0
   40.7097   25.0167   31.3830 H   0  0  0  0  0  0  0  0  0  0  0  0
   39.0718   24.5968   32.0899 H   0  0  0  0  0  0  0  0  0  0  0  0
   39.6454   25.1942   29.4563 H   0  0  0  0  0  0  0  0  0  0  0  0
   38.0181   25.1558   30.3018 H   0  0  0  0  0  0  0  0  0  0  0  0
   39.7445   27.4838   29.5792 H   0  0  0  0  0  0  0  0  0  0  0  0
   37.9766   27.0964   29.2104 H   0  0  0  0  0  0  0  0  0  0  0  0
   38.8326   28.8923   31.0034 H   0  0  0  0  0  0  0  0  0  0  0  0
   37.2425   27.9754   31.0053 H   0  0  0  0  0  0  0  0  0  0  0  0
   37.7533   26.7958   32.7975 H   0  0  0  0  0  0  0  0  0  0  0  0
   38.8842   28.1852   33.1088 H   0  0  0  0  0  0  0  0  0  0  0  0
  1  2  2  0
  1 23  1  0
  2 19  1  0
  3  2  1  0
  4  3  2  0
  5  4  1  0
  5  6  2  0
  6  1  1  0
  7  8  1  0
  7  5  1  0
  9  8  1  0
 10  9  1  0
 11 10  1  0
 11 12  1  0
 12  7  1  0
 13 18  1  0
 13 12  1  0
 14 13  1  0
 15 14  1  0
 16 15  1  0
 16 17  1  0
 17 18  1  0
 19 22  1  0
 19 20  1  0
 21 19  1  0
 23 25  1  0
 24 23  1  0
 26 23  1  0
  3 27  1  0
  8 28  1  0
  8 29  1  0
  9 30  1  0
  9 31  1  0
 10 32  1  0
 10 33  1  0
 11 34  1  0
 11 35  1  0
 12 36  1  1
 14 37  1  0
 14 38  1  0
 15 39  1  0
 15 40  1  0
 16 41  1  0
 16 42  1  0
 17 43  1  0
 17 44  1  0
 18 45  1  0
 18 46  1  0
M  ISO  8  27  14  28  13  29  13  30  13  31  13  32  13  33  13  34  13
M  ISO  8  35  13  36  13  37  13  38  13  39  13  40  13  41  13  42  13
M  ISO  4  43  13  44  13  45  13  46  13
M  END
>  <minimizedAffinity>  (1) 
-5.01896429

>  <minimizedRMSD>  (1) 
3.33045769

$$$$
