
     RDKit          3D

 34 35  0  0  1  0  0  0  0  0999 V2000
   38.7970   23.7120   35.5770 C   0  0  0  0  0  0  0  0  0  0  0  0
   38.3980   24.5120   36.6650 C   0  0  0  0  0  0  0  0  0  0  0  0
   38.2720   25.8900   36.4600 C   0  0  0  0  0  0  0  0  0  0  0  0
   38.5380   26.3910   35.2270 N   0  0  0  0  0  0  0  0  0  0  0  0
   38.9190   25.5850   34.2090 C   0  0  0  0  0  0  0  0  0  0  0  0
   39.0390   24.2930   34.3930 N   0  0  0  0  0  0  0  0  0  0  0  0
   39.1680   26.2150   32.9510 N   0  0  0  0  0  0  0  0  0  0  0  0
   40.1610   25.6270   32.0860 C   0  0  0  0  0  0  0  0  0  0  0  0
   40.6180   26.7730   31.1810 C   0  0  0  0  0  0  0  0  0  0  0  0
   39.5060   27.2960   30.3380 C   0  0  0  0  0  0  0  0  0  0  0  0
   38.2580   27.5670   31.0990 C   0  0  0  0  0  0  0  0  0  0  0  0
   38.4460   27.4030   32.5740 C   0  0  1  0  0  0  0  0  0  0  0  0
   38.1120   23.9480   37.9960 C   0  0  0  0  0  0  0  0  0  0  0  0
   39.2810   23.4540   38.5090 F   0  0  0  0  0  0  0  0  0  0  0  0
   37.1750   22.9490   37.9850 F   0  0  0  0  0  0  0  0  0  0  0  0
   37.7310   24.9600   38.8870 F   0  0  0  0  0  0  0  0  0  0  0  0
   38.9920   22.2450   35.5860 C   0  0  0  0  0  0  0  0  0  0  0  0
   39.4710   21.7950   34.3850 F   0  0  0  0  0  0  0  0  0  0  0  0
   39.8780   21.8820   36.6150 F   0  0  0  0  0  0  0  0  0  0  0  0
   37.8730   21.5370   35.8810 F   0  0  0  0  0  0  0  0  0  0  0  0
   37.1080   27.5020   33.2540 C   0  0  0  0  0  0  0  0  0  0  0  0
   36.4320   28.1910   34.0570 O   0  0  0  0  0  0  0  0  0  0  0  0
   36.3260   26.4120   32.8240 O   0  0  0  0  0  0  0  0  0  0  0  0
   37.9637   26.5538   37.2811 H   0  0  0  0  0  0  0  0  0  0  0  0
   41.0051   25.2371   32.6738 H   0  0  0  0  0  0  0  0  0  0  0  0
   39.7615   24.7781   31.5117 H   0  0  0  0  0  0  0  0  0  0  0  0
   41.0020   27.5902   31.8093 H   0  0  0  0  0  0  0  0  0  0  0  0
   41.3994   26.3857   30.5106 H   0  0  0  0  0  0  0  0  0  0  0  0
   39.2829   26.5538   29.5574 H   0  0  0  0  0  0  0  0  0  0  0  0
   39.8430   28.2558   29.9193 H   0  0  0  0  0  0  0  0  0  0  0  0
   37.9368   28.5993   30.8959 H   0  0  0  0  0  0  0  0  0  0  0  0
   37.5002   26.8392   30.7732 H   0  0  0  0  0  0  0  0  0  0  0  0
   39.0946   28.2224   32.9175 H   0  0  0  0  0  0  0  0  0  0  0  0
   35.4028   26.3006   33.1637 H   0  0  0  0  0  0  0  0  0  0  0  0
  1 17  1  0
  1  2  2  0
  2 13  1  0
  3  2  1  0
  4  3  2  0
  5  6  2  0
  5  4  1  0
  6  1  1  0
  7  5  1  0
  8  7  1  0
  9  8  1  0
 10 11  1  0
 10  9  1  0
 11 12  1  0
 12  7  1  0
 12 21  1  0
 13 14  1  0
 13 16  1  0
 15 13  1  0
 17 20  1  0
 17 19  1  0
 18 17  1  0
 21 22  2  0
 23 21  1  0
  3 24  1  0
  8 25  1  0
  8 26  1  0
  9 27  1  0
  9 28  1  0
 10 29  1  0
 10 30  1  0
 11 31  1  0
 11 32  1  0
 12 33  1  1
 23 34  1  0
M  ISO  8  24  14  25  13  26  13  27  13  28  13  29  13  30  13  31  13
M  ISO  3  32  13  33  13  34   3
M  END
>  <minimizedAffinity>  (1) 
-5.5111413

>  <minimizedRMSD>  (1) 
2.04858994

$$$$
