
     RDKit          3D

 35 37  0  0  0  0  0  0  0  0999 V2000
   38.2010   26.7390   34.3460 C   0  0  0  0  0  0  0  0  0  0  0  0
   37.0760   27.6340   34.7880 C   0  0  0  0  0  0  0  0  0  0  0  0
   38.6510   27.1770   32.9700 C   0  0  0  0  0  0  0  0  0  0  0  0
   39.4010   27.0390   35.2650 C   0  0  0  0  0  0  0  0  0  0  0  0
   40.6870   26.8400   34.5450 C   0  0  0  0  0  0  0  0  0  0  0  0
   41.4950   25.7700   34.7350 N   0  0  0  0  0  0  0  0  0  0  0  0
   42.5290   25.9020   33.9570 O   0  0  0  0  0  0  0  0  0  0  0  0
   42.4570   26.9970   33.2610 C   0  0  0  0  0  0  0  0  0  0  0  0
   41.3090   27.5860   33.6240 N   0  0  0  0  0  0  0  0  0  0  0  0
   37.8860   24.9940   34.4650 S   0  0  0  0  0  0  0  0  0  0  0  0
   38.2390   23.7740   38.3290 C   0  0  0  0  0  0  0  0  0  0  0  0
   37.7760   24.3800   37.1510 C   0  0  0  0  0  0  0  0  0  0  0  0
   38.4600   24.2330   35.9640 C   0  0  0  0  0  0  0  0  0  0  0  0
   39.5870   23.4790   36.0030 N   0  0  0  0  0  0  0  0  0  0  0  0
   40.0380   22.8980   37.1140 C   0  0  0  0  0  0  0  0  0  0  0  0
   39.3840   23.0330   38.2720 N   0  0  0  0  0  0  0  0  0  0  0  0
   41.2420   22.1270   37.0200 N   0  0  0  0  0  0  0  0  0  0  0  0
   41.5320   21.0250   37.7000 N   0  0  0  0  0  0  0  0  0  0  0  0
   42.7370   20.5470   37.3820 C   0  0  0  0  0  0  0  0  0  0  0  0
   43.2020   21.4410   36.4340 C   0  0  0  0  0  0  0  0  0  0  0  0
   42.2630   22.4430   36.2000 C   0  0  0  0  0  0  0  0  0  0  0  0
   37.0402   27.6624   35.8871 H   0  0  0  0  0  0  0  0  0  0  0  0
   37.2416   28.6499   34.4001 H   0  0  0  0  0  0  0  0  0  0  0  0
   36.1233   27.2442   34.4001 H   0  0  0  0  0  0  0  0  0  0  0  0
   39.4362   27.9412   33.0670 H   0  0  0  0  0  0  0  0  0  0  0  0
   39.0485   26.3105   32.4211 H   0  0  0  0  0  0  0  0  0  0  0  0
   37.7956   27.5978   32.4211 H   0  0  0  0  0  0  0  0  0  0  0  0
   39.3389   28.0821   35.6086 H   0  0  0  0  0  0  0  0  0  0  0  0
   39.3681   26.3486   36.1207 H   0  0  0  0  0  0  0  0  0  0  0  0
   43.1876   27.3648   32.5255 H   0  0  0  0  0  0  0  0  0  0  0  0
   37.6922   23.8933   39.2760 H   0  0  0  0  0  0  0  0  0  0  0  0
   36.8547   24.9804   37.1756 H   0  0  0  0  0  0  0  0  0  0  0  0
   43.2410   19.6537   37.7795 H   0  0  0  0  0  0  0  0  0  0  0  0
   44.1791   21.3703   35.9337 H   0  0  0  0  0  0  0  0  0  0  0  0
   42.3378   23.2940   35.5071 H   0  0  0  0  0  0  0  0  0  0  0  0
  1 10  1  0
  1  2  1  0
  1  4  1  0
  3  1  1  0
  5  6  2  0
  5  4  1  0
  7  6  1  0
  8  9  2  0
  8  7  1  0
  9  5  1  0
 10 13  1  0
 12 11  2  0
 13 14  2  0
 13 12  1  0
 14 15  1  0
 15 16  2  0
 16 11  1  0
 17 15  1  0
 17 18  1  0
 19 18  2  0
 20 19  1  0
 21 20  2  0
 21 17  1  0
  2 22  1  0
  2 23  1  0
  2 24  1  0
  3 25  1  0
  3 26  1  0
  3 27  1  0
  4 28  1  0
  4 29  1  0
  8 30  1  0
 11 31  1  0
 12 32  1  0
 19 33  1  0
 20 34  1  0
 21 35  1  0
M  ISO  8  22   8  23   8  24   8  25   8  26   8  27   8  28   8  29   8
M  ISO  6  30  14  31  14  32  14  33  14  34  14  35  14
M  END
>  <minimizedAffinity>  (1) 
-5.02021122

>  <minimizedRMSD>  (1) 
0.620512784

$$$$
