
     RDKit          3D

 34 35  0  0  1  0  0  0  0  0999 V2000
   38.1760   23.7460   35.5900 C   0  0  0  0  0  0  0  0  0  0  0  0
   38.1920   24.5330   36.7450 C   0  0  0  0  0  0  0  0  0  0  0  0
   38.2260   25.9210   36.5920 C   0  0  0  0  0  0  0  0  0  0  0  0
   38.2400   26.4540   35.3390 N   0  0  0  0  0  0  0  0  0  0  0  0
   38.2240   25.6660   34.2570 C   0  0  0  0  0  0  0  0  0  0  0  0
   38.1920   24.3420   34.3760 N   0  0  0  0  0  0  0  0  0  0  0  0
   38.2410   26.2990   32.9690 N   0  0  0  0  0  0  0  0  0  0  0  0
   38.8370   25.6130   31.8730 C   0  0  0  0  0  0  0  0  0  0  0  0
   39.2480   26.6780   30.8760 C   0  0  0  0  0  0  0  0  0  0  0  0
   38.0970   27.5010   30.3960 C   0  0  0  0  0  0  0  0  0  0  0  0
   37.1030   27.8770   31.4510 C   0  0  0  0  0  0  0  0  0  0  0  0
   37.6620   27.6020   32.8160 C   0  0  1  0  0  0  0  0  0  0  0  0
   38.1760   23.9450   38.0970 C   0  0  0  0  0  0  0  0  0  0  0  0
   39.3910   23.3790   38.3300 F   0  0  0  0  0  0  0  0  0  0  0  0
   37.2040   23.0060   38.2810 F   0  0  0  0  0  0  0  0  0  0  0  0
   38.0680   24.9610   39.0630 F   0  0  0  0  0  0  0  0  0  0  0  0
   38.1420   22.2700   35.5250 C   0  0  0  0  0  0  0  0  0  0  0  0
   38.1650   21.8260   34.2110 F   0  0  0  0  0  0  0  0  0  0  0  0
   39.1930   21.7160   36.2390 F   0  0  0  0  0  0  0  0  0  0  0  0
   37.0300   21.7210   36.0960 F   0  0  0  0  0  0  0  0  0  0  0  0
   36.5730   27.8900   33.8230 C   0  0  0  0  0  0  0  0  0  0  0  0
   38.2413   26.5770   37.4749 H   0  0  0  0  0  0  0  0  0  0  0  0
   39.7180   25.0479   32.2113 H   0  0  0  0  0  0  0  0  0  0  0  0
   38.1365   24.8940   31.4233 H   0  0  0  0  0  0  0  0  0  0  0  0
   39.9798   27.3444   31.3561 H   0  0  0  0  0  0  0  0  0  0  0  0
   39.6737   26.1644   30.0014 H   0  0  0  0  0  0  0  0  0  0  0  0
   38.4987   28.4276   29.9601 H   0  0  0  0  0  0  0  0  0  0  0  0
   37.5541   26.8763   29.6714 H   0  0  0  0  0  0  0  0  0  0  0  0
   36.8693   28.9483   31.3638 H   0  0  0  0  0  0  0  0  0  0  0  0
   36.1902   27.2792   31.3114 H   0  0  0  0  0  0  0  0  0  0  0  0
   38.5208   28.2680   32.9861 H   0  0  0  0  0  0  0  0  0  0  0  0
   36.9770   27.7832   34.8406 H   0  0  0  0  0  0  0  0  0  0  0  0
   36.2042   28.9165   33.6808 H   0  0  0  0  0  0  0  0  0  0  0  0
   35.7450   27.1800   33.6808 H   0  0  0  0  0  0  0  0  0  0  0  0
  1  2  2  0
  2 13  1  0
  3  2  1  0
  4  3  2  0
  5  6  2  0
  5  4  1  0
  6  1  1  0
  7  5  1  0
  8  7  1  0
  9  8  1  0
 10  9  1  0
 10 11  1  0
 11 12  1  0
 12  7  1  0
 12 21  1  0
 13 15  1  0
 13 14  1  0
 13 16  1  0
 17  1  1  0
 17 20  1  0
 17 19  1  0
 18 17  1  0
  3 22  1  0
  8 23  1  0
  8 24  1  0
  9 25  1  0
  9 26  1  0
 10 27  1  0
 10 28  1  0
 11 29  1  0
 11 30  1  0
 12 31  1  1
 21 32  1  0
 21 33  1  0
 21 34  1  0
M  ISO  8  22  14  23  13  24  13  25  13  26  13  27  13  28  13  29  13
M  ISO  5  30  13  31  13  32   8  33   8  34   8
M  END
>  <minimizedAffinity>  (1) 
-5.84013176

>  <minimizedRMSD>  (1) 
2.21190619

$$$$
