
     RDKit          3D

 44 46  0  0  1  0  0  0  0  0999 V2000
   38.1260   23.8860   35.6440 C   0  0  0  0  0  0  0  0  0  0  0  0
   38.1260   24.6310   36.8240 C   0  0  0  0  0  0  0  0  0  0  0  0
   38.0720   26.0250   36.7160 C   0  0  0  0  0  0  0  0  0  0  0  0
   38.0250   26.5790   35.4790 N   0  0  0  0  0  0  0  0  0  0  0  0
   38.0260   25.8490   34.3760 C   0  0  0  0  0  0  0  0  0  0  0  0
   38.0760   24.5240   34.4580 N   0  0  0  0  0  0  0  0  0  0  0  0
   37.9640   26.5160   33.1220 N   0  0  0  0  0  0  0  0  0  0  0  0
   38.5980   25.9160   31.9860 C   0  0  0  0  0  0  0  0  0  0  0  0
   38.9170   27.0330   31.0260 C   0  0  0  0  0  0  0  0  0  0  0  0
   37.7380   27.8160   30.5980 C   0  0  0  0  0  0  0  0  0  0  0  0
   36.6850   28.0360   31.6560 C   0  0  0  0  0  0  0  0  0  0  0  0
   37.2580   27.7630   33.0050 C   0  0  1  0  0  0  0  0  0  0  0  0
   38.1780   23.9980   38.1540 C   0  0  0  0  0  0  0  0  0  0  0  0
   39.4050   23.4580   38.3220 F   0  0  0  0  0  0  0  0  0  0  0  0
   37.2400   23.0160   38.3390 F   0  0  0  0  0  0  0  0  0  0  0  0
   38.0570   24.9700   39.1570 F   0  0  0  0  0  0  0  0  0  0  0  0
   38.1800   22.4050   35.5190 C   0  0  0  0  0  0  0  0  0  0  0  0
   38.2870   22.0140   34.1940 F   0  0  0  0  0  0  0  0  0  0  0  0
   39.2580   21.8920   36.2370 F   0  0  0  0  0  0  0  0  0  0  0  0
   37.1130   21.7650   36.0470 F   0  0  0  0  0  0  0  0  0  0  0  0
   36.2000   27.9630   34.0450 C   0  0  0  0  0  0  0  0  0  0  0  0
   35.9930   29.4570   34.2830 C   0  0  0  0  0  0  0  0  0  0  0  0
   35.5480   30.2980   33.2610 C   0  0  0  0  0  0  0  0  0  0  0  0
   35.3810   31.6450   33.5080 C   0  0  0  0  0  0  0  0  0  0  0  0
   35.6460   32.1830   34.7550 C   0  0  0  0  0  0  0  0  0  0  0  0
   36.0860   31.3530   35.7650 C   0  0  0  0  0  0  0  0  0  0  0  0
   36.2540   30.0060   35.5210 C   0  0  0  0  0  0  0  0  0  0  0  0
   38.0678   26.6582   37.6155 H   0  0  0  0  0  0  0  0  0  0  0  0
   39.5224   25.4055   32.2938 H   0  0  0  0  0  0  0  0  0  0  0  0
   37.9423   25.1674   31.5173 H   0  0  0  0  0  0  0  0  0  0  0  0
   39.6268   27.7165   31.5148 H   0  0  0  0  0  0  0  0  0  0  0  0
   39.3325   26.5650   30.1214 H   0  0  0  0  0  0  0  0  0  0  0  0
   38.0903   28.8019   30.2605 H   0  0  0  0  0  0  0  0  0  0  0  0
   37.2530   27.2239   29.8080 H   0  0  0  0  0  0  0  0  0  0  0  0
   36.3356   29.0781   31.6120 H   0  0  0  0  0  0  0  0  0  0  0  0
   35.8414   27.3536   31.4754 H   0  0  0  0  0  0  0  0  0  0  0  0
   38.0586   28.4976   33.1768 H   0  0  0  0  0  0  0  0  0  0  0  0
   35.2574   27.5131   33.6999 H   0  0  0  0  0  0  0  0  0  0  0  0
   36.5145   27.4833   34.9836 H   0  0  0  0  0  0  0  0  0  0  0  0
   35.3315   29.8883   32.2634 H   0  0  0  0  0  0  0  0  0  0  0  0
   35.0309   32.3031   32.6991 H   0  0  0  0  0  0  0  0  0  0  0  0
   35.5076   33.2587   34.9385 H   0  0  0  0  0  0  0  0  0  0  0  0
   36.3023   31.7642   36.7621 H   0  0  0  0  0  0  0  0  0  0  0  0
   36.6049   29.3533   36.3340 H   0  0  0  0  0  0  0  0  0  0  0  0
  1  2  2  0
  2 13  1  0
  3  2  1  0
  4  3  2  0
  5  6  2  0
  5  4  1  0
  6  1  1  0
  7  5  1  0
  8  7  1  0
  9  8  1  0
 10  9  1  0
 10 11  1  0
 11 12  1  0
 12  7  1  0
 12 21  1  0
 13 14  1  0
 13 15  1  0
 13 16  1  0
 17  1  1  0
 17 20  1  0
 17 19  1  0
 18 17  1  0
 21 22  1  0
 22 27  2  0
 23 24  2  0
 23 22  1  0
 24 25  1  0
 25 26  2  0
 27 26  1  0
  3 28  1  0
  8 29  1  0
  8 30  1  0
  9 31  1  0
  9 32  1  0
 10 33  1  0
 10 34  1  0
 11 35  1  0
 11 36  1  0
 12 37  1  1
 21 38  1  0
 21 39  1  0
 23 40  1  0
 24 41  1  0
 25 42  1  0
 26 43  1  0
 27 44  1  0
M  ISO  8  28  14  29  13  30  13  31  13  32  13  33  13  34  13  35  13
M  ISO  8  36  13  37  13  38   8  39   8  40  14  41  14  42  14  43  14
M  ISO  1  44  14
M  END
>  <minimizedAffinity>  (1) 
-6.63873768

>  <minimizedRMSD>  (1) 
0.839173913

$$$$
