
     RDKit          3D

 42 44  0  0  1  0  0  0  0  0999 V2000
   38.1350   23.8710   35.6500 C   0  0  0  0  0  0  0  0  0  0  0  0
   38.1300   24.6060   36.8390 C   0  0  0  0  0  0  0  0  0  0  0  0
   38.0620   25.9990   36.7450 C   0  0  0  0  0  0  0  0  0  0  0  0
   38.0030   26.5640   35.5140 N   0  0  0  0  0  0  0  0  0  0  0  0
   38.0080   25.8470   34.4020 C   0  0  0  0  0  0  0  0  0  0  0  0
   38.0730   24.5210   34.4680 N   0  0  0  0  0  0  0  0  0  0  0  0
   37.9340   26.5230   33.1550 N   0  0  0  0  0  0  0  0  0  0  0  0
   38.5640   25.9460   32.0110 C   0  0  0  0  0  0  0  0  0  0  0  0
   38.8690   27.0790   31.0610 C   0  0  0  0  0  0  0  0  0  0  0  0
   37.6760   27.8540   30.6490 C   0  0  0  0  0  0  0  0  0  0  0  0
   36.6240   28.0490   31.7140 C   0  0  0  0  0  0  0  0  0  0  0  0
   37.2150   27.7650   33.0530 C   0  0  1  0  0  0  0  0  0  0  0  0
   38.1950   23.9580   38.1620 C   0  0  0  0  0  0  0  0  0  0  0  0
   39.4250   23.4240   38.3150 F   0  0  0  0  0  0  0  0  0  0  0  0
   37.2550   22.9740   38.3430 F   0  0  0  0  0  0  0  0  0  0  0  0
   38.0820   24.9210   39.1750 F   0  0  0  0  0  0  0  0  0  0  0  0
   38.2050   22.3930   35.5100 C   0  0  0  0  0  0  0  0  0  0  0  0
   38.3190   22.0160   34.1800 F   0  0  0  0  0  0  0  0  0  0  0  0
   39.2780   21.8830   36.2280 F   0  0  0  0  0  0  0  0  0  0  0  0
   37.1360   21.7380   36.0230 F   0  0  0  0  0  0  0  0  0  0  0  0
   36.1730   27.9580   34.1090 C   0  0  0  0  0  0  0  0  0  0  0  0
   35.9310   29.4450   34.3410 C   0  0  0  0  0  0  0  0  0  0  0  0
   35.3400   30.2460   33.3830 C   0  0  0  0  0  0  0  0  0  0  0  0
   35.1400   31.5880   33.6360 C   0  0  0  0  0  0  0  0  0  0  0  0
   35.5370   32.0850   34.8300 N   0  0  0  0  0  0  0  0  0  0  0  0
   36.1130   31.3020   35.7590 C   0  0  0  0  0  0  0  0  0  0  0  0
   36.3110   29.9950   35.5230 N   0  0  0  0  0  0  0  0  0  0  0  0
   38.0565   26.6235   37.6505 H   0  0  0  0  0  0  0  0  0  0  0  0
   39.4945   25.4393   32.3067 H   0  0  0  0  0  0  0  0  0  0  0  0
   37.9109   25.1989   31.5364 H   0  0  0  0  0  0  0  0  0  0  0  0
   39.5739   27.7644   31.5543 H   0  0  0  0  0  0  0  0  0  0  0  0
   39.2871   26.6275   30.1492 H   0  0  0  0  0  0  0  0  0  0  0  0
   38.0148   28.8482   30.3222 H   0  0  0  0  0  0  0  0  0  0  0  0
   37.1942   27.2645   29.8550 H   0  0  0  0  0  0  0  0  0  0  0  0
   36.2614   29.0872   31.6858 H   0  0  0  0  0  0  0  0  0  0  0  0
   35.7842   27.3627   31.5304 H   0  0  0  0  0  0  0  0  0  0  0  0
   38.0168   28.5000   33.2170 H   0  0  0  0  0  0  0  0  0  0  0  0
   35.2351   27.4829   33.7857 H   0  0  0  0  0  0  0  0  0  0  0  0
   36.5213   27.4995   35.0463 H   0  0  0  0  0  0  0  0  0  0  0  0
   35.0293   29.8148   32.4199 H   0  0  0  0  0  0  0  0  0  0  0  0
   34.6688   32.2383   32.8843 H   0  0  0  0  0  0  0  0  0  0  0  0
   36.4247   31.7358   36.7206 H   0  0  0  0  0  0  0  0  0  0  0  0
  1  2  2  0
  2 13  1  0
  3  2  1  0
  4  3  2  0
  5  6  2  0
  5  4  1  0
  6  1  1  0
  7  5  1  0
  8  7  1  0
  9  8  1  0
 10  9  1  0
 10 11  1  0
 11 12  1  0
 12  7  1  0
 12 21  1  0
 13 14  1  0
 13 15  1  0
 13 16  1  0
 17  1  1  0
 17 20  1  0
 17 19  1  0
 18 17  1  0
 21 22  1  0
 22 27  2  0
 23 24  2  0
 23 22  1  0
 24 25  1  0
 25 26  2  0
 27 26  1  0
  3 28  1  0
  8 29  1  0
  8 30  1  0
  9 31  1  0
  9 32  1  0
 10 33  1  0
 10 34  1  0
 11 35  1  0
 11 36  1  0
 12 37  1  1
 21 38  1  0
 21 39  1  0
 23 40  1  0
 24 41  1  0
 26 42  1  0
M  ISO  8  28  14  29  13  30  13  31  13  32  13  33  13  34  13  35  13
M  ISO  7  36  13  37  13  38   8  39   8  40  14  41  14  42  14
M  END
>  <minimizedAffinity>  (1) 
-6.25041199

>  <minimizedRMSD>  (1) 
0.772996783

$$$$
