
     RDKit          3D

 30 31  0  0  0  0  0  0  0  0999 V2000
   38.3110   26.4840   34.3220 C   0  0  0  0  0  0  0  0  0  0  0  0
   37.0660   27.2130   34.7100 C   0  0  0  0  0  0  0  0  0  0  0  0
   38.7000   26.9250   32.9170 C   0  0  0  0  0  0  0  0  0  0  0  0
   39.4500   27.0170   35.2160 C   0  0  0  0  0  0  0  0  0  0  0  0
   40.7830   26.7760   34.5860 C   0  0  0  0  0  0  0  0  0  0  0  0
   41.5500   25.6960   34.8610 N   0  0  0  0  0  0  0  0  0  0  0  0
   42.6420   25.7770   34.1570 O   0  0  0  0  0  0  0  0  0  0  0  0
   42.6370   26.8620   33.4250 C   0  0  0  0  0  0  0  0  0  0  0  0
   41.4840   27.4880   33.6870 N   0  0  0  0  0  0  0  0  0  0  0  0
   38.2770   24.7230   34.5170 S   0  0  0  0  0  0  0  0  0  0  0  0
   37.9970   24.2130   38.5380 C   0  0  0  0  0  0  0  0  0  0  0  0
   37.7890   24.6700   37.2290 C   0  0  0  0  0  0  0  0  0  0  0  0
   38.5250   24.1610   36.1810 C   0  0  0  0  0  0  0  0  0  0  0  0
   39.4440   23.2110   36.4910 N   0  0  0  0  0  0  0  0  0  0  0  0
   39.6460   22.7740   37.7350 C   0  0  0  0  0  0  0  0  0  0  0  0
   38.9320   23.2650   38.7640 N   0  0  0  0  0  0  0  0  0  0  0  0
   40.6590   21.7730   37.8330 N   0  0  0  0  0  0  0  0  0  0  0  0
   36.9929   27.2558   35.8067 H   0  0  0  0  0  0  0  0  0  0  0  0
   37.0981   28.2350   34.3045 H   0  0  0  0  0  0  0  0  0  0  0  0
   36.1904   26.6849   34.3045 H   0  0  0  0  0  0  0  0  0  0  0  0
   39.4265   27.7486   32.9792 H   0  0  0  0  0  0  0  0  0  0  0  0
   39.1508   26.0783   32.3786 H   0  0  0  0  0  0  0  0  0  0  0  0
   37.8037   27.2666   32.3786 H   0  0  0  0  0  0  0  0  0  0  0  0
   39.3134   28.0981   35.3662 H   0  0  0  0  0  0  0  0  0  0  0  0
   39.4167   26.4867   36.1791 H   0  0  0  0  0  0  0  0  0  0  0  0
   43.4244   27.1934   32.7320 H   0  0  0  0  0  0  0  0  0  0  0  0
   37.4059   24.6216   39.3708 H   0  0  0  0  0  0  0  0  0  0  0  0
   37.0304   25.4429   37.0365 H   0  0  0  0  0  0  0  0  0  0  0  0
   40.8947   21.3668   38.7497 H   0  0  0  0  0  0  0  0  0  0  0  0
   41.1542   21.4569   36.9870 H   0  0  0  0  0  0  0  0  0  0  0  0
  1 10  1  0
  1  2  1  0
  1  4  1  0
  3  1  1  0
  5  6  2  0
  5  4  1  0
  7  6  1  0
  8  9  2  0
  8  7  1  0
  9  5  1  0
 10 13  1  0
 11 16  2  0
 12 11  1  0
 13 14  1  0
 13 12  2  0
 14 15  2  0
 15 17  1  0
 15 16  1  0
  2 18  1  0
  2 19  1  0
  2 20  1  0
  3 21  1  0
  3 22  1  0
  3 23  1  0
  4 24  1  0
  4 25  1  0
  8 26  1  0
 11 27  1  0
 12 28  1  0
 17 29  1  0
 17 30  1  0
M  ISO  8  18   8  19   8  20   8  21   8  22   8  23   8  24   8  25   8
M  ISO  3  26  14  27  14  28  14
M  END
>  <minimizedAffinity>  (1) 
-4.91990423

>  <minimizedRMSD>  (1) 
0.164015219

$$$$
