
     RDKit          3D

 21 22  0  0  0  0  0  0  0  0999 V2000
   38.3460   24.4710   36.3210 C   0  0  0  0  0  0  0  0  0  0  0  0
   39.4180   23.5810   36.1850 C   0  0  0  0  0  0  0  0  0  0  0  0
   39.8340   22.8820   37.3340 C   0  0  0  0  0  0  0  0  0  0  0  0
   39.1660   23.1220   38.4940 N   0  0  0  0  0  0  0  0  0  0  0  0
   38.1350   23.9930   38.5800 C   0  0  0  0  0  0  0  0  0  0  0  0
   37.7380   24.6570   37.4880 N   0  0  0  0  0  0  0  0  0  0  0  0
   37.9210   25.1910   35.1250 C   0  0  0  0  0  0  0  0  0  0  0  0
   37.5100   26.5150   35.2490 C   0  0  0  0  0  0  0  0  0  0  0  0
   37.1260   27.1130   34.0590 C   0  0  0  0  0  0  0  0  0  0  0  0
   37.1340   26.5030   32.8560 N   0  0  0  0  0  0  0  0  0  0  0  0
   37.5460   25.2120   32.7960 C   0  0  0  0  0  0  0  0  0  0  0  0
   37.9290   24.5840   33.9230 N   0  0  0  0  0  0  0  0  0  0  0  0
   40.9670   21.9140   37.2770 C   0  0  0  0  0  0  0  0  0  0  0  0
   39.9170   23.4333   35.2159 H   0  0  0  0  0  0  0  0  0  0  0  0
   37.6259   24.1547   39.5416 H   0  0  0  0  0  0  0  0  0  0  0  0
   37.4914   27.0439   36.2133 H   0  0  0  0  0  0  0  0  0  0  0  0
   36.7907   28.1599   34.0985 H   0  0  0  0  0  0  0  0  0  0  0  0
   37.5669   24.6818   31.8324 H   0  0  0  0  0  0  0  0  0  0  0  0
   41.2757   21.6503   38.2993 H   0  0  0  0  0  0  0  0  0  0  0  0
   40.6471   21.0060   36.7448 H   0  0  0  0  0  0  0  0  0  0  0  0
   41.8139   22.3717   36.7448 H   0  0  0  0  0  0  0  0  0  0  0  0
  1  6  1  0
  2  1  2  0
  2  3  1  0
  3  4  2  0
  4  5  1  0
  6  5  2  0
  7  8  2  0
  7  1  1  0
  9  8  1  0
 10  9  2  0
 11 10  1  0
 11 12  2  0
 12  7  1  0
 13  3  1  0
  2 14  1  0
  5 15  1  0
  8 16  1  0
  9 17  1  0
 11 18  1  0
 13 19  1  0
 13 20  1  0
 13 21  1  0
M  ISO  8  14  14  15  14  16  14  17  14  18  14  19   8  20   8  21   8
M  END
>  <minimizedAffinity>  (1) 
-4.1300416

>  <minimizedRMSD>  (1) 
6.24003887

$$$$
