
     RDKit          3D

 29 31  0  0  0  0  0  0  0  0999 V2000
   38.4380   22.9360   35.1640 C   0  0  0  0  0  0  0  0  0  0  0  0
   39.5900   22.2980   35.5830 C   0  0  0  0  0  0  0  0  0  0  0  0
   40.0590   22.3310   36.8850 C   0  0  0  0  0  0  0  0  0  0  0  0
   39.2890   23.0470   37.7440 N   0  0  0  0  0  0  0  0  0  0  0  0
   38.1720   23.6730   37.3770 C   0  0  0  0  0  0  0  0  0  0  0  0
   37.7740   23.6060   36.1120 N   0  0  0  0  0  0  0  0  0  0  0  0
   37.7920   22.9370   33.8760 C   0  0  0  0  0  0  0  0  0  0  0  0
   38.1570   23.9300   32.9570 C   0  0  0  0  0  0  0  0  0  0  0  0
   37.6540   24.0650   31.6930 C   0  0  0  0  0  0  0  0  0  0  0  0
   36.7190   23.1780   31.2610 C   0  0  0  0  0  0  0  0  0  0  0  0
   36.3060   22.1690   32.0990 C   0  0  0  0  0  0  0  0  0  0  0  0
   35.3960   21.2730   31.6330 C   0  0  0  0  0  0  0  0  0  0  0  0
   34.9610   20.2020   32.4160 C   0  0  0  0  0  0  0  0  0  0  0  0
   35.5240   20.1190   33.6950 C   0  0  0  0  0  0  0  0  0  0  0  0
   36.4370   21.0540   34.1140 C   0  0  0  0  0  0  0  0  0  0  0  0
   36.8520   22.0940   33.3470 C   0  0  0  0  0  0  0  0  0  0  0  0
   41.3110   21.6200   37.2590 C   0  0  0  0  0  0  0  0  0  0  0  0
   40.1680   21.7309   34.8385 H   0  0  0  0  0  0  0  0  0  0  0  0
   37.5850   24.2399   38.1146 H   0  0  0  0  0  0  0  0  0  0  0  0
   38.9116   24.6623   33.2798 H   0  0  0  0  0  0  0  0  0  0  0  0
   37.9999   24.8773   31.0369 H   0  0  0  0  0  0  0  0  0  0  0  0
   36.2962   23.2666   30.2494 H   0  0  0  0  0  0  0  0  0  0  0  0
   34.9935   21.3945   30.6165 H   0  0  0  0  0  0  0  0  0  0  0  0
   34.2240   19.4712   32.0517 H   0  0  0  0  0  0  0  0  0  0  0  0
   35.2328   19.2993   34.3683 H   0  0  0  0  0  0  0  0  0  0  0  0
   36.8552   20.9552   35.1266 H   0  0  0  0  0  0  0  0  0  0  0  0
   41.3929   21.5735   38.3550 H   0  0  0  0  0  0  0  0  0  0  0  0
   41.2894   20.5994   36.8493 H   0  0  0  0  0  0  0  0  0  0  0  0
   42.1765   22.1614   36.8493 H   0  0  0  0  0  0  0  0  0  0  0  0
  1  2  2  0
  1  6  1  0
  2  3  1  0
  3 17  1  0
  3  4  2  0
  5  4  1  0
  6  5  2  0
  7  1  1  0
  8  7  2  0
  9  8  1  0
 10  9  2  0
 10 11  1  0
 11 16  2  0
 12 11  1  0
 12 13  2  0
 13 14  1  0
 14 15  2  0
 16  7  1  0
 16 15  1  0
  2 18  1  0
  5 19  1  0
  8 20  1  0
  9 21  1  0
 10 22  1  0
 12 23  1  0
 13 24  1  0
 14 25  1  0
 15 26  1  0
 17 27  1  0
 17 28  1  0
 17 29  1  0
M  ISO  8  18  14  19  14  20  14  21  14  22  14  23  14  24  14  25  14
M  ISO  4  26  14  27   8  28   8  29   8
M  END
>  <minimizedAffinity>  (1) 
-5.16625309

>  <minimizedRMSD>  (1) 
7.49289131

$$$$
