
     RDKit          3D

 19 20  0  0  0  0  0  0  0  0999 V2000
   37.7570   22.2660   36.1040 C   0  0  0  0  0  0  0  0  0  0  0  0
   39.1490   22.1290   36.0420 C   0  0  0  0  0  0  0  0  0  0  0  0
   39.9030   22.6780   37.0810 C   0  0  0  0  0  0  0  0  0  0  0  0
   39.2460   23.3070   38.0840 N   0  0  0  0  0  0  0  0  0  0  0  0
   37.8970   23.4270   38.1230 C   0  0  0  0  0  0  0  0  0  0  0  0
   37.1700   22.8940   37.1140 N   0  0  0  0  0  0  0  0  0  0  0  0
   37.0330   21.6930   35.0280 N   0  0  0  0  0  0  0  0  0  0  0  0
   37.3730   21.8420   33.7150 C   0  0  0  0  0  0  0  0  0  0  0  0
   36.4810   21.1740   32.9420 N   0  0  0  0  0  0  0  0  0  0  0  0
   35.5730   20.6010   33.7790 C   0  0  0  0  0  0  0  0  0  0  0  0
   35.9560   20.9490   35.0180 N   0  0  0  0  0  0  0  0  0  0  0  0
   41.3960   22.5670   37.0740 C   0  0  0  0  0  0  0  0  0  0  0  0
   39.6322   21.6066   35.2032 H   0  0  0  0  0  0  0  0  0  0  0  0
   37.4033   23.9468   38.9573 H   0  0  0  0  0  0  0  0  0  0  0  0
   38.2353   22.4141   33.3420 H   0  0  0  0  0  0  0  0  0  0  0  0
   34.7073   19.9827   33.4991 H   0  0  0  0  0  0  0  0  0  0  0  0
   41.7665   22.5395   38.1094 H   0  0  0  0  0  0  0  0  0  0  0  0
   41.6926   21.6443   36.5537 H   0  0  0  0  0  0  0  0  0  0  0  0
   41.8258   23.4357   36.5537 H   0  0  0  0  0  0  0  0  0  0  0  0
  1  6  1  0
  2  1  2  0
  2  3  1  0
  3  4  2  0
  4  5  1  0
  6  5  2  0
  7  1  1  0
  8  7  1  0
  9  8  2  0
  9 10  1  0
 10 11  2  0
 11  7  1  0
 12  3  1  0
  2 13  1  0
  5 14  1  0
  8 15  1  0
 10 16  1  0
 12 17  1  0
 12 18  1  0
 12 19  1  0
M  ISO  7  13  14  14  14  15  14  16  14  17   8  18   8  19   8
M  END
>  <minimizedAffinity>  (1) 
-3.76377726

>  <minimizedRMSD>  (1) 
5.50751877

$$$$
