
     RDKit          3D

 29 30  0  0  0  0  0  0  0  0999 V2000
   40.0890   22.3490   36.4560 C   0  0  0  0  0  0  0  0  0  0  0  0
   39.7190   23.1390   37.5530 C   0  0  0  0  0  0  0  0  0  0  0  0
   38.3780   23.4900   37.6920 C   0  0  0  0  0  0  0  0  0  0  0  0
   37.4970   23.0410   36.7490 N   0  0  0  0  0  0  0  0  0  0  0  0
   37.8860   22.2840   35.7060 C   0  0  0  0  0  0  0  0  0  0  0  0
   39.1740   21.9480   35.5750 N   0  0  0  0  0  0  0  0  0  0  0  0
   41.5150   21.9930   36.3330 C   0  0  0  0  0  0  0  0  0  0  0  0
   42.3890   23.1610   36.6680 C   0  0  0  0  0  0  0  0  0  0  0  0
   43.8300   22.9040   36.3290 C   0  0  0  0  0  0  0  0  0  0  0  0
   44.1050   21.5200   35.8350 C   0  0  0  0  0  0  0  0  0  0  0  0
   43.1890   21.0960   34.7180 C   0  0  0  0  0  0  0  0  0  0  0  0
   41.7620   21.4750   34.9340 C   0  0  0  0  0  0  0  0  0  0  0  0
   37.9090   24.3350   38.8450 C   0  0  0  0  0  0  0  0  0  0  0  0
   40.4684   23.4734   38.2856 H   0  0  0  0  0  0  0  0  0  0  0  0
   37.1480   21.9433   34.9649 H   0  0  0  0  0  0  0  0  0  0  0  0
   41.7708   21.2017   37.0530 H   0  0  0  0  0  0  0  0  0  0  0  0
   42.0422   24.0377   36.1013 H   0  0  0  0  0  0  0  0  0  0  0  0
   42.3217   23.3346   37.7521 H   0  0  0  0  0  0  0  0  0  0  0  0
   44.1329   23.6161   35.5472 H   0  0  0  0  0  0  0  0  0  0  0  0
   44.4012   23.0267   37.2611 H   0  0  0  0  0  0  0  0  0  0  0  0
   45.1423   21.4783   35.4714 H   0  0  0  0  0  0  0  0  0  0  0  0
   43.9342   20.8326   36.6766 H   0  0  0  0  0  0  0  0  0  0  0  0
   43.2463   20.0020   34.6186 H   0  0  0  0  0  0  0  0  0  0  0  0
   43.5260   21.6188   33.8108 H   0  0  0  0  0  0  0  0  0  0  0  0
   41.4906   22.2597   34.2125 H   0  0  0  0  0  0  0  0  0  0  0  0
   41.1478   20.5733   34.7940 H   0  0  0  0  0  0  0  0  0  0  0  0
   38.1804   23.8460   39.7922 H   0  0  0  0  0  0  0  0  0  0  0  0
   38.3871   25.3243   38.7929 H   0  0  0  0  0  0  0  0  0  0  0  0
   36.8165   24.4526   38.7929 H   0  0  0  0  0  0  0  0  0  0  0  0
  1  2  2  0
  2  3  1  0
  3 13  1  0
  4  3  2  0
  5  4  1  0
  6  5  2  0
  6  1  1  0
  7  1  1  0
  7  8  1  0
  9  8  1  0
 10  9  1  0
 11 12  1  0
 11 10  1  0
 12  7  1  0
  2 14  1  0
  5 15  1  0
  7 16  1  0
  8 17  1  0
  8 18  1  0
  9 19  1  0
  9 20  1  0
 10 21  1  0
 10 22  1  0
 11 23  1  0
 11 24  1  0
 12 25  1  0
 12 26  1  0
 13 27  1  0
 13 28  1  0
 13 29  1  0
M  ISO  8  14  14  15  14  16  13  17  13  18  13  19  13  20  13  21  13
M  ISO  8  22  13  23  13  24  13  25  13  26  13  27   8  28   8  29   8
M  END
>  <minimizedAffinity>  (1) 
-3.77269769

>  <minimizedRMSD>  (1) 
1.68971038

$$$$
