
     RDKit          3D

 16 16  0  0  0  0  0  0  0  0999 V2000
   40.5160   22.0650   37.0400 C   0  0  0  0  0  0  0  0  0  0  0  0
   39.9150   22.8710   38.0110 C   0  0  0  0  0  0  0  0  0  0  0  0
   38.6610   23.4410   37.7150 C   0  0  0  0  0  0  0  0  0  0  0  0
   38.1230   23.1620   36.5010 N   0  0  0  0  0  0  0  0  0  0  0  0
   38.7290   22.3840   35.5960 C   0  0  0  0  0  0  0  0  0  0  0  0
   39.9180   21.8380   35.8600 N   0  0  0  0  0  0  0  0  0  0  0  0
   37.9720   24.3110   38.7170 C   0  0  0  0  0  0  0  0  0  0  0  0
   41.8100   21.4770   37.3420 C   0  0  0  0  0  0  0  0  0  0  0  0
   42.7970   21.9150   36.6970 O   0  0  0  0  0  0  0  0  0  0  0  0
   41.9170   20.4800   38.3030 O   0  0  0  0  0  0  0  0  0  0  0  0
   40.4066   23.0549   38.9777 H   0  0  0  0  0  0  0  0  0  0  0  0
   38.2436   22.1932   34.6275 H   0  0  0  0  0  0  0  0  0  0  0  0
   38.2345   23.9795   39.7325 H   0  0  0  0  0  0  0  0  0  0  0  0
   38.2914   25.3544   38.5778 H   0  0  0  0  0  0  0  0  0  0  0  0
   36.8832   24.2392   38.5778 H   0  0  0  0  0  0  0  0  0  0  0  0
   42.8000   20.0814   38.5065 H   0  0  0  0  0  0  0  0  0  0  0  0
  1  8  1  0
  1  2  2  0
  3  2  1  0
  3  7  1  0
  4  3  2  0
  5  6  2  0
  5  4  1  0
  6  1  1  0
  8 10  1  0
  9  8  2  0
  2 11  1  0
  5 12  1  0
  7 13  1  0
  7 14  1  0
  7 15  1  0
 10 16  1  0
M  ISO  6  11  14  12  14  13   8  14   8  15   8  16   3
M  END
>  <minimizedAffinity>  (1) 
-3.77207375

>  <minimizedRMSD>  (1) 
0.292758226

$$$$
