
     RDKit          3D

 26 27  0  0  0  0  0  0  0  0999 V2000
   40.5160   22.3090   36.9490 C   0  0  0  0  0  0  0  0  0  0  0  0
   39.9090   23.1000   37.9310 C   0  0  0  0  0  0  0  0  0  0  0  0
   38.5640   23.4490   37.7630 C   0  0  0  0  0  0  0  0  0  0  0  0
   37.9240   22.9960   36.6450 N   0  0  0  0  0  0  0  0  0  0  0  0
   38.5430   22.2320   35.7180 C   0  0  0  0  0  0  0  0  0  0  0  0
   39.8240   21.8970   35.8760 N   0  0  0  0  0  0  0  0  0  0  0  0
   41.9370   21.9530   37.1500 C   0  0  0  0  0  0  0  0  0  0  0  0
   42.9000   22.9120   36.5310 C   0  0  0  0  0  0  0  0  0  0  0  0
   43.9090   22.0290   35.8080 C   0  0  0  0  0  0  0  0  0  0  0  0
   43.7700   20.6590   36.4330 C   0  0  0  0  0  0  0  0  0  0  0  0
   42.2540   20.5790   36.5940 C   0  0  0  0  0  0  0  0  0  0  0  0
   37.8620   24.2930   38.7790 C   0  0  0  0  0  0  0  0  0  0  0  0
   40.4742   23.4386   38.8119 H   0  0  0  0  0  0  0  0  0  0  0  0
   37.9897   21.8862   34.8324 H   0  0  0  0  0  0  0  0  0  0  0  0
   42.0645   21.9811   38.2422 H   0  0  0  0  0  0  0  0  0  0  0  0
   42.3851   23.5755   35.8206 H   0  0  0  0  0  0  0  0  0  0  0  0
   43.3760   23.5656   37.2768 H   0  0  0  0  0  0  0  0  0  0  0  0
   44.9291   22.4148   35.9510 H   0  0  0  0  0  0  0  0  0  0  0  0
   43.7246   22.0030   34.7239 H   0  0  0  0  0  0  0  0  0  0  0  0
   44.1500   19.8691   35.7685 H   0  0  0  0  0  0  0  0  0  0  0  0
   44.3378   20.5206   37.3649 H   0  0  0  0  0  0  0  0  0  0  0  0
   41.7555   20.4115   35.6279 H   0  0  0  0  0  0  0  0  0  0  0  0
   41.9134   19.7482   37.2294 H   0  0  0  0  0  0  0  0  0  0  0  0
   38.1404   23.9583   39.7892 H   0  0  0  0  0  0  0  0  0  0  0  0
   38.1552   25.3450   38.6475 H   0  0  0  0  0  0  0  0  0  0  0  0
   36.7742   24.1963   38.6475 H   0  0  0  0  0  0  0  0  0  0  0  0
  1  7  1  0
  1  2  2  0
  3  2  1  0
  3 12  1  0
  4  3  2  0
  5  6  2  0
  5  4  1  0
  6  1  1  0
  8  7  1  0
  9 10  1  0
  9  8  1  0
 10 11  1  0
 11  7  1  0
  2 13  1  0
  5 14  1  0
  7 15  1  0
  8 16  1  0
  8 17  1  0
  9 18  1  0
  9 19  1  0
 10 20  1  0
 10 21  1  0
 11 22  1  0
 11 23  1  0
 12 24  1  0
 12 25  1  0
 12 26  1  0
M  ISO  8  13  14  14  14  15  13  16  13  17  13  18  13  19  13  20  13
M  ISO  6  21  13  22  13  23  13  24   8  25   8  26   8
M  END
>  <minimizedAffinity>  (1) 
-3.73283029

>  <minimizedRMSD>  (1) 
1.03343165

$$$$
