
     RDKit          3D

 20 21  0  0  0  0  0  0  0  0999 V2000
   37.7230   22.2080   35.9930 C   0  0  0  0  0  0  0  0  0  0  0  0
   39.1290   22.1020   35.9790 C   0  0  0  0  0  0  0  0  0  0  0  0
   39.8420   22.6600   37.0490 C   0  0  0  0  0  0  0  0  0  0  0  0
   39.1330   23.2760   38.0450 N   0  0  0  0  0  0  0  0  0  0  0  0
   37.7820   23.3570   38.0240 C   0  0  0  0  0  0  0  0  0  0  0  0
   37.1000   22.8210   36.9950 N   0  0  0  0  0  0  0  0  0  0  0  0
   36.9690   21.6310   34.8830 C   0  0  0  0  0  0  0  0  0  0  0  0
   37.2360   21.7860   33.5380 C   0  0  0  0  0  0  0  0  0  0  0  0
   36.2540   21.0590   32.9140 C   0  0  0  0  0  0  0  0  0  0  0  0
   35.4260   20.4850   33.7990 N   0  0  0  0  0  0  0  0  0  0  0  0
   35.8770   20.8450   35.0080 N   0  0  0  0  0  0  0  0  0  0  0  0
   41.3320   22.5910   37.1110 C   0  0  0  0  0  0  0  0  0  0  0  0
   39.6507   21.5965   35.1530 H   0  0  0  0  0  0  0  0  0  0  0  0
   37.2448   23.8578   38.8429 H   0  0  0  0  0  0  0  0  0  0  0  0
   38.0501   22.3610   33.0726 H   0  0  0  0  0  0  0  0  0  0  0  0
   36.1578   20.9593   31.8228 H   0  0  0  0  0  0  0  0  0  0  0  0
   34.6112   19.8900   33.5919 H   0  0  0  0  0  0  0  0  0  0  0  0
   41.6549   22.5760   38.1624 H   0  0  0  0  0  0  0  0  0  0  0  0
   41.6779   21.6759   36.6081 H   0  0  0  0  0  0  0  0  0  0  0  0
   41.7610   23.4702   36.6081 H   0  0  0  0  0  0  0  0  0  0  0  0
  1  6  1  0
  2  1  2  0
  2  3  1  0
  3 12  1  0
  3  4  2  0
  5  4  1  0
  6  5  2  0
  7 11  2  0
  7  1  1  0
  8  7  1  0
  9  8  2  0
  9 10  1  0
 10 11  1  0
  2 13  1  0
  5 14  1  0
  8 15  1  0
  9 16  1  0
 10 17  1  0
 12 18  1  0
 12 19  1  0
 12 20  1  0
M  ISO  8  13  14  14  14  15  14  16  14  17   9  18   8  19   8  20   8
M  END
>  <minimizedAffinity>  (1) 
-3.70952058

>  <minimizedRMSD>  (1) 
5.60770988

$$$$
