
     RDKit          3D

 16 16  0  0  0  0  0  0  0  0999 V2000
   40.3760   22.1390   36.8930 C   0  0  0  0  0  0  0  0  0  0  0  0
   39.8560   22.9470   37.9110 C   0  0  0  0  0  0  0  0  0  0  0  0
   38.5650   23.4500   37.7470 C   0  0  0  0  0  0  0  0  0  0  0  0
   37.8870   23.1260   36.6100 N   0  0  0  0  0  0  0  0  0  0  0  0
   38.4210   22.3500   35.6580 C   0  0  0  0  0  0  0  0  0  0  0  0
   39.6560   21.8660   35.8080 N   0  0  0  0  0  0  0  0  0  0  0  0
   37.9450   24.3230   38.8010 C   0  0  0  0  0  0  0  0  0  0  0  0
   41.7490   21.5830   37.0280 C   0  0  0  0  0  0  0  0  0  0  0  0
   41.9260   20.8760   38.1830 F   0  0  0  0  0  0  0  0  0  0  0  0
   42.6960   22.6150   37.0270 F   0  0  0  0  0  0  0  0  0  0  0  0
   42.0560   20.7910   35.9120 F   0  0  0  0  0  0  0  0  0  0  0  0
   40.4457   23.1777   38.8105 H   0  0  0  0  0  0  0  0  0  0  0  0
   37.8425   22.1117   34.7533 H   0  0  0  0  0  0  0  0  0  0  0  0
   38.2150   23.9429   39.7973 H   0  0  0  0  0  0  0  0  0  0  0  0
   38.3153   25.3527   38.6887 H   0  0  0  0  0  0  0  0  0  0  0  0
   36.8508   24.3126   38.6887 H   0  0  0  0  0  0  0  0  0  0  0  0
  1  8  1  0
  1  2  2  0
  3  2  1  0
  3  7  1  0
  4  3  2  0
  5  6  2  0
  5  4  1  0
  6  1  1  0
  8  9  1  0
 10  8  1  0
 11  8  1  0
  2 12  1  0
  5 13  1  0
  7 14  1  0
  7 15  1  0
  7 16  1  0
M  ISO  5  12  14  13  14  14   8  15   8  16   8
M  END
>  <minimizedAffinity>  (1) 
-3.7482419

>  <minimizedRMSD>  (1) 
0.737470746

$$$$
