
     RDKit          3D

 36 39  0  0  0  0  0  0  0  0999 V2000
   40.9740   22.4930   37.0360 C   0  0  0  0  0  0  0  0  0  0  0  0
   41.9530   23.3850   36.5980 C   0  0  0  0  0  0  0  0  0  0  0  0
   43.2370   22.8720   36.3190 C   0  0  0  0  0  0  0  0  0  0  0  0
   43.4400   21.5380   36.4950 N   0  0  0  0  0  0  0  0  0  0  0  0
   42.4680   20.6890   36.9220 C   0  0  0  0  0  0  0  0  0  0  0  0
   41.2470   21.1950   37.1850 N   0  0  0  0  0  0  0  0  0  0  0  0
   39.6440   23.0130   37.3260 C   0  0  0  0  0  0  0  0  0  0  0  0
   38.7580   23.4550   36.3290 C   0  0  0  0  0  0  0  0  0  0  0  0
   37.6410   23.8550   37.0200 C   0  0  0  0  0  0  0  0  0  0  0  0
   37.8680   23.6520   38.3760 C   0  0  0  0  0  0  0  0  0  0  0  0
   39.0780   23.1490   38.4860 O   0  0  0  0  0  0  0  0  0  0  0  0
   44.3090   23.7880   35.8500 C   0  0  0  0  0  0  0  0  0  0  0  0
   44.9550   24.4940   36.9750 C   0  0  0  0  0  0  0  0  0  0  0  0
   44.3750   25.4860   37.7460 C   0  0  0  0  0  0  0  0  0  0  0  0
   45.0670   26.0820   38.7790 C   0  0  0  0  0  0  0  0  0  0  0  0
   46.3650   25.6860   39.0510 C   0  0  0  0  0  0  0  0  0  0  0  0
   46.9550   24.6860   38.2770 C   0  0  0  0  0  0  0  0  0  0  0  0
   48.2560   24.3270   38.5920 C   0  0  0  0  0  0  0  0  0  0  0  0
   48.8880   23.3430   37.8590 C   0  0  0  0  0  0  0  0  0  0  0  0
   48.1950   22.7420   36.8210 C   0  0  0  0  0  0  0  0  0  0  0  0
   46.9000   23.1060   36.5150 C   0  0  0  0  0  0  0  0  0  0  0  0
   46.2450   24.0950   37.2420 C   0  0  0  0  0  0  0  0  0  0  0  0
   41.7306   24.4551   36.4740 H   0  0  0  0  0  0  0  0  0  0  0  0
   42.6730   19.6158   37.0497 H   0  0  0  0  0  0  0  0  0  0  0  0
   38.9221   23.4758   35.2415 H   0  0  0  0  0  0  0  0  0  0  0  0
   36.7225   24.2662   36.5758 H   0  0  0  0  0  0  0  0  0  0  0  0
   37.1705   23.8699   39.1982 H   0  0  0  0  0  0  0  0  0  0  0  0
   45.0694   23.2017   35.3133 H   0  0  0  0  0  0  0  0  0  0  0  0
   43.8528   24.5402   35.1897 H   0  0  0  0  0  0  0  0  0  0  0  0
   43.3443   25.8045   37.5311 H   0  0  0  0  0  0  0  0  0  0  0  0
   44.5902   26.8677   39.3835 H   0  0  0  0  0  0  0  0  0  0  0  0
   46.9273   26.1561   39.8712 H   0  0  0  0  0  0  0  0  0  0  0  0
   48.7817   24.8232   39.4211 H   0  0  0  0  0  0  0  0  0  0  0  0
   49.9197   23.0425   38.0940 H   0  0  0  0  0  0  0  0  0  0  0  0
   48.6879   21.9576   36.2279 H   0  0  0  0  0  0  0  0  0  0  0  0
   46.3781   22.6075   35.6849 H   0  0  0  0  0  0  0  0  0  0  0  0
  1  6  1  0
  1  7  1  0
  2  1  2  0
  3  4  2  0
  3  2  1  0
  4  5  1  0
  5  6  2  0
  7 11  1  0
  8  9  1  0
  8  7  2  0
  9 10  2  0
 10 11  1  0
 12  3  1  0
 12 13  1  0
 13 22  1  0
 13 14  2  0
 14 15  1  0
 15 16  2  0
 17 18  2  0
 17 16  1  0
 19 18  1  0
 20 19  2  0
 21 20  1  0
 21 22  2  0
 22 17  1  0
  2 23  1  0
  5 24  1  0
  8 25  1  0
  9 26  1  0
 10 27  1  0
 12 28  1  0
 12 29  1  0
 14 30  1  0
 15 31  1  0
 16 32  1  0
 18 33  1  0
 19 34  1  0
 20 35  1  0
 21 36  1  0
M  ISO  8  23  14  24  14  25  14  26  14  27  14  28   8  29   8  30  14
M  ISO  6  31  14  32  14  33  14  34  14  35  14  36  14
M  END
>  <minimizedAffinity>  (1) 
-6.30953026

>  <minimizedRMSD>  (1) 
1.34896672

$$$$
