
     RDKit          3D

 34 37  0  0  0  0  0  0  0  0999 V2000
   40.8370   22.4880   37.0870 C   0  0  0  0  0  0  0  0  0  0  0  0
   41.7580   23.2050   36.3250 C   0  0  0  0  0  0  0  0  0  0  0  0
   43.0060   22.6050   36.0450 C   0  0  0  0  0  0  0  0  0  0  0  0
   43.2210   21.3560   36.5450 N   0  0  0  0  0  0  0  0  0  0  0  0
   42.3130   20.6960   37.2740 C   0  0  0  0  0  0  0  0  0  0  0  0
   41.1280   21.2640   37.5420 N   0  0  0  0  0  0  0  0  0  0  0  0
   39.5490   23.1150   37.3710 C   0  0  0  0  0  0  0  0  0  0  0  0
   38.6700   23.5670   36.4020 C   0  0  0  0  0  0  0  0  0  0  0  0
   37.6050   24.0760   37.1200 C   0  0  0  0  0  0  0  0  0  0  0  0
   37.8700   23.9170   38.4740 C   0  0  0  0  0  0  0  0  0  0  0  0
   39.0390   23.3410   38.5660 O   0  0  0  0  0  0  0  0  0  0  0  0
   44.0130   23.3490   35.2220 C   0  0  0  0  0  0  0  0  0  0  0  0
   45.2820   23.5110   35.9020 C   0  0  0  0  0  0  0  0  0  0  0  0
   46.3520   22.7870   35.4470 N   0  0  0  0  0  0  0  0  0  0  0  0
   47.5750   22.8740   35.9720 C   0  0  0  0  0  0  0  0  0  0  0  0
   47.8620   23.6810   36.9960 N   0  0  0  0  0  0  0  0  0  0  0  0
   46.8710   24.4260   37.5020 C   0  0  0  0  0  0  0  0  0  0  0  0
   47.0590   25.2860   38.5690 C   0  0  0  0  0  0  0  0  0  0  0  0
   46.0460   26.0430   39.0990 C   0  0  0  0  0  0  0  0  0  0  0  0
   44.7850   25.9380   38.5420 C   0  0  0  0  0  0  0  0  0  0  0  0
   44.6140   25.0820   37.4860 C   0  0  0  0  0  0  0  0  0  0  0  0
   45.6210   24.3300   36.9560 C   0  0  0  0  0  0  0  0  0  0  0  0
   41.5193   24.2117   35.9514 H   0  0  0  0  0  0  0  0  0  0  0  0
   42.5386   19.6883   37.6531 H   0  0  0  0  0  0  0  0  0  0  0  0
   38.7916   23.5295   35.3094 H   0  0  0  0  0  0  0  0  0  0  0  0
   36.6997   24.5306   36.6914 H   0  0  0  0  0  0  0  0  0  0  0  0
   37.2202   24.2183   39.3089 H   0  0  0  0  0  0  0  0  0  0  0  0
   43.6094   24.3453   34.9884 H   0  0  0  0  0  0  0  0  0  0  0  0
   44.1973   22.7605   34.3111 H   0  0  0  0  0  0  0  0  0  0  0  0
   48.3787   22.2566   35.5444 H   0  0  0  0  0  0  0  0  0  0  0  0
   48.0632   25.3659   39.0108 H   0  0  0  0  0  0  0  0  0  0  0  0
   46.2323   26.7179   39.9474 H   0  0  0  0  0  0  0  0  0  0  0  0
   43.9424   26.5254   38.9357 H   0  0  0  0  0  0  0  0  0  0  0  0
   43.6112   24.9967   37.0420 H   0  0  0  0  0  0  0  0  0  0  0  0
  1  7  1  0
  1  6  1  0
  2  1  2  0
  3  2  1  0
  3  4  2  0
  4  5  1  0
  5  6  2  0
  7 11  1  0
  8  9  1  0
  8  7  2  0
  9 10  2  0
 10 11  1  0
 12 13  1  0
 12  3  1  0
 13 22  1  0
 14 13  2  0
 14 15  1  0
 15 16  2  0
 16 17  1  0
 17 18  2  0
 18 19  1  0
 20 19  2  0
 21 20  1  0
 22 21  2  0
 22 17  1  0
  2 23  1  0
  5 24  1  0
  8 25  1  0
  9 26  1  0
 10 27  1  0
 12 28  1  0
 12 29  1  0
 15 30  1  0
 18 31  1  0
 19 32  1  0
 20 33  1  0
 21 34  1  0
M  ISO  8  23  14  24  14  25  14  26  14  27  14  28   8  29   8  30  14
M  ISO  4  31  14  32  14  33  14  34  14
M  END
>  <minimizedAffinity>  (1) 
-5.83903694

>  <minimizedRMSD>  (1) 
1.4860009

$$$$
