
     RDKit          3D

 34 36  0  0  0  0  0  0  0  0999 V2000
   40.8560   22.5570   37.0090 C   0  0  0  0  0  0  0  0  0  0  0  0
   41.6430   23.1960   36.0670 C   0  0  0  0  0  0  0  0  0  0  0  0
   42.8870   22.6640   35.7170 C   0  0  0  0  0  0  0  0  0  0  0  0
   43.2630   21.5080   36.3480 N   0  0  0  0  0  0  0  0  0  0  0  0
   42.4790   20.8880   37.2750 C   0  0  0  0  0  0  0  0  0  0  0  0
   41.2810   21.4370   37.5840 N   0  0  0  0  0  0  0  0  0  0  0  0
   39.5650   23.1460   37.3460 C   0  0  0  0  0  0  0  0  0  0  0  0
   38.6530   23.6130   36.4120 C   0  0  0  0  0  0  0  0  0  0  0  0
   37.5940   24.0760   37.1690 C   0  0  0  0  0  0  0  0  0  0  0  0
   37.8940   23.8790   38.4910 C   0  0  0  0  0  0  0  0  0  0  0  0
   39.0900   23.3160   38.5650 O   0  0  0  0  0  0  0  0  0  0  0  0
   43.7610   23.3190   34.7170 C   0  0  0  0  0  0  0  0  0  0  0  0
   43.8150   24.7310   34.8150 N   0  0  0  0  0  0  0  0  0  0  0  0
   44.7280   25.3120   35.7140 C   0  0  0  0  0  0  0  0  0  0  0  0
   45.3200   26.6290   35.3380 C   0  0  0  0  0  0  0  0  0  0  0  0
   44.2620   27.4680   34.8060 N   0  0  0  0  0  0  0  0  0  0  0  0
   43.9310   26.8380   33.5170 C   0  0  0  0  0  0  0  0  0  0  0  0
   43.3360   25.4900   33.7320 C   0  0  0  0  0  0  0  0  0  0  0  0
   41.2891   24.1235   35.5933 H   0  0  0  0  0  0  0  0  0  0  0  0
   42.8133   19.9601   37.7621 H   0  0  0  0  0  0  0  0  0  0  0  0
   38.7505   23.6145   35.3163 H   0  0  0  0  0  0  0  0  0  0  0  0
   36.6694   24.5253   36.7776 H   0  0  0  0  0  0  0  0  0  0  0  0
   37.2518   24.1431   39.3441 H   0  0  0  0  0  0  0  0  0  0  0  0
   43.3903   23.0587   33.7146 H   0  0  0  0  0  0  0  0  0  0  0  0
   44.7810   22.9543   34.9083 H   0  0  0  0  0  0  0  0  0  0  0  0
   44.2061   25.4468   36.6729 H   0  0  0  0  0  0  0  0  0  0  0  0
   45.5805   24.6172   35.7366 H   0  0  0  0  0  0  0  0  0  0  0  0
   45.7619   27.1054   36.2256 H   0  0  0  0  0  0  0  0  0  0  0  0
   46.1086   26.4891   34.5840 H   0  0  0  0  0  0  0  0  0  0  0  0
   43.4453   27.4712   35.4336 H   0  0  0  0  0  0  0  0  0  0  0  0
   44.8477   26.7374   32.9174 H   0  0  0  0  0  0  0  0  0  0  0  0
   43.2002   27.4692   32.9902 H   0  0  0  0  0  0  0  0  0  0  0  0
   42.2546   25.6275   33.8795 H   0  0  0  0  0  0  0  0  0  0  0  0
   43.6214   24.9136   32.8396 H   0  0  0  0  0  0  0  0  0  0  0  0
  1  7  1  0
  1  6  1  0
  2  1  2  0
  3  2  1  0
  3  4  2  0
  4  5  1  0
  5  6  2  0
  7 11  1  0
  8  9  1  0
  8  7  2  0
  9 10  2  0
 10 11  1  0
 12 13  1  0
 12  3  1  0
 13 14  1  0
 15 14  1  0
 16 15  1  0
 17 18  1  0
 17 16  1  0
 18 13  1  0
  2 19  1  0
  5 20  1  0
  8 21  1  0
  9 22  1  0
 10 23  1  0
 12 24  1  0
 12 25  1  0
 14 26  1  0
 14 27  1  0
 15 28  1  0
 15 29  1  0
 16 30  1  0
 17 31  1  0
 17 32  1  0
 18 33  1  0
 18 34  1  0
M  ISO  8  19  14  20  14  21  14  22  14  23  14  24   8  25   8  26  13
M  ISO  8  27  13  28  13  29  13  30   5  31  13  32  13  33  13  34  13
M  END
>  <minimizedAffinity>  (1) 
-4.50862265

>  <minimizedRMSD>  (1) 
2.20358658

$$$$
