
     RDKit          3D

 33 35  0  0  0  0  0  0  0  0999 V2000
   40.9030   22.5460   37.0600 C   0  0  0  0  0  0  0  0  0  0  0  0
   41.7540   23.2290   36.1760 C   0  0  0  0  0  0  0  0  0  0  0  0
   42.9920   22.6470   35.8780 C   0  0  0  0  0  0  0  0  0  0  0  0
   43.3020   21.4570   36.4610 N   0  0  0  0  0  0  0  0  0  0  0  0
   42.4560   20.8160   37.3170 C   0  0  0  0  0  0  0  0  0  0  0  0
   41.2490   21.3760   37.6120 N   0  0  0  0  0  0  0  0  0  0  0  0
   39.6190   23.1540   37.3660 C   0  0  0  0  0  0  0  0  0  0  0  0
   38.7570   23.7030   36.4020 C   0  0  0  0  0  0  0  0  0  0  0  0
   37.6760   24.1610   37.1070 C   0  0  0  0  0  0  0  0  0  0  0  0
   37.9000   23.8880   38.4510 C   0  0  0  0  0  0  0  0  0  0  0  0
   39.0630   23.2940   38.5310 O   0  0  0  0  0  0  0  0  0  0  0  0
   43.9280   23.3220   34.9540 C   0  0  0  0  0  0  0  0  0  0  0  0
   43.8850   24.7350   34.9890 N   0  0  0  0  0  0  0  0  0  0  0  0
   43.7430   25.4040   33.7530 C   0  0  0  0  0  0  0  0  0  0  0  0
   43.6810   26.8990   34.0600 C   0  0  0  0  0  0  0  0  0  0  0  0
   44.8140   27.3500   34.6950 O   0  0  0  0  0  0  0  0  0  0  0  0
   45.5750   26.3780   35.3090 C   0  0  0  0  0  0  0  0  0  0  0  0
   44.6150   25.4080   35.9930 C   0  0  0  0  0  0  0  0  0  0  0  0
   41.4574   24.1906   35.7318 H   0  0  0  0  0  0  0  0  0  0  0  0
   42.7455   19.8544   37.7659 H   0  0  0  0  0  0  0  0  0  0  0  0
   38.9162   23.7540   35.3148 H   0  0  0  0  0  0  0  0  0  0  0  0
   36.7891   24.6563   36.6850 H   0  0  0  0  0  0  0  0  0  0  0  0
   37.2275   24.1260   39.2883 H   0  0  0  0  0  0  0  0  0  0  0  0
   43.6900   22.9983   33.9300 H   0  0  0  0  0  0  0  0  0  0  0  0
   44.9399   23.0364   35.2773 H   0  0  0  0  0  0  0  0  0  0  0  0
   42.8175   25.0821   33.2532 H   0  0  0  0  0  0  0  0  0  0  0  0
   44.5850   25.1750   33.0832 H   0  0  0  0  0  0  0  0  0  0  0  0
   43.5627   27.4493   33.1149 H   0  0  0  0  0  0  0  0  0  0  0  0
   42.8283   27.0684   34.7339 H   0  0  0  0  0  0  0  0  0  0  0  0
   46.1780   25.8441   34.5598 H   0  0  0  0  0  0  0  0  0  0  0  0
   46.2596   26.8280   36.0431 H   0  0  0  0  0  0  0  0  0  0  0  0
   43.9261   25.9633   36.6465 H   0  0  0  0  0  0  0  0  0  0  0  0
   45.1741   24.6867   36.6071 H   0  0  0  0  0  0  0  0  0  0  0  0
  1  7  1  0
  1  6  1  0
  2  1  2  0
  3  2  1  0
  3  4  2  0
  4  5  1  0
  5  6  2  0
  7 11  1  0
  8  9  1  0
  8  7  2  0
  9 10  2  0
 10 11  1  0
 12 13  1  0
 12  3  1  0
 13 18  1  0
 14 15  1  0
 14 13  1  0
 15 16  1  0
 16 17  1  0
 17 18  1  0
  2 19  1  0
  5 20  1  0
  8 21  1  0
  9 22  1  0
 10 23  1  0
 12 24  1  0
 12 25  1  0
 14 26  1  0
 14 27  1  0
 15 28  1  0
 15 29  1  0
 17 30  1  0
 17 31  1  0
 18 32  1  0
 18 33  1  0
M  ISO  8  19  14  20  14  21  14  22  14  23  14  24   8  25   8  26  13
M  ISO  7  27  13  28  13  29  13  30  13  31  13  32  13  33  13
M  END
>  <minimizedAffinity>  (1) 
-4.2149806

>  <minimizedRMSD>  (1) 
2.12358594

$$$$
