
     RDKit          3D

 27 29  0  0  0  0  0  0  0  0999 V2000
   41.0400   22.4300   37.0940 C   0  0  0  0  0  0  0  0  0  0  0  0
   42.0010   23.3370   36.6740 C   0  0  0  0  0  0  0  0  0  0  0  0
   43.3000   22.8570   36.4110 C   0  0  0  0  0  0  0  0  0  0  0  0
   43.5400   21.5300   36.5830 N   0  0  0  0  0  0  0  0  0  0  0  0
   42.5710   20.6620   36.9980 C   0  0  0  0  0  0  0  0  0  0  0  0
   41.3240   21.1300   37.2500 N   0  0  0  0  0  0  0  0  0  0  0  0
   39.6960   22.9280   37.3640 C   0  0  0  0  0  0  0  0  0  0  0  0
   38.7350   23.1420   36.3650 C   0  0  0  0  0  0  0  0  0  0  0  0
   37.6400   23.6040   37.0730 C   0  0  0  0  0  0  0  0  0  0  0  0
   37.9590   23.6540   38.4240 C   0  0  0  0  0  0  0  0  0  0  0  0
   39.1940   23.2380   38.5210 O   0  0  0  0  0  0  0  0  0  0  0  0
   44.3740   23.7700   35.9620 C   0  0  0  0  0  0  0  0  0  0  0  0
   44.2200   25.0950   36.6680 C   0  0  0  0  0  0  0  0  0  0  0  0
   44.8880   25.3810   37.9570 C   0  0  0  0  0  0  0  0  0  0  0  0
   45.5430   25.8700   36.7120 C   0  0  0  0  0  0  0  0  0  0  0  0
   41.7563   24.4022   36.5494 H   0  0  0  0  0  0  0  0  0  0  0  0
   42.8000   19.5938   37.1265 H   0  0  0  0  0  0  0  0  0  0  0  0
   38.8292   22.9813   35.2809 H   0  0  0  0  0  0  0  0  0  0  0  0
   36.6710   23.8867   36.6358 H   0  0  0  0  0  0  0  0  0  0  0  0
   37.3042   23.9783   39.2462 H   0  0  0  0  0  0  0  0  0  0  0  0
   45.3542   23.3342   36.2055 H   0  0  0  0  0  0  0  0  0  0  0  0
   44.3049   23.9184   34.8742 H   0  0  0  0  0  0  0  0  0  0  0  0
   43.1755   25.2273   36.3493 H   0  0  0  0  0  0  0  0  0  0  0  0
   44.4379   26.1030   38.6543 H   0  0  0  0  0  0  0  0  0  0  0  0
   45.2191   24.7584   38.8013 H   0  0  0  0  0  0  0  0  0  0  0  0
   46.4716   25.4014   36.3539 H   0  0  0  0  0  0  0  0  0  0  0  0
   45.8969   26.8428   36.3400 H   0  0  0  0  0  0  0  0  0  0  0  0
  1  6  1  0
  1  7  1  0
  2  1  2  0
  3  4  2  0
  3  2  1  0
  4  5  1  0
  5  6  2  0
  7 11  1  0
  8  9  1  0
  8  7  2  0
  9 10  2  0
 10 11  1  0
 12  3  1  0
 12 13  1  0
 13 15  1  0
 13 14  1  0
 15 14  1  0
  2 16  1  0
  5 17  1  0
  8 18  1  0
  9 19  1  0
 10 20  1  0
 12 21  1  0
 12 22  1  0
 13 23  1  0
 14 24  1  0
 14 25  1  0
 15 26  1  0
 15 27  1  0
M  ISO  8  16  14  17  14  18  14  19  14  20  14  21   8  22   8  23  13
M  ISO  4  24  13  25  13  26  13  27  13
M  END
>  <minimizedAffinity>  (1) 
-4.28501558

>  <minimizedRMSD>  (1) 
0.761299431

$$$$
