
     RDKit          3D

 21 22  0  0  0  0  0  0  0  0999 V2000
   40.9210   22.5380   37.1370 C   0  0  0  0  0  0  0  0  0  0  0  0
   41.8430   23.3380   36.4490 C   0  0  0  0  0  0  0  0  0  0  0  0
   43.1060   22.7780   36.1700 C   0  0  0  0  0  0  0  0  0  0  0  0
   43.3610   21.4940   36.5830 N   0  0  0  0  0  0  0  0  0  0  0  0
   42.4330   20.7590   37.2480 C   0  0  0  0  0  0  0  0  0  0  0  0
   41.2280   21.2970   37.5120 N   0  0  0  0  0  0  0  0  0  0  0  0
   39.6180   23.1130   37.4260 C   0  0  0  0  0  0  0  0  0  0  0  0
   38.7190   23.5560   36.4440 C   0  0  0  0  0  0  0  0  0  0  0  0
   37.6320   24.0170   37.1360 C   0  0  0  0  0  0  0  0  0  0  0  0
   37.8830   23.8520   38.4750 C   0  0  0  0  0  0  0  0  0  0  0  0
   39.0810   23.3070   38.5930 O   0  0  0  0  0  0  0  0  0  0  0  0
   44.1410   23.5630   35.4430 C   0  0  0  0  0  0  0  0  0  0  0  0
   45.1100   24.4470   36.6900 S   0  0  0  0  0  0  0  0  0  0  0  0
   41.5910   24.3628   36.1388 H   0  0  0  0  0  0  0  0  0  0  0  0
   42.6642   19.7324   37.5683 H   0  0  0  0  0  0  0  0  0  0  0  0
   38.8580   23.5369   35.3530 H   0  0  0  0  0  0  0  0  0  0  0  0
   36.7186   24.4443   36.6966 H   0  0  0  0  0  0  0  0  0  0  0  0
   37.2090   24.1241   39.3006 H   0  0  0  0  0  0  0  0  0  0  0  0
   44.7919   22.8881   34.8678 H   0  0  0  0  0  0  0  0  0  0  0  0
   43.6753   24.2666   34.7372 H   0  0  0  0  0  0  0  0  0  0  0  0
   44.6970   24.0702   37.9408 H   0  0  0  0  0  0  0  0  0  0  0  0
  1  7  1  0
  1  6  1  0
  2  1  2  0
  3  2  1  0
  3  4  2  0
  4  5  1  0
  5  6  2  0
  7 11  1  0
  8  9  1  0
  8  7  2  0
  9 10  2  0
 10 11  1  0
 12  3  1  0
 12 13  1  0
  2 14  1  0
  5 15  1  0
  8 16  1  0
  9 17  1  0
 10 18  1  0
 12 19  1  0
 12 20  1  0
 13 21  1  0
M  ISO  8  14  14  15  14  16  14  17  14  18  14  19   8  20   8  21  11
M  END
>  <minimizedAffinity>  (1) 
-3.62088394

>  <minimizedRMSD>  (1) 
0.0107088834

$$$$
