
     RDKit          3D

 41 45  0  0  0  0  0  0  0  0999 V2000
   44.9160   24.7260   37.1750 N   0  0  0  0  0  0  0  0  0  0  0  0
   44.1730   25.4690   37.9660 N   0  0  0  0  0  0  0  0  0  0  0  0
   44.8730   26.1390   38.8670 C   0  0  0  0  0  0  0  0  0  0  0  0
   46.2180   25.8140   38.6620 C   0  0  0  0  0  0  0  0  0  0  0  0
   46.1820   24.9230   37.5870 C   0  0  0  0  0  0  0  0  0  0  0  0
   47.4330   24.3980   37.1290 N   0  0  0  0  0  0  0  0  0  0  0  0
   47.9980   24.1960   35.9250 C   0  0  0  0  0  0  0  0  0  0  0  0
   49.2200   23.6620   36.0840 N   0  0  0  0  0  0  0  0  0  0  0  0
   49.4160   23.5310   37.4060 C   0  0  0  0  0  0  0  0  0  0  0  0
   50.5180   23.0320   38.0560 C   0  0  0  0  0  0  0  0  0  0  0  0
   51.5180   22.6230   37.4140 O   0  0  0  0  0  0  0  0  0  0  0  0
   50.5660   22.9640   39.4170 N   0  0  0  0  0  0  0  0  0  0  0  0
   49.4600   23.4210   40.0230 C   0  0  0  0  0  0  0  0  0  0  0  0
   49.3560   23.4160   41.4540 N   0  0  0  0  0  0  0  0  0  0  0  0
   48.3610   23.9170   39.4290 N   0  0  0  0  0  0  0  0  0  0  0  0
   48.3050   23.9880   38.0880 C   0  0  0  0  0  0  0  0  0  0  0  0
   44.5750   23.8510   36.0780 C   0  0  0  0  0  0  0  0  0  0  0  0
   41.2020   22.4230   37.0420 C   0  0  0  0  0  0  0  0  0  0  0  0
   42.1890   23.3350   36.6960 C   0  0  0  0  0  0  0  0  0  0  0  0
   43.4910   22.8890   36.4530 C   0  0  0  0  0  0  0  0  0  0  0  0
   43.7240   21.5420   36.5760 N   0  0  0  0  0  0  0  0  0  0  0  0
   42.7450   20.6700   36.9150 C   0  0  0  0  0  0  0  0  0  0  0  0
   41.5040   21.1440   37.1390 N   0  0  0  0  0  0  0  0  0  0  0  0
   39.8560   22.9280   37.2870 C   0  0  0  0  0  0  0  0  0  0  0  0
   38.9240   23.2280   36.2970 C   0  0  0  0  0  0  0  0  0  0  0  0
   37.8310   23.6600   37.0030 C   0  0  0  0  0  0  0  0  0  0  0  0
   38.1070   23.6170   38.3710 C   0  0  0  0  0  0  0  0  0  0  0  0
   39.3410   23.1690   38.4800 O   0  0  0  0  0  0  0  0  0  0  0  0
   44.4734   26.8215   39.6315 H   0  0  0  0  0  0  0  0  0  0  0  0
   47.0967   26.1750   39.2166 H   0  0  0  0  0  0  0  0  0  0  0  0
   47.5304   24.4322   34.9577 H   0  0  0  0  0  0  0  0  0  0  0  0
   51.3777   22.5953   39.9328 H   0  0  0  0  0  0  0  0  0  0  0  0
   48.5024   23.7691   41.9096 H   0  0  0  0  0  0  0  0  0  0  0  0
   50.1350   23.0593   42.0257 H   0  0  0  0  0  0  0  0  0  0  0  0
   45.4698   23.2828   35.7839 H   0  0  0  0  0  0  0  0  0  0  0  0
   44.2103   24.4709   35.2457 H   0  0  0  0  0  0  0  0  0  0  0  0
   41.9475   24.4050   36.6133 H   0  0  0  0  0  0  0  0  0  0  0  0
   42.9590   19.5948   37.0058 H   0  0  0  0  0  0  0  0  0  0  0  0
   39.0377   23.1394   35.2065 H   0  0  0  0  0  0  0  0  0  0  0  0
   36.8805   23.9905   36.5589 H   0  0  0  0  0  0  0  0  0  0  0  0
   37.4311   23.8999   39.1914 H   0  0  0  0  0  0  0  0  0  0  0  0
  1  5  1  0
  1  2  1  0
  2  3  2  0
  4  3  1  0
  5  4  2  0
  6  5  1  0
  6 16  1  0
  7  8  2  0
  7  6  1  0
  8  9  1  0
  9 10  1  0
  9 16  2  0
 10 12  1  0
 11 10  2  0
 12 13  1  0
 13 14  1  0
 15 13  2  0
 16 15  1  0
 17 20  1  0
 17  1  1  0
 18 23  1  0
 18 24  1  0
 19 18  2  0
 20 21  2  0
 20 19  1  0
 21 22  1  0
 22 23  2  0
 24 28  1  0
 25 26  1  0
 25 24  2  0
 26 27  2  0
 27 28  1  0
  3 29  1  0
  4 30  1  0
  7 31  1  0
 12 32  1  0
 14 33  1  0
 14 34  1  0
 17 35  1  0
 17 36  1  0
 19 37  1  0
 22 38  1  0
 25 39  1  0
 26 40  1  0
 27 41  1  0
M  ISO  8  29  14  30  14  31  14  32   9  35   8  36   8  37  14  38  14
M  ISO  3  39  14  40  14  41  14
M  END
>  <minimizedAffinity>  (1) 
-5.64523888

>  <minimizedRMSD>  (1) 
1.08728981

$$$$
