
     RDKit          3D

 43 46  0  0  0  0  0  0  0  0999 V2000
   41.6000   22.3190   36.7860 C   0  0  0  0  0  0  0  0  0  0  0  0
   42.5800   23.2850   36.6080 C   0  0  0  0  0  0  0  0  0  0  0  0
   43.8900   22.8970   36.2990 C   0  0  0  0  0  0  0  0  0  0  0  0
   44.1280   21.5410   36.1860 N   0  0  0  0  0  0  0  0  0  0  0  0
   43.1510   20.6280   36.3650 C   0  0  0  0  0  0  0  0  0  0  0  0
   41.9120   21.0450   36.6600 N   0  0  0  0  0  0  0  0  0  0  0  0
   40.2480   22.7730   37.1070 C   0  0  0  0  0  0  0  0  0  0  0  0
   39.2620   23.0560   36.1810 C   0  0  0  0  0  0  0  0  0  0  0  0
   38.1850   23.4380   36.9300 C   0  0  0  0  0  0  0  0  0  0  0  0
   38.5310   23.3830   38.2680 C   0  0  0  0  0  0  0  0  0  0  0  0
   39.7830   22.9770   38.3170 O   0  0  0  0  0  0  0  0  0  0  0  0
   44.9610   23.9120   36.1030 C   0  0  0  0  0  0  0  0  0  0  0  0
   45.1040   24.7790   37.2520 N   0  0  0  0  0  0  0  0  0  0  0  0
   44.2580   25.5900   37.8480 N   0  0  0  0  0  0  0  0  0  0  0  0
   44.7850   26.2140   38.8820 C   0  0  0  0  0  0  0  0  0  0  0  0
   46.1090   25.7900   39.0020 C   0  0  0  0  0  0  0  0  0  0  0  0
   46.2500   24.8910   37.9510 C   0  0  0  0  0  0  0  0  0  0  0  0
   47.5890   24.2210   37.7730 C   0  0  0  0  0  0  0  0  0  0  0  0
   48.2440   24.0910   39.1100 C   0  0  0  0  0  0  0  0  0  0  0  0
   49.7020   23.7610   39.0150 C   0  0  0  0  0  0  0  0  0  0  0  0
   50.4490   24.5150   37.9580 C   0  0  0  0  0  0  0  0  0  0  0  0
   49.6090   25.6520   37.4270 C   0  0  0  0  0  0  0  0  0  0  0  0
   48.3870   25.0410   36.7890 C   0  0  0  0  0  0  0  0  0  0  0  0
   42.3292   24.3512   36.7091 H   0  0  0  0  0  0  0  0  0  0  0  0
   43.3688   19.5540   36.2699 H   0  0  0  0  0  0  0  0  0  0  0  0
   39.3292   22.9887   35.0851 H   0  0  0  0  0  0  0  0  0  0  0  0
   37.2041   23.7397   36.5340 H   0  0  0  0  0  0  0  0  0  0  0  0
   37.8862   23.6302   39.1243 H   0  0  0  0  0  0  0  0  0  0  0  0
   45.9149   23.3925   35.9294 H   0  0  0  0  0  0  0  0  0  0  0  0
   44.6840   24.5353   35.2400 H   0  0  0  0  0  0  0  0  0  0  0  0
   44.2736   26.9383   39.5330 H   0  0  0  0  0  0  0  0  0  0  0  0
   46.8590   26.0934   39.7472 H   0  0  0  0  0  0  0  0  0  0  0  0
   47.4997   23.2032   37.3655 H   0  0  0  0  0  0  0  0  0  0  0  0
   48.1341   25.0437   39.6488 H   0  0  0  0  0  0  0  0  0  0  0  0
   47.7517   23.2621   39.6396 H   0  0  0  0  0  0  0  0  0  0  0  0
   50.1671   23.9828   39.9869 H   0  0  0  0  0  0  0  0  0  0  0  0
   49.7616   22.6982   38.7378 H   0  0  0  0  0  0  0  0  0  0  0  0
   51.3762   24.9204   38.3893 H   0  0  0  0  0  0  0  0  0  0  0  0
   50.6842   23.8294   37.1306 H   0  0  0  0  0  0  0  0  0  0  0  0
   49.3116   26.3178   38.2505 H   0  0  0  0  0  0  0  0  0  0  0  0
   50.1750   26.2485   36.6963 H   0  0  0  0  0  0  0  0  0  0  0  0
   47.7490   25.8474   36.3982 H   0  0  0  0  0  0  0  0  0  0  0  0
   48.7217   24.3735   35.9813 H   0  0  0  0  0  0  0  0  0  0  0  0
  1  7  1  0
  2  1  2  0
  3  2  1  0
  4  3  2  0
  4  5  1  0
  5  6  2  0
  6  1  1  0
  7 11  1  0
  8  9  1  0
  8  7  2  0
  9 10  2  0
 10 11  1  0
 12  3  1  0
 12 13  1  0
 13 14  1  0
 13 17  1  0
 14 15  2  0
 15 16  1  0
 17 16  2  0
 18 17  1  0
 18 19  1  0
 20 19  1  0
 21 20  1  0
 22 21  1  0
 23 22  1  0
 23 18  1  0
  2 24  1  0
  5 25  1  0
  8 26  1  0
  9 27  1  0
 10 28  1  0
 12 29  1  0
 12 30  1  0
 15 31  1  0
 16 32  1  0
 18 33  1  0
 19 34  1  0
 19 35  1  0
 20 36  1  0
 20 37  1  0
 21 38  1  0
 21 39  1  0
 22 40  1  0
 22 41  1  0
 23 42  1  0
 23 43  1  0
M  ISO  8  24  14  25  14  26  14  27  14  28  14  29   8  30   8  31  14
M  ISO  8  32  14  33  13  34  13  35  13  36  13  37  13  38  13  39  13
M  ISO  4  40  13  41  13  42  13  43  13
M  END
>  <minimizedAffinity>  (1) 
-5.50653219

>  <minimizedRMSD>  (1) 
1.83040571

$$$$
