
     RDKit          3D

 40 43  0  0  0  0  0  0  0  0999 V2000
   44.1910   24.3860   36.0420 C   0  0  0  0  0  0  0  0  0  0  0  0
   41.0420   22.5250   37.0160 C   0  0  0  0  0  0  0  0  0  0  0  0
   41.8940   23.5790   36.6870 C   0  0  0  0  0  0  0  0  0  0  0  0
   43.2470   23.2840   36.3990 C   0  0  0  0  0  0  0  0  0  0  0  0
   43.6290   21.9680   36.4660 N   0  0  0  0  0  0  0  0  0  0  0  0
   42.7740   20.9700   36.7900 C   0  0  0  0  0  0  0  0  0  0  0  0
   41.4940   21.2860   37.0570 N   0  0  0  0  0  0  0  0  0  0  0  0
   39.6510   22.8560   37.3080 C   0  0  0  0  0  0  0  0  0  0  0  0
   38.6160   22.8060   36.3760 C   0  0  0  0  0  0  0  0  0  0  0  0
   37.5020   23.1950   37.0890 C   0  0  0  0  0  0  0  0  0  0  0  0
   37.8990   23.4600   38.4040 C   0  0  0  0  0  0  0  0  0  0  0  0
   39.1920   23.2390   38.4720 O   0  0  0  0  0  0  0  0  0  0  0  0
   44.9630   24.8170   37.1910 N   0  0  0  0  0  0  0  0  0  0  0  0
   44.6300   25.5380   38.2470 N   0  0  0  0  0  0  0  0  0  0  0  0
   45.6410   25.7070   39.0770 C   0  0  0  0  0  0  0  0  0  0  0  0
   46.7530   25.0570   38.5590 C   0  0  0  0  0  0  0  0  0  0  0  0
   46.2670   24.5150   37.3720 C   0  0  0  0  0  0  0  0  0  0  0  0
   47.0960   23.7380   36.4840 N   0  0  0  0  0  0  0  0  0  0  0  0
   47.2800   22.4070   36.4760 C   0  0  0  0  0  0  0  0  0  0  0  0
   48.1280   21.8850   35.5220 C   0  0  0  0  0  0  0  0  0  0  0  0
   48.3060   20.4090   35.5450 C   0  0  0  0  0  0  0  0  0  0  0  0
   48.7660   22.7010   34.6070 C   0  0  0  0  0  0  0  0  0  0  0  0
   49.5240   22.1180   33.7740 O   0  0  0  0  0  0  0  0  0  0  0  0
   48.5520   24.0250   34.6540 N   0  0  0  0  0  0  0  0  0  0  0  0
   47.7140   24.5410   35.5970 C   0  0  0  0  0  0  0  0  0  0  0  0
   47.6180   25.7910   35.5100 O   0  0  0  0  0  0  0  0  0  0  0  0
   44.8797   24.0283   35.2624 H   0  0  0  0  0  0  0  0  0  0  0  0
   43.6018   25.2420   35.6811 H   0  0  0  0  0  0  0  0  0  0  0  0
   41.5230   24.6140   36.6524 H   0  0  0  0  0  0  0  0  0  0  0  0
   43.1175   19.9259   36.8339 H   0  0  0  0  0  0  0  0  0  0  0  0
   38.6745   22.5215   35.3150 H   0  0  0  0  0  0  0  0  0  0  0  0
   36.4794   23.2818   36.6930 H   0  0  0  0  0  0  0  0  0  0  0  0
   37.2495   23.7916   39.2275 H   0  0  0  0  0  0  0  0  0  0  0  0
   45.6085   26.2691   40.0220 H   0  0  0  0  0  0  0  0  0  0  0  0
   47.7663   24.9874   38.9814 H   0  0  0  0  0  0  0  0  0  0  0  0
   46.7725   21.7572   37.2042 H   0  0  0  0  0  0  0  0  0  0  0  0
   48.3480   20.0609   36.5876 H   0  0  0  0  0  0  0  0  0  0  0  0
   47.4592   19.9295   35.0322 H   0  0  0  0  0  0  0  0  0  0  0  0
   49.2425   20.1446   35.0322 H   0  0  0  0  0  0  0  0  0  0  0  0
   49.0191   24.6486   33.9803 H   0  0  0  0  0  0  0  0  0  0  0  0
  1  4  1  0
  1 13  1  0
  2  7  1  0
  2  8  1  0
  3  2  2  0
  4  5  2  0
  4  3  1  0
  5  6  1  0
  6  7  2  0
  8 12  1  0
  9 10  1  0
  9  8  2  0
 10 11  2  0
 11 12  1  0
 13 17  1  0
 13 14  1  0
 14 15  2  0
 16 15  1  0
 17 16  2  0
 18 17  1  0
 19 18  1  0
 20 21  1  0
 20 19  2  0
 22 24  1  0
 22 20  1  0
 23 22  2  0
 24 25  1  0
 25 18  1  0
 26 25  2  0
  1 27  1  0
  1 28  1  0
  3 29  1  0
  6 30  1  0
  9 31  1  0
 10 32  1  0
 11 33  1  0
 15 34  1  0
 16 35  1  0
 19 36  1  0
 21 37  1  0
 21 38  1  0
 21 39  1  0
 24 40  1  0
M  ISO  8  27   8  28   8  29  14  30  14  31  14  32  14  33  14  34  14
M  ISO  6  35  14  36  14  37   8  38   8  39   8  40   9
M  END
>  <minimizedAffinity>  (1) 
-5.07253122

>  <minimizedRMSD>  (1) 
0.846855164

$$$$
