
     RDKit          3D

 37 40  0  0  0  0  0  0  0  0999 V2000
   44.1880   24.4020   36.0520 C   0  0  0  0  0  0  0  0  0  0  0  0
   41.0410   22.5300   37.0060 C   0  0  0  0  0  0  0  0  0  0  0  0
   41.8950   23.5820   36.6810 C   0  0  0  0  0  0  0  0  0  0  0  0
   43.2510   23.2960   36.4010 C   0  0  0  0  0  0  0  0  0  0  0  0
   43.6350   21.9830   36.4700 N   0  0  0  0  0  0  0  0  0  0  0  0
   42.7810   20.9800   36.7880 C   0  0  0  0  0  0  0  0  0  0  0  0
   41.5030   21.2970   37.0460 N   0  0  0  0  0  0  0  0  0  0  0  0
   39.6450   22.8560   37.2900 C   0  0  0  0  0  0  0  0  0  0  0  0
   38.6120   22.8130   36.3840 C   0  0  0  0  0  0  0  0  0  0  0  0
   37.5040   23.1920   37.0890 C   0  0  0  0  0  0  0  0  0  0  0  0
   37.8950   23.4540   38.3980 C   0  0  0  0  0  0  0  0  0  0  0  0
   39.1970   23.2370   38.4730 O   0  0  0  0  0  0  0  0  0  0  0  0
   44.9690   24.8210   37.1980 N   0  0  0  0  0  0  0  0  0  0  0  0
   44.6270   25.5090   38.2770 N   0  0  0  0  0  0  0  0  0  0  0  0
   45.6650   25.6740   39.0890 C   0  0  0  0  0  0  0  0  0  0  0  0
   46.7780   25.0690   38.5420 C   0  0  0  0  0  0  0  0  0  0  0  0
   46.2880   24.5490   37.3580 C   0  0  0  0  0  0  0  0  0  0  0  0
   47.0870   23.8090   36.4110 N   0  0  0  0  0  0  0  0  0  0  0  0
   47.2560   22.4770   36.4840 C   0  0  0  0  0  0  0  0  0  0  0  0
   48.0180   21.7750   35.5780 C   0  0  0  0  0  0  0  0  0  0  0  0
   48.6180   22.4980   34.5660 C   0  0  0  0  0  0  0  0  0  0  0  0
   49.3250   21.8730   33.7200 O   0  0  0  0  0  0  0  0  0  0  0  0
   48.4340   23.8150   34.5170 N   0  0  0  0  0  0  0  0  0  0  0  0
   47.6850   24.5130   35.4050 C   0  0  0  0  0  0  0  0  0  0  0  0
   47.5560   25.7560   35.2960 O   0  0  0  0  0  0  0  0  0  0  0  0
   44.8707   24.0556   35.2621 H   0  0  0  0  0  0  0  0  0  0  0  0
   43.5933   25.2612   35.7083 H   0  0  0  0  0  0  0  0  0  0  0  0
   41.5211   24.6158   36.6430 H   0  0  0  0  0  0  0  0  0  0  0  0
   43.1255   19.9363   36.8333 H   0  0  0  0  0  0  0  0  0  0  0  0
   38.6655   22.5339   35.3213 H   0  0  0  0  0  0  0  0  0  0  0  0
   36.4820   23.2753   36.6909 H   0  0  0  0  0  0  0  0  0  0  0  0
   37.2411   23.7815   39.2197 H   0  0  0  0  0  0  0  0  0  0  0  0
   45.6411   26.2101   40.0492 H   0  0  0  0  0  0  0  0  0  0  0  0
   47.7994   25.0141   38.9465 H   0  0  0  0  0  0  0  0  0  0  0  0
   46.7657   21.9265   37.3004 H   0  0  0  0  0  0  0  0  0  0  0  0
   48.1436   20.6850   35.6567 H   0  0  0  0  0  0  0  0  0  0  0  0
   48.8900   24.3374   33.7554 H   0  0  0  0  0  0  0  0  0  0  0  0
  1  4  1  0
  1 13  1  0
  2  7  1  0
  2  8  1  0
  3  2  2  0
  4  5  2  0
  4  3  1  0
  5  6  1  0
  6  7  2  0
  8 12  1  0
  9 10  1  0
  9  8  2  0
 10 11  2  0
 11 12  1  0
 13 17  1  0
 13 14  1  0
 14 15  2  0
 16 15  1  0
 17 16  2  0
 18 19  1  0
 18 17  1  0
 20 19  2  0
 21 20  1  0
 22 21  2  0
 23 21  1  0
 23 24  1  0
 24 18  1  0
 25 24  2  0
  1 26  1  0
  1 27  1  0
  3 28  1  0
  6 29  1  0
  9 30  1  0
 10 31  1  0
 11 32  1  0
 15 33  1  0
 16 34  1  0
 19 35  1  0
 20 36  1  0
 23 37  1  0
M  ISO  8  26   8  27   8  28  14  29  14  30  14  31  14  32  14  33  14
M  ISO  4  34  14  35  14  36  14  37   9
M  END
>  <minimizedAffinity>  (1) 
-5.01980066

>  <minimizedRMSD>  (1) 
0.500554621

$$$$
