
     RDKit          3D

 40 43  0  0  0  0  0  0  0  0999 V2000
   41.1870   22.4010   37.0210 C   0  0  0  0  0  0  0  0  0  0  0  0
   42.1400   23.3510   36.6860 C   0  0  0  0  0  0  0  0  0  0  0  0
   43.4630   22.9520   36.4230 C   0  0  0  0  0  0  0  0  0  0  0  0
   43.7220   21.6080   36.5200 N   0  0  0  0  0  0  0  0  0  0  0  0
   42.7740   20.7020   36.8490 C   0  0  0  0  0  0  0  0  0  0  0  0
   41.5280   21.1390   37.0890 N   0  0  0  0  0  0  0  0  0  0  0  0
   39.8220   22.8690   37.2860 C   0  0  0  0  0  0  0  0  0  0  0  0
   38.8560   23.0790   36.3140 C   0  0  0  0  0  0  0  0  0  0  0  0
   37.7550   23.5070   37.0060 C   0  0  0  0  0  0  0  0  0  0  0  0
   38.0870   23.5440   38.3660 C   0  0  0  0  0  0  0  0  0  0  0  0
   39.3360   23.1510   38.4740 O   0  0  0  0  0  0  0  0  0  0  0  0
   44.5060   23.9430   36.0620 C   0  0  0  0  0  0  0  0  0  0  0  0
   44.9000   24.7540   37.1980 N   0  0  0  0  0  0  0  0  0  0  0  0
   44.2140   25.6100   37.9320 N   0  0  0  0  0  0  0  0  0  0  0  0
   44.9490   26.1560   38.8920 C   0  0  0  0  0  0  0  0  0  0  0  0
   46.2200   25.6270   38.7930 C   0  0  0  0  0  0  0  0  0  0  0  0
   46.1390   24.7540   37.7160 C   0  0  0  0  0  0  0  0  0  0  0  0
   47.3740   23.9860   37.3180 C   0  0  0  0  0  0  0  0  0  0  0  0
   48.4070   23.9330   38.3830 C   0  0  0  0  0  0  0  0  0  0  0  0
   49.7250   24.3890   37.7800 C   0  0  0  0  0  0  0  0  0  0  0  0
   49.5390   24.3370   36.2810 C   0  0  0  0  0  0  0  0  0  0  0  0
   48.0680   24.6740   36.1580 C   0  0  0  0  0  0  0  0  0  0  0  0
   41.8622   24.4136   36.6261 H   0  0  0  0  0  0  0  0  0  0  0  0
   43.0182   19.6317   36.9183 H   0  0  0  0  0  0  0  0  0  0  0  0
   38.9527   22.9339   35.2279 H   0  0  0  0  0  0  0  0  0  0  0  0
   36.7810   23.7747   36.5704 H   0  0  0  0  0  0  0  0  0  0  0  0
   37.4249   23.8461   39.1908 H   0  0  0  0  0  0  0  0  0  0  0  0
   45.3895   23.4074   35.6843 H   0  0  0  0  0  0  0  0  0  0  0  0
   44.0887   24.6119   35.2949 H   0  0  0  0  0  0  0  0  0  0  0  0
   44.6079   26.8952   39.6317 H   0  0  0  0  0  0  0  0  0  0  0  0
   47.0953   25.8463   39.4221 H   0  0  0  0  0  0  0  0  0  0  0  0
   47.0096   22.9753   37.0820 H   0  0  0  0  0  0  0  0  0  0  0  0
   48.1245   24.5998   39.2109 H   0  0  0  0  0  0  0  0  0  0  0  0
   48.4996   22.9097   38.7757 H   0  0  0  0  0  0  0  0  0  0  0  0
   49.9570   25.4153   38.1007 H   0  0  0  0  0  0  0  0  0  0  0  0
   50.5587   23.7490   38.1044 H   0  0  0  0  0  0  0  0  0  0  0  0
   50.1676   25.0813   35.7703 H   0  0  0  0  0  0  0  0  0  0  0  0
   49.8234   23.3783   35.8227 H   0  0  0  0  0  0  0  0  0  0  0  0
   47.9205   25.7624   36.2176 H   0  0  0  0  0  0  0  0  0  0  0  0
   47.6607   24.3381   35.1930 H   0  0  0  0  0  0  0  0  0  0  0  0
  1  6  1  0
  1  7  1  0
  2  1  2  0
  3  4  2  0
  3  2  1  0
  4  5  1  0
  5  6  2  0
  7 11  1  0
  8  9  1  0
  8  7  2  0
  9 10  2  0
 10 11  1  0
 12  3  1  0
 12 13  1  0
 13 17  1  0
 13 14  1  0
 14 15  2  0
 16 15  1  0
 17 16  2  0
 18 17  1  0
 18 19  1  0
 20 19  1  0
 21 20  1  0
 22 21  1  0
 22 18  1  0
  2 23  1  0
  5 24  1  0
  8 25  1  0
  9 26  1  0
 10 27  1  0
 12 28  1  0
 12 29  1  0
 15 30  1  0
 16 31  1  0
 18 32  1  0
 19 33  1  0
 19 34  1  0
 20 35  1  0
 20 36  1  0
 21 37  1  0
 21 38  1  0
 22 39  1  0
 22 40  1  0
M  ISO  8  23  14  24  14  25  14  26  14  27  14  28   8  29   8  30  14
M  ISO  8  31  14  32  13  33  13  34  13  35  13  36  13  37  13  38  13
M  ISO  2  39  13  40  13
M  END
>  <minimizedAffinity>  (1) 
-5.1927824

>  <minimizedRMSD>  (1) 
1.26474953

$$$$
