
     RDKit          3D

 41 44  0  0  0  0  0  0  0  0999 V2000
   44.3870   24.0500   35.9850 C   0  0  0  0  0  0  0  0  0  0  0  0
   41.1000   22.4720   37.0050 C   0  0  0  0  0  0  0  0  0  0  0  0
   42.0380   23.4330   36.6420 C   0  0  0  0  0  0  0  0  0  0  0  0
   43.3540   23.0350   36.3780 C   0  0  0  0  0  0  0  0  0  0  0  0
   43.6520   21.6830   36.4950 N   0  0  0  0  0  0  0  0  0  0  0  0
   42.7140   20.7760   36.8500 C   0  0  0  0  0  0  0  0  0  0  0  0
   41.4560   21.2010   37.0970 N   0  0  0  0  0  0  0  0  0  0  0  0
   39.7370   22.9200   37.2780 C   0  0  0  0  0  0  0  0  0  0  0  0
   38.7630   23.1210   36.3060 C   0  0  0  0  0  0  0  0  0  0  0  0
   37.6670   23.5300   37.0260 C   0  0  0  0  0  0  0  0  0  0  0  0
   37.9920   23.5660   38.3670 C   0  0  0  0  0  0  0  0  0  0  0  0
   39.2590   23.1870   38.4690 O   0  0  0  0  0  0  0  0  0  0  0  0
   44.9410   24.7190   37.1370 N   0  0  0  0  0  0  0  0  0  0  0  0
   44.4130   25.5860   37.9930 N   0  0  0  0  0  0  0  0  0  0  0  0
   45.2580   25.9610   38.9310 C   0  0  0  0  0  0  0  0  0  0  0  0
   46.4510   25.3060   38.7040 C   0  0  0  0  0  0  0  0  0  0  0  0
   46.2040   24.5350   37.5620 C   0  0  0  0  0  0  0  0  0  0  0  0
   47.3060   23.7570   37.0690 N   0  0  0  0  0  0  0  0  0  0  0  0
   48.6870   24.2110   37.1150 C   0  0  0  0  0  0  0  0  0  0  0  0
   49.5950   23.1440   37.7040 C   0  0  0  0  0  0  0  0  0  0  0  0
   49.3360   21.8430   37.1620 N   0  0  0  0  0  0  0  0  0  0  0  0
   48.3930   21.8630   36.0720 C   0  0  0  0  0  0  0  0  0  0  0  0
   47.0730   22.4340   36.4690 C   0  0  0  0  0  0  0  0  0  0  0  0
   45.1983   23.5419   35.4431 H   0  0  0  0  0  0  0  0  0  0  0  0
   43.9020   24.8054   35.3493 H   0  0  0  0  0  0  0  0  0  0  0  0
   41.7495   24.4916   36.5634 H   0  0  0  0  0  0  0  0  0  0  0  0
   42.9712   19.7100   36.9362 H   0  0  0  0  0  0  0  0  0  0  0  0
   38.8497   22.9847   35.2179 H   0  0  0  0  0  0  0  0  0  0  0  0
   36.6857   23.7880   36.6011 H   0  0  0  0  0  0  0  0  0  0  0  0
   37.3266   23.8543   39.1941 H   0  0  0  0  0  0  0  0  0  0  0  0
   45.0503   26.6683   39.7475 H   0  0  0  0  0  0  0  0  0  0  0  0
   47.3818   25.3740   39.2863 H   0  0  0  0  0  0  0  0  0  0  0  0
   49.0225   24.4444   36.0938 H   0  0  0  0  0  0  0  0  0  0  0  0
   48.7394   25.1053   37.7533 H   0  0  0  0  0  0  0  0  0  0  0  0
   50.6401   23.4133   37.4910 H   0  0  0  0  0  0  0  0  0  0  0  0
   49.4012   23.1001   38.7859 H   0  0  0  0  0  0  0  0  0  0  0  0
   50.2236   21.4473   36.8206 H   0  0  0  0  0  0  0  0  0  0  0  0
   48.2398   20.8325   35.7191 H   0  0  0  0  0  0  0  0  0  0  0  0
   48.8100   22.5036   35.2809 H   0  0  0  0  0  0  0  0  0  0  0  0
   46.4294   22.5352   35.5827 H   0  0  0  0  0  0  0  0  0  0  0  0
   46.5744   21.7715   37.1919 H   0  0  0  0  0  0  0  0  0  0  0  0
  1  4  1  0
  1 13  1  0
  2  7  1  0
  2  8  1  0
  3  2  2  0
  4  5  2  0
  4  3  1  0
  5  6  1  0
  6  7  2  0
  8 12  1  0
  9 10  1  0
  9  8  2  0
 10 11  2  0
 11 12  1  0
 13 17  1  0
 13 14  1  0
 14 15  2  0
 16 15  1  0
 17 16  2  0
 18 19  1  0
 18 17  1  0
 19 20  1  0
 21 20  1  0
 22 23  1  0
 22 21  1  0
 23 18  1  0
  1 24  1  0
  1 25  1  0
  3 26  1  0
  6 27  1  0
  9 28  1  0
 10 29  1  0
 11 30  1  0
 15 31  1  0
 16 32  1  0
 19 33  1  0
 19 34  1  0
 20 35  1  0
 20 36  1  0
 21 37  1  0
 22 38  1  0
 22 39  1  0
 23 40  1  0
 23 41  1  0
M  ISO  8  24   8  25   8  26  14  27  14  28  14  29  14  30  14  31  14
M  ISO  8  32  14  33  13  34  13  35  13  36  13  37   5  38  13  39  13
M  ISO  2  40  13  41  13
M  END
>  <minimizedAffinity>  (1) 
-5.01061392

>  <minimizedRMSD>  (1) 
0.541060865

$$$$
