
     RDKit          3D

 41 43  0  0  0  0  0  0  0  0999 V2000
   38.3030   26.5540   34.4020 C   0  0  0  0  0  0  0  0  0  0  0  0
   37.1800   27.3920   34.9170 C   0  0  0  0  0  0  0  0  0  0  0  0
   38.6780   27.0490   33.0080 C   0  0  0  0  0  0  0  0  0  0  0  0
   39.5460   26.8830   35.2470 C   0  0  0  0  0  0  0  0  0  0  0  0
   40.7960   26.8010   34.4300 C   0  0  0  0  0  0  0  0  0  0  0  0
   41.6670   25.7570   34.4830 N   0  0  0  0  0  0  0  0  0  0  0  0
   42.6380   25.9960   33.6580 O   0  0  0  0  0  0  0  0  0  0  0  0
   42.4780   27.1290   33.0560 C   0  0  0  0  0  0  0  0  0  0  0  0
   41.3280   27.6440   33.5300 N   0  0  0  0  0  0  0  0  0  0  0  0
   38.0680   24.7870   34.4750 S   0  0  0  0  0  0  0  0  0  0  0  0
   38.7600   23.3480   38.2250 C   0  0  0  0  0  0  0  0  0  0  0  0
   38.1620   23.9620   37.1130 C   0  0  0  0  0  0  0  0  0  0  0  0
   38.8080   24.0140   35.8960 C   0  0  0  0  0  0  0  0  0  0  0  0
   40.0340   23.4480   35.8380 N   0  0  0  0  0  0  0  0  0  0  0  0
   40.6120   22.8620   36.8840 C   0  0  0  0  0  0  0  0  0  0  0  0
   39.9880   22.8070   38.0780 N   0  0  0  0  0  0  0  0  0  0  0  0
   41.9210   22.2740   36.7670 N   0  0  0  0  0  0  0  0  0  0  0  0
   43.1030   23.1050   36.7060 C   0  0  0  0  0  0  0  0  0  0  0  0
   44.2190   22.5200   35.8920 C   0  0  0  0  0  0  0  0  0  0  0  0
   44.0650   21.1870   35.5920 O   0  0  0  0  0  0  0  0  0  0  0  0
   43.5320   20.5270   36.6910 C   0  0  0  0  0  0  0  0  0  0  0  0
   42.0340   20.8220   36.7090 C   0  0  0  0  0  0  0  0  0  0  0  0
   37.1909   27.3839   36.0169 H   0  0  0  0  0  0  0  0  0  0  0  0
   37.2979   28.4246   34.5568 H   0  0  0  0  0  0  0  0  0  0  0  0
   36.2237   26.9850   34.5568 H   0  0  0  0  0  0  0  0  0  0  0  0
   39.3402   27.9230   33.0951 H   0  0  0  0  0  0  0  0  0  0  0  0
   39.1980   26.2480   32.4621 H   0  0  0  0  0  0  0  0  0  0  0  0
   37.7662   27.3327   32.4621 H   0  0  0  0  0  0  0  0  0  0  0  0
   39.4467   27.9022   35.6486 H   0  0  0  0  0  0  0  0  0  0  0  0
   39.6156   26.1483   36.0627 H   0  0  0  0  0  0  0  0  0  0  0  0
   43.1462   27.5807   32.3080 H   0  0  0  0  0  0  0  0  0  0  0  0
   38.2400   23.3087   39.1935 H   0  0  0  0  0  0  0  0  0  0  0  0
   37.1619   24.4088   37.2143 H   0  0  0  0  0  0  0  0  0  0  0  0
   42.8230   24.0727   36.2641 H   0  0  0  0  0  0  0  0  0  0  0  0
   43.4773   23.2019   37.7358 H   0  0  0  0  0  0  0  0  0  0  0  0
   44.2859   23.0797   34.9474 H   0  0  0  0  0  0  0  0  0  0  0  0
   45.1296   22.6009   36.5038 H   0  0  0  0  0  0  0  0  0  0  0  0
   43.7022   19.4441   36.5998 H   0  0  0  0  0  0  0  0  0  0  0  0
   44.0093   20.8678   37.6216 H   0  0  0  0  0  0  0  0  0  0  0  0
   41.5556   20.4358   35.7969 H   0  0  0  0  0  0  0  0  0  0  0  0
   41.5346   20.3405   37.5627 H   0  0  0  0  0  0  0  0  0  0  0  0
  1 10  1  0
  1  2  1  0
  1  4  1  0
  3  1  1  0
  5  6  2  0
  5  4  1  0
  7  6  1  0
  8  9  2  0
  8  7  1  0
  9  5  1  0
 10 13  1  0
 12 11  2  0
 13 12  1  0
 14 13  2  0
 14 15  1  0
 15 16  2  0
 16 11  1  0
 17 15  1  0
 18 17  1  0
 19 18  1  0
 20 19  1  0
 20 21  1  0
 21 22  1  0
 22 17  1  0
  2 23  1  0
  2 24  1  0
  2 25  1  0
  3 26  1  0
  3 27  1  0
  3 28  1  0
  4 29  1  0
  4 30  1  0
  8 31  1  0
 11 32  1  0
 12 33  1  0
 18 34  1  0
 18 35  1  0
 19 36  1  0
 19 37  1  0
 21 38  1  0
 21 39  1  0
 22 40  1  0
 22 41  1  0
M  ISO  8  23   8  24   8  25   8  26   8  27   8  28   8  29   8  30   8
M  ISO  8  31  14  32  14  33  14  34  13  35  13  36  13  37  13  38  13
M  ISO  3  39  13  40  13  41  13
M  END
>  <minimizedAffinity>  (1) 
-4.6829133

>  <minimizedRMSD>  (1) 
1.1627481

$$$$
