
     RDKit          3D

 30 32  0  0  0  0  0  0  0  0999 V2000
   41.0630   22.4540   37.0160 C   0  0  0  0  0  0  0  0  0  0  0  0
   41.9750   23.4330   36.6460 C   0  0  0  0  0  0  0  0  0  0  0  0
   43.2980   23.0690   36.3770 C   0  0  0  0  0  0  0  0  0  0  0  0
   43.6150   21.7330   36.4990 N   0  0  0  0  0  0  0  0  0  0  0  0
   42.7040   20.8030   36.8620 C   0  0  0  0  0  0  0  0  0  0  0  0
   41.4510   21.2000   37.1090 N   0  0  0  0  0  0  0  0  0  0  0  0
   39.6810   22.8750   37.2910 C   0  0  0  0  0  0  0  0  0  0  0  0
   38.6740   22.9470   36.3380 C   0  0  0  0  0  0  0  0  0  0  0  0
   37.5830   23.3830   37.0570 C   0  0  0  0  0  0  0  0  0  0  0  0
   37.9460   23.5570   38.3760 C   0  0  0  0  0  0  0  0  0  0  0  0
   39.2290   23.2400   38.4790 O   0  0  0  0  0  0  0  0  0  0  0  0
   44.2990   24.1020   35.9770 C   0  0  0  0  0  0  0  0  0  0  0  0
   44.9620   24.6760   37.1170 N   0  0  0  0  0  0  0  0  0  0  0  0
   44.5420   25.5030   38.0490 N   0  0  0  0  0  0  0  0  0  0  0  0
   45.4590   25.8050   38.9440 C   0  0  0  0  0  0  0  0  0  0  0  0
   46.6110   25.1310   38.6020 C   0  0  0  0  0  0  0  0  0  0  0  0
   46.2390   24.4380   37.4480 C   0  0  0  0  0  0  0  0  0  0  0  0
   47.1720   23.5390   36.6810 C   0  0  0  0  0  0  0  0  0  0  0  0
   47.3360   24.0510   35.4060 F   0  0  0  0  0  0  0  0  0  0  0  0
   46.6530   22.2890   36.5640 F   0  0  0  0  0  0  0  0  0  0  0  0
   48.3800   23.4120   37.3580 F   0  0  0  0  0  0  0  0  0  0  0  0
   41.6602   24.4839   36.5653 H   0  0  0  0  0  0  0  0  0  0  0  0
   42.9867   19.7438   36.9522 H   0  0  0  0  0  0  0  0  0  0  0  0
   38.7332   22.7120   35.2650 H   0  0  0  0  0  0  0  0  0  0  0  0
   36.5797   23.5640   36.6439 H   0  0  0  0  0  0  0  0  0  0  0  0
   37.2914   23.8964   39.1923 H   0  0  0  0  0  0  0  0  0  0  0  0
   45.0521   23.6341   35.3259 H   0  0  0  0  0  0  0  0  0  0  0  0
   43.7659   24.9078   35.4512 H   0  0  0  0  0  0  0  0  0  0  0  0
   45.3291   26.4737   39.8077 H   0  0  0  0  0  0  0  0  0  0  0  0
   47.5852   25.1372   39.1128 H   0  0  0  0  0  0  0  0  0  0  0  0
  1  6  1  0
  1  7  1  0
  2  1  2  0
  3  4  2  0
  3  2  1  0
  4  5  1  0
  5  6  2  0
  7 11  1  0
  8  9  1  0
  8  7  2  0
  9 10  2  0
 10 11  1  0
 12  3  1  0
 12 13  1  0
 13 17  1  0
 13 14  1  0
 14 15  2  0
 16 15  1  0
 17 16  2  0
 18 21  1  0
 18 17  1  0
 19 18  1  0
 20 18  1  0
  2 22  1  0
  5 23  1  0
  8 24  1  0
  9 25  1  0
 10 26  1  0
 12 27  1  0
 12 28  1  0
 15 29  1  0
 16 30  1  0
M  ISO  8  22  14  23  14  24  14  25  14  26  14  27   8  28   8  29  14
M  ISO  1  30  14
M  END
>  <minimizedAffinity>  (1) 
-4.98975611

>  <minimizedRMSD>  (1) 
0.458510429

$$$$
