
     RDKit          3D

 34 37  0  0  0  0  0  0  0  0999 V2000
   41.0920   22.4330   37.0060 C   0  0  0  0  0  0  0  0  0  0  0  0
   42.0010   23.4210   36.6510 C   0  0  0  0  0  0  0  0  0  0  0  0
   43.3370   23.0780   36.3800 C   0  0  0  0  0  0  0  0  0  0  0  0
   43.6640   21.7550   36.4870 N   0  0  0  0  0  0  0  0  0  0  0  0
   42.7660   20.8060   36.8350 C   0  0  0  0  0  0  0  0  0  0  0  0
   41.5010   21.1780   37.0850 N   0  0  0  0  0  0  0  0  0  0  0  0
   39.7190   22.8340   37.2770 C   0  0  0  0  0  0  0  0  0  0  0  0
   38.6950   22.8630   36.3390 C   0  0  0  0  0  0  0  0  0  0  0  0
   37.5980   23.2970   37.0380 C   0  0  0  0  0  0  0  0  0  0  0  0
   37.9710   23.5170   38.3510 C   0  0  0  0  0  0  0  0  0  0  0  0
   39.2520   23.2230   38.4350 O   0  0  0  0  0  0  0  0  0  0  0  0
   44.3300   24.1320   35.9950 C   0  0  0  0  0  0  0  0  0  0  0  0
   44.8890   24.7850   37.1580 N   0  0  0  0  0  0  0  0  0  0  0  0
   44.4130   25.7080   37.9640 N   0  0  0  0  0  0  0  0  0  0  0  0
   45.2520   26.0460   38.9300 C   0  0  0  0  0  0  0  0  0  0  0  0
   46.4050   25.2740   38.7580 C   0  0  0  0  0  0  0  0  0  0  0  0
   46.1160   24.5120   37.6420 C   0  0  0  0  0  0  0  0  0  0  0  0
   47.1240   23.5840   37.1850 N   0  0  0  0  0  0  0  0  0  0  0  0
   48.3360   23.7590   37.7810 C   0  0  0  0  0  0  0  0  0  0  0  0
   49.1950   22.8100   37.2510 C   0  0  0  0  0  0  0  0  0  0  0  0
   48.4800   22.0980   36.3580 N   0  0  0  0  0  0  0  0  0  0  0  0
   47.2170   22.5630   36.3120 C   0  0  0  0  0  0  0  0  0  0  0  0
   41.6763   24.4697   36.5820 H   0  0  0  0  0  0  0  0  0  0  0  0
   43.0661   19.7505   36.9116 H   0  0  0  0  0  0  0  0  0  0  0  0
   38.7514   22.5971   35.2731 H   0  0  0  0  0  0  0  0  0  0  0  0
   36.5900   23.4453   36.6235 H   0  0  0  0  0  0  0  0  0  0  0  0
   37.3233   23.8693   39.1673 H   0  0  0  0  0  0  0  0  0  0  0  0
   45.1441   23.6637   35.4224 H   0  0  0  0  0  0  0  0  0  0  0  0
   43.8109   24.8901   35.3902 H   0  0  0  0  0  0  0  0  0  0  0  0
   45.0758   26.7925   39.7185 H   0  0  0  0  0  0  0  0  0  0  0  0
   47.3221   25.2734   39.3653 H   0  0  0  0  0  0  0  0  0  0  0  0
   48.5863   24.5133   38.5415 H   0  0  0  0  0  0  0  0  0  0  0  0
   50.2546   22.6658   37.5090 H   0  0  0  0  0  0  0  0  0  0  0  0
   46.4067   22.1779   35.6755 H   0  0  0  0  0  0  0  0  0  0  0  0
  1  6  1  0
  1  7  1  0
  2  1  2  0
  3  4  2  0
  3  2  1  0
  4  5  1  0
  5  6  2  0
  7 11  1  0
  8  9  1  0
  8  7  2  0
  9 10  2  0
 10 11  1  0
 12  3  1  0
 12 13  1  0
 13 17  1  0
 13 14  1  0
 14 15  2  0
 16 15  1  0
 17 16  2  0
 18 17  1  0
 18 19  1  0
 20 19  2  0
 21 20  1  0
 22 21  2  0
 22 18  1  0
  2 23  1  0
  5 24  1  0
  8 25  1  0
  9 26  1  0
 10 27  1  0
 12 28  1  0
 12 29  1  0
 15 30  1  0
 16 31  1  0
 19 32  1  0
 20 33  1  0
 22 34  1  0
M  ISO  8  23  14  24  14  25  14  26  14  27  14  28   8  29   8  30  14
M  ISO  4  31  14  32  14  33  14  34  14
M  END
>  <minimizedAffinity>  (1) 
-4.99958324

>  <minimizedRMSD>  (1) 
0.439646035

$$$$
