
     RDKit          3D

 34 37  0  0  0  0  0  0  0  0999 V2000
   41.0920   22.4390   37.0140 C   0  0  0  0  0  0  0  0  0  0  0  0
   41.9870   23.4370   36.6590 C   0  0  0  0  0  0  0  0  0  0  0  0
   43.3180   23.1130   36.3850 C   0  0  0  0  0  0  0  0  0  0  0  0
   43.6630   21.7950   36.4870 N   0  0  0  0  0  0  0  0  0  0  0  0
   42.7680   20.8350   36.8360 C   0  0  0  0  0  0  0  0  0  0  0  0
   41.5050   21.2000   37.0870 N   0  0  0  0  0  0  0  0  0  0  0  0
   39.7080   22.8350   37.2870 C   0  0  0  0  0  0  0  0  0  0  0  0
   38.6990   22.8480   36.3330 C   0  0  0  0  0  0  0  0  0  0  0  0
   37.5990   23.2780   37.0340 C   0  0  0  0  0  0  0  0  0  0  0  0
   37.9550   23.5060   38.3470 C   0  0  0  0  0  0  0  0  0  0  0  0
   39.2430   23.2220   38.4440 O   0  0  0  0  0  0  0  0  0  0  0  0
   44.2950   24.1790   36.0010 C   0  0  0  0  0  0  0  0  0  0  0  0
   44.9050   24.7840   37.1520 N   0  0  0  0  0  0  0  0  0  0  0  0
   44.4260   25.6880   37.9920 N   0  0  0  0  0  0  0  0  0  0  0  0
   45.3040   26.0090   38.9390 C   0  0  0  0  0  0  0  0  0  0  0  0
   46.4570   25.2810   38.7360 C   0  0  0  0  0  0  0  0  0  0  0  0
   46.1660   24.5190   37.5990 C   0  0  0  0  0  0  0  0  0  0  0  0
   47.1340   23.5650   37.0050 C   0  0  0  0  0  0  0  0  0  0  0  0
   48.4160   23.3440   37.4660 C   0  0  0  0  0  0  0  0  0  0  0  0
   49.0240   22.3930   36.6720 C   0  0  0  0  0  0  0  0  0  0  0  0
   48.0430   22.0890   35.7520 C   0  0  0  0  0  0  0  0  0  0  0  0
   46.9660   22.7850   35.9760 O   0  0  0  0  0  0  0  0  0  0  0  0
   41.6495   24.4819   36.5933 H   0  0  0  0  0  0  0  0  0  0  0  0
   43.0742   19.7811   36.9107 H   0  0  0  0  0  0  0  0  0  0  0  0
   38.7651   22.5780   35.2687 H   0  0  0  0  0  0  0  0  0  0  0  0
   36.5920   23.4185   36.6142 H   0  0  0  0  0  0  0  0  0  0  0  0
   37.2962   23.8557   39.1555 H   0  0  0  0  0  0  0  0  0  0  0  0
   45.0814   23.7323   35.3749 H   0  0  0  0  0  0  0  0  0  0  0  0
   43.7493   24.9611   35.4528 H   0  0  0  0  0  0  0  0  0  0  0  0
   45.1375   26.7344   39.7490 H   0  0  0  0  0  0  0  0  0  0  0  0
   47.3846   25.2956   39.3270 H   0  0  0  0  0  0  0  0  0  0  0  0
   48.8791   23.8457   38.3285 H   0  0  0  0  0  0  0  0  0  0  0  0
   50.0402   21.9796   36.7530 H   0  0  0  0  0  0  0  0  0  0  0  0
   48.1553   21.3571   34.9385 H   0  0  0  0  0  0  0  0  0  0  0  0
  1  6  1  0
  1  7  1  0
  2  1  2  0
  3  4  2  0
  3  2  1  0
  4  5  1  0
  5  6  2  0
  7 11  1  0
  8  9  1  0
  8  7  2  0
  9 10  2  0
 10 11  1  0
 12  3  1  0
 12 13  1  0
 13 17  1  0
 13 14  1  0
 14 15  2  0
 16 15  1  0
 17 16  2  0
 18 19  2  0
 18 17  1  0
 20 19  1  0
 21 22  1  0
 21 20  2  0
 22 18  1  0
  2 23  1  0
  5 24  1  0
  8 25  1  0
  9 26  1  0
 10 27  1  0
 12 28  1  0
 12 29  1  0
 15 30  1  0
 16 31  1  0
 19 32  1  0
 20 33  1  0
 21 34  1  0
M  ISO  8  23  14  24  14  25  14  26  14  27  14  28   8  29   8  30  14
M  ISO  4  31  14  32  14  33  14  34  14
M  END
>  <minimizedAffinity>  (1) 
-4.95218849

>  <minimizedRMSD>  (1) 
0.34970656

$$$$
