
     RDKit          3D

 36 38  0  0  0  0  0  0  0  0999 V2000
   41.0650   22.4610   37.0080 C   0  0  0  0  0  0  0  0  0  0  0  0
   41.9540   23.4620   36.6430 C   0  0  0  0  0  0  0  0  0  0  0  0
   43.2980   23.1150   36.3720 C   0  0  0  0  0  0  0  0  0  0  0  0
   43.6390   21.7920   36.4890 N   0  0  0  0  0  0  0  0  0  0  0  0
   42.7530   20.8430   36.8440 C   0  0  0  0  0  0  0  0  0  0  0  0
   41.4920   21.2060   37.0930 N   0  0  0  0  0  0  0  0  0  0  0  0
   39.6870   22.8450   37.2810 C   0  0  0  0  0  0  0  0  0  0  0  0
   38.6700   22.8530   36.3280 C   0  0  0  0  0  0  0  0  0  0  0  0
   37.5670   23.2750   37.0360 C   0  0  0  0  0  0  0  0  0  0  0  0
   37.9430   23.5040   38.3630 C   0  0  0  0  0  0  0  0  0  0  0  0
   39.2370   23.2280   38.4600 O   0  0  0  0  0  0  0  0  0  0  0  0
   44.2830   24.1610   35.9780 C   0  0  0  0  0  0  0  0  0  0  0  0
   44.9650   24.7190   37.1130 N   0  0  0  0  0  0  0  0  0  0  0  0
   44.5340   25.5080   38.0860 N   0  0  0  0  0  0  0  0  0  0  0  0
   45.4910   25.8010   38.9550 C   0  0  0  0  0  0  0  0  0  0  0  0
   46.6700   25.1690   38.5490 C   0  0  0  0  0  0  0  0  0  0  0  0
   46.2790   24.5040   37.3860 C   0  0  0  0  0  0  0  0  0  0  0  0
   47.3050   23.6930   36.6470 C   0  0  0  0  0  0  0  0  0  0  0  0
   48.4350   23.2600   37.5400 C   0  0  0  0  0  0  0  0  0  0  0  0
   47.8830   24.4620   35.4770 C   0  0  0  0  0  0  0  0  0  0  0  0
   41.6193   24.5070   36.5658 H   0  0  0  0  0  0  0  0  0  0  0  0
   43.0611   19.7903   36.9273 H   0  0  0  0  0  0  0  0  0  0  0  0
   38.7335   22.5856   35.2629 H   0  0  0  0  0  0  0  0  0  0  0  0
   36.5557   23.4099   36.6249 H   0  0  0  0  0  0  0  0  0  0  0  0
   37.2873   23.8491   39.1760 H   0  0  0  0  0  0  0  0  0  0  0  0
   45.0267   23.7113   35.3037 H   0  0  0  0  0  0  0  0  0  0  0  0
   43.7324   24.9737   35.4816 H   0  0  0  0  0  0  0  0  0  0  0  0
   45.3766   26.4353   39.8464 H   0  0  0  0  0  0  0  0  0  0  0  0
   47.6602   25.1905   39.0275 H   0  0  0  0  0  0  0  0  0  0  0  0
   46.7767   22.8010   36.2791 H   0  0  0  0  0  0  0  0  0  0  0  0
   48.1355   23.3748   38.5922 H   0  0  0  0  0  0  0  0  0  0  0  0
   48.6766   22.2056   37.3405 H   0  0  0  0  0  0  0  0  0  0  0  0
   49.3194   23.8829   37.3405 H   0  0  0  0  0  0  0  0  0  0  0  0
   48.5042   25.2885   35.8524 H   0  0  0  0  0  0  0  0  0  0  0  0
   48.5002   23.7883   34.8644 H   0  0  0  0  0  0  0  0  0  0  0  0
   47.0643   24.8676   34.8644 H   0  0  0  0  0  0  0  0  0  0  0  0
  1  6  1  0
  1  7  1  0
  2  1  2  0
  3  4  2  0
  3  2  1  0
  4  5  1  0
  5  6  2  0
  7 11  1  0
  8  9  1  0
  8  7  2  0
  9 10  2  0
 10 11  1  0
 12  3  1  0
 12 13  1  0
 13 17  1  0
 13 14  1  0
 14 15  2  0
 16 15  1  0
 17 16  2  0
 18 17  1  0
 18 19  1  0
 20 18  1  0
  2 21  1  0
  5 22  1  0
  8 23  1  0
  9 24  1  0
 10 25  1  0
 12 26  1  0
 12 27  1  0
 15 28  1  0
 16 29  1  0
 18 30  1  0
 19 31  1  0
 19 32  1  0
 19 33  1  0
 20 34  1  0
 20 35  1  0
 20 36  1  0
M  ISO  8  21  14  22  14  23  14  24  14  25  14  26   8  27   8  28  14
M  ISO  8  29  14  30   8  31   8  32   8  33   8  34   8  35   8  36   8
M  END
>  <minimizedAffinity>  (1) 
-4.87224388

>  <minimizedRMSD>  (1) 
0.114584543

$$$$
