
     RDKit          3D

 30 32  0  0  0  0  0  0  0  0999 V2000
   41.0340   22.5030   37.0150 C   0  0  0  0  0  0  0  0  0  0  0  0
   41.9040   23.5250   36.6750 C   0  0  0  0  0  0  0  0  0  0  0  0
   43.2450   23.2550   36.3870 C   0  0  0  0  0  0  0  0  0  0  0  0
   43.6290   21.9290   36.4660 N   0  0  0  0  0  0  0  0  0  0  0  0
   42.7640   20.9560   36.7990 C   0  0  0  0  0  0  0  0  0  0  0  0
   41.4820   21.2750   37.0660 N   0  0  0  0  0  0  0  0  0  0  0  0
   39.6450   22.8510   37.3040 C   0  0  0  0  0  0  0  0  0  0  0  0
   38.6100   22.8070   36.3790 C   0  0  0  0  0  0  0  0  0  0  0  0
   37.5150   23.2130   37.1020 C   0  0  0  0  0  0  0  0  0  0  0  0
   37.8990   23.4850   38.4000 C   0  0  0  0  0  0  0  0  0  0  0  0
   39.2030   23.2530   38.4830 O   0  0  0  0  0  0  0  0  0  0  0  0
   44.1940   24.3510   36.0190 C   0  0  0  0  0  0  0  0  0  0  0  0
   44.9580   24.7900   37.1570 N   0  0  0  0  0  0  0  0  0  0  0  0
   44.6330   25.5410   38.1890 N   0  0  0  0  0  0  0  0  0  0  0  0
   45.6270   25.7200   39.0350 C   0  0  0  0  0  0  0  0  0  0  0  0
   46.7320   25.0410   38.5590 C   0  0  0  0  0  0  0  0  0  0  0  0
   46.2570   24.4730   37.3740 C   0  0  0  0  0  0  0  0  0  0  0  0
   47.1880   23.6560   36.5800 C   0  0  0  0  0  0  0  0  0  0  0  0
   48.0780   24.0670   35.7960 O   0  0  0  0  0  0  0  0  0  0  0  0
   47.2220   22.2800   36.5800 O   0  0  0  0  0  0  0  0  0  0  0  0
   41.5360   24.5607   36.6310 H   0  0  0  0  0  0  0  0  0  0  0  0
   43.0989   19.9096   36.8531 H   0  0  0  0  0  0  0  0  0  0  0  0
   38.6562   22.5161   35.3192 H   0  0  0  0  0  0  0  0  0  0  0  0
   36.4921   23.3068   36.7084 H   0  0  0  0  0  0  0  0  0  0  0  0
   37.2452   23.8301   39.2145 H   0  0  0  0  0  0  0  0  0  0  0  0
   44.8840   23.9820   35.2458 H   0  0  0  0  0  0  0  0  0  0  0  0
   43.6086   25.2042   35.6458 H   0  0  0  0  0  0  0  0  0  0  0  0
   45.5843   26.3098   39.9626 H   0  0  0  0  0  0  0  0  0  0  0  0
   47.7359   24.9661   39.0025 H   0  0  0  0  0  0  0  0  0  0  0  0
   47.8802   21.8011   36.0165 H   0  0  0  0  0  0  0  0  0  0  0  0
  1  6  1  0
  1  7  1  0
  2  1  2  0
  3  4  2  0
  3  2  1  0
  4  5  1  0
  5  6  2  0
  7 11  1  0
  8  9  1  0
  8  7  2  0
  9 10  2  0
 10 11  1  0
 12  3  1  0
 12 13  1  0
 13 17  1  0
 13 14  1  0
 14 15  2  0
 16 15  1  0
 17 16  2  0
 18 17  1  0
 19 18  2  0
 20 18  1  0
  2 21  1  0
  5 22  1  0
  8 23  1  0
  9 24  1  0
 10 25  1  0
 12 26  1  0
 12 27  1  0
 15 28  1  0
 16 29  1  0
 20 30  1  0
M  ISO  8  21  14  22  14  23  14  24  14  25  14  26   8  27   8  28  14
M  ISO  2  29  14  30   3
M  END
>  <minimizedAffinity>  (1) 
-4.84464979

>  <minimizedRMSD>  (1) 
0.145094529

$$$$
