
     RDKit          3D

 33 35  0  0  0  0  0  0  0  0999 V2000
   41.0710   22.4620   37.0050 C   0  0  0  0  0  0  0  0  0  0  0  0
   41.9740   23.4590   36.6390 C   0  0  0  0  0  0  0  0  0  0  0  0
   43.3030   23.1210   36.3690 C   0  0  0  0  0  0  0  0  0  0  0  0
   43.6540   21.7980   36.4800 N   0  0  0  0  0  0  0  0  0  0  0  0
   42.7510   20.8480   36.8390 C   0  0  0  0  0  0  0  0  0  0  0  0
   41.4890   21.2220   37.0870 N   0  0  0  0  0  0  0  0  0  0  0  0
   39.6940   22.8450   37.2810 C   0  0  0  0  0  0  0  0  0  0  0  0
   38.6730   22.8580   36.3420 C   0  0  0  0  0  0  0  0  0  0  0  0
   37.5720   23.2800   37.0480 C   0  0  0  0  0  0  0  0  0  0  0  0
   37.9500   23.5040   38.3640 C   0  0  0  0  0  0  0  0  0  0  0  0
   39.2410   23.2290   38.4590 O   0  0  0  0  0  0  0  0  0  0  0  0
   44.2840   24.1800   35.9750 C   0  0  0  0  0  0  0  0  0  0  0  0
   44.9570   24.7370   37.1290 N   0  0  0  0  0  0  0  0  0  0  0  0
   44.5570   25.5990   38.0330 N   0  0  0  0  0  0  0  0  0  0  0  0
   45.4950   25.8500   38.9440 C   0  0  0  0  0  0  0  0  0  0  0  0
   46.6190   25.1000   38.6310 C   0  0  0  0  0  0  0  0  0  0  0  0
   46.2260   24.4240   37.4900 C   0  0  0  0  0  0  0  0  0  0  0  0
   47.1060   23.4610   36.7440 C   0  0  0  0  0  0  0  0  0  0  0  0
   48.3950   23.3970   37.5030 C   0  0  0  0  0  0  0  0  0  0  0  0
   41.6426   24.5052   36.5632 H   0  0  0  0  0  0  0  0  0  0  0  0
   43.0505   19.7930   36.9242 H   0  0  0  0  0  0  0  0  0  0  0  0
   38.7313   22.5916   35.2764 H   0  0  0  0  0  0  0  0  0  0  0  0
   36.5604   23.4172   36.6383 H   0  0  0  0  0  0  0  0  0  0  0  0
   37.2962   23.8474   39.1793 H   0  0  0  0  0  0  0  0  0  0  0  0
   45.0343   23.7393   35.3021 H   0  0  0  0  0  0  0  0  0  0  0  0
   43.7341   24.9895   35.4728 H   0  0  0  0  0  0  0  0  0  0  0  0
   45.3955   26.5351   39.7988 H   0  0  0  0  0  0  0  0  0  0  0  0
   47.5830   25.0542   39.1588 H   0  0  0  0  0  0  0  0  0  0  0  0
   46.6365   22.4670   36.7057 H   0  0  0  0  0  0  0  0  0  0  0  0
   47.2682   23.7884   35.7065 H   0  0  0  0  0  0  0  0  0  0  0  0
   48.1856   23.4074   38.5828 H   0  0  0  0  0  0  0  0  0  0  0  0
   48.9287   22.4713   37.2419 H   0  0  0  0  0  0  0  0  0  0  0  0
   49.0178   24.2653   37.2419 H   0  0  0  0  0  0  0  0  0  0  0  0
  1  6  1  0
  1  7  1  0
  2  1  2  0
  3  4  2  0
  3  2  1  0
  4  5  1  0
  5  6  2  0
  7 11  1  0
  8  9  1  0
  8  7  2  0
  9 10  2  0
 10 11  1  0
 12  3  1  0
 12 13  1  0
 13 17  1  0
 13 14  1  0
 14 15  2  0
 16 15  1  0
 17 16  2  0
 18 17  1  0
 18 19  1  0
  2 20  1  0
  5 21  1  0
  8 22  1  0
  9 23  1  0
 10 24  1  0
 12 25  1  0
 12 26  1  0
 15 27  1  0
 16 28  1  0
 18 29  1  0
 18 30  1  0
 19 31  1  0
 19 32  1  0
 19 33  1  0
M  ISO  8  20  14  21  14  22  14  23  14  24  14  25   8  26   8  27  14
M  ISO  6  28  14  29   8  30   8  31   8  32   8  33   8
M  END
>  <minimizedAffinity>  (1) 
-4.84741116

>  <minimizedRMSD>  (1) 
0.236456528

$$$$
