
     RDKit          3D

 44 49  0  0  0  0  0  0  0  0999 V2000
   44.9450   24.7790   37.1080 N   0  0  0  0  0  0  0  0  0  0  0  0
   44.5770   25.5660   38.1010 N   0  0  0  0  0  0  0  0  0  0  0  0
   45.5530   25.7900   38.9650 C   0  0  0  0  0  0  0  0  0  0  0  0
   46.6740   25.1070   38.5340 C   0  0  0  0  0  0  0  0  0  0  0  0
   46.2410   24.4780   37.3500 C   0  0  0  0  0  0  0  0  0  0  0  0
   47.1260   23.6080   36.5110 C   0  0  0  0  0  0  0  0  0  0  0  0
   47.8770   24.1800   35.4310 C   0  0  0  0  0  0  0  0  0  0  0  0
   48.7600   22.7390   34.7530 S   0  0  0  0  0  0  0  0  0  0  0  0
   47.9660   21.5900   36.0480 C   0  0  0  0  0  0  0  0  0  0  0  0
   47.3270   22.3000   36.6310 N   0  0  0  0  0  0  0  0  0  0  0  0
   48.1780   20.1630   36.1870 N   0  0  0  0  0  0  0  0  0  0  0  0
   49.3570   19.5610   36.0240 C   0  0  0  0  0  0  0  0  0  0  0  0
   49.2440   18.2340   36.2170 N   0  0  0  0  0  0  0  0  0  0  0  0
   47.9560   18.0060   36.5100 C   0  0  0  0  0  0  0  0  0  0  0  0
   47.2670   16.8280   36.8020 C   0  0  0  0  0  0  0  0  0  0  0  0
   45.9460   16.9410   37.0570 N   0  0  0  0  0  0  0  0  0  0  0  0
   45.2920   18.1230   37.0390 C   0  0  0  0  0  0  0  0  0  0  0  0
   45.9490   19.2840   36.7560 N   0  0  0  0  0  0  0  0  0  0  0  0
   47.2730   19.2180   36.4940 C   0  0  0  0  0  0  0  0  0  0  0  0
   44.1850   24.3080   35.9850 C   0  0  0  0  0  0  0  0  0  0  0  0
   41.0260   22.5110   37.0240 C   0  0  0  0  0  0  0  0  0  0  0  0
   41.9110   23.5040   36.6660 C   0  0  0  0  0  0  0  0  0  0  0  0
   43.2480   23.2040   36.3720 C   0  0  0  0  0  0  0  0  0  0  0  0
   43.6070   21.8930   36.4630 N   0  0  0  0  0  0  0  0  0  0  0  0
   42.7280   20.9300   36.8170 C   0  0  0  0  0  0  0  0  0  0  0  0
   41.4580   21.2710   37.0880 N   0  0  0  0  0  0  0  0  0  0  0  0
   39.6410   22.8920   37.3190 C   0  0  0  0  0  0  0  0  0  0  0  0
   38.6280   22.9220   36.3910 C   0  0  0  0  0  0  0  0  0  0  0  0
   37.5330   23.3250   37.0940 C   0  0  0  0  0  0  0  0  0  0  0  0
   37.8990   23.5260   38.4000 C   0  0  0  0  0  0  0  0  0  0  0  0
   39.1800   23.2490   38.4770 O   0  0  0  0  0  0  0  0  0  0  0  0
   45.4842   26.4120   39.8696 H   0  0  0  0  0  0  0  0  0  0  0  0
   47.6679   25.0644   39.0035 H   0  0  0  0  0  0  0  0  0  0  0  0
   47.9110   25.2272   35.0961 H   0  0  0  0  0  0  0  0  0  0  0  0
   50.2932   20.0782   35.7671 H   0  0  0  0  0  0  0  0  0  0  0  0
   47.7763   15.8532   36.8234 H   0  0  0  0  0  0  0  0  0  0  0  0
   44.2139   18.1493   37.2558 H   0  0  0  0  0  0  0  0  0  0  0  0
   44.8783   23.9341   35.2172 H   0  0  0  0  0  0  0  0  0  0  0  0
   43.5858   25.1468   35.6011 H   0  0  0  0  0  0  0  0  0  0  0  0
   41.5637   24.5462   36.6101 H   0  0  0  0  0  0  0  0  0  0  0  0
   43.0488   19.8798   36.8824 H   0  0  0  0  0  0  0  0  0  0  0  0
   38.6879   22.6758   35.3206 H   0  0  0  0  0  0  0  0  0  0  0  0
   36.5227   23.4658   36.6822 H   0  0  0  0  0  0  0  0  0  0  0  0
   37.2468   23.8550   39.2224 H   0  0  0  0  0  0  0  0  0  0  0  0
  1  5  1  0
  1  2  1  0
  2  3  2  0
  4  3  1  0
  5  4  2  0
  6 10  1  0
  6  5  1  0
  7  6  2  0
  8  7  1  0
  8  9  1  0
  9 11  1  0
  9 10  2  0
 11 19  1  0
 12 11  1  0
 12 13  2  0
 13 14  1  0
 14 15  2  0
 15 16  1  0
 17 16  2  0
 18 17  1  0
 19 14  1  0
 19 18  2  0
 20 23  1  0
 20  1  1  0
 21 26  1  0
 21 27  1  0
 22 21  2  0
 23 24  2  0
 23 22  1  0
 24 25  1  0
 25 26  2  0
 27 31  1  0
 28 29  1  0
 28 27  2  0
 29 30  2  0
 30 31  1  0
  3 32  1  0
  4 33  1  0
  7 34  1  0
 12 35  1  0
 15 36  1  0
 17 37  1  0
 20 38  1  0
 20 39  1  0
 22 40  1  0
 25 41  1  0
 28 42  1  0
 29 43  1  0
 30 44  1  0
M  ISO  8  32  14  33  14  34  14  35  14  36  14  37  14  38   8  39   8
M  ISO  5  40  14  41  14  42  14  43  14  44  14
M  END
>  <minimizedAffinity>  (1) 
-5.4496069

>  <minimizedRMSD>  (1) 
0.392059237

$$$$
