
     RDKit          3D

 46 50  0  0  0  0  0  0  0  0999 V2000
   44.9210   24.8530   37.1180 N   0  0  0  0  0  0  0  0  0  0  0  0
   44.6010   25.6750   38.1100 N   0  0  0  0  0  0  0  0  0  0  0  0
   45.5850   25.8550   38.9710 C   0  0  0  0  0  0  0  0  0  0  0  0
   46.6680   25.1090   38.5530 C   0  0  0  0  0  0  0  0  0  0  0  0
   46.2010   24.4890   37.3740 C   0  0  0  0  0  0  0  0  0  0  0  0
   47.0410   23.5630   36.5470 C   0  0  0  0  0  0  0  0  0  0  0  0
   48.0380   24.0900   35.6750 C   0  0  0  0  0  0  0  0  0  0  0  0
   48.7500   22.5820   34.9240 S   0  0  0  0  0  0  0  0  0  0  0  0
   47.5720   21.4840   35.9240 C   0  0  0  0  0  0  0  0  0  0  0  0
   46.9880   22.2370   36.5060 N   0  0  0  0  0  0  0  0  0  0  0  0
   47.4760   20.0300   35.9120 N   0  0  0  0  0  0  0  0  0  0  0  0
   46.4810   19.3900   36.5600 C   0  0  0  0  0  0  0  0  0  0  0  0
   46.4600   18.0100   36.5010 C   0  0  0  0  0  0  0  0  0  0  0  0
   45.4000   17.2250   37.1840 C   0  0  0  0  0  0  0  0  0  0  0  0
   47.4420   17.3240   35.7940 C   0  0  0  0  0  0  0  0  0  0  0  0
   47.4780   16.0520   35.7030 O   0  0  0  0  0  0  0  0  0  0  0  0
   48.4230   17.9960   35.1590 N   0  0  0  0  0  0  0  0  0  0  0  0
   48.4340   19.3510   35.2230 C   0  0  0  0  0  0  0  0  0  0  0  0
   49.3440   20.0310   34.6370 O   0  0  0  0  0  0  0  0  0  0  0  0
   44.1350   24.4160   36.0080 C   0  0  0  0  0  0  0  0  0  0  0  0
   41.0240   22.5150   37.0270 C   0  0  0  0  0  0  0  0  0  0  0  0
   41.8890   23.5340   36.6790 C   0  0  0  0  0  0  0  0  0  0  0  0
   43.2300   23.2790   36.3800 C   0  0  0  0  0  0  0  0  0  0  0  0
   43.6130   21.9760   36.4540 N   0  0  0  0  0  0  0  0  0  0  0  0
   42.7640   20.9830   36.7940 C   0  0  0  0  0  0  0  0  0  0  0  0
   41.4840   21.2850   37.0720 N   0  0  0  0  0  0  0  0  0  0  0  0
   39.6320   22.8600   37.3270 C   0  0  0  0  0  0  0  0  0  0  0  0
   38.6010   22.8070   36.3990 C   0  0  0  0  0  0  0  0  0  0  0  0
   37.5050   23.2060   37.1120 C   0  0  0  0  0  0  0  0  0  0  0  0
   37.8840   23.4850   38.4190 C   0  0  0  0  0  0  0  0  0  0  0  0
   39.1800   23.2580   38.4890 O   0  0  0  0  0  0  0  0  0  0  0  0
   45.5481   26.4907   39.8680 H   0  0  0  0  0  0  0  0  0  0  0  0
   47.6575   25.0191   39.0251 H   0  0  0  0  0  0  0  0  0  0  0  0
   48.3109   25.1408   35.4981 H   0  0  0  0  0  0  0  0  0  0  0  0
   45.7130   19.9476   37.1161 H   0  0  0  0  0  0  0  0  0  0  0  0
   45.5216   17.3150   38.2735 H   0  0  0  0  0  0  0  0  0  0  0  0
   44.4122   17.6111   36.8921 H   0  0  0  0  0  0  0  0  0  0  0  0
   45.4812   16.1675   36.8921 H   0  0  0  0  0  0  0  0  0  0  0  0
   49.1509   17.4899   34.6348 H   0  0  0  0  0  0  0  0  0  0  0  0
   44.8081   24.0866   35.2027 H   0  0  0  0  0  0  0  0  0  0  0  0
   43.5086   25.2585   35.6796 H   0  0  0  0  0  0  0  0  0  0  0  0
   41.5146   24.5675   36.6363 H   0  0  0  0  0  0  0  0  0  0  0  0
   43.1147   19.9415   36.8429 H   0  0  0  0  0  0  0  0  0  0  0  0
   38.6535   22.5134   35.3402 H   0  0  0  0  0  0  0  0  0  0  0  0
   36.4834   23.2925   36.7134 H   0  0  0  0  0  0  0  0  0  0  0  0
   37.2307   23.8279   39.2349 H   0  0  0  0  0  0  0  0  0  0  0  0
  1  5  1  0
  1  2  1  0
  2  3  2  0
  4  3  1  0
  5  4  2  0
  6  5  1  0
  7  6  2  0
  8  7  1  0
  8  9  1  0
  9 10  2  0
 10  6  1  0
 11  9  1  0
 11 12  1  0
 13 12  2  0
 13 14  1  0
 15 13  1  0
 16 15  2  0
 17 18  1  0
 17 15  1  0
 18 11  1  0
 19 18  2  0
 20 23  1  0
 20  1  1  0
 21 26  1  0
 21 27  1  0
 22 21  2  0
 23 24  2  0
 23 22  1  0
 24 25  1  0
 25 26  2  0
 27 31  1  0
 28 29  1  0
 28 27  2  0
 29 30  2  0
 30 31  1  0
  3 32  1  0
  4 33  1  0
  7 34  1  0
 12 35  1  0
 14 36  1  0
 14 37  1  0
 14 38  1  0
 17 39  1  0
 20 40  1  0
 20 41  1  0
 22 42  1  0
 25 43  1  0
 28 44  1  0
 29 45  1  0
 30 46  1  0
M  ISO  8  32  14  33  14  34  14  35  14  36   8  37   8  38   8  39   9
M  ISO  7  40   8  41   8  42  14  43  14  44  14  45  14  46  14
M  END
>  <minimizedAffinity>  (1) 
-5.3326149

>  <minimizedRMSD>  (1) 
0.379433542

$$$$
