
     RDKit          3D

 47 52  0  0  0  0  0  0  0  0999 V2000
   44.9300   24.8340   37.1820 N   0  0  0  0  0  0  0  0  0  0  0  0
   44.6770   25.5800   38.2460 N   0  0  0  0  0  0  0  0  0  0  0  0
   45.7020   25.6770   39.0630 C   0  0  0  0  0  0  0  0  0  0  0  0
   46.7440   24.9480   38.5310 C   0  0  0  0  0  0  0  0  0  0  0  0
   46.2150   24.4290   37.3370 C   0  0  0  0  0  0  0  0  0  0  0  0
   46.9890   23.5640   36.4090 C   0  0  0  0  0  0  0  0  0  0  0  0
   47.5070   24.1030   35.1740 C   0  0  0  0  0  0  0  0  0  0  0  0
   48.3550   22.6560   34.4340 S   0  0  0  0  0  0  0  0  0  0  0  0
   47.8700   21.5760   35.9080 C   0  0  0  0  0  0  0  0  0  0  0  0
   47.2980   22.2800   36.5570 N   0  0  0  0  0  0  0  0  0  0  0  0
   48.1700   20.1380   36.1570 N   0  0  0  0  0  0  0  0  0  0  0  0
   49.3760   19.5720   36.0010 C   0  0  0  0  0  0  0  0  0  0  0  0
   49.2230   18.2960   36.3200 N   0  0  0  0  0  0  0  0  0  0  0  0
   47.9530   18.1040   36.6590 C   0  0  0  0  0  0  0  0  0  0  0  0
   47.3550   16.9170   37.0610 C   0  0  0  0  0  0  0  0  0  0  0  0
   47.9400   15.8070   37.1700 O   0  0  0  0  0  0  0  0  0  0  0  0
   46.0280   16.9980   37.3530 N   0  0  0  0  0  0  0  0  0  0  0  0
   45.3000   18.1510   37.2670 C   0  0  0  0  0  0  0  0  0  0  0  0
   43.9080   18.1260   37.5980 N   0  0  0  0  0  0  0  0  0  0  0  0
   45.9280   19.2950   36.8670 N   0  0  0  0  0  0  0  0  0  0  0  0
   47.2390   19.2810   36.5650 C   0  0  0  0  0  0  0  0  0  0  0  0
   44.0830   24.4900   36.0740 C   0  0  0  0  0  0  0  0  0  0  0  0
   40.9670   22.5630   37.0380 C   0  0  0  0  0  0  0  0  0  0  0  0
   41.8300   23.5940   36.7250 C   0  0  0  0  0  0  0  0  0  0  0  0
   43.1720   23.3550   36.4090 C   0  0  0  0  0  0  0  0  0  0  0  0
   43.5580   22.0410   36.4350 N   0  0  0  0  0  0  0  0  0  0  0  0
   42.7060   21.0350   36.7440 C   0  0  0  0  0  0  0  0  0  0  0  0
   41.4300   21.3340   37.0370 N   0  0  0  0  0  0  0  0  0  0  0  0
   39.5750   22.8980   37.3570 C   0  0  0  0  0  0  0  0  0  0  0  0
   38.5450   22.8460   36.4260 C   0  0  0  0  0  0  0  0  0  0  0  0
   37.4470   23.2320   37.1550 C   0  0  0  0  0  0  0  0  0  0  0  0
   37.8240   23.4950   38.4510 C   0  0  0  0  0  0  0  0  0  0  0  0
   39.1230   23.2750   38.5140 O   0  0  0  0  0  0  0  0  0  0  0  0
   45.7244   26.2415   40.0068 H   0  0  0  0  0  0  0  0  0  0  0  0
   47.7534   24.8058   38.9444 H   0  0  0  0  0  0  0  0  0  0  0  0
   47.4158   25.1248   34.7770 H   0  0  0  0  0  0  0  0  0  0  0  0
   50.3027   20.0667   35.6747 H   0  0  0  0  0  0  0  0  0  0  0  0
   45.5447   16.1405   37.6563 H   0  0  0  0  0  0  0  0  0  0  0  0
   43.3486   18.9887   37.5371 H   0  0  0  0  0  0  0  0  0  0  0  0
   43.4655   17.2453   37.8971 H   0  0  0  0  0  0  0  0  0  0  0  0
   44.7128   24.2018   35.2194 H   0  0  0  0  0  0  0  0  0  0  0  0
   43.4647   25.3662   35.8290 H   0  0  0  0  0  0  0  0  0  0  0  0
   41.4538   24.6277   36.7240 H   0  0  0  0  0  0  0  0  0  0  0  0
   43.0529   19.9912   36.7548 H   0  0  0  0  0  0  0  0  0  0  0  0
   38.5964   22.5643   35.3639 H   0  0  0  0  0  0  0  0  0  0  0  0
   36.4230   23.3177   36.7624 H   0  0  0  0  0  0  0  0  0  0  0  0
   37.1711   23.8239   39.2729 H   0  0  0  0  0  0  0  0  0  0  0  0
  1  5  1  0
  1  2  1  0
  2  3  2  0
  4  3  1  0
  5  4  2  0
  6 10  1  0
  6  5  1  0
  7  6  2  0
  8  7  1  0
  8  9  1  0
  9 11  1  0
  9 10  2  0
 11 21  1  0
 12 11  1  0
 12 13  2  0
 13 14  1  0
 14 15  1  0
 15 16  2  0
 15 17  1  0
 18 17  1  0
 18 19  1  0
 20 18  2  0
 21 14  2  0
 21 20  1  0
 22 25  1  0
 22  1  1  0
 23 29  1  0
 24 23  2  0
 25 26  2  0
 25 24  1  0
 26 27  1  0
 27 28  2  0
 28 23  1  0
 29 33  1  0
 30 31  1  0
 30 29  2  0
 31 32  2  0
 32 33  1  0
  3 34  1  0
  4 35  1  0
  7 36  1  0
 12 37  1  0
 17 38  1  0
 19 39  1  0
 19 40  1  0
 22 41  1  0
 22 42  1  0
 24 43  1  0
 27 44  1  0
 30 45  1  0
 31 46  1  0
 32 47  1  0
M  ISO  8  34  14  35  14  36  14  37  14  38   9  41   8  42   8  43  14
M  ISO  4  44  14  45  14  46  14  47  14
M  END
>  <minimizedAffinity>  (1) 
-5.77496767

>  <minimizedRMSD>  (1) 
0.715087414

$$$$
