
     RDKit          3D

 40 44  0  0  0  0  0  0  0  0999 V2000
   44.2110   24.2920   35.9760 C   0  0  0  0  0  0  0  0  0  0  0  0
   41.0600   22.4710   37.0050 C   0  0  0  0  0  0  0  0  0  0  0  0
   41.9510   23.4800   36.6460 C   0  0  0  0  0  0  0  0  0  0  0  0
   43.2820   23.1910   36.3570 C   0  0  0  0  0  0  0  0  0  0  0  0
   43.6450   21.8780   36.4500 N   0  0  0  0  0  0  0  0  0  0  0  0
   42.7620   20.9130   36.8000 C   0  0  0  0  0  0  0  0  0  0  0  0
   41.4980   21.2410   37.0660 N   0  0  0  0  0  0  0  0  0  0  0  0
   39.6710   22.8540   37.2940 C   0  0  0  0  0  0  0  0  0  0  0  0
   38.6540   22.8620   36.3730 C   0  0  0  0  0  0  0  0  0  0  0  0
   37.5580   23.2750   37.0670 C   0  0  0  0  0  0  0  0  0  0  0  0
   37.9350   23.5040   38.3790 C   0  0  0  0  0  0  0  0  0  0  0  0
   39.2170   23.2330   38.4540 O   0  0  0  0  0  0  0  0  0  0  0  0
   44.9440   24.7860   37.1100 N   0  0  0  0  0  0  0  0  0  0  0  0
   44.5570   25.6000   38.0820 N   0  0  0  0  0  0  0  0  0  0  0  0
   45.5010   25.8390   38.9630 C   0  0  0  0  0  0  0  0  0  0  0  0
   46.6310   25.1440   38.5820 C   0  0  0  0  0  0  0  0  0  0  0  0
   46.2330   24.4890   37.4020 C   0  0  0  0  0  0  0  0  0  0  0  0
   47.1380   23.5980   36.6080 C   0  0  0  0  0  0  0  0  0  0  0  0
   48.1810   24.1500   35.8100 C   0  0  0  0  0  0  0  0  0  0  0  0
   48.9530   22.6590   35.0780 S   0  0  0  0  0  0  0  0  0  0  0  0
   47.7320   21.5370   35.9790 C   0  0  0  0  0  0  0  0  0  0  0  0
   47.1020   22.2710   36.5390 N   0  0  0  0  0  0  0  0  0  0  0  0
   47.5880   20.0640   35.9850 N   0  0  0  0  0  0  0  0  0  0  0  0
   46.5370   19.4490   36.5260 C   0  0  0  0  0  0  0  0  0  0  0  0
   46.8260   18.1200   36.3050 C   0  0  0  0  0  0  0  0  0  0  0  0
   48.0110   18.0050   35.6560 N   0  0  0  0  0  0  0  0  0  0  0  0
   48.4900   19.2650   35.4560 C   0  0  0  0  0  0  0  0  0  0  0  0
   44.9236   23.9143   35.2280 H   0  0  0  0  0  0  0  0  0  0  0  0
   43.6125   25.1197   35.5677 H   0  0  0  0  0  0  0  0  0  0  0  0
   41.5978   24.5202   36.5900 H   0  0  0  0  0  0  0  0  0  0  0  0
   43.0863   19.8639   36.8644 H   0  0  0  0  0  0  0  0  0  0  0  0
   38.7116   22.5936   35.3078 H   0  0  0  0  0  0  0  0  0  0  0  0
   36.5461   23.4045   36.6555 H   0  0  0  0  0  0  0  0  0  0  0  0
   37.2866   23.8464   39.1989 H   0  0  0  0  0  0  0  0  0  0  0  0
   45.4074   26.4817   39.8508 H   0  0  0  0  0  0  0  0  0  0  0  0
   47.6102   25.1102   39.0821 H   0  0  0  0  0  0  0  0  0  0  0  0
   48.4541   25.2062   35.6689 H   0  0  0  0  0  0  0  0  0  0  0  0
   45.6606   19.8904   37.0231 H   0  0  0  0  0  0  0  0  0  0  0  0
   46.1892   17.2766   36.6101 H   0  0  0  0  0  0  0  0  0  0  0  0
   49.4285   19.5523   34.9593 H   0  0  0  0  0  0  0  0  0  0  0  0
  1  4  1  0
  1 13  1  0
  2  7  1  0
  2  8  1  0
  3  2  2  0
  4  5  2  0
  4  3  1  0
  5  6  1  0
  6  7  2  0
  8 12  1  0
  9 10  1  0
  9  8  2  0
 10 11  2  0
 11 12  1  0
 13 17  1  0
 13 14  1  0
 14 15  2  0
 16 15  1  0
 17 16  2  0
 18 17  1  0
 19 18  2  0
 20 19  1  0
 20 21  1  0
 21 23  1  0
 21 22  2  0
 22 18  1  0
 23 24  1  0
 25 24  2  0
 26 25  1  0
 27 26  2  0
 27 23  1  0
  1 28  1  0
  1 29  1  0
  3 30  1  0
  6 31  1  0
  9 32  1  0
 10 33  1  0
 11 34  1  0
 15 35  1  0
 16 36  1  0
 19 37  1  0
 24 38  1  0
 25 39  1  0
 27 40  1  0
M  ISO  8  28   8  29   8  30  14  31  14  32  14  33  14  34  14  35  14
M  ISO  5  36  14  37  14  38  14  39  14  40  14
M  END
>  <minimizedAffinity>  (1) 
-5.16026449

>  <minimizedRMSD>  (1) 
0.208834738

$$$$
