
     RDKit          3D

 34 37  0  0  0  0  0  0  0  0999 V2000
   44.2220   24.2930   35.9820 C   0  0  0  0  0  0  0  0  0  0  0  0
   41.0640   22.4740   37.0030 C   0  0  0  0  0  0  0  0  0  0  0  0
   41.9480   23.4730   36.6500 C   0  0  0  0  0  0  0  0  0  0  0  0
   43.2880   23.1880   36.3630 C   0  0  0  0  0  0  0  0  0  0  0  0
   43.6460   21.8710   36.4570 N   0  0  0  0  0  0  0  0  0  0  0  0
   42.7640   20.9070   36.8060 C   0  0  0  0  0  0  0  0  0  0  0  0
   41.4960   21.2410   37.0690 N   0  0  0  0  0  0  0  0  0  0  0  0
   39.6750   22.8510   37.2890 C   0  0  0  0  0  0  0  0  0  0  0  0
   38.6570   22.8560   36.3540 C   0  0  0  0  0  0  0  0  0  0  0  0
   37.5620   23.2690   37.0680 C   0  0  0  0  0  0  0  0  0  0  0  0
   37.9260   23.4960   38.3720 C   0  0  0  0  0  0  0  0  0  0  0  0
   39.2180   23.2300   38.4610 O   0  0  0  0  0  0  0  0  0  0  0  0
   44.9640   24.7710   37.1090 N   0  0  0  0  0  0  0  0  0  0  0  0
   44.5800   25.5680   38.0880 N   0  0  0  0  0  0  0  0  0  0  0  0
   45.5400   25.7980   38.9670 C   0  0  0  0  0  0  0  0  0  0  0  0
   46.6730   25.1100   38.5660 C   0  0  0  0  0  0  0  0  0  0  0  0
   46.2570   24.4780   37.3900 C   0  0  0  0  0  0  0  0  0  0  0  0
   47.1540   23.5980   36.5730 C   0  0  0  0  0  0  0  0  0  0  0  0
   48.0710   24.1870   35.6300 C   0  0  0  0  0  0  0  0  0  0  0  0
   48.9030   22.7450   34.9180 S   0  0  0  0  0  0  0  0  0  0  0  0
   47.8830   21.5670   36.0060 C   0  0  0  0  0  0  0  0  0  0  0  0
   47.2410   22.2730   36.5840 N   0  0  0  0  0  0  0  0  0  0  0  0
   47.8410   19.6960   36.1820 S   0  0  0  0  0  0  0  0  0  0  0  0
   44.9262   23.9192   35.2241 H   0  0  0  0  0  0  0  0  0  0  0  0
   43.6235   25.1270   35.5866 H   0  0  0  0  0  0  0  0  0  0  0  0
   41.5931   24.5126   36.5931 H   0  0  0  0  0  0  0  0  0  0  0  0
   43.0867   19.8575   36.8729 H   0  0  0  0  0  0  0  0  0  0  0  0
   38.7124   22.5910   35.2878 H   0  0  0  0  0  0  0  0  0  0  0  0
   36.5489   23.3984   36.6594 H   0  0  0  0  0  0  0  0  0  0  0  0
   37.2688   23.8343   39.1866 H   0  0  0  0  0  0  0  0  0  0  0  0
   45.4537   26.4285   39.8642 H   0  0  0  0  0  0  0  0  0  0  0  0
   47.6585   25.0704   39.0531 H   0  0  0  0  0  0  0  0  0  0  0  0
   48.2271   25.2512   35.3994 H   0  0  0  0  0  0  0  0  0  0  0  0
   47.8335   19.3624   37.5107 H   0  0  0  0  0  0  0  0  0  0  0  0
  1  4  1  0
  1 13  1  0
  2  7  1  0
  2  8  1  0
  3  2  2  0
  4  5  2  0
  4  3  1  0
  5  6  1  0
  6  7  2  0
  8 12  1  0
  9 10  1  0
  9  8  2  0
 10 11  2  0
 11 12  1  0
 13 17  1  0
 13 14  1  0
 14 15  2  0
 16 15  1  0
 17 16  2  0
 18 22  1  0
 18 17  1  0
 19 18  2  0
 20 19  1  0
 20 21  1  0
 21 23  1  0
 21 22  2  0
  1 24  1  0
  1 25  1  0
  3 26  1  0
  6 27  1  0
  9 28  1  0
 10 29  1  0
 11 30  1  0
 15 31  1  0
 16 32  1  0
 19 33  1  0
 23 34  1  0
M  ISO  8  24   8  25   8  26  14  27  14  28  14  29  14  30  14  31  14
M  ISO  3  32  14  33  14  34  11
M  END
>  <minimizedAffinity>  (1) 
-4.95623684

>  <minimizedRMSD>  (1) 
0.0719883665

$$$$
