
     RDKit          3D

 36 39  0  0  0  0  0  0  0  0999 V2000
   44.2170   24.2830   35.9720 C   0  0  0  0  0  0  0  0  0  0  0  0
   41.0640   22.4680   37.0040 C   0  0  0  0  0  0  0  0  0  0  0  0
   41.9450   23.4710   36.6460 C   0  0  0  0  0  0  0  0  0  0  0  0
   43.2840   23.1800   36.3570 C   0  0  0  0  0  0  0  0  0  0  0  0
   43.6440   21.8720   36.4530 N   0  0  0  0  0  0  0  0  0  0  0  0
   42.7690   20.9030   36.8050 C   0  0  0  0  0  0  0  0  0  0  0  0
   41.4970   21.2430   37.0700 N   0  0  0  0  0  0  0  0  0  0  0  0
   39.6740   22.8500   37.2920 C   0  0  0  0  0  0  0  0  0  0  0  0
   38.6560   22.8550   36.3620 C   0  0  0  0  0  0  0  0  0  0  0  0
   37.5610   23.2710   37.0690 C   0  0  0  0  0  0  0  0  0  0  0  0
   37.9350   23.5020   38.3800 C   0  0  0  0  0  0  0  0  0  0  0  0
   39.2150   23.2310   38.4540 O   0  0  0  0  0  0  0  0  0  0  0  0
   44.9580   24.7640   37.0990 N   0  0  0  0  0  0  0  0  0  0  0  0
   44.5810   25.5640   38.0940 N   0  0  0  0  0  0  0  0  0  0  0  0
   45.5350   25.8000   38.9680 C   0  0  0  0  0  0  0  0  0  0  0  0
   46.6690   25.1130   38.5600 C   0  0  0  0  0  0  0  0  0  0  0  0
   46.2530   24.4750   37.3750 C   0  0  0  0  0  0  0  0  0  0  0  0
   47.1580   23.6030   36.5610 C   0  0  0  0  0  0  0  0  0  0  0  0
   48.0760   24.1850   35.6420 C   0  0  0  0  0  0  0  0  0  0  0  0
   48.9070   22.7240   34.9380 S   0  0  0  0  0  0  0  0  0  0  0  0
   47.8680   21.5620   36.0100 C   0  0  0  0  0  0  0  0  0  0  0  0
   47.2230   22.2760   36.5840 N   0  0  0  0  0  0  0  0  0  0  0  0
   47.8920   20.0190   36.0850 C   0  0  0  0  0  0  0  0  0  0  0  0
   44.9216   23.9069   35.2157 H   0  0  0  0  0  0  0  0  0  0  0  0
   43.6193   25.1155   35.5725 H   0  0  0  0  0  0  0  0  0  0  0  0
   41.5901   24.5105   36.5874 H   0  0  0  0  0  0  0  0  0  0  0  0
   43.0935   19.8542   36.8731 H   0  0  0  0  0  0  0  0  0  0  0  0
   38.7115   22.5863   35.2968 H   0  0  0  0  0  0  0  0  0  0  0  0
   36.5478   23.4006   36.6608 H   0  0  0  0  0  0  0  0  0  0  0  0
   37.2861   23.8455   39.1992 H   0  0  0  0  0  0  0  0  0  0  0  0
   45.4489   26.4311   39.8648 H   0  0  0  0  0  0  0  0  0  0  0  0
   47.6556   25.0755   39.0451 H   0  0  0  0  0  0  0  0  0  0  0  0
   48.2419   25.2483   35.4142 H   0  0  0  0  0  0  0  0  0  0  0  0
   47.8969   19.7032   37.1387 H   0  0  0  0  0  0  0  0  0  0  0  0
   47.0001   19.6137   35.5849 H   0  0  0  0  0  0  0  0  0  0  0  0
   48.7961   19.6416   35.5849 H   0  0  0  0  0  0  0  0  0  0  0  0
  1  4  1  0
  1 13  1  0
  2  7  1  0
  2  8  1  0
  3  2  2  0
  4  5  2  0
  4  3  1  0
  5  6  1  0
  6  7  2  0
  8 12  1  0
  9 10  1  0
  9  8  2  0
 10 11  2  0
 11 12  1  0
 13 17  1  0
 13 14  1  0
 14 15  2  0
 16 15  1  0
 17 16  2  0
 18 22  1  0
 18 17  1  0
 19 18  2  0
 20 19  1  0
 20 21  1  0
 21 23  1  0
 21 22  2  0
  1 24  1  0
  1 25  1  0
  3 26  1  0
  6 27  1  0
  9 28  1  0
 10 29  1  0
 11 30  1  0
 15 31  1  0
 16 32  1  0
 19 33  1  0
 23 34  1  0
 23 35  1  0
 23 36  1  0
M  ISO  8  24   8  25   8  26  14  27  14  28  14  29  14  30  14  31  14
M  ISO  5  32  14  33  14  34   8  35   8  36   8
M  END
>  <minimizedAffinity>  (1) 
-4.96252537

>  <minimizedRMSD>  (1) 
0.0753715113

$$$$
