
     RDKit          3D

 40 44  0  0  0  0  0  0  0  0999 V2000
   44.9710   24.7600   37.1310 N   0  0  0  0  0  0  0  0  0  0  0  0
   44.5840   25.5370   38.1260 N   0  0  0  0  0  0  0  0  0  0  0  0
   45.5470   25.7660   38.9990 C   0  0  0  0  0  0  0  0  0  0  0  0
   46.6830   25.1020   38.5810 C   0  0  0  0  0  0  0  0  0  0  0  0
   46.2750   24.4760   37.3930 C   0  0  0  0  0  0  0  0  0  0  0  0
   47.1720   23.6270   36.5620 C   0  0  0  0  0  0  0  0  0  0  0  0
   48.0630   24.2420   35.6030 C   0  0  0  0  0  0  0  0  0  0  0  0
   48.9150   22.7960   34.8730 S   0  0  0  0  0  0  0  0  0  0  0  0
   47.9350   21.6160   35.9740 C   0  0  0  0  0  0  0  0  0  0  0  0
   47.2870   22.3050   36.5670 N   0  0  0  0  0  0  0  0  0  0  0  0
   48.1000   20.1170   35.9460 C   0  0  0  0  0  0  0  0  0  0  0  0
   47.4060   19.1610   36.6570 C   0  0  0  0  0  0  0  0  0  0  0  0
   47.9610   17.9670   36.2470 C   0  0  0  0  0  0  0  0  0  0  0  0
   48.9220   18.2280   35.3510 N   0  0  0  0  0  0  0  0  0  0  0  0
   49.0130   19.5340   35.1620 N   0  0  0  0  0  0  0  0  0  0  0  0
   44.2310   24.2820   35.9950 C   0  0  0  0  0  0  0  0  0  0  0  0
   41.0700   22.4660   37.0040 C   0  0  0  0  0  0  0  0  0  0  0  0
   41.9600   23.4540   36.6570 C   0  0  0  0  0  0  0  0  0  0  0  0
   43.2950   23.1910   36.3670 C   0  0  0  0  0  0  0  0  0  0  0  0
   43.6540   21.8660   36.4550 N   0  0  0  0  0  0  0  0  0  0  0  0
   42.7700   20.9040   36.7970 C   0  0  0  0  0  0  0  0  0  0  0  0
   41.5030   21.2270   37.0630 N   0  0  0  0  0  0  0  0  0  0  0  0
   39.6850   22.8430   37.2900 C   0  0  0  0  0  0  0  0  0  0  0  0
   38.6610   22.8350   36.3750 C   0  0  0  0  0  0  0  0  0  0  0  0
   37.5690   23.2530   37.0700 C   0  0  0  0  0  0  0  0  0  0  0  0
   37.9400   23.5080   38.3820 C   0  0  0  0  0  0  0  0  0  0  0  0
   39.2220   23.2430   38.4490 O   0  0  0  0  0  0  0  0  0  0  0  0
   45.4593   26.3818   39.9063 H   0  0  0  0  0  0  0  0  0  0  0  0
   47.6711   25.0710   39.0635 H   0  0  0  0  0  0  0  0  0  0  0  0
   48.1952   25.3091   35.3710 H   0  0  0  0  0  0  0  0  0  0  0  0
   46.5955   19.3153   37.3845 H   0  0  0  0  0  0  0  0  0  0  0  0
   47.6642   16.9674   36.5972 H   0  0  0  0  0  0  0  0  0  0  0  0
   49.5023   17.5190   34.8804 H   0  0  0  0  0  0  0  0  0  0  0  0
   44.9385   23.9033   35.2427 H   0  0  0  0  0  0  0  0  0  0  0  0
   43.6396   25.1188   35.5950 H   0  0  0  0  0  0  0  0  0  0  0  0
   41.6029   24.4932   36.6066 H   0  0  0  0  0  0  0  0  0  0  0  0
   43.0944   19.8546   36.8562 H   0  0  0  0  0  0  0  0  0  0  0  0
   38.7125   22.5526   35.3131 H   0  0  0  0  0  0  0  0  0  0  0  0
   36.5557   23.3699   36.6582 H   0  0  0  0  0  0  0  0  0  0  0  0
   37.2919   23.8601   39.1981 H   0  0  0  0  0  0  0  0  0  0  0  0
  1  5  1  0
  1  2  1  0
  2  3  2  0
  4  3  1  0
  5  4  2  0
  6 10  1  0
  6  5  1  0
  7  6  2  0
  8  7  1  0
  8  9  1  0
  9 10  2  0
 11  9  1  0
 11 12  1  0
 13 12  2  0
 14 13  1  0
 15 14  1  0
 15 11  2  0
 16 19  1  0
 16  1  1  0
 17 22  1  0
 17 23  1  0
 18 17  2  0
 19 20  2  0
 19 18  1  0
 20 21  1  0
 21 22  2  0
 23 27  1  0
 24 25  1  0
 24 23  2  0
 25 26  2  0
 26 27  1  0
  3 28  1  0
  4 29  1  0
  7 30  1  0
 12 31  1  0
 13 32  1  0
 14 33  1  0
 16 34  1  0
 16 35  1  0
 18 36  1  0
 21 37  1  0
 24 38  1  0
 25 39  1  0
 26 40  1  0
M  ISO  8  28  14  29  14  30  14  31  14  32  14  33   9  34   8  35   8
M  ISO  5  36  14  37  14  38  14  39  14  40  14
M  END
>  <minimizedAffinity>  (1) 
-4.91247654

>  <minimizedRMSD>  (1) 
0.418391585

$$$$
