
     RDKit          3D

 42 45  0  0  0  0  0  0  0  0999 V2000
   44.2110   24.3090   35.9560 C   0  0  0  0  0  0  0  0  0  0  0  0
   41.0640   22.4820   37.0090 C   0  0  0  0  0  0  0  0  0  0  0  0
   41.9440   23.4910   36.6420 C   0  0  0  0  0  0  0  0  0  0  0  0
   43.2790   23.2000   36.3490 C   0  0  0  0  0  0  0  0  0  0  0  0
   43.6460   21.8890   36.4450 N   0  0  0  0  0  0  0  0  0  0  0  0
   42.7760   20.9130   36.8040 C   0  0  0  0  0  0  0  0  0  0  0  0
   41.5030   21.2480   37.0760 N   0  0  0  0  0  0  0  0  0  0  0  0
   39.6760   22.8540   37.3030 C   0  0  0  0  0  0  0  0  0  0  0  0
   38.6590   22.8520   36.3680 C   0  0  0  0  0  0  0  0  0  0  0  0
   37.5590   23.2560   37.0620 C   0  0  0  0  0  0  0  0  0  0  0  0
   37.9270   23.4900   38.3800 C   0  0  0  0  0  0  0  0  0  0  0  0
   39.2140   23.2290   38.4550 O   0  0  0  0  0  0  0  0  0  0  0  0
   44.9460   24.7960   37.0910 N   0  0  0  0  0  0  0  0  0  0  0  0
   44.5630   25.6100   38.0640 N   0  0  0  0  0  0  0  0  0  0  0  0
   45.5170   25.8430   38.9510 C   0  0  0  0  0  0  0  0  0  0  0  0
   46.6380   25.1420   38.5670 C   0  0  0  0  0  0  0  0  0  0  0  0
   46.2340   24.4900   37.3820 C   0  0  0  0  0  0  0  0  0  0  0  0
   47.1360   23.5950   36.5870 C   0  0  0  0  0  0  0  0  0  0  0  0
   48.0830   24.1570   35.6750 C   0  0  0  0  0  0  0  0  0  0  0  0
   48.8900   22.6700   35.0010 S   0  0  0  0  0  0  0  0  0  0  0  0
   47.8050   21.5310   36.0730 C   0  0  0  0  0  0  0  0  0  0  0  0
   47.1730   22.2700   36.6240 N   0  0  0  0  0  0  0  0  0  0  0  0
   47.9310   20.0450   36.0350 C   0  0  0  0  0  0  0  0  0  0  0  0
   48.8320   19.6250   37.1640 C   0  0  0  0  0  0  0  0  0  0  0  0
   46.5330   19.5200   36.3500 C   0  0  0  0  0  0  0  0  0  0  0  0
   44.9200   23.9325   35.2039 H   0  0  0  0  0  0  0  0  0  0  0  0
   43.6143   25.1370   35.5457 H   0  0  0  0  0  0  0  0  0  0  0  0
   41.5870   24.5297   36.5812 H   0  0  0  0  0  0  0  0  0  0  0  0
   43.1060   19.8658   36.8714 H   0  0  0  0  0  0  0  0  0  0  0  0
   38.7232   22.5844   35.3030 H   0  0  0  0  0  0  0  0  0  0  0  0
   36.5474   23.3768   36.6473 H   0  0  0  0  0  0  0  0  0  0  0  0
   37.2730   23.8264   39.1980 H   0  0  0  0  0  0  0  0  0  0  0  0
   45.4296   26.4848   39.8401 H   0  0  0  0  0  0  0  0  0  0  0  0
   47.6174   25.0999   39.0659 H   0  0  0  0  0  0  0  0  0  0  0  0
   48.2747   25.2146   35.4409 H   0  0  0  0  0  0  0  0  0  0  0  0
   48.3236   19.6803   35.0743 H   0  0  0  0  0  0  0  0  0  0  0  0
   48.3461   19.8515   38.1245 H   0  0  0  0  0  0  0  0  0  0  0  0
   49.0249   18.5441   37.0965 H   0  0  0  0  0  0  0  0  0  0  0  0
   49.7838   20.1722   37.0965 H   0  0  0  0  0  0  0  0  0  0  0  0
   46.3975   19.4691   37.4404 H   0  0  0  0  0  0  0  0  0  0  0  0
   45.7812   20.1971   35.9183 H   0  0  0  0  0  0  0  0  0  0  0  0
   46.4127   18.5154   35.9183 H   0  0  0  0  0  0  0  0  0  0  0  0
  1  4  1  0
  1 13  1  0
  2  7  1  0
  2  8  1  0
  3  2  2  0
  4  5  2  0
  4  3  1  0
  5  6  1  0
  6  7  2  0
  8 12  1  0
  9 10  1  0
  9  8  2  0
 10 11  2  0
 11 12  1  0
 13 17  1  0
 13 14  1  0
 14 15  2  0
 16 15  1  0
 17 16  2  0
 18 22  1  0
 18 17  1  0
 19 18  2  0
 20 19  1  0
 20 21  1  0
 21 22  2  0
 23 21  1  0
 23 25  1  0
 23 24  1  0
  1 26  1  0
  1 27  1  0
  3 28  1  0
  6 29  1  0
  9 30  1  0
 10 31  1  0
 11 32  1  0
 15 33  1  0
 16 34  1  0
 19 35  1  0
 23 36  1  0
 24 37  1  0
 24 38  1  0
 24 39  1  0
 25 40  1  0
 25 41  1  0
 25 42  1  0
M  ISO  8  26   8  27   8  28  14  29  14  30  14  31  14  32  14  33  14
M  ISO  8  34  14  35  14  36   8  37   8  38   8  39   8  40   8  41   8
M  ISO  1  42   8
M  END
>  <minimizedAffinity>  (1) 
-4.94050264

>  <minimizedRMSD>  (1) 
0.326055914

$$$$
