
     RDKit          3D

 50 54  0  0  0  0  0  0  0  0999 V2000
   44.8970   24.8640   37.1460 N   0  0  0  0  0  0  0  0  0  0  0  0
   44.5850   25.6370   38.1900 N   0  0  0  0  0  0  0  0  0  0  0  0
   45.5830   25.8140   39.0220 C   0  0  0  0  0  0  0  0  0  0  0  0
   46.6750   25.1190   38.5360 C   0  0  0  0  0  0  0  0  0  0  0  0
   46.1930   24.5320   37.3430 C   0  0  0  0  0  0  0  0  0  0  0  0
   47.0370   23.6680   36.4540 C   0  0  0  0  0  0  0  0  0  0  0  0
   47.7260   24.2340   35.3430 C   0  0  0  0  0  0  0  0  0  0  0  0
   48.5740   22.7650   34.6460 S   0  0  0  0  0  0  0  0  0  0  0  0
   47.8490   21.6380   35.9800 C   0  0  0  0  0  0  0  0  0  0  0  0
   47.2460   22.3710   36.5720 N   0  0  0  0  0  0  0  0  0  0  0  0
   47.7030   25.5980   34.9420 N   0  0  0  0  0  0  0  0  0  0  0  0
   46.8290   26.0560   33.8780 C   0  0  0  0  0  0  0  0  0  0  0  0
   45.9980   27.1880   34.4760 C   0  0  0  0  0  0  0  0  0  0  0  0
   46.9040   28.3140   34.5830 N   0  0  0  0  0  0  0  0  0  0  0  0
   48.2880   27.9010   34.6660 C   0  0  0  0  0  0  0  0  0  0  0  0
   48.4970   26.6610   35.5080 C   0  0  0  0  0  0  0  0  0  0  0  0
   48.1400   20.1730   36.0370 C   0  0  0  0  0  0  0  0  0  0  0  0
   47.9460   19.5800   34.7930 F   0  0  0  0  0  0  0  0  0  0  0  0
   47.2370   19.6580   36.9420 F   0  0  0  0  0  0  0  0  0  0  0  0
   49.4130   19.9220   36.5400 F   0  0  0  0  0  0  0  0  0  0  0  0
   44.0970   24.4330   36.0230 C   0  0  0  0  0  0  0  0  0  0  0  0
   40.9950   22.5220   37.0350 C   0  0  0  0  0  0  0  0  0  0  0  0
   41.8440   23.5400   36.6930 C   0  0  0  0  0  0  0  0  0  0  0  0
   43.1940   23.3000   36.3940 C   0  0  0  0  0  0  0  0  0  0  0  0
   43.5980   22.0040   36.4650 N   0  0  0  0  0  0  0  0  0  0  0  0
   42.7530   21.0050   36.8030 C   0  0  0  0  0  0  0  0  0  0  0  0
   41.4700   21.3000   37.0810 N   0  0  0  0  0  0  0  0  0  0  0  0
   39.6040   22.8460   37.3370 C   0  0  0  0  0  0  0  0  0  0  0  0
   38.5780   22.8010   36.4160 C   0  0  0  0  0  0  0  0  0  0  0  0
   37.4660   23.1780   37.1280 C   0  0  0  0  0  0  0  0  0  0  0  0
   37.8440   23.4330   38.4330 C   0  0  0  0  0  0  0  0  0  0  0  0
   39.1520   23.2170   38.5070 O   0  0  0  0  0  0  0  0  0  0  0  0
   45.5561   26.4112   39.9454 H   0  0  0  0  0  0  0  0  0  0  0  0
   47.6811   25.0410   38.9739 H   0  0  0  0  0  0  0  0  0  0  0  0
   46.1750   25.2380   33.5415 H   0  0  0  0  0  0  0  0  0  0  0  0
   47.4024   26.3953   33.0028 H   0  0  0  0  0  0  0  0  0  0  0  0
   45.1529   27.4351   33.8167 H   0  0  0  0  0  0  0  0  0  0  0  0
   45.5712   26.9116   35.4514 H   0  0  0  0  0  0  0  0  0  0  0  0
   46.7866   28.9132   33.7535 H   0  0  0  0  0  0  0  0  0  0  0  0
   48.6523   27.6967   33.6484 H   0  0  0  0  0  0  0  0  0  0  0  0
   48.8419   28.7188   35.1502 H   0  0  0  0  0  0  0  0  0  0  0  0
   48.1782   26.8545   36.5428 H   0  0  0  0  0  0  0  0  0  0  0  0
   49.5605   26.3801   35.5167 H   0  0  0  0  0  0  0  0  0  0  0  0
   44.7654   24.1064   35.2128 H   0  0  0  0  0  0  0  0  0  0  0  0
   43.4729   25.2792   35.6997 H   0  0  0  0  0  0  0  0  0  0  0  0
   41.4592   24.5697   36.6516 H   0  0  0  0  0  0  0  0  0  0  0  0
   43.1091   19.9653   36.8502 H   0  0  0  0  0  0  0  0  0  0  0  0
   38.6372   22.5256   35.3527 H   0  0  0  0  0  0  0  0  0  0  0  0
   36.4452   23.2629   36.7270 H   0  0  0  0  0  0  0  0  0  0  0  0
   37.1862   23.7539   39.2541 H   0  0  0  0  0  0  0  0  0  0  0  0
  1  5  1  0
  1  2  1  0
  2  3  2  0
  4  3  1  0
  5  4  2  0
  6 10  1  0
  6  5  1  0
  7  6  2  0
  8  7  1  0
  8  9  1  0
  9 17  1  0
  9 10  2  0
 11  7  1  0
 11 16  1  0
 12 13  1  0
 12 11  1  0
 13 14  1  0
 14 15  1  0
 15 16  1  0
 17 20  1  0
 17 19  1  0
 18 17  1  0
 21 24  1  0
 21  1  1  0
 22 27  1  0
 22 28  1  0
 23 22  2  0
 24 25  2  0
 24 23  1  0
 25 26  1  0
 26 27  2  0
 28 32  1  0
 29 30  1  0
 29 28  2  0
 30 31  2  0
 31 32  1  0
  3 33  1  0
  4 34  1  0
 12 35  1  0
 12 36  1  0
 13 37  1  0
 13 38  1  0
 14 39  1  0
 15 40  1  0
 15 41  1  0
 16 42  1  0
 16 43  1  0
 21 44  1  0
 21 45  1  0
 23 46  1  0
 26 47  1  0
 29 48  1  0
 30 49  1  0
 31 50  1  0
M  ISO  8  33  14  34  14  35  13  36  13  37  13  38  13  39   5  40  13
M  ISO  8  41  13  42  13  43  13  44   8  45   8  46  14  47  14  48  14
M  ISO  2  49  14  50  14
M  END
>  <minimizedAffinity>  (1) 
-5.27333593

>  <minimizedRMSD>  (1) 
0.521232963

$$$$
