
     RDKit          3D

 43 47  0  0  0  0  0  0  0  0999 V2000
   44.8360   24.8500   37.1760 N   0  0  0  0  0  0  0  0  0  0  0  0
   44.2760   25.6120   38.0940 N   0  0  0  0  0  0  0  0  0  0  0  0
   45.1190   25.9990   39.0270 C   0  0  0  0  0  0  0  0  0  0  0  0
   46.3470   25.4650   38.7300 C   0  0  0  0  0  0  0  0  0  0  0  0
   46.1370   24.7360   37.5430 C   0  0  0  0  0  0  0  0  0  0  0  0
   47.2050   23.9730   36.8350 C   0  0  0  0  0  0  0  0  0  0  0  0
   48.2540   24.6580   36.1740 C   0  0  0  0  0  0  0  0  0  0  0  0
   49.2490   23.2780   35.4960 S   0  0  0  0  0  0  0  0  0  0  0  0
   48.0630   21.9870   36.2300 C   0  0  0  0  0  0  0  0  0  0  0  0
   47.3170   22.6660   36.7290 N   0  0  0  0  0  0  0  0  0  0  0  0
   48.5380   26.0240   36.0240 N   0  0  0  0  0  0  0  0  0  0  0  0
   49.4090   26.6140   36.8840 C   0  0  0  0  0  0  0  0  0  0  0  0
   49.5190   27.9490   36.5310 C   0  0  0  0  0  0  0  0  0  0  0  0
   48.7170   28.1660   35.4580 N   0  0  0  0  0  0  0  0  0  0  0  0
   48.1210   26.9890   35.1540 C   0  0  0  0  0  0  0  0  0  0  0  0
   48.2670   20.5350   36.0630 C   0  0  0  0  0  0  0  0  0  0  0  0
   48.1110   20.1470   34.7460 F   0  0  0  0  0  0  0  0  0  0  0  0
   47.2810   19.9360   36.8290 F   0  0  0  0  0  0  0  0  0  0  0  0
   49.4860   20.1210   36.5950 F   0  0  0  0  0  0  0  0  0  0  0  0
   44.2520   24.2300   36.0000 C   0  0  0  0  0  0  0  0  0  0  0  0
   41.0750   22.4440   37.0010 C   0  0  0  0  0  0  0  0  0  0  0  0
   41.9700   23.4360   36.6560 C   0  0  0  0  0  0  0  0  0  0  0  0
   43.3020   23.1430   36.3710 C   0  0  0  0  0  0  0  0  0  0  0  0
   43.6540   21.8210   36.4570 N   0  0  0  0  0  0  0  0  0  0  0  0
   42.7690   20.8650   36.7960 C   0  0  0  0  0  0  0  0  0  0  0  0
   41.4960   21.2100   37.0590 N   0  0  0  0  0  0  0  0  0  0  0  0
   39.6860   22.8340   37.2860 C   0  0  0  0  0  0  0  0  0  0  0  0
   38.6760   22.8410   36.3480 C   0  0  0  0  0  0  0  0  0  0  0  0
   37.5790   23.2630   37.0470 C   0  0  0  0  0  0  0  0  0  0  0  0
   37.9360   23.4950   38.3480 C   0  0  0  0  0  0  0  0  0  0  0  0
   39.2260   23.2170   38.4270 O   0  0  0  0  0  0  0  0  0  0  0  0
   44.8814   26.6370   39.8910 H   0  0  0  0  0  0  0  0  0  0  0  0
   47.2853   25.5801   39.2925 H   0  0  0  0  0  0  0  0  0  0  0  0
   49.9341   26.1189   37.7141 H   0  0  0  0  0  0  0  0  0  0  0  0
   50.1461   28.7009   37.0323 H   0  0  0  0  0  0  0  0  0  0  0  0
   47.4085   26.8341   34.3304 H   0  0  0  0  0  0  0  0  0  0  0  0
   45.0573   23.8057   35.3824 H   0  0  0  0  0  0  0  0  0  0  0  0
   43.6963   24.9994   35.4439 H   0  0  0  0  0  0  0  0  0  0  0  0
   41.6249   24.4792   36.6050 H   0  0  0  0  0  0  0  0  0  0  0  0
   43.0837   19.8128   36.8573 H   0  0  0  0  0  0  0  0  0  0  0  0
   38.7380   22.5699   35.2837 H   0  0  0  0  0  0  0  0  0  0  0  0
   36.5697   23.3951   36.6299 H   0  0  0  0  0  0  0  0  0  0  0  0
   37.2825   23.8421   39.1620 H   0  0  0  0  0  0  0  0  0  0  0  0
  1  5  1  0
  1  2  1  0
  2  3  2  0
  4  3  1  0
  5  4  2  0
  6  5  1  0
  7  6  2  0
  8  7  1  0
  8  9  1  0
  9 10  2  0
 10  6  1  0
 11  7  1  0
 11 12  1  0
 13 12  2  0
 14 13  1  0
 15 14  2  0
 15 11  1  0
 16  9  1  0
 16 19  1  0
 16 18  1  0
 17 16  1  0
 20 23  1  0
 20  1  1  0
 21 26  1  0
 21 27  1  0
 22 21  2  0
 23 24  2  0
 23 22  1  0
 24 25  1  0
 25 26  2  0
 27 31  1  0
 28 29  1  0
 28 27  2  0
 29 30  2  0
 30 31  1  0
  3 32  1  0
  4 33  1  0
 12 34  1  0
 13 35  1  0
 15 36  1  0
 20 37  1  0
 20 38  1  0
 22 39  1  0
 25 40  1  0
 28 41  1  0
 29 42  1  0
 30 43  1  0
M  ISO  8  32  14  33  14  34  14  35  14  36  14  37   8  38   8  39  14
M  ISO  4  40  14  41  14  42  14  43  14
M  END
>  <minimizedAffinity>  (1) 
-5.25584555

>  <minimizedRMSD>  (1) 
0.551668763

$$$$
