
     RDKit          3D

 45 48  0  0  0  0  0  0  0  0999 V2000
   44.2200   24.3050   36.0040 C   0  0  0  0  0  0  0  0  0  0  0  0
   41.0670   22.4810   36.9900 C   0  0  0  0  0  0  0  0  0  0  0  0
   41.9500   23.4850   36.6510 C   0  0  0  0  0  0  0  0  0  0  0  0
   43.2870   23.2050   36.3680 C   0  0  0  0  0  0  0  0  0  0  0  0
   43.6550   21.8950   36.4480 N   0  0  0  0  0  0  0  0  0  0  0  0
   42.7840   20.9170   36.7810 C   0  0  0  0  0  0  0  0  0  0  0  0
   41.5070   21.2440   37.0440 N   0  0  0  0  0  0  0  0  0  0  0  0
   39.6770   22.8470   37.2740 C   0  0  0  0  0  0  0  0  0  0  0  0
   38.6600   22.8380   36.3310 C   0  0  0  0  0  0  0  0  0  0  0  0
   37.5600   23.2470   37.0560 C   0  0  0  0  0  0  0  0  0  0  0  0
   37.9270   23.4820   38.3640 C   0  0  0  0  0  0  0  0  0  0  0  0
   39.2270   23.2230   38.4430 O   0  0  0  0  0  0  0  0  0  0  0  0
   44.8980   24.8440   37.1650 N   0  0  0  0  0  0  0  0  0  0  0  0
   44.4440   25.6340   38.1230 N   0  0  0  0  0  0  0  0  0  0  0  0
   45.3500   25.9250   39.0280 C   0  0  0  0  0  0  0  0  0  0  0  0
   46.5100   25.2940   38.6720 C   0  0  0  0  0  0  0  0  0  0  0  0
   46.1900   24.6070   37.4720 C   0  0  0  0  0  0  0  0  0  0  0  0
   47.1640   23.7720   36.7160 C   0  0  0  0  0  0  0  0  0  0  0  0
   48.1280   24.3770   35.8810 C   0  0  0  0  0  0  0  0  0  0  0  0
   49.0280   22.9150   35.2250 S   0  0  0  0  0  0  0  0  0  0  0  0
   47.9290   21.7210   36.2100 C   0  0  0  0  0  0  0  0  0  0  0  0
   47.2610   22.4520   36.7160 N   0  0  0  0  0  0  0  0  0  0  0  0
   48.1130   20.2580   36.1470 C   0  0  0  0  0  0  0  0  0  0  0  0
   48.1000   19.7840   34.8590 F   0  0  0  0  0  0  0  0  0  0  0  0
   47.0370   19.7320   36.8580 F   0  0  0  0  0  0  0  0  0  0  0  0
   49.2580   19.8500   36.8370 F   0  0  0  0  0  0  0  0  0  0  0  0
   48.4280   25.7670   35.5460 C   0  0  0  0  0  0  0  0  0  0  0  0
   49.1150   26.5220   36.6360 C   0  0  0  0  0  0  0  0  0  0  0  0
   47.2390   26.4780   34.9780 C   0  0  0  0  0  0  0  0  0  0  0  0
   44.9719   23.9159   35.3017 H   0  0  0  0  0  0  0  0  0  0  0  0
   43.6316   25.1140   35.5465 H   0  0  0  0  0  0  0  0  0  0  0  0
   41.5937   24.5246   36.6030 H   0  0  0  0  0  0  0  0  0  0  0  0
   43.1149   19.8694   36.8360 H   0  0  0  0  0  0  0  0  0  0  0  0
   38.7167   22.5702   35.2656 H   0  0  0  0  0  0  0  0  0  0  0  0
   36.5441   23.3674   36.6518 H   0  0  0  0  0  0  0  0  0  0  0  0
   37.2719   23.8179   39.1813 H   0  0  0  0  0  0  0  0  0  0  0  0
   45.2025   26.5615   39.9129 H   0  0  0  0  0  0  0  0  0  0  0  0
   47.4757   25.3144   39.1984 H   0  0  0  0  0  0  0  0  0  0  0  0
   49.1767   25.7268   34.7411 H   0  0  0  0  0  0  0  0  0  0  0  0
   48.7742   26.1475   37.6125 H   0  0  0  0  0  0  0  0  0  0  0  0
   50.2027   26.3829   36.5492 H   0  0  0  0  0  0  0  0  0  0  0  0
   48.8741   27.5918   36.5492 H   0  0  0  0  0  0  0  0  0  0  0  0
   46.6102   26.8540   35.7985 H   0  0  0  0  0  0  0  0  0  0  0  0
   47.5776   27.3220   34.3591 H   0  0  0  0  0  0  0  0  0  0  0  0
   46.6557   25.7803   34.3591 H   0  0  0  0  0  0  0  0  0  0  0  0
  1  4  1  0
  1 13  1  0
  2  7  1  0
  2  8  1  0
  3  2  2  0
  4  5  2  0
  4  3  1  0
  5  6  1  0
  6  7  2  0
  8 12  1  0
  9 10  1  0
  9  8  2  0
 10 11  2  0
 11 12  1  0
 13 17  1  0
 13 14  1  0
 14 15  2  0
 16 15  1  0
 17 16  2  0
 18 17  1  0
 19 18  2  0
 20 19  1  0
 20 21  1  0
 21 22  2  0
 22 18  1  0
 23 21  1  0
 23 26  1  0
 23 25  1  0
 24 23  1  0
 27 19  1  0
 27 28  1  0
 29 27  1  0
  1 30  1  0
  1 31  1  0
  3 32  1  0
  6 33  1  0
  9 34  1  0
 10 35  1  0
 11 36  1  0
 15 37  1  0
 16 38  1  0
 27 39  1  0
 28 40  1  0
 28 41  1  0
 28 42  1  0
 29 43  1  0
 29 44  1  0
 29 45  1  0
M  ISO  8  30   8  31   8  32  14  33  14  34  14  35  14  36  14  37  14
M  ISO  8  38  14  39   8  40   8  41   8  42   8  43   8  44   8  45   8
M  END
>  <minimizedAffinity>  (1) 
-5.04235411

>  <minimizedRMSD>  (1) 
0.459175646

$$$$
