
     RDKit          3D

 37 40  0  0  0  0  0  0  0  0999 V2000
   44.1290   24.4640   36.0550 C   0  0  0  0  0  0  0  0  0  0  0  0
   41.0240   22.5400   37.0300 C   0  0  0  0  0  0  0  0  0  0  0  0
   41.8820   23.5590   36.7030 C   0  0  0  0  0  0  0  0  0  0  0  0
   43.2220   23.3190   36.4080 C   0  0  0  0  0  0  0  0  0  0  0  0
   43.6240   22.0210   36.4630 N   0  0  0  0  0  0  0  0  0  0  0  0
   42.7770   21.0170   36.7850 C   0  0  0  0  0  0  0  0  0  0  0  0
   41.4950   21.3160   37.0600 N   0  0  0  0  0  0  0  0  0  0  0  0
   39.6290   22.8580   37.3300 C   0  0  0  0  0  0  0  0  0  0  0  0
   38.6050   22.8090   36.4030 C   0  0  0  0  0  0  0  0  0  0  0  0
   37.4980   23.1790   37.1190 C   0  0  0  0  0  0  0  0  0  0  0  0
   37.8640   23.4350   38.4190 C   0  0  0  0  0  0  0  0  0  0  0  0
   39.1680   23.2230   38.4890 O   0  0  0  0  0  0  0  0  0  0  0  0
   44.9280   24.8710   37.1900 N   0  0  0  0  0  0  0  0  0  0  0  0
   44.6130   25.6390   38.2190 N   0  0  0  0  0  0  0  0  0  0  0  0
   45.6030   25.7960   39.0740 C   0  0  0  0  0  0  0  0  0  0  0  0
   46.6810   25.0860   38.6050 C   0  0  0  0  0  0  0  0  0  0  0  0
   46.2110   24.5130   37.4060 C   0  0  0  0  0  0  0  0  0  0  0  0
   47.0520   23.6380   36.5300 C   0  0  0  0  0  0  0  0  0  0  0  0
   47.8460   24.2070   35.4970 C   0  0  0  0  0  0  0  0  0  0  0  0
   48.6420   22.7420   34.7640 S   0  0  0  0  0  0  0  0  0  0  0  0
   47.7710   21.5870   35.9790 C   0  0  0  0  0  0  0  0  0  0  0  0
   47.1770   22.3280   36.5770 N   0  0  0  0  0  0  0  0  0  0  0  0
   47.9610   20.1140   35.9720 C   0  0  0  0  0  0  0  0  0  0  0  0
   47.6940   19.5690   34.7410 F   0  0  0  0  0  0  0  0  0  0  0  0
   47.0580   19.6200   36.9070 F   0  0  0  0  0  0  0  0  0  0  0  0
   49.2370   19.7620   36.4200 F   0  0  0  0  0  0  0  0  0  0  0  0
   47.9580   25.9620   35.0990 S   0  0  0  0  0  0  0  0  0  0  0  0
   44.7979   24.1528   35.2391 H   0  0  0  0  0  0  0  0  0  0  0  0
   43.5070   25.3166   35.7447 H   0  0  0  0  0  0  0  0  0  0  0  0
   41.5025   24.5910   36.6730 H   0  0  0  0  0  0  0  0  0  0  0  0
   43.1299   19.9758   36.8213 H   0  0  0  0  0  0  0  0  0  0  0  0
   38.6652   22.5365   35.3390 H   0  0  0  0  0  0  0  0  0  0  0  0
   36.4771   23.2588   36.7173 H   0  0  0  0  0  0  0  0  0  0  0  0
   37.2033   23.7532   39.2389 H   0  0  0  0  0  0  0  0  0  0  0  0
   45.5717   26.3902   39.9992 H   0  0  0  0  0  0  0  0  0  0  0  0
   47.6781   24.9875   39.0589 H   0  0  0  0  0  0  0  0  0  0  0  0
   48.0045   26.6910   36.2580 H   0  0  0  0  0  0  0  0  0  0  0  0
  1  4  1  0
  1 13  1  0
  2  7  1  0
  2  8  1  0
  3  2  2  0
  4  5  2  0
  4  3  1  0
  5  6  1  0
  6  7  2  0
  8 12  1  0
  9 10  1  0
  9  8  2  0
 10 11  2  0
 11 12  1  0
 13 17  1  0
 13 14  1  0
 14 15  2  0
 16 15  1  0
 17 16  2  0
 18 22  1  0
 18 17  1  0
 19 18  2  0
 20 19  1  0
 20 21  1  0
 21 22  2  0
 23 21  1  0
 23 26  1  0
 23 25  1  0
 24 23  1  0
 27 19  1  0
  1 28  1  0
  1 29  1  0
  3 30  1  0
  6 31  1  0
  9 32  1  0
 10 33  1  0
 11 34  1  0
 15 35  1  0
 16 36  1  0
 27 37  1  0
M  ISO  8  28   8  29   8  30  14  31  14  32  14  33  14  34  14  35  14
M  ISO  2  36  14  37  11
M  END
>  <minimizedAffinity>  (1) 
-4.99976492

>  <minimizedRMSD>  (1) 
0.171119913

$$$$
