
     RDKit          3D

 41 45  0  0  0  0  0  0  0  0999 V2000
   44.9200   24.8370   37.2150 N   0  0  0  0  0  0  0  0  0  0  0  0
   44.5850   25.5840   38.2480 N   0  0  0  0  0  0  0  0  0  0  0  0
   45.5620   25.7630   39.1080 C   0  0  0  0  0  0  0  0  0  0  0  0
   46.6640   25.0850   38.6320 C   0  0  0  0  0  0  0  0  0  0  0  0
   46.2230   24.5100   37.4320 C   0  0  0  0  0  0  0  0  0  0  0  0
   47.0840   23.6670   36.5470 C   0  0  0  0  0  0  0  0  0  0  0  0
   47.8590   24.2850   35.5120 C   0  0  0  0  0  0  0  0  0  0  0  0
   48.6960   22.8470   34.7580 S   0  0  0  0  0  0  0  0  0  0  0  0
   47.8600   21.6570   35.9630 C   0  0  0  0  0  0  0  0  0  0  0  0
   47.2480   22.3580   36.5750 N   0  0  0  0  0  0  0  0  0  0  0  0
   47.9410   25.6850   35.1740 C   0  0  0  0  0  0  0  0  0  0  0  0
   47.2520   26.0960   34.0980 N   0  0  0  0  0  0  0  0  0  0  0  0
   47.4140   27.3670   33.9130 O   0  0  0  0  0  0  0  0  0  0  0  0
   48.2070   27.7960   34.8620 C   0  0  0  0  0  0  0  0  0  0  0  0
   48.5510   26.7700   35.6620 N   0  0  0  0  0  0  0  0  0  0  0  0
   48.1000   20.1840   35.9290 C   0  0  0  0  0  0  0  0  0  0  0  0
   47.6990   19.6350   34.7280 F   0  0  0  0  0  0  0  0  0  0  0  0
   47.3330   19.6670   36.9600 F   0  0  0  0  0  0  0  0  0  0  0  0
   49.4340   19.8800   36.2230 F   0  0  0  0  0  0  0  0  0  0  0  0
   44.1360   24.4150   36.0660 C   0  0  0  0  0  0  0  0  0  0  0  0
   41.0240   22.5150   37.0330 C   0  0  0  0  0  0  0  0  0  0  0  0
   41.8860   23.5390   36.7110 C   0  0  0  0  0  0  0  0  0  0  0  0
   43.2220   23.2870   36.4120 C   0  0  0  0  0  0  0  0  0  0  0  0
   43.6170   21.9720   36.4560 N   0  0  0  0  0  0  0  0  0  0  0  0
   42.7570   20.9850   36.7740 C   0  0  0  0  0  0  0  0  0  0  0  0
   41.4780   21.2930   37.0530 N   0  0  0  0  0  0  0  0  0  0  0  0
   39.6220   22.8530   37.3390 C   0  0  0  0  0  0  0  0  0  0  0  0
   38.6000   22.8050   36.4070 C   0  0  0  0  0  0  0  0  0  0  0  0
   37.5000   23.1900   37.1200 C   0  0  0  0  0  0  0  0  0  0  0  0
   37.8650   23.4500   38.4090 C   0  0  0  0  0  0  0  0  0  0  0  0
   39.1700   23.2300   38.4940 O   0  0  0  0  0  0  0  0  0  0  0  0
   45.5102   26.3474   40.0384 H   0  0  0  0  0  0  0  0  0  0  0  0
   47.6617   25.0119   39.0895 H   0  0  0  0  0  0  0  0  0  0  0  0
   48.5413   28.8366   34.9866 H   0  0  0  0  0  0  0  0  0  0  0  0
   44.8189   24.0896   35.2674 H   0  0  0  0  0  0  0  0  0  0  0  0
   43.5234   25.2664   35.7347 H   0  0  0  0  0  0  0  0  0  0  0  0
   41.5128   24.5735   36.6896 H   0  0  0  0  0  0  0  0  0  0  0  0
   43.0970   19.9393   36.8051 H   0  0  0  0  0  0  0  0  0  0  0  0
   38.6592   22.5239   35.3452 H   0  0  0  0  0  0  0  0  0  0  0  0
   36.4798   23.2768   36.7180 H   0  0  0  0  0  0  0  0  0  0  0  0
   37.2025   23.7795   39.2230 H   0  0  0  0  0  0  0  0  0  0  0  0
  1  5  1  0
  1  2  1  0
  2  3  2  0
  4  3  1  0
  5  4  2  0
  6 10  1  0
  6  5  1  0
  7  6  2  0
  8  7  1  0
  8  9  1  0
  9 10  2  0
 11  7  1  0
 11 15  1  0
 12 11  2  0
 13 12  1  0
 13 14  1  0
 14 15  2  0
 16  9  1  0
 16 19  1  0
 16 18  1  0
 17 16  1  0
 20 23  1  0
 20  1  1  0
 21 26  1  0
 21 27  1  0
 22 21  2  0
 23 24  2  0
 23 22  1  0
 24 25  1  0
 25 26  2  0
 27 31  1  0
 28 29  1  0
 28 27  2  0
 29 30  2  0
 30 31  1  0
  3 32  1  0
  4 33  1  0
 14 34  1  0
 20 35  1  0
 20 36  1  0
 22 37  1  0
 25 38  1  0
 28 39  1  0
 29 40  1  0
 30 41  1  0
M  ISO  8  32  14  33  14  34  14  35   8  36   8  37  14  38  14  39  14
M  ISO  2  40  14  41  14
M  END
>  <minimizedAffinity>  (1) 
-5.11774158

>  <minimizedRMSD>  (1) 
0.502820015

$$$$
