
     RDKit          3D

 39 42  0  0  0  0  0  0  0  0999 V2000
   44.9220   24.8470   37.1950 N   0  0  0  0  0  0  0  0  0  0  0  0
   44.5900   25.6160   38.2170 N   0  0  0  0  0  0  0  0  0  0  0  0
   45.5660   25.7860   39.0770 C   0  0  0  0  0  0  0  0  0  0  0  0
   46.6640   25.0910   38.6340 C   0  0  0  0  0  0  0  0  0  0  0  0
   46.2200   24.5040   37.4340 C   0  0  0  0  0  0  0  0  0  0  0  0
   47.0840   23.6320   36.5690 C   0  0  0  0  0  0  0  0  0  0  0  0
   47.9600   24.2100   35.6140 C   0  0  0  0  0  0  0  0  0  0  0  0
   48.7450   22.7340   34.8670 S   0  0  0  0  0  0  0  0  0  0  0  0
   47.7450   21.5730   35.9870 C   0  0  0  0  0  0  0  0  0  0  0  0
   47.1500   22.3170   36.5730 N   0  0  0  0  0  0  0  0  0  0  0  0
   47.8820   20.0890   35.9230 C   0  0  0  0  0  0  0  0  0  0  0  0
   47.5060   19.5960   34.6990 F   0  0  0  0  0  0  0  0  0  0  0  0
   47.0390   19.6090   36.8950 F   0  0  0  0  0  0  0  0  0  0  0  0
   49.1730   19.6890   36.2610 F   0  0  0  0  0  0  0  0  0  0  0  0
   48.2190   25.6120   35.2630 C   0  0  0  0  0  0  0  0  0  0  0  0
   46.9730   26.1780   34.9630 F   0  0  0  0  0  0  0  0  0  0  0  0
   49.0120   25.7420   34.1390 F   0  0  0  0  0  0  0  0  0  0  0  0
   48.7010   26.2650   36.3580 F   0  0  0  0  0  0  0  0  0  0  0  0
   44.1510   24.4220   36.0560 C   0  0  0  0  0  0  0  0  0  0  0  0
   41.0300   22.5280   37.0220 C   0  0  0  0  0  0  0  0  0  0  0  0
   41.9010   23.5280   36.7000 C   0  0  0  0  0  0  0  0  0  0  0  0
   43.2320   23.2950   36.4040 C   0  0  0  0  0  0  0  0  0  0  0  0
   43.6340   21.9800   36.4540 N   0  0  0  0  0  0  0  0  0  0  0  0
   42.7660   21.0000   36.7740 C   0  0  0  0  0  0  0  0  0  0  0  0
   41.4890   21.3090   37.0480 N   0  0  0  0  0  0  0  0  0  0  0  0
   39.6350   22.8600   37.3230 C   0  0  0  0  0  0  0  0  0  0  0  0
   38.6080   22.8070   36.4020 C   0  0  0  0  0  0  0  0  0  0  0  0
   37.5080   23.1940   37.1160 C   0  0  0  0  0  0  0  0  0  0  0  0
   37.8780   23.4630   38.4030 C   0  0  0  0  0  0  0  0  0  0  0  0
   39.1840   23.2460   38.4850 O   0  0  0  0  0  0  0  0  0  0  0  0
   45.5134   26.3848   39.9982 H   0  0  0  0  0  0  0  0  0  0  0  0
   47.6550   25.0117   39.1048 H   0  0  0  0  0  0  0  0  0  0  0  0
   44.8379   24.0909   35.2632 H   0  0  0  0  0  0  0  0  0  0  0  0
   43.5406   25.2719   35.7167 H   0  0  0  0  0  0  0  0  0  0  0  0
   41.5290   24.5629   36.6748 H   0  0  0  0  0  0  0  0  0  0  0  0
   43.1021   19.9532   36.8104 H   0  0  0  0  0  0  0  0  0  0  0  0
   38.6620   22.5204   35.3414 H   0  0  0  0  0  0  0  0  0  0  0  0
   36.4862   23.2758   36.7169 H   0  0  0  0  0  0  0  0  0  0  0  0
   37.2179   23.7965   39.2173 H   0  0  0  0  0  0  0  0  0  0  0  0
  1  5  1  0
  1  2  1  0
  2  3  2  0
  4  3  1  0
  5  4  2  0
  6 10  1  0
  6  5  1  0
  7  6  2  0
  8  7  1  0
  8  9  1  0
  9 10  2  0
 11  9  1  0
 11 14  1  0
 11 13  1  0
 12 11  1  0
 15  7  1  0
 15 18  1  0
 16 15  1  0
 17 15  1  0
 19 22  1  0
 19  1  1  0
 20 25  1  0
 20 26  1  0
 21 20  2  0
 22 23  2  0
 22 21  1  0
 23 24  1  0
 24 25  2  0
 26 30  1  0
 27 28  1  0
 27 26  2  0
 28 29  2  0
 29 30  1  0
  3 31  1  0
  4 32  1  0
 19 33  1  0
 19 34  1  0
 21 35  1  0
 24 36  1  0
 27 37  1  0
 28 38  1  0
 29 39  1  0
M  ISO  8  31  14  32  14  33   8  34   8  35  14  36  14  37  14  38  14
M  ISO  1  39  14
M  END
>  <minimizedAffinity>  (1) 
-5.04451513

>  <minimizedRMSD>  (1) 
0.284018397

$$$$
