
     RDKit          3D

 34 37  0  0  0  0  0  0  0  0999 V2000
   38.0710   22.5390   34.7510 C   0  0  0  0  0  0  0  0  0  0  0  0
   39.4140   22.9280   34.6370 C   0  0  0  0  0  0  0  0  0  0  0  0
   40.0680   23.3770   35.7610 C   0  0  0  0  0  0  0  0  0  0  0  0
   39.4000   23.4280   36.9350 N   0  0  0  0  0  0  0  0  0  0  0  0
   38.1010   23.0470   37.0240 C   0  0  0  0  0  0  0  0  0  0  0  0
   37.4270   22.6000   35.9380 N   0  0  0  0  0  0  0  0  0  0  0  0
   41.4300   23.7830   35.6940 N   0  0  0  0  0  0  0  0  0  0  0  0
   42.4610   23.0960   36.2240 C   0  0  0  0  0  0  0  0  0  0  0  0
   43.6400   23.7380   35.9970 N   0  0  0  0  0  0  0  0  0  0  0  0
   43.3100   24.8450   35.3100 C   0  0  0  0  0  0  0  0  0  0  0  0
   44.0010   25.9130   34.7730 C   0  0  0  0  0  0  0  0  0  0  0  0
   43.4280   26.9300   34.1080 N   0  0  0  0  0  0  0  0  0  0  0  0
   42.0780   26.9300   33.9390 C   0  0  0  0  0  0  0  0  0  0  0  0
   41.3620   25.9100   34.4440 N   0  0  0  0  0  0  0  0  0  0  0  0
   41.9280   24.8890   35.1120 C   0  0  0  0  0  0  0  0  0  0  0  0
   37.2740   22.0430   33.6270 C   0  0  0  0  0  0  0  0  0  0  0  0
   36.3890   20.9790   33.8010 C   0  0  0  0  0  0  0  0  0  0  0  0
   35.7750   20.7140   32.6130 C   0  0  0  0  0  0  0  0  0  0  0  0
   36.3150   21.6370   31.7500 C   0  0  0  0  0  0  0  0  0  0  0  0
   37.2050   22.4110   32.3970 O   0  0  0  0  0  0  0  0  0  0  0  0
   34.7560   19.6880   32.2600 C   0  0  0  0  0  0  0  0  0  0  0  0
   35.2360   18.2710   32.6080 C   0  0  0  0  0  0  0  0  0  0  0  0
   39.9335   22.8751   33.6688 H   0  0  0  0  0  0  0  0  0  0  0  0
   37.5866   23.1021   37.9948 H   0  0  0  0  0  0  0  0  0  0  0  0
   42.3632   22.1444   36.7671 H   0  0  0  0  0  0  0  0  0  0  0  0
   45.0937   25.9324   34.8980 H   0  0  0  0  0  0  0  0  0  0  0  0
   41.5813   27.7496   33.3990 H   0  0  0  0  0  0  0  0  0  0  0  0
   36.2147   20.4407   34.7443 H   0  0  0  0  0  0  0  0  0  0  0  0
   36.0570   21.7295   30.6847 H   0  0  0  0  0  0  0  0  0  0  0  0
   34.5549   19.7415   31.1799 H   0  0  0  0  0  0  0  0  0  0  0  0
   33.8445   19.8946   32.8401 H   0  0  0  0  0  0  0  0  0  0  0  0
   35.2752   18.1553   33.7012 H   0  0  0  0  0  0  0  0  0  0  0  0
   34.5376   17.5333   32.1860 H   0  0  0  0  0  0  0  0  0  0  0  0
   36.2389   18.1096   32.1860 H   0  0  0  0  0  0  0  0  0  0  0  0
  1  6  1  0
  2  1  2  0
  2  3  1  0
  3  4  2  0
  4  5  1  0
  6  5  2  0
  7  3  1  0
  7  8  1  0
  9  8  2  0
 10  9  1  0
 11 10  2  0
 12 11  1  0
 13 12  2  0
 13 14  1  0
 14 15  2  0
 15 10  1  0
 15  7  1  0
 16 17  2  0
 16  1  1  0
 18 17  1  0
 19 20  1  0
 19 18  2  0
 20 16  1  0
 21 22  1  0
 21 18  1  0
  2 23  1  0
  5 24  1  0
  8 25  1  0
 11 26  1  0
 13 27  1  0
 17 28  1  0
 19 29  1  0
 21 30  1  0
 21 31  1  0
 22 32  1  0
 22 33  1  0
 22 34  1  0
M  ISO  8  23  14  24  14  25  14  26  14  27  14  28  14  29  14  30   8
M  ISO  4  31   8  32   8  33   8  34   8
M  END
>  <minimizedAffinity>  (1) 
-5.14844894

>  <minimizedRMSD>  (1) 
2.45641851

$$$$
