
     RDKit          3D

 37 40  0  0  0  0  0  0  0  0999 V2000
   38.0040   22.3830   35.1730 C   0  0  0  0  0  0  0  0  0  0  0  0
   39.3750   22.1520   35.2470 C   0  0  0  0  0  0  0  0  0  0  0  0
   40.0620   22.4340   36.4120 C   0  0  0  0  0  0  0  0  0  0  0  0
   39.3610   22.9330   37.4490 N   0  0  0  0  0  0  0  0  0  0  0  0
   38.0240   23.1560   37.3690 C   0  0  0  0  0  0  0  0  0  0  0  0
   37.3610   22.8810   36.2400 N   0  0  0  0  0  0  0  0  0  0  0  0
   41.5010   22.1810   36.4590 C   0  0  0  0  0  0  0  0  0  0  0  0
   42.1370   21.0080   36.8170 C   0  0  0  0  0  0  0  0  0  0  0  0
   43.4790   21.2120   36.7200 N   0  0  0  0  0  0  0  0  0  0  0  0
   43.7170   22.4680   36.3130 C   0  0  0  0  0  0  0  0  0  0  0  0
   44.9130   23.1210   36.0760 C   0  0  0  0  0  0  0  0  0  0  0  0
   44.9170   24.4480   35.6510 C   0  0  0  0  0  0  0  0  0  0  0  0
   43.7020   25.0850   35.4770 C   0  0  0  0  0  0  0  0  0  0  0  0
   42.5120   24.3950   35.7260 C   0  0  0  0  0  0  0  0  0  0  0  0
   42.5040   23.0810   36.1460 C   0  0  0  0  0  0  0  0  0  0  0  0
   37.1910   22.1190   33.9980 C   0  0  0  0  0  0  0  0  0  0  0  0
   36.3450   21.0110   33.9420 C   0  0  0  0  0  0  0  0  0  0  0  0
   35.6920   20.9950   32.7260 C   0  0  0  0  0  0  0  0  0  0  0  0
   36.1850   22.1190   32.0920 C   0  0  0  0  0  0  0  0  0  0  0  0
   37.0650   22.7480   32.8830 O   0  0  0  0  0  0  0  0  0  0  0  0
   34.7040   20.0270   32.2030 C   0  0  0  0  0  0  0  0  0  0  0  0
   35.1370   18.5810   32.4510 C   0  0  0  0  0  0  0  0  0  0  0  0
   39.9115   21.7447   34.3774 H   0  0  0  0  0  0  0  0  0  0  0  0
   37.4839   23.5644   38.2359 H   0  0  0  0  0  0  0  0  0  0  0  0
   41.6453   20.0738   37.1260 H   0  0  0  0  0  0  0  0  0  0  0  0
   44.2023   20.5087   36.9276 H   0  0  0  0  0  0  0  0  0  0  0  0
   45.8652   22.5904   36.2237 H   0  0  0  0  0  0  0  0  0  0  0  0
   45.8629   24.9756   35.4587 H   0  0  0  0  0  0  0  0  0  0  0  0
   43.6720   26.1327   35.1433 H   0  0  0  0  0  0  0  0  0  0  0  0
   41.5535   24.9153   35.5828 H   0  0  0  0  0  0  0  0  0  0  0  0
   36.2182   20.2666   34.7418 H   0  0  0  0  0  0  0  0  0  0  0  0
   35.8968   22.4499   31.0833 H   0  0  0  0  0  0  0  0  0  0  0  0
   34.5911   20.1838   31.1201 H   0  0  0  0  0  0  0  0  0  0  0  0
   33.7521   20.1932   32.7287 H   0  0  0  0  0  0  0  0  0  0  0  0
   35.1926   18.3955   33.5338 H   0  0  0  0  0  0  0  0  0  0  0  0
   34.4045   17.8962   31.9988 H   0  0  0  0  0  0  0  0  0  0  0  0
   36.1253   18.4115   31.9988 H   0  0  0  0  0  0  0  0  0  0  0  0
  1  2  2  0
  1  6  1  0
  2  3  1  0
  3  7  1  0
  3  4  2  0
  5  4  1  0
  6  5  2  0
  7  8  2  0
  9  8  1  0
 10  9  1  0
 11 10  2  0
 12 11  1  0
 13 12  2  0
 13 14  1  0
 14 15  2  0
 15 10  1  0
 15  7  1  0
 16  1  1  0
 17 16  2  0
 18 17  1  0
 19 18  2  0
 19 20  1  0
 20 16  1  0
 21 22  1  0
 21 18  1  0
  2 23  1  0
  5 24  1  0
  8 25  1  0
  9 26  1  0
 11 27  1  0
 12 28  1  0
 13 29  1  0
 14 30  1  0
 17 31  1  0
 19 32  1  0
 21 33  1  0
 21 34  1  0
 22 35  1  0
 22 36  1  0
 22 37  1  0
M  ISO  8  23  14  24  14  25  14  26   9  27  14  28  14  29  14  30  14
M  ISO  7  31  14  32  14  33   8  34   8  35   8  36   8  37   8
M  END
>  <minimizedAffinity>  (1) 
-5.29825401

>  <minimizedRMSD>  (1) 
1.19727468

$$$$
