
     RDKit          3D

 39 42  0  0  0  0  0  0  0  0999 V2000
   44.1540   24.4110   36.0380 C   0  0  0  0  0  0  0  0  0  0  0  0
   41.0330   22.5210   37.0170 C   0  0  0  0  0  0  0  0  0  0  0  0
   41.9020   23.5270   36.6870 C   0  0  0  0  0  0  0  0  0  0  0  0
   43.2350   23.2780   36.3950 C   0  0  0  0  0  0  0  0  0  0  0  0
   43.6380   21.9720   36.4530 N   0  0  0  0  0  0  0  0  0  0  0  0
   42.7790   20.9800   36.7790 C   0  0  0  0  0  0  0  0  0  0  0  0
   41.4980   21.2910   37.0510 N   0  0  0  0  0  0  0  0  0  0  0  0
   39.6360   22.8580   37.3150 C   0  0  0  0  0  0  0  0  0  0  0  0
   38.6120   22.8050   36.3860 C   0  0  0  0  0  0  0  0  0  0  0  0
   37.5180   23.1970   37.1050 C   0  0  0  0  0  0  0  0  0  0  0  0
   37.8880   23.4680   38.4040 C   0  0  0  0  0  0  0  0  0  0  0  0
   39.1920   23.2450   38.4800 O   0  0  0  0  0  0  0  0  0  0  0  0
   44.9250   24.8450   37.1780 N   0  0  0  0  0  0  0  0  0  0  0  0
   44.5970   25.6110   38.1980 N   0  0  0  0  0  0  0  0  0  0  0  0
   45.5720   25.7910   39.0570 C   0  0  0  0  0  0  0  0  0  0  0  0
   46.6680   25.1040   38.6140 C   0  0  0  0  0  0  0  0  0  0  0  0
   46.2190   24.5080   37.4070 C   0  0  0  0  0  0  0  0  0  0  0  0
   47.0880   23.6430   36.5480 C   0  0  0  0  0  0  0  0  0  0  0  0
   47.9310   24.2150   35.5660 C   0  0  0  0  0  0  0  0  0  0  0  0
   48.7350   22.7380   34.8440 S   0  0  0  0  0  0  0  0  0  0  0  0
   47.7890   21.5820   36.0000 C   0  0  0  0  0  0  0  0  0  0  0  0
   47.1790   22.3130   36.5910 N   0  0  0  0  0  0  0  0  0  0  0  0
   47.9670   20.1150   35.9620 C   0  0  0  0  0  0  0  0  0  0  0  0
   47.6470   19.5870   34.7240 F   0  0  0  0  0  0  0  0  0  0  0  0
   47.0760   19.6130   36.8980 F   0  0  0  0  0  0  0  0  0  0  0  0
   49.2280   19.7240   36.3690 F   0  0  0  0  0  0  0  0  0  0  0  0
   48.0960   25.6320   35.2360 C   0  0  0  0  0  0  0  0  0  0  0  0
   44.8419   24.0777   35.2470 H   0  0  0  0  0  0  0  0  0  0  0  0
   43.5415   25.2570   35.6929 H   0  0  0  0  0  0  0  0  0  0  0  0
   41.5321   24.5624   36.6525 H   0  0  0  0  0  0  0  0  0  0  0  0
   43.1216   19.9356   36.8212 H   0  0  0  0  0  0  0  0  0  0  0  0
   38.6655   22.5171   35.3257 H   0  0  0  0  0  0  0  0  0  0  0  0
   36.4963   23.2831   36.7067 H   0  0  0  0  0  0  0  0  0  0  0  0
   37.2297   23.8038   39.2188 H   0  0  0  0  0  0  0  0  0  0  0  0
   45.5172   26.3920   39.9767 H   0  0  0  0  0  0  0  0  0  0  0  0
   47.6609   25.0308   39.0817 H   0  0  0  0  0  0  0  0  0  0  0  0
   48.1644   26.2190   36.1638 H   0  0  0  0  0  0  0  0  0  0  0  0
   49.0159   25.7669   34.6482 H   0  0  0  0  0  0  0  0  0  0  0  0
   47.2317   25.9746   34.6482 H   0  0  0  0  0  0  0  0  0  0  0  0
  1  4  1  0
  1 13  1  0
  2  7  1  0
  2  8  1  0
  3  2  2  0
  4  5  2  0
  4  3  1  0
  5  6  1  0
  6  7  2  0
  8 12  1  0
  9 10  1  0
  9  8  2  0
 10 11  2  0
 11 12  1  0
 13 17  1  0
 13 14  1  0
 14 15  2  0
 16 15  1  0
 17 16  2  0
 18 22  1  0
 18 17  1  0
 19 18  2  0
 20 19  1  0
 20 21  1  0
 21 22  2  0
 23 21  1  0
 23 26  1  0
 23 25  1  0
 24 23  1  0
 27 19  1  0
  1 28  1  0
  1 29  1  0
  3 30  1  0
  6 31  1  0
  9 32  1  0
 10 33  1  0
 11 34  1  0
 15 35  1  0
 16 36  1  0
 27 37  1  0
 27 38  1  0
 27 39  1  0
M  ISO  8  28   8  29   8  30  14  31  14  32  14  33  14  34  14  35  14
M  ISO  4  36  14  37   8  38   8  39   8
M  END
>  <minimizedAffinity>  (1) 
-4.99684525

>  <minimizedRMSD>  (1) 
0.114255697

$$$$
