
     RDKit          3D

 38 40  0  0  0  0  0  0  0  0999 V2000
   38.1780   22.4130   35.5010 C   0  0  0  0  0  0  0  0  0  0  0  0
   39.5330   22.2020   35.6540 C   0  0  0  0  0  0  0  0  0  0  0  0
   40.1880   22.4950   36.8220 C   0  0  0  0  0  0  0  0  0  0  0  0
   39.4580   23.0030   37.8320 N   0  0  0  0  0  0  0  0  0  0  0  0
   38.1140   23.2150   37.6860 C   0  0  0  0  0  0  0  0  0  0  0  0
   37.4780   22.9240   36.5340 N   0  0  0  0  0  0  0  0  0  0  0  0
   41.5760   22.2910   37.0160 N   0  0  0  0  0  0  0  0  0  0  0  0
   42.6200   23.2520   36.7400 C   0  0  0  0  0  0  0  0  0  0  0  0
   43.6710   22.5610   35.8970 C   0  0  0  0  0  0  0  0  0  0  0  0
   43.1840   21.2610   35.3030 C   0  0  0  0  0  0  0  0  0  0  0  0
   42.6820   20.3040   36.3570 C   0  0  0  0  0  0  0  0  0  0  0  0
   42.0790   21.0360   37.5340 C   0  0  0  0  0  0  0  0  0  0  0  0
   37.4150   22.1340   34.3050 C   0  0  0  0  0  0  0  0  0  0  0  0
   36.5150   21.0870   34.2350 C   0  0  0  0  0  0  0  0  0  0  0  0
   35.9480   21.0750   32.9780 C   0  0  0  0  0  0  0  0  0  0  0  0
   36.5430   22.1360   32.3290 C   0  0  0  0  0  0  0  0  0  0  0  0
   37.4070   22.7400   33.1450 O   0  0  0  0  0  0  0  0  0  0  0  0
   34.9300   20.1450   32.4230 C   0  0  0  0  0  0  0  0  0  0  0  0
   35.2870   18.6920   32.6720 C   0  0  0  0  0  0  0  0  0  0  0  0
   40.1056   21.7856   34.8122 H   0  0  0  0  0  0  0  0  0  0  0  0
   37.5404   23.6319   38.5270 H   0  0  0  0  0  0  0  0  0  0  0  0
   42.2040   24.1097   36.1911 H   0  0  0  0  0  0  0  0  0  0  0  0
   43.0605   23.6221   37.6776 H   0  0  0  0  0  0  0  0  0  0  0  0
   43.9625   23.2343   35.0774 H   0  0  0  0  0  0  0  0  0  0  0  0
   44.5209   22.3263   36.5547 H   0  0  0  0  0  0  0  0  0  0  0  0
   42.3645   21.4771   34.6018 H   0  0  0  0  0  0  0  0  0  0  0  0
   44.0336   20.7845   34.7920 H   0  0  0  0  0  0  0  0  0  0  0  0
   41.9156   19.6527   35.9114 H   0  0  0  0  0  0  0  0  0  0  0  0
   43.5367   19.7147   36.7206 H   0  0  0  0  0  0  0  0  0  0  0  0
   42.8452   21.2202   38.3014 H   0  0  0  0  0  0  0  0  0  0  0  0
   41.2777   20.4469   38.0040 H   0  0  0  0  0  0  0  0  0  0  0  0
   36.2887   20.3806   35.0473 H   0  0  0  0  0  0  0  0  0  0  0  0
   36.3356   22.4390   31.2921 H   0  0  0  0  0  0  0  0  0  0  0  0
   34.8529   20.3102   31.3382 H   0  0  0  0  0  0  0  0  0  0  0  0
   33.9741   20.3497   32.9274 H   0  0  0  0  0  0  0  0  0  0  0  0
   35.3327   18.5061   33.7552 H   0  0  0  0  0  0  0  0  0  0  0  0
   34.5214   18.0438   32.2207 H   0  0  0  0  0  0  0  0  0  0  0  0
   36.2658   18.4724   32.2207 H   0  0  0  0  0  0  0  0  0  0  0  0
  1  2  2  0
  1  6  1  0
  2  3  1  0
  3  7  1  0
  3  4  2  0
  5  4  1  0
  6  5  2  0
  7 12  1  0
  8  7  1  0
  9  8  1  0
 10  9  1  0
 10 11  1  0
 11 12  1  0
 13  1  1  0
 14 13  2  0
 15 14  1  0
 16 15  2  0
 16 17  1  0
 17 13  1  0
 18 19  1  0
 18 15  1  0
  2 20  1  0
  5 21  1  0
  8 22  1  0
  8 23  1  0
  9 24  1  0
  9 25  1  0
 10 26  1  0
 10 27  1  0
 11 28  1  0
 11 29  1  0
 12 30  1  0
 12 31  1  0
 14 32  1  0
 16 33  1  0
 18 34  1  0
 18 35  1  0
 19 36  1  0
 19 37  1  0
 19 38  1  0
M  ISO  8  20  14  21  14  22  13  23  13  24  13  25  13  26  13  27  13
M  ISO  8  28  13  29  13  30  13  31  13  32  14  33  14  34   8  35   8
M  ISO  3  36   8  37   8  38   8
M  END
>  <minimizedAffinity>  (1) 
-5.06749916

>  <minimizedRMSD>  (1) 
0.807735264

$$$$
