
     RDKit          3D

 37 40  0  0  0  0  0  0  0  0999 V2000
   38.3160   22.2490   34.7120 C   0  0  0  0  0  0  0  0  0  0  0  0
   39.6850   22.4110   34.8160 C   0  0  0  0  0  0  0  0  0  0  0  0
   40.2430   22.9840   35.9330 C   0  0  0  0  0  0  0  0  0  0  0  0
   39.4160   23.3820   36.9200 N   0  0  0  0  0  0  0  0  0  0  0  0
   38.0700   23.2280   36.8270 C   0  0  0  0  0  0  0  0  0  0  0  0
   37.5310   22.6650   35.7290 N   0  0  0  0  0  0  0  0  0  0  0  0
   41.6490   23.1590   36.0600 N   0  0  0  0  0  0  0  0  0  0  0  0
   42.6330   22.4020   36.5800 C   0  0  0  0  0  0  0  0  0  0  0  0
   43.8210   23.0450   36.4450 N   0  0  0  0  0  0  0  0  0  0  0  0
   43.5930   24.2270   35.8310 C   0  0  0  0  0  0  0  0  0  0  0  0
   44.4990   25.2120   35.4860 C   0  0  0  0  0  0  0  0  0  0  0  0
   45.7290   25.1160   35.7190 O   0  0  0  0  0  0  0  0  0  0  0  0
   43.9830   26.3140   34.8670 N   0  0  0  0  0  0  0  0  0  0  0  0
   42.6590   26.3770   34.6350 C   0  0  0  0  0  0  0  0  0  0  0  0
   42.0240   27.4810   33.9970 N   0  0  0  0  0  0  0  0  0  0  0  0
   41.7920   25.4050   34.9810 N   0  0  0  0  0  0  0  0  0  0  0  0
   42.2330   24.2920   35.5930 C   0  0  0  0  0  0  0  0  0  0  0  0
   37.6200   21.6620   33.5900 C   0  0  0  0  0  0  0  0  0  0  0  0
   36.4640   20.8990   33.7480 C   0  0  0  0  0  0  0  0  0  0  0  0
   36.0350   20.4790   32.5020 C   0  0  0  0  0  0  0  0  0  0  0  0
   36.9520   21.0080   31.6370 C   0  0  0  0  0  0  0  0  0  0  0  0
   37.8710   21.6980   32.3090 O   0  0  0  0  0  0  0  0  0  0  0  0
   34.8450   19.6420   32.1740 C   0  0  0  0  0  0  0  0  0  0  0  0
   35.0990   18.1590   32.4650 C   0  0  0  0  0  0  0  0  0  0  0  0
   40.3355   22.0770   33.9943 H   0  0  0  0  0  0  0  0  0  0  0  0
   37.4200   23.5632   37.6487 H   0  0  0  0  0  0  0  0  0  0  0  0
   42.4956   21.4138   37.0433 H   0  0  0  0  0  0  0  0  0  0  0  0
   44.5997   27.0878   34.5810 H   0  0  0  0  0  0  0  0  0  0  0  0
   41.0051   27.4724   33.8464 H   0  0  0  0  0  0  0  0  0  0  0  0
   42.5837   28.2878   33.6862 H   0  0  0  0  0  0  0  0  0  0  0  0
   35.9739   20.6690   34.7056 H   0  0  0  0  0  0  0  0  0  0  0  0
   36.9332   20.8818   30.5444 H   0  0  0  0  0  0  0  0  0  0  0  0
   34.6088   19.7606   31.1062 H   0  0  0  0  0  0  0  0  0  0  0  0
   34.0062   19.9765   32.8022 H   0  0  0  0  0  0  0  0  0  0  0  0
   35.1265   17.9983   33.5528 H   0  0  0  0  0  0  0  0  0  0  0  0
   34.2911   17.5555   32.0255 H   0  0  0  0  0  0  0  0  0  0  0  0
   36.0617   17.8587   32.0255 H   0  0  0  0  0  0  0  0  0  0  0  0
  1  2  2  0
  1  6  1  0
  2  3  1  0
  3  7  1  0
  3  4  2  0
  5  4  1  0
  6  5  2  0
  7  8  1  0
  9  8  2  0
 10  9  1  0
 11 12  2  0
 11 10  1  0
 13 11  1  0
 14 13  1  0
 14 16  2  0
 15 14  1  0
 16 17  1  0
 17 10  2  0
 17  7  1  0
 18 19  2  0
 18  1  1  0
 20 19  1  0
 21 22  1  0
 21 20  2  0
 22 18  1  0
 23 24  1  0
 23 20  1  0
  2 25  1  0
  5 26  1  0
  8 27  1  0
 13 28  1  0
 15 29  1  0
 15 30  1  0
 19 31  1  0
 21 32  1  0
 23 33  1  0
 23 34  1  0
 24 35  1  0
 24 36  1  0
 24 37  1  0
M  ISO  8  25  14  26  14  27  14  28   9  31  14  32  14  33   8  34   8
M  ISO  3  35   8  36   8  37   8
M  END
>  <minimizedAffinity>  (1) 
-5.61229658

>  <minimizedRMSD>  (1) 
1.99335039

$$$$
