
     RDKit          3D

 36 38  0  0  0  0  0  0  0  0999 V2000
   35.8190   21.9240   31.6410 C   0  0  0  0  0  0  0  0  0  0  0  0
   36.6230   21.1320   30.8390 C   0  0  0  0  0  0  0  0  0  0  0  0
   36.1570   19.8370   30.8810 C   0  0  0  0  0  0  0  0  0  0  0  0
   35.0650   19.8970   31.7280 C   0  0  0  0  0  0  0  0  0  0  0  0
   34.8970   21.1560   32.1580 O   0  0  0  0  0  0  0  0  0  0  0  0
   36.0570   23.3520   31.8040 C   0  0  0  0  0  0  0  0  0  0  0  0
   36.9060   23.9080   32.7480 C   0  0  0  0  0  0  0  0  0  0  0  0
   37.0630   25.2700   32.8230 C   0  0  0  0  0  0  0  0  0  0  0  0
   36.3720   26.0370   31.9570 N   0  0  0  0  0  0  0  0  0  0  0  0
   35.5400   25.4890   31.0310 C   0  0  0  0  0  0  0  0  0  0  0  0
   35.3680   24.1480   30.9370 N   0  0  0  0  0  0  0  0  0  0  0  0
   37.9200   25.8420   33.7770 N   0  0  0  0  0  0  0  0  0  0  0  0
   37.8040   25.7070   35.2020 C   0  0  0  0  0  0  0  0  0  0  0  0
   38.2530   26.9710   35.9030 C   0  0  0  0  0  0  0  0  0  0  0  0
   39.5210   27.3720   35.5360 O   0  0  0  0  0  0  0  0  0  0  0  0
   40.0490   26.6360   34.5020 C   0  0  0  0  0  0  0  0  0  0  0  0
   39.0450   26.6550   33.3570 C   0  0  0  0  0  0  0  0  0  0  0  0
   36.6930   18.6340   30.1850 C   0  0  0  0  0  0  0  0  0  0  0  0
   36.7170   18.8230   28.6770 C   0  0  0  0  0  0  0  0  0  0  0  0
   37.4924   21.4805   30.2622 H   0  0  0  0  0  0  0  0  0  0  0  0
   34.4311   19.0422   32.0064 H   0  0  0  0  0  0  0  0  0  0  0  0
   37.4569   23.2548   33.4407 H   0  0  0  0  0  0  0  0  0  0  0  0
   34.9937   26.1500   30.3420 H   0  0  0  0  0  0  0  0  0  0  0  0
   36.7539   25.5056   35.4603 H   0  0  0  0  0  0  0  0  0  0  0  0
   38.4465   24.8765   35.5296 H   0  0  0  0  0  0  0  0  0  0  0  0
   37.5461   27.7773   35.6578 H   0  0  0  0  0  0  0  0  0  0  0  0
   38.2759   26.7574   36.9818 H   0  0  0  0  0  0  0  0  0  0  0  0
   40.9998   27.0809   34.1734 H   0  0  0  0  0  0  0  0  0  0  0  0
   40.2431   25.6028   34.8257 H   0  0  0  0  0  0  0  0  0  0  0  0
   39.4987   26.2339   32.4477 H   0  0  0  0  0  0  0  0  0  0  0  0
   38.7269   27.6824   33.1261 H   0  0  0  0  0  0  0  0  0  0  0  0
   37.7178   18.4450   30.5372 H   0  0  0  0  0  0  0  0  0  0  0  0
   36.0350   17.7828   30.4142 H   0  0  0  0  0  0  0  0  0  0  0  0
   36.8524   19.8893   28.4432 H   0  0  0  0  0  0  0  0  0  0  0  0
   37.5490   18.2451   28.2482 H   0  0  0  0  0  0  0  0  0  0  0  0
   35.7670   18.4714   28.2482 H   0  0  0  0  0  0  0  0  0  0  0  0
  1  6  1  0
  1  5  1  0
  2  3  1  0
  2  1  2  0
  3  4  2  0
  4  5  1  0
  6  7  2  0
  7  8  1  0
  8 12  1  0
  9  8  2  0
 10  9  1  0
 11 10  2  0
 11  6  1  0
 12 13  1  0
 13 14  1  0
 15 14  1  0
 16 15  1  0
 17 12  1  0
 17 16  1  0
 18  3  1  0
 19 18  1  0
  2 20  1  0
  4 21  1  0
  7 22  1  0
 10 23  1  0
 13 24  1  0
 13 25  1  0
 14 26  1  0
 14 27  1  0
 16 28  1  0
 16 29  1  0
 17 30  1  0
 17 31  1  0
 18 32  1  0
 18 33  1  0
 19 34  1  0
 19 35  1  0
 19 36  1  0
M  ISO  8  20  14  21  14  22  14  23  14  24  13  25  13  26  13  27  13
M  ISO  8  28  13  29  13  30  13  31  13  32   8  33   8  34   8  35   8
M  ISO  1  36   8
M  END
>  <minimizedAffinity>  (1) 
-4.86450291

>  <minimizedRMSD>  (1) 
5.7238431

$$$$
