
     RDKit          3D

 26 27  0  0  0  0  0  0  0  0999 V2000
   37.3670   22.1710   34.3220 C   0  0  0  0  0  0  0  0  0  0  0  0
   36.4620   21.1150   34.2190 C   0  0  0  0  0  0  0  0  0  0  0  0
   35.9200   21.1210   32.9580 C   0  0  0  0  0  0  0  0  0  0  0  0
   36.5230   22.1910   32.3400 C   0  0  0  0  0  0  0  0  0  0  0  0
   37.3750   22.7880   33.1810 O   0  0  0  0  0  0  0  0  0  0  0  0
   38.1070   22.4300   35.5420 C   0  0  0  0  0  0  0  0  0  0  0  0
   39.4180   22.0500   35.7720 C   0  0  0  0  0  0  0  0  0  0  0  0
   40.0020   22.3650   36.9860 C   0  0  0  0  0  0  0  0  0  0  0  0
   39.2860   23.0300   37.9130 N   0  0  0  0  0  0  0  0  0  0  0  0
   37.9980   23.3990   37.6770 C   0  0  0  0  0  0  0  0  0  0  0  0
   37.4380   23.0930   36.5030 N   0  0  0  0  0  0  0  0  0  0  0  0
   41.3610   21.9850   37.2590 C   0  0  0  0  0  0  0  0  0  0  0  0
   42.3570   22.5770   36.8280 O   0  0  0  0  0  0  0  0  0  0  0  0
   41.6440   20.8820   38.0580 O   0  0  0  0  0  0  0  0  0  0  0  0
   34.9200   20.2160   32.3520 C   0  0  0  0  0  0  0  0  0  0  0  0
   35.2380   18.7460   32.6130 C   0  0  0  0  0  0  0  0  0  0  0  0
   36.2222   20.3962   35.0164 H   0  0  0  0  0  0  0  0  0  0  0  0
   36.3325   22.5098   31.3046 H   0  0  0  0  0  0  0  0  0  0  0  0
   39.9860   21.5067   35.0024 H   0  0  0  0  0  0  0  0  0  0  0  0
   37.4249   23.9423   38.4428 H   0  0  0  0  0  0  0  0  0  0  0  0
   42.5841   20.6300   38.2390 H   0  0  0  0  0  0  0  0  0  0  0  0
   34.9006   20.3865   31.2655 H   0  0  0  0  0  0  0  0  0  0  0  0
   33.9444   20.4364   32.8099 H   0  0  0  0  0  0  0  0  0  0  0  0
   35.2769   18.5662   33.6975 H   0  0  0  0  0  0  0  0  0  0  0  0
   34.4553   18.1163   32.1648 H   0  0  0  0  0  0  0  0  0  0  0  0
   36.2110   18.4961   32.1648 H   0  0  0  0  0  0  0  0  0  0  0  0
  1  6  1  0
  2  1  2  0
  3  2  1  0
  4  3  2  0
  4  5  1  0
  5  1  1  0
  6  7  2  0
  6 11  1  0
  7  8  1  0
  8 12  1  0
  8  9  2  0
 10  9  1  0
 11 10  2  0
 12 14  1  0
 13 12  2  0
 15 16  1  0
 15  3  1  0
  2 17  1  0
  4 18  1  0
  7 19  1  0
 10 20  1  0
 14 21  1  0
 15 22  1  0
 15 23  1  0
 16 24  1  0
 16 25  1  0
 16 26  1  0
M  ISO  8  17  14  18  14  19  14  20  14  21   3  22   8  23   8  24   8
M  ISO  2  25   8  26   8
M  END
>  <minimizedAffinity>  (1) 
-4.70829248

>  <minimizedRMSD>  (1) 
0.751292109

$$$$
