
     RDKit          3D

 30 31  0  0  0  0  0  0  0  0999 V2000
   38.2490   22.4500   35.4050 C   0  0  0  0  0  0  0  0  0  0  0  0
   39.6430   22.3070   35.4520 C   0  0  0  0  0  0  0  0  0  0  0  0
   40.3320   22.5530   36.6020 C   0  0  0  0  0  0  0  0  0  0  0  0
   39.6180   22.9400   37.6960 N   0  0  0  0  0  0  0  0  0  0  0  0
   38.2640   23.0800   37.6480 C   0  0  0  0  0  0  0  0  0  0  0  0
   37.5830   22.8340   36.5050 N   0  0  0  0  0  0  0  0  0  0  0  0
   41.7400   22.4220   36.7210 N   0  0  0  0  0  0  0  0  0  0  0  0
   42.3940   21.2370   37.1230 C   0  0  0  0  0  0  0  0  0  0  0  0
   41.8670   20.6220   38.1330 N   0  0  0  0  0  0  0  0  0  0  0  0
   43.5710   20.8090   36.4050 N   0  0  0  0  0  0  0  0  0  0  0  0
   42.2400   19.7440   38.5350 H   0  0  0  0  0  0  0  0  0  0  0  0
   37.4440   22.1990   34.2210 C   0  0  0  0  0  0  0  0  0  0  0  0
   36.5530   21.1270   34.1790 C   0  0  0  0  0  0  0  0  0  0  0  0
   35.9300   21.1280   32.9460 C   0  0  0  0  0  0  0  0  0  0  0  0
   36.4820   22.2170   32.2940 C   0  0  0  0  0  0  0  0  0  0  0  0
   37.3710   22.8140   33.0930 O   0  0  0  0  0  0  0  0  0  0  0  0
   34.9030   20.1760   32.4410 C   0  0  0  0  0  0  0  0  0  0  0  0
   35.3050   18.7180   32.6840 C   0  0  0  0  0  0  0  0  0  0  0  0
   40.1874   21.9923   34.5494 H   0  0  0  0  0  0  0  0  0  0  0  0
   37.7179   23.3967   38.5488 H   0  0  0  0  0  0  0  0  0  0  0  0
   42.3214   23.2430   36.5002 H   0  0  0  0  0  0  0  0  0  0  0  0
   44.0601   19.9469   36.6852 H   0  0  0  0  0  0  0  0  0  0  0  0
   43.9217   21.3657   35.6125 H   0  0  0  0  0  0  0  0  0  0  0  0
   36.3765   20.4042   34.9892 H   0  0  0  0  0  0  0  0  0  0  0  0
   36.2277   22.5413   31.2741 H   0  0  0  0  0  0  0  0  0  0  0  0
   34.7735   20.3335   31.3601 H   0  0  0  0  0  0  0  0  0  0  0  0
   33.9661   20.3659   32.9852 H   0  0  0  0  0  0  0  0  0  0  0  0
   35.3575   18.5276   33.7661 H   0  0  0  0  0  0  0  0  0  0  0  0
   34.5573   18.0510   32.2302 H   0  0  0  0  0  0  0  0  0  0  0  0
   36.2889   18.5284   32.2302 H   0  0  0  0  0  0  0  0  0  0  0  0
  1  2  2  0
  1  6  1  0
  2  3  1  0
  3  7  1  0
  3  4  2  0
  5  4  1  0
  6  5  2  0
  7  8  1  0
  8  9  2  0
  9 11  1  0
 10  8  1  0
 12  1  1  0
 13 12  2  0
 14 13  1  0
 15 14  2  0
 15 16  1  0
 16 12  1  0
 17 18  1  0
 17 14  1  0
  2 19  1  0
  5 20  1  0
  7 21  1  0
 10 22  1  0
 10 23  1  0
 13 24  1  0
 15 25  1  0
 17 26  1  0
 17 27  1  0
 18 28  1  0
 18 29  1  0
 18 30  1  0
M  ISO  8  19  14  20  14  24  14  25  14  26   8  27   8  28   8  29   8
M  ISO  1  30   8
M  END
>  <minimizedAffinity>  (1) 
-4.98378658

>  <minimizedRMSD>  (1) 
0.999719858

$$$$
