
     RDKit          3D

 28 30  0  0  0  0  0  0  0  0999 V2000
   37.2560   22.1200   34.1150 C   0  0  0  0  0  0  0  0  0  0  0  0
   36.4080   21.0170   34.0650 C   0  0  0  0  0  0  0  0  0  0  0  0
   35.7600   20.9960   32.8610 C   0  0  0  0  0  0  0  0  0  0  0  0
   36.2470   22.1120   32.2050 C   0  0  0  0  0  0  0  0  0  0  0  0
   37.1360   22.7470   32.9940 O   0  0  0  0  0  0  0  0  0  0  0  0
   38.0800   22.4030   35.2790 C   0  0  0  0  0  0  0  0  0  0  0  0
   39.4510   22.2360   35.3400 C   0  0  0  0  0  0  0  0  0  0  0  0
   40.1150   22.5480   36.5220 C   0  0  0  0  0  0  0  0  0  0  0  0
   39.3930   23.0070   37.5790 N   0  0  0  0  0  0  0  0  0  0  0  0
   38.0530   23.1630   37.4960 C   0  0  0  0  0  0  0  0  0  0  0  0
   37.3980   22.8670   36.3660 N   0  0  0  0  0  0  0  0  0  0  0  0
   41.5700   22.3690   36.5800 C   0  0  0  0  0  0  0  0  0  0  0  0
   42.4350   21.3750   36.8320 N   0  0  0  0  0  0  0  0  0  0  0  0
   43.6320   21.8480   36.7270 O   0  0  0  0  0  0  0  0  0  0  0  0
   43.6280   23.1050   36.4180 C   0  0  0  0  0  0  0  0  0  0  0  0
   42.3210   23.4520   36.3210 N   0  0  0  0  0  0  0  0  0  0  0  0
   34.7640   20.0260   32.3420 C   0  0  0  0  0  0  0  0  0  0  0  0
   35.1940   18.5860   32.5590 C   0  0  0  0  0  0  0  0  0  0  0  0
   36.2793   20.2774   34.8690 H   0  0  0  0  0  0  0  0  0  0  0  0
   35.9537   22.4321   31.1943 H   0  0  0  0  0  0  0  0  0  0  0  0
   40.0079   21.8625   34.4680 H   0  0  0  0  0  0  0  0  0  0  0  0
   37.4941   23.5373   38.3664 H   0  0  0  0  0  0  0  0  0  0  0  0
   44.5020   23.7554   36.2660 H   0  0  0  0  0  0  0  0  0  0  0  0
   34.6325   20.1971   31.2634 H   0  0  0  0  0  0  0  0  0  0  0  0
   33.8240   20.1827   32.8914 H   0  0  0  0  0  0  0  0  0  0  0  0
   35.2554   18.3803   33.6378 H   0  0  0  0  0  0  0  0  0  0  0  0
   34.4584   17.9103   32.0982 H   0  0  0  0  0  0  0  0  0  0  0  0
   36.1796   18.4242   32.0982 H   0  0  0  0  0  0  0  0  0  0  0  0
  1  6  1  0
  2  1  2  0
  3  2  1  0
  4  3  2  0
  4  5  1  0
  5  1  1  0
  6  7  2  0
  6 11  1  0
  7  8  1  0
  8 12  1  0
  8  9  2  0
 10  9  1  0
 11 10  2  0
 12 13  2  0
 14 13  1  0
 15 14  1  0
 16 15  2  0
 16 12  1  0
 17 18  1  0
 17  3  1  0
  2 19  1  0
  4 20  1  0
  7 21  1  0
 10 22  1  0
 15 23  1  0
 17 24  1  0
 17 25  1  0
 18 26  1  0
 18 27  1  0
 18 28  1  0
M  ISO  8  19  14  20  14  21  14  22  14  23  14  24   8  25   8  26   8
M  ISO  2  27   8  28   8
M  END
>  <minimizedAffinity>  (1) 
-4.4267869

>  <minimizedRMSD>  (1) 
1.090096

$$$$
