
     RDKit          3D

 30 32  0  0  0  0  0  0  0  0999 V2000
   37.1930   22.1150   33.9910 C   0  0  0  0  0  0  0  0  0  0  0  0
   36.3560   21.0010   33.9450 C   0  0  0  0  0  0  0  0  0  0  0  0
   35.6870   20.9820   32.7430 C   0  0  0  0  0  0  0  0  0  0  0  0
   36.1560   22.1020   32.1040 C   0  0  0  0  0  0  0  0  0  0  0  0
   37.0400   22.7380   32.8760 O   0  0  0  0  0  0  0  0  0  0  0  0
   38.0150   22.3770   35.1490 C   0  0  0  0  0  0  0  0  0  0  0  0
   39.3930   22.1380   35.2060 C   0  0  0  0  0  0  0  0  0  0  0  0
   40.1040   22.4170   36.3570 C   0  0  0  0  0  0  0  0  0  0  0  0
   39.4020   22.9270   37.4100 N   0  0  0  0  0  0  0  0  0  0  0  0
   38.0750   23.1570   37.3540 C   0  0  0  0  0  0  0  0  0  0  0  0
   37.3910   22.8820   36.2280 N   0  0  0  0  0  0  0  0  0  0  0  0
   41.5090   22.1780   36.4250 N   0  0  0  0  0  0  0  0  0  0  0  0
   42.3000   23.2670   36.2770 C   0  0  0  0  0  0  0  0  0  0  0  0
   43.6130   22.8310   36.3740 C   0  0  0  0  0  0  0  0  0  0  0  0
   43.5810   21.5080   36.5750 N   0  0  0  0  0  0  0  0  0  0  0  0
   42.2880   21.0950   36.6090 C   0  0  0  0  0  0  0  0  0  0  0  0
   34.6980   20.0180   32.2160 C   0  0  0  0  0  0  0  0  0  0  0  0
   35.1200   18.5770   32.4350 C   0  0  0  0  0  0  0  0  0  0  0  0
   36.2474   20.2538   34.7450 H   0  0  0  0  0  0  0  0  0  0  0  0
   35.8478   22.4288   31.0999 H   0  0  0  0  0  0  0  0  0  0  0  0
   39.9130   21.7255   34.3288 H   0  0  0  0  0  0  0  0  0  0  0  0
   37.5510   23.5695   38.2288 H   0  0  0  0  0  0  0  0  0  0  0  0
   41.9647   24.3015   36.1112 H   0  0  0  0  0  0  0  0  0  0  0  0
   44.5145   23.4570   36.2995 H   0  0  0  0  0  0  0  0  0  0  0  0
   41.9398   20.0625   36.7596 H   0  0  0  0  0  0  0  0  0  0  0  0
   34.5775   20.1904   31.1363 H   0  0  0  0  0  0  0  0  0  0  0  0
   33.7539   20.1766   32.7578 H   0  0  0  0  0  0  0  0  0  0  0  0
   35.1799   18.3724   33.5142 H   0  0  0  0  0  0  0  0  0  0  0  0
   34.3811   17.9045   31.9748 H   0  0  0  0  0  0  0  0  0  0  0  0
   36.1050   18.4094   31.9748 H   0  0  0  0  0  0  0  0  0  0  0  0
  1  6  1  0
  2  1  2  0
  3  2  1  0
  4  3  2  0
  4  5  1  0
  5  1  1  0
  6  7  2  0
  6 11  1  0
  7  8  1  0
  8 12  1  0
  8  9  2  0
 10  9  1  0
 11 10  2  0
 12 16  1  0
 13 14  2  0
 13 12  1  0
 14 15  1  0
 15 16  2  0
 17 18  1  0
 17  3  1  0
  2 19  1  0
  4 20  1  0
  7 21  1  0
 10 22  1  0
 13 23  1  0
 14 24  1  0
 16 25  1  0
 17 26  1  0
 17 27  1  0
 18 28  1  0
 18 29  1  0
 18 30  1  0
M  ISO  8  19  14  20  14  21  14  22  14  23  14  24  14  25  14  26   8
M  ISO  4  27   8  28   8  29   8  30   8
M  END
>  <minimizedAffinity>  (1) 
-4.58694887

>  <minimizedRMSD>  (1) 
1.23416436

$$$$
