
     RDKit          3D

 29 31  0  0  0  0  0  0  0  0999 V2000
   37.2120   22.1290   33.8790 C   0  0  0  0  0  0  0  0  0  0  0  0
   36.3930   21.0010   33.8340 C   0  0  0  0  0  0  0  0  0  0  0  0
   35.6780   21.0160   32.6620 C   0  0  0  0  0  0  0  0  0  0  0  0
   36.0940   22.1710   32.0290 C   0  0  0  0  0  0  0  0  0  0  0  0
   37.0100   22.8110   32.7840 O   0  0  0  0  0  0  0  0  0  0  0  0
   38.0870   22.3900   34.9960 C   0  0  0  0  0  0  0  0  0  0  0  0
   39.4650   22.2680   34.9840 C   0  0  0  0  0  0  0  0  0  0  0  0
   40.2000   22.5410   36.1050 C   0  0  0  0  0  0  0  0  0  0  0  0
   39.5490   22.9340   37.2170 N   0  0  0  0  0  0  0  0  0  0  0  0
   38.1960   23.0580   37.2390 C   0  0  0  0  0  0  0  0  0  0  0  0
   37.4620   22.7880   36.1350 N   0  0  0  0  0  0  0  0  0  0  0  0
   41.6770   22.4110   36.1010 C   0  0  0  0  0  0  0  0  0  0  0  0
   42.2900   21.1920   35.6300 C   0  0  0  0  0  0  0  0  0  0  0  0
   44.0650   21.5730   35.8400 S   0  0  0  0  0  0  0  0  0  0  0  0
   43.6950   23.2830   36.5140 C   0  0  0  0  0  0  0  0  0  0  0  0
   42.5080   23.3540   36.5050 N   0  0  0  0  0  0  0  0  0  0  0  0
   34.6850   20.0420   32.1580 C   0  0  0  0  0  0  0  0  0  0  0  0
   35.1240   18.5940   32.4350 C   0  0  0  0  0  0  0  0  0  0  0  0
   36.3301   20.2252   34.6113 H   0  0  0  0  0  0  0  0  0  0  0  0
   35.7307   22.5185   31.0506 H   0  0  0  0  0  0  0  0  0  0  0  0
   39.9750   21.9481   34.0634 H   0  0  0  0  0  0  0  0  0  0  0  0
   37.6931   23.3807   38.1625 H   0  0  0  0  0  0  0  0  0  0  0  0
   41.8150   20.2769   35.2466 H   0  0  0  0  0  0  0  0  0  0  0  0
   44.4137   24.0479   36.8434 H   0  0  0  0  0  0  0  0  0  0  0  0
   34.5692   20.1789   31.0727 H   0  0  0  0  0  0  0  0  0  0  0  0
   33.7327   20.2194   32.6792 H   0  0  0  0  0  0  0  0  0  0  0  0
   35.1745   18.4276   33.5212 H   0  0  0  0  0  0  0  0  0  0  0  0
   34.3962   17.8989   31.9910 H   0  0  0  0  0  0  0  0  0  0  0  0
   36.1152   18.4201   31.9910 H   0  0  0  0  0  0  0  0  0  0  0  0
  1  6  1  0
  2  1  2  0
  3  2  1  0
  4  3  2  0
  4  5  1  0
  5  1  1  0
  6 11  1  0
  7  6  2  0
  7  8  1  0
  8  9  2  0
  9 10  1  0
 11 10  2  0
 12  8  1  0
 12 16  1  0
 13 14  1  0
 13 12  2  0
 14 15  1  0
 16 15  2  0
 17 18  1  0
 17  3  1  0
  2 19  1  0
  4 20  1  0
  7 21  1  0
 10 22  1  0
 13 23  1  0
 15 24  1  0
 17 25  1  0
 17 26  1  0
 18 27  1  0
 18 28  1  0
 18 29  1  0
M  ISO  8  19  14  20  14  21  14  22  14  23  14  24  14  25   8  26   8
M  ISO  3  27   8  28   8  29   8
M  END
>  <minimizedAffinity>  (1) 
-4.33154106

>  <minimizedRMSD>  (1) 
1.48849165

$$$$
