
     RDKit          3D

 24 25  0  0  0  0  0  0  0  0999 V2000
   37.5200   22.1830   34.6520 C   0  0  0  0  0  0  0  0  0  0  0  0
   36.5080   21.2280   34.5440 C   0  0  0  0  0  0  0  0  0  0  0  0
   36.1240   21.1460   33.2320 C   0  0  0  0  0  0  0  0  0  0  0  0
   36.9170   22.0530   32.5870 C   0  0  0  0  0  0  0  0  0  0  0  0
   37.7340   22.6490   33.4700 O   0  0  0  0  0  0  0  0  0  0  0  0
   38.1320   22.4940   35.9240 C   0  0  0  0  0  0  0  0  0  0  0  0
   39.4420   22.1320   36.2720 C   0  0  0  0  0  0  0  0  0  0  0  0
   39.9110   22.4920   37.5320 C   0  0  0  0  0  0  0  0  0  0  0  0
   39.0900   23.1740   38.3680 N   0  0  0  0  0  0  0  0  0  0  0  0
   37.8340   23.5130   38.0150 C   0  0  0  0  0  0  0  0  0  0  0  0
   37.3750   23.1690   36.8010 N   0  0  0  0  0  0  0  0  0  0  0  0
   41.1790   22.1590   37.9070 O   0  0  0  0  0  0  0  0  0  0  0  0
   35.0890   20.2820   32.6180 C   0  0  0  0  0  0  0  0  0  0  0  0
   35.3820   18.7930   32.8150 C   0  0  0  0  0  0  0  0  0  0  0  0
   36.0890   20.6397   35.3737 H   0  0  0  0  0  0  0  0  0  0  0  0
   36.8900   22.2630   31.5076 H   0  0  0  0  0  0  0  0  0  0  0  0
   40.0811   21.5787   35.5682 H   0  0  0  0  0  0  0  0  0  0  0  0
   37.1909   24.0664   38.7151 H   0  0  0  0  0  0  0  0  0  0  0  0
   41.5135   22.4146   38.8030 H   0  0  0  0  0  0  0  0  0  0  0  0
   35.0458   20.4941   31.5395 H   0  0  0  0  0  0  0  0  0  0  0  0
   34.1308   20.5039   33.1105 H   0  0  0  0  0  0  0  0  0  0  0  0
   35.4264   18.5672   33.8907 H   0  0  0  0  0  0  0  0  0  0  0  0
   34.5838   18.1973   32.3480 H   0  0  0  0  0  0  0  0  0  0  0  0
   36.3463   18.5441   32.3480 H   0  0  0  0  0  0  0  0  0  0  0  0
  1  6  1  0
  2  1  2  0
  3  2  1  0
  4  3  2  0
  4  5  1  0
  5  1  1  0
  6  7  2  0
  6 11  1  0
  7  8  1  0
  8 12  1  0
  8  9  2  0
 10  9  1  0
 11 10  2  0
 13 14  1  0
 13  3  1  0
  2 15  1  0
  4 16  1  0
  7 17  1  0
 10 18  1  0
 12 19  1  0
 13 20  1  0
 13 21  1  0
 14 22  1  0
 14 23  1  0
 14 24  1  0
M  ISO  8  15  14  16  14  17  14  18  14  19   3  20   8  21   8  22   8
M  ISO  2  23   8  24   8
M  END
>  <minimizedAffinity>  (1) 
-4.26089239

>  <minimizedRMSD>  (1) 
0.198768929

$$$$
