
     RDKit          3D

 48 50  0  0  0  0  0  0  0  0999 V2000
   37.7970   23.0910   33.8830 C   0  0  0  0  0  0  0  0  0  0  0  0
   38.1380   24.4210   33.8240 C   0  0  0  0  0  0  0  0  0  0  0  0
   38.9030   25.0210   34.7980 C   0  0  0  0  0  0  0  0  0  0  0  0
   39.3110   24.2320   35.8280 N   0  0  0  0  0  0  0  0  0  0  0  0
   38.9770   22.9210   35.8880 C   0  0  0  0  0  0  0  0  0  0  0  0
   38.2300   22.3410   34.9360 N   0  0  0  0  0  0  0  0  0  0  0  0
   36.9980   22.3830   32.9040 C   0  0  0  0  0  0  0  0  0  0  0  0
   36.2930   21.2220   33.2450 C   0  0  0  0  0  0  0  0  0  0  0  0
   35.6260   20.7610   32.1370 C   0  0  0  0  0  0  0  0  0  0  0  0
   35.9660   21.6820   31.1570 C   0  0  0  0  0  0  0  0  0  0  0  0
   36.7710   22.6130   31.6560 O   0  0  0  0  0  0  0  0  0  0  0  0
   34.7550   19.5780   31.9900 C   0  0  0  0  0  0  0  0  0  0  0  0
   35.2440   18.3890   32.8040 C   0  0  0  0  0  0  0  0  0  0  0  0
   35.7430   17.2700   31.9440 C   0  0  0  0  0  0  0  0  0  0  0  0
   35.4420   15.9080   32.5230 C   0  0  0  0  0  0  0  0  0  0  0  0
   36.5570   15.0290   32.0370 C   0  0  0  0  0  0  0  0  0  0  0  0
   37.7430   15.9160   31.7880 C   0  0  0  0  0  0  0  0  0  0  0  0
   37.2610   17.3130   32.0040 C   0  0  0  0  0  0  0  0  0  0  0  0
   39.2760   26.4340   34.7550 C   0  0  0  0  0  0  0  0  0  0  0  0
   38.6810   27.2310   35.9010 C   0  0  0  0  0  0  0  0  0  0  0  0
   38.8090   27.0780   33.4400 C   0  0  0  0  0  0  0  0  0  0  0  0
   40.7780   26.5350   34.7710 C   0  0  0  0  0  0  0  0  0  0  0  0
   37.7890   25.0240   32.9728 H   0  0  0  0  0  0  0  0  0  0  0  0
   39.3266   22.3167   36.7380 H   0  0  0  0  0  0  0  0  0  0  0  0
   36.2763   20.7545   34.2406 H   0  0  0  0  0  0  0  0  0  0  0  0
   35.6181   21.6463   30.1141 H   0  0  0  0  0  0  0  0  0  0  0  0
   33.7414   19.8424   32.3258 H   0  0  0  0  0  0  0  0  0  0  0  0
   34.7664   19.2845   30.9300 H   0  0  0  0  0  0  0  0  0  0  0  0
   36.0628   18.7227   33.4584 H   0  0  0  0  0  0  0  0  0  0  0  0
   34.3906   18.0085   33.3845 H   0  0  0  0  0  0  0  0  0  0  0  0
   35.2803   17.3951   30.9539 H   0  0  0  0  0  0  0  0  0  0  0  0
   35.4314   15.9481   33.6222 H   0  0  0  0  0  0  0  0  0  0  0  0
   34.4546   15.5347   32.2138 H   0  0  0  0  0  0  0  0  0  0  0  0
   36.8031   14.2755   32.7997 H   0  0  0  0  0  0  0  0  0  0  0  0
   36.2652   14.4989   31.1184 H   0  0  0  0  0  0  0  0  0  0  0  0
   38.1046   15.7910   30.7567 H   0  0  0  0  0  0  0  0  0  0  0  0
   38.5800   15.6692   32.4577 H   0  0  0  0  0  0  0  0  0  0  0  0
   37.6522   17.9742   31.2167 H   0  0  0  0  0  0  0  0  0  0  0  0
   37.6060   17.7034   32.9728 H   0  0  0  0  0  0  0  0  0  0  0  0
   39.0058   26.7960   36.8577 H   0  0  0  0  0  0  0  0  0  0  0  0
   39.0227   28.2747   35.8380 H   0  0  0  0  0  0  0  0  0  0  0  0
   37.5832   27.2001   35.8380 H   0  0  0  0  0  0  0  0  0  0  0  0
   38.1767   27.9500   33.6631 H   0  0  0  0  0  0  0  0  0  0  0  0
   39.6851   27.3997   32.8579 H   0  0  0  0  0  0  0  0  0  0  0  0
   38.2310   26.3452   32.8579 H   0  0  0  0  0  0  0  0  0  0  0  0
   41.1328   26.5589   35.8119 H   0  0  0  0  0  0  0  0  0  0  0  0
   41.2096   25.6638   34.2564 H   0  0  0  0  0  0  0  0  0  0  0  0
   41.0891   27.4561   34.2564 H   0  0  0  0  0  0  0  0  0  0  0  0
  1  6  1  0
  2  1  2  0
  2  3  1  0
  3  4  2  0
  4  5  1  0
  6  5  2  0
  7  8  2  0
  7  1  1  0
  9  8  1  0
 10 11  1  0
 10  9  2  0
 11  7  1  0
 12  9  1  0
 12 13  1  0
 14 18  1  0
 14 15  1  0
 14 13  1  0
 16 15  1  0
 17 18  1  0
 17 16  1  0
 19 22  1  0
 19  3  1  0
 19 20  1  0
 21 19  1  0
  2 23  1  0
  5 24  1  0
  8 25  1  0
 10 26  1  0
 12 27  1  0
 12 28  1  0
 13 29  1  0
 13 30  1  0
 14 31  1  0
 15 32  1  0
 15 33  1  0
 16 34  1  0
 16 35  1  0
 17 36  1  0
 17 37  1  0
 18 38  1  0
 18 39  1  0
 20 40  1  0
 20 41  1  0
 20 42  1  0
 21 43  1  0
 21 44  1  0
 21 45  1  0
 22 46  1  0
 22 47  1  0
 22 48  1  0
M  ISO  8  23  14  24  14  25  14  26  14  27   8  28   8  29   8  30   8
M  ISO  8  31  13  32  13  33  13  34  13  35  13  36  13  37  13  38  13
M  ISO  8  39  13  40   8  41   8  42   8  43   8  44   8  45   8  46   8
M  ISO  2  47   8  48   8
M  END
>  <minimizedAffinity>  (1) 
-5.30276299

>  <minimizedRMSD>  (1) 
1.01635301

$$$$
