
     RDKit          3D

 44 46  0  0  0  0  0  0  0  0999 V2000
   37.8380   23.1860   33.7700 C   0  0  0  0  0  0  0  0  0  0  0  0
   38.1480   24.5420   33.7410 C   0  0  0  0  0  0  0  0  0  0  0  0
   39.0200   25.0880   34.6550 C   0  0  0  0  0  0  0  0  0  0  0  0
   39.5570   24.2650   35.5730 N   0  0  0  0  0  0  0  0  0  0  0  0
   39.2610   22.9370   35.6110 C   0  0  0  0  0  0  0  0  0  0  0  0
   38.4080   22.3970   34.7180 N   0  0  0  0  0  0  0  0  0  0  0  0
   36.9320   22.5200   32.8500 C   0  0  0  0  0  0  0  0  0  0  0  0
   36.3680   21.2840   33.1830 C   0  0  0  0  0  0  0  0  0  0  0  0
   35.5570   20.8820   32.1440 C   0  0  0  0  0  0  0  0  0  0  0  0
   35.6740   21.9050   31.2300 C   0  0  0  0  0  0  0  0  0  0  0  0
   36.4970   22.8510   31.6920 O   0  0  0  0  0  0  0  0  0  0  0  0
   34.7420   19.6580   32.0050 C   0  0  0  0  0  0  0  0  0  0  0  0
   35.2900   18.5000   32.8630 C   0  0  0  0  0  0  0  0  0  0  0  0
   35.6920   17.3720   31.9910 C   0  0  0  0  0  0  0  0  0  0  0  0
   36.5830   17.6150   30.9610 C   0  0  0  0  0  0  0  0  0  0  0  0
   37.0470   16.6770   30.0740 C   0  0  0  0  0  0  0  0  0  0  0  0
   36.5640   15.3780   30.2500 C   0  0  0  0  0  0  0  0  0  0  0  0
   35.6620   15.1230   31.2900 C   0  0  0  0  0  0  0  0  0  0  0  0
   35.2530   16.1080   32.1230 N   0  0  0  0  0  0  0  0  0  0  0  0
   39.3590   26.5140   34.6410 C   0  0  0  0  0  0  0  0  0  0  0  0
   38.7290   27.2630   35.7960 C   0  0  0  0  0  0  0  0  0  0  0  0
   38.9370   27.1670   33.3290 C   0  0  0  0  0  0  0  0  0  0  0  0
   40.8730   26.6350   34.7080 C   0  0  0  0  0  0  0  0  0  0  0  0
   37.6896   25.1868   32.9767 H   0  0  0  0  0  0  0  0  0  0  0  0
   39.7226   22.2980   36.3782 H   0  0  0  0  0  0  0  0  0  0  0  0
   36.5423   20.7275   34.1157 H   0  0  0  0  0  0  0  0  0  0  0  0
   35.1623   21.9388   30.2569 H   0  0  0  0  0  0  0  0  0  0  0  0
   33.7122   19.8789   32.3223 H   0  0  0  0  0  0  0  0  0  0  0  0
   34.7746   19.3454   30.9509 H   0  0  0  0  0  0  0  0  0  0  0  0
   36.1636   18.8499   33.4325 H   0  0  0  0  0  0  0  0  0  0  0  0
   34.5059   18.1603   33.5557 H   0  0  0  0  0  0  0  0  0  0  0  0
   36.9497   18.6454   30.8436 H   0  0  0  0  0  0  0  0  0  0  0  0
   37.7563   16.9322   29.2729 H   0  0  0  0  0  0  0  0  0  0  0  0
   36.8878   14.5671   29.5810 H   0  0  0  0  0  0  0  0  0  0  0  0
   35.2783   14.1020   31.4328 H   0  0  0  0  0  0  0  0  0  0  0  0
   39.0857   26.8389   36.7462 H   0  0  0  0  0  0  0  0  0  0  0  0
   39.0091   28.3253   35.7405 H   0  0  0  0  0  0  0  0  0  0  0  0
   37.6344   27.1690   35.7405 H   0  0  0  0  0  0  0  0  0  0  0  0
   38.3513   28.0733   33.5423 H   0  0  0  0  0  0  0  0  0  0  0  0
   39.8320   27.4368   32.7492 H   0  0  0  0  0  0  0  0  0  0  0  0
   38.3233   26.4618   32.7492 H   0  0  0  0  0  0  0  0  0  0  0  0
   41.1926   26.6605   35.7602 H   0  0  0  0  0  0  0  0  0  0  0  0
   41.3325   25.7707   34.2061 H   0  0  0  0  0  0  0  0  0  0  0  0
   41.1894   27.5613   34.2061 H   0  0  0  0  0  0  0  0  0  0  0  0
  1  6  1  0
  2  1  2  0
  2  3  1  0
  3  4  2  0
  4  5  1  0
  6  5  2  0
  7  8  2  0
  7  1  1  0
  9  8  1  0
 10 11  1  0
 10  9  2  0
 11  7  1  0
 12  9  1  0
 12 13  1  0
 14 19  1  0
 14 13  1  0
 15 14  2  0
 16 17  2  0
 16 15  1  0
 17 18  1  0
 18 19  2  0
 20  3  1  0
 20 23  1  0
 20 21  1  0
 22 20  1  0
  2 24  1  0
  5 25  1  0
  8 26  1  0
 10 27  1  0
 12 28  1  0
 12 29  1  0
 13 30  1  0
 13 31  1  0
 15 32  1  0
 16 33  1  0
 17 34  1  0
 18 35  1  0
 21 36  1  0
 21 37  1  0
 21 38  1  0
 22 39  1  0
 22 40  1  0
 22 41  1  0
 23 42  1  0
 23 43  1  0
 23 44  1  0
M  ISO  8  24  14  25  14  26  14  27  14  28   8  29   8  30   8  31   8
M  ISO  8  32  14  33  14  34  14  35  14  36   8  37   8  38   8  39   8
M  ISO  5  40   8  41   8  42   8  43   8  44   8
M  END
>  <minimizedAffinity>  (1) 
-5.14792633

>  <minimizedRMSD>  (1) 
1.64824951

$$$$
