
     RDKit          3D

 45 47  0  0  0  0  0  0  0  0999 V2000
   36.9780   22.4600   32.9170 C   0  0  0  0  0  0  0  0  0  0  0  0
   36.3420   21.2660   33.2380 C   0  0  0  0  0  0  0  0  0  0  0  0
   35.6340   20.8200   32.1560 C   0  0  0  0  0  0  0  0  0  0  0  0
   35.8770   21.7930   31.1930 C   0  0  0  0  0  0  0  0  0  0  0  0
   36.6720   22.7320   31.6950 O   0  0  0  0  0  0  0  0  0  0  0  0
   37.8010   23.1640   33.8720 C   0  0  0  0  0  0  0  0  0  0  0  0
   38.1620   24.4890   33.7930 C   0  0  0  0  0  0  0  0  0  0  0  0
   38.9520   25.0860   34.7500 C   0  0  0  0  0  0  0  0  0  0  0  0
   39.3600   24.3080   35.7760 N   0  0  0  0  0  0  0  0  0  0  0  0
   39.0070   22.9960   35.8620 C   0  0  0  0  0  0  0  0  0  0  0  0
   38.2370   22.4140   34.9300 N   0  0  0  0  0  0  0  0  0  0  0  0
   39.3490   26.4970   34.6840 C   0  0  0  0  0  0  0  0  0  0  0  0
   38.7150   27.3220   35.7860 C   0  0  0  0  0  0  0  0  0  0  0  0
   38.9420   27.1120   33.3440 C   0  0  0  0  0  0  0  0  0  0  0  0
   40.8660   26.5620   34.7610 C   0  0  0  0  0  0  0  0  0  0  0  0
   34.7940   19.6180   31.9660 C   0  0  0  0  0  0  0  0  0  0  0  0
   35.2410   18.4720   32.8950 C   0  0  0  0  0  0  0  0  0  0  0  0
   35.7660   17.3560   32.0600 C   0  0  0  0  0  0  0  0  0  0  0  0
   36.5930   17.4930   30.9700 C   0  0  0  0  0  0  0  0  0  0  0  0
   37.0240   16.3960   30.2620 C   0  0  0  0  0  0  0  0  0  0  0  0
   36.6490   15.1030   30.6100 C   0  0  0  0  0  0  0  0  0  0  0  0
   35.8110   14.9220   31.7090 C   0  0  0  0  0  0  0  0  0  0  0  0
   35.4020   16.0500   32.3910 C   0  0  0  0  0  0  0  0  0  0  0  0
   36.3994   20.7582   34.2121 H   0  0  0  0  0  0  0  0  0  0  0  0
   35.4723   21.7865   30.1702 H   0  0  0  0  0  0  0  0  0  0  0  0
   37.8095   25.0889   32.9410 H   0  0  0  0  0  0  0  0  0  0  0  0
   39.3613   22.3992   36.7154 H   0  0  0  0  0  0  0  0  0  0  0  0
   39.0211   26.9237   36.7646 H   0  0  0  0  0  0  0  0  0  0  0  0
   39.0440   28.3678   35.6966 H   0  0  0  0  0  0  0  0  0  0  0  0
   37.6197   27.2733   35.6966 H   0  0  0  0  0  0  0  0  0  0  0  0
   38.3430   28.0171   33.5228 H   0  0  0  0  0  0  0  0  0  0  0  0
   39.8441   27.3763   32.7727 H   0  0  0  0  0  0  0  0  0  0  0  0
   38.3462   26.3849   32.7727 H   0  0  0  0  0  0  0  0  0  0  0  0
   41.1794   26.5754   35.8153 H   0  0  0  0  0  0  0  0  0  0  0  0
   41.2965   25.6815   34.2617 H   0  0  0  0  0  0  0  0  0  0  0  0
   41.2197   27.4761   34.2617 H   0  0  0  0  0  0  0  0  0  0  0  0
   33.7474   19.8729   32.1889 H   0  0  0  0  0  0  0  0  0  0  0  0
   34.8982   19.2819   30.9238 H   0  0  0  0  0  0  0  0  0  0  0  0
   36.0305   18.8309   33.5716 H   0  0  0  0  0  0  0  0  0  0  0  0
   34.3878   18.1217   33.4944 H   0  0  0  0  0  0  0  0  0  0  0  0
   36.9154   18.4977   30.6591 H   0  0  0  0  0  0  0  0  0  0  0  0
   37.6846   16.5455   29.3952 H   0  0  0  0  0  0  0  0  0  0  0  0
   37.0067   14.2399   30.0294 H   0  0  0  0  0  0  0  0  0  0  0  0
   35.4878   13.9179   32.0210 H   0  0  0  0  0  0  0  0  0  0  0  0
   34.7408   15.9094   33.2588 H   0  0  0  0  0  0  0  0  0  0  0  0
  1  2  2  0
  1  6  1  0
  3  2  1  0
  4  5  1  0
  4  3  2  0
  5  1  1  0
  6 11  1  0
  7  6  2  0
  7  8  1  0
  8  9  2  0
  9 10  1  0
 11 10  2  0
 12  8  1  0
 12 15  1  0
 12 13  1  0
 14 12  1  0
 16  3  1  0
 16 17  1  0
 18 23  1  0
 18 17  1  0
 19 18  2  0
 20 21  2  0
 20 19  1  0
 21 22  1  0
 22 23  2  0
  2 24  1  0
  4 25  1  0
  7 26  1  0
 10 27  1  0
 13 28  1  0
 13 29  1  0
 13 30  1  0
 14 31  1  0
 14 32  1  0
 14 33  1  0
 15 34  1  0
 15 35  1  0
 15 36  1  0
 16 37  1  0
 16 38  1  0
 17 39  1  0
 17 40  1  0
 19 41  1  0
 20 42  1  0
 21 43  1  0
 22 44  1  0
 23 45  1  0
M  ISO  8  24  14  25  14  26  14  27  14  28   8  29   8  30   8  31   8
M  ISO  8  32   8  33   8  34   8  35   8  36   8  37   8  38   8  39   8
M  ISO  6  40   8  41  14  42  14  43  14  44  14  45  14
M  END
>  <minimizedAffinity>  (1) 
-5.26283646

>  <minimizedRMSD>  (1) 
1.66688693

$$$$
