
     RDKit          3D

 45 47  0  0  0  0  0  0  0  0999 V2000
   38.2520   23.1780   34.7210 C   0  0  0  0  0  0  0  0  0  0  0  0
   38.6680   24.4480   34.3210 C   0  0  0  0  0  0  0  0  0  0  0  0
   38.6110   25.2990   35.3820 C   0  0  0  0  0  0  0  0  0  0  0  0
   38.1490   24.4930   36.4190 C   0  0  0  0  0  0  0  0  0  0  0  0
   37.9510   23.2440   35.9810 O   0  0  0  0  0  0  0  0  0  0  0  0
   38.2100   22.0650   33.7970 C   0  0  0  0  0  0  0  0  0  0  0  0
   37.0800   21.4530   33.3160 C   0  0  0  0  0  0  0  0  0  0  0  0
   37.1280   20.4000   32.4390 C   0  0  0  0  0  0  0  0  0  0  0  0
   38.3490   19.9820   32.0660 N   0  0  0  0  0  0  0  0  0  0  0  0
   39.4900   20.5680   32.5280 C   0  0  0  0  0  0  0  0  0  0  0  0
   39.4310   21.6000   33.3860 N   0  0  0  0  0  0  0  0  0  0  0  0
   35.9270   19.7490   31.9250 C   0  0  0  0  0  0  0  0  0  0  0  0
   36.1190   19.2130   30.5080 C   0  0  0  0  0  0  0  0  0  0  0  0
   34.7430   20.7170   31.8930 C   0  0  0  0  0  0  0  0  0  0  0  0
   35.5520   18.6260   32.8680 C   0  0  0  0  0  0  0  0  0  0  0  0
   38.9330   26.7240   35.5000 C   0  0  0  0  0  0  0  0  0  0  0  0
   37.6690   27.6040   35.4140 C   0  0  0  0  0  0  0  0  0  0  0  0
   37.4470   27.8290   33.9780 N   0  0  0  0  0  0  0  0  0  0  0  0
   38.3150   27.4820   33.0100 C   0  0  0  0  0  0  0  0  0  0  0  0
   38.0320   27.7290   31.6850 C   0  0  0  0  0  0  0  0  0  0  0  0
   36.8460   28.3420   31.2990 C   0  0  0  0  0  0  0  0  0  0  0  0
   36.5200   28.5970   30.1110 O   0  0  0  0  0  0  0  0  0  0  0  0
   35.9910   28.6800   32.2750 N   0  0  0  0  0  0  0  0  0  0  0  0
   36.3100   28.4200   33.5500 C   0  0  0  0  0  0  0  0  0  0  0  0
   35.4830   28.7500   34.4650 O   0  0  0  0  0  0  0  0  0  0  0  0
   38.9919   24.7197   33.3055 H   0  0  0  0  0  0  0  0  0  0  0  0
   37.9722   24.8337   37.4498 H   0  0  0  0  0  0  0  0  0  0  0  0
   36.0977   21.8213   33.6467 H   0  0  0  0  0  0  0  0  0  0  0  0
   40.4686   20.1920   32.1949 H   0  0  0  0  0  0  0  0  0  0  0  0
   36.4896   18.1784   30.5544 H   0  0  0  0  0  0  0  0  0  0  0  0
   35.1573   19.2344   29.9744 H   0  0  0  0  0  0  0  0  0  0  0  0
   36.8484   19.8402   29.9744 H   0  0  0  0  0  0  0  0  0  0  0  0
   34.4424   20.9628   32.9222 H   0  0  0  0  0  0  0  0  0  0  0  0
   35.0361   21.6375   31.3669 H   0  0  0  0  0  0  0  0  0  0  0  0
   33.8991   20.2468   31.3669 H   0  0  0  0  0  0  0  0  0  0  0  0
   35.6658   18.9668   33.9077 H   0  0  0  0  0  0  0  0  0  0  0  0
   34.5069   18.3320   32.6908 H   0  0  0  0  0  0  0  0  0  0  0  0
   36.2107   17.7631   32.6908 H   0  0  0  0  0  0  0  0  0  0  0  0
   39.4242   26.8994   36.4685 H   0  0  0  0  0  0  0  0  0  0  0  0
   39.5970   26.9955   34.6661 H   0  0  0  0  0  0  0  0  0  0  0  0
   36.8077   27.0851   35.8599 H   0  0  0  0  0  0  0  0  0  0  0  0
   37.7909   28.5498   35.9623 H   0  0  0  0  0  0  0  0  0  0  0  0
   39.2632   26.9946   33.2806 H   0  0  0  0  0  0  0  0  0  0  0  0
   38.7607   27.4346   30.9154 H   0  0  0  0  0  0  0  0  0  0  0  0
   35.0961   29.1359   32.0464 H   0  0  0  0  0  0  0  0  0  0  0  0
  1  5  1  0
  2  1  2  0
  2  3  1  0
  3 16  1  0
  3  4  2  0
  5  4  1  0
  6  1  1  0
  7  6  2  0
  8  7  1  0
  9  8  2  0
  9 10  1  0
 10 11  2  0
 11  6  1  0
 12  8  1  0
 12 15  1  0
 13 12  1  0
 14 12  1  0
 17 16  1  0
 18 17  1  0
 19 18  1  0
 20 19  2  0
 21 20  1  0
 21 23  1  0
 22 21  2  0
 23 24  1  0
 24 18  1  0
 24 25  2  0
  2 26  1  0
  4 27  1  0
  7 28  1  0
 10 29  1  0
 13 30  1  0
 13 31  1  0
 13 32  1  0
 14 33  1  0
 14 34  1  0
 14 35  1  0
 15 36  1  0
 15 37  1  0
 15 38  1  0
 16 39  1  0
 16 40  1  0
 17 41  1  0
 17 42  1  0
 19 43  1  0
 20 44  1  0
 23 45  1  0
M  ISO  8  26  14  27  14  28  14  29  14  30   8  31   8  32   8  33   8
M  ISO  8  34   8  35   8  36   8  37   8  38   8  39   8  40   8  41   8
M  ISO  4  42   8  43  14  44  14  45   9
M  END
>  <minimizedAffinity>  (1) 
-5.21540594

>  <minimizedRMSD>  (1) 
8.90070724

$$$$
