
     RDKit          3D

 42 43  0  0  0  0  0  0  0  0999 V2000
   36.9850   22.3810   32.9240 C   0  0  0  0  0  0  0  0  0  0  0  0
   36.3720   21.1850   33.2450 C   0  0  0  0  0  0  0  0  0  0  0  0
   35.6710   20.7260   32.1480 C   0  0  0  0  0  0  0  0  0  0  0  0
   35.9120   21.7110   31.1920 C   0  0  0  0  0  0  0  0  0  0  0  0
   36.6910   22.6630   31.7000 O   0  0  0  0  0  0  0  0  0  0  0  0
   37.7970   23.0960   33.9000 C   0  0  0  0  0  0  0  0  0  0  0  0
   38.1290   24.4460   33.8230 C   0  0  0  0  0  0  0  0  0  0  0  0
   38.9030   25.0320   34.7980 C   0  0  0  0  0  0  0  0  0  0  0  0
   39.3160   24.2580   35.8110 N   0  0  0  0  0  0  0  0  0  0  0  0
   38.9910   22.9320   35.8910 C   0  0  0  0  0  0  0  0  0  0  0  0
   38.2360   22.3530   34.9420 N   0  0  0  0  0  0  0  0  0  0  0  0
   39.2670   26.4580   34.7340 C   0  0  0  0  0  0  0  0  0  0  0  0
   38.6700   27.2470   35.8880 C   0  0  0  0  0  0  0  0  0  0  0  0
   38.7920   27.0920   33.4390 C   0  0  0  0  0  0  0  0  0  0  0  0
   40.7700   26.5600   34.7530 C   0  0  0  0  0  0  0  0  0  0  0  0
   34.8540   19.5050   31.9710 C   0  0  0  0  0  0  0  0  0  0  0  0
   35.3220   18.3980   32.9140 C   0  0  0  0  0  0  0  0  0  0  0  0
   35.8870   17.3600   32.0570 N   0  0  0  0  0  0  0  0  0  0  0  0
   35.2310   16.0820   31.9560 C   0  0  0  0  0  0  0  0  0  0  0  0
   34.6290   15.6220   32.9750 N   0  0  0  0  0  0  0  0  0  0  0  0
   35.2580   15.3400   30.7410 N   0  0  0  0  0  0  0  0  0  0  0  0
   34.5190   16.0160   33.9070 H   0  0  0  0  0  0  0  0  0  0  0  0
   36.4329   20.6790   34.2198 H   0  0  0  0  0  0  0  0  0  0  0  0
   35.5157   21.7028   30.1659 H   0  0  0  0  0  0  0  0  0  0  0  0
   37.7696   25.0488   32.9760 H   0  0  0  0  0  0  0  0  0  0  0  0
   39.3512   22.3334   36.7407 H   0  0  0  0  0  0  0  0  0  0  0  0
   39.0011   26.8095   36.8414 H   0  0  0  0  0  0  0  0  0  0  0  0
   39.0047   28.2932   35.8288 H   0  0  0  0  0  0  0  0  0  0  0  0
   37.5722   27.2093   35.8288 H   0  0  0  0  0  0  0  0  0  0  0  0
   38.1468   27.9531   33.6674 H   0  0  0  0  0  0  0  0  0  0  0  0
   39.6613   27.4296   32.8556 H   0  0  0  0  0  0  0  0  0  0  0  0
   38.2237   26.3526   32.8556 H   0  0  0  0  0  0  0  0  0  0  0  0
   41.1227   26.5839   35.7946 H   0  0  0  0  0  0  0  0  0  0  0  0
   41.2031   25.6892   34.2391 H   0  0  0  0  0  0  0  0  0  0  0  0
   41.0815   27.4814   34.2391 H   0  0  0  0  0  0  0  0  0  0  0  0
   33.8014   19.7410   32.1862 H   0  0  0  0  0  0  0  0  0  0  0  0
   34.9635   19.1546   30.9340 H   0  0  0  0  0  0  0  0  0  0  0  0
   36.0861   18.7816   33.6061 H   0  0  0  0  0  0  0  0  0  0  0  0
   34.4949   18.0115   33.5276 H   0  0  0  0  0  0  0  0  0  0  0  0
   36.7513   17.5410   31.5268 H   0  0  0  0  0  0  0  0  0  0  0  0
   34.7841   14.4273   30.6843 H   0  0  0  0  0  0  0  0  0  0  0  0
   35.7515   15.7160   29.9188 H   0  0  0  0  0  0  0  0  0  0  0  0
  1  2  2  0
  1  6  1  0
  3  2  1  0
  4  5  1  0
  4  3  2  0
  5  1  1  0
  6 11  1  0
  7  6  2  0
  7  8  1  0
  8  9  2  0
  9 10  1  0
 11 10  2  0
 12 15  1  0
 12  8  1  0
 12 13  1  0
 14 12  1  0
 16  3  1  0
 16 17  1  0
 18 17  1  0
 19 18  1  0
 19 20  2  0
 20 22  1  0
 21 19  1  0
  2 23  1  0
  4 24  1  0
  7 25  1  0
 10 26  1  0
 13 27  1  0
 13 28  1  0
 13 29  1  0
 14 30  1  0
 14 31  1  0
 14 32  1  0
 15 33  1  0
 15 34  1  0
 15 35  1  0
 16 36  1  0
 16 37  1  0
 17 38  1  0
 17 39  1  0
 18 40  1  0
 21 41  1  0
 21 42  1  0
M  ISO  8  23  14  24  14  25  14  26  14  27   8  28   8  29   8  30   8
M  ISO  8  31   8  32   8  33   8  34   8  35   8  36   8  37   8  38   8
M  ISO  1  39   8
M  END
>  <minimizedAffinity>  (1) 
-5.11918545

>  <minimizedRMSD>  (1) 
1.79682386

$$$$
