
     RDKit          3D

 48 50  0  0  0  0  0  0  0  0999 V2000
   37.0270   22.3560   32.8160 C   0  0  0  0  0  0  0  0  0  0  0  0
   37.3770   21.0680   32.4430 C   0  0  0  0  0  0  0  0  0  0  0  0
   36.5330   20.6310   31.4630 C   0  0  0  0  0  0  0  0  0  0  0  0
   35.6770   21.7150   31.2760 C   0  0  0  0  0  0  0  0  0  0  0  0
   36.0200   22.6980   32.1020 O   0  0  0  0  0  0  0  0  0  0  0  0
   37.7630   23.0720   33.8490 C   0  0  0  0  0  0  0  0  0  0  0  0
   38.0870   24.4130   33.8040 C   0  0  0  0  0  0  0  0  0  0  0  0
   38.7870   25.0170   34.8250 C   0  0  0  0  0  0  0  0  0  0  0  0
   39.1410   24.2390   35.8660 N   0  0  0  0  0  0  0  0  0  0  0  0
   38.8220   22.9050   35.9160 C   0  0  0  0  0  0  0  0  0  0  0  0
   38.1380   22.3260   34.9140 N   0  0  0  0  0  0  0  0  0  0  0  0
   39.1390   26.4370   34.7980 C   0  0  0  0  0  0  0  0  0  0  0  0
   38.5650   27.1930   35.9880 C   0  0  0  0  0  0  0  0  0  0  0  0
   38.6150   27.1020   33.5330 C   0  0  0  0  0  0  0  0  0  0  0  0
   40.6470   26.5470   34.7910 C   0  0  0  0  0  0  0  0  0  0  0  0
   36.4620   19.3530   30.7230 C   0  0  0  0  0  0  0  0  0  0  0  0
   37.5900   18.4080   31.1140 C   0  0  0  0  0  0  0  0  0  0  0  0
   36.0450   14.8410   32.9400 C   0  0  0  0  0  0  0  0  0  0  0  0
   35.2010   15.8780   32.6460 C   0  0  0  0  0  0  0  0  0  0  0  0
   35.6300   17.0310   32.0700 C   0  0  0  0  0  0  0  0  0  0  0  0
   36.9640   17.2100   31.7470 C   0  0  0  0  0  0  0  0  0  0  0  0
   37.8140   16.1420   32.0530 C   0  0  0  0  0  0  0  0  0  0  0  0
   37.4030   14.9600   32.6400 C   0  0  0  0  0  0  0  0  0  0  0  0
   35.5730   13.3290   33.6800 S   0  0  0  0  0  0  0  0  0  0  0  0
   34.6110   12.6510   32.7690 O   0  0  0  0  0  0  0  0  0  0  0  0
   34.9540   13.5640   35.0230 O   0  0  0  0  0  0  0  0  0  0  0  0
   38.2073   20.4870   32.8709 H   0  0  0  0  0  0  0  0  0  0  0  0
   34.8461   21.7513   30.5561 H   0  0  0  0  0  0  0  0  0  0  0  0
   37.7796   25.0121   32.9342 H   0  0  0  0  0  0  0  0  0  0  0  0
   39.1290   22.3038   36.7845 H   0  0  0  0  0  0  0  0  0  0  0  0
   38.9170   26.7294   36.9214 H   0  0  0  0  0  0  0  0  0  0  0  0
   38.8969   28.2411   35.9513 H   0  0  0  0  0  0  0  0  0  0  0  0
   37.4663   27.1549   35.9513 H   0  0  0  0  0  0  0  0  0  0  0  0
   37.9554   27.9391   33.8051 H   0  0  0  0  0  0  0  0  0  0  0  0
   39.4609   27.4796   32.9399 H   0  0  0  0  0  0  0  0  0  0  0  0
   38.0500   26.3678   32.9399 H   0  0  0  0  0  0  0  0  0  0  0  0
   41.0175   26.5740   35.8264 H   0  0  0  0  0  0  0  0  0  0  0  0
   41.0756   25.6777   34.2708 H   0  0  0  0  0  0  0  0  0  0  0  0
   40.9450   27.4693   34.2708 H   0  0  0  0  0  0  0  0  0  0  0  0
   36.5303   19.5617   29.6451 H   0  0  0  0  0  0  0  0  0  0  0  0
   35.5074   18.8667   30.9727 H   0  0  0  0  0  0  0  0  0  0  0  0
   38.1574   18.1087   30.2205 H   0  0  0  0  0  0  0  0  0  0  0  0
   38.2859   18.8984   31.8106 H   0  0  0  0  0  0  0  0  0  0  0  0
   34.1326   15.7734   32.8858 H   0  0  0  0  0  0  0  0  0  0  0  0
   34.9078   17.8330   31.8575 H   0  0  0  0  0  0  0  0  0  0  0  0
   38.8814   16.2501   31.8101 H   0  0  0  0  0  0  0  0  0  0  0  0
   38.1138   14.1500   32.8607 H   0  0  0  0  0  0  0  0  0  0  0  0
   36.6753   12.5387   33.8732 H   0  0  0  0  0  0  0  0  0  0  0  0
  1  6  1  0
  2  1  2  0
  3  2  1  0
  4  3  2  0
  4  5  1  0
  5  1  1  0
  6 11  1  0
  7  6  2  0
  7  8  1  0
  8  9  2  0
  9 10  1  0
 11 10  2  0
 12  8  1  0
 12 13  1  0
 14 12  1  0
 15 12  1  0
 16 17  1  0
 16  3  1  0
 17 21  1  0
 18 24  1  0
 19 18  2  0
 20 19  1  0
 21 22  1  0
 21 20  2  0
 22 23  2  0
 23 18  1  0
 24 26  2  0
 25 24  2  0
  2 27  1  0
  4 28  1  0
  7 29  1  0
 10 30  1  0
 13 31  1  0
 13 32  1  0
 13 33  1  0
 14 34  1  0
 14 35  1  0
 14 36  1  0
 15 37  1  0
 15 38  1  0
 15 39  1  0
 16 40  1  0
 16 41  1  0
 17 42  1  0
 17 43  1  0
 19 44  1  0
 20 45  1  0
 22 46  1  0
 23 47  1  0
 24 48  1  0
M  ISO  8  27  14  28  14  29  14  30  14  31   8  32   8  33   8  34   8
M  ISO  8  35   8  36   8  37   8  38   8  39   8  40   8  41   8  42   8
M  ISO  6  43   8  44  14  45  14  46  14  47  14  48  11
M  END
>  <minimizedAffinity>  (1) 
-5.1330328

>  <minimizedRMSD>  (1) 
2.34076118

$$$$
