
     RDKit          3D

 43 45  0  0  0  0  0  0  0  0999 V2000
   37.7920   23.1350   33.8970 C   0  0  0  0  0  0  0  0  0  0  0  0
   38.1320   24.4670   33.8290 C   0  0  0  0  0  0  0  0  0  0  0  0
   38.9210   25.0590   34.7950 C   0  0  0  0  0  0  0  0  0  0  0  0
   39.3430   24.2770   35.8040 N   0  0  0  0  0  0  0  0  0  0  0  0
   39.0120   22.9560   35.8810 C   0  0  0  0  0  0  0  0  0  0  0  0
   38.2430   22.3800   34.9400 N   0  0  0  0  0  0  0  0  0  0  0  0
   36.9710   22.4280   32.9330 C   0  0  0  0  0  0  0  0  0  0  0  0
   36.3340   21.2260   33.2630 C   0  0  0  0  0  0  0  0  0  0  0  0
   35.6330   20.7750   32.1870 C   0  0  0  0  0  0  0  0  0  0  0  0
   35.8780   21.7460   31.2190 C   0  0  0  0  0  0  0  0  0  0  0  0
   36.6740   22.6980   31.7140 O   0  0  0  0  0  0  0  0  0  0  0  0
   34.7970   19.5840   31.9850 C   0  0  0  0  0  0  0  0  0  0  0  0
   35.2780   18.4080   32.8560 C   0  0  0  0  0  0  0  0  0  0  0  0
   35.7580   17.3460   31.9010 C   0  0  0  0  0  0  0  0  0  0  0  0
   36.6480   17.5550   30.8690 C   0  0  0  0  0  0  0  0  0  0  0  0
   37.0210   16.5060   30.0510 C   0  0  0  0  0  0  0  0  0  0  0  0
   36.5040   15.2640   30.2700 N   0  0  0  0  0  0  0  0  0  0  0  0
   35.6260   15.0670   31.2900 C   0  0  0  0  0  0  0  0  0  0  0  0
   35.2670   16.0840   32.0800 N   0  0  0  0  0  0  0  0  0  0  0  0
   39.2940   26.4670   34.7450 C   0  0  0  0  0  0  0  0  0  0  0  0
   38.6960   27.2740   35.8800 C   0  0  0  0  0  0  0  0  0  0  0  0
   38.8240   27.1140   33.4330 C   0  0  0  0  0  0  0  0  0  0  0  0
   40.7960   26.5740   34.7580 C   0  0  0  0  0  0  0  0  0  0  0  0
   37.7671   25.0731   32.9866 H   0  0  0  0  0  0  0  0  0  0  0  0
   39.3793   22.3533   36.7247 H   0  0  0  0  0  0  0  0  0  0  0  0
   36.3911   20.7239   34.2401 H   0  0  0  0  0  0  0  0  0  0  0  0
   35.4747   21.7312   30.1957 H   0  0  0  0  0  0  0  0  0  0  0  0
   33.7578   19.8262   32.2522 H   0  0  0  0  0  0  0  0  0  0  0  0
   34.8678   19.2853   30.9287 H   0  0  0  0  0  0  0  0  0  0  0  0
   36.1000   18.7306   33.5119 H   0  0  0  0  0  0  0  0  0  0  0  0
   34.4710   18.0312   33.5016 H   0  0  0  0  0  0  0  0  0  0  0  0
   37.0621   18.5594   30.6965 H   0  0  0  0  0  0  0  0  0  0  0  0
   37.7312   16.6722   29.2276 H   0  0  0  0  0  0  0  0  0  0  0  0
   35.2087   14.0646   31.4660 H   0  0  0  0  0  0  0  0  0  0  0  0
   39.0137   26.8452   36.8419 H   0  0  0  0  0  0  0  0  0  0  0  0
   39.0417   28.3160   35.8109 H   0  0  0  0  0  0  0  0  0  0  0  0
   37.5985   27.2465   35.8109 H   0  0  0  0  0  0  0  0  0  0  0  0
   38.1914   27.9849   33.6597 H   0  0  0  0  0  0  0  0  0  0  0  0
   39.6987   27.4380   32.8500 H   0  0  0  0  0  0  0  0  0  0  0  0
   38.2454   26.3823   32.8500 H   0  0  0  0  0  0  0  0  0  0  0  0
   41.1528   26.5994   35.7982 H   0  0  0  0  0  0  0  0  0  0  0  0
   41.2300   25.7045   34.2426 H   0  0  0  0  0  0  0  0  0  0  0  0
   41.1024   27.4962   34.2426 H   0  0  0  0  0  0  0  0  0  0  0  0
  1  6  1  0
  2  1  2  0
  2  3  1  0
  3  4  2  0
  4  5  1  0
  6  5  2  0
  7  8  2  0
  7  1  1  0
  9  8  1  0
 10 11  1  0
 10  9  2  0
 11  7  1  0
 12  9  1  0
 12 13  1  0
 14 19  1  0
 14 13  1  0
 15 14  2  0
 16 17  2  0
 16 15  1  0
 17 18  1  0
 18 19  2  0
 20 23  1  0
 20  3  1  0
 20 21  1  0
 22 20  1  0
  2 24  1  0
  5 25  1  0
  8 26  1  0
 10 27  1  0
 12 28  1  0
 12 29  1  0
 13 30  1  0
 13 31  1  0
 15 32  1  0
 16 33  1  0
 18 34  1  0
 21 35  1  0
 21 36  1  0
 21 37  1  0
 22 38  1  0
 22 39  1  0
 22 40  1  0
 23 41  1  0
 23 42  1  0
 23 43  1  0
M  ISO  8  24  14  25  14  26  14  27  14  28   8  29   8  30   8  31   8
M  ISO  8  32  14  33  14  34  14  35   8  36   8  37   8  38   8  39   8
M  ISO  4  40   8  41   8  42   8  43   8
M  END
>  <minimizedAffinity>  (1) 
-5.13527107

>  <minimizedRMSD>  (1) 
1.7278831

$$$$
