
     RDKit          3D

 41 43  0  0  0  0  0  0  0  0999 V2000
   37.5530   22.0130   35.0920 C   0  0  0  0  0  0  0  0  0  0  0  0
   37.2070   21.4280   33.8830 C   0  0  0  0  0  0  0  0  0  0  0  0
   36.1100   20.5920   33.7990 C   0  0  0  0  0  0  0  0  0  0  0  0
   35.4080   20.3770   34.9290 N   0  0  0  0  0  0  0  0  0  0  0  0
   35.7550   20.9550   36.1100 C   0  0  0  0  0  0  0  0  0  0  0  0
   36.8160   21.7660   36.1990 N   0  0  0  0  0  0  0  0  0  0  0  0
   38.6930   22.9020   35.2690 C   0  0  0  0  0  0  0  0  0  0  0  0
   38.6050   24.2480   34.9050 C   0  0  0  0  0  0  0  0  0  0  0  0
   39.7980   24.8630   35.1700 C   0  0  0  0  0  0  0  0  0  0  0  0
   40.5750   23.8400   35.6960 C   0  0  0  0  0  0  0  0  0  0  0  0
   39.8690   22.7050   35.7300 O   0  0  0  0  0  0  0  0  0  0  0  0
   40.2290   26.2540   34.9750 C   0  0  0  0  0  0  0  0  0  0  0  0
   39.1310   27.2450   35.4180 C   0  0  0  0  0  0  0  0  0  0  0  0
   38.2460   27.4110   34.2570 N   0  0  0  0  0  0  0  0  0  0  0  0
   36.9130   27.6780   34.3180 C   0  0  0  0  0  0  0  0  0  0  0  0
   36.3870   27.7720   33.0900 N   0  0  0  0  0  0  0  0  0  0  0  0
   37.4170   27.5580   32.2370 C   0  0  0  0  0  0  0  0  0  0  0  0
   38.5240   27.3450   32.9660 N   0  0  0  0  0  0  0  0  0  0  0  0
   35.7150   19.9590   32.5450 C   0  0  0  0  0  0  0  0  0  0  0  0
   35.3440   18.5060   32.7060 C   0  0  0  0  0  0  0  0  0  0  0  0
   36.8380   20.0370   31.5040 C   0  0  0  0  0  0  0  0  0  0  0  0
   34.5430   20.7470   31.9700 C   0  0  0  0  0  0  0  0  0  0  0  0
   37.8096   21.6308   32.9854 H   0  0  0  0  0  0  0  0  0  0  0  0
   35.1530   20.7524   37.0081 H   0  0  0  0  0  0  0  0  0  0  0  0
   37.7180   24.7355   34.4741 H   0  0  0  0  0  0  0  0  0  0  0  0
   41.6162   23.9471   36.0344 H   0  0  0  0  0  0  0  0  0  0  0  0
   41.1369   26.4351   35.5690 H   0  0  0  0  0  0  0  0  0  0  0  0
   40.4287   26.4104   33.9047 H   0  0  0  0  0  0  0  0  0  0  0  0
   38.5697   26.8375   36.2718 H   0  0  0  0  0  0  0  0  0  0  0  0
   39.5598   28.2056   35.7395 H   0  0  0  0  0  0  0  0  0  0  0  0
   36.3437   27.8003   35.2512 H   0  0  0  0  0  0  0  0  0  0  0  0
   37.3570   27.5586   31.1386 H   0  0  0  0  0  0  0  0  0  0  0  0
   35.2812   18.2600   33.7763 H   0  0  0  0  0  0  0  0  0  0  0  0
   34.3699   18.3213   32.2296 H   0  0  0  0  0  0  0  0  0  0  0  0
   36.1103   17.8769   32.2296 H   0  0  0  0  0  0  0  0  0  0  0  0
   37.8090   20.1044   32.0165 H   0  0  0  0  0  0  0  0  0  0  0  0
   36.8176   19.1353   30.8743 H   0  0  0  0  0  0  0  0  0  0  0  0
   36.6931   20.9272   30.8743 H   0  0  0  0  0  0  0  0  0  0  0  0
   33.9366   21.1547   32.7923 H   0  0  0  0  0  0  0  0  0  0  0  0
   34.9246   21.5727   31.3515 H   0  0  0  0  0  0  0  0  0  0  0  0
   33.9223   20.0820   31.3515 H   0  0  0  0  0  0  0  0  0  0  0  0
  1  7  1  0
  1  6  1  0
  2  1  2  0
  3  2  1  0
  3  4  2  0
  4  5  1  0
  5  6  2  0
  7 11  1  0
  8  9  1  0
  8  7  2  0
  9 10  2  0
 10 11  1  0
 12  9  1  0
 12 13  1  0
 14 15  1  0
 14 13  1  0
 16 15  2  0
 17 18  2  0
 17 16  1  0
 18 14  1  0
 19 20  1  0
 19  3  1  0
 21 19  1  0
 22 19  1  0
  2 23  1  0
  5 24  1  0
  8 25  1  0
 10 26  1  0
 12 27  1  0
 12 28  1  0
 13 29  1  0
 13 30  1  0
 15 31  1  0
 17 32  1  0
 20 33  1  0
 20 34  1  0
 20 35  1  0
 21 36  1  0
 21 37  1  0
 21 38  1  0
 22 39  1  0
 22 40  1  0
 22 41  1  0
M  ISO  8  23  14  24  14  25  14  26  14  27   8  28   8  29   8  30   8
M  ISO  8  31  14  32  14  33   8  34   8  35   8  36   8  37   8  38   8
M  ISO  3  39   8  40   8  41   8
M  END
>  <minimizedAffinity>  (1) 
-4.88072205

>  <minimizedRMSD>  (1) 
8.05077553

$$$$
