
     RDKit          3D

 45 47  0  0  0  0  0  0  0  0999 V2000
   37.9860   22.7050   34.4630 C   0  0  0  0  0  0  0  0  0  0  0  0
   37.9550   24.0510   34.1790 C   0  0  0  0  0  0  0  0  0  0  0  0
   38.3280   25.0140   35.0790 C   0  0  0  0  0  0  0  0  0  0  0  0
   38.7370   24.5600   36.2840 N   0  0  0  0  0  0  0  0  0  0  0  0
   38.7810   23.2470   36.5980 C   0  0  0  0  0  0  0  0  0  0  0  0
   38.4080   22.3130   35.6950 N   0  0  0  0  0  0  0  0  0  0  0  0
   37.6030   21.6440   33.5520 C   0  0  0  0  0  0  0  0  0  0  0  0
   36.3040   21.1210   33.5750 C   0  0  0  0  0  0  0  0  0  0  0  0
   36.2190   20.1330   32.6110 C   0  0  0  0  0  0  0  0  0  0  0  0
   37.4700   20.1100   32.0530 C   0  0  0  0  0  0  0  0  0  0  0  0
   38.2480   21.0210   32.6440 O   0  0  0  0  0  0  0  0  0  0  0  0
   35.0930   19.2830   32.2280 C   0  0  0  0  0  0  0  0  0  0  0  0
   35.2740   17.8160   32.6510 C   0  0  0  0  0  0  0  0  0  0  0  0
   35.5120   16.9690   31.5330 N   0  0  0  0  0  0  0  0  0  0  0  0
   38.3060   26.4380   34.8030 C   0  0  0  0  0  0  0  0  0  0  0  0
   39.2710   26.8300   33.6890 C   0  0  0  0  0  0  0  0  0  0  0  0
   38.7260   27.2290   36.0560 C   0  0  0  0  0  0  0  0  0  0  0  0
   36.9060   26.8650   34.4930 C   0  0  0  0  0  0  0  0  0  0  0  0
   36.6930   27.3540   33.1260 C   0  0  0  0  0  0  0  0  0  0  0  0
   36.4360   28.7230   33.0150 C   0  0  0  0  0  0  0  0  0  0  0  0
   36.2090   29.3740   31.8200 C   0  0  0  0  0  0  0  0  0  0  0  0
   36.2440   28.6180   30.6970 N   0  0  0  0  0  0  0  0  0  0  0  0
   36.4920   27.2780   30.7770 C   0  0  0  0  0  0  0  0  0  0  0  0
   36.7080   26.6830   31.9630 N   0  0  0  0  0  0  0  0  0  0  0  0
   37.6147   24.3687   33.1824 H   0  0  0  0  0  0  0  0  0  0  0  0
   39.1229   22.9355   37.5960 H   0  0  0  0  0  0  0  0  0  0  0  0
   35.4917   21.4408   34.2442 H   0  0  0  0  0  0  0  0  0  0  0  0
   37.7867   19.4409   31.2394 H   0  0  0  0  0  0  0  0  0  0  0  0
   34.1813   19.6745   32.7030 H   0  0  0  0  0  0  0  0  0  0  0  0
   35.0259   19.3021   31.1302 H   0  0  0  0  0  0  0  0  0  0  0  0
   36.1298   17.7468   33.3386 H   0  0  0  0  0  0  0  0  0  0  0  0
   34.3461   17.4842   33.1397 H   0  0  0  0  0  0  0  0  0  0  0  0
   35.7759   16.0299   31.8637 H   0  0  0  0  0  0  0  0  0  0  0  0
   34.6566   16.9044   30.9629 H   0  0  0  0  0  0  0  0  0  0  0  0
   40.2049   27.2093   34.1295 H   0  0  0  0  0  0  0  0  0  0  0  0
   39.4901   25.9496   33.0670 H   0  0  0  0  0  0  0  0  0  0  0  0
   38.8141   27.6138   33.0670 H   0  0  0  0  0  0  0  0  0  0  0  0
   38.4303   26.6721   36.9574 H   0  0  0  0  0  0  0  0  0  0  0  0
   39.8171   27.3687   36.0528 H   0  0  0  0  0  0  0  0  0  0  0  0
   38.2306   28.2111   36.0528 H   0  0  0  0  0  0  0  0  0  0  0  0
   36.2430   26.0020   34.6535 H   0  0  0  0  0  0  0  0  0  0  0  0
   36.6897   27.7132   35.1591 H   0  0  0  0  0  0  0  0  0  0  0  0
   36.4132   29.3194   33.9390 H   0  0  0  0  0  0  0  0  0  0  0  0
   36.0092   30.4550   31.7813 H   0  0  0  0  0  0  0  0  0  0  0  0
   36.5155   26.6758   29.8568 H   0  0  0  0  0  0  0  0  0  0  0  0
  1  6  1  0
  2  1  2  0
  2  3  1  0
  3  4  2  0
  4  5  1  0
  6  5  2  0
  7  8  2  0
  7  1  1  0
  9  8  1  0
 10  9  2  0
 10 11  1  0
 11  7  1  0
 12  9  1  0
 12 13  1  0
 14 13  1  0
 15  3  1  0
 15 17  1  0
 16 15  1  0
 18 15  1  0
 19 18  1  0
 20 19  2  0
 21 20  1  0
 22 23  1  0
 22 21  2  0
 23 24  2  0
 24 19  1  0
  2 25  1  0
  5 26  1  0
  8 27  1  0
 10 28  1  0
 12 29  1  0
 12 30  1  0
 13 31  1  0
 13 32  1  0
 14 33  1  0
 14 34  1  0
 16 35  1  0
 16 36  1  0
 16 37  1  0
 17 38  1  0
 17 39  1  0
 17 40  1  0
 18 41  1  0
 18 42  1  0
 20 43  1  0
 21 44  1  0
 23 45  1  0
M  ISO  8  25  14  26  14  27  14  28  14  29   8  30   8  31   8  32   8
M  ISO  8  33   5  34   5  35   8  36   8  37   8  38   8  39   8  40   8
M  ISO  5  41   8  42   8  43  14  44  14  45  14
M  END
>  <minimizedAffinity>  (1) 
-5.35930872

>  <minimizedRMSD>  (1) 
4.34184361

$$$$
