
     RDKit          3D

 50 52  0  0  0  0  0  0  0  0999 V2000
   37.8630   23.0640   33.7870 C   0  0  0  0  0  0  0  0  0  0  0  0
   37.9200   24.4320   33.9480 C   0  0  0  0  0  0  0  0  0  0  0  0
   38.7320   25.0320   34.8520 C   0  0  0  0  0  0  0  0  0  0  0  0
   39.5100   24.2010   35.6160 N   0  0  0  0  0  0  0  0  0  0  0  0
   39.4720   22.8570   35.4740 C   0  0  0  0  0  0  0  0  0  0  0  0
   38.6550   22.2750   34.5670 N   0  0  0  0  0  0  0  0  0  0  0  0
   37.0140   22.3680   32.8360 C   0  0  0  0  0  0  0  0  0  0  0  0
   36.2920   21.2280   33.2360 C   0  0  0  0  0  0  0  0  0  0  0  0
   35.5770   20.7640   32.1590 C   0  0  0  0  0  0  0  0  0  0  0  0
   35.8990   21.6460   31.1540 C   0  0  0  0  0  0  0  0  0  0  0  0
   36.7530   22.5760   31.6050 O   0  0  0  0  0  0  0  0  0  0  0  0
   34.6730   19.6140   32.0560 C   0  0  0  0  0  0  0  0  0  0  0  0
   35.2700   18.3310   32.6570 C   0  0  0  0  0  0  0  0  0  0  0  0
   36.3620   17.8410   31.8960 N   0  0  0  0  0  0  0  0  0  0  0  0
   38.8120   26.4660   35.0460 C   0  0  0  0  0  0  0  0  0  0  0  0
   38.3640   26.9130   36.4150 C   0  0  0  0  0  0  0  0  0  0  0  0
   37.9600   27.1940   34.0000 C   0  0  0  0  0  0  0  0  0  0  0  0
   40.2450   26.9160   34.8060 C   0  0  0  0  0  0  0  0  0  0  0  0
   41.2170   27.7270   30.7090 C   0  0  0  0  0  0  0  0  0  0  0  0
   39.9340   27.3380   31.0320 C   0  0  0  0  0  0  0  0  0  0  0  0
   39.6320   27.0820   32.3400 C   0  0  0  0  0  0  0  0  0  0  0  0
   40.5190   27.1790   33.3920 C   0  0  0  0  0  0  0  0  0  0  0  0
   41.8100   27.5740   33.0380 C   0  0  0  0  0  0  0  0  0  0  0  0
   42.1610   27.8440   31.7320 C   0  0  0  0  0  0  0  0  0  0  0  0
   41.6350   28.0620   29.0460 S   0  0  0  0  0  0  0  0  0  0  0  0
   42.0680   26.7910   28.3380 O   0  0  0  0  0  0  0  0  0  0  0  0
   40.4820   28.6360   28.3010 O   0  0  0  0  0  0  0  0  0  0  0  0
   37.2789   25.0636   33.3155 H   0  0  0  0  0  0  0  0  0  0  0  0
   40.1155   22.2273   36.1059 H   0  0  0  0  0  0  0  0  0  0  0  0
   36.2991   20.7834   34.2421 H   0  0  0  0  0  0  0  0  0  0  0  0
   35.5109   21.5956   30.1260 H   0  0  0  0  0  0  0  0  0  0  0  0
   33.7406   19.8511   32.5893 H   0  0  0  0  0  0  0  0  0  0  0  0
   34.4954   19.4272   30.9866 H   0  0  0  0  0  0  0  0  0  0  0  0
   35.6181   18.5466   33.6780 H   0  0  0  0  0  0  0  0  0  0  0  0
   34.4849   17.5605   32.6562 H   0  0  0  0  0  0  0  0  0  0  0  0
   37.1017   17.5091   32.5313 H   0  0  0  0  0  0  0  0  0  0  0  0
   36.0444   17.0618   31.3020 H   0  0  0  0  0  0  0  0  0  0  0  0
   38.9215   26.3568   37.1830 H   0  0  0  0  0  0  0  0  0  0  0  0
   38.5563   27.9899   36.5302 H   0  0  0  0  0  0  0  0  0  0  0  0
   37.2875   26.7183   36.5302 H   0  0  0  0  0  0  0  0  0  0  0  0
   37.2182   27.8278   34.5080 H   0  0  0  0  0  0  0  0  0  0  0  0
   38.6087   27.8211   33.3707 H   0  0  0  0  0  0  0  0  0  0  0  0
   37.4418   26.4555   33.3707 H   0  0  0  0  0  0  0  0  0  0  0  0
   40.4261   27.8379   35.3782 H   0  0  0  0  0  0  0  0  0  0  0  0
   40.9104   26.1024   35.1304 H   0  0  0  0  0  0  0  0  0  0  0  0
   39.1669   27.2355   30.2503 H   0  0  0  0  0  0  0  0  0  0  0  0
   38.6016   26.7747   32.5720 H   0  0  0  0  0  0  0  0  0  0  0  0
   42.5715   27.6731   33.8256 H   0  0  0  0  0  0  0  0  0  0  0  0
   43.1896   28.1531   31.4946 H   0  0  0  0  0  0  0  0  0  0  0  0
   42.6621   28.9684   29.0675 H   0  0  0  0  0  0  0  0  0  0  0  0
  1  2  2  0
  1  6  1  0
  2  3  1  0
  3 15  1  0
  3  4  2  0
  5  4  1  0
  6  5  2  0
  7  8  2  0
  7  1  1  0
  9  8  1  0
 10 11  1  0
 10  9  2  0
 11  7  1  0
 12  9  1  0
 12 13  1  0
 14 13  1  0
 15 16  1  0
 17 15  1  0
 18 15  1  0
 19 20  2  0
 19 24  1  0
 20 21  1  0
 21 22  2  0
 22 18  1  0
 23 22  1  0
 24 23  2  0
 25 19  1  0
 26 25  2  0
 27 25  2  0
  2 28  1  0
  5 29  1  0
  8 30  1  0
 10 31  1  0
 12 32  1  0
 12 33  1  0
 13 34  1  0
 13 35  1  0
 14 36  1  0
 14 37  1  0
 16 38  1  0
 16 39  1  0
 16 40  1  0
 17 41  1  0
 17 42  1  0
 17 43  1  0
 18 44  1  0
 18 45  1  0
 20 46  1  0
 21 47  1  0
 23 48  1  0
 24 49  1  0
 25 50  1  0
M  ISO  8  28  14  29  14  30  14  31  14  32   8  33   8  34   8  35   8
M  ISO  8  36   5  37   5  38   8  39   8  40   8  41   8  42   8  43   8
M  ISO  7  44   8  45   8  46  14  47  14  48  14  49  14  50  11
M  END
>  <minimizedAffinity>  (1) 
-5.25069094

>  <minimizedRMSD>  (1) 
2.05184007

$$$$
