
     RDKit          3D

 46 48  0  0  0  0  0  0  0  0999 V2000
   37.7760   23.0540   33.9250 C   0  0  0  0  0  0  0  0  0  0  0  0
   38.1060   24.3880   33.8950 C   0  0  0  0  0  0  0  0  0  0  0  0
   38.8610   24.9930   34.8440 C   0  0  0  0  0  0  0  0  0  0  0  0
   39.2920   24.1880   35.8680 N   0  0  0  0  0  0  0  0  0  0  0  0
   38.9790   22.8720   35.9180 C   0  0  0  0  0  0  0  0  0  0  0  0
   38.2280   22.2950   34.9620 N   0  0  0  0  0  0  0  0  0  0  0  0
   36.9700   22.3680   32.9270 C   0  0  0  0  0  0  0  0  0  0  0  0
   36.2830   21.1930   33.2730 C   0  0  0  0  0  0  0  0  0  0  0  0
   35.6010   20.7450   32.1660 C   0  0  0  0  0  0  0  0  0  0  0  0
   35.9130   21.6800   31.1970 C   0  0  0  0  0  0  0  0  0  0  0  0
   36.7280   22.6220   31.7010 O   0  0  0  0  0  0  0  0  0  0  0  0
   34.7420   19.5750   31.9930 C   0  0  0  0  0  0  0  0  0  0  0  0
   35.2970   18.3170   32.6900 C   0  0  0  0  0  0  0  0  0  0  0  0
   34.7400   17.1200   32.1240 N   0  0  0  0  0  0  0  0  0  0  0  0
   39.2240   26.3960   34.8360 C   0  0  0  0  0  0  0  0  0  0  0  0
   38.5710   27.1940   35.9370 C   0  0  0  0  0  0  0  0  0  0  0  0
   38.8180   27.0400   33.4980 C   0  0  0  0  0  0  0  0  0  0  0  0
   40.7340   26.5200   34.9330 C   0  0  0  0  0  0  0  0  0  0  0  0
   41.3680   26.5390   33.5890 C   0  0  0  0  0  0  0  0  0  0  0  0
   41.7710   27.6470   32.8720 C   0  0  0  0  0  0  0  0  0  0  0  0
   42.3490   27.5100   31.6260 C   0  0  0  0  0  0  0  0  0  0  0  0
   42.5470   26.2700   31.0520 C   0  0  0  0  0  0  0  0  0  0  0  0
   42.1330   25.1730   31.7950 C   0  0  0  0  0  0  0  0  0  0  0  0
   41.5720   25.3380   33.0060 N   0  0  0  0  0  0  0  0  0  0  0  0
   37.7377   24.9968   33.0561 H   0  0  0  0  0  0  0  0  0  0  0  0
   39.3458   22.2621   36.7567 H   0  0  0  0  0  0  0  0  0  0  0  0
   36.2893   20.7122   34.2623 H   0  0  0  0  0  0  0  0  0  0  0  0
   35.5461   21.6563   30.1603 H   0  0  0  0  0  0  0  0  0  0  0  0
   33.7511   19.8014   32.4137 H   0  0  0  0  0  0  0  0  0  0  0  0
   34.6890   19.3600   30.9155 H   0  0  0  0  0  0  0  0  0  0  0  0
   36.3904   18.2945   32.5718 H   0  0  0  0  0  0  0  0  0  0  0  0
   35.0222   18.3591   33.7543 H   0  0  0  0  0  0  0  0  0  0  0  0
   34.4454   16.4870   32.8813 H   0  0  0  0  0  0  0  0  0  0  0  0
   33.9251   17.3622   31.5425 H   0  0  0  0  0  0  0  0  0  0  0  0
   38.8917   26.8021   36.9135 H   0  0  0  0  0  0  0  0  0  0  0  0
   38.8677   28.2497   35.8502 H   0  0  0  0  0  0  0  0  0  0  0  0
   37.4775   27.1121   35.8502 H   0  0  0  0  0  0  0  0  0  0  0  0
   38.2406   27.9559   33.6922 H   0  0  0  0  0  0  0  0  0  0  0  0
   39.7214   27.2911   32.9229 H   0  0  0  0  0  0  0  0  0  0  0  0
   38.2019   26.3332   32.9229 H   0  0  0  0  0  0  0  0  0  0  0  0
   40.9826   27.4539   35.4584 H   0  0  0  0  0  0  0  0  0  0  0  0
   41.1167   25.6470   35.4820 H   0  0  0  0  0  0  0  0  0  0  0  0
   41.6300   28.6512   33.2984 H   0  0  0  0  0  0  0  0  0  0  0  0
   42.6596   28.4111   31.0768 H   0  0  0  0  0  0  0  0  0  0  0  0
   43.0079   26.1575   30.0596 H   0  0  0  0  0  0  0  0  0  0  0  0
   42.2651   24.1591   31.3894 H   0  0  0  0  0  0  0  0  0  0  0  0
  1  6  1  0
  2  1  2  0
  2  3  1  0
  3  4  2  0
  4  5  1  0
  6  5  2  0
  7  8  2  0
  7  1  1  0
  9  8  1  0
 10 11  1  0
 10  9  2  0
 11  7  1  0
 12  9  1  0
 12 13  1  0
 14 13  1  0
 15  3  1  0
 15 18  1  0
 15 16  1  0
 17 15  1  0
 19 18  1  0
 20 19  2  0
 21 20  1  0
 22 21  2  0
 22 23  1  0
 23 24  2  0
 24 19  1  0
  2 25  1  0
  5 26  1  0
  8 27  1  0
 10 28  1  0
 12 29  1  0
 12 30  1  0
 13 31  1  0
 13 32  1  0
 14 33  1  0
 14 34  1  0
 16 35  1  0
 16 36  1  0
 16 37  1  0
 17 38  1  0
 17 39  1  0
 17 40  1  0
 18 41  1  0
 18 42  1  0
 20 43  1  0
 21 44  1  0
 22 45  1  0
 23 46  1  0
M  ISO  8  25  14  26  14  27  14  28  14  29   8  30   8  31   8  32   8
M  ISO  8  33   5  34   5  35   8  36   8  37   8  38   8  39   8  40   8
M  ISO  6  41   8  42   8  43  14  44  14  45  14  46  14
M  END
>  <minimizedAffinity>  (1) 
-5.20297337

>  <minimizedRMSD>  (1) 
0.887979567

$$$$
