
     RDKit          3D

 48 51  0  0  0  0  0  0  0  0999 V2000
   37.6250   23.0530   33.7540 C   0  0  0  0  0  0  0  0  0  0  0  0
   37.6770   24.4240   33.6230 C   0  0  0  0  0  0  0  0  0  0  0  0
   38.2340   25.2210   34.5680 C   0  0  0  0  0  0  0  0  0  0  0  0
   38.7440   24.6000   35.6610 N   0  0  0  0  0  0  0  0  0  0  0  0
   38.7070   23.2480   35.8150 C   0  0  0  0  0  0  0  0  0  0  0  0
   38.1490   22.4670   34.8670 N   0  0  0  0  0  0  0  0  0  0  0  0
   37.0400   22.1460   32.7750 C   0  0  0  0  0  0  0  0  0  0  0  0
   36.1400   21.1480   33.1810 C   0  0  0  0  0  0  0  0  0  0  0  0
   35.7470   20.4420   32.0600 C   0  0  0  0  0  0  0  0  0  0  0  0
   36.4280   21.0450   31.0370 C   0  0  0  0  0  0  0  0  0  0  0  0
   37.1780   22.0450   31.5110 O   0  0  0  0  0  0  0  0  0  0  0  0
   34.8250   19.3090   31.9380 C   0  0  0  0  0  0  0  0  0  0  0  0
   35.3090   18.0540   32.6930 C   0  0  0  0  0  0  0  0  0  0  0  0
   36.5050   17.5440   32.1300 N   0  0  0  0  0  0  0  0  0  0  0  0
   38.3140   26.6650   34.4780 C   0  0  0  0  0  0  0  0  0  0  0  0
   38.8930   27.3110   35.7300 C   0  0  0  0  0  0  0  0  0  0  0  0
   36.9040   27.2620   34.2950 C   0  0  0  0  0  0  0  0  0  0  0  0
   39.0980   27.0620   33.2710 C   0  0  0  0  0  0  0  0  0  0  0  0
   40.5140   27.0350   33.3920 N   0  0  0  0  0  0  0  0  0  0  0  0
   41.3510   26.6800   34.4120 C   0  0  0  0  0  0  0  0  0  0  0  0
   42.6440   26.8090   34.0640 N   0  0  0  0  0  0  0  0  0  0  0  0
   42.7080   27.2560   32.7990 C   0  0  0  0  0  0  0  0  0  0  0  0
   43.7220   27.5720   31.9210 C   0  0  0  0  0  0  0  0  0  0  0  0
   43.4230   28.0110   30.6720 N   0  0  0  0  0  0  0  0  0  0  0  0
   42.1200   28.1390   30.2910 C   0  0  0  0  0  0  0  0  0  0  0  0
   41.1540   27.8260   31.1650 N   0  0  0  0  0  0  0  0  0  0  0  0
   41.3930   27.3880   32.4080 C   0  0  0  0  0  0  0  0  0  0  0  0
   37.2519   24.8877   32.7206 H   0  0  0  0  0  0  0  0  0  0  0  0
   39.1350   22.7892   36.7185 H   0  0  0  0  0  0  0  0  0  0  0  0
   35.8058   20.9606   34.2121 H   0  0  0  0  0  0  0  0  0  0  0  0
   36.3670   20.7498   29.9791 H   0  0  0  0  0  0  0  0  0  0  0  0
   33.8474   19.6073   32.3445 H   0  0  0  0  0  0  0  0  0  0  0  0
   34.7638   19.0480   30.8712 H   0  0  0  0  0  0  0  0  0  0  0  0
   35.4920   18.3172   33.7453 H   0  0  0  0  0  0  0  0  0  0  0  0
   34.5310   17.2803   32.6151 H   0  0  0  0  0  0  0  0  0  0  0  0
   37.1498   17.2691   32.8847 H   0  0  0  0  0  0  0  0  0  0  0  0
   36.2875   16.7225   31.5480 H   0  0  0  0  0  0  0  0  0  0  0  0
   38.4634   26.8317   36.6220 H   0  0  0  0  0  0  0  0  0  0  0  0
   39.9857   27.1845   35.7361 H   0  0  0  0  0  0  0  0  0  0  0  0
   38.6480   28.3834   35.7361 H   0  0  0  0  0  0  0  0  0  0  0  0
   36.4554   27.4519   35.2813 H   0  0  0  0  0  0  0  0  0  0  0  0
   36.9756   28.2070   33.7366 H   0  0  0  0  0  0  0  0  0  0  0  0
   36.2752   26.5529   33.7366 H   0  0  0  0  0  0  0  0  0  0  0  0
   38.8056   28.0889   33.0066 H   0  0  0  0  0  0  0  0  0  0  0  0
   38.8586   26.3055   32.5092 H   0  0  0  0  0  0  0  0  0  0  0  0
   41.0092   26.3312   35.3976 H   0  0  0  0  0  0  0  0  0  0  0  0
   44.7721   27.4686   32.2319 H   0  0  0  0  0  0  0  0  0  0  0  0
   41.8658   28.4939   29.2813 H   0  0  0  0  0  0  0  0  0  0  0  0
  1  6  1  0
  2  1  2  0
  2  3  1  0
  3  4  2  0
  4  5  1  0
  6  5  2  0
  7  8  2  0
  7  1  1  0
  9  8  1  0
 10 11  1  0
 10  9  2  0
 11  7  1  0
 12  9  1  0
 12 13  1  0
 14 13  1  0
 15  3  1  0
 15 16  1  0
 17 15  1  0
 18 19  1  0
 18 15  1  0
 19 20  1  0
 21 20  2  0
 22 21  1  0
 23 22  2  0
 24 23  1  0
 25 24  2  0
 25 26  1  0
 26 27  2  0
 27 22  1  0
 27 19  1  0
  2 28  1  0
  5 29  1  0
  8 30  1  0
 10 31  1  0
 12 32  1  0
 12 33  1  0
 13 34  1  0
 13 35  1  0
 14 36  1  0
 14 37  1  0
 16 38  1  0
 16 39  1  0
 16 40  1  0
 17 41  1  0
 17 42  1  0
 17 43  1  0
 18 44  1  0
 18 45  1  0
 20 46  1  0
 23 47  1  0
 25 48  1  0
M  ISO  8  28  14  29  14  30  14  31  14  32   8  33   8  34   8  35   8
M  ISO  8  36   5  37   5  38   8  39   8  40   8  41   8  42   8  43   8
M  ISO  5  44   8  45   8  46  14  47  14  48  14
M  END
>  <minimizedAffinity>  (1) 
-4.89945793

>  <minimizedRMSD>  (1) 
2.88358641

$$$$
