
     RDKit          3D

 49 51  0  0  0  0  0  0  0  0999 V2000
   37.8170   22.9600   33.9890 C   0  0  0  0  0  0  0  0  0  0  0  0
   38.0540   24.3210   33.9770 C   0  0  0  0  0  0  0  0  0  0  0  0
   38.7300   24.9740   34.9750 C   0  0  0  0  0  0  0  0  0  0  0  0
   39.1610   24.2040   35.9950 N   0  0  0  0  0  0  0  0  0  0  0  0
   38.9500   22.8790   36.0410 C   0  0  0  0  0  0  0  0  0  0  0  0
   38.2870   22.2420   35.0560 N   0  0  0  0  0  0  0  0  0  0  0  0
   37.0980   22.2070   32.9840 C   0  0  0  0  0  0  0  0  0  0  0  0
   36.2730   21.1410   33.3490 C   0  0  0  0  0  0  0  0  0  0  0  0
   35.7170   20.6110   32.1900 C   0  0  0  0  0  0  0  0  0  0  0  0
   36.2450   21.3920   31.2020 C   0  0  0  0  0  0  0  0  0  0  0  0
   37.0570   22.3230   31.7150 O   0  0  0  0  0  0  0  0  0  0  0  0
   34.7830   19.4870   32.0330 C   0  0  0  0  0  0  0  0  0  0  0  0
   35.3030   18.2010   32.6850 C   0  0  0  0  0  0  0  0  0  0  0  0
   34.7420   17.0340   32.1090 N   0  0  0  0  0  0  0  0  0  0  0  0
   38.9900   26.3960   34.9330 C   0  0  0  0  0  0  0  0  0  0  0  0
   38.3350   27.1230   36.1170 C   0  0  0  0  0  0  0  0  0  0  0  0
   38.4150   27.0440   33.6630 C   0  0  0  0  0  0  0  0  0  0  0  0
   40.4480   26.6530   34.9590 C   0  0  0  0  0  0  0  0  0  0  0  0
   41.2350   26.1710   33.8840 N   0  0  0  0  0  0  0  0  0  0  0  0
   41.9960   27.3520   33.3990 C   0  0  0  0  0  0  0  0  0  0  0  0
   43.2010   26.7560   32.7080 C   0  0  0  0  0  0  0  0  0  0  0  0
   43.5460   25.6130   33.6270 C   0  0  0  0  0  0  0  0  0  0  0  0
   42.3120   25.3570   34.4650 C   0  0  0  0  0  0  0  0  0  0  0  0
   37.6822   24.9093   33.1252 H   0  0  0  0  0  0  0  0  0  0  0  0
   39.3255   22.3024   36.8992 H   0  0  0  0  0  0  0  0  0  0  0  0
   36.0943   20.7833   34.3738 H   0  0  0  0  0  0  0  0  0  0  0  0
   36.0315   21.2718   30.1296 H   0  0  0  0  0  0  0  0  0  0  0  0
   33.8238   19.7567   32.4991 H   0  0  0  0  0  0  0  0  0  0  0  0
   34.6673   19.2945   30.9562 H   0  0  0  0  0  0  0  0  0  0  0  0
   36.3959   18.1624   32.5661 H   0  0  0  0  0  0  0  0  0  0  0  0
   35.0115   18.2230   33.7454 H   0  0  0  0  0  0  0  0  0  0  0  0
   34.4351   16.3956   32.8567 H   0  0  0  0  0  0  0  0  0  0  0  0
   33.9336   17.2935   31.5258 H   0  0  0  0  0  0  0  0  0  0  0  0
   38.7137   26.7026   37.0603 H   0  0  0  0  0  0  0  0  0  0  0  0
   38.5784   28.1947   36.0693 H   0  0  0  0  0  0  0  0  0  0  0  0
   37.2438   26.9923   36.0693 H   0  0  0  0  0  0  0  0  0  0  0  0
   37.7092   27.8394   33.9445 H   0  0  0  0  0  0  0  0  0  0  0  0
   39.2340   27.4743   33.0679 H   0  0  0  0  0  0  0  0  0  0  0  0
   37.8904   26.2820   33.0679 H   0  0  0  0  0  0  0  0  0  0  0  0
   40.5856   27.7436   34.9998 H   0  0  0  0  0  0  0  0  0  0  0  0
   40.8072   26.0887   35.8323 H   0  0  0  0  0  0  0  0  0  0  0  0
   41.3931   27.9419   32.6929 H   0  0  0  0  0  0  0  0  0  0  0  0
   42.2727   28.0389   34.2124 H   0  0  0  0  0  0  0  0  0  0  0  0
   42.9481   26.3972   31.6994 H   0  0  0  0  0  0  0  0  0  0  0  0
   44.0246   27.4685   32.5530 H   0  0  0  0  0  0  0  0  0  0  0  0
   43.8021   24.7174   33.0419 H   0  0  0  0  0  0  0  0  0  0  0  0
   44.4151   25.8537   34.2568 H   0  0  0  0  0  0  0  0  0  0  0  0
   42.4928   25.6552   35.5082 H   0  0  0  0  0  0  0  0  0  0  0  0
   42.0468   24.2894   34.4657 H   0  0  0  0  0  0  0  0  0  0  0  0
  1  6  1  0
  2  1  2  0
  2  3  1  0
  3  4  2  0
  4  5  1  0
  6  5  2  0
  7  8  2  0
  7  1  1  0
  9  8  1  0
 10 11  1  0
 10  9  2  0
 11  7  1  0
 12  9  1  0
 12 13  1  0
 14 13  1  0
 15 18  1  0
 15  3  1  0
 15 16  1  0
 17 15  1  0
 19 23  1  0
 19 18  1  0
 20 19  1  0
 21 20  1  0
 21 22  1  0
 22 23  1  0
  2 24  1  0
  5 25  1  0
  8 26  1  0
 10 27  1  0
 12 28  1  0
 12 29  1  0
 13 30  1  0
 13 31  1  0
 14 32  1  0
 14 33  1  0
 16 34  1  0
 16 35  1  0
 16 36  1  0
 17 37  1  0
 17 38  1  0
 17 39  1  0
 18 40  1  0
 18 41  1  0
 20 42  1  0
 20 43  1  0
 21 44  1  0
 21 45  1  0
 22 46  1  0
 22 47  1  0
 23 48  1  0
 23 49  1  0
M  ISO  8  24  14  25  14  26  14  27  14  28   8  29   8  30   8  31   8
M  ISO  8  32   5  33   5  34   8  35   8  36   8  37   8  38   8  39   8
M  ISO  8  40   8  41   8  42  13  43  13  44  13  45  13  46  13  47  13
M  ISO  2  48  13  49  13
M  END
>  <minimizedAffinity>  (1) 
-5.01434946

>  <minimizedRMSD>  (1) 
1.11427832

$$$$
