
     RDKit          3D

 38 39  0  0  0  0  0  0  0  0999 V2000
   37.8070   23.0200   33.9110 C   0  0  0  0  0  0  0  0  0  0  0  0
   38.3040   24.2890   33.8160 C   0  0  0  0  0  0  0  0  0  0  0  0
   39.0920   24.8660   34.7750 C   0  0  0  0  0  0  0  0  0  0  0  0
   39.3670   24.1020   35.8560 N   0  0  0  0  0  0  0  0  0  0  0  0
   38.8880   22.8440   35.9760 C   0  0  0  0  0  0  0  0  0  0  0  0
   38.1110   22.2880   35.0220 N   0  0  0  0  0  0  0  0  0  0  0  0
   36.9700   22.3330   32.9500 C   0  0  0  0  0  0  0  0  0  0  0  0
   36.2780   21.1700   33.2730 C   0  0  0  0  0  0  0  0  0  0  0  0
   35.5770   20.7560   32.1640 C   0  0  0  0  0  0  0  0  0  0  0  0
   35.8790   21.6980   31.2060 C   0  0  0  0  0  0  0  0  0  0  0  0
   36.7100   22.6140   31.7200 O   0  0  0  0  0  0  0  0  0  0  0  0
   34.7000   19.5910   31.9910 C   0  0  0  0  0  0  0  0  0  0  0  0
   35.2550   18.3200   32.6340 C   0  0  0  0  0  0  0  0  0  0  0  0
   36.3500   17.7870   31.9010 N   0  0  0  0  0  0  0  0  0  0  0  0
   39.6110   26.2250   34.6480 C   0  0  0  0  0  0  0  0  0  0  0  0
   39.0060   27.1590   35.6660 C   0  0  0  0  0  0  0  0  0  0  0  0
   39.3600   26.7890   33.2580 C   0  0  0  0  0  0  0  0  0  0  0  0
   41.1170   26.1570   34.8420 C   0  0  0  0  0  0  0  0  0  0  0  0
   41.6940   27.2840   34.2660 O   0  0  0  0  0  0  0  0  0  0  0  0
   38.0577   24.8788   32.9207 H   0  0  0  0  0  0  0  0  0  0  0  0
   39.1373   22.2585   36.8732 H   0  0  0  0  0  0  0  0  0  0  0  0
   36.2895   20.6662   34.2508 H   0  0  0  0  0  0  0  0  0  0  0  0
   35.4958   21.6981   30.1749 H   0  0  0  0  0  0  0  0  0  0  0  0
   33.7247   19.8166   32.4470 H   0  0  0  0  0  0  0  0  0  0  0  0
   34.6165   19.4017   30.9106 H   0  0  0  0  0  0  0  0  0  0  0  0
   35.5918   18.5560   33.6542 H   0  0  0  0  0  0  0  0  0  0  0  0
   34.4537   17.5664   32.6439 H   0  0  0  0  0  0  0  0  0  0  0  0
   37.0648   17.4391   32.5560 H   0  0  0  0  0  0  0  0  0  0  0  0
   36.0213   17.0117   31.3079 H   0  0  0  0  0  0  0  0  0  0  0  0
   39.2395   26.7985   36.6787 H   0  0  0  0  0  0  0  0  0  0  0  0
   39.4224   28.1681   35.5309 H   0  0  0  0  0  0  0  0  0  0  0  0
   37.9148   27.1915   35.5309 H   0  0  0  0  0  0  0  0  0  0  0  0
   38.9141   27.7909   33.3438 H   0  0  0  0  0  0  0  0  0  0  0  0
   40.3127   26.8572   32.7124 H   0  0  0  0  0  0  0  0  0  0  0  0
   38.6716   26.1268   32.7124 H   0  0  0  0  0  0  0  0  0  0  0  0
   41.3506   26.1302   35.9166 H   0  0  0  0  0  0  0  0  0  0  0  0
   41.5147   25.2485   34.3660 H   0  0  0  0  0  0  0  0  0  0  0  0
   42.0070   27.8954   34.9789 H   0  0  0  0  0  0  0  0  0  0  0  0
  1  6  1  0
  2  1  2  0
  2  3  1  0
  3  4  2  0
  4  5  1  0
  6  5  2  0
  7  8  2  0
  7  1  1  0
  9  8  1  0
 10 11  1  0
 10  9  2  0
 11  7  1  0
 12  9  1  0
 12 13  1  0
 14 13  1  0
 15  3  1  0
 15 18  1  0
 15 16  1  0
 17 15  1  0
 19 18  1  0
  2 20  1  0
  5 21  1  0
  8 22  1  0
 10 23  1  0
 12 24  1  0
 12 25  1  0
 13 26  1  0
 13 27  1  0
 14 28  1  0
 14 29  1  0
 16 30  1  0
 16 31  1  0
 16 32  1  0
 17 33  1  0
 17 34  1  0
 17 35  1  0
 18 36  1  0
 18 37  1  0
 19 38  1  0
M  ISO  8  20  14  21  14  22  14  23  14  24   8  25   8  26   8  27   8
M  ISO  8  28   5  29   5  30   8  31   8  32   8  33   8  34   8  35   8
M  ISO  3  36   8  37   8  38   3
M  END
>  <minimizedAffinity>  (1) 
-4.56725073

>  <minimizedRMSD>  (1) 
0.378106266

$$$$
