
     RDKit          3D

 38 41  0  0  1  0  0  0  0  0999 V2000
   39.8310   22.8140   37.2430 C   0  0  0  0  0  0  0  0  0  0  0  0
   39.0260   23.2190   38.3140 C   0  0  0  0  0  0  0  0  0  0  0  0
   37.6550   23.1820   38.0960 C   0  0  0  0  0  0  0  0  0  0  0  0
   37.1460   22.7680   36.8930 N   0  0  0  0  0  0  0  0  0  0  0  0
   37.9860   22.3830   35.8840 C   0  0  0  0  0  0  0  0  0  0  0  0
   39.3280   22.4120   36.0720 N   0  0  0  0  0  0  0  0  0  0  0  0
   37.4000   21.9660   34.6640 N   0  0  0  0  0  0  0  0  0  0  0  0
   36.2730   21.0420   34.7520 C   0  0  0  0  0  0  0  0  0  0  0  0
   35.5800   20.8350   33.4410 C   0  0  0  0  0  0  0  0  0  0  0  0
   35.7110   22.0130   32.6410 N   0  0  0  0  0  0  0  0  0  0  0  0
   37.1160   22.1100   32.2440 C   0  0  0  0  0  0  0  0  0  0  0  0
   37.9690   22.4930   33.4260 C   0  0  1  0  0  0  0  0  0  0  0  0
   37.9980   23.9400   33.5040 N   0  0  0  0  0  0  0  0  0  0  0  0
   38.7210   24.7930   34.2390 C   0  0  0  0  0  0  0  0  0  0  0  0
   38.3990   26.0700   33.9670 N   0  0  0  0  0  0  0  0  0  0  0  0
   37.4430   26.0790   33.0300 C   0  0  0  0  0  0  0  0  0  0  0  0
   36.7520   27.0850   32.3870 C   0  0  0  0  0  0  0  0  0  0  0  0
   36.9840   28.3050   32.6540 O   0  0  0  0  0  0  0  0  0  0  0  0
   35.8210   26.7830   31.4650 N   0  0  0  0  0  0  0  0  0  0  0  0
   35.6040   25.4930   31.2100 C   0  0  0  0  0  0  0  0  0  0  0  0
   34.6480   25.0260   30.2560 N   0  0  0  0  0  0  0  0  0  0  0  0
   36.2630   24.4750   31.8210 N   0  0  0  0  0  0  0  0  0  0  0  0
   37.2070   24.7550   32.7550 C   0  0  0  0  0  0  0  0  0  0  0  0
   40.9235   22.8272   37.3705 H   0  0  0  0  0  0  0  0  0  0  0  0
   39.4543   23.5474   39.2725 H   0  0  0  0  0  0  0  0  0  0  0  0
   36.9689   23.4889   38.8992 H   0  0  0  0  0  0  0  0  0  0  0  0
   36.6441   20.0701   35.1092 H   0  0  0  0  0  0  0  0  0  0  0  0
   35.5406   21.4827   35.4444 H   0  0  0  0  0  0  0  0  0  0  0  0
   36.0359   19.9827   32.9159 H   0  0  0  0  0  0  0  0  0  0  0  0
   34.5141   20.6291   33.6184 H   0  0  0  0  0  0  0  0  0  0  0  0
   35.1122   21.9413   31.8060 H   0  0  0  0  0  0  0  0  0  0  0  0
   37.4510   21.1372   31.8549 H   0  0  0  0  0  0  0  0  0  0  0  0
   37.2153   22.8817   31.4664 H   0  0  0  0  0  0  0  0  0  0  0  0
   38.9801   22.0785   33.2996 H   0  0  0  0  0  0  0  0  0  0  0  0
   39.4820   24.4884   34.9725 H   0  0  0  0  0  0  0  0  0  0  0  0
   35.2955   27.5206   30.9744 H   0  0  0  0  0  0  0  0  0  0  0  0
   34.5252   24.0149   30.1026 H   0  0  0  0  0  0  0  0  0  0  0  0
   34.0818   25.7005   29.7218 H   0  0  0  0  0  0  0  0  0  0  0  0
  1  2  2  0
  3  2  1  0
  4  3  2  0
  5  6  2  0
  5  4  1  0
  6  1  1  0
  7  8  1  0
  7  5  1  0
  9  8  1  0
 10  9  1  0
 11 10  1  0
 11 12  1  0
 12 13  1  0
 12  7  1  0
 13 14  1  0
 15 14  2  0
 16 15  1  0
 17 18  2  0
 17 16  1  0
 19 17  1  0
 20 19  1  0
 20 22  2  0
 21 20  1  0
 22 23  1  0
 23 16  2  0
 23 13  1  0
  1 24  1  0
  2 25  1  0
  3 26  1  0
  8 27  1  0
  8 28  1  0
  9 29  1  0
  9 30  1  0
 10 31  1  0
 11 32  1  0
 11 33  1  0
 12 34  1  6
 14 35  1  0
 19 36  1  0
 21 37  1  0
 21 38  1  0
M  ISO  8  24  14  25  14  26  14  27  13  28  13  29  13  30  13  31   5
M  ISO  5  32  13  33  13  34  13  35  14  36   9
M  END
>  <minimizedAffinity>  (1) 
-6.15880585

>  <minimizedRMSD>  (1) 
0.851782858

$$$$
