
     RDKit          3D

 40 43  0  0  1  0  0  0  0  0999 V2000
   39.7310   22.7570   37.0800 C   0  0  0  0  0  0  0  0  0  0  0  0
   38.9220   23.3110   38.0920 C   0  0  0  0  0  0  0  0  0  0  0  0
   37.5350   23.2990   37.8810 C   0  0  0  0  0  0  0  0  0  0  0  0
   37.0730   22.7550   36.7170 N   0  0  0  0  0  0  0  0  0  0  0  0
   37.8820   22.2330   35.7700 C   0  0  0  0  0  0  0  0  0  0  0  0
   39.2000   22.2470   35.9760 N   0  0  0  0  0  0  0  0  0  0  0  0
   37.2820   21.6960   34.6020 N   0  0  0  0  0  0  0  0  0  0  0  0
   36.1190   20.8600   34.7610 C   0  0  0  0  0  0  0  0  0  0  0  0
   35.4350   20.5500   33.4740 C   0  0  0  0  0  0  0  0  0  0  0  0
   35.6130   21.6590   32.5770 N   0  0  0  0  0  0  0  0  0  0  0  0
   37.0210   21.6010   32.1610 C   0  0  0  0  0  0  0  0  0  0  0  0
   37.9120   22.0460   33.3060 C   0  0  1  0  0  0  0  0  0  0  0  0
   38.0730   23.4830   33.1620 C   0  0  0  0  0  0  0  0  0  0  0  0
   39.1460   24.1340   33.7410 C   0  0  0  0  0  0  0  0  0  0  0  0
   39.3550   25.4960   33.6410 C   0  0  0  0  0  0  0  0  0  0  0  0
   38.4670   26.2940   32.9300 C   0  0  0  0  0  0  0  0  0  0  0  0
   37.3970   25.6840   32.3450 C   0  0  0  0  0  0  0  0  0  0  0  0
   36.5010   26.4680   31.6330 C   0  0  0  0  0  0  0  0  0  0  0  0
   35.4010   25.9030   31.0210 C   0  0  0  0  0  0  0  0  0  0  0  0
   35.2210   24.5390   31.1400 C   0  0  0  0  0  0  0  0  0  0  0  0
   36.1220   23.7680   31.8540 C   0  0  0  0  0  0  0  0  0  0  0  0
   37.2250   24.3200   32.4700 C   0  0  0  0  0  0  0  0  0  0  0  0
   40.8235   22.7471   37.2076 H   0  0  0  0  0  0  0  0  0  0  0  0
   39.3592   23.7347   39.0082 H   0  0  0  0  0  0  0  0  0  0  0  0
   36.8428   23.7140   38.6284 H   0  0  0  0  0  0  0  0  0  0  0  0
   36.4304   19.9138   35.2275 H   0  0  0  0  0  0  0  0  0  0  0  0
   35.4026   21.4141   35.3853 H   0  0  0  0  0  0  0  0  0  0  0  0
   35.8724   19.6427   33.0318 H   0  0  0  0  0  0  0  0  0  0  0  0
   34.3627   20.3807   33.6515 H   0  0  0  0  0  0  0  0  0  0  0  0
   34.9918   21.5658   31.7607 H   0  0  0  0  0  0  0  0  0  0  0  0
   37.2766   20.5690   31.8788 H   0  0  0  0  0  0  0  0  0  0  0  0
   37.1740   22.2684   31.3001 H   0  0  0  0  0  0  0  0  0  0  0  0
   38.8917   21.5463   33.2839 H   0  0  0  0  0  0  0  0  0  0  0  0
   39.8719   23.5361   34.3116 H   0  0  0  0  0  0  0  0  0  0  0  0
   40.2301   25.9517   34.1274 H   0  0  0  0  0  0  0  0  0  0  0  0
   38.6218   27.3795   32.8422 H   0  0  0  0  0  0  0  0  0  0  0  0
   36.6694   27.5523   31.5555 H   0  0  0  0  0  0  0  0  0  0  0  0
   34.6884   26.5209   30.4550 H   0  0  0  0  0  0  0  0  0  0  0  0
   34.3531   24.0605   30.6627 H   0  0  0  0  0  0  0  0  0  0  0  0
   35.9531   22.6839   31.9322 H   0  0  0  0  0  0  0  0  0  0  0  0
  1  2  2  0
  3  2  1  0
  4  3  2  0
  5  6  2  0
  5  4  1  0
  6  1  1  0
  7  8  1  0
  7  5  1  0
  9  8  1  0
 10  9  1  0
 11 10  1  0
 11 12  1  0
 12  7  1  0
 13 12  1  0
 13 14  2  0
 15 14  1  0
 16 15  2  0
 17 22  2  0
 17 16  1  0
 18 17  1  0
 19 20  1  0
 19 18  2  0
 20 21  2  0
 21 22  1  0
 22 13  1  0
  1 23  1  0
  2 24  1  0
  3 25  1  0
  8 26  1  0
  8 27  1  0
  9 28  1  0
  9 29  1  0
 10 30  1  0
 11 31  1  0
 11 32  1  0
 12 33  1  6
 14 34  1  0
 15 35  1  0
 16 36  1  0
 18 37  1  0
 19 38  1  0
 20 39  1  0
 21 40  1  0
M  ISO  8  23  14  24  14  25  14  26  13  27  13  28  13  29  13  30   5
M  ISO  8  31  13  32  13  33  13  34  14  35  14  36  14  37  14  38  14
M  ISO  2  39  14  40  14
M  END
>  <minimizedAffinity>  (1) 
-6.07622337

>  <minimizedRMSD>  (1) 
0.515737236

$$$$
