
     RDKit          3D

 37 39  0  0  1  0  0  0  0  0999 V2000
   39.9220   22.8190   37.7080 C   0  0  0  0  0  0  0  0  0  0  0  0
   38.9840   23.2940   38.6290 C   0  0  0  0  0  0  0  0  0  0  0  0
   37.6650   23.3660   38.2040 C   0  0  0  0  0  0  0  0  0  0  0  0
   37.3180   22.9870   36.9390 N   0  0  0  0  0  0  0  0  0  0  0  0
   38.2770   22.5290   36.0740 C   0  0  0  0  0  0  0  0  0  0  0  0
   39.5460   22.4610   36.4880 N   0  0  0  0  0  0  0  0  0  0  0  0
   37.8820   22.1500   34.7660 N   0  0  0  0  0  0  0  0  0  0  0  0
   36.6730   21.3450   34.6500 C   0  0  0  0  0  0  0  0  0  0  0  0
   36.2290   21.1720   33.2380 C   0  0  0  0  0  0  0  0  0  0  0  0
   36.5580   22.3630   32.5090 N   0  0  0  0  0  0  0  0  0  0  0  0
   38.0230   22.3340   32.3330 C   0  0  0  0  0  0  0  0  0  0  0  0
   38.7060   22.5900   33.6380 C   0  0  1  0  0  0  0  0  0  0  0  0
   39.1610   23.9880   33.8440 C   0  0  0  0  0  0  0  0  0  0  0  0
   40.4720   24.1450   34.5320 C   0  0  0  0  0  0  0  0  0  0  0  0
   40.4600   25.6410   34.8710 C   0  0  0  0  0  0  0  0  0  0  0  0
   39.0460   26.1260   34.6420 C   0  0  0  0  0  0  0  0  0  0  0  0
   38.2730   24.8070   34.7190 C   0  0  0  0  0  0  0  0  0  0  0  0
   40.9804   22.7416   37.9976 H   0  0  0  0  0  0  0  0  0  0  0  0
   39.2781   23.5970   39.6447 H   0  0  0  0  0  0  0  0  0  0  0  0
   36.8905   23.7324   38.8938 H   0  0  0  0  0  0  0  0  0  0  0  0
   36.8689   20.3522   35.0812 H   0  0  0  0  0  0  0  0  0  0  0  0
   35.8709   21.8718   35.1877 H   0  0  0  0  0  0  0  0  0  0  0  0
   36.7432   20.3088   32.7903 H   0  0  0  0  0  0  0  0  0  0  0  0
   35.1438   20.9958   33.2027 H   0  0  0  0  0  0  0  0  0  0  0  0
   36.0866   22.3649   31.5932 H   0  0  0  0  0  0  0  0  0  0  0  0
   38.3237   21.3463   31.9533 H   0  0  0  0  0  0  0  0  0  0  0  0
   38.3136   23.1166   31.6167 H   0  0  0  0  0  0  0  0  0  0  0  0
   39.6236   21.9851   33.5916 H   0  0  0  0  0  0  0  0  0  0  0  0
   39.1855   24.3190   32.7953 H   0  0  0  0  0  0  0  0  0  0  0  0
   40.5259   23.5272   35.4405 H   0  0  0  0  0  0  0  0  0  0  0  0
   41.3362   23.8277   33.9299 H   0  0  0  0  0  0  0  0  0  0  0  0
   40.7481   25.7942   35.9215 H   0  0  0  0  0  0  0  0  0  0  0  0
   41.1750   26.1948   34.2449 H   0  0  0  0  0  0  0  0  0  0  0  0
   38.9362   26.6024   33.6566 H   0  0  0  0  0  0  0  0  0  0  0  0
   38.7076   26.8938   35.3533 H   0  0  0  0  0  0  0  0  0  0  0  0
   37.2555   24.8970   34.3108 H   0  0  0  0  0  0  0  0  0  0  0  0
   38.0971   24.4113   35.7302 H   0  0  0  0  0  0  0  0  0  0  0  0
  1  2  2  0
  3  2  1  0
  4  3  2  0
  5  6  2  0
  5  4  1  0
  6  1  1  0
  7  5  1  0
  8  7  1  0
  9  8  1  0
 10  9  1  0
 11 10  1  0
 11 12  1  0
 12 13  1  0
 12  7  1  0
 13 14  1  0
 13 17  1  0
 14 15  1  0
 16 17  1  0
 16 15  1  0
  1 18  1  0
  2 19  1  0
  3 20  1  0
  8 21  1  0
  8 22  1  0
  9 23  1  0
  9 24  1  0
 10 25  1  0
 11 26  1  0
 11 27  1  0
 12 28  1  6
 13 29  1  0
 14 30  1  0
 14 31  1  0
 15 32  1  0
 15 33  1  0
 16 34  1  0
 16 35  1  0
 17 36  1  0
 17 37  1  0
M  ISO  8  18  14  19  14  20  14  21  13  22  13  23  13  24  13  25   5
M  ISO  8  26  13  27  13  28  13  29  13  30  13  31  13  32  13  33  13
M  ISO  4  34  13  35  13  36  13  37  13
M  END
>  <minimizedAffinity>  (1) 
-4.50873137

>  <minimizedRMSD>  (1) 
0.920278668

$$$$
