
     RDKit          3D

 37 39  0  0  1  0  0  0  0  0999 V2000
   39.8770   22.6800   37.5420 C   0  0  0  0  0  0  0  0  0  0  0  0
   39.0970   23.4700   38.4020 C   0  0  0  0  0  0  0  0  0  0  0  0
   37.7440   23.6300   38.0910 C   0  0  0  0  0  0  0  0  0  0  0  0
   37.2590   23.0120   36.9720 N   0  0  0  0  0  0  0  0  0  0  0  0
   38.0430   22.2560   36.1640 C   0  0  0  0  0  0  0  0  0  0  0  0
   39.3390   22.1080   36.4690 N   0  0  0  0  0  0  0  0  0  0  0  0
   37.4380   21.6560   35.0220 N   0  0  0  0  0  0  0  0  0  0  0  0
   36.1620   21.0070   35.1990 C   0  0  0  0  0  0  0  0  0  0  0  0
   35.5280   20.6040   33.9090 C   0  0  0  0  0  0  0  0  0  0  0  0
   35.9050   21.5320   32.8990 N   0  0  0  0  0  0  0  0  0  0  0  0
   37.3310   21.2740   32.6090 C   0  0  0  0  0  0  0  0  0  0  0  0
   38.1830   21.7590   33.7490 C   0  0  1  0  0  0  0  0  0  0  0  0
   39.7460   25.6470   33.1930 C   0  0  0  0  0  0  0  0  0  0  0  0
   40.6010   24.5700   33.1540 C   0  0  0  0  0  0  0  0  0  0  0  0
   40.0450   23.3210   33.3400 C   0  0  0  0  0  0  0  0  0  0  0  0
   38.6950   23.1350   33.5580 C   0  0  0  0  0  0  0  0  0  0  0  0
   37.9030   24.2640   33.5840 C   0  0  0  0  0  0  0  0  0  0  0  0
   38.3690   25.5500   33.4070 C   0  0  0  0  0  0  0  0  0  0  0  0
   40.4900   27.2170   32.9520 S   0  0  0  0  0  0  0  0  0  0  0  0
   41.7350   27.2960   33.7710 O   0  0  0  0  0  0  0  0  0  0  0  0
   40.8760   27.4300   31.5230 O   0  0  0  0  0  0  0  0  0  0  0  0
   40.9454   22.5327   37.7585 H   0  0  0  0  0  0  0  0  0  0  0  0
   39.5363   23.9469   39.2906 H   0  0  0  0  0  0  0  0  0  0  0  0
   37.0862   24.2375   38.7300 H   0  0  0  0  0  0  0  0  0  0  0  0
   36.3091   20.1066   35.8135 H   0  0  0  0  0  0  0  0  0  0  0  0
   35.4898   21.7302   35.6839 H   0  0  0  0  0  0  0  0  0  0  0  0
   35.8684   19.5960   33.6296 H   0  0  0  0  0  0  0  0  0  0  0  0
   34.4335   20.5974   34.0184 H   0  0  0  0  0  0  0  0  0  0  0  0
   35.3371   21.3873   32.0520 H   0  0  0  0  0  0  0  0  0  0  0  0
   37.4854   20.1935   32.4727 H   0  0  0  0  0  0  0  0  0  0  0  0
   37.6158   21.8099   31.6916 H   0  0  0  0  0  0  0  0  0  0  0  0
   39.0663   21.1043   33.7810 H   0  0  0  0  0  0  0  0  0  0  0  0
   41.6798   24.6988   32.9822 H   0  0  0  0  0  0  0  0  0  0  0  0
   40.7029   22.4398   33.3135 H   0  0  0  0  0  0  0  0  0  0  0  0
   36.8252   24.1294   33.7579 H   0  0  0  0  0  0  0  0  0  0  0  0
   37.7087   26.4294   33.4323 H   0  0  0  0  0  0  0  0  0  0  0  0
   39.5785   28.1715   33.3194 H   0  0  0  0  0  0  0  0  0  0  0  0
  1  2  2  0
  3  2  1  0
  4  3  2  0
  5  6  2  0
  5  4  1  0
  6  1  1  0
  7  8  1  0
  7  5  1  0
  9  8  1  0
 10  9  1  0
 11 10  1  0
 11 12  1  0
 12  7  1  0
 13 18  2  0
 14 13  1  0
 14 15  2  0
 15 16  1  0
 16 17  2  0
 16 12  1  0
 18 17  1  0
 19 13  1  0
 19 20  2  0
 21 19  2  0
  1 22  1  0
  2 23  1  0
  3 24  1  0
  8 25  1  0
  8 26  1  0
  9 27  1  0
  9 28  1  0
 10 29  1  0
 11 30  1  0
 11 31  1  0
 12 32  1  1
 14 33  1  0
 15 34  1  0
 17 35  1  0
 18 36  1  0
 19 37  1  0
M  ISO  8  22  14  23  14  24  14  25  13  26  13  27  13  28  13  29   5
M  ISO  8  30  13  31  13  32  13  33  14  34  14  35  14  36  14  37  11
M  END
>  <minimizedAffinity>  (1) 
-4.72120237

>  <minimizedRMSD>  (1) 
1.27916276

$$$$
