
     RDKit          3D

 36 38  0  0  1  0  0  0  0  0999 V2000
   39.9410   22.7330   37.6120 C   0  0  0  0  0  0  0  0  0  0  0  0
   39.0350   23.2860   38.5240 C   0  0  0  0  0  0  0  0  0  0  0  0
   37.7150   23.3980   38.1050 C   0  0  0  0  0  0  0  0  0  0  0  0
   37.3620   22.9770   36.8610 N   0  0  0  0  0  0  0  0  0  0  0  0
   38.2720   22.4450   36.0040 C   0  0  0  0  0  0  0  0  0  0  0  0
   39.5460   22.3370   36.4040 N   0  0  0  0  0  0  0  0  0  0  0  0
   37.8170   22.0320   34.7210 N   0  0  0  0  0  0  0  0  0  0  0  0
   36.5790   21.2950   34.6480 C   0  0  0  0  0  0  0  0  0  0  0  0
   36.0520   21.1410   33.2580 C   0  0  0  0  0  0  0  0  0  0  0  0
   36.5050   22.2180   32.4530 N   0  0  0  0  0  0  0  0  0  0  0  0
   37.9590   22.0780   32.2760 C   0  0  0  0  0  0  0  0  0  0  0  0
   38.6570   22.3940   33.5720 C   0  0  1  0  0  0  0  0  0  0  0  0
   39.1040   23.7460   33.7050 N   0  0  0  0  0  0  0  0  0  0  0  0
   40.4610   23.8930   34.0800 C   0  0  0  0  0  0  0  0  0  0  0  0
   40.7490   25.1300   34.8930 C   0  0  0  0  0  0  0  0  0  0  0  0
   39.9250   26.2370   34.4730 N   0  0  0  0  0  0  0  0  0  0  0  0
   38.5590   25.9150   34.7370 C   0  0  0  0  0  0  0  0  0  0  0  0
   38.1340   24.5310   34.3700 C   0  0  0  0  0  0  0  0  0  0  0  0
   40.9975   22.6237   37.8982 H   0  0  0  0  0  0  0  0  0  0  0  0
   39.3525   23.6160   39.5241 H   0  0  0  0  0  0  0  0  0  0  0  0
   36.9574   23.8261   38.7778 H   0  0  0  0  0  0  0  0  0  0  0  0
   36.7464   20.2926   35.0689 H   0  0  0  0  0  0  0  0  0  0  0  0
   35.8300   21.8684   35.2139 H   0  0  0  0  0  0  0  0  0  0  0  0
   36.4107   20.1915   32.8340 H   0  0  0  0  0  0  0  0  0  0  0  0
   34.9523   21.1422   33.2830 H   0  0  0  0  0  0  0  0  0  0  0  0
   36.0374   22.1887   31.5357 H   0  0  0  0  0  0  0  0  0  0  0  0
   38.1938   21.0462   31.9756 H   0  0  0  0  0  0  0  0  0  0  0  0
   38.3014   22.7747   31.4967 H   0  0  0  0  0  0  0  0  0  0  0  0
   39.5681   21.7779   33.5537 H   0  0  0  0  0  0  0  0  0  0  0  0
   40.7513   23.0144   34.6748 H   0  0  0  0  0  0  0  0  0  0  0  0
   41.0373   23.9872   33.1478 H   0  0  0  0  0  0  0  0  0  0  0  0
   40.5489   24.9165   35.9534 H   0  0  0  0  0  0  0  0  0  0  0  0
   41.8033   25.4058   34.7437 H   0  0  0  0  0  0  0  0  0  0  0  0
   40.2652   27.1136   34.0527 H   0  0  0  0  0  0  0  0  0  0  0  0
   37.8632   26.6410   35.1828 H   0  0  0  0  0  0  0  0  0  0  0  0
   37.1299   24.1467   34.6024 H   0  0  0  0  0  0  0  0  0  0  0  0
  1  2  2  0
  3  2  1  0
  4  3  2  0
  5  6  2  0
  5  4  1  0
  6  1  1  0
  7  5  1  0
  8  7  1  0
  9  8  1  0
 10  9  1  0
 11 10  1  0
 11 12  1  0
 12 13  1  0
 12  7  1  0
 13 14  1  0
 13 18  1  0
 14 15  1  0
 16 17  1  0
 16 15  1  0
 18 17  2  0
  1 19  1  0
  2 20  1  0
  3 21  1  0
  8 22  1  0
  8 23  1  0
  9 24  1  0
  9 25  1  0
 10 26  1  0
 11 27  1  0
 11 28  1  0
 12 29  1  1
 14 30  1  0
 14 31  1  0
 15 32  1  0
 15 33  1  0
 16 34  1  0
 17 35  1  0
 18 36  1  0
M  ISO  8  19  14  20  14  21  14  22  13  23  13  24  13  25  13  26   5
M  ISO  8  27  13  28  13  29  13  30  13  31  13  32  13  33  13  35  13
M  ISO  1  36  13
M  END
>  <minimizedAffinity>  (1) 
-4.53115845

>  <minimizedRMSD>  (1) 
0.694075525

$$$$
