
     RDKit          3D

 37 39  0  0  1  0  0  0  0  0999 V2000
   39.6930   22.8640   37.7860 C   0  0  0  0  0  0  0  0  0  0  0  0
   38.7070   23.3060   38.6780 C   0  0  0  0  0  0  0  0  0  0  0  0
   37.8790   24.3270   38.2340 C   0  0  0  0  0  0  0  0  0  0  0  0
   38.0640   24.8370   36.9820 N   0  0  0  0  0  0  0  0  0  0  0  0
   39.0280   24.3810   36.1520 C   0  0  0  0  0  0  0  0  0  0  0  0
   39.8310   23.3980   36.5710 N   0  0  0  0  0  0  0  0  0  0  0  0
   39.1480   24.9730   34.8630 N   0  0  0  0  0  0  0  0  0  0  0  0
   37.9240   25.2090   34.1170 C   0  0  0  0  0  0  0  0  0  0  0  0
   38.1140   26.1010   32.9230 C   0  0  0  0  0  0  0  0  0  0  0  0
   39.2360   26.9500   33.1420 N   0  0  0  0  0  0  0  0  0  0  0  0
   40.4430   26.1180   33.1280 C   0  0  0  0  0  0  0  0  0  0  0  0
   40.4870   25.3030   34.3730 C   0  0  2  0  0  0  0  0  0  0  0  0
   41.3140   24.1610   34.3990 N   0  0  0  0  0  0  0  0  0  0  0  0
   40.7020   22.9480   34.8190 C   0  0  0  0  0  0  0  0  0  0  0  0
   41.7710   21.8710   34.8650 C   0  0  0  0  0  0  0  0  0  0  0  0
   42.6210   22.1620   35.9060 O   0  0  0  0  0  0  0  0  0  0  0  0
   42.6960   23.5100   36.2120 C   0  0  0  0  0  0  0  0  0  0  0  0
   42.6330   24.3050   34.9020 C   0  0  0  0  0  0  0  0  0  0  0  0
   40.3713   22.0553   38.0956 H   0  0  0  0  0  0  0  0  0  0  0  0
   38.5950   22.8657   39.6798 H   0  0  0  0  0  0  0  0  0  0  0  0
   37.0831   24.7205   38.8834 H   0  0  0  0  0  0  0  0  0  0  0  0
   37.5352   24.2403   33.7699 H   0  0  0  0  0  0  0  0  0  0  0  0
   37.2245   25.7197   34.7951 H   0  0  0  0  0  0  0  0  0  0  0  0
   37.2127   26.7142   32.7756 H   0  0  0  0  0  0  0  0  0  0  0  0
   38.2875   25.4856   32.0279 H   0  0  0  0  0  0  0  0  0  0  0  0
   39.2903   27.6572   32.3952 H   0  0  0  0  0  0  0  0  0  0  0  0
   40.4215   25.4524   32.2525 H   0  0  0  0  0  0  0  0  0  0  0  0
   41.3349   26.7596   33.0732 H   0  0  0  0  0  0  0  0  0  0  0  0
   40.9957   25.9960   35.0593 H   0  0  0  0  0  0  0  0  0  0  0  0
   40.2618   23.0792   35.8185 H   0  0  0  0  0  0  0  0  0  0  0  0
   39.9032   22.6621   34.1189 H   0  0  0  0  0  0  0  0  0  0  0  0
   41.3044   20.8882   35.0273 H   0  0  0  0  0  0  0  0  0  0  0  0
   42.3252   21.8410   33.9153 H   0  0  0  0  0  0  0  0  0  0  0  0
   41.8525   23.7920   36.8593 H   0  0  0  0  0  0  0  0  0  0  0  0
   43.6351   23.7268   36.7423 H   0  0  0  0  0  0  0  0  0  0  0  0
   43.3596   23.9039   34.1801 H   0  0  0  0  0  0  0  0  0  0  0  0
   42.8781   25.3640   35.0704 H   0  0  0  0  0  0  0  0  0  0  0  0
  1  2  2  0
  3  2  1  0
  4  3  2  0
  5  6  2  0
  5  4  1  0
  6  1  1  0
  7  5  1  0
  8  7  1  0
  9 10  1  0
  9  8  1  0
 11 10  1  0
 11 12  1  0
 12 13  1  0
 12  7  1  0
 13 14  1  0
 13 18  1  0
 14 15  1  0
 15 16  1  0
 16 17  1  0
 18 17  1  0
  1 19  1  0
  2 20  1  0
  3 21  1  0
  8 22  1  0
  8 23  1  0
  9 24  1  0
  9 25  1  0
 10 26  1  0
 11 27  1  0
 11 28  1  0
 12 29  1  1
 14 30  1  0
 14 31  1  0
 15 32  1  0
 15 33  1  0
 17 34  1  0
 17 35  1  0
 18 36  1  0
 18 37  1  0
M  ISO  8  19  14  20  14  21  14  22  13  23  13  24  13  25  13  26   5
M  ISO  8  27  13  28  13  29  13  30  13  31  13  32  13  33  13  34  13
M  ISO  3  35  13  36  13  37  13
M  END
>  <minimizedAffinity>  (1) 
-4.1867919

>  <minimizedRMSD>  (1) 
3.51186466

$$$$
