
     RDKit          3D

 34 36  0  0  1  0  0  0  0  0999 V2000
   39.8380   22.9260   37.6170 C   0  0  0  0  0  0  0  0  0  0  0  0
   38.7740   23.1770   38.4900 C   0  0  0  0  0  0  0  0  0  0  0  0
   37.8010   24.1040   38.0720 C   0  0  0  0  0  0  0  0  0  0  0  0
   37.9490   24.6980   36.8540 N   0  0  0  0  0  0  0  0  0  0  0  0
   39.0120   24.4170   36.0360 C   0  0  0  0  0  0  0  0  0  0  0  0
   39.9330   23.5340   36.4390 N   0  0  0  0  0  0  0  0  0  0  0  0
   39.0750   25.0880   34.7900 N   0  0  0  0  0  0  0  0  0  0  0  0
   37.8570   25.1500   33.9950 C   0  0  0  0  0  0  0  0  0  0  0  0
   37.9560   26.0740   32.8220 C   0  0  0  0  0  0  0  0  0  0  0  0
   38.9220   27.1030   33.1080 N   0  0  0  0  0  0  0  0  0  0  0  0
   40.2300   26.4430   33.1110 C   0  0  0  0  0  0  0  0  0  0  0  0
   40.3650   25.6630   34.4050 C   0  0  2  0  0  0  0  0  0  0  0  0
   41.4350   24.7280   34.3920 N   0  0  0  0  0  0  0  0  0  0  0  0
   42.4750   24.8470   35.2170 C   0  0  0  0  0  0  0  0  0  0  0  0
   43.5290   23.9340   35.2100 C   0  0  0  0  0  0  0  0  0  0  0  0
   43.3920   22.9180   34.2870 C   0  0  0  0  0  0  0  0  0  0  0  0
   44.3250   22.0480   34.2310 O   0  0  0  0  0  0  0  0  0  0  0  0
   42.3700   22.7420   33.4280 N   0  0  0  0  0  0  0  0  0  0  0  0
   41.4080   23.6800   33.5180 C   0  0  0  0  0  0  0  0  0  0  0  0
   40.4140   23.5640   32.7280 O   0  0  0  0  0  0  0  0  0  0  0  0
   40.6160   22.2069   37.9132 H   0  0  0  0  0  0  0  0  0  0  0  0
   38.7009   22.6704   39.4636 H   0  0  0  0  0  0  0  0  0  0  0  0
   36.9404   24.3438   38.7138 H   0  0  0  0  0  0  0  0  0  0  0  0
   37.6316   24.1393   33.6240 H   0  0  0  0  0  0  0  0  0  0  0  0
   37.0635   25.5411   34.6488 H   0  0  0  0  0  0  0  0  0  0  0  0
   36.9748   26.5335   32.6321 H   0  0  0  0  0  0  0  0  0  0  0  0
   38.2716   25.5087   31.9327 H   0  0  0  0  0  0  0  0  0  0  0  0
   38.8918   27.8333   32.3823 H   0  0  0  0  0  0  0  0  0  0  0  0
   40.3031   25.7575   32.2538 H   0  0  0  0  0  0  0  0  0  0  0  0
   41.0329   27.1909   33.0329 H   0  0  0  0  0  0  0  0  0  0  0  0
   40.6518   26.3714   35.1961 H   0  0  0  0  0  0  0  0  0  0  0  0
   42.5027   25.6895   35.9236 H   0  0  0  0  0  0  0  0  0  0  0  0
   44.3953   24.0168   35.8828 H   0  0  0  0  0  0  0  0  0  0  0  0
   42.3278   21.9586   32.7606 H   0  0  0  0  0  0  0  0  0  0  0  0
  1  2  2  0
  3  2  1  0
  4  3  2  0
  5  6  2  0
  5  4  1  0
  6  1  1  0
  7  5  1  0
  8  7  1  0
  9 10  1  0
  9  8  1  0
 10 11  1  0
 11 12  1  0
 12  7  1  0
 13 12  1  0
 13 14  1  0
 15 14  2  0
 16 15  1  0
 17 16  2  0
 18 19  1  0
 18 16  1  0
 19 13  1  0
 20 19  2  0
  1 21  1  0
  2 22  1  0
  3 23  1  0
  8 24  1  0
  8 25  1  0
  9 26  1  0
  9 27  1  0
 10 28  1  0
 11 29  1  0
 11 30  1  0
 12 31  1  1
 14 32  1  0
 15 33  1  0
 18 34  1  0
M  ISO  8  21  14  22  14  23  14  24  13  25  13  26  13  27  13  28   5
M  ISO  6  29  13  30  13  31  13  32  14  33  14  34   9
M  END
>  <minimizedAffinity>  (1) 
-4.2065444

>  <minimizedRMSD>  (1) 
3.72959089

$$$$
