
     RDKit          3D

 30 32  0  0  1  0  0  0  0  0999 V2000
   39.9710   22.6210   37.4620 C   0  0  0  0  0  0  0  0  0  0  0  0
   39.1640   23.3280   38.3760 C   0  0  0  0  0  0  0  0  0  0  0  0
   37.8330   23.5000   38.0230 C   0  0  0  0  0  0  0  0  0  0  0  0
   37.3820   22.9910   36.8420 N   0  0  0  0  0  0  0  0  0  0  0  0
   38.2070   22.3120   35.9890 C   0  0  0  0  0  0  0  0  0  0  0  0
   39.5060   22.1250   36.2990 N   0  0  0  0  0  0  0  0  0  0  0  0
   37.6160   21.8300   34.7870 N   0  0  0  0  0  0  0  0  0  0  0  0
   36.3450   21.1580   34.8780 C   0  0  0  0  0  0  0  0  0  0  0  0
   35.7560   20.8460   33.5310 C   0  0  0  0  0  0  0  0  0  0  0  0
   36.1620   21.8440   32.6010 N   0  0  0  0  0  0  0  0  0  0  0  0
   37.5900   21.6490   32.3460 C   0  0  0  0  0  0  0  0  0  0  0  0
   38.3870   22.0780   33.5450 C   0  0  1  0  0  0  0  0  0  0  0  0
   38.5940   23.5320   33.5190 N   0  0  0  0  0  0  0  0  0  0  0  0
   39.8020   24.1320   33.4240 C   0  0  0  0  0  0  0  0  0  0  0  0
   39.5860   25.4770   33.4310 N   0  0  0  0  0  0  0  0  0  0  0  0
   38.2390   25.6660   33.5310 C   0  0  0  0  0  0  0  0  0  0  0  0
   37.6610   24.4500   33.5830 N   0  0  0  0  0  0  0  0  0  0  0  0
   41.0315   22.4668   37.7102 H   0  0  0  0  0  0  0  0  0  0  0  0
   39.5681   23.7228   39.3198 H   0  0  0  0  0  0  0  0  0  0  0  0
   37.1477   24.0426   38.6908 H   0  0  0  0  0  0  0  0  0  0  0  0
   36.4838   20.2157   35.4282 H   0  0  0  0  0  0  0  0  0  0  0  0
   35.6486   21.8332   35.3967 H   0  0  0  0  0  0  0  0  0  0  0  0
   36.1115   19.8615   33.1929 H   0  0  0  0  0  0  0  0  0  0  0  0
   34.6584   20.8309   33.6017 H   0  0  0  0  0  0  0  0  0  0  0  0
   35.6310   21.7450   31.7240 H   0  0  0  0  0  0  0  0  0  0  0  0
   37.7821   20.5853   32.1420 H   0  0  0  0  0  0  0  0  0  0  0  0
   37.8886   22.2542   31.4773 H   0  0  0  0  0  0  0  0  0  0  0  0
   39.3340   21.5189   33.5223 H   0  0  0  0  0  0  0  0  0  0  0  0
   40.7773   23.6280   33.3541 H   0  0  0  0  0  0  0  0  0  0  0  0
   37.7191   26.6348   33.5633 H   0  0  0  0  0  0  0  0  0  0  0  0
  1  2  2  0
  3  2  1  0
  4  3  2  0
  5  6  2  0
  5  4  1  0
  6  1  1  0
  7  8  1  0
  7  5  1  0
  9  8  1  0
 10  9  1  0
 11 10  1  0
 11 12  1  0
 12  7  1  0
 13 12  1  0
 13 17  1  0
 14 15  2  0
 14 13  1  0
 15 16  1  0
 16 17  2  0
  1 18  1  0
  2 19  1  0
  3 20  1  0
  8 21  1  0
  8 22  1  0
  9 23  1  0
  9 24  1  0
 10 25  1  0
 11 26  1  0
 11 27  1  0
 12 28  1  1
 14 29  1  0
 16 30  1  0
M  ISO  8  18  14  19  14  20  14  21  13  22  13  23  13  24  13  25   5
M  ISO  5  26  13  27  13  28  13  29  14  30  14
M  END
>  <minimizedAffinity>  (1) 
-4.3162694

>  <minimizedRMSD>  (1) 
0.390487105

$$$$
