
     RDKit          3D

 25 26  0  0  1  0  0  0  0  0999 V2000
   39.8790   22.6670   37.2640 C   0  0  0  0  0  0  0  0  0  0  0  0
   39.0950   23.3110   38.2450 C   0  0  0  0  0  0  0  0  0  0  0  0
   37.7190   23.4050   38.0110 C   0  0  0  0  0  0  0  0  0  0  0  0
   37.2040   22.8760   36.8600 N   0  0  0  0  0  0  0  0  0  0  0  0
   38.0110   22.2600   35.9410 C   0  0  0  0  0  0  0  0  0  0  0  0
   39.3400   22.1620   36.1510 N   0  0  0  0  0  0  0  0  0  0  0  0
   37.3980   21.7370   34.7710 N   0  0  0  0  0  0  0  0  0  0  0  0
   36.1960   20.9290   34.9570 C   0  0  0  0  0  0  0  0  0  0  0  0
   35.4630   20.6520   33.6820 C   0  0  0  0  0  0  0  0  0  0  0  0
   35.7260   21.6730   32.7390 N   0  0  0  0  0  0  0  0  0  0  0  0
   37.1460   21.5590   32.3430 C   0  0  0  0  0  0  0  0  0  0  0  0
   38.0130   22.0430   33.4780 C   0  0  2  0  0  0  0  0  0  0  0  0
   39.2780   21.4810   33.4490 O   0  0  0  0  0  0  0  0  0  0  0  0
   40.9642   22.5784   37.4203 H   0  0  0  0  0  0  0  0  0  0  0  0
   39.5485   23.7232   39.1585 H   0  0  0  0  0  0  0  0  0  0  0  0
   37.0609   23.8972   38.7422 H   0  0  0  0  0  0  0  0  0  0  0  0
   36.4876   19.9687   35.4073 H   0  0  0  0  0  0  0  0  0  0  0  0
   35.5162   21.5024   35.6044 H   0  0  0  0  0  0  0  0  0  0  0  0
   35.7946   19.6857   33.2741 H   0  0  0  0  0  0  0  0  0  0  0  0
   34.3827   20.6205   33.8870 H   0  0  0  0  0  0  0  0  0  0  0  0
   35.1205   21.5542   31.9143 H   0  0  0  0  0  0  0  0  0  0  0  0
   37.3833   20.5084   32.1198 H   0  0  0  0  0  0  0  0  0  0  0  0
   37.3320   22.1695   31.4471 H   0  0  0  0  0  0  0  0  0  0  0  0
   38.1075   23.1315   33.3506 H   0  0  0  0  0  0  0  0  0  0  0  0
   39.5974   21.3391   34.3753 H   0  0  0  0  0  0  0  0  0  0  0  0
  1  2  2  0
  3  2  1  0
  4  3  2  0
  5  6  2  0
  5  4  1  0
  6  1  1  0
  7  8  1  0
  7  5  1  0
  9  8  1  0
 10  9  1  0
 11 10  1  0
 11 12  1  0
 12  7  1  0
 13 12  1  0
  1 14  1  0
  2 15  1  0
  3 16  1  0
  8 17  1  0
  8 18  1  0
  9 19  1  0
  9 20  1  0
 10 21  1  0
 11 22  1  0
 11 23  1  0
 12 24  1  6
 13 25  1  0
M  ISO  8  14  14  15  14  16  14  17  13  18  13  19  13  20  13  21   5
M  ISO  4  22  13  23  13  24  13  25   3
M  END
>  <minimizedAffinity>  (1) 
-3.95522213

>  <minimizedRMSD>  (1) 
0.145891294

$$$$
