
     RDKit          3D

 33 34  0  0  1  0  0  0  0  0999 V2000
   38.7340   24.2760   36.4400 C   0  0  0  0  0  0  0  0  0  0  0  0
   38.4940   22.9380   36.7650 C   0  0  0  0  0  0  0  0  0  0  0  0
   38.0140   22.0900   35.7530 C   0  0  0  0  0  0  0  0  0  0  0  0
   37.8050   22.6110   34.4980 N   0  0  0  0  0  0  0  0  0  0  0  0
   38.0520   23.9130   34.2330 C   0  0  0  0  0  0  0  0  0  0  0  0
   38.5070   24.7060   35.2050 N   0  0  0  0  0  0  0  0  0  0  0  0
   37.8090   24.3820   32.9120 N   0  0  0  0  0  0  0  0  0  0  0  0
   38.2950   23.5560   31.8160 C   0  0  0  0  0  0  0  0  0  0  0  0
   37.7560   23.9640   30.4820 C   0  0  0  0  0  0  0  0  0  0  0  0
   36.4930   24.6140   30.6410 N   0  0  0  0  0  0  0  0  0  0  0  0
   36.7250   25.8920   31.3130 C   0  0  0  0  0  0  0  0  0  0  0  0
   37.0980   25.6350   32.7550 C   0  0  2  0  0  0  0  0  0  0  0  0
   37.7260   26.8300   33.3720 C   0  0  0  0  0  0  0  0  0  0  0  0
   36.6810   27.9480   33.1920 C   0  0  0  0  0  0  0  0  0  0  0  0
   38.9990   27.2730   32.7320 C   0  0  0  0  0  0  0  0  0  0  0  0
   39.1099   24.9707   37.2056 H   0  0  0  0  0  0  0  0  0  0  0  0
   38.6754   22.5605   37.7821 H   0  0  0  0  0  0  0  0  0  0  0  0
   37.8093   21.0294   35.9608 H   0  0  0  0  0  0  0  0  0  0  0  0
   39.3923   23.6271   31.7855 H   0  0  0  0  0  0  0  0  0  0  0  0
   37.9506   22.5286   32.0055 H   0  0  0  0  0  0  0  0  0  0  0  0
   37.6290   23.0711   29.8522 H   0  0  0  0  0  0  0  0  0  0  0  0
   38.4620   24.6602   30.0058 H   0  0  0  0  0  0  0  0  0  0  0  0
   36.0648   24.7767   29.7185 H   0  0  0  0  0  0  0  0  0  0  0  0
   37.5439   26.4282   30.8111 H   0  0  0  0  0  0  0  0  0  0  0  0
   35.8111   26.5028   31.2710 H   0  0  0  0  0  0  0  0  0  0  0  0
   36.1823   25.4833   33.3454 H   0  0  0  0  0  0  0  0  0  0  0  0
   37.9945   26.5948   34.4125 H   0  0  0  0  0  0  0  0  0  0  0  0
   36.3496   28.3025   34.1792 H   0  0  0  0  0  0  0  0  0  0  0  0
   37.1298   28.7831   32.6342 H   0  0  0  0  0  0  0  0  0  0  0  0
   35.8176   27.5565   32.6342 H   0  0  0  0  0  0  0  0  0  0  0  0
   39.7319   27.5281   33.5116 H   0  0  0  0  0  0  0  0  0  0  0  0
   39.3970   26.4605   32.1063 H   0  0  0  0  0  0  0  0  0  0  0  0
   38.8066   28.1570   32.1063 H   0  0  0  0  0  0  0  0  0  0  0  0
  1  2  2  0
  3  2  1  0
  4  3  2  0
  5  4  1  0
  5  6  2  0
  6  1  1  0
  7  5  1  0
  8  7  1  0
  9 10  1  0
  9  8  1  0
 10 11  1  0
 11 12  1  0
 12  7  1  0
 12 13  1  0
 14 13  1  0
 15 13  1  0
  1 16  1  0
  2 17  1  0
  3 18  1  0
  8 19  1  0
  8 20  1  0
  9 21  1  0
  9 22  1  0
 10 23  1  0
 11 24  1  0
 11 25  1  0
 12 26  1  1
 13 27  1  0
 14 28  1  0
 14 29  1  0
 14 30  1  0
 15 31  1  0
 15 32  1  0
 15 33  1  0
M  ISO  8  16  14  17  14  18  14  19  13  20  13  21  13  22  13  23   5
M  ISO  8  24  13  25  13  26  13  27   8  28   8  29   8  30   8  31   8
M  ISO  2  32   8  33   8
M  END
>  <minimizedAffinity>  (1) 
-4.00209618

>  <minimizedRMSD>  (1) 
4.3643508

$$$$
