
     RDKit          3D

 32 34  0  0  1  0  0  0  0  0999 V2000
   39.1160   24.5810   35.3630 C   0  0  0  0  0  0  0  0  0  0  0  0
   39.1630   23.7520   36.4860 C   0  0  0  0  0  0  0  0  0  0  0  0
   38.5890   22.4990   36.3560 C   0  0  0  0  0  0  0  0  0  0  0  0
   38.0210   22.1370   35.1790 N   0  0  0  0  0  0  0  0  0  0  0  0
   37.9900   22.9600   34.1120 C   0  0  0  0  0  0  0  0  0  0  0  0
   38.5440   24.1560   34.2520 N   0  0  0  0  0  0  0  0  0  0  0  0
   37.3770   22.5180   32.9100 N   0  0  0  0  0  0  0  0  0  0  0  0
   37.6990   21.1610   32.4770 C   0  0  0  0  0  0  0  0  0  0  0  0
   36.7990   20.6660   31.3800 C   0  0  0  0  0  0  0  0  0  0  0  0
   35.5210   21.3250   31.4810 N   0  0  0  0  0  0  0  0  0  0  0  0
   35.7600   22.7090   31.1020 C   0  0  0  0  0  0  0  0  0  0  0  0
   36.4820   23.4350   32.2310 C   0  0  2  0  0  0  0  0  0  0  0  0
   37.1240   24.6670   31.7180 C   0  0  0  0  0  0  0  0  0  0  0  0
   36.4740   25.8610   32.0760 C   0  0  0  0  0  0  0  0  0  0  0  0
   36.8440   27.1550   31.7370 C   0  0  0  0  0  0  0  0  0  0  0  0
   37.9670   27.2800   30.9690 N   0  0  0  0  0  0  0  0  0  0  0  0
   38.6090   26.1710   30.6100 C   0  0  0  0  0  0  0  0  0  0  0  0
   38.1870   24.9690   30.9780 N   0  0  0  0  0  0  0  0  0  0  0  0
   39.5558   25.5884   35.4044 H   0  0  0  0  0  0  0  0  0  0  0  0
   39.6322   24.0781   37.4259 H   0  0  0  0  0  0  0  0  0  0  0  0
   38.5936   21.7992   37.2047 H   0  0  0  0  0  0  0  0  0  0  0  0
   38.7368   21.1462   32.1126 H   0  0  0  0  0  0  0  0  0  0  0  0
   37.5586   20.4971   33.3428 H   0  0  0  0  0  0  0  0  0  0  0  0
   36.6613   19.5792   31.4795 H   0  0  0  0  0  0  0  0  0  0  0  0
   37.2523   20.8871   30.4024 H   0  0  0  0  0  0  0  0  0  0  0  0
   34.8411   20.8898   30.8412 H   0  0  0  0  0  0  0  0  0  0  0  0
   36.3802   22.7373   30.1939 H   0  0  0  0  0  0  0  0  0  0  0  0
   34.7972   23.2044   30.9082 H   0  0  0  0  0  0  0  0  0  0  0  0
   35.7691   23.7770   32.9957 H   0  0  0  0  0  0  0  0  0  0  0  0
   35.5702   25.7581   32.6946 H   0  0  0  0  0  0  0  0  0  0  0  0
   36.2658   28.0303   32.0679 H   0  0  0  0  0  0  0  0  0  0  0  0
   39.5146   26.2537   29.9910 H   0  0  0  0  0  0  0  0  0  0  0  0
  1  2  2  0
  3  2  1  0
  4  3  2  0
  5  6  2  0
  5  4  1  0
  6  1  1  0
  7  5  1  0
  8  7  1  0
  9 10  1  0
  9  8  1  0
 11 10  1  0
 11 12  1  0
 12  7  1  0
 13 14  2  0
 13 12  1  0
 15 14  1  0
 16 15  2  0
 17 16  1  0
 17 18  2  0
 18 13  1  0
  1 19  1  0
  2 20  1  0
  3 21  1  0
  8 22  1  0
  8 23  1  0
  9 24  1  0
  9 25  1  0
 10 26  1  0
 11 27  1  0
 11 28  1  0
 12 29  1  1
 14 30  1  0
 15 31  1  0
 17 32  1  0
M  ISO  8  19  14  20  14  21  14  22  13  23  13  24  13  25  13  26   5
M  ISO  6  27  13  28  13  29  13  30  14  31  14  32  14
M  END
>  <minimizedAffinity>  (1) 
-4.02961254

>  <minimizedRMSD>  (1) 
4.47673845

$$$$
