
     RDKit          3D

 36 38  0  0  1  0  0  0  0  0999 V2000
   39.8360   22.7000   37.1820 C   0  0  0  0  0  0  0  0  0  0  0  0
   39.0450   23.2540   38.1950 C   0  0  0  0  0  0  0  0  0  0  0  0
   37.6540   23.2960   37.9890 C   0  0  0  0  0  0  0  0  0  0  0  0
   37.1640   22.7980   36.8190 N   0  0  0  0  0  0  0  0  0  0  0  0
   37.9720   22.2680   35.8610 C   0  0  0  0  0  0  0  0  0  0  0  0
   39.2920   22.2300   36.0610 N   0  0  0  0  0  0  0  0  0  0  0  0
   37.3440   21.7780   34.6800 N   0  0  0  0  0  0  0  0  0  0  0  0
   36.1600   20.9380   34.8390 C   0  0  0  0  0  0  0  0  0  0  0  0
   35.4430   20.6850   33.5530 C   0  0  0  0  0  0  0  0  0  0  0  0
   35.7010   21.7490   32.6250 N   0  0  0  0  0  0  0  0  0  0  0  0
   37.1330   21.6150   32.2590 C   0  0  0  0  0  0  0  0  0  0  0  0
   37.9410   22.1590   33.3950 C   0  0  2  0  0  0  0  0  0  0  0  0
   39.3340   21.9180   33.3550 N   0  0  0  0  0  0  0  0  0  0  0  0
   39.7590   20.7830   32.5700 C   0  0  0  0  0  0  0  0  0  0  0  0
   41.2740   20.9920   32.4170 C   0  0  0  0  0  0  0  0  0  0  0  0
   41.4960   22.4330   32.8670 C   0  0  0  0  0  0  0  0  0  0  0  0
   40.0740   22.9830   32.7070 C   0  0  0  0  0  0  0  0  0  0  0  0
   40.9270   22.6519   37.3142 H   0  0  0  0  0  0  0  0  0  0  0  0
   39.4953   23.6431   39.1201 H   0  0  0  0  0  0  0  0  0  0  0  0
   36.9815   23.7185   38.7501 H   0  0  0  0  0  0  0  0  0  0  0  0
   36.4709   19.9715   35.2623 H   0  0  0  0  0  0  0  0  0  0  0  0
   35.4647   21.4739   35.5019 H   0  0  0  0  0  0  0  0  0  0  0  0
   35.7924   19.7348   33.1229 H   0  0  0  0  0  0  0  0  0  0  0  0
   34.3618   20.6331   33.7486 H   0  0  0  0  0  0  0  0  0  0  0  0
   35.1052   21.6516   31.7905 H   0  0  0  0  0  0  0  0  0  0  0  0
   37.3811   20.5560   32.0951 H   0  0  0  0  0  0  0  0  0  0  0  0
   37.3488   22.1659   31.3317 H   0  0  0  0  0  0  0  0  0  0  0  0
   37.8885   23.2510   33.2734 H   0  0  0  0  0  0  0  0  0  0  0  0
   39.5442   19.8405   33.0950 H   0  0  0  0  0  0  0  0  0  0  0  0
   39.2385   20.7146   31.6033 H   0  0  0  0  0  0  0  0  0  0  0  0
   41.8317   20.2924   33.0569 H   0  0  0  0  0  0  0  0  0  0  0  0
   41.6245   20.8107   31.3902 H   0  0  0  0  0  0  0  0  0  0  0  0
   41.8396   22.4866   33.9106 H   0  0  0  0  0  0  0  0  0  0  0  0
   42.2700   22.9793   32.3080 H   0  0  0  0  0  0  0  0  0  0  0  0
   39.9454   23.9457   33.2234 H   0  0  0  0  0  0  0  0  0  0  0  0
   39.7699   23.2040   31.6732 H   0  0  0  0  0  0  0  0  0  0  0  0
  1  2  2  0
  3  2  1  0
  4  3  2  0
  5  6  2  0
  5  4  1  0
  6  1  1  0
  7  8  1  0
  7  5  1  0
  9  8  1  0
 10  9  1  0
 11 10  1  0
 11 12  1  0
 12  7  1  0
 13 14  1  0
 13 12  1  0
 15 14  1  0
 15 16  1  0
 17 16  1  0
 17 13  1  0
  1 18  1  0
  2 19  1  0
  3 20  1  0
  8 21  1  0
  8 22  1  0
  9 23  1  0
  9 24  1  0
 10 25  1  0
 11 26  1  0
 11 27  1  0
 12 28  1  6
 14 29  1  0
 14 30  1  0
 15 31  1  0
 15 32  1  0
 16 33  1  0
 16 34  1  0
 17 35  1  0
 17 36  1  0
M  ISO  8  18  14  19  14  20  14  21  13  22  13  23  13  24  13  25   5
M  ISO  8  26  13  27  13  28  13  29  13  30  13  31  13  32  13  33  13
M  ISO  3  34  13  35  13  36  13
M  END
>  <minimizedAffinity>  (1) 
-4.02563286

>  <minimizedRMSD>  (1) 
0.56590879

$$$$
