
     RDKit          3D

 31 33  0  0  1  0  0  0  0  0999 V2000
   39.8200   22.6610   37.2000 C   0  0  0  0  0  0  0  0  0  0  0  0
   39.0400   23.2750   38.1820 C   0  0  0  0  0  0  0  0  0  0  0  0
   37.6770   23.3520   37.9450 C   0  0  0  0  0  0  0  0  0  0  0  0
   37.1740   22.8340   36.7870 N   0  0  0  0  0  0  0  0  0  0  0  0
   37.9550   22.2480   35.8580 C   0  0  0  0  0  0  0  0  0  0  0  0
   39.2600   22.1820   36.1030 N   0  0  0  0  0  0  0  0  0  0  0  0
   37.3740   21.7340   34.6780 N   0  0  0  0  0  0  0  0  0  0  0  0
   36.1520   20.9390   34.8420 C   0  0  0  0  0  0  0  0  0  0  0  0
   35.4290   20.6870   33.5630 C   0  0  0  0  0  0  0  0  0  0  0  0
   35.7100   21.7450   32.6250 N   0  0  0  0  0  0  0  0  0  0  0  0
   37.1170   21.5870   32.2560 C   0  0  0  0  0  0  0  0  0  0  0  0
   37.9930   22.0210   33.4020 C   0  0  2  0  0  0  0  0  0  0  0  0
   39.4110   21.5980   33.2330 C   0  0  0  0  0  0  0  0  0  0  0  0
   40.4390   22.6190   32.8060 C   0  0  0  0  0  0  0  0  0  0  0  0
   40.0820   21.4630   31.9460 C   0  0  0  0  0  0  0  0  0  0  0  0
   40.9076   22.5755   37.3404 H   0  0  0  0  0  0  0  0  0  0  0  0
   39.4873   23.6792   39.1020 H   0  0  0  0  0  0  0  0  0  0  0  0
   37.0093   23.8244   38.6805 H   0  0  0  0  0  0  0  0  0  0  0  0
   36.4244   19.9695   35.2845 H   0  0  0  0  0  0  0  0  0  0  0  0
   35.4746   21.5174   35.4874 H   0  0  0  0  0  0  0  0  0  0  0  0
   35.7596   19.7269   33.1400 H   0  0  0  0  0  0  0  0  0  0  0  0
   34.3470   20.6537   33.7586 H   0  0  0  0  0  0  0  0  0  0  0  0
   35.1089   21.6561   31.7933 H   0  0  0  0  0  0  0  0  0  0  0  0
   37.3175   20.5311   32.0218 H   0  0  0  0  0  0  0  0  0  0  0  0
   37.3350   22.2081   31.3747 H   0  0  0  0  0  0  0  0  0  0  0  0
   38.0745   23.1179   33.3912 H   0  0  0  0  0  0  0  0  0  0  0  0
   39.2601   20.9049   34.0738 H   0  0  0  0  0  0  0  0  0  0  0  0
   40.1276   23.6361   32.5257 H   0  0  0  0  0  0  0  0  0  0  0  0
   41.3675   23.0277   33.2312 H   0  0  0  0  0  0  0  0  0  0  0  0
   39.5171   21.6289   31.0168 H   0  0  0  0  0  0  0  0  0  0  0  0
   40.6576   20.6607   31.4613 H   0  0  0  0  0  0  0  0  0  0  0  0
  1  2  2  0
  3  2  1  0
  4  3  2  0
  5  6  2  0
  5  4  1  0
  6  1  1  0
  7  8  1  0
  7  5  1  0
  9  8  1  0
 10  9  1  0
 11 10  1  0
 11 12  1  0
 12  7  1  0
 13 12  1  0
 14 13  1  0
 15 14  1  0
 15 13  1  0
  1 16  1  0
  2 17  1  0
  3 18  1  0
  8 19  1  0
  8 20  1  0
  9 21  1  0
  9 22  1  0
 10 23  1  0
 11 24  1  0
 11 25  1  0
 12 26  1  6
 13 27  1  0
 14 28  1  0
 14 29  1  0
 15 30  1  0
 15 31  1  0
M  ISO  8  16  14  17  14  18  14  19  13  20  13  21  13  22  13  23   5
M  ISO  8  24  13  25  13  26  13  27  13  28  13  29  13  30  13  31  13
M  END
>  <minimizedAffinity>  (1) 
-3.87513781

>  <minimizedRMSD>  (1) 
0.922930717

$$$$
