
     RDKit          3D

 39 42  0  0  1  0  0  0  0  0999 V2000
   39.7290   22.9480   38.0280 C   0  0  0  0  0  0  0  0  0  0  0  0
   38.4550   23.3340   38.4780 C   0  0  0  0  0  0  0  0  0  0  0  0
   37.6530   24.0260   37.5880 C   0  0  0  0  0  0  0  0  0  0  0  0
   38.1450   24.2870   36.3490 N   0  0  0  0  0  0  0  0  0  0  0  0
   39.3830   23.9000   35.9410 C   0  0  0  0  0  0  0  0  0  0  0  0
   40.1620   23.2310   36.7930 N   0  0  0  0  0  0  0  0  0  0  0  0
   39.7600   24.2410   34.6240 N   0  0  0  0  0  0  0  0  0  0  0  0
   38.8150   24.0230   33.5490 C   0  0  0  0  0  0  0  0  0  0  0  0
   39.2410   24.6390   32.2530 C   0  0  0  0  0  0  0  0  0  0  0  0
   40.0930   25.7570   32.5020 N   0  0  0  0  0  0  0  0  0  0  0  0
   41.3500   25.1890   33.0070 C   0  0  0  0  0  0  0  0  0  0  0  0
   41.1090   24.7960   34.4620 C   0  0  2  0  0  0  0  0  0  0  0  0
   42.1340   23.8600   34.9860 C   0  0  0  0  0  0  0  0  0  0  0  0
   43.0840   24.3100   35.8690 C   0  0  0  0  0  0  0  0  0  0  0  0
   44.0820   23.5530   36.4330 C   0  0  0  0  0  0  0  0  0  0  0  0
   44.1070   22.2170   36.0570 C   0  0  0  0  0  0  0  0  0  0  0  0
   43.1430   21.7740   35.1660 C   0  0  0  0  0  0  0  0  0  0  0  0
   42.1920   22.5660   34.6500 N   0  0  0  0  0  0  0  0  0  0  0  0
   43.1530   20.4030   34.7680 N   0  0  0  0  0  0  0  0  0  0  0  0
   43.2210   19.3940   35.6740 C   0  0  0  0  0  0  0  0  0  0  0  0
   43.2160   18.2020   35.0530 N   0  0  0  0  0  0  0  0  0  0  0  0
   43.1430   18.4700   33.7370 C   0  0  0  0  0  0  0  0  0  0  0  0
   43.1040   19.8200   33.5750 N   0  0  0  0  0  0  0  0  0  0  0  0
   40.3911   22.3962   38.7115 H   0  0  0  0  0  0  0  0  0  0  0  0
   38.1099   23.0960   39.4950 H   0  0  0  0  0  0  0  0  0  0  0  0
   36.6440   24.3560   37.8760 H   0  0  0  0  0  0  0  0  0  0  0  0
   38.7000   22.9393   33.3995 H   0  0  0  0  0  0  0  0  0  0  0  0
   37.8700   24.5031   33.8432 H   0  0  0  0  0  0  0  0  0  0  0  0
   38.3518   24.9746   31.6992 H   0  0  0  0  0  0  0  0  0  0  0  0
   39.7889   23.8917   31.6602 H   0  0  0  0  0  0  0  0  0  0  0  0
   40.2597   26.2831   31.6323 H   0  0  0  0  0  0  0  0  0  0  0  0
   41.6280   24.3030   32.4174 H   0  0  0  0  0  0  0  0  0  0  0  0
   42.1700   25.9179   32.9278 H   0  0  0  0  0  0  0  0  0  0  0  0
   41.1951   25.7148   35.0607 H   0  0  0  0  0  0  0  0  0  0  0  0
   43.0423   25.3726   36.1503 H   0  0  0  0  0  0  0  0  0  0  0  0
   44.8133   23.9777   37.1364 H   0  0  0  0  0  0  0  0  0  0  0  0
   44.8692   21.5307   36.4545 H   0  0  0  0  0  0  0  0  0  0  0  0
   43.2729   19.5327   36.7640 H   0  0  0  0  0  0  0  0  0  0  0  0
   43.1189   17.7241   32.9289 H   0  0  0  0  0  0  0  0  0  0  0  0
  1  2  2  0
  3  2  1  0
  4  3  2  0
  5  4  1  0
  5  6  2  0
  6  1  1  0
  7  5  1  0
  8  7  1  0
  9 10  1  0
  9  8  1  0
 10 11  1  0
 11 12  1  0
 12  7  1  0
 12 13  1  0
 13 14  2  0
 14 15  1  0
 16 15  2  0
 17 16  1  0
 18 13  1  0
 18 17  2  0
 19 17  1  0
 19 20  1  0
 21 20  2  0
 22 21  1  0
 23 22  2  0
 23 19  1  0
  1 24  1  0
  2 25  1  0
  3 26  1  0
  8 27  1  0
  8 28  1  0
  9 29  1  0
  9 30  1  0
 10 31  1  0
 11 32  1  0
 11 33  1  0
 12 34  1  1
 14 35  1  0
 15 36  1  0
 16 37  1  0
 20 38  1  0
 22 39  1  0
M  ISO  8  24  14  25  14  26  14  27  13  28  13  29  13  30  13  31   5
M  ISO  8  32  13  33  13  34  13  35  14  36  14  37  14  38  14  39  14
M  END
>  <minimizedAffinity>  (1) 
-4.69865847

>  <minimizedRMSD>  (1) 
1.60616755

$$$$
