
     RDKit          3D

 45 48  0  0  1  0  0  0  0  0999 V2000
   39.6610   22.9520   38.1080 C   0  0  0  0  0  0  0  0  0  0  0  0
   38.4110   23.3650   38.5790 C   0  0  0  0  0  0  0  0  0  0  0  0
   37.5800   24.0360   37.6850 C   0  0  0  0  0  0  0  0  0  0  0  0
   38.0340   24.2450   36.4200 N   0  0  0  0  0  0  0  0  0  0  0  0
   39.2590   23.8280   35.9960 C   0  0  0  0  0  0  0  0  0  0  0  0
   40.0610   23.1800   36.8630 N   0  0  0  0  0  0  0  0  0  0  0  0
   39.6020   24.1130   34.6550 N   0  0  0  0  0  0  0  0  0  0  0  0
   38.6230   23.8620   33.6170 C   0  0  0  0  0  0  0  0  0  0  0  0
   39.0250   24.4070   32.2830 C   0  0  0  0  0  0  0  0  0  0  0  0
   39.8890   25.5340   32.4600 N   0  0  0  0  0  0  0  0  0  0  0  0
   41.1530   24.9940   32.9670 C   0  0  0  0  0  0  0  0  0  0  0  0
   40.9510   24.6490   34.4360 C   0  0  2  0  0  0  0  0  0  0  0  0
   41.9800   23.7250   34.9600 C   0  0  0  0  0  0  0  0  0  0  0  0
   42.9580   24.1820   35.8070 C   0  0  0  0  0  0  0  0  0  0  0  0
   43.9710   23.4610   36.3780 C   0  0  0  0  0  0  0  0  0  0  0  0
   43.9710   22.1020   36.0280 C   0  0  0  0  0  0  0  0  0  0  0  0
   42.9830   21.6300   35.1700 C   0  0  0  0  0  0  0  0  0  0  0  0
   42.0340   22.4240   34.6670 N   0  0  0  0  0  0  0  0  0  0  0  0
   42.9930   20.2430   34.8220 N   0  0  0  0  0  0  0  0  0  0  0  0
   42.7900   19.9340   33.4320 C   0  0  0  0  0  0  0  0  0  0  0  0
   42.6750   18.4880   33.1050 C   0  0  0  0  0  0  0  0  0  0  0  0
   42.9930   17.5770   34.1550 N   0  0  0  0  0  0  0  0  0  0  0  0
   43.9060   18.0690   35.1390 C   0  0  0  0  0  0  0  0  0  0  0  0
   43.1990   19.2350   35.8390 C   0  0  0  0  0  0  0  0  0  0  0  0
   40.3368   22.4194   38.7933 H   0  0  0  0  0  0  0  0  0  0  0  0
   38.0964   23.1678   39.6144 H   0  0  0  0  0  0  0  0  0  0  0  0
   36.5842   24.3871   37.9934 H   0  0  0  0  0  0  0  0  0  0  0  0
   38.4841   22.7749   33.5230 H   0  0  0  0  0  0  0  0  0  0  0  0
   37.6950   24.3733   33.9126 H   0  0  0  0  0  0  0  0  0  0  0  0
   38.1266   24.7189   31.7302 H   0  0  0  0  0  0  0  0  0  0  0  0
   39.5563   23.6274   31.7174 H   0  0  0  0  0  0  0  0  0  0  0  0
   40.0394   26.0150   31.5617 H   0  0  0  0  0  0  0  0  0  0  0  0
   41.4272   24.0898   32.4038 H   0  0  0  0  0  0  0  0  0  0  0  0
   41.9615   25.7308   32.8513 H   0  0  0  0  0  0  0  0  0  0  0  0
   41.0620   25.5856   35.0022 H   0  0  0  0  0  0  0  0  0  0  0  0
   42.9236   25.2529   36.0560 H   0  0  0  0  0  0  0  0  0  0  0  0
   44.7183   23.9066   37.0510 H   0  0  0  0  0  0  0  0  0  0  0  0
   44.7389   21.4219   36.4252 H   0  0  0  0  0  0  0  0  0  0  0  0
   42.7241   20.7161   32.6613 H   0  0  0  0  0  0  0  0  0  0  0  0
   42.3623   18.1406   32.1093 H   0  0  0  0  0  0  0  0  0  0  0  0
   42.5923   16.6293   34.2013 H   0  0  0  0  0  0  0  0  0  0  0  0
   44.1458   17.2782   35.8650 H   0  0  0  0  0  0  0  0  0  0  0  0
   44.8515   18.3932   34.6797 H   0  0  0  0  0  0  0  0  0  0  0  0
   43.8276   19.6323   36.6495 H   0  0  0  0  0  0  0  0  0  0  0  0
   42.2477   18.9174   36.2908 H   0  0  0  0  0  0  0  0  0  0  0  0
  1  2  2  0
  3  2  1  0
  4  3  2  0
  5  4  1  0
  5  6  2  0
  6  1  1  0
  7  5  1  0
  8  7  1  0
  9 10  1  0
  9  8  1  0
 10 11  1  0
 11 12  1  0
 12  7  1  0
 12 13  1  0
 13 14  2  0
 14 15  1  0
 16 15  2  0
 17 16  1  0
 18 13  1  0
 18 17  2  0
 19 17  1  0
 19 24  1  0
 20 19  1  0
 21 20  2  0
 21 22  1  0
 22 23  1  0
 23 24  1  0
  1 25  1  0
  2 26  1  0
  3 27  1  0
  8 28  1  0
  8 29  1  0
  9 30  1  0
  9 31  1  0
 10 32  1  0
 11 33  1  0
 11 34  1  0
 12 35  1  1
 14 36  1  0
 15 37  1  0
 16 38  1  0
 20 39  1  0
 21 40  1  0
 22 41  1  0
 23 42  1  0
 23 43  1  0
 24 44  1  0
 24 45  1  0
M  ISO  8  25  14  26  14  27  14  28  13  29  13  30  13  31  13  32   5
M  ISO  8  33  13  34  13  35  13  36  14  37  14  38  14  39  13  40  13
M  ISO  4  42  13  43  13  44  13  45  13
M  END
>  <minimizedAffinity>  (1) 
-4.73937893

>  <minimizedRMSD>  (1) 
1.77193272

$$$$
