
     RDKit          3D

 45 48  0  0  1  0  0  0  0  0999 V2000
   39.7030   22.9450   38.0010 C   0  0  0  0  0  0  0  0  0  0  0  0
   38.4540   23.3570   38.4680 C   0  0  0  0  0  0  0  0  0  0  0  0
   37.6830   24.1420   37.6130 C   0  0  0  0  0  0  0  0  0  0  0  0
   38.1910   24.4520   36.3930 N   0  0  0  0  0  0  0  0  0  0  0  0
   39.4160   24.0310   35.9710 C   0  0  0  0  0  0  0  0  0  0  0  0
   40.1560   23.2790   36.7890 N   0  0  0  0  0  0  0  0  0  0  0  0
   39.8160   24.4300   34.6770 N   0  0  0  0  0  0  0  0  0  0  0  0
   38.8730   24.3150   33.5900 C   0  0  0  0  0  0  0  0  0  0  0  0
   39.3300   24.9650   32.3250 C   0  0  0  0  0  0  0  0  0  0  0  0
   40.2280   26.0340   32.6350 N   0  0  0  0  0  0  0  0  0  0  0  0
   41.4600   25.4010   33.1250 C   0  0  0  0  0  0  0  0  0  0  0  0
   41.1860   24.9370   34.5540 C   0  0  2  0  0  0  0  0  0  0  0  0
   42.1700   23.9330   35.0280 C   0  0  0  0  0  0  0  0  0  0  0  0
   43.1470   24.3040   35.9270 C   0  0  0  0  0  0  0  0  0  0  0  0
   44.1130   23.4660   36.4440 C   0  0  0  0  0  0  0  0  0  0  0  0
   44.0720   22.1540   36.0070 C   0  0  0  0  0  0  0  0  0  0  0  0
   43.0890   21.8010   35.1090 C   0  0  0  0  0  0  0  0  0  0  0  0
   42.1710   22.6560   34.6350 N   0  0  0  0  0  0  0  0  0  0  0  0
   42.9950   20.4640   34.6210 N   0  0  0  0  0  0  0  0  0  0  0  0
   42.5160   19.9410   33.3550 C   0  0  0  0  0  0  0  0  0  0  0  0
   43.6590   19.0310   32.8940 C   0  0  0  0  0  0  0  0  0  0  0  0
   43.9500   18.3310   34.2020 C   0  0  0  0  0  0  0  0  0  0  0  0
   43.3510   19.2030   35.2440 C   0  0  0  0  0  0  0  0  0  0  0  0
   40.3358   22.3245   38.6525 H   0  0  0  0  0  0  0  0  0  0  0  0
   38.0937   23.0742   39.4681 H   0  0  0  0  0  0  0  0  0  0  0  0
   36.6891   24.5009   37.9186 H   0  0  0  0  0  0  0  0  0  0  0  0
   38.7032   23.2468   33.3895 H   0  0  0  0  0  0  0  0  0  0  0  0
   37.9561   24.8349   33.9046 H   0  0  0  0  0  0  0  0  0  0  0  0
   38.4599   25.3629   31.7823 H   0  0  0  0  0  0  0  0  0  0  0  0
   39.8460   24.2233   31.6976 H   0  0  0  0  0  0  0  0  0  0  0  0
   40.4238   26.5924   31.7920 H   0  0  0  0  0  0  0  0  0  0  0  0
   41.7200   24.5401   32.4916 H   0  0  0  0  0  0  0  0  0  0  0  0
   42.3025   26.1077   33.0966 H   0  0  0  0  0  0  0  0  0  0  0  0
   41.2984   25.8164   35.2052 H   0  0  0  0  0  0  0  0  0  0  0  0
   43.1571   25.3527   36.2588 H   0  0  0  0  0  0  0  0  0  0  0  0
   44.8697   23.8193   37.1600 H   0  0  0  0  0  0  0  0  0  0  0  0
   44.8029   21.4145   36.3661 H   0  0  0  0  0  0  0  0  0  0  0  0
   41.5869   19.3681   33.4916 H   0  0  0  0  0  0  0  0  0  0  0  0
   42.2739   20.7298   32.6276 H   0  0  0  0  0  0  0  0  0  0  0  0
   43.3358   18.3271   32.1130 H   0  0  0  0  0  0  0  0  0  0  0  0
   44.5152   19.5453   32.4332 H   0  0  0  0  0  0  0  0  0  0  0  0
   43.4863   17.3337   34.2186 H   0  0  0  0  0  0  0  0  0  0  0  0
   45.0280   18.1789   34.3592 H   0  0  0  0  0  0  0  0  0  0  0  0
   44.0795   19.3769   36.0496 H   0  0  0  0  0  0  0  0  0  0  0  0
   42.4599   18.7251   35.6771 H   0  0  0  0  0  0  0  0  0  0  0  0
  1  2  2  0
  3  2  1  0
  4  3  2  0
  5  4  1  0
  5  6  2  0
  6  1  1  0
  7  5  1  0
  8  7  1  0
  9 10  1  0
  9  8  1  0
 10 11  1  0
 11 12  1  0
 12  7  1  0
 12 13  1  0
 13 14  2  0
 14 15  1  0
 16 15  2  0
 17 16  1  0
 18 13  1  0
 18 17  2  0
 19 17  1  0
 19 23  1  0
 20 19  1  0
 21 20  1  0
 21 22  1  0
 22 23  1  0
  1 24  1  0
  2 25  1  0
  3 26  1  0
  8 27  1  0
  8 28  1  0
  9 29  1  0
  9 30  1  0
 10 31  1  0
 11 32  1  0
 11 33  1  0
 12 34  1  1
 14 35  1  0
 15 36  1  0
 16 37  1  0
 20 38  1  0
 20 39  1  0
 21 40  1  0
 21 41  1  0
 22 42  1  0
 22 43  1  0
 23 44  1  0
 23 45  1  0
M  ISO  8  24  14  25  14  26  14  27  13  28  13  29  13  30  13  31   5
M  ISO  8  32  13  33  13  34  13  35  14  36  14  37  14  38  13  39  13
M  ISO  6  40  13  41  13  42  13  43  13  44  13  45  13
M  END
>  <minimizedAffinity>  (1) 
-4.61808586

>  <minimizedRMSD>  (1) 
1.52309287

$$$$
