
     RDKit          3D

 40 43  0  0  1  0  0  0  0  0999 V2000
   39.7110   22.9450   37.9840 C   0  0  0  0  0  0  0  0  0  0  0  0
   38.4460   23.3240   38.4320 C   0  0  0  0  0  0  0  0  0  0  0  0
   37.6670   24.0760   37.5650 C   0  0  0  0  0  0  0  0  0  0  0  0
   38.1770   24.3910   36.3550 N   0  0  0  0  0  0  0  0  0  0  0  0
   39.4170   24.0090   35.9410 C   0  0  0  0  0  0  0  0  0  0  0  0
   40.1710   23.2830   36.7780 N   0  0  0  0  0  0  0  0  0  0  0  0
   39.8210   24.4100   34.6500 N   0  0  0  0  0  0  0  0  0  0  0  0
   38.8900   24.2670   33.5510 C   0  0  0  0  0  0  0  0  0  0  0  0
   39.3490   24.9310   32.2940 C   0  0  0  0  0  0  0  0  0  0  0  0
   40.2210   26.0210   32.6090 N   0  0  0  0  0  0  0  0  0  0  0  0
   41.4520   25.4230   33.1190 C   0  0  0  0  0  0  0  0  0  0  0  0
   41.1820   24.9470   34.5370 C   0  0  2  0  0  0  0  0  0  0  0  0
   42.1810   23.9730   35.0280 C   0  0  0  0  0  0  0  0  0  0  0  0
   43.1390   24.3590   35.9330 C   0  0  0  0  0  0  0  0  0  0  0  0
   44.1180   23.5490   36.4670 C   0  0  0  0  0  0  0  0  0  0  0  0
   44.1110   22.2280   36.0320 C   0  0  0  0  0  0  0  0  0  0  0  0
   43.1390   21.8510   35.1180 C   0  0  0  0  0  0  0  0  0  0  0  0
   42.2150   22.6940   34.6390 N   0  0  0  0  0  0  0  0  0  0  0  0
   43.0970   20.5080   34.6470 N   0  0  0  0  0  0  0  0  0  0  0  0
   42.9320   19.8740   33.4780 C   0  0  0  0  0  0  0  0  0  0  0  0
   43.0040   18.5110   33.7550 C   0  0  0  0  0  0  0  0  0  0  0  0
   43.2100   18.3410   35.0680 N   0  0  0  0  0  0  0  0  0  0  0  0
   43.2680   19.5810   35.6300 C   0  0  0  0  0  0  0  0  0  0  0  0
   40.3520   22.3465   38.6480 H   0  0  0  0  0  0  0  0  0  0  0  0
   38.0816   23.0389   39.4300 H   0  0  0  0  0  0  0  0  0  0  0  0
   36.6592   24.4074   37.8558 H   0  0  0  0  0  0  0  0  0  0  0  0
   38.7518   23.1947   33.3484 H   0  0  0  0  0  0  0  0  0  0  0  0
   37.9529   24.7573   33.8535 H   0  0  0  0  0  0  0  0  0  0  0  0
   38.4762   25.3100   31.7421 H   0  0  0  0  0  0  0  0  0  0  0  0
   39.8914   24.2004   31.6759 H   0  0  0  0  0  0  0  0  0  0  0  0
   40.4172   26.5770   31.7644 H   0  0  0  0  0  0  0  0  0  0  0  0
   41.7444   24.5713   32.4873 H   0  0  0  0  0  0  0  0  0  0  0  0
   42.2702   26.1581   33.1088 H   0  0  0  0  0  0  0  0  0  0  0  0
   41.2743   25.8295   35.1871 H   0  0  0  0  0  0  0  0  0  0  0  0
   43.1237   25.4088   36.2612 H   0  0  0  0  0  0  0  0  0  0  0  0
   44.8572   23.9232   37.1906 H   0  0  0  0  0  0  0  0  0  0  0  0
   44.8532   21.5051   36.4015 H   0  0  0  0  0  0  0  0  0  0  0  0
   42.7714   20.3384   32.4939 H   0  0  0  0  0  0  0  0  0  0  0  0
   42.9072   17.7034   33.0145 H   0  0  0  0  0  0  0  0  0  0  0  0
   43.4262   19.7967   36.6970 H   0  0  0  0  0  0  0  0  0  0  0  0
  1  2  2  0
  3  2  1  0
  4  3  2  0
  5  4  1  0
  5  6  2  0
  6  1  1  0
  7  5  1  0
  8  7  1  0
  9 10  1  0
  9  8  1  0
 10 11  1  0
 11 12  1  0
 12  7  1  0
 12 13  1  0
 13 14  2  0
 14 15  1  0
 16 15  2  0
 17 16  1  0
 18 13  1  0
 18 17  2  0
 19 17  1  0
 19 23  1  0
 20 21  2  0
 20 19  1  0
 21 22  1  0
 22 23  2  0
  1 24  1  0
  2 25  1  0
  3 26  1  0
  8 27  1  0
  8 28  1  0
  9 29  1  0
  9 30  1  0
 10 31  1  0
 11 32  1  0
 11 33  1  0
 12 34  1  1
 14 35  1  0
 15 36  1  0
 16 37  1  0
 20 38  1  0
 21 39  1  0
 23 40  1  0
M  ISO  8  24  14  25  14  26  14  27  13  28  13  29  13  30  13  31   5
M  ISO  8  32  13  33  13  34  13  35  14  36  14  37  14  38  14  39  14
M  ISO  1  40  14
M  END
>  <minimizedAffinity>  (1) 
-4.72259474

>  <minimizedRMSD>  (1) 
1.50320184

$$$$
