
     RDKit          3D

 43 46  0  0  1  0  0  0  0  0999 V2000
   39.7060   22.9490   37.9950 C   0  0  0  0  0  0  0  0  0  0  0  0
   38.4440   23.3480   38.4570 C   0  0  0  0  0  0  0  0  0  0  0  0
   37.6690   24.1190   37.5960 C   0  0  0  0  0  0  0  0  0  0  0  0
   38.1840   24.4280   36.3790 N   0  0  0  0  0  0  0  0  0  0  0  0
   39.4140   24.0220   35.9620 C   0  0  0  0  0  0  0  0  0  0  0  0
   40.1600   23.2820   36.7870 N   0  0  0  0  0  0  0  0  0  0  0  0
   39.8160   24.4220   34.6680 N   0  0  0  0  0  0  0  0  0  0  0  0
   38.8720   24.3030   33.5800 C   0  0  0  0  0  0  0  0  0  0  0  0
   39.3420   24.9510   32.3180 C   0  0  0  0  0  0  0  0  0  0  0  0
   40.2180   26.0330   32.6330 N   0  0  0  0  0  0  0  0  0  0  0  0
   41.4530   25.4120   33.1290 C   0  0  0  0  0  0  0  0  0  0  0  0
   41.1870   24.9300   34.5500 C   0  0  2  0  0  0  0  0  0  0  0  0
   42.1780   23.9420   35.0320 C   0  0  0  0  0  0  0  0  0  0  0  0
   43.1550   24.3310   35.9170 C   0  0  0  0  0  0  0  0  0  0  0  0
   44.1290   23.5120   36.4450 C   0  0  0  0  0  0  0  0  0  0  0  0
   44.0800   22.1820   36.0160 C   0  0  0  0  0  0  0  0  0  0  0  0
   43.0940   21.8120   35.1300 C   0  0  0  0  0  0  0  0  0  0  0  0
   42.1700   22.6590   34.6500 N   0  0  0  0  0  0  0  0  0  0  0  0
   43.0050   20.4360   34.6560 C   0  0  0  0  0  0  0  0  0  0  0  0
   43.3580   19.3860   35.4910 C   0  0  0  0  0  0  0  0  0  0  0  0
   43.3050   18.0550   35.1270 C   0  0  0  0  0  0  0  0  0  0  0  0
   42.8740   17.7310   33.8580 C   0  0  0  0  0  0  0  0  0  0  0  0
   42.5080   18.7490   32.9860 C   0  0  0  0  0  0  0  0  0  0  0  0
   42.5830   20.0540   33.4020 C   0  0  0  0  0  0  0  0  0  0  0  0
   40.3438   22.3399   38.6524 H   0  0  0  0  0  0  0  0  0  0  0  0
   38.0823   23.0641   39.4563 H   0  0  0  0  0  0  0  0  0  0  0  0
   36.6688   24.4676   37.8929 H   0  0  0  0  0  0  0  0  0  0  0  0
   38.7005   23.2347   33.3814 H   0  0  0  0  0  0  0  0  0  0  0  0
   37.9511   24.8194   33.8888 H   0  0  0  0  0  0  0  0  0  0  0  0
   38.4757   25.3325   31.7577 H   0  0  0  0  0  0  0  0  0  0  0  0
   39.8797   24.2118   31.7060 H   0  0  0  0  0  0  0  0  0  0  0  0
   40.4113   26.5953   31.7919 H   0  0  0  0  0  0  0  0  0  0  0  0
   41.7280   24.5605   32.4892 H   0  0  0  0  0  0  0  0  0  0  0  0
   42.2820   26.1349   33.1148 H   0  0  0  0  0  0  0  0  0  0  0  0
   41.3004   25.8034   35.2090 H   0  0  0  0  0  0  0  0  0  0  0  0
   43.1597   25.3854   36.2302 H   0  0  0  0  0  0  0  0  0  0  0  0
   44.8888   23.8773   37.1516 H   0  0  0  0  0  0  0  0  0  0  0  0
   44.8138   21.4472   36.3789 H   0  0  0  0  0  0  0  0  0  0  0  0
   43.7018   19.6290   36.5072 H   0  0  0  0  0  0  0  0  0  0  0  0
   43.6011   17.2680   35.8362 H   0  0  0  0  0  0  0  0  0  0  0  0
   42.8205   16.6794   33.5398 H   0  0  0  0  0  0  0  0  0  0  0  0
   42.1608   18.5103   31.9699 H   0  0  0  0  0  0  0  0  0  0  0  0
   42.2889   20.8414   32.6924 H   0  0  0  0  0  0  0  0  0  0  0  0
  1  2  2  0
  3  2  1  0
  4  3  2  0
  5  4  1  0
  5  6  2  0
  6  1  1  0
  7  5  1  0
  8  7  1  0
  9 10  1  0
  9  8  1  0
 10 11  1  0
 11 12  1  0
 12  7  1  0
 12 13  1  0
 13 14  2  0
 14 15  1  0
 16 15  2  0
 17 16  1  0
 18 13  1  0
 18 17  2  0
 19 17  1  0
 19 20  2  0
 21 20  1  0
 22 21  2  0
 23 24  2  0
 23 22  1  0
 24 19  1  0
  1 25  1  0
  2 26  1  0
  3 27  1  0
  8 28  1  0
  8 29  1  0
  9 30  1  0
  9 31  1  0
 10 32  1  0
 11 33  1  0
 11 34  1  0
 12 35  1  1
 14 36  1  0
 15 37  1  0
 16 38  1  0
 20 39  1  0
 21 40  1  0
 22 41  1  0
 23 42  1  0
 24 43  1  0
M  ISO  8  25  14  26  14  27  14  28  13  29  13  30  13  31  13  32   5
M  ISO  8  33  13  34  13  35  13  36  14  37  14  38  14  39  14  40  14
M  ISO  3  41  14  42  14  43  14
M  END
>  <minimizedAffinity>  (1) 
-4.55345106

>  <minimizedRMSD>  (1) 
1.62802172

$$$$
