
     RDKit          3D

 42 45  0  0  1  0  0  0  0  0999 V2000
   39.6860   22.9330   38.0080 C   0  0  0  0  0  0  0  0  0  0  0  0
   38.4390   23.3540   38.4770 C   0  0  0  0  0  0  0  0  0  0  0  0
   37.6910   24.1390   37.6230 C   0  0  0  0  0  0  0  0  0  0  0  0
   38.1920   24.4510   36.4040 N   0  0  0  0  0  0  0  0  0  0  0  0
   39.4120   24.0240   35.9780 C   0  0  0  0  0  0  0  0  0  0  0  0
   40.1470   23.2620   36.7990 N   0  0  0  0  0  0  0  0  0  0  0  0
   39.8180   24.4200   34.6840 N   0  0  0  0  0  0  0  0  0  0  0  0
   38.8760   24.3130   33.5910 C   0  0  0  0  0  0  0  0  0  0  0  0
   39.3460   24.9720   32.3340 C   0  0  0  0  0  0  0  0  0  0  0  0
   40.2480   26.0230   32.6460 N   0  0  0  0  0  0  0  0  0  0  0  0
   41.4720   25.3820   33.1420 C   0  0  0  0  0  0  0  0  0  0  0  0
   41.1940   24.9170   34.5680 C   0  0  2  0  0  0  0  0  0  0  0  0
   42.1650   23.9010   35.0380 C   0  0  0  0  0  0  0  0  0  0  0  0
   43.1570   24.2470   35.9230 C   0  0  0  0  0  0  0  0  0  0  0  0
   44.1150   23.4060   36.4370 C   0  0  0  0  0  0  0  0  0  0  0  0
   44.0480   22.0890   36.0040 C   0  0  0  0  0  0  0  0  0  0  0  0
   43.0510   21.7480   35.1170 C   0  0  0  0  0  0  0  0  0  0  0  0
   42.1460   22.6190   34.6520 N   0  0  0  0  0  0  0  0  0  0  0  0
   42.9800   20.3570   34.6580 C   0  0  0  0  0  0  0  0  0  0  0  0
   42.5480   20.0420   33.3860 C   0  0  0  0  0  0  0  0  0  0  0  0
   42.4750   18.7400   32.9360 C   0  0  0  0  0  0  0  0  0  0  0  0
   42.8590   17.7660   33.8350 C   0  0  0  0  0  0  0  0  0  0  0  0
   43.3000   18.0560   35.1310 C   0  0  0  0  0  0  0  0  0  0  0  0
   43.3390   19.3510   35.4780 N   0  0  0  0  0  0  0  0  0  0  0  0
   40.3121   22.3063   38.6601 H   0  0  0  0  0  0  0  0  0  0  0  0
   38.0722   23.0742   39.4756 H   0  0  0  0  0  0  0  0  0  0  0  0
   36.7003   24.5066   37.9286 H   0  0  0  0  0  0  0  0  0  0  0  0
   38.7041   23.2468   33.3822 H   0  0  0  0  0  0  0  0  0  0  0  0
   37.9565   24.8295   33.9037 H   0  0  0  0  0  0  0  0  0  0  0  0
   38.4811   25.3827   31.7924 H   0  0  0  0  0  0  0  0  0  0  0  0
   39.8598   24.2289   31.7065 H   0  0  0  0  0  0  0  0  0  0  0  0
   40.4529   26.5790   31.8035 H   0  0  0  0  0  0  0  0  0  0  0  0
   41.7291   24.5204   32.5084 H   0  0  0  0  0  0  0  0  0  0  0  0
   42.3171   26.0858   33.1194 H   0  0  0  0  0  0  0  0  0  0  0  0
   41.3158   25.7922   35.2232 H   0  0  0  0  0  0  0  0  0  0  0  0
   43.1876   25.2964   36.2514 H   0  0  0  0  0  0  0  0  0  0  0  0
   44.8830   23.7533   37.1438 H   0  0  0  0  0  0  0  0  0  0  0  0
   44.7703   21.3392   36.3590 H   0  0  0  0  0  0  0  0  0  0  0  0
   42.2519   20.8562   32.7082 H   0  0  0  0  0  0  0  0  0  0  0  0
   42.1311   18.4929   31.9208 H   0  0  0  0  0  0  0  0  0  0  0  0
   42.8165   16.7134   33.5183 H   0  0  0  0  0  0  0  0  0  0  0  0
   43.5997   17.2615   35.8303 H   0  0  0  0  0  0  0  0  0  0  0  0
  1  2  2  0
  3  2  1  0
  4  3  2  0
  5  4  1  0
  5  6  2  0
  6  1  1  0
  7  5  1  0
  8  7  1  0
  9 10  1  0
  9  8  1  0
 10 11  1  0
 11 12  1  0
 12  7  1  0
 12 13  1  0
 13 14  2  0
 14 15  1  0
 16 15  2  0
 17 16  1  0
 18 13  1  0
 18 17  2  0
 19 17  1  0
 19 24  1  0
 20 19  2  0
 21 20  1  0
 21 22  2  0
 22 23  1  0
 23 24  2  0
  1 25  1  0
  2 26  1  0
  3 27  1  0
  8 28  1  0
  8 29  1  0
  9 30  1  0
  9 31  1  0
 10 32  1  0
 11 33  1  0
 11 34  1  0
 12 35  1  1
 14 36  1  0
 15 37  1  0
 16 38  1  0
 20 39  1  0
 21 40  1  0
 22 41  1  0
 23 42  1  0
M  ISO  8  25  14  26  14  27  14  28  13  29  13  30  13  31  13  32   5
M  ISO  8  33  13  34  13  35  13  36  14  37  14  38  14  39  14  40  14
M  ISO  2  41  14  42  14
M  END
>  <minimizedAffinity>  (1) 
-4.54772472

>  <minimizedRMSD>  (1) 
1.72883844

$$$$
