
     RDKit          3D

 40 43  0  0  1  0  0  0  0  0999 V2000
   39.7050   22.9170   38.0000 C   0  0  0  0  0  0  0  0  0  0  0  0
   38.4600   23.3460   38.4720 C   0  0  0  0  0  0  0  0  0  0  0  0
   37.6940   24.1480   37.6260 C   0  0  0  0  0  0  0  0  0  0  0  0
   38.2030   24.4600   36.4050 N   0  0  0  0  0  0  0  0  0  0  0  0
   39.4210   24.0260   35.9750 C   0  0  0  0  0  0  0  0  0  0  0  0
   40.1550   23.2540   36.7930 N   0  0  0  0  0  0  0  0  0  0  0  0
   39.8220   24.4290   34.6830 N   0  0  0  0  0  0  0  0  0  0  0  0
   38.8700   24.3360   33.5950 C   0  0  0  0  0  0  0  0  0  0  0  0
   39.3490   24.9650   32.3290 C   0  0  0  0  0  0  0  0  0  0  0  0
   40.2550   26.0260   32.6440 N   0  0  0  0  0  0  0  0  0  0  0  0
   41.4740   25.3840   33.1350 C   0  0  0  0  0  0  0  0  0  0  0  0
   41.2020   24.9140   34.5620 C   0  0  2  0  0  0  0  0  0  0  0  0
   42.1730   23.8920   35.0260 C   0  0  0  0  0  0  0  0  0  0  0  0
   43.1580   24.2440   35.9180 C   0  0  0  0  0  0  0  0  0  0  0  0
   44.1190   23.4010   36.4340 C   0  0  0  0  0  0  0  0  0  0  0  0
   44.0580   22.0830   35.9940 C   0  0  0  0  0  0  0  0  0  0  0  0
   43.0570   21.7430   35.0930 C   0  0  0  0  0  0  0  0  0  0  0  0
   42.1510   22.6150   34.6290 N   0  0  0  0  0  0  0  0  0  0  0  0
   43.0350   20.3470   34.6600 C   0  0  0  0  0  0  0  0  0  0  0  0
   42.7780   19.8010   33.4210 C   0  0  0  0  0  0  0  0  0  0  0  0
   42.8690   18.4150   33.4830 C   0  0  0  0  0  0  0  0  0  0  0  0
   43.1840   18.1540   34.7830 N   0  0  0  0  0  0  0  0  0  0  0  0
   43.2760   19.2860   35.4480 N   0  0  0  0  0  0  0  0  0  0  0  0
   40.3307   22.2826   38.6450 H   0  0  0  0  0  0  0  0  0  0  0  0
   38.0991   23.0619   39.4715 H   0  0  0  0  0  0  0  0  0  0  0  0
   36.7060   24.5175   37.9382 H   0  0  0  0  0  0  0  0  0  0  0  0
   38.6668   23.2726   33.4002 H   0  0  0  0  0  0  0  0  0  0  0  0
   37.9680   24.8830   33.9068 H   0  0  0  0  0  0  0  0  0  0  0  0
   38.4910   25.3676   31.7707 H   0  0  0  0  0  0  0  0  0  0  0  0
   39.8622   24.2116   31.7133 H   0  0  0  0  0  0  0  0  0  0  0  0
   40.4586   26.5842   31.8026 H   0  0  0  0  0  0  0  0  0  0  0  0
   41.7281   24.5238   32.4982 H   0  0  0  0  0  0  0  0  0  0  0  0
   42.3187   26.0883   33.1133 H   0  0  0  0  0  0  0  0  0  0  0  0
   41.3339   25.7841   35.2220 H   0  0  0  0  0  0  0  0  0  0  0  0
   43.1815   25.2925   36.2498 H   0  0  0  0  0  0  0  0  0  0  0  0
   44.8827   23.7474   37.1459 H   0  0  0  0  0  0  0  0  0  0  0  0
   44.7803   21.3329   36.3486 H   0  0  0  0  0  0  0  0  0  0  0  0
   42.5363   20.3773   32.5157 H   0  0  0  0  0  0  0  0  0  0  0  0
   42.7203   17.6924   32.6671 H   0  0  0  0  0  0  0  0  0  0  0  0
   43.3278   17.2159   35.1832 H   0  0  0  0  0  0  0  0  0  0  0  0
  1  2  2  0
  3  2  1  0
  4  3  2  0
  5  4  1  0
  5  6  2  0
  6  1  1  0
  7  5  1  0
  8  7  1  0
  9 10  1  0
  9  8  1  0
 10 11  1  0
 11 12  1  0
 12  7  1  0
 12 13  1  0
 13 14  2  0
 14 15  1  0
 16 15  2  0
 17 16  1  0
 18 13  1  0
 18 17  2  0
 19 17  1  0
 19 23  2  0
 20 21  2  0
 20 19  1  0
 21 22  1  0
 22 23  1  0
  1 24  1  0
  2 25  1  0
  3 26  1  0
  8 27  1  0
  8 28  1  0
  9 29  1  0
  9 30  1  0
 10 31  1  0
 11 32  1  0
 11 33  1  0
 12 34  1  1
 14 35  1  0
 15 36  1  0
 16 37  1  0
 20 38  1  0
 21 39  1  0
 22 40  1  0
M  ISO  8  24  14  25  14  26  14  27  13  28  13  29  13  30  13  31   5
M  ISO  8  32  13  33  13  34  13  35  14  36  14  37  14  38  14  39  14
M  ISO  1  40   9
M  END
>  <minimizedAffinity>  (1) 
-4.46599674

>  <minimizedRMSD>  (1) 
1.5270009

$$$$
