
     RDKit          3D

 35 39  0  0  0  0  0  0  0  0999 V2000
   37.7000   22.9960   33.5490 C   0  0  0  0  0  0  0  0  0  0  0  0
   37.3240   24.2200   32.9910 C   0  0  0  0  0  0  0  0  0  0  0  0
   38.1090   25.3320   33.2090 C   0  0  0  0  0  0  0  0  0  0  0  0
   39.2360   25.1440   33.9840 N   0  0  0  0  0  0  0  0  0  0  0  0
   39.5780   23.9680   34.5080 C   0  0  0  0  0  0  0  0  0  0  0  0
   38.8150   22.9040   34.2910 N   0  0  0  0  0  0  0  0  0  0  0  0
   36.9540   21.8000   33.3760 N   0  0  0  0  0  0  0  0  0  0  0  0
   36.2090   21.2680   34.3730 C   0  0  0  0  0  0  0  0  0  0  0  0
   35.5940   20.1410   33.9820 N   0  0  0  0  0  0  0  0  0  0  0  0
   35.9380   19.9230   32.7050 C   0  0  0  0  0  0  0  0  0  0  0  0
   35.6460   18.9490   31.7440 C   0  0  0  0  0  0  0  0  0  0  0  0
   36.1790   19.0330   30.5080 N   0  0  0  0  0  0  0  0  0  0  0  0
   36.9990   20.0710   30.2110 C   0  0  0  0  0  0  0  0  0  0  0  0
   37.3030   21.0330   31.1190 N   0  0  0  0  0  0  0  0  0  0  0  0
   36.7730   20.9490   32.3490 C   0  0  0  0  0  0  0  0  0  0  0  0
   34.7760   17.9280   32.2020 N   0  0  0  0  0  0  0  0  0  0  0  0
   37.7090   26.6040   32.6250 C   0  0  0  0  0  0  0  0  0  0  0  0
   36.8280   27.4940   33.2680 C   0  0  0  0  0  0  0  0  0  0  0  0
   36.7070   28.5480   32.4190 N   0  0  0  0  0  0  0  0  0  0  0  0
   37.4720   28.2860   31.3480 C   0  0  0  0  0  0  0  0  0  0  0  0
   38.0820   27.1210   31.4560 N   0  0  0  0  0  0  0  0  0  0  0  0
   38.9630   26.5500   30.4940 C   0  0  0  0  0  0  0  0  0  0  0  0
   39.7240   25.4430   30.5600 N   0  0  0  0  0  0  0  0  0  0  0  0
   40.3630   25.3220   29.4350 O   0  0  0  0  0  0  0  0  0  0  0  0
   40.0750   26.2940   28.6020 C   0  0  0  0  0  0  0  0  0  0  0  0
   39.1960   27.0750   29.2550 N   0  0  0  0  0  0  0  0  0  0  0  0
   36.4102   24.2959   32.3834 H   0  0  0  0  0  0  0  0  0  0  0  0
   40.4890   23.8792   35.1180 H   0  0  0  0  0  0  0  0  0  0  0  0
   36.1188   21.7049   35.3785 H   0  0  0  0  0  0  0  0  0  0  0  0
   37.4318   20.1356   29.2018 H   0  0  0  0  0  0  0  0  0  0  0  0
   34.5004   17.1638   31.5688 H   0  0  0  0  0  0  0  0  0  0  0  0
   34.4194   17.9503   33.1680 H   0  0  0  0  0  0  0  0  0  0  0  0
   36.3424   27.3642   34.2464 H   0  0  0  0  0  0  0  0  0  0  0  0
   37.5776   28.9602   30.4853 H   0  0  0  0  0  0  0  0  0  0  0  0
   40.4689   26.4393   27.5853 H   0  0  0  0  0  0  0  0  0  0  0  0
  1  6  2  0
  2  3  2  0
  2  1  1  0
  3  4  1  0
  4  5  2  0
  6  5  1  0
  7  1  1  0
  7  8  1  0
  9  8  2  0
 10  9  1  0
 11 16  1  0
 11 10  2  0
 12 11  1  0
 13 12  2  0
 13 14  1  0
 14 15  2  0
 15 10  1  0
 15  7  1  0
 17  3  1  0
 17 18  2  0
 19 18  1  0
 20 21  1  0
 20 19  2  0
 21 17  1  0
 22 23  2  0
 22 21  1  0
 24 23  1  0
 25 26  2  0
 25 24  1  0
 26 22  1  0
  2 27  1  0
  5 28  1  0
  8 29  1  0
 13 30  1  0
 16 31  1  0
 16 32  1  0
 18 33  1  0
 20 34  1  0
 25 35  1  0
M  ISO  7  27  14  28  14  29  14  30  14  33  14  34  14  35  14
M  END
>  <minimizedAffinity>  (1) 
-5.23992872

>  <minimizedRMSD>  (1) 
1.4073981

$$$$
