
     RDKit          3D

 33 36  0  0  0  0  0  0  0  0999 V2000
   37.4860   22.3580   33.8200 C   0  0  0  0  0  0  0  0  0  0  0  0
   37.4550   23.5590   33.0930 C   0  0  0  0  0  0  0  0  0  0  0  0
   38.0620   24.6690   33.6570 C   0  0  0  0  0  0  0  0  0  0  0  0
   38.6540   24.5200   34.8900 N   0  0  0  0  0  0  0  0  0  0  0  0
   38.6600   23.3620   35.5460 C   0  0  0  0  0  0  0  0  0  0  0  0
   38.0820   22.2860   35.0190 N   0  0  0  0  0  0  0  0  0  0  0  0
   36.8950   21.1600   33.3380 N   0  0  0  0  0  0  0  0  0  0  0  0
   35.7720   20.6440   33.8910 C   0  0  0  0  0  0  0  0  0  0  0  0
   35.3980   19.5100   33.2720 N   0  0  0  0  0  0  0  0  0  0  0  0
   36.2750   19.2700   32.3040 C   0  0  0  0  0  0  0  0  0  0  0  0
   36.4660   18.2920   31.3190 C   0  0  0  0  0  0  0  0  0  0  0  0
   37.5210   18.3690   30.4600 N   0  0  0  0  0  0  0  0  0  0  0  0
   38.3820   19.3990   30.5640 C   0  0  0  0  0  0  0  0  0  0  0  0
   38.2480   20.3710   31.4940 N   0  0  0  0  0  0  0  0  0  0  0  0
   37.1970   20.2960   32.3530 C   0  0  0  0  0  0  0  0  0  0  0  0
   35.4780   17.2740   31.3350 N   0  0  0  0  0  0  0  0  0  0  0  0
   38.0360   25.9260   32.9090 C   0  0  0  0  0  0  0  0  0  0  0  0
   36.9960   26.8750   33.0540 C   0  0  0  0  0  0  0  0  0  0  0  0
   37.3250   27.8870   32.2080 N   0  0  0  0  0  0  0  0  0  0  0  0
   38.4810   27.5440   31.6120 C   0  0  0  0  0  0  0  0  0  0  0  0
   38.9190   26.3760   32.0200 N   0  0  0  0  0  0  0  0  0  0  0  0
   40.1330   25.7050   31.5830 C   0  0  0  0  0  0  0  0  0  0  0  0
   36.9656   23.6163   32.1096 H   0  0  0  0  0  0  0  0  0  0  0  0
   39.1461   23.2942   36.5304 H   0  0  0  0  0  0  0  0  0  0  0  0
   35.2343   21.0946   34.7382 H   0  0  0  0  0  0  0  0  0  0  0  0
   39.2288   19.4517   29.8638 H   0  0  0  0  0  0  0  0  0  0  0  0
   35.5214   16.5034   30.6529 H   0  0  0  0  0  0  0  0  0  0  0  0
   34.7173   17.3055   32.0287 H   0  0  0  0  0  0  0  0  0  0  0  0
   36.1142   26.8083   33.7082 H   0  0  0  0  0  0  0  0  0  0  0  0
   38.9987   28.1692   30.8696 H   0  0  0  0  0  0  0  0  0  0  0  0
   40.7118   25.3851   32.4620 H   0  0  0  0  0  0  0  0  0  0  0  0
   39.8682   24.8251   30.9782 H   0  0  0  0  0  0  0  0  0  0  0  0
   40.7372   26.3973   30.9782 H   0  0  0  0  0  0  0  0  0  0  0  0
  1  6  2  0
  2  3  2  0
  2  1  1  0
  3  4  1  0
  4  5  2  0
  6  5  1  0
  7  1  1  0
  7  8  1  0
  9  8  2  0
 10 15  2  0
 10  9  1  0
 11 16  1  0
 11 10  1  0
 12 13  1  0
 12 11  2  0
 13 14  2  0
 14 15  1  0
 15  7  1  0
 17 18  2  0
 17  3  1  0
 19 18  1  0
 20 21  1  0
 20 19  2  0
 21 17  1  0
 22 21  1  0
  2 23  1  0
  5 24  1  0
  8 25  1  0
 13 26  1  0
 16 27  1  0
 16 28  1  0
 18 29  1  0
 20 30  1  0
 22 31  1  0
 22 32  1  0
 22 33  1  0
M  ISO  8  23  14  24  14  25  14  26  14  29  14  30  14  31   8  32   8
M  ISO  1  33   8
M  END
>  <minimizedAffinity>  (1) 
-4.39643478

>  <minimizedRMSD>  (1) 
0.877887845

$$$$
