
     RDKit          3D

 19 20  0  0  0  0  0  0  0  0999 V2000
   39.7680   22.8520   37.6920 C   0  0  0  0  0  0  0  0  0  0  0  0
   38.8770   23.3060   38.6710 C   0  0  0  0  0  0  0  0  0  0  0  0
   37.8880   24.2080   38.3120 C   0  0  0  0  0  0  0  0  0  0  0  0
   37.8410   24.6050   37.0090 N   0  0  0  0  0  0  0  0  0  0  0  0
   38.7010   24.1590   36.0870 C   0  0  0  0  0  0  0  0  0  0  0  0
   39.6770   23.2700   36.4360 N   0  0  0  0  0  0  0  0  0  0  0  0
   38.6150   24.6140   34.6810 C   0  0  0  0  0  0  0  0  0  0  0  0
   37.8730   23.8690   33.9660 O   0  0  0  0  0  0  0  0  0  0  0  0
   39.3170   25.8010   34.1810 C   0  0  0  0  0  0  0  0  0  0  0  0
   39.7730   26.8560   35.1120 C   0  0  0  0  0  0  0  0  0  0  0  0
   38.5030   27.1070   34.2820 C   0  0  0  0  0  0  0  0  0  0  0  0
   40.5568   22.1368   37.9683 H   0  0  0  0  0  0  0  0  0  0  0  0
   38.9604   22.9524   39.7093 H   0  0  0  0  0  0  0  0  0  0  0  0
   37.1679   24.5893   39.0510 H   0  0  0  0  0  0  0  0  0  0  0  0
   39.8439   25.2342   33.3992 H   0  0  0  0  0  0  0  0  0  0  0  0
   39.6933   26.6978   36.1976 H   0  0  0  0  0  0  0  0  0  0  0  0
   40.7185   27.3997   35.2548 H   0  0  0  0  0  0  0  0  0  0  0  0
   38.5116   27.8340   33.4566 H   0  0  0  0  0  0  0  0  0  0  0  0
   37.4575   27.3751   34.4941 H   0  0  0  0  0  0  0  0  0  0  0  0
  1  2  2  0
  3  2  1  0
  4  3  2  0
  5  6  2  0
  5  4  1  0
  6  1  1  0
  7  5  1  0
  8  7  2  0
  9 11  1  0
  9  7  1  0
  9 10  1  0
 11 10  1  0
  1 12  1  0
  2 13  1  0
  3 14  1  0
  9 15  1  0
 10 16  1  0
 10 17  1  0
 11 18  1  0
 11 19  1  0
M  ISO  8  12  14  13  14  14  14  15  13  16  13  17  13  18  13  19  13
M  END
>  <minimizedAffinity>  (1) 
-3.49727964

>  <minimizedRMSD>  (1) 
2.70833898

$$$$
