
     RDKit          3D

 35 36  0  0  0  0  0  0  0  0999 V2000
   37.8350   23.0350   33.6750 C   0  0  0  0  0  0  0  0  0  0  0  0
   38.1660   24.3920   33.6120 C   0  0  0  0  0  0  0  0  0  0  0  0
   38.4720   25.0480   34.8100 C   0  0  0  0  0  0  0  0  0  0  0  0
   38.4370   24.3530   35.9810 N   0  0  0  0  0  0  0  0  0  0  0  0
   38.1120   23.0420   35.9960 C   0  0  0  0  0  0  0  0  0  0  0  0
   37.8120   22.3800   34.8670 N   0  0  0  0  0  0  0  0  0  0  0  0
   37.5020   22.2870   32.4570 C   0  0  0  0  0  0  0  0  0  0  0  0
   37.0760   20.8560   32.7070 C   0  0  0  0  0  0  0  0  0  0  0  0
   36.4320   20.5420   31.3600 C   0  0  0  0  0  0  0  0  0  0  0  0
   35.4900   21.7120   31.2270 C   0  0  0  0  0  0  0  0  0  0  0  0
   36.2640   22.8620   31.8070 C   0  0  0  0  0  0  0  0  0  0  0  0
   38.8350   26.4740   34.8650 C   0  0  0  0  0  0  0  0  0  0  0  0
   38.2230   27.1200   33.6160 C   0  0  0  0  0  0  0  0  0  0  0  0
   38.3540   27.1820   36.1150 C   0  0  0  0  0  0  0  0  0  0  0  0
   40.3400   26.6270   34.8060 C   0  0  0  0  0  0  0  0  0  0  0  0
   38.1853   24.9272   32.6512 H   0  0  0  0  0  0  0  0  0  0  0  0
   38.0927   22.5042   36.9554 H   0  0  0  0  0  0  0  0  0  0  0  0
   38.4242   22.3454   31.8603 H   0  0  0  0  0  0  0  0  0  0  0  0
   37.9365   20.2022   32.9121 H   0  0  0  0  0  0  0  0  0  0  0  0
   36.4249   20.7088   33.5813 H   0  0  0  0  0  0  0  0  0  0  0  0
   37.1748   20.5243   30.5489 H   0  0  0  0  0  0  0  0  0  0  0  0
   35.9490   19.5554   31.3014 H   0  0  0  0  0  0  0  0  0  0  0  0
   35.2430   21.8984   30.1714 H   0  0  0  0  0  0  0  0  0  0  0  0
   34.5295   21.5453   31.7365 H   0  0  0  0  0  0  0  0  0  0  0  0
   36.5489   23.5644   31.0099 H   0  0  0  0  0  0  0  0  0  0  0  0
   35.6562   23.4097   32.5423 H   0  0  0  0  0  0  0  0  0  0  0  0
   37.4958   27.8876   33.9192 H   0  0  0  0  0  0  0  0  0  0  0  0
   39.0191   27.5856   33.0165 H   0  0  0  0  0  0  0  0  0  0  0  0
   37.7151   26.3502   33.0165 H   0  0  0  0  0  0  0  0  0  0  0  0
   38.7185   26.6455   37.0035 H   0  0  0  0  0  0  0  0  0  0  0  0
   38.7401   28.2120   36.1246 H   0  0  0  0  0  0  0  0  0  0  0  0
   37.2542   27.2025   36.1246 H   0  0  0  0  0  0  0  0  0  0  0  0
   40.7447   26.6681   35.8280 H   0  0  0  0  0  0  0  0  0  0  0  0
   40.7752   25.7685   34.2736 H   0  0  0  0  0  0  0  0  0  0  0  0
   40.5936   27.5556   34.2736 H   0  0  0  0  0  0  0  0  0  0  0  0
  1  6  1  0
  2  1  2  0
  2  3  1  0
  3 12  1  0
  3  4  2  0
  4  5  1  0
  6  5  2  0
  7  8  1  0
  7  1  1  0
  9  8  1  0
 10  9  1  0
 10 11  1  0
 11  7  1  0
 12 14  1  0
 13 12  1  0
 15 12  1  0
  2 16  1  0
  5 17  1  0
  7 18  1  0
  8 19  1  0
  8 20  1  0
  9 21  1  0
  9 22  1  0
 10 23  1  0
 10 24  1  0
 11 25  1  0
 11 26  1  0
 13 27  1  0
 13 28  1  0
 13 29  1  0
 14 30  1  0
 14 31  1  0
 14 32  1  0
 15 33  1  0
 15 34  1  0
 15 35  1  0
M  ISO  8  16  14  17  14  18  13  19  13  20  13  21  13  22  13  23  13
M  ISO  8  24  13  25  13  26  13  27   8  28   8  29   8  30   8  31   8
M  ISO  4  32   8  33   8  34   8  35   8
M  END
>  <minimizedAffinity>  (1) 
-4.26917553

>  <minimizedRMSD>  (1) 
6.54617882

$$$$
