
     RDKit          3D

 25 26  0  0  0  0  0  0  0  0999 V2000
   39.8010   22.7850   37.7990 C   0  0  0  0  0  0  0  0  0  0  0  0
   38.8890   23.4030   38.6580 C   0  0  0  0  0  0  0  0  0  0  0  0
   37.7980   24.0770   38.1020 C   0  0  0  0  0  0  0  0  0  0  0  0
   37.6930   24.0890   36.7440 N   0  0  0  0  0  0  0  0  0  0  0  0
   38.5890   23.4830   35.9350 C   0  0  0  0  0  0  0  0  0  0  0  0
   39.6540   22.8240   36.4800 N   0  0  0  0  0  0  0  0  0  0  0  0
   38.4070   23.5400   34.4830 C   0  0  0  0  0  0  0  0  0  0  0  0
   38.4550   22.4040   33.9000 O   0  0  0  0  0  0  0  0  0  0  0  0
   38.1920   24.7050   33.7250 N   0  0  0  0  0  0  0  0  0  0  0  0
   37.1490   24.5600   32.7610 C   0  0  0  0  0  0  0  0  0  0  0  0
   36.6810   25.8230   32.1440 C   0  0  0  0  0  0  0  0  0  0  0  0
   37.5190   27.0290   32.3110 C   0  0  0  0  0  0  0  0  0  0  0  0
   38.3190   27.1470   33.5580 C   0  0  0  0  0  0  0  0  0  0  0  0
   39.0040   25.8780   33.9790 C   0  0  0  0  0  0  0  0  0  0  0  0
   40.6633   22.2523   38.2264 H   0  0  0  0  0  0  0  0  0  0  0  0
   39.0265   23.3601   39.7485 H   0  0  0  0  0  0  0  0  0  0  0  0
   37.0527   24.5785   38.7368 H   0  0  0  0  0  0  0  0  0  0  0  0
   36.7235   23.5810   32.4955 H   0  0  0  0  0  0  0  0  0  0  0  0
   35.7382   25.8620   31.5786 H   0  0  0  0  0  0  0  0  0  0  0  0
   38.2220   27.0603   31.4655 H   0  0  0  0  0  0  0  0  0  0  0  0
   36.8016   27.8613   32.3611 H   0  0  0  0  0  0  0  0  0  0  0  0
   39.0883   27.9175   33.4014 H   0  0  0  0  0  0  0  0  0  0  0  0
   37.6122   27.4032   34.3610 H   0  0  0  0  0  0  0  0  0  0  0  0
   39.2193   25.9328   35.0563 H   0  0  0  0  0  0  0  0  0  0  0  0
   39.9277   25.7823   33.3893 H   0  0  0  0  0  0  0  0  0  0  0  0
  1  2  2  0
  3  2  1  0
  4  3  2  0
  5  6  2  0
  5  4  1  0
  6  1  1  0
  7  5  1  0
  8  7  2  0
  9 14  1  0
  9  7  1  0
 10  9  1  0
 11 12  1  0
 11 10  2  0
 12 13  1  0
 13 14  1  0
  1 15  1  0
  2 16  1  0
  3 17  1  0
 10 18  1  0
 11 19  1  0
 12 20  1  0
 12 21  1  0
 13 22  1  0
 13 23  1  0
 14 24  1  0
 14 25  1  0
M  ISO  8  15  14  16  14  17  14  18  13  19  13  20  13  21  13  22  13
M  ISO  3  23  13  24  13  25  13
M  END
>  <minimizedAffinity>  (1) 
-3.96628952

>  <minimizedRMSD>  (1) 
2.57249141

$$$$
