
     RDKit          3D

 19 20  0  0  0  0  0  0  0  0999 V2000
   39.9020   22.7180   37.7430 C   0  0  0  0  0  0  0  0  0  0  0  0
   39.0460   23.3280   38.6660 C   0  0  0  0  0  0  0  0  0  0  0  0
   37.8050   23.7610   38.2270 C   0  0  0  0  0  0  0  0  0  0  0  0
   37.5060   23.5580   36.9140 N   0  0  0  0  0  0  0  0  0  0  0  0
   38.3430   22.9690   36.0380 C   0  0  0  0  0  0  0  0  0  0  0  0
   39.5490   22.5490   36.4650 N   0  0  0  0  0  0  0  0  0  0  0  0
   37.9110   22.8050   34.6470 C   0  0  0  0  0  0  0  0  0  0  0  0
   37.4510   21.6580   34.3710 O   0  0  0  0  0  0  0  0  0  0  0  0
   37.9830   23.8390   33.6250 C   0  0  0  0  0  0  0  0  0  0  0  0
   38.8770   24.8830   33.7260 C   0  0  0  0  0  0  0  0  0  0  0  0
   38.6760   25.6380   32.6300 N   0  0  0  0  0  0  0  0  0  0  0  0
   37.6980   25.0430   31.9270 C   0  0  0  0  0  0  0  0  0  0  0  0
   37.2320   23.9100   32.5140 N   0  0  0  0  0  0  0  0  0  0  0  0
   40.8901   22.3688   38.0772 H   0  0  0  0  0  0  0  0  0  0  0  0
   39.3505   23.4607   39.7146 H   0  0  0  0  0  0  0  0  0  0  0  0
   37.0925   24.2475   38.9094 H   0  0  0  0  0  0  0  0  0  0  0  0
   39.6027   25.0618   34.5331 H   0  0  0  0  0  0  0  0  0  0  0  0
   37.3137   25.4335   30.9732 H   0  0  0  0  0  0  0  0  0  0  0  0
   36.4928   23.2700   32.1902 H   0  0  0  0  0  0  0  0  0  0  0  0
  1  2  2  0
  3  2  1  0
  4  3  2  0
  5  6  2  0
  5  4  1  0
  6  1  1  0
  7  5  1  0
  8  7  2  0
  9 10  2  0
  9  7  1  0
 11 10  1  0
 12 13  1  0
 12 11  2  0
 13  9  1  0
  1 14  1  0
  2 15  1  0
  3 16  1  0
 10 17  1  0
 12 18  1  0
 13 19  1  0
M  ISO  6  14  14  15  14  16  14  17  14  18  14  19   9
M  END
>  <minimizedAffinity>  (1) 
-3.44593048

>  <minimizedRMSD>  (1) 
1.58827841

$$$$
