
     RDKit          3D

 18 19  0  0  0  0  0  0  0  0999 V2000
   39.8800   22.7240   37.7110 C   0  0  0  0  0  0  0  0  0  0  0  0
   39.0510   23.3730   38.6280 C   0  0  0  0  0  0  0  0  0  0  0  0
   37.8250   23.8290   38.1730 C   0  0  0  0  0  0  0  0  0  0  0  0
   37.5030   23.6190   36.8690 N   0  0  0  0  0  0  0  0  0  0  0  0
   38.3200   22.9890   35.9930 C   0  0  0  0  0  0  0  0  0  0  0  0
   39.5310   22.5380   36.4450 N   0  0  0  0  0  0  0  0  0  0  0  0
   37.9040   22.8000   34.6060 C   0  0  0  0  0  0  0  0  0  0  0  0
   37.5360   21.6140   34.3470 O   0  0  0  0  0  0  0  0  0  0  0  0
   37.8980   23.8390   33.5960 C   0  0  0  0  0  0  0  0  0  0  0  0
   38.7670   24.9240   33.7170 C   0  0  0  0  0  0  0  0  0  0  0  0
   38.3650   25.9140   32.2220 S   0  0  0  0  0  0  0  0  0  0  0  0
   37.0570   24.6440   31.6890 C   0  0  0  0  0  0  0  0  0  0  0  0
   37.1150   23.8540   32.5290 N   0  0  0  0  0  0  0  0  0  0  0  0
   40.8583   22.3534   38.0509 H   0  0  0  0  0  0  0  0  0  0  0  0
   39.3604   23.5169   39.6738 H   0  0  0  0  0  0  0  0  0  0  0  0
   37.1297   24.3478   38.8493 H   0  0  0  0  0  0  0  0  0  0  0  0
   39.5044   25.1333   34.5059 H   0  0  0  0  0  0  0  0  0  0  0  0
   36.4068   24.6577   30.8018 H   0  0  0  0  0  0  0  0  0  0  0  0
  1  2  2  0
  3  2  1  0
  4  3  2  0
  5  6  2  0
  5  4  1  0
  6  1  1  0
  7  5  1  0
  8  7  2  0
  9 10  2  0
  9  7  1  0
 11 10  1  0
 12 11  1  0
 12 13  2  0
 13  9  1  0
  1 14  1  0
  2 15  1  0
  3 16  1  0
 10 17  1  0
 12 18  1  0
M  ISO  5  14  14  15  14  16  14  17  14  18  14
M  END
>  <minimizedAffinity>  (1) 
-3.45176268

>  <minimizedRMSD>  (1) 
1.66583443

$$$$
