
     RDKit          3D

 13 13  0  0  0  0  0  0  0  0999 V2000
   39.9930   22.6660   37.5720 C   0  0  0  0  0  0  0  0  0  0  0  0
   39.1300   23.2950   38.4820 C   0  0  0  0  0  0  0  0  0  0  0  0
   37.7920   23.4870   38.0940 C   0  0  0  0  0  0  0  0  0  0  0  0
   37.4390   23.0370   36.8370 N   0  0  0  0  0  0  0  0  0  0  0  0
   38.3000   22.4440   36.0090 C   0  0  0  0  0  0  0  0  0  0  0  0
   39.5870   22.2500   36.3630 N   0  0  0  0  0  0  0  0  0  0  0  0
   37.8020   22.0060   34.6920 C   0  0  0  0  0  0  0  0  0  0  0  0
   36.7000   21.3830   34.7040 O   0  0  0  0  0  0  0  0  0  0  0  0
   38.3840   22.1890   33.4290 O   0  0  0  0  0  0  0  0  0  0  0  0
   41.0425   22.5079   37.8609 H   0  0  0  0  0  0  0  0  0  0  0  0
   39.4885   23.6273   39.4674 H   0  0  0  0  0  0  0  0  0  0  0  0
   37.0623   23.9719   38.7592 H   0  0  0  0  0  0  0  0  0  0  0  0
   39.2464   22.6680   33.3461 H   0  0  0  0  0  0  0  0  0  0  0  0
  1  2  2  0
  3  2  1  0
  4  3  2  0
  5  6  2  0
  5  4  1  0
  6  1  1  0
  7  8  2  0
  7  5  1  0
  9  7  1  0
  1 10  1  0
  2 11  1  0
  3 12  1  0
  9 13  1  0
M  ISO  4  10  14  11  14  12  14  13   3
M  END
>  <minimizedAffinity>  (1) 
-2.9502492

>  <minimizedRMSD>  (1) 
0.0240889415

$$$$
