
     RDKit          3D

 32 33  0  0  1  0  0  0  0  0999 V2000
   37.9410   22.7850   34.6300 C   0  0  0  0  0  0  0  0  0  0  0  0
   37.4510   21.6680   34.3490 O   0  0  0  0  0  0  0  0  0  0  0  0
   38.0480   23.7500   33.5890 N   0  0  0  0  0  0  0  0  0  0  0  0
   38.2310   23.1760   32.2570 C   0  0  0  0  0  0  0  0  0  0  0  0
   38.0390   24.2220   31.1810 C   0  0  0  0  0  0  0  0  0  0  0  0
   37.0570   25.1290   31.4230 O   0  0  0  0  0  0  0  0  0  0  0  0
   36.8860   25.5740   32.6910 C   0  0  0  0  0  0  0  0  0  0  0  0
   38.0070   25.1850   33.6220 C   0  0  1  0  0  0  0  0  0  0  0  0
   39.8880   22.7480   37.7490 C   0  0  0  0  0  0  0  0  0  0  0  0
   39.0190   23.3290   38.6660 C   0  0  0  0  0  0  0  0  0  0  0  0
   37.7660   23.7330   38.2050 C   0  0  0  0  0  0  0  0  0  0  0  0
   37.4820   23.5250   36.8810 N   0  0  0  0  0  0  0  0  0  0  0  0
   38.3520   22.9580   36.0260 C   0  0  0  0  0  0  0  0  0  0  0  0
   39.5700   22.5680   36.4820 N   0  0  0  0  0  0  0  0  0  0  0  0
   37.8050   25.7510   34.9210 N   0  0  0  0  0  0  0  0  0  0  0  0
   38.8420   26.6240   35.3710 C   0  0  0  0  0  0  0  0  0  0  0  0
   40.0800   26.5340   35.0080 N   0  0  0  0  0  0  0  0  0  0  0  0
   38.6370   27.7180   36.2850 N   0  0  0  0  0  0  0  0  0  0  0  0
   40.4680   25.8280   34.3580 H   0  0  0  0  0  0  0  0  0  0  0  0
   39.2481   22.7642   32.1801 H   0  0  0  0  0  0  0  0  0  0  0  0
   37.4810   22.3845   32.1120 H   0  0  0  0  0  0  0  0  0  0  0  0
   37.7986   23.7031   30.2414 H   0  0  0  0  0  0  0  0  0  0  0  0
   38.9781   24.7933   31.1405 H   0  0  0  0  0  0  0  0  0  0  0  0
   36.8174   26.6716   32.6684 H   0  0  0  0  0  0  0  0  0  0  0  0
   35.9682   25.1062   33.0768 H   0  0  0  0  0  0  0  0  0  0  0  0
   38.9866   25.5810   33.3160 H   0  0  0  0  0  0  0  0  0  0  0  0
   40.8812   22.4254   38.0946 H   0  0  0  0  0  0  0  0  0  0  0  0
   39.3095   23.4653   39.7182 H   0  0  0  0  0  0  0  0  0  0  0  0
   37.0335   24.2010   38.8791 H   0  0  0  0  0  0  0  0  0  0  0  0
   36.9720   25.5437   35.4902 H   0  0  0  0  0  0  0  0  0  0  0  0
   39.4320   28.3087   36.5678 H   0  0  0  0  0  0  0  0  0  0  0  0
   37.6954   27.9097   36.6559 H   0  0  0  0  0  0  0  0  0  0  0  0
  1 13  1  0
  2  1  2  0
  3  8  1  0
  3  1  1  0
  4  3  1  0
  5  6  1  0
  5  4  1  0
  6  7  1  0
  7  8  1  0
  8 15  1  0
  9 10  2  0
 11 10  1  0
 12 11  2  0
 13 14  2  0
 13 12  1  0
 14  9  1  0
 15 16  1  0
 16 18  1  0
 17 16  2  0
 19 17  1  0
  4 20  1  0
  4 21  1  0
  5 22  1  0
  5 23  1  0
  7 24  1  0
  7 25  1  0
  8 26  1  6
  9 27  1  0
 10 28  1  0
 11 29  1  0
 15 30  1  0
 18 31  1  0
 18 32  1  0
M  ISO  8  20  13  21  13  22  13  23  13  24  13  25  13  26  13  27  14
M  ISO  2  28  14  29  14
M  END
>  <minimizedAffinity>  (1) 
-5.22966766

>  <minimizedRMSD>  (1) 
2.19279361

$$$$
