
     RDKit          3D

 32 34  0  0  1  0  0  0  0  0999 V2000
   37.3420   21.9290   34.8560 C   0  0  0  0  0  0  0  0  0  0  0  0
   36.3760   21.1710   35.0900 O   0  0  0  0  0  0  0  0  0  0  0  0
   37.6070   22.2420   33.4970 N   0  0  0  0  0  0  0  0  0  0  0  0
   37.2550   21.2030   32.5380 C   0  0  0  0  0  0  0  0  0  0  0  0
   37.2180   21.7470   31.1320 C   0  0  0  0  0  0  0  0  0  0  0  0
   36.7910   23.0240   30.9820 O   0  0  0  0  0  0  0  0  0  0  0  0
   37.1380   23.9370   31.9360 C   0  0  0  0  0  0  0  0  0  0  0  0
   38.1730   23.4360   32.9080 C   0  0  1  0  0  0  0  0  0  0  0  0
   40.0230   22.5850   37.2850 C   0  0  0  0  0  0  0  0  0  0  0  0
   39.3500   23.3050   38.2830 C   0  0  0  0  0  0  0  0  0  0  0  0
   38.0070   23.5540   38.1160 C   0  0  0  0  0  0  0  0  0  0  0  0
   37.4340   23.0760   36.9830 N   0  0  0  0  0  0  0  0  0  0  0  0
   38.0750   22.3930   36.0360 C   0  0  0  0  0  0  0  0  0  0  0  0
   39.3890   22.1500   36.2010 N   0  0  0  0  0  0  0  0  0  0  0  0
   38.4080   24.4600   33.9100 N   0  0  0  0  0  0  0  0  0  0  0  0
   37.5190   25.2390   34.5140 N   0  0  0  0  0  0  0  0  0  0  0  0
   38.1510   26.0550   35.3770 C   0  0  0  0  0  0  0  0  0  0  0  0
   39.5030   25.7610   35.2990 C   0  0  0  0  0  0  0  0  0  0  0  0
   39.6440   24.7490   34.3640 C   0  0  0  0  0  0  0  0  0  0  0  0
   38.0024   20.3976   32.5914 H   0  0  0  0  0  0  0  0  0  0  0  0
   36.2544   20.8217   32.7899 H   0  0  0  0  0  0  0  0  0  0  0  0
   38.2383   21.6873   30.7252 H   0  0  0  0  0  0  0  0  0  0  0  0
   36.4746   21.1312   30.6046 H   0  0  0  0  0  0  0  0  0  0  0  0
   37.5380   24.8296   31.4327 H   0  0  0  0  0  0  0  0  0  0  0  0
   36.2300   24.1535   32.5179 H   0  0  0  0  0  0  0  0  0  0  0  0
   39.1390   23.2118   32.4320 H   0  0  0  0  0  0  0  0  0  0  0  0
   41.0967   22.3763   37.4018 H   0  0  0  0  0  0  0  0  0  0  0  0
   39.8825   23.6617   39.1769 H   0  0  0  0  0  0  0  0  0  0  0  0
   37.4265   24.1132   38.8645 H   0  0  0  0  0  0  0  0  0  0  0  0
   37.6829   26.8126   36.0227 H   0  0  0  0  0  0  0  0  0  0  0  0
   40.3109   26.2404   35.8712 H   0  0  0  0  0  0  0  0  0  0  0  0
   40.5848   24.2722   34.0516 H   0  0  0  0  0  0  0  0  0  0  0  0
  1  2  2  0
  1 13  1  0
  3  1  1  0
  4  3  1  0
  5  4  1  0
  6  5  1  0
  6  7  1  0
  7  8  1  0
  8  3  1  0
  8 15  1  0
  9 10  2  0
 11 10  1  0
 12 11  2  0
 13 14  2  0
 13 12  1  0
 14  9  1  0
 15 19  1  0
 15 16  1  0
 16 17  2  0
 18 17  1  0
 19 18  2  0
  4 20  1  0
  4 21  1  0
  5 22  1  0
  5 23  1  0
  7 24  1  0
  7 25  1  0
  8 26  1  6
  9 27  1  0
 10 28  1  0
 11 29  1  0
 17 30  1  0
 18 31  1  0
 19 32  1  0
M  ISO  8  20  13  21  13  22  13  23  13  24  13  25  13  26  13  27  14
M  ISO  5  28  14  29  14  30  14  31  14  32  14
M  END
>  <minimizedAffinity>  (1) 
-4.63195848

>  <minimizedRMSD>  (1) 
0.671234846

$$$$
