
     RDKit          3D

 38 39  0  0  0  0  0  0  0  0999 V2000
   41.6000   21.9130   36.1830 C   0  0  0  0  0  0  0  0  0  0  0  0
   40.6450   22.5070   37.0240 C   0  0  0  0  0  0  0  0  0  0  0  0
   39.4270   22.8930   36.4440 C   0  0  0  0  0  0  0  0  0  0  0  0
   39.2230   22.6820   35.1170 N   0  0  0  0  0  0  0  0  0  0  0  0
   40.1760   22.1060   34.3520 C   0  0  0  0  0  0  0  0  0  0  0  0
   41.3560   21.7230   34.8750 N   0  0  0  0  0  0  0  0  0  0  0  0
   42.9070   21.4900   36.7670 C   0  0  0  0  0  0  0  0  0  0  0  0
   43.9470   21.8490   35.7460 C   0  0  0  0  0  0  0  0  0  0  0  0
   45.2220   21.0580   35.9000 C   0  0  0  0  0  0  0  0  0  0  0  0
   44.8080   19.5910   35.7600 C   0  0  0  0  0  0  0  0  0  0  0  0
   44.0740   19.2620   37.0430 C   0  0  0  0  0  0  0  0  0  0  0  0
   42.8090   20.0450   37.0840 C   0  0  0  0  0  0  0  0  0  0  0  0
   38.3530   23.5250   37.2280 C   0  0  0  0  0  0  0  0  0  0  0  0
   38.7790   23.4580   38.7020 C   0  0  0  0  0  0  0  0  0  0  0  0
   38.0730   24.9600   36.8390 C   0  0  0  0  0  0  0  0  0  0  0  0
   37.0640   22.7450   37.0570 C   0  0  0  0  0  0  0  0  0  0  0  0
   40.8438   22.6634   38.0945 H   0  0  0  0  0  0  0  0  0  0  0  0
   39.9840   21.9468   33.2806 H   0  0  0  0  0  0  0  0  0  0  0  0
   43.1804   21.9868   37.7095 H   0  0  0  0  0  0  0  0  0  0  0  0
   44.1835   22.9184   35.8477 H   0  0  0  0  0  0  0  0  0  0  0  0
   43.5309   21.6128   34.7555 H   0  0  0  0  0  0  0  0  0  0  0  0
   45.9421   21.3315   35.1148 H   0  0  0  0  0  0  0  0  0  0  0  0
   45.7123   21.2550   36.8648 H   0  0  0  0  0  0  0  0  0  0  0  0
   44.1458   19.4581   34.8917 H   0  0  0  0  0  0  0  0  0  0  0  0
   45.6746   18.9324   35.6014 H   0  0  0  0  0  0  0  0  0  0  0  0
   43.8447   18.1866   37.0728 H   0  0  0  0  0  0  0  0  0  0  0  0
   44.7013   19.5181   37.9096 H   0  0  0  0  0  0  0  0  0  0  0  0
   42.3941   19.9542   38.0987 H   0  0  0  0  0  0  0  0  0  0  0  0
   42.1800   19.6178   36.2891 H   0  0  0  0  0  0  0  0  0  0  0  0
   37.8974   23.5967   39.3451 H   0  0  0  0  0  0  0  0  0  0  0  0
   39.2328   22.4774   38.9083 H   0  0  0  0  0  0  0  0  0  0  0  0
   39.5119   24.2519   38.9083 H   0  0  0  0  0  0  0  0  0  0  0  0
   37.9541   25.5695   37.7469 H   0  0  0  0  0  0  0  0  0  0  0  0
   38.9122   25.3489   36.2436 H   0  0  0  0  0  0  0  0  0  0  0  0
   37.1492   25.0049   36.2436 H   0  0  0  0  0  0  0  0  0  0  0  0
   36.6522   22.4958   38.0461 H   0  0  0  0  0  0  0  0  0  0  0  0
   36.3373   23.3551   36.5004 H   0  0  0  0  0  0  0  0  0  0  0  0
   37.2673   21.8182   36.5004 H   0  0  0  0  0  0  0  0  0  0  0  0
  1  7  1  0
  1  2  2  0
  3  2  1  0
  3 13  1  0
  4  3  2  0
  5  6  2  0
  5  4  1  0
  6  1  1  0
  7 12  1  0
  8  9  1  0
  8  7  1  0
 10  9  1  0
 10 11  1  0
 11 12  1  0
 13 14  1  0
 15 13  1  0
 16 13  1  0
  2 17  1  0
  5 18  1  0
  7 19  1  0
  8 20  1  0
  8 21  1  0
  9 22  1  0
  9 23  1  0
 10 24  1  0
 10 25  1  0
 11 26  1  0
 11 27  1  0
 12 28  1  0
 12 29  1  0
 14 30  1  0
 14 31  1  0
 14 32  1  0
 15 33  1  0
 15 34  1  0
 15 35  1  0
 16 36  1  0
 16 37  1  0
 16 38  1  0
M  ISO  8  17  14  18  14  19  13  20  13  21  13  22  13  23  13  24  13
M  ISO  8  25  13  26  13  27  13  28  13  29  13  30   8  31   8  32   8
M  ISO  6  33   8  34   8  35   8  36   8  37   8  38   8
M  END
>  <minimizedAffinity>  (1) 
-4.06718779

>  <minimizedRMSD>  (1) 
1.0648123

$$$$
