
     RDKit          3D

 32 34  0  0  1  0  0  0  0  0999 V2000
   37.6380   22.0720   34.7220 C   0  0  0  0  0  0  0  0  0  0  0  0
   36.6470   21.3130   34.7910 O   0  0  0  0  0  0  0  0  0  0  0  0
   38.1230   22.4130   33.4230 N   0  0  0  0  0  0  0  0  0  0  0  0
   37.8970   21.3710   32.4140 C   0  0  0  0  0  0  0  0  0  0  0  0
   38.2260   21.9030   31.0300 C   0  0  0  0  0  0  0  0  0  0  0  0
   37.7930   23.1710   30.8040 O   0  0  0  0  0  0  0  0  0  0  0  0
   37.9370   24.0780   31.7910 C   0  0  0  0  0  0  0  0  0  0  0  0
   38.7930   23.5930   32.9600 C   0  0  1  0  0  0  0  0  0  0  0  0
   39.9020   22.7640   37.5440 C   0  0  0  0  0  0  0  0  0  0  0  0
   39.0680   23.4350   38.4270 C   0  0  0  0  0  0  0  0  0  0  0  0
   37.7580   23.6440   38.0670 C   0  0  0  0  0  0  0  0  0  0  0  0
   37.4010   23.1650   36.8600 N   0  0  0  0  0  0  0  0  0  0  0  0
   38.1820   22.5210   35.9990 C   0  0  0  0  0  0  0  0  0  0  0  0
   39.4570   22.3240   36.3620 N   0  0  0  0  0  0  0  0  0  0  0  0
   38.6310   24.6840   33.9740 C   0  0  0  0  0  0  0  0  0  0  0  0
   37.5470   25.3280   34.4030 C   0  0  0  0  0  0  0  0  0  0  0  0
   37.6740   26.2680   35.3890 C   0  0  0  0  0  0  0  0  0  0  0  0
   38.9800   26.4890   35.8900 C   0  0  0  0  0  0  0  0  0  0  0  0
   40.0550   25.2860   34.8870 S   0  0  0  0  0  0  0  0  0  0  0  0
   38.5406   20.5064   32.6337 H   0  0  0  0  0  0  0  0  0  0  0  0
   36.8399   21.0678   32.4408 H   0  0  0  0  0  0  0  0  0  0  0  0
   39.3185   21.8837   30.9036 H   0  0  0  0  0  0  0  0  0  0  0  0
   37.7026   21.2568   30.3099 H   0  0  0  0  0  0  0  0  0  0  0  0
   38.4071   24.9780   31.3679 H   0  0  0  0  0  0  0  0  0  0  0  0
   36.9318   24.2743   32.1923 H   0  0  0  0  0  0  0  0  0  0  0  0
   39.8509   23.3856   32.7414 H   0  0  0  0  0  0  0  0  0  0  0  0
   40.9519   22.5902   37.8222 H   0  0  0  0  0  0  0  0  0  0  0  0
   39.4476   23.7925   39.3956 H   0  0  0  0  0  0  0  0  0  0  0  0
   37.0472   24.1686   38.7224 H   0  0  0  0  0  0  0  0  0  0  0  0
   36.5606   25.1066   33.9694 H   0  0  0  0  0  0  0  0  0  0  0  0
   36.8059   26.8238   35.7730 H   0  0  0  0  0  0  0  0  0  0  0  0
   39.2972   27.1915   36.6748 H   0  0  0  0  0  0  0  0  0  0  0  0
  1  2  2  0
  1 13  1  0
  3  1  1  0
  4  3  1  0
  5  4  1  0
  6  5  1  0
  6  7  1  0
  7  8  1  0
  8  3  1  0
  8 15  1  0
  9 10  2  0
 11 10  1  0
 12 11  2  0
 13 14  2  0
 13 12  1  0
 14  9  1  0
 15 16  2  0
 15 19  1  0
 16 17  1  0
 17 18  2  0
 19 18  1  0
  4 20  1  0
  4 21  1  0
  5 22  1  0
  5 23  1  0
  7 24  1  0
  7 25  1  0
  8 26  1  6
  9 27  1  0
 10 28  1  0
 11 29  1  0
 16 30  1  0
 17 31  1  0
 18 32  1  0
M  ISO  8  20  13  21  13  22  13  23  13  24  13  25  13  26  13  27  14
M  ISO  5  28  14  29  14  30  14  31  14  32  14
M  END
>  <minimizedAffinity>  (1) 
-4.51831341

>  <minimizedRMSD>  (1) 
1.1957705

$$$$
