
     RDKit          3D

 38 40  0  0  1  0  0  0  0  0999 V2000
   36.5740   21.4140   35.1070 C   0  0  0  0  0  0  0  0  0  0  0  0
   35.6590   20.9860   35.8420 O   0  0  0  0  0  0  0  0  0  0  0  0
   36.4680   21.2200   33.6990 N   0  0  0  0  0  0  0  0  0  0  0  0
   35.7120   20.0090   33.3380 C   0  0  0  0  0  0  0  0  0  0  0  0
   35.3650   20.0100   31.8670 C   0  0  0  0  0  0  0  0  0  0  0  0
   35.0090   21.2340   31.3560 O   0  0  0  0  0  0  0  0  0  0  0  0
   35.6770   22.3210   31.7970 C   0  0  0  0  0  0  0  0  0  0  0  0
   36.9490   21.9550   32.5810 C   0  0  1  0  0  0  0  0  0  0  0  0
   39.9020   22.2700   36.4340 C   0  0  0  0  0  0  0  0  0  0  0  0
   39.6570   23.4440   37.1340 C   0  0  0  0  0  0  0  0  0  0  0  0
   38.3710   23.9290   37.1480 C   0  0  0  0  0  0  0  0  0  0  0  0
   37.4380   23.2090   36.4680 N   0  0  0  0  0  0  0  0  0  0  0  0
   37.6800   22.0850   35.7990 C   0  0  0  0  0  0  0  0  0  0  0  0
   38.9390   21.6300   35.7980 N   0  0  0  0  0  0  0  0  0  0  0  0
   39.1130   25.5780   33.3240 C   0  0  0  0  0  0  0  0  0  0  0  0
   37.7420   25.5570   33.2690 C   0  0  0  0  0  0  0  0  0  0  0  0
   37.1230   24.3520   33.0170 C   0  0  0  0  0  0  0  0  0  0  0  0
   37.7760   23.1260   32.8120 C   0  0  0  0  0  0  0  0  0  0  0  0
   39.1420   23.2310   32.8840 C   0  0  0  0  0  0  0  0  0  0  0  0
   39.8140   24.4100   33.1310 C   0  0  0  0  0  0  0  0  0  0  0  0
   40.0080   27.0390   33.6330 S   0  0  0  0  0  0  0  0  0  0  0  0
   40.8130   26.8220   34.9010 O   0  0  0  0  0  0  0  0  0  0  0  0
   40.9110   27.4030   32.4980 O   0  0  0  0  0  0  0  0  0  0  0  0
   36.3226   19.1223   33.5636 H   0  0  0  0  0  0  0  0  0  0  0  0
   34.7787   19.9901   33.9199 H   0  0  0  0  0  0  0  0  0  0  0  0
   36.2417   19.6492   31.3092 H   0  0  0  0  0  0  0  0  0  0  0  0
   34.4822   19.3628   31.7587 H   0  0  0  0  0  0  0  0  0  0  0  0
   35.9618   22.9353   30.9301 H   0  0  0  0  0  0  0  0  0  0  0  0
   35.0102   22.8679   32.4798 H   0  0  0  0  0  0  0  0  0  0  0  0
   37.6713   21.3154   32.0525 H   0  0  0  0  0  0  0  0  0  0  0  0
   40.9238   21.8635   36.4090 H   0  0  0  0  0  0  0  0  0  0  0  0
   40.4670   23.9695   37.6610 H   0  0  0  0  0  0  0  0  0  0  0  0
   38.1090   24.8539   37.6827 H   0  0  0  0  0  0  0  0  0  0  0  0
   37.1548   26.4746   33.4215 H   0  0  0  0  0  0  0  0  0  0  0  0
   36.0239   24.3504   32.9727 H   0  0  0  0  0  0  0  0  0  0  0  0
   39.7382   22.3186   32.7356 H   0  0  0  0  0  0  0  0  0  0  0  0
   40.9131   24.4164   33.1738 H   0  0  0  0  0  0  0  0  0  0  0  0
   39.1319   28.0825   33.7756 H   0  0  0  0  0  0  0  0  0  0  0  0
  1 13  1  0
  1  2  2  0
  3  1  1  0
  4  3  1  0
  5  4  1  0
  6  7  1  0
  6  5  1  0
  7  8  1  0
  8 18  1  0
  8  3  1  0
  9 10  2  0
 10 11  1  0
 12 11  2  0
 13 12  1  0
 14 13  2  0
 14  9  1  0
 15 21  1  0
 16 15  2  0
 17 16  1  0
 18 19  1  0
 18 17  2  0
 19 20  2  0
 20 15  1  0
 21 22  2  0
 23 21  2  0
  4 24  1  0
  4 25  1  0
  5 26  1  0
  5 27  1  0
  7 28  1  0
  7 29  1  0
  8 30  1  6
  9 31  1  0
 10 32  1  0
 11 33  1  0
 16 34  1  0
 17 35  1  0
 19 36  1  0
 20 37  1  0
 21 38  1  0
M  ISO  8  24  13  25  13  26  13  27  13  28  13  29  13  30  13  31  14
M  ISO  7  32  14  33  14  34  14  35  14  36  14  37  14  38  11
M  END
>  <minimizedAffinity>  (1) 
-4.46110439

>  <minimizedRMSD>  (1) 
1.89446747

$$$$
