
     RDKit          3D

 33 35  0  0  1  0  0  0  0  0999 V2000
   37.5390   22.2670   34.7930 C   0  0  0  0  0  0  0  0  0  0  0  0
   36.7750   21.2570   34.8100 O   0  0  0  0  0  0  0  0  0  0  0  0
   37.7040   22.9110   33.5490 N   0  0  0  0  0  0  0  0  0  0  0  0
   37.6210   22.0660   32.3700 C   0  0  0  0  0  0  0  0  0  0  0  0
   37.4710   22.8760   31.1090 C   0  0  0  0  0  0  0  0  0  0  0  0
   36.7460   24.0200   31.2160 O   0  0  0  0  0  0  0  0  0  0  0  0
   36.8490   24.7460   32.3500 C   0  0  0  0  0  0  0  0  0  0  0  0
   37.9470   24.3050   33.2740 C   0  0  2  0  0  0  0  0  0  0  0  0
   39.9540   22.6700   37.5370 C   0  0  0  0  0  0  0  0  0  0  0  0
   39.1840   23.2810   38.5180 C   0  0  0  0  0  0  0  0  0  0  0  0
   37.8620   23.5510   38.2420 C   0  0  0  0  0  0  0  0  0  0  0  0
   37.3860   23.1970   37.0140 N   0  0  0  0  0  0  0  0  0  0  0  0
   38.1350   22.6100   36.0780 C   0  0  0  0  0  0  0  0  0  0  0  0
   39.4330   22.3460   36.3490 N   0  0  0  0  0  0  0  0  0  0  0  0
   39.2880   24.6240   32.7910 C   0  0  0  0  0  0  0  0  0  0  0  0
   40.4570   23.9320   33.0430 C   0  0  0  0  0  0  0  0  0  0  0  0
   41.6860   24.3100   32.5410 C   0  0  0  0  0  0  0  0  0  0  0  0
   41.7630   25.4220   31.7540 N   0  0  0  0  0  0  0  0  0  0  0  0
   40.6230   26.0950   31.5080 C   0  0  0  0  0  0  0  0  0  0  0  0
   39.4240   25.7190   32.0040 N   0  0  0  0  0  0  0  0  0  0  0  0
   38.5385   21.4635   32.2988 H   0  0  0  0  0  0  0  0  0  0  0  0
   36.7330   21.4248   32.4715 H   0  0  0  0  0  0  0  0  0  0  0  0
   36.9840   22.2387   30.3562 H   0  0  0  0  0  0  0  0  0  0  0  0
   38.4887   23.1953   30.8402 H   0  0  0  0  0  0  0  0  0  0  0  0
   37.0345   25.7938   32.0714 H   0  0  0  0  0  0  0  0  0  0  0  0
   35.9049   24.6071   32.8972 H   0  0  0  0  0  0  0  0  0  0  0  0
   37.9243   24.8724   34.2161 H   0  0  0  0  0  0  0  0  0  0  0  0
   41.0120   22.4485   37.7411 H   0  0  0  0  0  0  0  0  0  0  0  0
   39.6200   23.5433   39.4932 H   0  0  0  0  0  0  0  0  0  0  0  0
   37.2126   24.0353   38.9862 H   0  0  0  0  0  0  0  0  0  0  0  0
   40.4057   23.0339   33.6761 H   0  0  0  0  0  0  0  0  0  0  0  0
   42.5883   23.7245   32.7716 H   0  0  0  0  0  0  0  0  0  0  0  0
   40.6702   26.9925   30.8738 H   0  0  0  0  0  0  0  0  0  0  0  0
  1  2  2  0
  1 13  1  0
  3  1  1  0
  4  3  1  0
  5  6  1  0
  5  4  1  0
  6  7  1  0
  7  8  1  0
  8  3  1  0
  9 10  2  0
 11 10  1  0
 12 11  2  0
 13 14  2  0
 13 12  1  0
 14  9  1  0
 15 16  2  0
 15  8  1  0
 17 16  1  0
 18 17  2  0
 19 18  1  0
 19 20  2  0
 20 15  1  0
  4 21  1  0
  4 22  1  0
  5 23  1  0
  5 24  1  0
  7 25  1  0
  7 26  1  0
  8 27  1  1
  9 28  1  0
 10 29  1  0
 11 30  1  0
 16 31  1  0
 17 32  1  0
 19 33  1  0
M  ISO  8  21  13  22  13  23  13  24  13  25  13  26  13  27  13  28  14
M  ISO  5  29  14  30  14  31  14  32  14  33  14
M  END
>  <minimizedAffinity>  (1) 
-4.33857059

>  <minimizedRMSD>  (1) 
1.70920777

$$$$
