
     RDKit          3D

 34 35  0  0  1  0  0  0  0  0999 V2000
   37.0370   21.7670   34.9210 C   0  0  0  0  0  0  0  0  0  0  0  0
   36.1210   20.9710   35.2470 O   0  0  0  0  0  0  0  0  0  0  0  0
   37.2060   22.0810   33.5410 N   0  0  0  0  0  0  0  0  0  0  0  0
   36.8390   20.9900   32.6520 C   0  0  0  0  0  0  0  0  0  0  0  0
   36.6690   21.4710   31.2290 C   0  0  0  0  0  0  0  0  0  0  0  0
   36.1500   22.7100   31.0870 O   0  0  0  0  0  0  0  0  0  0  0  0
   36.5220   23.6750   31.9800 C   0  0  0  0  0  0  0  0  0  0  0  0
   37.6660   23.2600   32.8860 C   0  0  1  0  0  0  0  0  0  0  0  0
   39.8590   22.5940   37.1190 C   0  0  0  0  0  0  0  0  0  0  0  0
   39.2370   23.3010   38.1640 C   0  0  0  0  0  0  0  0  0  0  0  0
   37.8750   23.4830   38.1010 C   0  0  0  0  0  0  0  0  0  0  0  0
   37.2350   22.9600   37.0250 N   0  0  0  0  0  0  0  0  0  0  0  0
   37.8380   22.2880   36.0370 C   0  0  0  0  0  0  0  0  0  0  0  0
   39.1740   22.1100   36.1000 N   0  0  0  0  0  0  0  0  0  0  0  0
   37.9450   24.4520   33.7370 C   0  0  0  0  0  0  0  0  0  0  0  0
   37.2450   25.6840   33.1770 C   0  0  0  0  0  0  0  0  0  0  0  0
   39.4370   24.7380   33.6090 C   0  0  0  0  0  0  0  0  0  0  0  0
   37.6290   20.2251   32.6792 H   0  0  0  0  0  0  0  0  0  0  0  0
   35.8799   20.5732   32.9933 H   0  0  0  0  0  0  0  0  0  0  0  0
   37.6587   21.4622   30.7489 H   0  0  0  0  0  0  0  0  0  0  0  0
   35.9423   20.7870   30.7664 H   0  0  0  0  0  0  0  0  0  0  0  0
   36.8313   24.5681   31.4172 H   0  0  0  0  0  0  0  0  0  0  0  0
   35.6531   23.8662   32.6269 H   0  0  0  0  0  0  0  0  0  0  0  0
   38.6258   22.9950   32.4186 H   0  0  0  0  0  0  0  0  0  0  0  0
   40.9477   22.4401   37.1521 H   0  0  0  0  0  0  0  0  0  0  0  0
   39.8226   23.6967   39.0069 H   0  0  0  0  0  0  0  0  0  0  0  0
   37.3301   24.0272   38.8864 H   0  0  0  0  0  0  0  0  0  0  0  0
   37.6107   24.2540   34.7661 H   0  0  0  0  0  0  0  0  0  0  0  0
   36.8882   26.3119   34.0067 H   0  0  0  0  0  0  0  0  0  0  0  0
   37.9516   26.2585   32.5600 H   0  0  0  0  0  0  0  0  0  0  0  0
   36.3898   25.3711   32.5600 H   0  0  0  0  0  0  0  0  0  0  0  0
   39.8814   24.8232   34.6116 H   0  0  0  0  0  0  0  0  0  0  0  0
   39.9222   23.9165   33.0615 H   0  0  0  0  0  0  0  0  0  0  0  0
   39.5840   25.6807   33.0615 H   0  0  0  0  0  0  0  0  0  0  0  0
  1  2  2  0
  1 13  1  0
  3  1  1  0
  4  3  1  0
  5  4  1  0
  6  5  1  0
  6  7  1  0
  7  8  1  0
  8  3  1  0
  8 15  1  0
  9 10  2  0
 11 10  1  0
 12 11  2  0
 13 14  2  0
 13 12  1  0
 14  9  1  0
 16 15  1  0
 17 15  1  0
  4 18  1  0
  4 19  1  0
  5 20  1  0
  5 21  1  0
  7 22  1  0
  7 23  1  0
  8 24  1  6
  9 25  1  0
 10 26  1  0
 11 27  1  0
 15 28  1  0
 16 29  1  0
 16 30  1  0
 16 31  1  0
 17 32  1  0
 17 33  1  0
 17 34  1  0
M  ISO  8  18  13  19  13  20  13  21  13  22  13  23  13  24  13  25  14
M  ISO  8  26  14  27  14  28   8  29   8  30   8  31   8  32   8  33   8
M  ISO  1  34   8
M  END
>  <minimizedAffinity>  (1) 
-4.39172602

>  <minimizedRMSD>  (1) 
0.203113154

$$$$
