
     RDKit          3D

 27 28  0  0  1  0  0  0  0  0999 V2000
   37.0900   21.7970   34.9440 C   0  0  0  0  0  0  0  0  0  0  0  0
   36.1610   21.0130   35.2480 O   0  0  0  0  0  0  0  0  0  0  0  0
   37.2740   22.1030   33.5710 N   0  0  0  0  0  0  0  0  0  0  0  0
   36.8930   21.0310   32.6550 C   0  0  0  0  0  0  0  0  0  0  0  0
   36.8010   21.5300   31.2350 C   0  0  0  0  0  0  0  0  0  0  0  0
   36.2910   22.7920   31.0860 O   0  0  0  0  0  0  0  0  0  0  0  0
   36.6410   23.7310   31.9990 C   0  0  0  0  0  0  0  0  0  0  0  0
   37.7710   23.2830   32.9200 C   0  0  1  0  0  0  0  0  0  0  0  0
   39.8850   22.5990   37.2000 C   0  0  0  0  0  0  0  0  0  0  0  0
   39.2600   23.2960   38.2250 C   0  0  0  0  0  0  0  0  0  0  0  0
   37.8840   23.4900   38.1400 C   0  0  0  0  0  0  0  0  0  0  0  0
   37.2560   22.9740   37.0480 N   0  0  0  0  0  0  0  0  0  0  0  0
   37.8790   22.3040   36.0710 C   0  0  0  0  0  0  0  0  0  0  0  0
   39.2120   22.1220   36.1630 N   0  0  0  0  0  0  0  0  0  0  0  0
   38.0710   24.3970   33.8350 C   0  0  0  0  0  0  0  0  0  0  0  0
   37.4960   25.4440   33.9610 O   0  0  0  0  0  0  0  0  0  0  0  0
   37.6469   20.2316   32.7057 H   0  0  0  0  0  0  0  0  0  0  0  0
   35.9043   20.6533   32.9549 H   0  0  0  0  0  0  0  0  0  0  0  0
   37.8139   21.5209   30.8062 H   0  0  0  0  0  0  0  0  0  0  0  0
   36.0971   20.8572   30.7233 H   0  0  0  0  0  0  0  0  0  0  0  0
   36.9646   24.6356   31.4634 H   0  0  0  0  0  0  0  0  0  0  0  0
   35.7596   23.9171   32.6303 H   0  0  0  0  0  0  0  0  0  0  0  0
   38.7173   23.0379   32.4157 H   0  0  0  0  0  0  0  0  0  0  0  0
   40.9720   22.4378   37.2502 H   0  0  0  0  0  0  0  0  0  0  0  0
   39.8349   23.6835   39.0790 H   0  0  0  0  0  0  0  0  0  0  0  0
   37.3302   24.0348   38.9188 H   0  0  0  0  0  0  0  0  0  0  0  0
   38.9403   24.2503   34.4929 H   0  0  0  0  0  0  0  0  0  0  0  0
  1  2  2  0
  1 13  1  0
  3  1  1  0
  4  3  1  0
  5  4  1  0
  6  5  1  0
  6  7  1  0
  7  8  1  0
  8  3  1  0
  8 15  1  0
  9 10  2  0
 11 10  1  0
 12 11  2  0
 13 14  2  0
 13 12  1  0
 14  9  1  0
 15 16  2  0
  4 17  1  0
  4 18  1  0
  5 19  1  0
  5 20  1  0
  7 21  1  0
  7 22  1  0
  8 23  1  6
  9 24  1  0
 10 25  1  0
 11 26  1  0
 15 27  1  0
M  ISO  8  17  13  18  13  19  13  20  13  21  13  22  13  23  13  24  14
M  ISO  3  25  14  26  14  27   6
M  END
>  <minimizedAffinity>  (1) 
-4.1915617

>  <minimizedRMSD>  (1) 
0.281362981

$$$$
