
     RDKit          3D

 31 32  0  0  1  0  0  0  0  0999 V2000
   37.0670   21.7820   34.9400 C   0  0  0  0  0  0  0  0  0  0  0  0
   36.1480   20.9900   35.2460 O   0  0  0  0  0  0  0  0  0  0  0  0
   37.2560   22.1080   33.5640 N   0  0  0  0  0  0  0  0  0  0  0  0
   36.8730   21.0290   32.6530 C   0  0  0  0  0  0  0  0  0  0  0  0
   36.7250   21.5200   31.2410 C   0  0  0  0  0  0  0  0  0  0  0  0
   36.2610   22.7800   31.0830 O   0  0  0  0  0  0  0  0  0  0  0  0
   36.6150   23.7250   32.0030 C   0  0  0  0  0  0  0  0  0  0  0  0
   37.7460   23.2810   32.9160 C   0  0  1  0  0  0  0  0  0  0  0  0
   39.8700   22.6000   37.1610 C   0  0  0  0  0  0  0  0  0  0  0  0
   39.2440   23.3000   38.2100 C   0  0  0  0  0  0  0  0  0  0  0  0
   37.8610   23.4820   38.1440 C   0  0  0  0  0  0  0  0  0  0  0  0
   37.2310   22.9600   37.0560 N   0  0  0  0  0  0  0  0  0  0  0  0
   37.8590   22.2920   36.0660 C   0  0  0  0  0  0  0  0  0  0  0  0
   39.2010   22.1180   36.1340 N   0  0  0  0  0  0  0  0  0  0  0  0
   38.0520   24.4540   33.7780 C   0  0  0  0  0  0  0  0  0  0  0  0
   37.2720   25.6480   33.1940 C   0  0  0  0  0  0  0  0  0  0  0  0
   37.6475   20.2483   32.6796 H   0  0  0  0  0  0  0  0  0  0  0  0
   35.9012   20.6317   32.9814 H   0  0  0  0  0  0  0  0  0  0  0  0
   37.7147   21.4667   30.7638 H   0  0  0  0  0  0  0  0  0  0  0  0
   35.9614   20.8711   30.7872 H   0  0  0  0  0  0  0  0  0  0  0  0
   36.9339   24.6314   31.4675 H   0  0  0  0  0  0  0  0  0  0  0  0
   35.7356   23.9068   32.6383 H   0  0  0  0  0  0  0  0  0  0  0  0
   38.7009   23.0009   32.4472 H   0  0  0  0  0  0  0  0  0  0  0  0
   40.9590   22.4500   37.2007 H   0  0  0  0  0  0  0  0  0  0  0  0
   39.8270   23.6919   39.0565 H   0  0  0  0  0  0  0  0  0  0  0  0
   37.3096   24.0190   38.9299 H   0  0  0  0  0  0  0  0  0  0  0  0
   37.7295   24.2594   34.8115 H   0  0  0  0  0  0  0  0  0  0  0  0
   39.1325   24.6590   33.7983 H   0  0  0  0  0  0  0  0  0  0  0  0
   36.8715   26.2611   34.0148 H   0  0  0  0  0  0  0  0  0  0  0  0
   37.9458   26.2588   32.5752 H   0  0  0  0  0  0  0  0  0  0  0  0
   36.4420   25.2764   32.5752 H   0  0  0  0  0  0  0  0  0  0  0  0
  1  2  2  0
  1 13  1  0
  3  1  1  0
  4  3  1  0
  5  4  1  0
  6  5  1  0
  6  7  1  0
  7  8  1  0
  8  3  1  0
  8 15  1  0
  9 10  2  0
 11 10  1  0
 12 11  2  0
 13 14  2  0
 13 12  1  0
 14  9  1  0
 16 15  1  0
  4 17  1  0
  4 18  1  0
  5 19  1  0
  5 20  1  0
  7 21  1  0
  7 22  1  0
  8 23  1  6
  9 24  1  0
 10 25  1  0
 11 26  1  0
 15 27  1  0
 15 28  1  0
 16 29  1  0
 16 30  1  0
 16 31  1  0
M  ISO  8  17  13  18  13  19  13  20  13  21  13  22  13  23  13  24  14
M  ISO  7  25  14  26  14  27   8  28   8  29   8  30   8  31   8
M  END
>  <minimizedAffinity>  (1) 
-4.24294853

>  <minimizedRMSD>  (1) 
0.738942146

$$$$
