
     RDKit          3D

 30 32  0  0  1  0  0  0  0  0999 V2000
   37.5500   22.1760   34.8010 C   0  0  0  0  0  0  0  0  0  0  0  0
   36.6270   21.3360   34.8840 O   0  0  0  0  0  0  0  0  0  0  0  0
   37.8870   22.6730   33.5080 N   0  0  0  0  0  0  0  0  0  0  0  0
   37.6520   21.7120   32.4250 C   0  0  0  0  0  0  0  0  0  0  0  0
   37.7280   22.3770   31.0790 C   0  0  0  0  0  0  0  0  0  0  0  0
   37.2000   23.6400   31.0240 O   0  0  0  0  0  0  0  0  0  0  0  0
   37.3850   24.4620   32.0790 C   0  0  0  0  0  0  0  0  0  0  0  0
   38.4150   23.9330   33.0780 C   0  0  1  0  0  0  0  0  0  0  0  0
   39.9780   22.6620   37.5280 C   0  0  0  0  0  0  0  0  0  0  0  0
   39.2340   23.3400   38.4830 C   0  0  0  0  0  0  0  0  0  0  0  0
   37.9210   23.6210   38.1870 C   0  0  0  0  0  0  0  0  0  0  0  0
   37.4700   23.2070   36.9800 N   0  0  0  0  0  0  0  0  0  0  0  0
   38.1860   22.5570   36.0650 C   0  0  0  0  0  0  0  0  0  0  0  0
   39.4650   22.2850   36.3590 N   0  0  0  0  0  0  0  0  0  0  0  0
   38.4790   24.9590   34.1470 C   0  0  0  0  0  0  0  0  0  0  0  0
   39.4660   25.3740   34.9490 N   0  0  0  0  0  0  0  0  0  0  0  0
   39.0520   26.3120   35.7440 O   0  0  0  0  0  0  0  0  0  0  0  0
   37.7870   26.5360   35.4850 C   0  0  0  0  0  0  0  0  0  0  0  0
   37.3950   25.7130   34.4970 N   0  0  0  0  0  0  0  0  0  0  0  0
   38.4137   20.9201   32.4770 H   0  0  0  0  0  0  0  0  0  0  0  0
   36.6435   21.2903   32.5476 H   0  0  0  0  0  0  0  0  0  0  0  0
   38.7871   22.4375   30.7881 H   0  0  0  0  0  0  0  0  0  0  0  0
   37.1212   21.7615   30.3986 H   0  0  0  0  0  0  0  0  0  0  0  0
   37.7282   25.4383   31.7062 H   0  0  0  0  0  0  0  0  0  0  0  0
   36.4237   24.5381   32.6082 H   0  0  0  0  0  0  0  0  0  0  0  0
   39.4361   23.7715   32.7021 H   0  0  0  0  0  0  0  0  0  0  0  0
   41.0306   22.4274   37.7449 H   0  0  0  0  0  0  0  0  0  0  0  0
   39.6787   23.6419   39.4427 H   0  0  0  0  0  0  0  0  0  0  0  0
   37.2703   24.1551   38.8951 H   0  0  0  0  0  0  0  0  0  0  0  0
   37.1506   27.2758   35.9926 H   0  0  0  0  0  0  0  0  0  0  0  0
  1  2  2  0
  1 13  1  0
  3  1  1  0
  4  3  1  0
  5  4  1  0
  6  5  1  0
  6  7  1  0
  7  8  1  0
  8  3  1  0
  8 15  1  0
  9 10  2  0
 11 10  1  0
 12 11  2  0
 13 14  2  0
 13 12  1  0
 14  9  1  0
 15 19  1  0
 15 16  2  0
 16 17  1  0
 18 17  1  0
 19 18  2  0
  4 20  1  0
  4 21  1  0
  5 22  1  0
  5 23  1  0
  7 24  1  0
  7 25  1  0
  8 26  1  6
  9 27  1  0
 10 28  1  0
 11 29  1  0
 18 30  1  0
M  ISO  8  20  13  21  13  22  13  23  13  24  13  25  13  26  13  27  14
M  ISO  3  28  14  29  14  30  14
M  END
>  <minimizedAffinity>  (1) 
-4.6835618

>  <minimizedRMSD>  (1) 
0.995224357

$$$$
