
     RDKit          3D

 31 33  0  0  1  0  0  0  0  0999 V2000
   37.5870   22.1730   34.7710 C   0  0  0  0  0  0  0  0  0  0  0  0
   36.6280   21.4450   35.0990 O   0  0  0  0  0  0  0  0  0  0  0  0
   37.5510   22.7580   33.4840 N   0  0  0  0  0  0  0  0  0  0  0  0
   36.8340   21.9650   32.4710 C   0  0  0  0  0  0  0  0  0  0  0  0
   36.5410   22.7530   31.2410 C   0  0  0  0  0  0  0  0  0  0  0  0
   36.2460   24.0740   31.4380 O   0  0  0  0  0  0  0  0  0  0  0  0
   36.9030   24.7380   32.4030 C   0  0  0  0  0  0  0  0  0  0  0  0
   38.0920   24.0010   32.9690 C   0  0  1  0  0  0  0  0  0  0  0  0
   40.8380   22.0800   36.4980 C   0  0  0  0  0  0  0  0  0  0  0  0
   40.5560   22.7030   37.7110 C   0  0  0  0  0  0  0  0  0  0  0  0
   39.2670   23.1420   37.9180 C   0  0  0  0  0  0  0  0  0  0  0  0
   38.3830   22.9260   36.9150 N   0  0  0  0  0  0  0  0  0  0  0  0
   38.6510   22.3370   35.7650 C   0  0  0  0  0  0  0  0  0  0  0  0
   39.9130   21.9040   35.5560 N   0  0  0  0  0  0  0  0  0  0  0  0
   38.6700   24.8740   34.0160 C   0  0  0  0  0  0  0  0  0  0  0  0
   39.9190   25.0770   34.4290 N   0  0  0  0  0  0  0  0  0  0  0  0
   39.9400   25.9690   35.3790 O   0  0  0  0  0  0  0  0  0  0  0  0
   38.7050   26.3620   35.6010 C   0  0  0  0  0  0  0  0  0  0  0  0
   37.8670   25.7020   34.7680 N   0  0  0  0  0  0  0  0  0  0  0  0
   38.3760   27.3190   36.5660 O   0  0  0  0  0  0  0  0  0  0  0  0
   37.4531   21.0981   32.1969 H   0  0  0  0  0  0  0  0  0  0  0  0
   35.8740   21.6507   32.9065 H   0  0  0  0  0  0  0  0  0  0  0  0
   35.6814   22.2864   30.7377 H   0  0  0  0  0  0  0  0  0  0  0  0
   37.4675   22.7383   30.6483 H   0  0  0  0  0  0  0  0  0  0  0  0
   37.2569   25.6917   31.9845 H   0  0  0  0  0  0  0  0  0  0  0  0
   36.1924   24.8706   33.2321 H   0  0  0  0  0  0  0  0  0  0  0  0
   38.8948   23.7709   32.2531 H   0  0  0  0  0  0  0  0  0  0  0  0
   41.8607   21.7206   36.3112 H   0  0  0  0  0  0  0  0  0  0  0  0
   41.3344   22.8396   38.4761 H   0  0  0  0  0  0  0  0  0  0  0  0
   38.9704   23.6430   38.8513 H   0  0  0  0  0  0  0  0  0  0  0  0
   37.4314   27.5842   36.6982 H   0  0  0  0  0  0  0  0  0  0  0  0
  1  2  2  0
  1 13  1  0
  3  1  1  0
  4  3  1  0
  5  6  1  0
  5  4  1  0
  6  7  1  0
  7  8  1  0
  8  3  1  0
  8 15  1  0
  9 10  2  0
 10 11  1  0
 12 11  2  0
 13 12  1  0
 14 13  2  0
 14  9  1  0
 15 16  2  0
 15 19  1  0
 16 17  1  0
 17 18  1  0
 18 20  1  0
 19 18  2  0
  4 21  1  0
  4 22  1  0
  5 23  1  0
  5 24  1  0
  7 25  1  0
  7 26  1  0
  8 27  1  6
  9 28  1  0
 10 29  1  0
 11 30  1  0
 20 31  1  0
M  ISO  8  21  13  22  13  23  13  24  13  25  13  26  13  27  13  28  14
M  ISO  3  29  14  30  14  31   3
M  END
>  <minimizedAffinity>  (1) 
-5.01035881

>  <minimizedRMSD>  (1) 
0.959004223

$$$$
