
     RDKit          3D

 42 45  0  0  1  0  0  0  0  0999 V2000
   37.0930   21.7940   34.8700 C   0  0  0  0  0  0  0  0  0  0  0  0
   36.3960   21.6340   35.8850 O   0  0  0  0  0  0  0  0  0  0  0  0
   36.6270   21.2360   33.6490 N   0  0  0  0  0  0  0  0  0  0  0  0
   35.8170   20.0190   33.8210 C   0  0  0  0  0  0  0  0  0  0  0  0
   35.1030   19.6390   32.5570 C   0  0  0  0  0  0  0  0  0  0  0  0
   34.6260   20.6980   31.8190 O   0  0  0  0  0  0  0  0  0  0  0  0
   35.3930   21.8180   31.7400 C   0  0  0  0  0  0  0  0  0  0  0  0
   36.7990   21.6310   32.2650 C   0  0  1  0  0  0  0  0  0  0  0  0
   37.4540   22.9470   32.1180 C   0  0  0  0  0  0  0  0  0  0  0  0
   38.7220   23.3300   31.9270 N   0  0  0  0  0  0  0  0  0  0  0  0
   38.8330   24.6100   31.8340 O   0  0  0  0  0  0  0  0  0  0  0  0
   37.6220   25.1230   31.9620 C   0  0  0  0  0  0  0  0  0  0  0  0
   36.7380   24.1220   32.1410 N   0  0  0  0  0  0  0  0  0  0  0  0
   37.0960   26.4510   31.9500 N   0  0  0  0  0  0  0  0  0  0  0  0
   37.9750   27.5750   32.1770 C   0  0  0  0  0  0  0  0  0  0  0  0
   37.3050   28.6890   31.3870 C   0  0  0  0  0  0  0  0  0  0  0  0
   35.8500   28.4240   31.6380 C   0  0  0  0  0  0  0  0  0  0  0  0
   35.7360   26.9360   31.7280 C   0  0  0  0  0  0  0  0  0  0  0  0
   40.6520   22.7540   35.0740 C   0  0  0  0  0  0  0  0  0  0  0  0
   40.5750   24.0950   35.4170 C   0  0  0  0  0  0  0  0  0  0  0  0
   39.3380   24.6490   35.5710 C   0  0  0  0  0  0  0  0  0  0  0  0
   38.2690   23.8310   35.3740 N   0  0  0  0  0  0  0  0  0  0  0  0
   38.3360   22.5470   35.0470 C   0  0  0  0  0  0  0  0  0  0  0  0
   39.5580   22.0000   34.8940 N   0  0  0  0  0  0  0  0  0  0  0  0
   36.4775   19.1914   34.1190 H   0  0  0  0  0  0  0  0  0  0  0  0
   35.0598   20.2197   34.5932 H   0  0  0  0  0  0  0  0  0  0  0  0
   35.8033   19.0714   31.9266 H   0  0  0  0  0  0  0  0  0  0  0  0
   34.2222   19.0561   32.8642 H   0  0  0  0  0  0  0  0  0  0  0  0
   35.4541   22.1232   30.6850 H   0  0  0  0  0  0  0  0  0  0  0  0
   34.9134   22.5809   32.3708 H   0  0  0  0  0  0  0  0  0  0  0  0
   37.4130   20.8780   31.7492 H   0  0  0  0  0  0  0  0  0  0  0  0
   38.0304   27.8254   33.2467 H   0  0  0  0  0  0  0  0  0  0  0  0
   39.0139   27.3856   31.8690 H   0  0  0  0  0  0  0  0  0  0  0  0
   37.5444   28.6180   30.3157 H   0  0  0  0  0  0  0  0  0  0  0  0
   37.6281   29.6975   31.6846 H   0  0  0  0  0  0  0  0  0  0  0  0
   35.5285   28.8937   32.5793 H   0  0  0  0  0  0  0  0  0  0  0  0
   35.2120   28.8394   30.8440 H   0  0  0  0  0  0  0  0  0  0  0  0
   35.0847   26.6508   32.5673 H   0  0  0  0  0  0  0  0  0  0  0  0
   35.2938   26.5056   30.8174 H   0  0  0  0  0  0  0  0  0  0  0  0
   41.6427   22.2936   34.9453 H   0  0  0  0  0  0  0  0  0  0  0  0
   41.4855   24.6952   35.5609 H   0  0  0  0  0  0  0  0  0  0  0  0
   39.2108   25.7075   35.8418 H   0  0  0  0  0  0  0  0  0  0  0  0
  1 23  1  0
  1  2  2  0
  3  4  1  0
  3  1  1  0
  5  4  1  0
  6  5  1  0
  7  6  1  0
  7  8  1  0
  8  3  1  0
  9 13  1  0
  9  8  1  0
 10  9  2  0
 11 10  1  0
 11 12  1  0
 12 13  2  0
 14 12  1  0
 14 15  1  0
 16 17  1  0
 16 15  1  0
 17 18  1  0
 18 14  1  0
 19 20  2  0
 20 21  1  0
 22 21  2  0
 23 22  1  0
 24 23  2  0
 24 19  1  0
  4 25  1  0
  4 26  1  0
  5 27  1  0
  5 28  1  0
  7 29  1  0
  7 30  1  0
  8 31  1  6
 15 32  1  0
 15 33  1  0
 16 34  1  0
 16 35  1  0
 17 36  1  0
 17 37  1  0
 18 38  1  0
 18 39  1  0
 19 40  1  0
 20 41  1  0
 21 42  1  0
M  ISO  8  25  13  26  13  27  13  28  13  29  13  30  13  31  13  32  13
M  ISO  8  33  13  34  13  35  13  36  13  37  13  38  13  39  13  40  14
M  ISO  2  41  14  42  14
M  END
>  <minimizedAffinity>  (1) 
-4.9108367

>  <minimizedRMSD>  (1) 
3.43275523

$$$$
