
     RDKit          3D

 44 47  0  0  1  0  0  0  0  0999 V2000
   37.1590   21.8070   34.7500 C   0  0  0  0  0  0  0  0  0  0  0  0
   36.2120   21.1540   35.2330 O   0  0  0  0  0  0  0  0  0  0  0  0
   37.0960   22.1140   33.3710 N   0  0  0  0  0  0  0  0  0  0  0  0
   36.3740   21.1260   32.5540 C   0  0  0  0  0  0  0  0  0  0  0  0
   36.0760   21.6390   31.1850 C   0  0  0  0  0  0  0  0  0  0  0  0
   35.7350   22.9740   31.1290 O   0  0  0  0  0  0  0  0  0  0  0  0
   36.4180   23.8250   31.9100 C   0  0  0  0  0  0  0  0  0  0  0  0
   37.6170   23.2280   32.6060 C   0  0  1  0  0  0  0  0  0  0  0  0
   40.4480   22.1810   36.3600 C   0  0  0  0  0  0  0  0  0  0  0  0
   40.1530   22.9470   37.4840 C   0  0  0  0  0  0  0  0  0  0  0  0
   38.8410   23.3230   37.6730 C   0  0  0  0  0  0  0  0  0  0  0  0
   37.9510   22.9080   36.7390 N   0  0  0  0  0  0  0  0  0  0  0  0
   38.2340   22.1800   35.6730 C   0  0  0  0  0  0  0  0  0  0  0  0
   39.5170   21.8120   35.4840 N   0  0  0  0  0  0  0  0  0  0  0  0
   38.2030   24.3020   33.4400 C   0  0  0  0  0  0  0  0  0  0  0  0
   37.6660   25.1970   34.2660 N   0  0  0  0  0  0  0  0  0  0  0  0
   38.5950   25.9330   34.7990 O   0  0  0  0  0  0  0  0  0  0  0  0
   39.7610   25.5330   34.3310 C   0  0  0  0  0  0  0  0  0  0  0  0
   39.5640   24.5070   33.4710 N   0  0  0  0  0  0  0  0  0  0  0  0
   41.0480   26.1770   34.7460 C   0  0  2  0  0  0  0  0  0  0  0  0
   41.3860   27.3020   33.8140 C   0  0  0  0  0  0  0  0  0  0  0  0
   42.6850   27.1830   33.1020 C   0  0  0  0  0  0  0  0  0  0  0  0
   43.7330   26.9370   34.1950 C   0  0  0  0  0  0  0  0  0  0  0  0
   43.4990   25.5140   34.6310 C   0  0  0  0  0  0  0  0  0  0  0  0
   42.1010   25.1420   34.9130 C   0  0  0  0  0  0  0  0  0  0  0  0
   36.9909   20.2195   32.4665 H   0  0  0  0  0  0  0  0  0  0  0  0
   35.4164   20.9110   33.0507 H   0  0  0  0  0  0  0  0  0  0  0  0
   36.9691   21.4875   30.5609 H   0  0  0  0  0  0  0  0  0  0  0  0
   35.1979   21.0800   30.8293 H   0  0  0  0  0  0  0  0  0  0  0  0
   36.7672   24.6586   31.2830 H   0  0  0  0  0  0  0  0  0  0  0  0
   35.7247   24.1377   32.7047 H   0  0  0  0  0  0  0  0  0  0  0  0
   38.4137   22.8585   31.9437 H   0  0  0  0  0  0  0  0  0  0  0  0
   41.4890   21.8692   36.1896 H   0  0  0  0  0  0  0  0  0  0  0  0
   40.9386   23.2415   38.1954 H   0  0  0  0  0  0  0  0  0  0  0  0
   38.5318   23.9289   38.5375 H   0  0  0  0  0  0  0  0  0  0  0  0
   40.9540   26.6501   35.7346 H   0  0  0  0  0  0  0  0  0  0  0  0
   40.5904   27.3638   33.0569 H   0  0  0  0  0  0  0  0  0  0  0  0
   41.4723   28.1982   34.4459 H   0  0  0  0  0  0  0  0  0  0  0  0
   42.6604   26.3393   32.3966 H   0  0  0  0  0  0  0  0  0  0  0  0
   42.9122   28.0856   32.5158 H   0  0  0  0  0  0  0  0  0  0  0  0
   44.7496   27.0579   33.7927 H   0  0  0  0  0  0  0  0  0  0  0  0
   43.6424   27.6493   35.0283 H   0  0  0  0  0  0  0  0  0  0  0  0
   44.3243   24.7939   34.7330 H   0  0  0  0  0  0  0  0  0  0  0  0
   41.8435   24.1235   35.2390 H   0  0  0  0  0  0  0  0  0  0  0  0
  1  2  2  0
  1 13  1  0
  3  1  1  0
  4  3  1  0
  5  4  1  0
  6  5  1  0
  6  7  1  0
  7  8  1  0
  8  3  1  0
  8 15  1  0
  9 10  2  0
 10 11  1  0
 12 11  2  0
 13 12  1  0
 14 13  2  0
 14  9  1  0
 15 19  1  0
 15 16  2  0
 16 17  1  0
 18 17  1  0
 19 18  2  0
 20 18  1  0
 20 25  1  0
 21 20  1  0
 22 21  1  0
 22 23  1  0
 23 24  1  0
 24 25  2  0
  4 26  1  0
  4 27  1  0
  5 28  1  0
  5 29  1  0
  7 30  1  0
  7 31  1  0
  8 32  1  6
  9 33  1  0
 10 34  1  0
 11 35  1  0
 20 36  1  1
 21 37  1  0
 21 38  1  0
 22 39  1  0
 22 40  1  0
 23 41  1  0
 23 42  1  0
 24 43  1  0
 25 44  1  0
M  ISO  8  26  13  27  13  28  13  29  13  30  13  31  13  32  13  33  14
M  ISO  8  34  14  35  14  36  13  37  13  38  13  39  13  40  13  41  13
M  ISO  3  42  13  43  13  44  13
M  END
>  <minimizedAffinity>  (1) 
-5.37212849

>  <minimizedRMSD>  (1) 
3.59413934

$$$$
