
     RDKit          3D

 28 31  0  0  0  0  0  0  0  0999 V2000
   39.4390   22.8280   37.2980 C   0  0  0  0  0  0  0  0  0  0  0  0
   38.5080   23.5450   36.5510 C   0  0  0  0  0  0  0  0  0  0  0  0
   37.5960   24.0270   37.4330 N   0  0  0  0  0  0  0  0  0  0  0  0
   37.9900   23.5980   38.6650 C   0  0  0  0  0  0  0  0  0  0  0  0
   39.0960   22.8770   38.6030 N   0  0  0  0  0  0  0  0  0  0  0  0
   38.4340   23.7850   35.1500 N   0  0  0  0  0  0  0  0  0  0  0  0
   37.9030   23.0490   34.1580 C   0  0  0  0  0  0  0  0  0  0  0  0
   38.1060   23.7430   33.0050 N   0  0  0  0  0  0  0  0  0  0  0  0
   38.7530   24.8880   33.2810 C   0  0  0  0  0  0  0  0  0  0  0  0
   39.1980   25.9390   32.4980 C   0  0  0  0  0  0  0  0  0  0  0  0
   39.8290   26.9670   33.0950 N   0  0  0  0  0  0  0  0  0  0  0  0
   40.0490   27.0260   34.4200 C   0  0  0  0  0  0  0  0  0  0  0  0
   39.6130   26.0000   35.1730 N   0  0  0  0  0  0  0  0  0  0  0  0
   38.9760   24.9360   34.6620 C   0  0  0  0  0  0  0  0  0  0  0  0
   42.5570   20.7950   37.0170 C   0  0  0  0  0  0  0  0  0  0  0  0
   41.4490   21.4510   37.5630 C   0  0  0  0  0  0  0  0  0  0  0  0
   40.5920   22.1460   36.7220 C   0  0  0  0  0  0  0  0  0  0  0  0
   40.8780   22.1560   35.3780 N   0  0  0  0  0  0  0  0  0  0  0  0
   41.9430   21.5210   34.8870 C   0  0  0  0  0  0  0  0  0  0  0  0
   42.7760   20.8480   35.6810 N   0  0  0  0  0  0  0  0  0  0  0  0
   37.4528   23.8243   39.5978 H   0  0  0  0  0  0  0  0  0  0  0  0
   39.5954   22.4406   39.3911 H   0  0  0  0  0  0  0  0  0  0  0  0
   37.4018   22.0750   34.2588 H   0  0  0  0  0  0  0  0  0  0  0  0
   39.0391   25.9342   31.4095 H   0  0  0  0  0  0  0  0  0  0  0  0
   40.5677   27.8838   34.8729 H   0  0  0  0  0  0  0  0  0  0  0  0
   43.2470   20.2390   37.6688 H   0  0  0  0  0  0  0  0  0  0  0  0
   41.2594   21.4163   38.6460 H   0  0  0  0  0  0  0  0  0  0  0  0
   42.1381   21.5532   33.8049 H   0  0  0  0  0  0  0  0  0  0  0  0
  1  5  1  0
  2  1  2  0
  2  3  1  0
  3  4  2  0
  5  4  1  0
  6  2  1  0
  7  6  1  0
  8  9  1  0
  8  7  2  0
  9 14  2  0
 10 11  2  0
 10  9  1  0
 11 12  1  0
 12 13  2  0
 14  6  1  0
 14 13  1  0
 15 16  2  0
 17  1  1  0
 17 16  1  0
 18 17  2  0
 19 18  1  0
 19 20  2  0
 20 15  1  0
  4 21  1  0
  5 22  1  0
  7 23  1  0
 10 24  1  0
 12 25  1  0
 15 26  1  0
 16 27  1  0
 19 28  1  0
M  ISO  8  21  14  22   9  23  14  24  14  25  14  26  14  27  14  28  14
M  END
>  <minimizedAffinity>  (1) 
-5.21931696

>  <minimizedRMSD>  (1) 
0.343704164

$$$$
