
     RDKit          3D

 30 32  0  0  0  0  0  0  0  0999 V2000
   39.5050   22.8760   37.3620 C   0  0  0  0  0  0  0  0  0  0  0  0
   38.7270   23.8220   36.6840 C   0  0  0  0  0  0  0  0  0  0  0  0
   37.7520   24.1960   37.5550 N   0  0  0  0  0  0  0  0  0  0  0  0
   37.9660   23.4850   38.6970 C   0  0  0  0  0  0  0  0  0  0  0  0
   39.0140   22.6890   38.5960 N   0  0  0  0  0  0  0  0  0  0  0  0
   38.8190   24.3670   35.3730 N   0  0  0  0  0  0  0  0  0  0  0  0
   39.4260   25.4930   34.9560 C   0  0  0  0  0  0  0  0  0  0  0  0
   39.3890   25.8330   33.6200 C   0  0  0  0  0  0  0  0  0  0  0  0
   40.0700   27.0720   33.2250 C   0  0  0  0  0  0  0  0  0  0  0  0
   38.7290   25.0190   32.7030 C   0  0  0  0  0  0  0  0  0  0  0  0
   38.7200   25.3730   31.4800 O   0  0  0  0  0  0  0  0  0  0  0  0
   38.1360   23.9040   33.1630 N   0  0  0  0  0  0  0  0  0  0  0  0
   38.1730   23.5750   34.4710 C   0  0  0  0  0  0  0  0  0  0  0  0
   37.5650   22.4960   34.7200 O   0  0  0  0  0  0  0  0  0  0  0  0
   42.6140   20.8310   37.0290 C   0  0  0  0  0  0  0  0  0  0  0  0
   41.4940   21.4630   37.5710 C   0  0  0  0  0  0  0  0  0  0  0  0
   40.6590   22.2370   36.7470 C   0  0  0  0  0  0  0  0  0  0  0  0
   40.9990   22.3290   35.4270 N   0  0  0  0  0  0  0  0  0  0  0  0
   42.0870   21.7030   34.9400 C   0  0  0  0  0  0  0  0  0  0  0  0
   42.8900   20.9610   35.7250 N   0  0  0  0  0  0  0  0  0  0  0  0
   37.3392   23.5648   39.5974 H   0  0  0  0  0  0  0  0  0  0  0  0
   39.3805   22.0530   39.3185 H   0  0  0  0  0  0  0  0  0  0  0  0
   39.9489   26.1388   35.6767 H   0  0  0  0  0  0  0  0  0  0  0  0
   40.3745   27.6260   34.1252 H   0  0  0  0  0  0  0  0  0  0  0  0
   40.9600   26.8266   32.6269 H   0  0  0  0  0  0  0  0  0  0  0  0
   39.3858   27.6918   32.6269 H   0  0  0  0  0  0  0  0  0  0  0  0
   37.6423   23.2870   32.5023 H   0  0  0  0  0  0  0  0  0  0  0  0
   43.2698   20.2263   37.6726 H   0  0  0  0  0  0  0  0  0  0  0  0
   41.2651   21.3555   38.6415 H   0  0  0  0  0  0  0  0  0  0  0  0
   42.3263   21.8007   33.8708 H   0  0  0  0  0  0  0  0  0  0  0  0
  1  5  1  0
  2  1  2  0
  2  3  1  0
  3  4  2  0
  5  4  1  0
  6  2  1  0
  7  6  1  0
  8  7  2  0
  9  8  1  0
 10 12  1  0
 10  8  1  0
 11 10  2  0
 12 13  1  0
 13 14  2  0
 13  6  1  0
 15 16  2  0
 17  1  1  0
 17 16  1  0
 18 17  2  0
 19 18  1  0
 19 20  2  0
 20 15  1  0
  4 21  1  0
  5 22  1  0
  7 23  1  0
  9 24  1  0
  9 25  1  0
  9 26  1  0
 12 27  1  0
 15 28  1  0
 16 29  1  0
 19 30  1  0
M  ISO  8  21  14  22   9  23  14  24   8  25   8  26   8  27   9  28  14
M  ISO  2  29  14  30  14
M  END
>  <minimizedAffinity>  (1) 
-5.18969727

>  <minimizedRMSD>  (1) 
0.449061096

$$$$
