
     RDKit          3D

 31 34  0  0  0  0  0  0  0  0999 V2000
   39.3970   22.7730   37.2650 C   0  0  0  0  0  0  0  0  0  0  0  0
   38.3820   23.3770   36.5530 C   0  0  0  0  0  0  0  0  0  0  0  0
   37.4970   23.8740   37.4460 N   0  0  0  0  0  0  0  0  0  0  0  0
   37.9880   23.5620   38.6780 C   0  0  0  0  0  0  0  0  0  0  0  0
   39.1150   22.9100   38.5650 N   0  0  0  0  0  0  0  0  0  0  0  0
   38.2280   23.4760   35.1080 C   0  0  0  0  0  0  0  0  0  0  0  0
   37.7300   22.5880   34.2460 N   0  0  0  0  0  0  0  0  0  0  0  0
   37.6400   22.8270   32.9250 C   0  0  0  0  0  0  0  0  0  0  0  0
   38.0510   23.9840   32.3820 N   0  0  0  0  0  0  0  0  0  0  0  0
   38.5720   24.9380   33.2020 C   0  0  0  0  0  0  0  0  0  0  0  0
   38.9780   26.0980   32.5800 C   0  0  0  0  0  0  0  0  0  0  0  0
   39.5060   27.0480   33.4330 C   0  0  0  0  0  0  0  0  0  0  0  0
   39.6440   26.9110   34.7900 C   0  0  0  0  0  0  0  0  0  0  0  0
   39.2080   25.7020   35.3410 C   0  0  0  0  0  0  0  0  0  0  0  0
   38.6650   24.6910   34.5670 C   0  0  0  0  0  0  0  0  0  0  0  0
   42.5530   20.8490   36.9070 C   0  0  0  0  0  0  0  0  0  0  0  0
   41.4370   21.4560   37.4900 C   0  0  0  0  0  0  0  0  0  0  0  0
   40.5540   22.1290   36.6790 C   0  0  0  0  0  0  0  0  0  0  0  0
   40.8140   22.1730   35.3200 N   0  0  0  0  0  0  0  0  0  0  0  0
   41.9050   21.5700   34.8120 C   0  0  0  0  0  0  0  0  0  0  0  0
   42.7720   20.9120   35.5920 N   0  0  0  0  0  0  0  0  0  0  0  0
   37.5049   23.8217   39.6315 H   0  0  0  0  0  0  0  0  0  0  0  0
   39.6891   22.5606   39.3455 H   0  0  0  0  0  0  0  0  0  0  0  0
   37.2169   22.0510   32.2701 H   0  0  0  0  0  0  0  0  0  0  0  0
   38.8893   26.2549   31.4949 H   0  0  0  0  0  0  0  0  0  0  0  0
   39.8442   27.9942   32.9854 H   0  0  0  0  0  0  0  0  0  0  0  0
   40.0747   27.7094   35.4122 H   0  0  0  0  0  0  0  0  0  0  0  0
   39.2997   25.5492   36.4265 H   0  0  0  0  0  0  0  0  0  0  0  0
   43.2662   20.3076   37.5459 H   0  0  0  0  0  0  0  0  0  0  0  0
   41.2687   21.3965   38.5754 H   0  0  0  0  0  0  0  0  0  0  0  0
   42.0890   21.6190   33.7286 H   0  0  0  0  0  0  0  0  0  0  0  0
  1  5  1  0
  2  1  2  0
  2  3  1  0
  3  4  2  0
  5  4  1  0
  6  2  1  0
  7  6  2  0
  8  7  1  0
  9  8  2  0
  9 10  1  0
 10 15  2  0
 11 10  1  0
 11 12  2  0
 12 13  1  0
 13 14  2  0
 15  6  1  0
 15 14  1  0
 16 17  2  0
 18  1  1  0
 18 17  1  0
 19 18  2  0
 20 19  1  0
 20 21  2  0
 21 16  1  0
  4 22  1  0
  5 23  1  0
  8 24  1  0
 11 25  1  0
 12 26  1  0
 13 27  1  0
 14 28  1  0
 16 29  1  0
 17 30  1  0
 20 31  1  0
M  ISO  8  22  14  23   9  24  14  25  14  26  14  27  14  28  14  29  14
M  ISO  2  30  14  31  14
M  END
>  <minimizedAffinity>  (1) 
-5.79403067

>  <minimizedRMSD>  (1) 
1.35859227

$$$$
