
     RDKit          3D

 25 27  0  0  0  0  0  0  0  0999 V2000
   39.4620   22.8690   37.3150 C   0  0  0  0  0  0  0  0  0  0  0  0
   38.6370   23.7450   36.6230 C   0  0  0  0  0  0  0  0  0  0  0  0
   37.7090   24.1890   37.5060 N   0  0  0  0  0  0  0  0  0  0  0  0
   37.9790   23.5910   38.6940 C   0  0  0  0  0  0  0  0  0  0  0  0
   39.0250   22.8000   38.5880 N   0  0  0  0  0  0  0  0  0  0  0  0
   42.5560   20.8590   36.9750 C   0  0  0  0  0  0  0  0  0  0  0  0
   41.4770   21.5220   37.5650 C   0  0  0  0  0  0  0  0  0  0  0  0
   40.5900   22.1730   36.7230 C   0  0  0  0  0  0  0  0  0  0  0  0
   40.8210   22.1260   35.3740 N   0  0  0  0  0  0  0  0  0  0  0  0
   41.8680   21.4780   34.8500 C   0  0  0  0  0  0  0  0  0  0  0  0
   42.7390   20.8420   35.6480 N   0  0  0  0  0  0  0  0  0  0  0  0
   38.6650   24.1780   35.2270 C   0  0  0  0  0  0  0  0  0  0  0  0
   39.4280   25.3190   34.9560 C   0  0  0  0  0  0  0  0  0  0  0  0
   39.5500   25.8480   33.6890 C   0  0  0  0  0  0  0  0  0  0  0  0
   38.8870   25.2030   32.6980 N   0  0  0  0  0  0  0  0  0  0  0  0
   38.1540   24.1000   32.9870 C   0  0  0  0  0  0  0  0  0  0  0  0
   38.0320   23.5800   34.2220 N   0  0  0  0  0  0  0  0  0  0  0  0
   37.4028   23.7462   39.6181 H   0  0  0  0  0  0  0  0  0  0  0  0
   39.4357   22.2308   39.3418 H   0  0  0  0  0  0  0  0  0  0  0  0
   43.2771   20.3351   37.6196 H   0  0  0  0  0  0  0  0  0  0  0  0
   41.3371   21.5270   38.6561 H   0  0  0  0  0  0  0  0  0  0  0  0
   42.0152   21.4667   33.7600 H   0  0  0  0  0  0  0  0  0  0  0  0
   39.9515   25.8138   35.7874 H   0  0  0  0  0  0  0  0  0  0  0  0
   40.1536   26.7463   33.4924 H   0  0  0  0  0  0  0  0  0  0  0  0
   37.6267   23.5995   32.1615 H   0  0  0  0  0  0  0  0  0  0  0  0
  1  5  1  0
  2  1  2  0
  2  3  1  0
  3  4  2  0
  5  4  1  0
  6  7  2  0
  8  1  1  0
  8  7  1  0
  9  8  2  0
 10  9  1  0
 10 11  2  0
 11  6  1  0
 12  2  1  0
 13 12  2  0
 14 13  1  0
 15 16  1  0
 15 14  2  0
 16 17  2  0
 17 12  1  0
  4 18  1  0
  5 19  1  0
  6 20  1  0
  7 21  1  0
 10 22  1  0
 13 23  1  0
 14 24  1  0
 16 25  1  0
M  ISO  8  18  14  19   9  20  14  21  14  22  14  23  14  24  14  25  14
M  END
>  <minimizedAffinity>  (1) 
-4.63128996

>  <minimizedRMSD>  (1) 
0.196277037

$$$$
