
     RDKit          3D

 23 25  0  0  0  0  0  0  0  0999 V2000
   39.4400   22.7580   37.2730 C   0  0  0  0  0  0  0  0  0  0  0  0
   38.3320   23.1790   36.5150 C   0  0  0  0  0  0  0  0  0  0  0  0
   37.4740   23.7420   37.4080 N   0  0  0  0  0  0  0  0  0  0  0  0
   38.0530   23.6560   38.6420 C   0  0  0  0  0  0  0  0  0  0  0  0
   39.2270   23.0690   38.5590 N   0  0  0  0  0  0  0  0  0  0  0  0
   42.5500   20.7430   36.9690 C   0  0  0  0  0  0  0  0  0  0  0  0
   41.4340   21.3780   37.5360 C   0  0  0  0  0  0  0  0  0  0  0  0
   40.5960   22.1000   36.6910 C   0  0  0  0  0  0  0  0  0  0  0  0
   40.9200   22.1400   35.3650 N   0  0  0  0  0  0  0  0  0  0  0  0
   41.9890   21.5250   34.8570 C   0  0  0  0  0  0  0  0  0  0  0  0
   42.8000   20.8300   35.6500 N   0  0  0  0  0  0  0  0  0  0  0  0
   38.0690   23.0840   35.1230 N   0  0  0  0  0  0  0  0  0  0  0  0
   38.2500   24.1870   34.3730 C   0  0  0  0  0  0  0  0  0  0  0  0
   37.9360   23.8390   33.1050 N   0  0  0  0  0  0  0  0  0  0  0  0
   37.5730   22.5500   33.0810 C   0  0  0  0  0  0  0  0  0  0  0  0
   37.6650   22.1150   34.3340 N   0  0  0  0  0  0  0  0  0  0  0  0
   37.6010   24.0257   39.5742 H   0  0  0  0  0  0  0  0  0  0  0  0
   39.8685   22.8817   39.3428 H   0  0  0  0  0  0  0  0  0  0  0  0
   43.2301   20.1658   37.6126 H   0  0  0  0  0  0  0  0  0  0  0  0
   41.2281   21.3073   38.6142 H   0  0  0  0  0  0  0  0  0  0  0  0
   42.2005   21.5927   33.7797 H   0  0  0  0  0  0  0  0  0  0  0  0
   38.5863   25.1744   34.7222 H   0  0  0  0  0  0  0  0  0  0  0  0
   37.2613   21.9680   32.2012 H   0  0  0  0  0  0  0  0  0  0  0  0
  1  5  1  0
  2  1  2  0
  2  3  1  0
  3  4  2  0
  5  4  1  0
  6  7  2  0
  8  1  1  0
  8  7  1  0
  9  8  2  0
 10  9  1  0
 10 11  2  0
 11  6  1  0
 12  2  1  0
 13 12  1  0
 14 13  2  0
 15 14  1  0
 15 16  2  0
 16 12  1  0
  4 17  1  0
  5 18  1  0
  6 19  1  0
  7 20  1  0
 10 21  1  0
 13 22  1  0
 15 23  1  0
M  ISO  7  17  14  18   9  19  14  20  14  21  14  22  14  23  14
M  END
>  <minimizedAffinity>  (1) 
-4.47751284

>  <minimizedRMSD>  (1) 
0.919392288

$$$$
