
     RDKit          3D

 29 31  0  0  0  0  0  0  0  0999 V2000
   39.4750   23.1160   37.2260 C   0  0  0  0  0  0  0  0  0  0  0  0
   38.6610   24.2010   36.9280 C   0  0  0  0  0  0  0  0  0  0  0  0
   37.7640   24.2650   37.9430 N   0  0  0  0  0  0  0  0  0  0  0  0
   38.0420   23.2640   38.7960 C   0  0  0  0  0  0  0  0  0  0  0  0
   39.0830   22.5490   38.3790 N   0  0  0  0  0  0  0  0  0  0  0  0
   42.9440   22.5380   35.9970 C   0  0  0  0  0  0  0  0  0  0  0  0
   41.8880   22.9490   36.8180 C   0  0  0  0  0  0  0  0  0  0  0  0
   40.5890   22.6900   36.3750 C   0  0  0  0  0  0  0  0  0  0  0  0
   40.4150   22.0480   35.1590 N   0  0  0  0  0  0  0  0  0  0  0  0
   41.4640   21.6830   34.4260 C   0  0  0  0  0  0  0  0  0  0  0  0
   42.7110   21.9180   34.8260 N   0  0  0  0  0  0  0  0  0  0  0  0
   38.6860   25.0950   35.8340 N   0  0  0  0  0  0  0  0  0  0  0  0
   39.5990   25.5140   34.7880 C   0  0  0  0  0  0  0  0  0  0  0  0
   39.6550   27.0160   35.0890 C   0  0  0  0  0  0  0  0  0  0  0  0
   38.1570   27.3020   35.1410 C   0  0  0  0  0  0  0  0  0  0  0  0
   37.5690   25.9500   35.4620 C   0  0  0  0  0  0  0  0  0  0  0  0
   37.4806   23.0622   39.7202 H   0  0  0  0  0  0  0  0  0  0  0  0
   39.5017   21.7306   38.8436 H   0  0  0  0  0  0  0  0  0  0  0  0
   43.9807   22.7247   36.3140 H   0  0  0  0  0  0  0  0  0  0  0  0
   42.0739   23.4568   37.7759 H   0  0  0  0  0  0  0  0  0  0  0  0
   41.2959   21.1742   33.4653 H   0  0  0  0  0  0  0  0  0  0  0  0
   39.1952   25.3111   33.7851 H   0  0  0  0  0  0  0  0  0  0  0  0
   40.5719   25.0008   34.7820 H   0  0  0  0  0  0  0  0  0  0  0  0
   40.1492   27.2266   36.0489 H   0  0  0  0  0  0  0  0  0  0  0  0
   40.2289   27.6221   34.3725 H   0  0  0  0  0  0  0  0  0  0  0  0
   37.9205   28.0337   35.9275 H   0  0  0  0  0  0  0  0  0  0  0  0
   37.7644   27.7376   34.2103 H   0  0  0  0  0  0  0  0  0  0  0  0
   36.8583   26.0327   36.2975 H   0  0  0  0  0  0  0  0  0  0  0  0
   37.0208   25.5387   34.6016 H   0  0  0  0  0  0  0  0  0  0  0  0
  1  5  1  0
  2  1  2  0
  2  3  1  0
  3  4  2  0
  5  4  1  0
  6  7  2  0
  8  7  1  0
  8  1  1  0
  9  8  2  0
 10 11  2  0
 10  9  1  0
 11  6  1  0
 12  2  1  0
 13 14  1  0
 13 12  1  0
 14 15  1  0
 15 16  1  0
 16 12  1  0
  4 17  1  0
  5 18  1  0
  6 19  1  0
  7 20  1  0
 10 21  1  0
 13 22  1  0
 13 23  1  0
 14 24  1  0
 14 25  1  0
 15 26  1  0
 15 27  1  0
 16 28  1  0
 16 29  1  0
M  ISO  8  17  14  18   9  19  14  20  14  21  14  22  13  23  13  24  13
M  ISO  5  25  13  26  13  27  13  28  13  29  13
M  END
>  <minimizedAffinity>  (1) 
-4.59729576

>  <minimizedRMSD>  (1) 
1.49005175

$$$$
