
     RDKit          3D

 20 21  0  0  0  0  0  0  0  0999 V2000
   39.4520   22.8780   37.2820 C   0  0  0  0  0  0  0  0  0  0  0  0
   38.6140   23.7100   36.5460 C   0  0  0  0  0  0  0  0  0  0  0  0
   37.6850   24.1720   37.4130 N   0  0  0  0  0  0  0  0  0  0  0  0
   37.9640   23.6340   38.6130 C   0  0  0  0  0  0  0  0  0  0  0  0
   39.0370   22.8370   38.5770 N   0  0  0  0  0  0  0  0  0  0  0  0
   42.5400   20.8190   37.0140 C   0  0  0  0  0  0  0  0  0  0  0  0
   41.4540   21.4890   37.5790 C   0  0  0  0  0  0  0  0  0  0  0  0
   40.5840   22.1810   36.7140 C   0  0  0  0  0  0  0  0  0  0  0  0
   40.8810   22.1370   35.3830 N   0  0  0  0  0  0  0  0  0  0  0  0
   41.9250   21.4900   34.8720 C   0  0  0  0  0  0  0  0  0  0  0  0
   42.7450   20.8370   35.6920 N   0  0  0  0  0  0  0  0  0  0  0  0
   38.5820   24.1190   35.1550 C   0  0  0  0  0  0  0  0  0  0  0  0
   37.9590   23.5290   34.2400 O   0  0  0  0  0  0  0  0  0  0  0  0
   39.1630   25.1700   34.4790 O   0  0  0  0  0  0  0  0  0  0  0  0
   37.3758   23.8277   39.5221 H   0  0  0  0  0  0  0  0  0  0  0  0
   39.4560   22.3095   39.3561 H   0  0  0  0  0  0  0  0  0  0  0  0
   43.2365   20.2690   37.6639 H   0  0  0  0  0  0  0  0  0  0  0  0
   41.2828   21.4771   38.6655 H   0  0  0  0  0  0  0  0  0  0  0  0
   42.1079   21.4947   33.7873 H   0  0  0  0  0  0  0  0  0  0  0  0
   39.0142   25.2755   33.5060 H   0  0  0  0  0  0  0  0  0  0  0  0
  1  5  1  0
  2  1  2  0
  2  3  1  0
  3  4  2  0
  5  4  1  0
  6  7  2  0
  8  1  1  0
  8  7  1  0
  9  8  2  0
 10  9  1  0
 10 11  2  0
 11  6  1  0
 12  2  1  0
 13 12  2  0
 14 12  1  0
  4 15  1  0
  5 16  1  0
  6 17  1  0
  7 18  1  0
 10 19  1  0
 14 20  1  0
M  ISO  6  15  14  16   9  17  14  18  14  19  14  20   3
M  END
>  <minimizedAffinity>  (1) 
-4.11826897

>  <minimizedRMSD>  (1) 
0.165736437

$$$$
