
     RDKit          3D

 25 25  0  0  0  0  0  0  0  0999 V2000
   38.3580   23.5400   37.2110 C   0  0  0  0  0  0  0  0  0  0  0  0
   41.4600   21.6180   36.2410 C   0  0  0  0  0  0  0  0  0  0  0  0
   40.4710   22.1860   37.0570 C   0  0  0  0  0  0  0  0  0  0  0  0
   39.4350   22.9100   36.4490 C   0  0  0  0  0  0  0  0  0  0  0  0
   39.4270   23.0370   35.0820 N   0  0  0  0  0  0  0  0  0  0  0  0
   40.4120   22.4650   34.3470 C   0  0  0  0  0  0  0  0  0  0  0  0
   41.4130   21.7680   34.8950 N   0  0  0  0  0  0  0  0  0  0  0  0
   42.5210   20.8680   36.9420 C   0  0  0  0  0  0  0  0  0  0  0  0
   43.7580   21.4850   36.7600 F   0  0  0  0  0  0  0  0  0  0  0  0
   42.2360   20.6910   38.2780 F   0  0  0  0  0  0  0  0  0  0  0  0
   42.6090   19.5940   36.3660 F   0  0  0  0  0  0  0  0  0  0  0  0
   38.7660   23.4720   38.6890 C   0  0  0  0  0  0  0  0  0  0  0  0
   38.0840   24.9720   36.8130 C   0  0  0  0  0  0  0  0  0  0  0  0
   37.0720   22.7610   37.0160 C   0  0  0  0  0  0  0  0  0  0  0  0
   40.5070   22.0663   38.1499 H   0  0  0  0  0  0  0  0  0  0  0  0
   40.3868   22.5791   33.2532 H   0  0  0  0  0  0  0  0  0  0  0  0
   37.8783   23.6199   39.3216 H   0  0  0  0  0  0  0  0  0  0  0  0
   39.2084   22.4877   38.9024 H   0  0  0  0  0  0  0  0  0  0  0  0
   39.5037   24.2596   38.9024 H   0  0  0  0  0  0  0  0  0  0  0  0
   37.9662   25.5877   37.7169 H   0  0  0  0  0  0  0  0  0  0  0  0
   38.9253   25.3541   36.2162 H   0  0  0  0  0  0  0  0  0  0  0  0
   37.1610   25.0165   36.2162 H   0  0  0  0  0  0  0  0  0  0  0  0
   36.6469   22.5035   37.9973 H   0  0  0  0  0  0  0  0  0  0  0  0
   36.3527   23.3754   36.4546 H   0  0  0  0  0  0  0  0  0  0  0  0
   37.2834   21.8390   36.4546 H   0  0  0  0  0  0  0  0  0  0  0  0
  1 12  1  0
  2  8  1  0
  2  3  2  0
  4  3  1  0
  4  1  1  0
  5  4  2  0
  6  7  2  0
  6  5  1  0
  7  2  1  0
  8 10  1  0
  9  8  1  0
 11  8  1  0
 13  1  1  0
 14  1  1  0
  3 15  1  0
  6 16  1  0
 12 17  1  0
 12 18  1  0
 12 19  1  0
 13 20  1  0
 13 21  1  0
 13 22  1  0
 14 23  1  0
 14 24  1  0
 14 25  1  0
M  ISO  8  15  14  16  14  17   8  18   8  19   8  20   8  21   8  22   8
M  ISO  3  23   8  24   8  25   8
M  END
>  <minimizedAffinity>  (1) 
-3.82667112

>  <minimizedRMSD>  (1) 
0.812208116

$$$$
