
     RDKit          3D

 22 24  0  0  0  0  0  0  0  0999 V2000
   39.4420   22.8840   37.2550 C   0  0  0  0  0  0  0  0  0  0  0  0
   38.5890   23.6800   36.5160 C   0  0  0  0  0  0  0  0  0  0  0  0
   37.6670   24.1310   37.4350 N   0  0  0  0  0  0  0  0  0  0  0  0
   37.9820   23.6150   38.6300 C   0  0  0  0  0  0  0  0  0  0  0  0
   39.0540   22.8520   38.5630 N   0  0  0  0  0  0  0  0  0  0  0  0
   42.5440   20.8060   37.0290 C   0  0  0  0  0  0  0  0  0  0  0  0
   41.4460   21.4820   37.5690 C   0  0  0  0  0  0  0  0  0  0  0  0
   40.5900   22.1790   36.6960 C   0  0  0  0  0  0  0  0  0  0  0  0
   40.8890   22.1500   35.3650 N   0  0  0  0  0  0  0  0  0  0  0  0
   41.9490   21.4910   34.8790 C   0  0  0  0  0  0  0  0  0  0  0  0
   42.7770   20.8200   35.7000 N   0  0  0  0  0  0  0  0  0  0  0  0
   38.5550   24.0450   35.1130 C   0  0  0  0  0  0  0  0  0  0  0  0
   39.0960   25.0410   34.4020 N   0  0  0  0  0  0  0  0  0  0  0  0
   38.7820   24.9570   33.1420 O   0  0  0  0  0  0  0  0  0  0  0  0
   38.0280   23.9170   32.9520 C   0  0  0  0  0  0  0  0  0  0  0  0
   37.8940   23.3620   34.1640 N   0  0  0  0  0  0  0  0  0  0  0  0
   37.4155   23.8048   39.5536 H   0  0  0  0  0  0  0  0  0  0  0  0
   39.5042   22.3396   39.3348 H   0  0  0  0  0  0  0  0  0  0  0  0
   43.2256   20.2565   37.6949 H   0  0  0  0  0  0  0  0  0  0  0  0
   41.2553   21.4694   38.6523 H   0  0  0  0  0  0  0  0  0  0  0  0
   42.1447   21.4985   33.7966 H   0  0  0  0  0  0  0  0  0  0  0  0
   37.5942   23.5680   32.0033 H   0  0  0  0  0  0  0  0  0  0  0  0
  1  5  1  0
  2  1  2  0
  2  3  1  0
  3  4  2  0
  5  4  1  0
  6  7  2  0
  8  1  1  0
  8  7  1  0
  9  8  2  0
 10  9  1  0
 10 11  2  0
 11  6  1  0
 12  2  1  0
 13 12  2  0
 14 13  1  0
 15 14  1  0
 15 16  2  0
 16 12  1  0
  4 17  1  0
  5 18  1  0
  6 19  1  0
  7 20  1  0
 10 21  1  0
 15 22  1  0
M  ISO  6  17  14  18   9  19  14  20  14  21  14  22  14
M  END
>  <minimizedAffinity>  (1) 
-4.43974113

>  <minimizedRMSD>  (1) 
0.541249454

$$$$
