
     RDKit          3D

 26 27  0  0  0  0  0  0  0  0999 V2000
   39.6630   23.0680   37.4860 C   0  0  0  0  0  0  0  0  0  0  0  0
   38.8690   23.8840   36.6910 C   0  0  0  0  0  0  0  0  0  0  0  0
   37.7180   24.0530   37.4180 N   0  0  0  0  0  0  0  0  0  0  0  0
   37.8520   23.3670   38.5670 C   0  0  0  0  0  0  0  0  0  0  0  0
   39.0170   22.7600   38.6410 N   0  0  0  0  0  0  0  0  0  0  0  0
   42.6460   20.8820   36.9750 C   0  0  0  0  0  0  0  0  0  0  0  0
   41.3600   21.2860   37.3480 C   0  0  0  0  0  0  0  0  0  0  0  0
   41.0050   22.6190   37.1040 C   0  0  0  0  0  0  0  0  0  0  0  0
   41.9320   23.4520   36.5190 N   0  0  0  0  0  0  0  0  0  0  0  0
   43.1450   23.0060   36.1840 C   0  0  0  0  0  0  0  0  0  0  0  0
   43.5060   21.7350   36.4080 N   0  0  0  0  0  0  0  0  0  0  0  0
   39.1190   24.4770   35.3670 C   0  0  0  0  0  0  0  0  0  0  0  0
   38.7340   25.9600   35.4270 C   0  0  0  0  0  0  0  0  0  0  0  0
   38.1850   23.7970   34.3640 C   0  0  0  0  0  0  0  0  0  0  0  0
   37.0810   23.3192   39.3501 H   0  0  0  0  0  0  0  0  0  0  0  0
   39.3662   22.1741   39.4128 H   0  0  0  0  0  0  0  0  0  0  0  0
   42.9564   19.8416   37.1516 H   0  0  0  0  0  0  0  0  0  0  0  0
   40.6541   20.5836   37.8153 H   0  0  0  0  0  0  0  0  0  0  0  0
   43.8623   23.6955   35.7148 H   0  0  0  0  0  0  0  0  0  0  0  0
   40.1732   24.3545   35.0778 H   0  0  0  0  0  0  0  0  0  0  0  0
   38.6521   26.2753   36.4776 H   0  0  0  0  0  0  0  0  0  0  0  0
   39.5062   26.5600   34.9232 H   0  0  0  0  0  0  0  0  0  0  0  0
   37.7675   26.1086   34.9232 H   0  0  0  0  0  0  0  0  0  0  0  0
   37.4115   23.2339   34.9068 H   0  0  0  0  0  0  0  0  0  0  0  0
   37.7073   24.5602   33.7321 H   0  0  0  0  0  0  0  0  0  0  0  0
   38.7646   23.1080   33.7321 H   0  0  0  0  0  0  0  0  0  0  0  0
  1  5  1  0
  2  3  1  0
  2  1  2  0
  3  4  2  0
  4  5  1  0
  6  7  2  0
  8  7  1  0
  8  1  1  0
  9  8  2  0
 10 11  2  0
 10  9  1  0
 11  6  1  0
 12 13  1  0
 12  2  1  0
 14 12  1  0
  4 15  1  0
  5 16  1  0
  6 17  1  0
  7 18  1  0
 10 19  1  0
 12 20  1  0
 13 21  1  0
 13 22  1  0
 13 23  1  0
 14 24  1  0
 14 25  1  0
 14 26  1  0
M  ISO  8  15  14  16   9  17  14  18  14  19  14  20   8  21   8  22   8
M  ISO  4  23   8  24   8  25   8  26   8
M  END
>  <minimizedAffinity>  (1) 
-4.22952604

>  <minimizedRMSD>  (1) 
1.23086596

$$$$
