
     RDKit          3D

 20 21  0  0  0  0  0  0  0  0999 V2000
   39.4270   22.9660   37.2440 C   0  0  0  0  0  0  0  0  0  0  0  0
   38.8460   24.1160   36.7310 C   0  0  0  0  0  0  0  0  0  0  0  0
   37.8710   24.4400   37.6310 N   0  0  0  0  0  0  0  0  0  0  0  0
   37.8890   23.5240   38.6130 C   0  0  0  0  0  0  0  0  0  0  0  0
   38.8220   22.6190   38.4050 N   0  0  0  0  0  0  0  0  0  0  0  0
   42.6270   21.1060   36.7560 C   0  0  0  0  0  0  0  0  0  0  0  0
   41.5860   21.7860   37.3960 C   0  0  0  0  0  0  0  0  0  0  0  0
   40.5350   22.2480   36.6040 C   0  0  0  0  0  0  0  0  0  0  0  0
   40.5810   22.0130   35.2500 N   0  0  0  0  0  0  0  0  0  0  0  0
   41.6020   21.3540   34.6820 C   0  0  0  0  0  0  0  0  0  0  0  0
   42.6100   20.9100   35.4340 N   0  0  0  0  0  0  0  0  0  0  0  0
   39.1870   24.8460   35.4910 C   0  0  0  0  0  0  0  0  0  0  0  0
   38.5900   26.1050   35.5270 F   0  0  0  0  0  0  0  0  0  0  0  0
   40.5450   25.0290   35.4380 F   0  0  0  0  0  0  0  0  0  0  0  0
   38.7620   24.1340   34.3850 F   0  0  0  0  0  0  0  0  0  0  0  0
   37.2114   23.5293   39.4795 H   0  0  0  0  0  0  0  0  0  0  0  0
   39.0463   21.8113   39.0035 H   0  0  0  0  0  0  0  0  0  0  0  0
   43.4722   20.7269   37.3493 H   0  0  0  0  0  0  0  0  0  0  0  0
   41.5957   21.9504   38.4836 H   0  0  0  0  0  0  0  0  0  0  0  0
   41.6079   21.1798   33.5959 H   0  0  0  0  0  0  0  0  0  0  0  0
  1  5  1  0
  2  1  2  0
  2  3  1  0
  3  4  2  0
  5  4  1  0
  6  7  2  0
  8  1  1  0
  8  7  1  0
  9  8  2  0
 10  9  1  0
 10 11  2  0
 11  6  1  0
 12 13  1  0
 12  2  1  0
 14 12  1  0
 15 12  1  0
  4 16  1  0
  5 17  1  0
  6 18  1  0
  7 19  1  0
 10 20  1  0
M  ISO  5  16  14  17   9  18  14  19  14  20  14
M  END
>  <minimizedAffinity>  (1) 
-4.07743311

>  <minimizedRMSD>  (1) 
0.802753925

$$$$
