
     RDKit          3D

 41 45  0  0  0  0  0  0  0  0999 V2000
   39.2150   24.2910   35.0840 C   0  0  0  0  0  0  0  0  0  0  0  0
   40.1160   25.3290   35.0310 C   0  0  0  0  0  0  0  0  0  0  0  0
   40.4730   25.8780   33.8060 C   0  0  0  0  0  0  0  0  0  0  0  0
   39.9250   25.3850   32.6250 C   0  0  0  0  0  0  0  0  0  0  0  0
   39.0240   24.3410   32.7180 C   0  0  0  0  0  0  0  0  0  0  0  0
   38.6550   23.7820   33.9200 C   0  0  0  0  0  0  0  0  0  0  0  0
   37.7050   22.6800   34.0560 C   0  0  0  0  0  0  0  0  0  0  0  0
   37.5360   22.0220   35.2620 C   0  0  0  0  0  0  0  0  0  0  0  0
   36.6140   21.0600   35.1140 N   0  0  0  0  0  0  0  0  0  0  0  0
   36.1540   21.0490   33.8410 C   0  0  0  0  0  0  0  0  0  0  0  0
   35.2220   20.2790   33.1740 C   0  0  0  0  0  0  0  0  0  0  0  0
   35.0080   20.5720   31.8240 C   0  0  0  0  0  0  0  0  0  0  0  0
   35.6910   21.5790   31.1770 C   0  0  0  0  0  0  0  0  0  0  0  0
   36.6280   22.3490   31.8610 C   0  0  0  0  0  0  0  0  0  0  0  0
   36.8330   22.0560   33.1870 C   0  0  0  0  0  0  0  0  0  0  0  0
   39.5720   22.8220   37.1600 C   0  0  0  0  0  0  0  0  0  0  0  0
   38.9190   23.8010   36.4150 C   0  0  0  0  0  0  0  0  0  0  0  0
   37.9110   24.2210   37.2160 N   0  0  0  0  0  0  0  0  0  0  0  0
   37.9600   23.5360   38.3620 C   0  0  0  0  0  0  0  0  0  0  0  0
   38.9560   22.6770   38.3660 N   0  0  0  0  0  0  0  0  0  0  0  0
   42.6440   20.7360   37.1450 C   0  0  0  0  0  0  0  0  0  0  0  0
   41.5470   21.4310   37.6370 C   0  0  0  0  0  0  0  0  0  0  0  0
   40.7450   22.0710   36.6990 C   0  0  0  0  0  0  0  0  0  0  0  0
   41.0740   21.9850   35.3510 N   0  0  0  0  0  0  0  0  0  0  0  0
   42.1630   21.2850   34.9540 C   0  0  0  0  0  0  0  0  0  0  0  0
   42.9460   20.6640   35.8350 N   0  0  0  0  0  0  0  0  0  0  0  0
   40.5541   25.7246   35.9592 H   0  0  0  0  0  0  0  0  0  0  0  0
   41.1938   26.7081   33.7688 H   0  0  0  0  0  0  0  0  0  0  0  0
   40.2001   25.8125   31.6495 H   0  0  0  0  0  0  0  0  0  0  0  0
   38.5837   23.9405   31.7929 H   0  0  0  0  0  0  0  0  0  0  0  0
   38.0730   22.2519   36.1941 H   0  0  0  0  0  0  0  0  0  0  0  0
   36.3013   20.4224   35.8600 H   0  0  0  0  0  0  0  0  0  0  0  0
   34.6731   19.4721   33.6816 H   0  0  0  0  0  0  0  0  0  0  0  0
   34.2715   19.9803   31.2606 H   0  0  0  0  0  0  0  0  0  0  0  0
   35.4946   21.7759   30.1127 H   0  0  0  0  0  0  0  0  0  0  0  0
   37.1807   23.1577   31.3605 H   0  0  0  0  0  0  0  0  0  0  0  0
   37.2565   23.6731   39.1965 H   0  0  0  0  0  0  0  0  0  0  0  0
   39.2160   22.0294   39.1236 H   0  0  0  0  0  0  0  0  0  0  0  0
   43.2989   20.2185   37.8614 H   0  0  0  0  0  0  0  0  0  0  0  0
   41.3241   21.4729   38.7134 H   0  0  0  0  0  0  0  0  0  0  0  0
   42.4060   21.2280   33.8827 H   0  0  0  0  0  0  0  0  0  0  0  0
  1 17  1  0
  2  1  2  0
  3  2  1  0
  4  5  1  0
  4  3  2  0
  5  6  2  0
  6  7  1  0
  6  1  1  0
  7  8  2  0
  9  8  1  0
 10  9  1  0
 11 10  2  0
 12 11  1  0
 13 12  2  0
 13 14  1  0
 14 15  2  0
 15 10  1  0
 15  7  1  0
 16 20  1  0
 17 16  2  0
 17 18  1  0
 18 19  2  0
 19 20  1  0
 21 22  2  0
 23 16  1  0
 23 22  1  0
 24 23  2  0
 25 24  1  0
 25 26  2  0
 26 21  1  0
  2 27  1  0
  3 28  1  0
  4 29  1  0
  5 30  1  0
  8 31  1  0
  9 32  1  0
 11 33  1  0
 12 34  1  0
 13 35  1  0
 14 36  1  0
 19 37  1  0
 20 38  1  0
 21 39  1  0
 22 40  1  0
 25 41  1  0
M  ISO  8  27  14  28  14  29  14  30  14  31  14  32   9  33  14  34  14
M  ISO  7  35  14  36  14  37  14  38   9  39  14  40  14  41  14
M  END
>  <minimizedAffinity>  (1) 
-6.48260164

>  <minimizedRMSD>  (1) 
1.46945679

$$$$
