
     RDKit          3D

 43 46  0  0  0  0  0  0  0  0999 V2000
   39.4880   23.1760   37.2400 C   0  0  0  0  0  0  0  0  0  0  0  0
   38.6960   24.0900   36.5510 C   0  0  0  0  0  0  0  0  0  0  0  0
   37.5470   24.1510   37.2740 N   0  0  0  0  0  0  0  0  0  0  0  0
   37.6480   23.3260   38.3260 C   0  0  0  0  0  0  0  0  0  0  0  0
   38.8090   22.7170   38.3400 N   0  0  0  0  0  0  0  0  0  0  0  0
   38.9930   24.8300   35.3440 C   0  0  0  0  0  0  0  0  0  0  0  0
   39.4710   26.1180   35.5610 C   0  0  0  0  0  0  0  0  0  0  0  0
   39.7900   26.9230   34.4820 C   0  0  0  0  0  0  0  0  0  0  0  0
   39.6370   26.4530   33.1730 C   0  0  0  0  0  0  0  0  0  0  0  0
   39.1540   25.1510   33.0030 C   0  0  0  0  0  0  0  0  0  0  0  0
   38.8280   24.3300   34.0710 C   0  0  0  0  0  0  0  0  0  0  0  0
   38.3040   22.9610   33.8590 C   0  0  0  0  0  0  0  0  0  0  0  0
   39.3340   21.9260   33.5760 C   0  0  0  0  0  0  0  0  0  0  0  0
   38.9090   20.8840   32.5950 C   0  0  0  0  0  0  0  0  0  0  0  0
   37.4640   20.5260   32.6300 C   0  0  0  0  0  0  0  0  0  0  0  0
   36.5190   21.6490   32.8880 C   0  0  0  0  0  0  0  0  0  0  0  0
   37.2020   22.9800   32.7930 C   0  0  0  0  0  0  0  0  0  0  0  0
   42.5770   21.1580   36.7370 C   0  0  0  0  0  0  0  0  0  0  0  0
   41.2800   21.4970   37.1400 C   0  0  0  0  0  0  0  0  0  0  0  0
   40.8340   22.7690   36.8500 C   0  0  0  0  0  0  0  0  0  0  0  0
   41.6740   23.6290   36.1870 N   0  0  0  0  0  0  0  0  0  0  0  0
   42.9290   23.2470   35.8170 C   0  0  0  0  0  0  0  0  0  0  0  0
   43.3740   22.0290   36.0890 N   0  0  0  0  0  0  0  0  0  0  0  0
   36.8597   23.1792   39.0790 H   0  0  0  0  0  0  0  0  0  0  0  0
   39.1429   22.0338   39.0347 H   0  0  0  0  0  0  0  0  0  0  0  0
   39.5950   26.4952   36.5868 H   0  0  0  0  0  0  0  0  0  0  0  0
   40.1673   27.9417   34.6547 H   0  0  0  0  0  0  0  0  0  0  0  0
   39.8876   27.0849   32.3082 H   0  0  0  0  0  0  0  0  0  0  0  0
   39.0280   24.7636   31.9812 H   0  0  0  0  0  0  0  0  0  0  0  0
   37.8782   22.6480   34.8238 H   0  0  0  0  0  0  0  0  0  0  0  0
   40.2271   22.4296   33.1775 H   0  0  0  0  0  0  0  0  0  0  0  0
   39.5233   21.4041   34.5256 H   0  0  0  0  0  0  0  0  0  0  0  0
   39.4897   19.9716   32.7959 H   0  0  0  0  0  0  0  0  0  0  0  0
   39.0911   21.3132   31.5987 H   0  0  0  0  0  0  0  0  0  0  0  0
   37.2032   20.0834   31.6573 H   0  0  0  0  0  0  0  0  0  0  0  0
   37.3490   19.8398   33.4820 H   0  0  0  0  0  0  0  0  0  0  0  0
   35.7081   21.6104   32.1457 H   0  0  0  0  0  0  0  0  0  0  0  0
   36.1241   21.5378   33.9086 H   0  0  0  0  0  0  0  0  0  0  0  0
   37.6390   23.1158   31.7927 H   0  0  0  0  0  0  0  0  0  0  0  0
   36.4973   23.8091   32.9539 H   0  0  0  0  0  0  0  0  0  0  0  0
   42.9569   20.1492   36.9563 H   0  0  0  0  0  0  0  0  0  0  0  0
   40.6401   20.7751   37.6686 H   0  0  0  0  0  0  0  0  0  0  0  0
   43.5797   23.9579   35.2866 H   0  0  0  0  0  0  0  0  0  0  0  0
  1  5  1  0
  2  1  2  0
  2  3  1  0
  3  4  2  0
  4  5  1  0
  6  7  2  0
  6  2  1  0
  8  7  1  0
  9  8  2  0
 10  9  1  0
 10 11  2  0
 11  6  1  0
 12 11  1  0
 13 12  1  0
 14 15  1  0
 14 13  1  0
 15 16  1  0
 17 16  1  0
 17 12  1  0
 18 19  2  0
 20 19  1  0
 20  1  1  0
 21 20  2  0
 22 23  2  0
 22 21  1  0
 23 18  1  0
  4 24  1  0
  5 25  1  0
  7 26  1  0
  8 27  1  0
  9 28  1  0
 10 29  1  0
 12 30  1  0
 13 31  1  0
 13 32  1  0
 14 33  1  0
 14 34  1  0
 15 35  1  0
 15 36  1  0
 16 37  1  0
 16 38  1  0
 17 39  1  0
 17 40  1  0
 18 41  1  0
 19 42  1  0
 22 43  1  0
M  ISO  8  24  14  25   9  26  14  27  14  28  14  29  14  30  13  31  13
M  ISO  8  32  13  33  13  34  13  35  13  36  13  37  13  38  13  39  13
M  ISO  4  40  13  41  14  42  14  43  14
M  END
>  <minimizedAffinity>  (1) 
-5.48844957

>  <minimizedRMSD>  (1) 
1.44038451

$$$$
