
     RDKit          3D

 35 38  0  0  0  0  0  0  0  0999 V2000
   39.1350   24.1990   35.0920 C   0  0  0  0  0  0  0  0  0  0  0  0
   40.0410   25.2150   34.9390 C   0  0  0  0  0  0  0  0  0  0  0  0
   40.3380   25.6990   33.6720 C   0  0  0  0  0  0  0  0  0  0  0  0
   39.7210   25.1590   32.5400 C   0  0  0  0  0  0  0  0  0  0  0  0
   38.8090   24.1340   32.7310 C   0  0  0  0  0  0  0  0  0  0  0  0
   38.5010   23.6390   33.9820 C   0  0  0  0  0  0  0  0  0  0  0  0
   39.5920   22.8290   37.2080 C   0  0  0  0  0  0  0  0  0  0  0  0
   38.9050   23.7760   36.4610 C   0  0  0  0  0  0  0  0  0  0  0  0
   37.9500   24.2330   37.2950 N   0  0  0  0  0  0  0  0  0  0  0  0
   38.0560   23.6000   38.4720 C   0  0  0  0  0  0  0  0  0  0  0  0
   39.0410   22.7410   38.4570 N   0  0  0  0  0  0  0  0  0  0  0  0
   42.6290   20.6660   37.1410 C   0  0  0  0  0  0  0  0  0  0  0  0
   41.5500   21.3990   37.6350 C   0  0  0  0  0  0  0  0  0  0  0  0
   40.7380   22.0460   36.7230 C   0  0  0  0  0  0  0  0  0  0  0  0
   41.0280   21.9390   35.3800 N   0  0  0  0  0  0  0  0  0  0  0  0
   42.0810   21.2190   34.9510 C   0  0  0  0  0  0  0  0  0  0  0  0
   42.8800   20.5850   35.8180 N   0  0  0  0  0  0  0  0  0  0  0  0
   37.5400   22.5610   34.2000 C   0  0  0  0  0  0  0  0  0  0  0  0
   36.8270   22.0580   33.1110 C   0  0  0  0  0  0  0  0  0  0  0  0
   35.8990   21.0430   33.2220 C   0  0  0  0  0  0  0  0  0  0  0  0
   35.6450   20.4900   34.4140 N   0  0  0  0  0  0  0  0  0  0  0  0
   36.3460   20.9890   35.4740 C   0  0  0  0  0  0  0  0  0  0  0  0
   37.2650   21.9850   35.4030 N   0  0  0  0  0  0  0  0  0  0  0  0
   40.5342   25.6482   35.8217 H   0  0  0  0  0  0  0  0  0  0  0  0
   41.0661   26.5156   33.5579 H   0  0  0  0  0  0  0  0  0  0  0  0
   39.9517   25.5350   31.5323 H   0  0  0  0  0  0  0  0  0  0  0  0
   38.3113   23.6980   31.8522 H   0  0  0  0  0  0  0  0  0  0  0  0
   37.4002   23.7799   39.3367 H   0  0  0  0  0  0  0  0  0  0  0  0
   39.3404   22.1252   39.2264 H   0  0  0  0  0  0  0  0  0  0  0  0
   43.2905   20.1419   37.8465 H   0  0  0  0  0  0  0  0  0  0  0  0
   41.3519   21.4601   38.7153 H   0  0  0  0  0  0  0  0  0  0  0  0
   42.2880   21.1505   33.8728 H   0  0  0  0  0  0  0  0  0  0  0  0
   37.0136   22.4911   32.1172 H   0  0  0  0  0  0  0  0  0  0  0  0
   35.3662   20.6872   32.3279 H   0  0  0  0  0  0  0  0  0  0  0  0
   36.1505   20.5492   36.4631 H   0  0  0  0  0  0  0  0  0  0  0  0
  1  8  1  0
  2  1  2  0
  3  2  1  0
  4  5  1  0
  4  3  2  0
  5  6  2  0
  6 18  1  0
  6  1  1  0
  7 11  1  0
  8  7  2  0
  8  9  1  0
  9 10  2  0
 11 10  1  0
 12 13  2  0
 14  7  1  0
 14 13  1  0
 15 14  2  0
 16 15  1  0
 16 17  2  0
 17 12  1  0
 18 23  2  0
 19 20  2  0
 19 18  1  0
 20 21  1  0
 21 22  2  0
 23 22  1  0
  2 24  1  0
  3 25  1  0
  4 26  1  0
  5 27  1  0
 10 28  1  0
 11 29  1  0
 12 30  1  0
 13 31  1  0
 16 32  1  0
 19 33  1  0
 20 34  1  0
 22 35  1  0
M  ISO  8  24  14  25  14  26  14  27  14  28  14  29   9  30  14  31  14
M  ISO  4  32  14  33  14  34  14  35  14
M  END
>  <minimizedAffinity>  (1) 
-5.47592402

>  <minimizedRMSD>  (1) 
0.513404727

$$$$
