
     RDKit          3D

 30 32  0  0  0  0  0  0  0  0999 V2000
   39.4770   23.1120   37.4420 C   0  0  0  0  0  0  0  0  0  0  0  0
   38.6560   24.0140   36.7790 C   0  0  0  0  0  0  0  0  0  0  0  0
   37.5280   24.0860   37.5300 N   0  0  0  0  0  0  0  0  0  0  0  0
   37.6700   23.2690   38.5830 C   0  0  0  0  0  0  0  0  0  0  0  0
   38.8430   22.6580   38.5660 N   0  0  0  0  0  0  0  0  0  0  0  0
   38.9080   24.7450   35.5520 C   0  0  0  0  0  0  0  0  0  0  0  0
   39.1830   26.0840   35.7210 C   0  0  0  0  0  0  0  0  0  0  0  0
   39.4400   26.8840   34.6210 C   0  0  0  0  0  0  0  0  0  0  0  0
   39.4220   26.3460   33.3280 C   0  0  0  0  0  0  0  0  0  0  0  0
   39.1380   24.9840   33.1920 C   0  0  0  0  0  0  0  0  0  0  0  0
   38.8850   24.1970   34.2890 C   0  0  0  0  0  0  0  0  0  0  0  0
   38.5920   22.7900   34.1500 C   0  0  0  0  0  0  0  0  0  0  0  0
   37.4180   22.3350   34.0830 O   0  0  0  0  0  0  0  0  0  0  0  0
   39.5880   21.8340   34.0780 O   0  0  0  0  0  0  0  0  0  0  0  0
   42.5930   21.1440   36.9450 C   0  0  0  0  0  0  0  0  0  0  0  0
   41.3140   21.4800   37.3920 C   0  0  0  0  0  0  0  0  0  0  0  0
   40.8130   22.7110   37.0000 C   0  0  0  0  0  0  0  0  0  0  0  0
   41.5790   23.5330   36.2070 N   0  0  0  0  0  0  0  0  0  0  0  0
   42.8210   23.1420   35.8070 C   0  0  0  0  0  0  0  0  0  0  0  0
   43.3240   21.9580   36.1730 N   0  0  0  0  0  0  0  0  0  0  0  0
   36.9075   23.1249   39.3627 H   0  0  0  0  0  0  0  0  0  0  0  0
   39.2035   21.9821   39.2546 H   0  0  0  0  0  0  0  0  0  0  0  0
   39.1984   26.5182   36.7315 H   0  0  0  0  0  0  0  0  0  0  0  0
   39.6604   27.9522   34.7637 H   0  0  0  0  0  0  0  0  0  0  0  0
   39.6247   26.9746   32.4483 H   0  0  0  0  0  0  0  0  0  0  0  0
   39.1167   24.5344   32.1883 H   0  0  0  0  0  0  0  0  0  0  0  0
   39.3503   20.8777   33.9828 H   0  0  0  0  0  0  0  0  0  0  0  0
   43.0170   20.1724   37.2385 H   0  0  0  0  0  0  0  0  0  0  0  0
   40.7298   20.7979   38.0272 H   0  0  0  0  0  0  0  0  0  0  0  0
   43.4204   23.8113   35.1723 H   0  0  0  0  0  0  0  0  0  0  0  0
  1  5  1  0
  2  1  2  0
  2  3  1  0
  3  4  2  0
  5  4  1  0
  6  7  2  0
  6  2  1  0
  8  7  1  0
  9  8  2  0
 10  9  1  0
 10 11  2  0
 11  6  1  0
 12 11  1  0
 13 12  2  0
 14 12  1  0
 15 16  2  0
 17 16  1  0
 17  1  1  0
 18 17  2  0
 19 20  2  0
 19 18  1  0
 20 15  1  0
  4 21  1  0
  5 22  1  0
  7 23  1  0
  8 24  1  0
  9 25  1  0
 10 26  1  0
 14 27  1  0
 15 28  1  0
 16 29  1  0
 19 30  1  0
M  ISO  8  21  14  22   9  23  14  24  14  25  14  26  14  27   3  28  14
M  ISO  2  29  14  30  14
M  END
>  <minimizedAffinity>  (1) 
-5.10367918

>  <minimizedRMSD>  (1) 
1.2172904

$$$$
