
     RDKit          3D

 34 36  0  0  0  0  0  0  0  0999 V2000
   38.8580   24.5760   35.3120 C   0  0  0  0  0  0  0  0  0  0  0  0
   39.5120   25.7810   35.3570 C   0  0  0  0  0  0  0  0  0  0  0  0
   39.7450   26.4750   34.1880 C   0  0  0  0  0  0  0  0  0  0  0  0
   39.3310   25.9750   32.9720 C   0  0  0  0  0  0  0  0  0  0  0  0
   38.6780   24.7610   32.9760 C   0  0  0  0  0  0  0  0  0  0  0  0
   38.4180   24.0270   34.1040 C   0  0  0  0  0  0  0  0  0  0  0  0
   37.7650   22.7730   34.1570 N   0  0  0  0  0  0  0  0  0  0  0  0
   37.2100   22.1440   33.0090 C   0  0  0  0  0  0  0  0  0  0  0  0
   36.4350   22.8510   32.2650 N   0  0  0  0  0  0  0  0  0  0  0  0
   37.4990   20.7860   32.7100 N   0  0  0  0  0  0  0  0  0  0  0  0
   36.1470   23.8220   32.3780 H   0  0  0  0  0  0  0  0  0  0  0  0
   39.3790   22.9190   37.2160 C   0  0  0  0  0  0  0  0  0  0  0  0
   38.6670   23.9310   36.6160 C   0  0  0  0  0  0  0  0  0  0  0  0
   37.6990   24.2390   37.5110 N   0  0  0  0  0  0  0  0  0  0  0  0
   37.8400   23.4440   38.5830 C   0  0  0  0  0  0  0  0  0  0  0  0
   38.8500   22.6310   38.4370 N   0  0  0  0  0  0  0  0  0  0  0  0
   42.6060   21.0900   36.7990 C   0  0  0  0  0  0  0  0  0  0  0  0
   41.5230   21.7150   37.4310 C   0  0  0  0  0  0  0  0  0  0  0  0
   40.5440   22.2510   36.6060 C   0  0  0  0  0  0  0  0  0  0  0  0
   40.6800   22.1480   35.2290 N   0  0  0  0  0  0  0  0  0  0  0  0
   41.7530   21.5300   34.6920 C   0  0  0  0  0  0  0  0  0  0  0  0
   42.7100   21.0050   35.4620 N   0  0  0  0  0  0  0  0  0  0  0  0
   39.8488   26.1916   36.3203 H   0  0  0  0  0  0  0  0  0  0  0  0
   40.2688   27.4415   34.2267 H   0  0  0  0  0  0  0  0  0  0  0  0
   39.5144   26.5228   32.0359 H   0  0  0  0  0  0  0  0  0  0  0  0
   38.3435   24.3545   32.0102 H   0  0  0  0  0  0  0  0  0  0  0  0
   37.6884   22.2952   35.0663 H   0  0  0  0  0  0  0  0  0  0  0  0
   37.0894   20.3442   31.8746 H   0  0  0  0  0  0  0  0  0  0  0  0
   38.1182   20.2430   33.3285 H   0  0  0  0  0  0  0  0  0  0  0  0
   37.1890   23.4739   39.4692 H   0  0  0  0  0  0  0  0  0  0  0  0
   39.1785   21.9199   39.1058 H   0  0  0  0  0  0  0  0  0  0  0  0
   43.4010   20.6524   37.4207 H   0  0  0  0  0  0  0  0  0  0  0  0
   41.4521   21.7778   38.5269 H   0  0  0  0  0  0  0  0  0  0  0  0
   41.8412   21.4572   33.5980 H   0  0  0  0  0  0  0  0  0  0  0  0
  1  2  2  0
  1 13  1  0
  3  2  1  0
  4  5  1  0
  4  3  2  0
  5  6  2  0
  6  7  1  0
  6  1  1  0
  8  7  1  0
  9 11  1  0
  9  8  2  0
 10  8  1  0
 12 16  1  0
 13 12  2  0
 13 14  1  0
 14 15  2  0
 16 15  1  0
 17 18  2  0
 19 12  1  0
 19 18  1  0
 20 19  2  0
 21 20  1  0
 21 22  2  0
 22 17  1  0
  2 23  1  0
  3 24  1  0
  4 25  1  0
  5 26  1  0
  7 27  1  0
 10 28  1  0
 10 29  1  0
 15 30  1  0
 16 31  1  0
 17 32  1  0
 18 33  1  0
 21 34  1  0
M  ISO  8  23  14  24  14  25  14  26  14  30  14  31   9  32  14  33  14
M  ISO  1  34  14
M  END
>  <minimizedAffinity>  (1) 
-5.1249218

>  <minimizedRMSD>  (1) 
0.618246794

$$$$
