
     RDKit          3D

 30 32  0  0  0  0  0  0  0  0999 V2000
   39.5680   23.1170   37.4780 C   0  0  0  0  0  0  0  0  0  0  0  0
   38.6960   23.9390   36.7710 C   0  0  0  0  0  0  0  0  0  0  0  0
   37.6050   24.0520   37.5680 N   0  0  0  0  0  0  0  0  0  0  0  0
   37.8170   23.3370   38.6860 C   0  0  0  0  0  0  0  0  0  0  0  0
   38.9960   22.7590   38.6640 N   0  0  0  0  0  0  0  0  0  0  0  0
   38.8720   24.5630   35.4660 C   0  0  0  0  0  0  0  0  0  0  0  0
   39.2720   25.8930   35.5160 C   0  0  0  0  0  0  0  0  0  0  0  0
   39.4730   26.5920   34.3520 C   0  0  0  0  0  0  0  0  0  0  0  0
   39.2770   25.9790   33.1110 C   0  0  0  0  0  0  0  0  0  0  0  0
   38.8750   24.6420   33.1100 C   0  0  0  0  0  0  0  0  0  0  0  0
   38.6650   23.9120   34.2730 C   0  0  0  0  0  0  0  0  0  0  0  0
   38.2360   22.5190   34.2560 C   0  0  0  0  0  0  0  0  0  0  0  0
   39.3750   21.7220   34.4240 F   0  0  0  0  0  0  0  0  0  0  0  0
   37.7870   22.2280   32.9660 F   0  0  0  0  0  0  0  0  0  0  0  0
   37.2740   22.1720   35.1400 F   0  0  0  0  0  0  0  0  0  0  0  0
   42.6010   21.0830   36.8040 C   0  0  0  0  0  0  0  0  0  0  0  0
   41.3330   21.4160   37.2770 C   0  0  0  0  0  0  0  0  0  0  0  0
   40.8930   22.7020   37.0150 C   0  0  0  0  0  0  0  0  0  0  0  0
   41.7210   23.5750   36.3100 N   0  0  0  0  0  0  0  0  0  0  0  0
   42.9340   23.1750   35.8870 C   0  0  0  0  0  0  0  0  0  0  0  0
   43.3820   21.9390   36.1270 N   0  0  0  0  0  0  0  0  0  0  0  0
   37.0964   23.2475   39.5123 H   0  0  0  0  0  0  0  0  0  0  0  0
   39.4055   22.1579   39.3933 H   0  0  0  0  0  0  0  0  0  0  0  0
   39.4274   26.3850   36.4875 H   0  0  0  0  0  0  0  0  0  0  0  0
   39.7912   27.6441   34.3960 H   0  0  0  0  0  0  0  0  0  0  0  0
   39.4335   26.5290   32.1713 H   0  0  0  0  0  0  0  0  0  0  0  0
   38.7171   24.1431   32.1425 H   0  0  0  0  0  0  0  0  0  0  0  0
   42.9804   20.0683   36.9950 H   0  0  0  0  0  0  0  0  0  0  0  0
   40.7139   20.6942   37.8299 H   0  0  0  0  0  0  0  0  0  0  0  0
   43.5703   23.8801   35.3320 H   0  0  0  0  0  0  0  0  0  0  0  0
  1  5  1  0
  2  1  2  0
  2  3  1  0
  3  4  2  0
  5  4  1  0
  6  7  2  0
  6  2  1  0
  8  7  1  0
  9  8  2  0
 10  9  1  0
 10 11  2  0
 11  6  1  0
 12 11  1  0
 12 13  1  0
 12 15  1  0
 14 12  1  0
 16 17  2  0
 18 17  1  0
 18  1  1  0
 19 18  2  0
 20 21  2  0
 20 19  1  0
 21 16  1  0
  4 22  1  0
  5 23  1  0
  7 24  1  0
  8 25  1  0
  9 26  1  0
 10 27  1  0
 16 28  1  0
 17 29  1  0
 20 30  1  0
M  ISO  8  22  14  23   9  24  14  25  14  26  14  27  14  28  14  29  14
M  ISO  1  30  14
M  END
>  <minimizedAffinity>  (1) 
-5.15574837

>  <minimizedRMSD>  (1) 
1.13742948

$$$$
