
     RDKit          3D

 33 35  0  0  0  0  0  0  0  0999 V2000
   39.4030   22.8100   37.2450 C   0  0  0  0  0  0  0  0  0  0  0  0
   38.3820   23.3710   36.4960 C   0  0  0  0  0  0  0  0  0  0  0  0
   37.5260   23.8950   37.4070 N   0  0  0  0  0  0  0  0  0  0  0  0
   38.0170   23.6540   38.6320 C   0  0  0  0  0  0  0  0  0  0  0  0
   39.1550   22.9980   38.5710 N   0  0  0  0  0  0  0  0  0  0  0  0
   38.2200   23.4150   35.0500 C   0  0  0  0  0  0  0  0  0  0  0  0
   38.7930   24.5110   34.4360 C   0  0  0  0  0  0  0  0  0  0  0  0
   38.7010   24.6540   33.0670 C   0  0  0  0  0  0  0  0  0  0  0  0
   38.0390   23.7140   32.2830 C   0  0  0  0  0  0  0  0  0  0  0  0
   37.4730   22.6230   32.9330 C   0  0  0  0  0  0  0  0  0  0  0  0
   37.5540   22.4610   34.2950 C   0  0  0  0  0  0  0  0  0  0  0  0
   36.9970   21.3540   35.0870 C   0  0  0  0  0  0  0  0  0  0  0  0
   35.7550   20.7350   34.4800 C   0  0  0  0  0  0  0  0  0  0  0  0
   42.5210   20.7880   36.9620 C   0  0  0  0  0  0  0  0  0  0  0  0
   41.4130   21.4360   37.5350 C   0  0  0  0  0  0  0  0  0  0  0  0
   40.5650   22.1220   36.6910 C   0  0  0  0  0  0  0  0  0  0  0  0
   40.8410   22.1400   35.3270 N   0  0  0  0  0  0  0  0  0  0  0  0
   41.9210   21.4980   34.8380 C   0  0  0  0  0  0  0  0  0  0  0  0
   42.7600   20.8250   35.6300 N   0  0  0  0  0  0  0  0  0  0  0  0
   37.5299   23.9654   39.5678 H   0  0  0  0  0  0  0  0  0  0  0  0
   39.7381   22.6901   39.3622 H   0  0  0  0  0  0  0  0  0  0  0  0
   39.3207   25.2670   35.0360 H   0  0  0  0  0  0  0  0  0  0  0  0
   39.1606   25.5295   32.5850 H   0  0  0  0  0  0  0  0  0  0  0  0
   37.9663   23.8296   31.1915 H   0  0  0  0  0  0  0  0  0  0  0  0
   36.9432   21.8649   32.3375 H   0  0  0  0  0  0  0  0  0  0  0  0
   37.7652   20.5720   35.1789 H   0  0  0  0  0  0  0  0  0  0  0  0
   36.7042   21.7718   36.0615 H   0  0  0  0  0  0  0  0  0  0  0  0
   35.0824   20.3998   35.2832 H   0  0  0  0  0  0  0  0  0  0  0  0
   35.2397   21.4817   33.8580 H   0  0  0  0  0  0  0  0  0  0  0  0
   36.0410   19.8740   33.8580 H   0  0  0  0  0  0  0  0  0  0  0  0
   43.2133   20.2354   37.6142 H   0  0  0  0  0  0  0  0  0  0  0  0
   41.2287   21.3973   38.6188 H   0  0  0  0  0  0  0  0  0  0  0  0
   42.1168   21.5293   33.7560 H   0  0  0  0  0  0  0  0  0  0  0  0
  1  5  1  0
  2  1  2  0
  2  3  1  0
  3  4  2  0
  5  4  1  0
  6  2  1  0
  7  6  2  0
  8  7  1  0
  9 10  1  0
  9  8  2  0
 10 11  2  0
 11  6  1  0
 11 12  1  0
 13 12  1  0
 14 15  2  0
 16  1  1  0
 16 15  1  0
 17 16  2  0
 18 17  1  0
 18 19  2  0
 19 14  1  0
  4 20  1  0
  5 21  1  0
  7 22  1  0
  8 23  1  0
  9 24  1  0
 10 25  1  0
 12 26  1  0
 12 27  1  0
 13 28  1  0
 13 29  1  0
 13 30  1  0
 14 31  1  0
 15 32  1  0
 18 33  1  0
M  ISO  8  20  14  21   9  22  14  23  14  24  14  25  14  26   8  27   8
M  ISO  6  28   8  29   8  30   8  31  14  32  14  33  14
M  END
>  <minimizedAffinity>  (1) 
-4.87699032

>  <minimizedRMSD>  (1) 
0.984004974

$$$$
