
     RDKit          3D

 52 55  0  0  0  0  0  0  0  0999 V2000
   39.6300   22.9390   37.2400 C   0  0  0  0  0  0  0  0  0  0  0  0
   38.7130   23.2530   36.2590 C   0  0  0  0  0  0  0  0  0  0  0  0
   37.5740   23.5350   36.9240 N   0  0  0  0  0  0  0  0  0  0  0  0
   37.8030   23.3970   38.2410 C   0  0  0  0  0  0  0  0  0  0  0  0
   39.0550   23.0310   38.4680 N   0  0  0  0  0  0  0  0  0  0  0  0
   42.7110   20.9030   36.7910 C   0  0  0  0  0  0  0  0  0  0  0  0
   41.3820   21.2250   37.0390 C   0  0  0  0  0  0  0  0  0  0  0  0
   41.0140   22.5630   36.9860 C   0  0  0  0  0  0  0  0  0  0  0  0
   41.9890   23.4950   36.6890 N   0  0  0  0  0  0  0  0  0  0  0  0
   43.2620   23.1340   36.4570 C   0  0  0  0  0  0  0  0  0  0  0  0
   43.6200   21.8490   36.5070 N   0  0  0  0  0  0  0  0  0  0  0  0
   44.2670   24.0950   36.1510 N   0  0  0  0  0  0  0  0  0  0  0  0
   45.5980   23.8370   36.2910 C   0  0  0  0  0  0  0  0  0  0  0  0
   46.5630   24.7660   35.9960 C   0  0  0  0  0  0  0  0  0  0  0  0
   48.0000   24.4100   36.1740 C   0  0  0  0  0  0  0  0  0  0  0  0
   46.0950   25.9830   35.5450 C   0  0  0  0  0  0  0  0  0  0  0  0
   46.9880   26.8550   35.2670 O   0  0  0  0  0  0  0  0  0  0  0  0
   44.8020   26.2650   35.3980 N   0  0  0  0  0  0  0  0  0  0  0  0
   43.8810   25.3090   35.7050 C   0  0  0  0  0  0  0  0  0  0  0  0
   42.6750   25.6520   35.5390 O   0  0  0  0  0  0  0  0  0  0  0  0
   38.8680   23.2900   34.8180 C   0  0  0  0  0  0  0  0  0  0  0  0
   39.1190   22.0750   34.2520 C   0  0  0  0  0  0  0  0  0  0  0  0
   39.2940   21.9180   32.8950 C   0  0  0  0  0  0  0  0  0  0  0  0
   39.2170   23.0090   32.0710 C   0  0  0  0  0  0  0  0  0  0  0  0
   38.9640   24.2190   32.6660 C   0  0  0  0  0  0  0  0  0  0  0  0
   38.7750   24.4500   34.0410 C   0  0  0  0  0  0  0  0  0  0  0  0
   38.5140   25.7280   34.6270 C   0  0  0  0  0  0  0  0  0  0  0  0
   38.5940   26.7050   33.4220 C   0  0  0  0  0  0  0  0  0  0  0  0
   37.3110   26.1000   35.3370 C   0  0  0  0  0  0  0  0  0  0  0  0
   39.7090   26.1190   35.4910 C   0  0  0  0  0  0  0  0  0  0  0  0
   37.0507   23.5656   39.0256 H   0  0  0  0  0  0  0  0  0  0  0  0
   39.4986   22.8538   39.3806 H   0  0  0  0  0  0  0  0  0  0  0  0
   43.0250   19.8494   36.8283 H   0  0  0  0  0  0  0  0  0  0  0  0
   40.6435   20.4433   37.2704 H   0  0  0  0  0  0  0  0  0  0  0  0
   45.9100   22.8467   36.6542 H   0  0  0  0  0  0  0  0  0  0  0  0
   48.2332   24.3522   37.2474 H   0  0  0  0  0  0  0  0  0  0  0  0
   48.1975   23.4358   35.7029 H   0  0  0  0  0  0  0  0  0  0  0  0
   48.6294   25.1794   35.7029 H   0  0  0  0  0  0  0  0  0  0  0  0
   44.5031   27.1902   35.0580 H   0  0  0  0  0  0  0  0  0  0  0  0
   39.1839   21.1898   34.9017 H   0  0  0  0  0  0  0  0  0  0  0  0
   39.4946   20.9213   32.4752 H   0  0  0  0  0  0  0  0  0  0  0  0
   39.3517   22.9194   30.9830 H   0  0  0  0  0  0  0  0  0  0  0  0
   38.9029   25.0946   32.0030 H   0  0  0  0  0  0  0  0  0  0  0  0
   38.6785   27.7374   33.7920 H   0  0  0  0  0  0  0  0  0  0  0  0
   39.4752   26.4614   32.8103 H   0  0  0  0  0  0  0  0  0  0  0  0
   37.6849   26.6080   32.8103 H   0  0  0  0  0  0  0  0  0  0  0  0
   37.4925   26.0439   36.4205 H   0  0  0  0  0  0  0  0  0  0  0  0
   37.0279   27.1277   35.0654 H   0  0  0  0  0  0  0  0  0  0  0  0
   36.4972   25.4115   35.0654 H   0  0  0  0  0  0  0  0  0  0  0  0
   39.4380   26.0303   36.5534 H   0  0  0  0  0  0  0  0  0  0  0  0
   40.5546   25.4507   35.2713 H   0  0  0  0  0  0  0  0  0  0  0  0
   39.9960   27.1579   35.2713 H   0  0  0  0  0  0  0  0  0  0  0  0
  1  5  1  0
  2  3  1  0
  2  1  2  0
  3  4  2  0
  4  5  1  0
  6  7  2  0
  8  7  1  0
  8  1  1  0
  9  8  2  0
 10 11  2  0
 10  9  1  0
 11  6  1  0
 12 13  1  0
 12 10  1  0
 14 15  1  0
 14 13  2  0
 16 14  1  0
 17 16  2  0
 18 16  1  0
 18 19  1  0
 19 12  1  0
 20 19  2  0
 21  2  1  0
 22 21  2  0
 23 22  1  0
 24 25  1  0
 24 23  2  0
 25 26  2  0
 26 27  1  0
 26 21  1  0
 27 29  1  0
 27 30  1  0
 28 27  1  0
  4 31  1  0
  5 32  1  0
  6 33  1  0
  7 34  1  0
 13 35  1  0
 15 36  1  0
 15 37  1  0
 15 38  1  0
 18 39  1  0
 22 40  1  0
 23 41  1  0
 24 42  1  0
 25 43  1  0
 28 44  1  0
 28 45  1  0
 28 46  1  0
 29 47  1  0
 29 48  1  0
 29 49  1  0
 30 50  1  0
 30 51  1  0
 30 52  1  0
M  ISO  8  31  14  32   9  33  14  34  14  35  14  36   8  37   8  38   8
M  ISO  8  39   9  40  14  41  14  42  14  43  14  44   8  45   8  46   8
M  ISO  6  47   8  48   8  49   8  50   8  51   8  52   8
M  END
>  <minimizedAffinity>  (1) 
-6.26469994

>  <minimizedRMSD>  (1) 
3.69539618

$$$$
