
     RDKit          3D

 50 54  0  0  0  0  0  0  0  0999 V2000
   39.5060   22.9650   37.4300 C   0  0  0  0  0  0  0  0  0  0  0  0
   38.4270   23.3300   36.6550 C   0  0  0  0  0  0  0  0  0  0  0  0
   37.4580   23.6630   37.5360 N   0  0  0  0  0  0  0  0  0  0  0  0
   37.9320   23.5050   38.7790 C   0  0  0  0  0  0  0  0  0  0  0  0
   39.1860   23.0780   38.7480 N   0  0  0  0  0  0  0  0  0  0  0  0
   42.5400   20.9160   36.7720 C   0  0  0  0  0  0  0  0  0  0  0  0
   41.3120   21.3020   37.2990 C   0  0  0  0  0  0  0  0  0  0  0  0
   40.7880   22.5260   36.9010 C   0  0  0  0  0  0  0  0  0  0  0  0
   41.5190   23.2860   36.0050 N   0  0  0  0  0  0  0  0  0  0  0  0
   42.7010   22.8660   35.5270 C   0  0  0  0  0  0  0  0  0  0  0  0
   43.2150   21.6930   35.9000 N   0  0  0  0  0  0  0  0  0  0  0  0
   43.4610   23.6340   34.6090 N   0  0  0  0  0  0  0  0  0  0  0  0
   43.6140   23.6150   33.2650 C   0  0  0  0  0  0  0  0  0  0  0  0
   44.4720   24.5790   32.8830 N   0  0  0  0  0  0  0  0  0  0  0  0
   44.8920   25.2430   33.9770 C   0  0  0  0  0  0  0  0  0  0  0  0
   45.7690   26.3100   34.1280 C   0  0  0  0  0  0  0  0  0  0  0  0
   45.9910   26.7620   35.3810 N   0  0  0  0  0  0  0  0  0  0  0  0
   45.3750   26.1830   36.4190 C   0  0  0  0  0  0  0  0  0  0  0  0
   44.5280   25.1570   36.2870 N   0  0  0  0  0  0  0  0  0  0  0  0
   44.2600   24.6500   35.0510 C   0  0  0  0  0  0  0  0  0  0  0  0
   38.2900   23.3720   35.2090 C   0  0  0  0  0  0  0  0  0  0  0  0
   37.9830   22.1600   34.6490 C   0  0  0  0  0  0  0  0  0  0  0  0
   37.8100   21.9980   33.2970 C   0  0  0  0  0  0  0  0  0  0  0  0
   37.9480   23.0830   32.4640 C   0  0  0  0  0  0  0  0  0  0  0  0
   38.2580   24.2980   33.0530 C   0  0  0  0  0  0  0  0  0  0  0  0
   38.4460   24.5170   34.4350 C   0  0  0  0  0  0  0  0  0  0  0  0
   38.7750   25.7930   35.0150 C   0  0  0  0  0  0  0  0  0  0  0  0
   38.2560   26.8080   33.9720 C   0  0  0  0  0  0  0  0  0  0  0  0
   38.2790   26.2580   36.2910 C   0  0  0  0  0  0  0  0  0  0  0  0
   40.2860   25.9630   34.9830 C   0  0  0  0  0  0  0  0  0  0  0  0
   37.3598   23.7023   39.6975 H   0  0  0  0  0  0  0  0  0  0  0  0
   39.7931   22.8738   39.5546 H   0  0  0  0  0  0  0  0  0  0  0  0
   42.9725   19.9509   37.0745 H   0  0  0  0  0  0  0  0  0  0  0  0
   40.7722   20.6582   38.0090 H   0  0  0  0  0  0  0  0  0  0  0  0
   43.1104   22.9136   32.5835 H   0  0  0  0  0  0  0  0  0  0  0  0
   46.2639   26.7693   33.2596 H   0  0  0  0  0  0  0  0  0  0  0  0
   45.5753   26.5700   37.4290 H   0  0  0  0  0  0  0  0  0  0  0  0
   37.8711   21.2852   35.3065 H   0  0  0  0  0  0  0  0  0  0  0  0
   37.5632   21.0089   32.8837 H   0  0  0  0  0  0  0  0  0  0  0  0
   37.8178   22.9903   31.3757 H   0  0  0  0  0  0  0  0  0  0  0  0
   38.3670   25.1665   32.3868 H   0  0  0  0  0  0  0  0  0  0  0  0
   37.8141   27.6722   34.4897 H   0  0  0  0  0  0  0  0  0  0  0  0
   39.0919   27.1461   33.3419 H   0  0  0  0  0  0  0  0  0  0  0  0
   37.4925   26.3283   33.3419 H   0  0  0  0  0  0  0  0  0  0  0  0
   38.8209   25.7499   37.1023 H   0  0  0  0  0  0  0  0  0  0  0  0
   38.4336   27.3442   36.3708 H   0  0  0  0  0  0  0  0  0  0  0  0
   37.2051   26.0337   36.3708 H   0  0  0  0  0  0  0  0  0  0  0  0
   40.6720   26.0064   36.0121 H   0  0  0  0  0  0  0  0  0  0  0  0
   40.7399   25.1103   34.4569 H   0  0  0  0  0  0  0  0  0  0  0  0
   40.5390   26.8953   34.4569 H   0  0  0  0  0  0  0  0  0  0  0  0
  1  5  1  0
  2  1  2  0
  2  3  1  0
  3  4  2  0
  5  4  1  0
  6  7  2  0
  8  7  1  0
  8  1  1  0
  9  8  2  0
 10 11  2  0
 10  9  1  0
 11  6  1  0
 12 20  1  0
 12 10  1  0
 13 12  1  0
 14 13  2  0
 14 15  1  0
 15 16  2  0
 15 20  1  0
 16 17  1  0
 17 18  2  0
 19 18  1  0
 20 19  2  0
 21  2  1  0
 22 21  2  0
 23 22  1  0
 24 25  1  0
 24 23  2  0
 25 26  2  0
 26 27  1  0
 26 21  1  0
 27 29  1  0
 28 27  1  0
 30 27  1  0
  4 31  1  0
  5 32  1  0
  6 33  1  0
  7 34  1  0
 13 35  1  0
 16 36  1  0
 18 37  1  0
 22 38  1  0
 23 39  1  0
 24 40  1  0
 25 41  1  0
 28 42  1  0
 28 43  1  0
 28 44  1  0
 29 45  1  0
 29 46  1  0
 29 47  1  0
 30 48  1  0
 30 49  1  0
 30 50  1  0
M  ISO  8  31  14  32   9  33  14  34  14  35  14  36  14  37  14  38  14
M  ISO  8  39  14  40  14  41  14  42   8  43   8  44   8  45   8  46   8
M  ISO  4  47   8  48   8  49   8  50   8
M  END
>  <minimizedAffinity>  (1) 
-6.49066687

>  <minimizedRMSD>  (1) 
2.34324217

$$$$
