
     RDKit          3D

 46 48  0  0  0  0  0  0  0  0999 V2000
   39.5560   23.0220   37.3350 C   0  0  0  0  0  0  0  0  0  0  0  0
   38.5100   23.3670   36.5140 C   0  0  0  0  0  0  0  0  0  0  0  0
   37.4750   23.6150   37.3450 N   0  0  0  0  0  0  0  0  0  0  0  0
   37.8820   23.4280   38.6080 C   0  0  0  0  0  0  0  0  0  0  0  0
   39.1580   23.0630   38.6380 N   0  0  0  0  0  0  0  0  0  0  0  0
   42.7260   21.1510   36.7780 C   0  0  0  0  0  0  0  0  0  0  0  0
   41.4420   21.4430   37.2290 C   0  0  0  0  0  0  0  0  0  0  0  0
   40.8910   22.6660   36.8880 C   0  0  0  0  0  0  0  0  0  0  0  0
   41.6560   23.5320   36.1140 N   0  0  0  0  0  0  0  0  0  0  0  0
   42.8980   23.2080   35.6980 C   0  0  0  0  0  0  0  0  0  0  0  0
   43.4210   22.0230   36.0320 N   0  0  0  0  0  0  0  0  0  0  0  0
   43.6410   24.1300   34.9060 N   0  0  0  0  0  0  0  0  0  0  0  0
   44.2230   25.2770   35.5260 C   0  0  0  0  0  0  0  0  0  0  0  0
   44.0610   25.5540   36.7880 N   0  0  0  0  0  0  0  0  0  0  0  0
   45.0150   26.1360   34.6780 N   0  0  0  0  0  0  0  0  0  0  0  0
   44.5210   26.4140   37.1590 H   0  0  0  0  0  0  0  0  0  0  0  0
   38.4640   23.4610   35.0630 C   0  0  0  0  0  0  0  0  0  0  0  0
   38.2710   22.2700   34.4390 C   0  0  0  0  0  0  0  0  0  0  0  0
   38.1980   22.1620   33.0720 C   0  0  0  0  0  0  0  0  0  0  0  0
   38.3230   23.2990   32.2850 C   0  0  0  0  0  0  0  0  0  0  0  0
   38.5180   24.4870   32.9500 C   0  0  0  0  0  0  0  0  0  0  0  0
   38.6030   24.6610   34.3520 C   0  0  0  0  0  0  0  0  0  0  0  0
   38.8110   25.9190   35.0080 C   0  0  0  0  0  0  0  0  0  0  0  0
   38.2090   26.9490   34.0180 C   0  0  0  0  0  0  0  0  0  0  0  0
   38.2670   26.2670   36.3000 C   0  0  0  0  0  0  0  0  0  0  0  0
   40.3050   26.2240   34.9970 C   0  0  0  0  0  0  0  0  0  0  0  0
   37.2469   23.5588   39.4966 H   0  0  0  0  0  0  0  0  0  0  0  0
   39.7274   22.8546   39.4706 H   0  0  0  0  0  0  0  0  0  0  0  0
   43.1809   20.1841   37.0390 H   0  0  0  0  0  0  0  0  0  0  0  0
   40.8803   20.7211   37.8400 H   0  0  0  0  0  0  0  0  0  0  0  0
   43.7573   23.9706   33.8951 H   0  0  0  0  0  0  0  0  0  0  0  0
   45.4597   26.9784   35.0699 H   0  0  0  0  0  0  0  0  0  0  0  0
   45.1354   25.9065   33.6811 H   0  0  0  0  0  0  0  0  0  0  0  0
   38.1697   21.3607   35.0497 H   0  0  0  0  0  0  0  0  0  0  0  0
   38.0413   21.1795   32.6028 H   0  0  0  0  0  0  0  0  0  0  0  0
   38.2689   23.2521   31.1873 H   0  0  0  0  0  0  0  0  0  0  0  0
   38.6177   25.3910   32.3312 H   0  0  0  0  0  0  0  0  0  0  0  0
   37.7324   27.7644   34.5819 H   0  0  0  0  0  0  0  0  0  0  0  0
   39.0091   27.3599   33.3848 H   0  0  0  0  0  0  0  0  0  0  0  0
   37.4583   26.4535   33.3848 H   0  0  0  0  0  0  0  0  0  0  0  0
   38.9104   25.8554   37.0917 H   0  0  0  0  0  0  0  0  0  0  0  0
   38.2222   27.3619   36.3961 H   0  0  0  0  0  0  0  0  0  0  0  0
   37.2542   25.8487   36.3961 H   0  0  0  0  0  0  0  0  0  0  0  0
   40.6716   26.2988   36.0314 H   0  0  0  0  0  0  0  0  0  0  0  0
   40.8402   25.4166   34.4758 H   0  0  0  0  0  0  0  0  0  0  0  0
   40.4809   27.1766   34.4758 H   0  0  0  0  0  0  0  0  0  0  0  0
  1  5  1  0
  2  1  2  0
  2  3  1  0
  3  4  2  0
  4  5  1  0
  6  7  2  0
  8  7  1  0
  8  1  1  0
  9  8  2  0
 10 11  2  0
 10  9  1  0
 11  6  1  0
 12 13  1  0
 12 10  1  0
 13 14  2  0
 14 16  1  0
 15 13  1  0
 17  2  1  0
 18 17  2  0
 19 18  1  0
 20 21  1  0
 20 19  2  0
 21 22  2  0
 22 23  1  0
 22 17  1  0
 23 25  1  0
 24 23  1  0
 26 23  1  0
  4 27  1  0
  5 28  1  0
  6 29  1  0
  7 30  1  0
 12 31  1  0
 15 32  1  0
 15 33  1  0
 18 34  1  0
 19 35  1  0
 20 36  1  0
 21 37  1  0
 24 38  1  0
 24 39  1  0
 24 40  1  0
 25 41  1  0
 25 42  1  0
 25 43  1  0
 26 44  1  0
 26 45  1  0
 26 46  1  0
M  ISO  8  27  14  28   9  29  14  30  14  34  14  35  14  36  14  37  14
M  ISO  8  38   8  39   8  40   8  41   8  42   8  43   8  44   8  45   8
M  ISO  1  46   8
M  END
>  <minimizedAffinity>  (1) 
-6.21947527

>  <minimizedRMSD>  (1) 
1.86571348

$$$$
