
     RDKit          3D

 52 55  0  0  0  0  0  0  0  0999 V2000
   38.1250   23.3870   35.1760 C   0  0  0  0  0  0  0  0  0  0  0  0
   37.6660   22.1950   34.6730 C   0  0  0  0  0  0  0  0  0  0  0  0
   37.3720   22.0350   33.3400 C   0  0  0  0  0  0  0  0  0  0  0  0
   37.5410   23.1020   32.4720 C   0  0  0  0  0  0  0  0  0  0  0  0
   38.0010   24.2720   33.0110 C   0  0  0  0  0  0  0  0  0  0  0  0
   38.3210   24.5050   34.3600 C   0  0  0  0  0  0  0  0  0  0  0  0
   39.4510   22.8270   37.3040 C   0  0  0  0  0  0  0  0  0  0  0  0
   38.3780   23.3540   36.6060 C   0  0  0  0  0  0  0  0  0  0  0  0
   37.5660   23.8580   37.5470 N   0  0  0  0  0  0  0  0  0  0  0  0
   38.1100   23.6530   38.7530 C   0  0  0  0  0  0  0  0  0  0  0  0
   39.2710   23.0210   38.6370 N   0  0  0  0  0  0  0  0  0  0  0  0
   42.5430   20.8130   36.8490 C   0  0  0  0  0  0  0  0  0  0  0  0
   41.4630   21.4270   37.4820 C   0  0  0  0  0  0  0  0  0  0  0  0
   40.5930   22.1700   36.6860 C   0  0  0  0  0  0  0  0  0  0  0  0
   40.8530   22.2510   35.3320 N   0  0  0  0  0  0  0  0  0  0  0  0
   41.9100   21.6400   34.7710 C   0  0  0  0  0  0  0  0  0  0  0  0
   42.7540   20.9230   35.5180 N   0  0  0  0  0  0  0  0  0  0  0  0
   42.1030   21.7880   33.2990 C   0  0  0  0  0  0  0  0  0  0  0  0
   41.0540   22.6400   32.6630 C   0  0  0  0  0  0  0  0  0  0  0  0
   41.7120   23.9490   32.2920 C   0  0  0  0  0  0  0  0  0  0  0  0
   43.1930   23.6650   32.2110 C   0  0  0  0  0  0  0  0  0  0  0  0
   43.4360   22.4960   33.1190 C   0  0  0  0  0  0  0  0  0  0  0  0
   38.8010   25.7460   34.8880 C   0  0  0  0  0  0  0  0  0  0  0  0
   38.6430   26.7310   33.7010 C   0  0  0  0  0  0  0  0  0  0  0  0
   38.2620   26.4420   36.0350 C   0  0  0  0  0  0  0  0  0  0  0  0
   40.3100   25.6340   35.0860 C   0  0  0  0  0  0  0  0  0  0  0  0
   37.5296   21.3438   35.3562 H   0  0  0  0  0  0  0  0  0  0  0  0
   37.0056   21.0679   32.9652 H   0  0  0  0  0  0  0  0  0  0  0  0
   37.3156   23.0122   31.3991 H   0  0  0  0  0  0  0  0  0  0  0  0
   38.1341   25.1163   32.3186 H   0  0  0  0  0  0  0  0  0  0  0  0
   37.6580   23.9647   39.7062 H   0  0  0  0  0  0  0  0  0  0  0  0
   39.9038   22.7368   39.3984 H   0  0  0  0  0  0  0  0  0  0  0  0
   43.2462   20.2198   37.4520 H   0  0  0  0  0  0  0  0  0  0  0  0
   41.3040   21.3289   38.5660 H   0  0  0  0  0  0  0  0  0  0  0  0
   42.0550   20.7942   32.8298 H   0  0  0  0  0  0  0  0  0  0  0  0
   40.6613   22.1460   31.7620 H   0  0  0  0  0  0  0  0  0  0  0  0
   40.2123   22.8054   33.3516 H   0  0  0  0  0  0  0  0  0  0  0  0
   41.3374   24.3026   31.3201 H   0  0  0  0  0  0  0  0  0  0  0  0
   41.4930   24.7329   33.0320 H   0  0  0  0  0  0  0  0  0  0  0  0
   43.4789   23.4141   31.1789 H   0  0  0  0  0  0  0  0  0  0  0  0
   43.7896   24.5397   32.5092 H   0  0  0  0  0  0  0  0  0  0  0  0
   44.1689   21.8120   32.6662 H   0  0  0  0  0  0  0  0  0  0  0  0
   43.8378   22.8283   34.0876 H   0  0  0  0  0  0  0  0  0  0  0  0
   38.4799   27.7478   34.0876 H   0  0  0  0  0  0  0  0  0  0  0  0
   39.5553   26.7142   33.0867 H   0  0  0  0  0  0  0  0  0  0  0  0
   37.7817   26.4297   33.0867 H   0  0  0  0  0  0  0  0  0  0  0  0
   38.6291   25.9680   36.9573 H   0  0  0  0  0  0  0  0  0  0  0  0
   38.5835   27.4937   36.0102 H   0  0  0  0  0  0  0  0  0  0  0  0
   37.1633   26.3938   36.0102 H   0  0  0  0  0  0  0  0  0  0  0  0
   40.5384   25.6170   36.1619 H   0  0  0  0  0  0  0  0  0  0  0  0
   40.6732   24.7064   34.6194 H   0  0  0  0  0  0  0  0  0  0  0  0
   40.8061   26.4978   34.6194 H   0  0  0  0  0  0  0  0  0  0  0  0
  1  8  1  0
  2  1  2  0
  3  2  1  0
  4  5  1  0
  4  3  2  0
  5  6  2  0
  6 23  1  0
  6  1  1  0
  7 11  1  0
  8  7  2  0
  8  9  1  0
  9 10  2  0
 11 10  1  0
 12 13  2  0
 14  7  1  0
 14 13  1  0
 15 14  2  0
 16 15  1  0
 16 17  2  0
 17 12  1  0
 18 16  1  0
 19 18  1  0
 20 19  1  0
 21 20  1  0
 21 22  1  0
 22 18  1  0
 23 26  1  0
 23 25  1  0
 24 23  1  0
  2 27  1  0
  3 28  1  0
  4 29  1  0
  5 30  1  0
 10 31  1  0
 11 32  1  0
 12 33  1  0
 13 34  1  0
 18 35  1  0
 19 36  1  0
 19 37  1  0
 20 38  1  0
 20 39  1  0
 21 40  1  0
 21 41  1  0
 22 42  1  0
 22 43  1  0
 24 44  1  0
 24 45  1  0
 24 46  1  0
 25 47  1  0
 25 48  1  0
 25 49  1  0
 26 50  1  0
 26 51  1  0
 26 52  1  0
M  ISO  8  27  14  28  14  29  14  30  14  31  14  32   9  33  14  34  14
M  ISO  8  35  13  36  13  37  13  38  13  39  13  40  13  41  13  42  13
M  ISO  8  43  13  44   8  45   8  46   8  47   8  48   8  49   8  50   8
M  ISO  2  51   8  52   8
M  END
>  <minimizedAffinity>  (1) 
-5.48939943

>  <minimizedRMSD>  (1) 
0.246743739

$$$$
