
     RDKit          3D

 44 47  0  0  0  0  0  0  0  0999 V2000
   38.1130   23.3690   35.1780 C   0  0  0  0  0  0  0  0  0  0  0  0
   37.6330   22.2050   34.6690 C   0  0  0  0  0  0  0  0  0  0  0  0
   37.3370   22.0490   33.3330 C   0  0  0  0  0  0  0  0  0  0  0  0
   37.5290   23.1000   32.4630 C   0  0  0  0  0  0  0  0  0  0  0  0
   38.0170   24.2640   33.0070 C   0  0  0  0  0  0  0  0  0  0  0  0
   38.3370   24.4850   34.3610 C   0  0  0  0  0  0  0  0  0  0  0  0
   39.4190   22.8130   37.2970 C   0  0  0  0  0  0  0  0  0  0  0  0
   38.3580   23.3340   36.6030 C   0  0  0  0  0  0  0  0  0  0  0  0
   37.5360   23.8390   37.5480 N   0  0  0  0  0  0  0  0  0  0  0  0
   38.0740   23.6330   38.7530 C   0  0  0  0  0  0  0  0  0  0  0  0
   39.2400   23.0010   38.6400 N   0  0  0  0  0  0  0  0  0  0  0  0
   42.5790   20.8910   36.8690 C   0  0  0  0  0  0  0  0  0  0  0  0
   41.4910   21.4940   37.4990 C   0  0  0  0  0  0  0  0  0  0  0  0
   40.5680   22.1620   36.7010 C   0  0  0  0  0  0  0  0  0  0  0  0
   40.7930   22.1830   35.3250 N   0  0  0  0  0  0  0  0  0  0  0  0
   41.8590   21.5860   34.7720 C   0  0  0  0  0  0  0  0  0  0  0  0
   42.7480   20.9430   35.5280 N   0  0  0  0  0  0  0  0  0  0  0  0
   42.0380   21.6460   33.3220 C   0  0  0  0  0  0  0  0  0  0  0  0
   41.2500   22.1640   32.3610 N   0  0  0  0  0  0  0  0  0  0  0  0
   41.7850   22.0070   31.1860 O   0  0  0  0  0  0  0  0  0  0  0  0
   42.9280   21.3860   31.3260 C   0  0  0  0  0  0  0  0  0  0  0  0
   43.1200   21.1440   32.6560 N   0  0  0  0  0  0  0  0  0  0  0  0
   38.8470   25.7150   34.8860 C   0  0  0  0  0  0  0  0  0  0  0  0
   38.6200   26.7230   33.7270 C   0  0  0  0  0  0  0  0  0  0  0  0
   38.3590   26.3890   36.0710 C   0  0  0  0  0  0  0  0  0  0  0  0
   40.3630   25.5970   35.0070 C   0  0  0  0  0  0  0  0  0  0  0  0
   37.4747   21.3551   35.3491 H   0  0  0  0  0  0  0  0  0  0  0  0
   36.9488   21.0890   32.9620 H   0  0  0  0  0  0  0  0  0  0  0  0
   37.3037   23.0121   31.3899 H   0  0  0  0  0  0  0  0  0  0  0  0
   38.1731   25.1063   32.3169 H   0  0  0  0  0  0  0  0  0  0  0  0
   37.6177   23.9422   39.7049 H   0  0  0  0  0  0  0  0  0  0  0  0
   39.8723   22.7147   39.4011 H   0  0  0  0  0  0  0  0  0  0  0  0
   43.3216   20.3574   37.4804 H   0  0  0  0  0  0  0  0  0  0  0  0
   41.3667   21.4431   38.5908 H   0  0  0  0  0  0  0  0  0  0  0  0
   43.6150   21.1073   30.5134 H   0  0  0  0  0  0  0  0  0  0  0  0
   38.3963   27.7162   34.1434 H   0  0  0  0  0  0  0  0  0  0  0  0
   39.5276   26.7807   33.1082 H   0  0  0  0  0  0  0  0  0  0  0  0
   37.7752   26.3861   33.1082 H   0  0  0  0  0  0  0  0  0  0  0  0
   38.7332   25.8722   36.9671 H   0  0  0  0  0  0  0  0  0  0  0  0
   38.7140   27.4301   36.0731 H   0  0  0  0  0  0  0  0  0  0  0  0
   37.2591   26.3767   36.0731 H   0  0  0  0  0  0  0  0  0  0  0  0
   40.6454   25.5750   36.0699 H   0  0  0  0  0  0  0  0  0  0  0  0
   40.6987   24.6700   34.5192 H   0  0  0  0  0  0  0  0  0  0  0  0
   40.8381   26.4609   34.5192 H   0  0  0  0  0  0  0  0  0  0  0  0
  1  8  1  0
  2  1  2  0
  3  2  1  0
  4  5  1  0
  4  3  2  0
  5  6  2  0
  6 23  1  0
  6  1  1  0
  7 11  1  0
  8  7  2  0
  8  9  1  0
  9 10  2  0
 11 10  1  0
 12 13  2  0
 14  7  1  0
 14 13  1  0
 15 14  2  0
 16 15  1  0
 16 17  2  0
 17 12  1  0
 18 16  1  0
 19 18  2  0
 20 21  1  0
 20 19  1  0
 21 22  2  0
 22 18  1  0
 23 26  1  0
 23 25  1  0
 24 23  1  0
  2 27  1  0
  3 28  1  0
  4 29  1  0
  5 30  1  0
 10 31  1  0
 11 32  1  0
 12 33  1  0
 13 34  1  0
 21 35  1  0
 24 36  1  0
 24 37  1  0
 24 38  1  0
 25 39  1  0
 25 40  1  0
 25 41  1  0
 26 42  1  0
 26 43  1  0
 26 44  1  0
M  ISO  8  27  14  28  14  29  14  30  14  31  14  32   9  33  14  34  14
M  ISO  8  35  14  36   8  37   8  38   8  39   8  40   8  41   8  42   8
M  ISO  2  43   8  44   8
M  END
>  <minimizedAffinity>  (1) 
-5.42825174

>  <minimizedRMSD>  (1) 
0.399968207

$$$$
