
     RDKit          3D

 46 49  0  0  0  0  0  0  0  0999 V2000
   38.1260   23.3630   35.1970 C   0  0  0  0  0  0  0  0  0  0  0  0
   37.6450   22.1860   34.7030 C   0  0  0  0  0  0  0  0  0  0  0  0
   37.3590   22.0200   33.3670 C   0  0  0  0  0  0  0  0  0  0  0  0
   37.5620   23.0710   32.4840 C   0  0  0  0  0  0  0  0  0  0  0  0
   38.0460   24.2350   33.0180 C   0  0  0  0  0  0  0  0  0  0  0  0
   38.3610   24.4710   34.3800 C   0  0  0  0  0  0  0  0  0  0  0  0
   39.4160   22.8230   37.3360 C   0  0  0  0  0  0  0  0  0  0  0  0
   38.3610   23.3380   36.6320 C   0  0  0  0  0  0  0  0  0  0  0  0
   37.5300   23.8500   37.5640 N   0  0  0  0  0  0  0  0  0  0  0  0
   38.0670   23.6490   38.7760 C   0  0  0  0  0  0  0  0  0  0  0  0
   39.2250   23.0200   38.6720 N   0  0  0  0  0  0  0  0  0  0  0  0
   42.5640   20.8590   36.9430 C   0  0  0  0  0  0  0  0  0  0  0  0
   41.4730   21.4740   37.5510 C   0  0  0  0  0  0  0  0  0  0  0  0
   40.5760   22.1590   36.7480 C   0  0  0  0  0  0  0  0  0  0  0  0
   40.8160   22.1930   35.3780 N   0  0  0  0  0  0  0  0  0  0  0  0
   41.8820   21.5830   34.8440 C   0  0  0  0  0  0  0  0  0  0  0  0
   42.7520   20.9220   35.5970 N   0  0  0  0  0  0  0  0  0  0  0  0
   42.1180   21.6290   33.4010 C   0  0  0  0  0  0  0  0  0  0  0  0
   43.1560   21.2520   32.5730 C   0  0  0  0  0  0  0  0  0  0  0  0
   42.7490   21.5690   31.2810 C   0  0  0  0  0  0  0  0  0  0  0  0
   41.5040   22.1190   31.3540 N   0  0  0  0  0  0  0  0  0  0  0  0
   41.1290   22.1540   32.6210 N   0  0  0  0  0  0  0  0  0  0  0  0
   38.8710   25.7050   34.8950 C   0  0  0  0  0  0  0  0  0  0  0  0
   38.6590   26.7060   33.7300 C   0  0  0  0  0  0  0  0  0  0  0  0
   38.3560   26.3800   36.0690 C   0  0  0  0  0  0  0  0  0  0  0  0
   40.3870   25.5860   35.0240 C   0  0  0  0  0  0  0  0  0  0  0  0
   37.4809   21.3449   35.3926 H   0  0  0  0  0  0  0  0  0  0  0  0
   36.9711   21.0581   33.0007 H   0  0  0  0  0  0  0  0  0  0  0  0
   37.3451   22.9739   31.4100 H   0  0  0  0  0  0  0  0  0  0  0  0
   38.2065   25.0705   32.3207 H   0  0  0  0  0  0  0  0  0  0  0  0
   37.6079   23.9637   39.7248 H   0  0  0  0  0  0  0  0  0  0  0  0
   39.8517   22.7378   39.4391 H   0  0  0  0  0  0  0  0  0  0  0  0
   43.2886   20.3111   37.5633 H   0  0  0  0  0  0  0  0  0  0  0  0
   41.3272   21.4175   38.6398 H   0  0  0  0  0  0  0  0  0  0  0  0
   44.1101   20.7944   32.8734 H   0  0  0  0  0  0  0  0  0  0  0  0
   43.3301   21.4046   30.3616 H   0  0  0  0  0  0  0  0  0  0  0  0
   40.9474   22.4523   30.5540 H   0  0  0  0  0  0  0  0  0  0  0  0
   38.4474   27.7050   34.1389 H   0  0  0  0  0  0  0  0  0  0  0  0
   39.5682   26.7476   33.1123 H   0  0  0  0  0  0  0  0  0  0  0  0
   37.8109   26.3755   33.1123 H   0  0  0  0  0  0  0  0  0  0  0  0
   38.7354   25.8827   36.9739 H   0  0  0  0  0  0  0  0  0  0  0  0
   38.6848   27.4297   36.0622 H   0  0  0  0  0  0  0  0  0  0  0  0
   37.2567   26.3401   36.0622 H   0  0  0  0  0  0  0  0  0  0  0  0
   40.6638   25.5643   36.0884 H   0  0  0  0  0  0  0  0  0  0  0  0
   40.7246   24.6586   34.5383 H   0  0  0  0  0  0  0  0  0  0  0  0
   40.8652   26.4494   34.5383 H   0  0  0  0  0  0  0  0  0  0  0  0
  1  8  1  0
  2  1  2  0
  3  2  1  0
  4  5  1  0
  4  3  2  0
  5  6  2  0
  6 23  1  0
  6  1  1  0
  7 11  1  0
  8  7  2  0
  8  9  1  0
  9 10  2  0
 11 10  1  0
 12 13  2  0
 14  7  1  0
 14 13  1  0
 15 14  2  0
 16 15  1  0
 16 17  2  0
 17 12  1  0
 18 16  1  0
 19 18  1  0
 20 21  1  0
 20 19  2  0
 21 22  1  0
 22 18  2  0
 23 26  1  0
 23 25  1  0
 24 23  1  0
  2 27  1  0
  3 28  1  0
  4 29  1  0
  5 30  1  0
 10 31  1  0
 11 32  1  0
 12 33  1  0
 13 34  1  0
 19 35  1  0
 20 36  1  0
 21 37  1  0
 24 38  1  0
 24 39  1  0
 24 40  1  0
 25 41  1  0
 25 42  1  0
 25 43  1  0
 26 44  1  0
 26 45  1  0
 26 46  1  0
M  ISO  8  27  14  28  14  29  14  30  14  31  14  32   9  33  14  34  14
M  ISO  8  35  14  36  14  37   9  38   8  39   8  40   8  41   8  42   8
M  ISO  4  43   8  44   8  45   8  46   8
M  END
>  <minimizedAffinity>  (1) 
-5.43070602

>  <minimizedRMSD>  (1) 
0.467775047

$$$$
