
     RDKit          3D

 34 35  0  0  0  0  0  0  0  0999 V2000
   37.7480   21.7000   33.8590 C   0  0  0  0  0  0  0  0  0  0  0  0
   39.0980   22.0110   34.0290 C   0  0  0  0  0  0  0  0  0  0  0  0
   39.5420   22.3550   35.3260 C   0  0  0  0  0  0  0  0  0  0  0  0
   38.6250   22.3660   36.3490 N   0  0  0  0  0  0  0  0  0  0  0  0
   37.3300   22.0570   36.1270 C   0  0  0  0  0  0  0  0  0  0  0  0
   36.8880   21.7250   34.8900 N   0  0  0  0  0  0  0  0  0  0  0  0
   37.3050   21.3550   32.5590 N   0  0  0  0  0  0  0  0  0  0  0  0
   37.3400   20.0270   31.9720 C   0  0  0  0  0  0  0  0  0  0  0  0
   36.2010   20.0770   30.9910 C   0  0  0  0  0  0  0  0  0  0  0  0
   35.5670   21.4440   31.0790 C   0  0  0  0  0  0  0  0  0  0  0  0
   36.7340   22.2760   31.5810 C   0  0  0  0  0  0  0  0  0  0  0  0
   40.9280   22.6990   35.6350 C   0  0  0  0  0  0  0  0  0  0  0  0
   41.8030   21.7020   34.8610 C   0  0  0  0  0  0  0  0  0  0  0  0
   41.2970   24.1230   35.2690 C   0  0  0  0  0  0  0  0  0  0  0  0
   41.1770   22.5350   37.1220 C   0  0  0  0  0  0  0  0  0  0  0  0
   39.7957   21.9890   33.1788 H   0  0  0  0  0  0  0  0  0  0  0  0
   36.6196   22.0751   36.9667 H   0  0  0  0  0  0  0  0  0  0  0  0
   38.2969   19.8426   31.4617 H   0  0  0  0  0  0  0  0  0  0  0  0
   37.2482   19.2174   32.7110 H   0  0  0  0  0  0  0  0  0  0  0  0
   35.4588   19.3048   31.2416 H   0  0  0  0  0  0  0  0  0  0  0  0
   36.5680   19.8917   29.9707 H   0  0  0  0  0  0  0  0  0  0  0  0
   35.2178   21.7909   30.0953 H   0  0  0  0  0  0  0  0  0  0  0  0
   34.6725   21.4875   31.7178 H   0  0  0  0  0  0  0  0  0  0  0  0
   37.4460   22.5075   30.7751 H   0  0  0  0  0  0  0  0  0  0  0  0
   36.4589   23.2628   31.9817 H   0  0  0  0  0  0  0  0  0  0  0  0
   42.3567   21.0711   35.5720 H   0  0  0  0  0  0  0  0  0  0  0  0
   41.1645   21.0679   34.2283 H   0  0  0  0  0  0  0  0  0  0  0  0
   42.5146   22.2528   34.2283 H   0  0  0  0  0  0  0  0  0  0  0  0
   41.4491   24.7098   36.1869 H   0  0  0  0  0  0  0  0  0  0  0  0
   42.2243   24.1210   34.6773 H   0  0  0  0  0  0  0  0  0  0  0  0
   40.4854   24.5715   34.6773 H   0  0  0  0  0  0  0  0  0  0  0  0
   40.3880   23.0547   37.6854 H   0  0  0  0  0  0  0  0  0  0  0  0
   41.1678   21.4656   37.3796 H   0  0  0  0  0  0  0  0  0  0  0  0
   42.1558   22.9658   37.3796 H   0  0  0  0  0  0  0  0  0  0  0  0
  1  2  2  0
  1  6  1  0
  2  3  1  0
  3 12  1  0
  3  4  2  0
  5  4  1  0
  6  5  2  0
  7  1  1  0
  8  7  1  0
  9 10  1  0
  9  8  1  0
 10 11  1  0
 11  7  1  0
 12 15  1  0
 13 12  1  0
 14 12  1  0
  2 16  1  0
  5 17  1  0
  8 18  1  0
  8 19  1  0
  9 20  1  0
  9 21  1  0
 10 22  1  0
 10 23  1  0
 11 24  1  0
 11 25  1  0
 13 26  1  0
 13 27  1  0
 13 28  1  0
 14 29  1  0
 14 30  1  0
 14 31  1  0
 15 32  1  0
 15 33  1  0
 15 34  1  0
M  ISO  8  16  14  17  14  18  13  19  13  20  13  21  13  22  13  23  13
M  ISO  8  24  13  25  13  26   8  27   8  28   8  29   8  30   8  31   8
M  ISO  3  32   8  33   8  34   8
M  END
>  <minimizedAffinity>  (1) 
-3.44044042

>  <minimizedRMSD>  (1) 
6.50009966

$$$$
