
     RDKit          3D

 27 29  0  0  1  0  0  0  0  0999 V2000
   37.6790   26.2450   35.5650 C   0  0  1  0  0  0  0  0  0  0  0  0
   38.4570   27.2010   34.6860 C   0  0  0  0  0  0  0  0  0  0  0  0
   37.2710   26.4680   34.1880 C   0  0  1  0  0  0  0  0  0  0  0  0
   38.3570   25.0310   36.0730 C   0  0  0  0  0  0  0  0  0  0  0  0
   37.6250   24.2580   36.9900 C   0  0  0  0  0  0  0  0  0  0  0  0
   38.1860   23.0940   37.4950 C   0  0  0  0  0  0  0  0  0  0  0  0
   39.4420   22.7600   37.0630 N   0  0  0  0  0  0  0  0  0  0  0  0
   40.1150   23.5330   36.1750 C   0  0  0  0  0  0  0  0  0  0  0  0
   39.5760   24.6630   35.6840 N   0  0  0  0  0  0  0  0  0  0  0  0
   37.5170   25.6310   33.0570 N   0  0  0  0  0  0  0  0  0  0  0  0
   37.7510   24.2840   33.0260 C   0  0  0  0  0  0  0  0  0  0  0  0
   37.9860   23.5790   31.8770 C   0  0  0  0  0  0  0  0  0  0  0  0
   37.9950   24.2340   30.6630 C   0  0  0  0  0  0  0  0  0  0  0  0
   38.2080   23.6140   29.5890 O   0  0  0  0  0  0  0  0  0  0  0  0
   37.7710   25.5590   30.6320 N   0  0  0  0  0  0  0  0  0  0  0  0
   37.5470   26.1830   31.8030 C   0  0  0  0  0  0  0  0  0  0  0  0
   37.3380   27.4430   31.7350 O   0  0  0  0  0  0  0  0  0  0  0  0
   37.1249   26.2732   36.5149 H   0  0  0  0  0  0  0  0  0  0  0  0
   38.4055   28.2854   34.8634 H   0  0  0  0  0  0  0  0  0  0  0  0
   39.5061   27.3095   34.3736 H   0  0  0  0  0  0  0  0  0  0  0  0
   36.2634   26.6643   33.7927 H   0  0  0  0  0  0  0  0  0  0  0  0
   36.6186   24.5722   37.3039 H   0  0  0  0  0  0  0  0  0  0  0  0
   37.6430   22.4637   38.2146 H   0  0  0  0  0  0  0  0  0  0  0  0
   41.1212   23.2299   35.8500 H   0  0  0  0  0  0  0  0  0  0  0  0
   37.7503   23.7357   33.9796 H   0  0  0  0  0  0  0  0  0  0  0  0
   38.1669   22.4949   31.9212 H   0  0  0  0  0  0  0  0  0  0  0  0
   37.7708   26.0787   29.7427 H   0  0  0  0  0  0  0  0  0  0  0  0
  1  4  1  0
  2  1  1  0
  3  2  1  0
  3  1  1  0
  4  5  2  0
  5  6  1  0
  7  6  2  0
  8  7  1  0
  9  4  1  0
  9  8  2  0
 10  3  1  0
 11 10  1  0
 12 11  2  0
 13 12  1  0
 14 13  2  0
 15 13  1  0
 15 16  1  0
 16 10  1  0
 17 16  2  0
  1 18  1  1
  2 19  1  0
  2 20  1  0
  3 21  1  1
  5 22  1  0
  6 23  1  0
  8 24  1  0
 11 25  1  0
 12 26  1  0
 15 27  1  0
M  ISO  8  18  13  19  13  20  13  21  13  22  14  23  14  24  14  25  14
M  ISO  2  26  14  27   9
M  END
>  <minimizedAffinity>  (1) 
-4.20471668

>  <minimizedRMSD>  (1) 
3.97768044

$$$$
