
     RDKit          3D

 43 46  0  0  1  0  0  0  0  0999 V2000
   38.0070   26.3230   36.4480 C   0  0  1  0  0  0  0  0  0  0  0  0
   38.7710   27.3070   35.6230 C   0  0  0  0  0  0  0  0  0  0  0  0
   37.5110   26.7090   35.1210 C   0  0  1  0  0  0  0  0  0  0  0  0
   37.6180   25.9950   33.9000 N   0  0  0  0  0  0  0  0  0  0  0  0
   37.7100   24.6560   33.7080 C   0  0  0  0  0  0  0  0  0  0  0  0
   37.8190   24.0640   32.4790 C   0  0  0  0  0  0  0  0  0  0  0  0
   37.8390   24.8430   31.3530 C   0  0  0  0  0  0  0  0  0  0  0  0
   37.9380   24.3560   30.1930 O   0  0  0  0  0  0  0  0  0  0  0  0
   37.7500   26.1850   31.4750 N   0  0  0  0  0  0  0  0  0  0  0  0
   37.6450   26.6880   32.7120 C   0  0  0  0  0  0  0  0  0  0  0  0
   37.5590   27.9640   32.8040 O   0  0  0  0  0  0  0  0  0  0  0  0
   37.7660   27.0470   30.3340 C   0  0  0  0  0  0  0  0  0  0  0  0
   36.5550   27.9620   30.2460 C   0  0  0  0  0  0  0  0  0  0  0  0
   37.0040   29.3450   29.8680 C   0  0  0  0  0  0  0  0  0  0  0  0
   37.8590   29.3650   28.6420 C   0  0  0  0  0  0  0  0  0  0  0  0
   38.9420   28.3000   28.6330 C   0  0  0  0  0  0  0  0  0  0  0  0
   39.0160   27.8250   30.0970 C   0  0  0  0  0  0  0  0  0  0  0  0
   38.6000   24.9950   36.7650 C   0  0  0  0  0  0  0  0  0  0  0  0
   38.0600   24.3330   37.8670 C   0  0  0  0  0  0  0  0  0  0  0  0
   38.5820   23.0900   38.2130 C   0  0  0  0  0  0  0  0  0  0  0  0
   39.5960   22.5930   37.4490 N   0  0  0  0  0  0  0  0  0  0  0  0
   40.0840   23.2720   36.3930 C   0  0  0  0  0  0  0  0  0  0  0  0
   39.6000   24.4650   36.0410 N   0  0  0  0  0  0  0  0  0  0  0  0
   37.5473   26.2995   37.4471 H   0  0  0  0  0  0  0  0  0  0  0  0
   38.8014   28.3671   35.9150 H   0  0  0  0  0  0  0  0  0  0  0  0
   39.8038   27.3831   35.2521 H   0  0  0  0  0  0  0  0  0  0  0  0
   36.4957   27.0006   34.8143 H   0  0  0  0  0  0  0  0  0  0  0  0
   37.6962   24.0053   34.5948 H   0  0  0  0  0  0  0  0  0  0  0  0
   37.8901   22.9694   32.3962 H   0  0  0  0  0  0  0  0  0  0  0  0
   37.7231   26.3134   29.5155 H   0  0  0  0  0  0  0  0  0  0  0  0
   35.8604   27.5799   29.4834 H   0  0  0  0  0  0  0  0  0  0  0  0
   36.0454   27.9935   31.2203 H   0  0  0  0  0  0  0  0  0  0  0  0
   36.1140   29.9651   29.6852 H   0  0  0  0  0  0  0  0  0  0  0  0
   37.6105   29.7336   30.6994 H   0  0  0  0  0  0  0  0  0  0  0  0
   37.2125   29.2098   27.7657 H   0  0  0  0  0  0  0  0  0  0  0  0
   38.3680   30.3400   28.6220 H   0  0  0  0  0  0  0  0  0  0  0  0
   38.6669   27.4692   27.9666 H   0  0  0  0  0  0  0  0  0  0  0  0
   39.9056   28.6816   28.2643 H   0  0  0  0  0  0  0  0  0  0  0  0
   39.8991   27.1870   30.2488 H   0  0  0  0  0  0  0  0  0  0  0  0
   39.1049   28.6715   30.7938 H   0  0  0  0  0  0  0  0  0  0  0  0
   37.2415   24.7821   38.4487 H   0  0  0  0  0  0  0  0  0  0  0  0
   38.1899   22.5279   39.0734 H   0  0  0  0  0  0  0  0  0  0  0  0
   40.9030   22.8317   35.8053 H   0  0  0  0  0  0  0  0  0  0  0  0
  1 18  1  0
  2  1  1  0
  3  2  1  0
  3  1  1  0
  4  3  1  0
  5  4  1  0
  6  5  2  0
  7  9  1  0
  7  6  1  0
  8  7  2  0
  9 10  1  0
 10 11  2  0
 10  4  1  0
 12  9  1  0
 13 12  1  0
 14 13  1  0
 15 14  1  0
 16 15  1  0
 16 17  1  0
 17 12  1  0
 18 19  2  0
 19 20  1  0
 21 20  2  0
 22 21  1  0
 23 22  2  0
 23 18  1  0
  1 24  1  1
  2 25  1  0
  2 26  1  0
  3 27  1  1
  5 28  1  0
  6 29  1  0
 12 30  1  0
 13 31  1  0
 13 32  1  0
 14 33  1  0
 14 34  1  0
 15 35  1  0
 15 36  1  0
 16 37  1  0
 16 38  1  0
 17 39  1  0
 17 40  1  0
 19 41  1  0
 20 42  1  0
 22 43  1  0
M  ISO  8  24  13  25  13  26  13  27  13  28  14  29  14  30  13  31  13
M  ISO  8  32  13  33  13  34  13  35  13  36  13  37  13  38  13  39  13
M  ISO  4  40  13  41  14  42  14  43  14
M  END
>  <minimizedAffinity>  (1) 
-5.15160084

>  <minimizedRMSD>  (1) 
1.02566946

$$$$
