
     RDKit          3D

 36 38  0  0  1  0  0  0  0  0999 V2000
   37.8920   26.2490   36.0800 C   0  0  1  0  0  0  0  0  0  0  0  0
   38.6200   27.2700   35.2650 C   0  0  0  0  0  0  0  0  0  0  0  0
   37.4080   26.5790   34.7340 C   0  0  1  0  0  0  0  0  0  0  0  0
   37.6210   25.8630   33.5260 N   0  0  0  0  0  0  0  0  0  0  0  0
   37.4630   24.5380   33.2970 C   0  0  0  0  0  0  0  0  0  0  0  0
   37.7060   23.9270   32.0920 C   0  0  0  0  0  0  0  0  0  0  0  0
   38.1430   24.7010   31.0230 C   0  0  0  0  0  0  0  0  0  0  0  0
   38.3750   24.1730   29.9170 O   0  0  0  0  0  0  0  0  0  0  0  0
   38.3210   26.0350   31.1800 N   0  0  0  0  0  0  0  0  0  0  0  0
   38.0540   26.5350   32.4070 C   0  0  0  0  0  0  0  0  0  0  0  0
   38.2270   27.7930   32.5420 O   0  0  0  0  0  0  0  0  0  0  0  0
   38.7680   26.8680   30.0950 C   0  0  0  0  0  0  0  0  0  0  0  0
   37.8060   28.0280   29.8500 C   0  0  0  0  0  0  0  0  0  0  0  0
   40.1200   27.4650   30.2610 C   0  0  0  0  0  0  0  0  0  0  0  0
   38.5560   24.9700   36.4410 C   0  0  0  0  0  0  0  0  0  0  0  0
   38.0460   24.3100   37.5570 C   0  0  0  0  0  0  0  0  0  0  0  0
   38.6380   23.1100   37.9420 C   0  0  0  0  0  0  0  0  0  0  0  0
   39.6890   22.6470   37.2020 N   0  0  0  0  0  0  0  0  0  0  0  0
   40.1520   23.3300   36.1200 C   0  0  0  0  0  0  0  0  0  0  0  0
   39.5900   24.4810   35.7450 N   0  0  0  0  0  0  0  0  0  0  0  0
   37.4039   26.2114   37.0650 H   0  0  0  0  0  0  0  0  0  0  0  0
   38.5738   28.3337   35.5413 H   0  0  0  0  0  0  0  0  0  0  0  0
   39.6568   27.4081   34.9244 H   0  0  0  0  0  0  0  0  0  0  0  0
   36.3819   26.7903   34.3986 H   0  0  0  0  0  0  0  0  0  0  0  0
   37.1172   23.9099   34.1312 H   0  0  0  0  0  0  0  0  0  0  0  0
   37.5575   22.8435   31.9742 H   0  0  0  0  0  0  0  0  0  0  0  0
   38.8060   26.1680   29.2474 H   0  0  0  0  0  0  0  0  0  0  0  0
   37.4687   28.4347   30.8148 H   0  0  0  0  0  0  0  0  0  0  0  0
   38.3194   28.8159   29.2793 H   0  0  0  0  0  0  0  0  0  0  0  0
   36.9367   27.6692   29.2793 H   0  0  0  0  0  0  0  0  0  0  0  0
   40.3474   27.5654   31.3325 H   0  0  0  0  0  0  0  0  0  0  0  0
   40.8691   26.8140   29.7866 H   0  0  0  0  0  0  0  0  0  0  0  0
   40.1435   28.4572   29.7866 H   0  0  0  0  0  0  0  0  0  0  0  0
   37.1973   24.7263   38.1196 H   0  0  0  0  0  0  0  0  0  0  0  0
   38.2706   22.5516   38.8156 H   0  0  0  0  0  0  0  0  0  0  0  0
   41.0006   22.9282   35.5469 H   0  0  0  0  0  0  0  0  0  0  0  0
  1 15  1  0
  2  1  1  0
  3  2  1  0
  3  1  1  0
  4  3  1  0
  5  4  1  0
  6  5  2  0
  7  9  1  0
  7  6  1  0
  8  7  2  0
  9 10  1  0
 10 11  2  0
 10  4  1  0
 12 14  1  0
 12  9  1  0
 13 12  1  0
 15 16  2  0
 16 17  1  0
 18 17  2  0
 19 18  1  0
 20 19  2  0
 20 15  1  0
  1 21  1  1
  2 22  1  0
  2 23  1  0
  3 24  1  1
  5 25  1  0
  6 26  1  0
 12 27  1  0
 13 28  1  0
 13 29  1  0
 13 30  1  0
 14 31  1  0
 14 32  1  0
 14 33  1  0
 16 34  1  0
 17 35  1  0
 19 36  1  0
M  ISO  8  21  13  22  13  23  13  24  13  25  14  26  14  27   8  28   8
M  ISO  8  29   8  30   8  31   8  32   8  33   8  34  14  35  14  36  14
M  END
>  <minimizedAffinity>  (1) 
-4.49225569

>  <minimizedRMSD>  (1) 
0.902289867

$$$$
