
     RDKit          3D

 49 53  0  0  1  0  0  0  0  0999 V2000
   38.0070   26.3930   36.5170 C   0  0  1  0  0  0  0  0  0  0  0  0
   38.8190   27.3180   35.6920 C   0  0  0  0  0  0  0  0  0  0  0  0
   37.5340   26.7680   35.1660 C   0  0  1  0  0  0  0  0  0  0  0  0
   37.6490   26.0590   33.9550 N   0  0  0  0  0  0  0  0  0  0  0  0
   37.7190   24.7290   33.7750 C   0  0  0  0  0  0  0  0  0  0  0  0
   37.8320   24.0990   32.5680 C   0  0  0  0  0  0  0  0  0  0  0  0
   37.8770   24.8900   31.4120 C   0  0  0  0  0  0  0  0  0  0  0  0
   37.9800   24.3660   30.2770 O   0  0  0  0  0  0  0  0  0  0  0  0
   37.8070   26.2450   31.5130 N   0  0  0  0  0  0  0  0  0  0  0  0
   37.6990   26.7530   32.7570 C   0  0  0  0  0  0  0  0  0  0  0  0
   37.6360   28.0290   32.8250 O   0  0  0  0  0  0  0  0  0  0  0  0
   37.1280   28.4560   28.7950 N   0  0  0  0  0  0  0  0  0  0  0  0
   36.7570   27.7290   29.8220 N   0  0  0  0  0  0  0  0  0  0  0  0
   37.8240   27.1110   30.3850 C   0  0  0  0  0  0  0  0  0  0  0  0
   38.9130   27.4850   29.6540 C   0  0  0  0  0  0  0  0  0  0  0  0
   38.4650   28.3290   28.6590 C   0  0  0  0  0  0  0  0  0  0  0  0
   38.5190   25.0370   36.8500 C   0  0  0  0  0  0  0  0  0  0  0  0
   37.9200   24.4100   37.9480 C   0  0  0  0  0  0  0  0  0  0  0  0
   38.3410   23.1430   38.3160 C   0  0  0  0  0  0  0  0  0  0  0  0
   39.3330   22.5780   37.5700 N   0  0  0  0  0  0  0  0  0  0  0  0
   39.8840   23.2250   36.5130 C   0  0  0  0  0  0  0  0  0  0  0  0
   39.4950   24.4380   36.1440 N   0  0  0  0  0  0  0  0  0  0  0  0
   40.9110   22.5190   35.8210 N   0  0  0  0  0  0  0  0  0  0  0  0
   41.7580   21.5770   36.5160 C   0  0  0  0  0  0  0  0  0  0  0  0
   43.1100   21.6120   35.7910 C   0  0  0  0  0  0  0  0  0  0  0  0
   42.9620   20.9460   34.4590 C   0  0  0  0  0  0  0  0  0  0  0  0
   41.7060   21.4150   33.7850 C   0  0  0  0  0  0  0  0  0  0  0  0
   41.1710   22.6940   34.4050 C   0  0  0  0  0  0  0  0  0  0  0  0
   37.5478   26.4203   37.5162 H   0  0  0  0  0  0  0  0  0  0  0  0
   38.8923   28.3808   35.9661 H   0  0  0  0  0  0  0  0  0  0  0  0
   39.8608   27.3385   35.3397 H   0  0  0  0  0  0  0  0  0  0  0  0
   36.5290   27.0776   34.8433 H   0  0  0  0  0  0  0  0  0  0  0  0
   37.6823   24.0955   34.6735 H   0  0  0  0  0  0  0  0  0  0  0  0
   37.8861   23.0021   32.5053 H   0  0  0  0  0  0  0  0  0  0  0  0
   36.5090   29.0231   28.1983 H   0  0  0  0  0  0  0  0  0  0  0  0
   39.9535   27.1723   29.8257 H   0  0  0  0  0  0  0  0  0  0  0  0
   39.0868   28.8126   27.8912 H   0  0  0  0  0  0  0  0  0  0  0  0
   37.1239   24.9175   38.5124 H   0  0  0  0  0  0  0  0  0  0  0  0
   37.8950   22.6157   39.1722 H   0  0  0  0  0  0  0  0  0  0  0  0
   41.8800   21.8758   37.5676 H   0  0  0  0  0  0  0  0  0  0  0  0
   41.3245   20.5660   36.5133 H   0  0  0  0  0  0  0  0  0  0  0  0
   43.4261   22.6560   35.6490 H   0  0  0  0  0  0  0  0  0  0  0  0
   43.8680   21.0853   36.3894 H   0  0  0  0  0  0  0  0  0  0  0  0
   43.8283   21.1961   33.8289 H   0  0  0  0  0  0  0  0  0  0  0  0
   42.9074   19.8571   34.6049 H   0  0  0  0  0  0  0  0  0  0  0  0
   40.9407   20.6299   33.8743 H   0  0  0  0  0  0  0  0  0  0  0  0
   41.9430   21.6217   32.7309 H   0  0  0  0  0  0  0  0  0  0  0  0
   41.9129   23.4952   34.2723 H   0  0  0  0  0  0  0  0  0  0  0  0
   40.2262   22.9554   33.9061 H   0  0  0  0  0  0  0  0  0  0  0  0
  1 17  1  0
  2  1  1  0
  3  2  1  0
  3  1  1  0
  4  3  1  0
  5  4  1  0
  6  5  2  0
  7  9  1  0
  7  6  1  0
  8  7  2  0
  9 10  1  0
 10 11  2  0
 10  4  1  0
 12 13  1  0
 13 14  2  0
 14  9  1  0
 15 14  1  0
 16 12  1  0
 16 15  2  0
 17 18  2  0
 18 19  1  0
 20 19  2  0
 21 20  1  0
 22 21  2  0
 22 17  1  0
 23 21  1  0
 23 24  1  0
 25 24  1  0
 26 25  1  0
 27 28  1  0
 27 26  1  0
 28 23  1  0
  1 29  1  1
  2 30  1  0
  2 31  1  0
  3 32  1  1
  5 33  1  0
  6 34  1  0
 12 35  1  0
 15 36  1  0
 16 37  1  0
 18 38  1  0
 19 39  1  0
 24 40  1  0
 24 41  1  0
 25 42  1  0
 25 43  1  0
 26 44  1  0
 26 45  1  0
 27 46  1  0
 27 47  1  0
 28 48  1  0
 28 49  1  0
M  ISO  8  29  13  30  13  31  13  32  13  33  14  34  14  35   9  36  14
M  ISO  8  37  14  38  14  39  14  40  13  41  13  42  13  43  13  44  13
M  ISO  5  45  13  46  13  47  13  48  13  49  13
M  END
>  <minimizedAffinity>  (1) 
-6.02108097

>  <minimizedRMSD>  (1) 
0.229239494

$$$$
